data_PCOD8297204
_publ_section_title
;
Structure prediction by ZEFSAII (Michael W. Deem and Ramdas Pophale) SiO2 
 PCOD8297204
Probable space group: I M M A
;
_chemical_formula_sum "Si O2"
_cell_formula_units_Z 104
_cell_length_a 13.687620
_cell_length_b 23.542580
_cell_length_c 22.909490
_cell_angle_alpha 90.000000
_cell_angle_beta 90.000000
_cell_angle_gamma 90.000000
_cell_volume 7382.397330
_symmetry_space_group_name_H-M "I M M A"
_symmetry_group_IT_number 74
_symmetry_cell_setting 'orthorhombic'
loop_
_space_group_symop_operation_xyz
x,y,z
-x,1/2-y,z
x,-y,-z
-x,1/2+y,-z
-x,-y,-z
x,1/2+y,-z
-x,y,z
x,1/2-y,z
1/2+x,1/2+y,1/2+z
1/2-x,-y,1/2+z
1/2+x,1/2-y,1/2-z
1/2-x,y,1/2-z
1/2-x,1/2-y,1/2-z
1/2+x,y,1/2-z
1/2-x,1/2+y,1/2+z
1/2+x,-y,1/2+z
loop_
_atom_site_type_symbol
_atom_site_label
_atom_site_fract_x
_atom_site_fract_y
_atom_site_fract_z
Si Si1 0.384631 0.134955 0.995486
Si Si2 0.892047 0.528620 0.562462
Si Si3 0.298457 0.750000 0.026572
Si Si4 0.384137 0.250000 0.844492
Si Si5 0.387518 0.631536 0.348717
Si Si6 0.109152 0.250000 0.911325
Si Si7 0.884334 0.135937 0.715685
Si Si8 0.204787 0.927532 0.385602
O O1 0.500000 0.143565 0.990142
O O2 0.332882 0.194730 0.009041
O O3 0.348361 0.110754 0.933833
O O4 0.358098 0.093447 0.049964
O O5 0.901503 0.500000 0.500000
O O6 0.812954 0.494571 0.601415
O O7 0.000000 0.527047 0.592282
O O8 0.344053 0.750000 0.090595
O O9 0.181074 0.750000 0.033110
O O10 0.500000 0.250000 0.847534
O O11 0.344393 0.305045 0.810658
O O12 0.500000 0.612001 0.354950
O O13 0.372655 0.695353 0.371120
O O14 0.349171 0.629730 0.282244
O O15 0.320341 0.587541 0.385372
O O16 0.000000 0.250000 0.937184
O O17 0.841986 0.084614 0.677403
O O18 0.000000 0.134445 0.713769
#
# Coordination Sequence:
#
# PCOD8297204 Si02
#       8
#    16  16   8   8  16   8  16  16
#     4  10  18  28  42  62  81  95 122 161 207 248
#     4   8  16  28  42  58  76  98 121 156 203 251
#     4  12  18  26  43  63  78 102 128 172 203 229
#     4  10  17  24  36  55  81 104 130 163 202 236
#     4  10  20  30  39  53  77 109 143 173 199 224
#     4  10  19  32  40  48  75 115 146 165 194 231
#     4  10  18  26  38  57  79 104 134 169 201 232
#     4  11  17  27  42  55  75 103 137 163 196 234
#
# _framework density 14.087564
#
# number of rings (size 3 to 8) (size 9 to 14) (size 15 to 20)
#    0.000    2.000    3.077    3.923    0.000    1.846 
#    0.000    2.308    0.000    5.077    0.000    0.000 
#    0.000    0.000    0.000    2.769    0.000    9.538 
#
# Total GULP energy -644641.250234 kJ/mol
# GULP energy per Si atom -12396.947120 kJ/mol
# Density = 1.405550 g / cm^3
# Si number density = 14.087564 Si / 1000 Ang^3
#
#
#
# Elastic Constant Matrix: (Units=GPa)
#
#
# Indices 1 2 3 4 5 6 
#
# 1 57.7479 54.5509 34.6047 0.0000 0.0000 0.0000
# 2 54.5509 102.8862 40.2115 0.0000 0.0000 0.0000
# 3 34.6047 40.2115 33.0977 0.0000 0.0000 0.0000
# 4 0.0000 0.0000 0.0000 20.2087 0.0000 0.0000
# 5 0.0000 0.0000 0.0000 0.0000 16.6390 0.0000
# 6 0.0000 0.0000 0.0000 0.0000 0.0000 19.6744
#
#
#
# Elastic Compliance Matrix: (Units=1/GPa)
#
#
# Indices 1 2 3 4 5 6 
#
# 1 0.053556 -0.012398 -0.040932 0.000000 0.000000 0.000000
# 2 -0.012398 0.021378 -0.013010 0.000000 0.000000 0.000000
# 3 -0.040932 -0.013010 0.088815 0.000000 0.000000 0.000000
# 4 0.000000 0.000000 0.000000 0.049484 0.000000 0.000000
# 5 0.000000 0.000000 0.000000 0.000000 0.060100 0.000000
# 6 0.000000 0.000000 0.000000 0.000000 0.000000 0.050827
#
#
# Mechanical properties :
#
#
# Convention : Reuss Voigt Hill
#
# Bulk Modulus (GPa) = 32.18587 50.27399 41.22993
# Shear Modulus (GPa) = 10.70215 15.59541 13.14878
#
# Velocity S-wave (km/s) = 2.75923 3.33082 3.05841
# Velocity P-wave (km/s) = 5.74872 7.11033 6.46547
#
# Compressibility (1/GPa) = 0.03106953
#
# Stress axis : x y z
#
# Youngs Moduli (GPa) = 18.67193 46.77742 11.25937
#
# Poissons Ratio (x) = 0.57996 0.46086
# Poissons Ratio (y) = 0.23150 0.14648
# Poissons Ratio (z) = 0.76427 0.60856
#
# Static dielectric constant tensor:
#      x y z
#    x 2.919460 0.000000 0.000000 
#    y 0.000000 3.017920 0.000000 
#    z 0.000000 0.000000 2.553370 
# 
# 
# High freq. dielectric constant tensor:
#      x y z
#    x 1.546850 0.000000 0.000000 
#    y 0.000000 1.519660 0.000000 
#    z 0.000000 0.000000 1.489290 
# 
# From -- ./inp_files/52386.got.cif
#   From: 2010.03.12/outbox.cif.g09.slc.cpg/sg74_27_cif.got.tgz:52386.got - 2010.04.16 15:46:19.
