data_PCOD8297292
_publ_section_title
;
Structure prediction by ZEFSAII (Michael W. Deem and Ramdas Pophale) SiO2 
 PCOD8297292
Probable space group: I M M A
;
_chemical_formula_sum "Si O2"
_cell_formula_units_Z 120
_cell_length_a 15.190126
_cell_length_b 14.064442
_cell_length_c 30.959614
_cell_angle_alpha 90.000000
_cell_angle_beta 90.000000
_cell_angle_gamma 90.000000
_cell_volume 6614.231938
_symmetry_space_group_name_H-M "I M M A"
_symmetry_group_IT_number 74
_symmetry_cell_setting 'orthorhombic'
loop_
_space_group_symop_operation_xyz
x,y,z
-x,1/2-y,z
x,-y,-z
-x,1/2+y,-z
-x,-y,-z
x,1/2+y,-z
-x,y,z
x,1/2-y,z
1/2+x,1/2+y,1/2+z
1/2-x,-y,1/2+z
1/2+x,1/2-y,1/2-z
1/2-x,y,1/2-z
1/2-x,1/2-y,1/2-z
1/2+x,y,1/2-z
1/2-x,1/2+y,1/2+z
1/2+x,-y,1/2+z
loop_
_atom_site_type_symbol
_atom_site_label
_atom_site_fract_x
_atom_site_fract_y
_atom_site_fract_z
Si Si1 0.787525 0.641655 0.795633
Si Si2 0.904945 0.961055 0.406810
Si Si3 0.675128 0.145665 0.122603
Si Si4 0.097661 0.506260 0.850735
Si Si5 0.789274 0.641538 0.008296
Si Si6 0.359710 0.357194 0.421401
Si Si7 0.143210 0.500000 0.500000
Si Si8 0.722189 0.862024 0.395180
O O1 0.824950 0.750000 0.792579
O O2 0.750000 0.605859 0.750000
O O3 0.705790 0.638375 0.828029
O O4 0.864359 0.570662 0.811827
O O5 0.913867 0.975035 0.458276
O O6 0.824904 0.892465 0.392477
O O7 0.000000 0.918767 0.391735
O O8 0.896278 0.064738 0.385432
O O9 0.633943 0.250000 0.113717
O O10 0.758401 0.127617 0.091774
O O11 0.083404 0.569251 0.893989
O O12 0.163250 0.417853 0.860169
O O13 0.000000 0.468863 0.837804
O O14 0.760628 0.750000 0.009912
O O15 0.704859 0.589179 0.989433
O O16 0.815043 0.609698 0.057019
O O17 0.867946 0.624450 0.973387
O O18 0.390646 0.250000 0.410316
O O19 0.714370 0.750000 0.385639
#
# Coordination Sequence:
#
# PCOD8297292 Si02
#       8
#    16  16  16  16  16  16   8  16
#     4   9  18  35  60  86 116 144 164 197 254 324
#     4  11  20  31  49  74 104 141 185 228 274 325
#     4   9  16  30  50  75 107 140 170 205 258 323
#     4  11  21  35  57  84 108 140 183 222 266 317
#     4   9  16  28  49  69  97 145 188 224 273 321
#     4   9  15  28  50  74 106 143 179 218 265 321
#     4  10  17  28  42  68 103 134 179 234 276 314
#     4  10  21  37  53  72 103 144 190 238 278 310
#
# _framework density 18.142696000000001
#
# number of rings (size 3 to 8) (size 9 to 14) (size 15 to 20)
#    0.000    2.267    4.000    2.200    0.000    1.867 
#    0.000    2.000    0.000    7.600    0.000    0.000 
#    0.000    0.000    0.000    0.000    0.000    0.000 
#
# Total GULP energy -743434.050163 kJ/mol
# GULP energy per Si atom -12390.567503 kJ/mol
# Density = 1.810140 g / cm^3
# Si number density = 18.142696 Si / 1000 Ang^3
#
#
#
# Elastic Constant Matrix: (Units=GPa)
#
#
# Indices 1 2 3 4 5 6 
#
# 1 97.3105 40.3057 33.7637 0.0000 0.0000 0.0000
# 2 40.3057 83.5143 32.2955 0.0000 0.0000 0.0000
# 3 33.7637 32.2955 79.1659 0.0000 0.0000 0.0000
# 4 0.0000 0.0000 0.0000 23.8403 0.0000 0.0000
# 5 0.0000 0.0000 0.0000 0.0000 11.2193 0.0000
# 6 0.0000 0.0000 0.0000 0.0000 0.0000 43.4041
#
#
#
# Elastic Compliance Matrix: (Units=1/GPa)
#
#
# Indices 1 2 3 4 5 6 
#
# 1 0.013717 -0.005174 -0.003739 0.000000 0.000000 0.000000
# 2 -0.005174 0.016168 -0.004389 0.000000 0.000000 0.000000
# 3 -0.003739 -0.004389 0.016017 0.000000 0.000000 0.000000
# 4 0.000000 0.000000 0.000000 0.041946 0.000000 0.000000
# 5 0.000000 0.000000 0.000000 0.000000 0.089132 0.000000
# 6 0.000000 0.000000 0.000000 0.000000 0.000000 0.023039
#
#
# Mechanical properties :
#
#
# Convention : Reuss Voigt Hill
#
# Bulk Modulus (GPa) = 51.82109 52.52450 52.17280
# Shear Modulus (GPa) = 21.45393 25.93446 23.69419
#
# Velocity S-wave (km/s) = 3.44250 3.78494 3.61777
# Velocity P-wave (km/s) = 6.66529 6.93647 6.80223
#
# Compressibility (1/GPa) = 0.01929716
#
# Stress axis : x y z
#
# Youngs Moduli (GPa) = 72.90268 61.84908 62.43326
#
# Poissons Ratio (x) = 0.32001 0.23347
# Poissons Ratio (y) = 0.37720 0.27403
# Poissons Ratio (z) = 0.27262 0.27147
#
# Static dielectric constant tensor:
#      x y z
#    x 3.007900 0.000000 0.000000 
#    y 0.000000 3.418340 0.000000 
#    z 0.000000 0.000000 3.325800 
# 
# 
# High freq. dielectric constant tensor:
#      x y z
#    x 1.668650 0.000000 0.000000 
#    y 0.000000 1.701890 0.000000 
#    z 0.000000 0.000000 1.680090 
# 
# From -- ./inp_files/72749.got.cif
#   From: 2010.03.12/outbox.cif.g09.slc.cpg/sg74_37_cif.got.tgz:72749.got - 2010.04.16 15:46:19.
