data_PCOD8297455
_publ_section_title
;
Structure prediction by ZEFSAII (Michael W. Deem and Ramdas Pophale) SiO2 
 PCOD8297455
Probable space group: I M M A
;
_chemical_formula_sum "Si O2"
_cell_formula_units_Z 72
_cell_length_a 15.626403
_cell_length_b 8.950311
_cell_length_c 28.954643
_cell_angle_alpha 90.000000
_cell_angle_beta 90.000000
_cell_angle_gamma 90.000000
_cell_volume 4049.630150
_symmetry_space_group_name_H-M "I M M A"
_symmetry_group_IT_number 74
_symmetry_cell_setting 'orthorhombic'
loop_
_space_group_symop_operation_xyz
x,y,z
-x,1/2-y,z
x,-y,-z
-x,1/2+y,-z
-x,-y,-z
x,1/2+y,-z
-x,y,z
x,1/2-y,z
1/2+x,1/2+y,1/2+z
1/2-x,-y,1/2+z
1/2+x,1/2-y,1/2-z
1/2-x,y,1/2-z
1/2-x,1/2-y,1/2-z
1/2+x,y,1/2-z
1/2-x,1/2+y,1/2+z
1/2+x,-y,1/2+z
loop_
_atom_site_type_symbol
_atom_site_label
_atom_site_fract_x
_atom_site_fract_y
_atom_site_fract_z
Si Si1 0.250451 0.928125 0.363558
Si Si2 0.314137 0.926066 0.949984
Si Si3 0.405161 0.427274 0.698240
Si Si4 0.000000 0.921333 0.547827
Si Si5 0.405061 0.572433 0.198258
O O1 0.249741 0.750000 0.368175
O O2 0.334605 0.988768 0.337273
O O3 0.167696 0.989205 0.335779
O O4 0.252318 0.000682 0.414366
O O5 0.297261 0.750000 0.954498
O O6 0.409417 0.961852 0.928034
O O7 0.301722 0.000000 0.000000
O O8 0.500000 0.478823 0.682115
O O9 0.399743 0.250000 0.699371
O O10 0.386640 0.487648 0.749935
O O11 0.000000 0.750000 0.535109
O O12 0.000000 0.000000 0.500000
O O13 0.500000 0.518822 0.181984
O O14 0.401884 0.750000 0.198821
#
# Coordination Sequence:
#
# PCOD8297455 Si02
#       5
#    16  16  16   8  16
#     4  10  18  27  46  73  96 123 158 196 235 275
#     4  10  20  34  49  67  93 124 156 192 232 278
#     4   8  14  26  44  67  96 127 160 196 231 269
#     4   8  16  30  46  62  84 118 152 180 218 268
#     4   8  14  24  40  67 100 128 155 190 228 270
#
# _framework density 17.779401
#
# number of rings (size 3 to 8) (size 9 to 14) (size 15 to 20)
#    0.000    3.111    0.000    2.667    1.556    3.556 
#    0.000    0.000    0.000    4.000    0.000    3.111 
#    0.000    0.000    0.000    0.000    0.000    0.000 
#
# Total GULP energy -445978.303883 kJ/mol
# GULP energy per Si atom -12388.286219 kJ/mol
# Density = 1.773893 g / cm^3
# Si number density = 17.779401 Si / 1000 Ang^3
#
#
#
# Elastic Constant Matrix: (Units=GPa)
#
#
# Indices 1 2 3 4 5 6 
#
# 1 114.5686 22.7377 72.6569 0.0000 0.0000 0.0000
# 2 22.7377 27.6090 25.8509 0.0000 0.0000 0.0000
# 3 72.6569 25.8509 111.5812 0.0000 0.0000 0.0000
# 4 0.0000 0.0000 0.0000 20.1943 0.0000 0.0000
# 5 0.0000 0.0000 0.0000 0.0000 27.9206 0.0000
# 6 0.0000 0.0000 0.0000 0.0000 0.0000 10.7999
#
#
#
# Elastic Compliance Matrix: (Units=1/GPa)
#
#
# Indices 1 2 3 4 5 6 
#
# 1 0.015233 -0.004160 -0.008956 0.000000 0.000000 0.000000
# 2 -0.004160 0.047390 -0.008270 0.000000 0.000000 0.000000
# 3 -0.008956 -0.008270 0.016710 0.000000 0.000000 0.000000
# 4 0.000000 0.000000 0.000000 0.049519 0.000000 0.000000
# 5 0.000000 0.000000 0.000000 0.000000 0.035816 0.000000
# 6 0.000000 0.000000 0.000000 0.000000 0.000000 0.092593
#
#
# Mechanical properties :
#
#
# Convention : Reuss Voigt Hill
#
# Bulk Modulus (GPa) = 27.35168 55.13885 41.24527
# Shear Modulus (GPa) = 16.01436 20.61719 18.31578
#
# Velocity S-wave (km/s) = 3.00446 3.40900 3.21311
# Velocity P-wave (km/s) = 5.23957 6.82460 6.08392
#
# Compressibility (1/GPa) = 0.03656082
#
# Stress axis : x y z
#
# Youngs Moduli (GPa) = 65.64482 21.10154 59.84605
#
# Poissons Ratio (x) = 0.08779 0.53595
# Poissons Ratio (y) = 0.27311 0.49493
# Poissons Ratio (z) = 0.58788 0.17451
#
# Static dielectric constant tensor:
#      x y z
#    x 3.589730 0.000000 0.000000 
#    y 0.000000 2.772800 0.000000 
#    z 0.000000 0.000000 3.202150 
# 
# 
# High freq. dielectric constant tensor:
#      x y z
#    x 1.682410 0.000000 0.000000 
#    y 0.000000 1.641200 0.000000 
#    z 0.000000 0.000000 1.679610 
# 
# From -- ./inp_files/59636.got.cif
#   From: 2010.03.12/outbox.cif.g09.slc.cpg/sg74_30_cif.got.tgz:59636.got - 2010.04.16 15:46:19.
