data_PCOD8297382
_publ_section_title
;
Structure prediction by ZEFSAII (Michael W. Deem and Ramdas Pophale) SiO2 
 PCOD8297382
Probable space group: I M M A
;
_chemical_formula_sum "Si O2"
_cell_formula_units_Z 104
_cell_length_a 28.939831
_cell_length_b 22.082391
_cell_length_c 8.998138
_cell_angle_alpha 90.000000
_cell_angle_beta 90.000000
_cell_angle_gamma 90.000000
_cell_volume 5750.356042
_symmetry_space_group_name_H-M "I M M A"
_symmetry_group_IT_number 74
_symmetry_cell_setting 'orthorhombic'
loop_
_space_group_symop_operation_xyz
x,y,z
-x,1/2-y,z
x,-y,-z
-x,1/2+y,-z
-x,-y,-z
x,1/2+y,-z
-x,y,z
x,1/2-y,z
1/2+x,1/2+y,1/2+z
1/2-x,-y,1/2+z
1/2+x,1/2-y,1/2-z
1/2-x,y,1/2-z
1/2-x,1/2-y,1/2-z
1/2+x,y,1/2-z
1/2-x,1/2+y,1/2+z
1/2+x,-y,1/2+z
loop_
_atom_site_type_symbol
_atom_site_label
_atom_site_fract_x
_atom_site_fract_y
_atom_site_fract_z
Si Si1 0.806018 0.109904 0.743661
Si Si2 0.874158 0.070049 0.519624
Si Si3 0.206448 0.982361 0.841555
Si Si4 0.448746 0.905258 0.264731
Si Si5 0.374929 0.096257 0.311735
Si Si6 0.620930 0.678680 0.426075
Si Si7 0.929192 0.000000 0.000000
O O1 0.750000 0.119140 0.750000
O O2 0.831138 0.111679 0.581539
O O3 0.821422 0.041971 0.788956
O O4 0.830165 0.157113 0.855376
O O5 0.919270 0.071289 0.624628
O O6 0.888842 0.100134 0.361553
O O7 0.858472 0.000000 0.500000
O O8 0.250000 0.965727 0.750000
O O9 0.178541 0.920493 0.828896
O O10 0.226147 0.000000 0.000000
O O11 0.500000 0.885138 0.211067
O O12 0.422096 0.848288 0.335228
O O13 0.457782 0.957012 0.389392
O O14 0.383441 0.158723 0.400672
O O15 0.398840 0.040671 0.392985
O O16 0.618249 0.750000 0.417501
#
# Coordination Sequence:
#
# PCOD8297382 Si02
#       7
#    16  16  16  16  16  16   8
#     4  10  21  34  55  85 112 149 194 233 283 338
#     4  11  20  34  54  86 124 151 173 224 294 355
#     4  11  20  29  49  82 115 148 183 231 287 338
#     4  10  21  37  59  88 114 144 184 230 288 350
#     4  11  19  34  52  79 117 148 189 228 277 342
#     4  10  22  41  60  76 107 154 199 241 274 320
#     4  10  17  34  56  82 114 144 176 220 288 352
#
# _framework density 18.085836
#
# number of rings (size 3 to 8) (size 9 to 14) (size 15 to 20)
#    0.000    1.538    5.385    1.154    4.308    0.923 
#    0.000    3.846    0.000    3.231    0.000    0.000 
#    0.000    0.000    0.000    0.000    0.000    0.000 
#
# Total GULP energy -644184.787729 kJ/mol
# GULP energy per Si atom -12388.168995 kJ/mol
# Density = 1.804467 g / cm^3
# Si number density = 18.085836 Si / 1000 Ang^3
#
#
#
# Elastic Constant Matrix: (Units=GPa)
#
#
# Indices 1 2 3 4 5 6 
#
# 1 115.4716 39.9710 49.3125 0.0000 0.0000 0.0000
# 2 39.9710 91.1154 25.2455 0.0000 0.0000 0.0000
# 3 49.3125 25.2455 130.5877 0.0000 0.0000 0.0000
# 4 0.0000 0.0000 0.0000 16.6560 0.0000 0.0000
# 5 0.0000 0.0000 0.0000 0.0000 16.0607 0.0000
# 6 0.0000 0.0000 0.0000 0.0000 0.0000 11.5101
#
#
#
# Elastic Compliance Matrix: (Units=1/GPa)
#
#
# Indices 1 2 3 4 5 6 
#
# 1 0.011613 -0.004099 -0.003593 0.000000 0.000000 0.000000
# 2 -0.004099 0.013043 -0.000974 0.000000 0.000000 0.000000
# 3 -0.003593 -0.000974 0.009203 0.000000 0.000000 0.000000
# 4 0.000000 0.000000 0.000000 0.060038 0.000000 0.000000
# 5 0.000000 0.000000 0.000000 0.000000 0.062264 0.000000
# 6 0.000000 0.000000 0.000000 0.000000 0.000000 0.086880
#
#
# Mechanical properties :
#
#
# Convention : Reuss Voigt Hill
#
# Bulk Modulus (GPa) = 60.50434 62.91474 61.70954
# Shear Modulus (GPa) = 18.80531 23.68842 21.24686
#
# Velocity S-wave (km/s) = 3.22806 3.62301 3.43122
# Velocity P-wave (km/s) = 6.88625 7.23629 7.06344
#
# Compressibility (1/GPa) = 0.01652774
#
# Stress axis : x y z
#
# Youngs Moduli (GPa) = 86.10681 76.66899 108.66372
#
# Poissons Ratio (x) = 0.31428 0.39043
# Poissons Ratio (y) = 0.35296 0.10579
# Poissons Ratio (z) = 0.30938 0.07464
#
# Static dielectric constant tensor:
#      x y z
#    x 3.111060 0.000000 0.000000 
#    y 0.000000 2.973480 0.000000 
#    z 0.000000 0.000000 3.736090 
# 
# 
# High freq. dielectric constant tensor:
#      x y z
#    x 1.699030 0.000000 0.000000 
#    y 0.000000 1.655750 0.000000 
#    z 0.000000 0.000000 1.715190 
# 
# From -- ./inp_files/16296.got.cif
#   From: 2010.03.12/outbox.cif.g09.slc.cpg/sg74_9_cif.got.tgz:16296.got - 2010.04.16 15:46:19.
