data_PCOD8297632
_publ_section_title
;
Structure prediction by ZEFSAII (Michael W. Deem and Ramdas Pophale) SiO2 
 PCOD8297632
Probable space group: I M M A
;
_chemical_formula_sum "Si O2"
_cell_formula_units_Z 80
_cell_length_a 9.287625
_cell_length_b 16.573447
_cell_length_c 27.599501
_cell_angle_alpha 90.000000
_cell_angle_beta 90.000000
_cell_angle_gamma 90.000000
_cell_volume 4248.334905
_symmetry_space_group_name_H-M "I M M A"
_symmetry_group_IT_number 74
_symmetry_cell_setting 'orthorhombic'
loop_
_space_group_symop_operation_xyz
x,y,z
-x,1/2-y,z
x,-y,-z
-x,1/2+y,-z
-x,-y,-z
x,1/2+y,-z
-x,y,z
x,1/2-y,z
1/2+x,1/2+y,1/2+z
1/2-x,-y,1/2+z
1/2+x,1/2-y,1/2-z
1/2-x,y,1/2-z
1/2-x,1/2-y,1/2-z
1/2+x,y,1/2-z
1/2-x,1/2+y,1/2+z
1/2+x,-y,1/2+z
loop_
_atom_site_type_symbol
_atom_site_label
_atom_site_fract_x
_atom_site_fract_y
_atom_site_fract_z
Si Si1 0.668315 0.596532 0.963687
Si Si2 0.828817 0.014509 0.894173
Si Si3 0.166808 0.343562 0.571454
Si Si4 0.338100 0.570397 0.705067
Si Si5 0.668268 0.750000 0.910142
Si Si6 0.342368 0.750000 0.680476
O O1 0.500000 0.578989 0.953220
O O2 0.759799 0.521828 0.943430
O O3 0.733852 0.671571 0.934646
O O4 0.692970 0.615478 0.019536
O O5 0.764015 0.105538 0.890374
O O6 0.000000 0.017225 0.899397
O O7 0.780289 0.962595 0.846795
O O8 0.216093 0.250000 0.571008
O O9 0.000000 0.349486 0.586424
O O10 0.500000 0.539418 0.711230
O O11 0.250000 0.532862 0.750000
O O12 0.329855 0.667700 0.710789
O O13 0.500000 0.750000 0.919037
O O14 0.706920 0.750000 0.854458
O O15 0.500000 0.750000 0.653995
#
# Coordination Sequence:
#
# PCOD8297632 Si02
#       6
#    16  16  16  16   8   8
#     4  10  19  34  55  80 110 147 188 223 257 305
#     4  11  23  37  54  81 113 143 177 221 273 325
#     4  10  21  38  58  80 108 143 184 227 267 312
#     4  10  22  37  55  78 107 141 179 222 268 319
#     4  10  18  29  51  80 109 146 187 221 254 301
#     4  10  19  35  53  76 112 148 178 217 265 313
#
# _framework density 18.830907
#
# number of rings (size 3 to 8) (size 9 to 14) (size 15 to 20)
#    0.000    1.800    3.000    1.500    0.000    6.000 
#    0.000    0.000    0.000    0.600    0.000    0.000 
#    0.000    0.000    0.000    0.000    0.000    0.000 
#
# Total GULP energy -495688.950308 kJ/mol
# GULP energy per Si atom -12392.223758 kJ/mol
# Density = 1.878805 g / cm^3
# Si number density = 18.830907 Si / 1000 Ang^3
#
#
#
# Elastic Constant Matrix: (Units=GPa)
#
#
# Indices 1 2 3 4 5 6 
#
# 1 58.6546 52.3577 33.2900 0.0000 0.0000 0.0000
# 2 52.3577 117.0377 45.5747 0.0000 0.0000 0.0000
# 3 33.2900 45.5747 60.2299 0.0000 0.0000 0.0000
# 4 0.0000 0.0000 0.0000 15.9316 0.0000 0.0000
# 5 0.0000 0.0000 0.0000 0.0000 26.6896 0.0000
# 6 0.0000 0.0000 0.0000 0.0000 0.0000 24.9778
#
#
#
# Elastic Compliance Matrix: (Units=1/GPa)
#
#
# Indices 1 2 3 4 5 6 
#
# 1 0.031935 -0.010510 -0.009698 0.000000 0.000000 0.000000
# 2 -0.010510 0.015572 -0.005974 0.000000 0.000000 0.000000
# 3 -0.009698 -0.005974 0.026484 0.000000 0.000000 0.000000
# 4 0.000000 0.000000 0.000000 0.062768 0.000000 0.000000
# 5 0.000000 0.000000 0.000000 0.000000 0.037468 0.000000
# 6 0.000000 0.000000 0.000000 0.000000 0.000000 0.040036
#
#
# Mechanical properties :
#
#
# Convention : Reuss Voigt Hill
#
# Bulk Modulus (GPa) = 46.23985 55.37411 50.80698
# Shear Modulus (GPa) = 18.25908 20.49979 19.37944
#
# Velocity S-wave (km/s) = 3.11727 3.30301 3.21148
# Velocity P-wave (km/s) = 6.12904 6.63448 6.38676
#
# Compressibility (1/GPa) = 0.02162637
#
# Stress axis : x y z
#
# Youngs Moduli (GPa) = 31.31383 64.21674 37.75839
#
# Poissons Ratio (x) = 0.67490 0.36620
# Poissons Ratio (y) = 0.32910 0.22558
# Poissons Ratio (z) = 0.30369 0.38365
#
# Static dielectric constant tensor:
#      x y z
#    x 3.366950 0.000000 0.000000 
#    y 0.000000 4.023580 0.000000 
#    z 0.000000 0.000000 3.207990 
# 
# 
# High freq. dielectric constant tensor:
#      x y z
#    x 1.723710 0.000000 0.000000 
#    y 0.000000 1.734280 0.000000 
#    z 0.000000 0.000000 1.707300 
# 
# From -- ./inp_files/64005.got.cif
#   From: 2010.03.12/outbox.cif.g09.slc.cpg/sg74_33_cif.got.tgz:64005.got - 2010.04.16 15:46:19.
