data_PCOD8297410
_publ_section_title
;
Structure prediction by ZEFSAII (Michael W. Deem and Ramdas Pophale) SiO2 
 PCOD8297410
Probable space group: I M M A
;
_chemical_formula_sum "Si O2"
_cell_formula_units_Z 96
_cell_length_a 24.774150
_cell_length_b 18.295837
_cell_length_c 13.699602
_cell_angle_alpha 90.000000
_cell_angle_beta 90.000000
_cell_angle_gamma 90.000000
_cell_volume 6209.533801
_symmetry_space_group_name_H-M "I M M A"
_symmetry_group_IT_number 74
_symmetry_cell_setting 'orthorhombic'
loop_
_space_group_symop_operation_xyz
x,y,z
-x,1/2-y,z
x,-y,-z
-x,1/2+y,-z
-x,-y,-z
x,1/2+y,-z
-x,y,z
x,1/2-y,z
1/2+x,1/2+y,1/2+z
1/2-x,-y,1/2+z
1/2+x,1/2-y,1/2-z
1/2-x,y,1/2-z
1/2-x,1/2-y,1/2-z
1/2+x,y,1/2-z
1/2-x,1/2+y,1/2+z
1/2+x,-y,1/2+z
loop_
_atom_site_type_symbol
_atom_site_label
_atom_site_fract_x
_atom_site_fract_y
_atom_site_fract_z
Si Si1 0.887817 0.332979 0.573483
Si Si2 0.738830 0.076872 0.464069
Si Si3 0.730148 0.166978 0.852603
Si Si4 0.058811 0.977654 0.388661
Si Si5 0.307375 0.330703 0.300827
Si Si6 0.145595 0.594332 0.623984
O O1 0.910937 0.250000 0.577183
O O2 0.834053 0.338461 0.637931
O O3 0.928999 0.390996 0.620974
O O4 0.877799 0.353776 0.460508
O O5 0.741915 0.127594 0.557763
O O6 0.695871 0.113428 0.391019
O O7 0.796589 0.063117 0.411330
O O8 0.715269 0.000000 0.500000
O O9 0.750255 0.250000 0.857543
O O10 0.750000 0.131759 0.750000
O O11 0.000000 0.992175 0.339038
O O12 0.055414 0.000000 0.500000
O O13 0.106876 0.026929 0.345004
O O14 0.324737 0.250000 0.337744
O O15 0.250000 0.325010 0.250000
O O16 0.350448 0.358167 0.221785
#
# Coordination Sequence:
#
# PCOD8297410 Si02
#       6
#    16  16  16  16  16  16
#     4   9  16  26  41  60  82 111 145 175 208 252
#     4  10  18  26  39  61  87 113 141 170 201 247
#     4   9  17  28  41  57  83 116 142 166 198 240
#     4   9  17  28  40  56  81 111 142 177 214 250
#     4   9  17  28  43  62  83 109 141 176 210 245
#     4   9  16  28  43  59  82 113 144 175 213 252
#
# _framework density 15.460098
#
# number of rings (size 3 to 8) (size 9 to 14) (size 15 to 20)
#    0.000    2.833    0.000    3.500    0.000    7.667 
#    0.000    0.000    0.000    1.500    0.000    0.000 
#    0.000    6.000    0.000    9.167    0.000    2.333 
#
# Total GULP energy -594903.752350 kJ/mol
# GULP energy per Si atom -12393.828174 kJ/mol
# Density = 1.542491 g / cm^3
# Si number density = 15.460098 Si / 1000 Ang^3
#
#
#
# Elastic Constant Matrix: (Units=GPa)
#
#
# Indices 1 2 3 4 5 6 
#
# 1 54.0128 38.7656 30.3662 0.0000 0.0000 0.0000
# 2 38.7656 120.9937 37.0120 0.0000 0.0000 0.0000
# 3 30.3662 37.0120 72.8208 0.0000 0.0000 0.0000
# 4 0.0000 0.0000 0.0000 22.3470 0.0000 0.0000
# 5 0.0000 0.0000 0.0000 0.0000 6.4396 0.0000
# 6 0.0000 0.0000 0.0000 0.0000 0.0000 8.6371
#
#
#
# Elastic Compliance Matrix: (Units=1/GPa)
#
#
# Indices 1 2 3 4 5 6 
#
# 1 0.027760 -0.006339 -0.008354 0.000000 0.000000 0.000000
# 2 -0.006339 0.011234 -0.003067 0.000000 0.000000 0.000000
# 3 -0.008354 -0.003067 0.018775 0.000000 0.000000 0.000000
# 4 0.000000 0.000000 0.000000 0.044749 0.000000 0.000000
# 5 0.000000 0.000000 0.000000 0.000000 0.155288 0.000000
# 6 0.000000 0.000000 0.000000 0.000000 0.000000 0.115780
#
#
# Mechanical properties :
#
#
# Convention : Reuss Voigt Hill
#
# Bulk Modulus (GPa) = 44.94416 51.12388 48.03402
# Shear Modulus (GPa) = 12.00420 16.93031 14.46726
#
# Velocity S-wave (km/s) = 2.78953 3.31282 3.06237
# Velocity P-wave (km/s) = 6.28566 6.91181 6.60615
#
# Compressibility (1/GPa) = 0.02224983
#
# Stress axis : x y z
#
# Youngs Moduli (GPa) = 36.02271 89.01705 53.26332
#
# Poissons Ratio (x) = 0.56425 0.44498
# Poissons Ratio (y) = 0.22834 0.16333
# Poissons Ratio (z) = 0.30094 0.27297
#
# Static dielectric constant tensor:
#      x y z
#    x 2.962470 0.000000 0.000000 
#    y 0.000000 3.178420 0.000000 
#    z 0.000000 0.000000 2.854990 
# 
# 
# High freq. dielectric constant tensor:
#      x y z
#    x 1.549200 0.000000 0.000000 
#    y 0.000000 1.609900 0.000000 
#    z 0.000000 0.000000 1.565480 
# 
# From -- ./inp_files/22491.got.cif
#   From: 2010.03.12/outbox.cif.g09.slc.cpg/sg74_12_cif.got.tgz:22491.got - 2010.04.16 15:46:19.
