data_PCOD8297126
_publ_section_title
;
Structure prediction by ZEFSAII (Michael W. Deem and Ramdas Pophale) SiO2 
 PCOD8297126
Probable space group: I M M A
;
_chemical_formula_sum "Si O2"
_cell_formula_units_Z 64
_cell_length_a 13.544550
_cell_length_b 18.322643
_cell_length_c 17.996434
_cell_angle_alpha 90.000000
_cell_angle_beta 90.000000
_cell_angle_gamma 90.000000
_cell_volume 4466.210195
_symmetry_space_group_name_H-M "I M M A"
_symmetry_group_IT_number 74
_symmetry_cell_setting 'orthorhombic'
loop_
_space_group_symop_operation_xyz
x,y,z
-x,1/2-y,z
x,-y,-z
-x,1/2+y,-z
-x,-y,-z
x,1/2+y,-z
-x,y,z
x,1/2-y,z
1/2+x,1/2+y,1/2+z
1/2-x,-y,1/2+z
1/2+x,1/2-y,1/2-z
1/2-x,y,1/2-z
1/2-x,1/2-y,1/2-z
1/2+x,y,1/2-z
1/2-x,1/2+y,1/2+z
1/2+x,-y,1/2+z
loop_
_atom_site_type_symbol
_atom_site_label
_atom_site_fract_x
_atom_site_fract_y
_atom_site_fract_z
Si Si1 0.884774 0.168065 0.989478
Si Si2 0.387741 0.835235 0.786411
Si Si3 0.390838 0.527748 0.416234
Si Si4 0.202640 0.609932 0.861874
O O1 0.863137 0.250000 0.961794
O O2 0.855639 0.112587 0.922091
O O3 0.000000 0.156702 0.010018
O O4 0.820942 0.152068 0.062460
O O5 0.500000 0.854941 0.806354
O O6 0.366088 0.750000 0.796769
O O7 0.317721 0.880077 0.842338
O O8 0.366144 0.856311 0.701667
O O9 0.395019 0.500000 0.500000
O O10 0.500000 0.522479 0.380098
O O11 0.317117 0.477282 0.368566
#
# Coordination Sequence:
#
# PCOD8297126 Si02
#       4
#    16  16  16  16
#     4   9  15  23  38  59  79  98 121 151 188 224
#     4  10  19  27  36  54  77 100 127 152 174 212
#     4   8  14  23  36  55  76  97 122 152 183 217
#     4  10  16  25  39  54  76 103 124 145 182 222
#
# _framework density 14.329822999999999
#
# number of rings (size 3 to 8) (size 9 to 14) (size 15 to 20)
#    0.000    2.750    0.000    6.750    0.000    2.000 
#    0.000    0.000    0.000    6.750    0.000    3.500 
#    0.000    2.000    0.000    0.000    0.000    0.000 
#
# Total GULP energy -396589.436516 kJ/mol
# GULP energy per Si atom -12393.419891 kJ/mol
# Density = 1.429721 g / cm^3
# Si number density = 14.329823 Si / 1000 Ang^3
#
#
#
# Elastic Constant Matrix: (Units=GPa)
#
#
# Indices 1 2 3 4 5 6 
#
# 1 96.4876 57.1737 37.2706 0.0000 0.0000 0.0000
# 2 57.1737 128.7559 31.8940 0.0000 0.0000 0.0000
# 3 37.2706 31.8940 30.4010 0.0000 0.0000 0.0000
# 4 0.0000 0.0000 0.0000 25.4929 0.0000 0.0000
# 5 0.0000 0.0000 0.0000 0.0000 17.7982 0.0000
# 6 0.0000 0.0000 0.0000 0.0000 0.0000 21.5525
#
#
#
# Elastic Compliance Matrix: (Units=1/GPa)
#
#
# Indices 1 2 3 4 5 6 
#
# 1 0.021111 -0.004004 -0.021682 0.000000 0.000000 0.000000
# 2 -0.004004 0.011253 -0.006897 0.000000 0.000000 0.000000
# 3 -0.021682 -0.006897 0.066710 0.000000 0.000000 0.000000
# 4 0.000000 0.000000 0.000000 0.039227 0.000000 0.000000
# 5 0.000000 0.000000 0.000000 0.000000 0.056185 0.000000
# 6 0.000000 0.000000 0.000000 0.000000 0.000000 0.046398
#
#
# Mechanical properties :
#
#
# Convention : Reuss Voigt Hill
#
# Bulk Modulus (GPa) = 29.48989 56.48011 42.98500
# Shear Modulus (GPa) = 15.75530 21.58912 18.67221
#
# Velocity S-wave (km/s) = 3.31943 3.88569 3.61367
# Velocity P-wave (km/s) = 5.94269 7.72214 6.89010
#
# Compressibility (1/GPa) = 0.03390992
#
# Stress axis : x y z
#
# Youngs Moduli (GPa) = 47.36759 88.86546 14.99017
#
# Poissons Ratio (x) = 0.35580 0.32501
# Poissons Ratio (y) = 0.18965 0.10339
# Poissons Ratio (z) = 1.02700 0.61291
#
# Static dielectric constant tensor:
#      x y z
#    x 2.704070 0.000000 0.000000 
#    y 0.000000 3.320650 0.000000 
#    z 0.000000 0.000000 2.501520 
# 
# 
# High freq. dielectric constant tensor:
#      x y z
#    x 1.529880 0.000000 0.000000 
#    y 0.000000 1.557300 0.000000 
#    z 0.000000 0.000000 1.503710 
# 
# From -- ./inp_files/23345.got.cif
#   From: 2010.03.12/outbox.cif.g09.slc.cpg/sg74_12_cif.got.tgz:23345.got - 2010.04.16 15:46:19.
