data_PCOD8297519
_publ_section_title
;
Structure prediction by ZEFSAII (Michael W. Deem and Ramdas Pophale) SiO2 
 PCOD8297519
Probable space group: I M M A
;
_chemical_formula_sum "Si O2"
_cell_formula_units_Z 112
_cell_length_a 37.272415
_cell_length_b 9.818215
_cell_length_c 18.145784
_cell_angle_alpha 90.000000
_cell_angle_beta 90.000000
_cell_angle_gamma 90.000000
_cell_volume 6640.423961
_symmetry_space_group_name_H-M "I M M A"
_symmetry_group_IT_number 74
_symmetry_cell_setting 'orthorhombic'
loop_
_space_group_symop_operation_xyz
x,y,z
-x,1/2-y,z
x,-y,-z
-x,1/2+y,-z
-x,-y,-z
x,1/2+y,-z
-x,y,z
x,1/2-y,z
1/2+x,1/2+y,1/2+z
1/2-x,-y,1/2+z
1/2+x,1/2-y,1/2-z
1/2-x,y,1/2-z
1/2-x,1/2-y,1/2-z
1/2+x,y,1/2-z
1/2-x,1/2+y,1/2+z
1/2+x,-y,1/2+z
loop_
_atom_site_type_symbol
_atom_site_label
_atom_site_fract_x
_atom_site_fract_y
_atom_site_fract_z
Si Si1 0.289577 0.589310 0.358720
Si Si2 0.600640 0.095043 0.716744
Si Si3 0.041241 0.091134 0.274360
Si Si4 0.326663 0.589538 0.215333
Si Si5 0.957697 0.600837 0.559677
Si Si6 0.215641 0.412079 0.572287
Si Si7 0.138528 0.403288 0.936167
O O1 0.285398 0.750000 0.353099
O O2 0.298341 0.531120 0.276389
O O3 0.252741 0.532099 0.392651
O O4 0.321835 0.547389 0.412714
O O5 0.590797 0.250000 0.739030
O O6 0.632988 0.036595 0.768243
O O7 0.611817 0.088144 0.632064
O O8 0.565996 0.000087 0.722823
O O9 0.049422 0.250000 0.261804
O O10 0.050149 0.048428 0.358253
O O11 0.000000 0.059269 0.255236
O O12 0.327580 0.750000 0.228835
O O13 0.315028 0.553271 0.132477
O O14 0.939902 0.500000 0.500000
O O15 0.940576 0.750000 0.547626
O O16 0.000000 0.610974 0.547237
O O17 0.206699 0.500000 0.500000
O O18 0.216637 0.250000 0.554149
O O19 0.140139 0.250000 0.966890
O O20 0.123625 0.500000 0.000000
#
# Coordination Sequence:
#
# PCOD8297519 Si02
#       7
#    16  16  16  16  16  16  16
#     4   8  14  26  46  69  89 115 156 198 229 262
#     4   9  18  32  49  69  92 119 154 191 223 266
#     4   9  18  32  49  70  95 120 148 186 232 279
#     4   8  15  29  47  65  87 119 158 193 224 264
#     4   8  14  25  41  62  87 111 136 171 215 259
#     4  10  18  28  45  67  92 123 157 192 228 266
#     4   9  17  29  46  70  97 120 147 188 233 274
#
# _framework density 16.866394
#
# number of rings (size 3 to 8) (size 9 to 14) (size 15 to 20)
#    0.000    3.286    0.000    3.429    0.000    3.143 
#    0.000    2.857    0.000    7.286    0.000    0.000 
#    0.000    0.000    0.000    0.000    0.000    0.000 
#
# Total GULP energy -694018.744691 kJ/mol
# GULP energy per Si atom -12393.191869 kJ/mol
# Density = 1.682801 g / cm^3
# Si number density = 16.866394 Si / 1000 Ang^3
#
#
#
# Elastic Constant Matrix: (Units=GPa)
#
#
# Indices 1 2 3 4 5 6 
#
# 1 75.7599 37.9841 40.0295 0.0000 0.0000 0.0000
# 2 37.9841 56.5841 47.0115 0.0000 0.0000 0.0000
# 3 40.0295 47.0115 92.6561 0.0000 0.0000 0.0000
# 4 0.0000 0.0000 0.0000 31.3623 0.0000 0.0000
# 5 0.0000 0.0000 0.0000 0.0000 12.9893 0.0000
# 6 0.0000 0.0000 0.0000 0.0000 0.0000 17.3888
#
#
#
# Elastic Compliance Matrix: (Units=1/GPa)
#
#
# Indices 1 2 3 4 5 6 
#
# 1 0.020440 -0.011037 -0.003231 0.000000 0.000000 0.000000
# 2 -0.011037 0.036511 -0.013757 0.000000 0.000000 0.000000
# 3 -0.003231 -0.013757 0.019168 0.000000 0.000000 0.000000
# 4 0.000000 0.000000 0.000000 0.031885 0.000000 0.000000
# 5 0.000000 0.000000 0.000000 0.000000 0.076986 0.000000
# 6 0.000000 0.000000 0.000000 0.000000 0.000000 0.057508
#
#
# Mechanical properties :
#
#
# Convention : Reuss Voigt Hill
#
# Bulk Modulus (GPa) = 49.82382 52.78337 51.30360
# Shear Modulus (GPa) = 16.38061 19.01308 17.69684
#
# Velocity S-wave (km/s) = 3.11979 3.36114 3.24271
# Velocity P-wave (km/s) = 6.52548 6.81366 6.67112
#
# Compressibility (1/GPa) = 0.02007072
#
# Stress axis : x y z
#
# Youngs Moduli (GPa) = 48.92281 27.38886 52.17003
#
# Poissons Ratio (x) = 0.30230 0.16855
# Poissons Ratio (y) = 0.53997 0.71768
# Poissons Ratio (z) = 0.15805 0.37678
#
# Static dielectric constant tensor:
#      x y z
#    x 3.010740 0.000000 0.000000 
#    y 0.000000 3.002100 0.000000 
#    z 0.000000 0.000000 3.130460 
# 
# 
# High freq. dielectric constant tensor:
#      x y z
#    x 1.630340 0.000000 0.000000 
#    y 0.000000 1.620210 0.000000 
#    z 0.000000 0.000000 1.647550 
# 
# From -- ./inp_files/37826.got.cif
#   From: 2010.03.12/outbox.cif.g09.slc.cpg/sg74_19_cif.got.tgz:37826.got - 2010.04.16 15:46:19.
