data_PCOD8297072
_publ_section_title
;
Structure prediction by ZEFSAII (Michael W. Deem and Ramdas Pophale) SiO2 
 PCOD8297072
Probable space group: I B C A 
;
_chemical_formula_sum "Si O2"
_cell_formula_units_Z 88
_cell_length_a 23.104656
_cell_length_b 12.464225
_cell_length_c 12.301993
_cell_angle_alpha 90.000000
_cell_angle_beta 90.000000
_cell_angle_gamma 90.000000
_cell_volume 3542.748008
_symmetry_space_group_name_H-M "I B C A "
_symmetry_group_IT_number 73
_symmetry_cell_setting 'orthorhombic'
loop_
_space_group_symop_operation_xyz
x,y,z
-x,1/2-y,z
x,-y,1/2-z
1/2-x,y,-z
-x,-y,-z
x,1/2+y,-z
-x,y,1/2+z
1/2+x,-y,z
1/2+x,1/2+y,1/2+z
1/2-x,-y,1/2+z
1/2+x,1/2-y,-z
-x,1/2+y,1/2-z
1/2-x,1/2-y,1/2-z
1/2+x,y,1/2-z
1/2-x,1/2+y,z
x,1/2-y,1/2+z
loop_
_atom_site_type_symbol
_atom_site_label
_atom_site_fract_x
_atom_site_fract_y
_atom_site_fract_z
Si Si1 0.964589 0.086437 0.566576
Si Si2 0.600944 0.761761 0.897165
Si Si3 0.313664 0.603998 0.514075
Si Si4 0.000000 0.250000 0.230944
Si Si5 0.186052 0.212522 0.722060
Si Si6 0.846626 0.940033 0.855507
O O1 0.931833 0.165395 0.483057
O O2 0.914339 0.028813 0.634468
O O3 0.007751 0.148394 0.649092
O O4 0.000000 0.000000 0.500000
O O5 0.555206 0.725037 0.805537
O O6 0.652049 0.821317 0.830889
O O7 0.632847 0.661652 0.953097
O O8 0.250000 0.658031 0.500000
O O9 0.321457 0.608755 0.644275
O O10 0.313053 0.483596 0.463444
O O11 0.250000 0.250000 0.750000
O O12 0.158553 0.312305 0.654876
O O13 0.820436 0.000000 0.750000
#
# Coordination Sequence:
#
# PCOD8297072 Si02
#       6
#    16  16  16   8  16  16
#     4  12  30  45  74 111 152 203 265 326 393 471
#     4  12  25  48  75 108 151 208 259 323 404 473
#     4  12  25  47  76 114 156 203 261 330 408 486
#     4  12  26  50  76 104 158 206 266 326 394 468
#     4  12  25  49  79 113 158 210 258 332 415 481
#     4  12  25  46  73 111 149 201 261 324 401 480
#
# _framework density 24.839475
#
# number of rings (size 3 to 8) (size 9 to 14) (size 15 to 20)
#    0.000    0.000    7.273    0.545   10.182    2.182 
#    0.000    1.818    0.000    0.000    0.000    0.000 
#    0.000    0.000    0.000    0.000    0.000    0.000 
#
# Total GULP energy -545195.983650 kJ/mol
# GULP energy per Si atom -12390.817810 kJ/mol
# Density = 2.478294 g / cm^3
# Si number density = 24.839475 Si / 1000 Ang^3
#
#
#
# Elastic Constant Matrix: (Units=GPa)
#
#
# Indices 1 2 3 4 5 6 
#
# 1 136.5131 16.1281 32.0289 0.0000 0.0000 0.0000
# 2 16.1281 60.5381 22.3593 0.0000 0.0000 0.0000
# 3 32.0289 22.3593 116.6899 0.0000 0.0000 0.0000
# 4 0.0000 0.0000 0.0000 35.5143 0.0000 0.0000
# 5 0.0000 0.0000 0.0000 0.0000 57.7510 0.0000
# 6 0.0000 0.0000 0.0000 0.0000 0.0000 28.4359
#
#
#
# Elastic Compliance Matrix: (Units=1/GPa)
#
#
# Indices 1 2 3 4 5 6 
#
# 1 0.007940 -0.001410 -0.001909 0.000000 0.000000 0.000000
# 2 -0.001410 0.018027 -0.003067 0.000000 0.000000 0.000000
# 3 -0.001909 -0.003067 0.009681 0.000000 0.000000 0.000000
# 4 0.000000 0.000000 0.000000 0.028158 0.000000 0.000000
# 5 0.000000 0.000000 0.000000 0.000000 0.017316 0.000000
# 6 0.000000 0.000000 0.000000 0.000000 0.000000 0.035167
#
#
# Mechanical properties :
#
#
# Convention : Reuss Voigt Hill
#
# Bulk Modulus (GPa) = 43.71497 50.53041 47.12269
# Shear Modulus (GPa) = 36.58005 40.55521 38.56763
#
# Velocity S-wave (km/s) = 3.84169 4.04504 3.94467
# Velocity P-wave (km/s) = 6.10862 6.49642 6.30550
#
# Compressibility (1/GPa) = 0.02287546
#
# Stress axis : x y z
#
# Youngs Moduli (GPa) = 125.94742 55.47223 103.29045
#
# Poissons Ratio (x) = 0.07822 0.19719
# Poissons Ratio (y) = 0.17761 0.31681
# Poissons Ratio (z) = 0.24045 0.17014
#
# Static dielectric constant tensor:
#      x y z
#    x 4.945350 0.000000 0.000000 
#    y 0.000000 4.307070 0.000000 
#    z 0.000000 0.000000 5.030600 
# 
# 
# High freq. dielectric constant tensor:
#      x y z
#    x 2.002240 0.000000 0.000000 
#    y 0.000000 1.957670 0.000000 
#    z 0.000000 0.000000 2.013530 
# 
# From -- ./inp_files/19251.got.cif
#   From: 2010.03.12/outbox.cif.g09.slc.cpg/sg73_10_cif.got.tgz:19251.got - 2010.04.16 15:25:48.
