data_PCOD8297166
_publ_section_title
;
Structure prediction by ZEFSAII (Michael W. Deem and Ramdas Pophale) SiO2 
 PCOD8297166
Probable space group: I M M A
;
_chemical_formula_sum "Si O2"
_cell_formula_units_Z 80
_cell_length_a 19.952111
_cell_length_b 15.713830
_cell_length_c 15.102135
_cell_angle_alpha 90.000000
_cell_angle_beta 90.000000
_cell_angle_gamma 90.000000
_cell_volume 4734.882988
_symmetry_space_group_name_H-M "I M M A"
_symmetry_group_IT_number 74
_symmetry_cell_setting 'orthorhombic'
loop_
_space_group_symop_operation_xyz
x,y,z
-x,1/2-y,z
x,-y,-z
-x,1/2+y,-z
-x,-y,-z
x,1/2+y,-z
-x,y,z
x,1/2-y,z
1/2+x,1/2+y,1/2+z
1/2-x,-y,1/2+z
1/2+x,1/2-y,1/2-z
1/2-x,y,1/2-z
1/2-x,1/2-y,1/2-z
1/2+x,y,1/2-z
1/2-x,1/2+y,1/2+z
1/2+x,-y,1/2+z
loop_
_atom_site_type_symbol
_atom_site_label
_atom_site_fract_x
_atom_site_fract_y
_atom_site_fract_z
Si Si1 0.425652 0.587393 0.109719
Si Si2 0.648227 0.750000 0.808228
Si Si3 0.701992 0.750000 0.618553
Si Si4 0.381477 0.903322 0.919596
Si Si5 0.262975 0.092229 0.486736
Si Si6 0.293423 0.150887 0.828478
O O1 0.500000 0.616086 0.139994
O O2 0.424088 0.485349 0.106338
O O3 0.369703 0.617451 0.179133
O O4 0.408822 0.629842 0.014266
O O5 0.651231 0.750000 0.701620
O O6 0.721524 0.750000 0.850670
O O7 0.608556 0.667451 0.843693
O O8 0.690268 0.662987 0.561970
O O9 0.303044 0.928243 0.928052
O O10 0.242133 0.131057 0.579753
O O11 0.299863 0.000000 0.500000
O O12 0.297037 0.250000 0.813525
O O13 0.250000 0.107955 0.750000
#
# Coordination Sequence:
#
# PCOD8297166 Si02
#       6
#    16   8   8  16  16  16
#     4  10  19  32  48  70 102 136 171 202 238 310
#     4   9  18  28  43  68 101 134 171 212 249 298
#     4   9  18  28  43  68 101 132 175 220 251 307
#     4   9  16  29  45  68 100 135 165 195 242 295
#     4  10  16  29  47  67  97 138 169 207 257 313
#     4  10  20  33  48  68  99 136 169 217 257 296
#
# _framework density 16.895876999999999
#
# number of rings (size 3 to 8) (size 9 to 14) (size 15 to 20)
#    0.000    2.400    5.000    1.200    4.200    2.000 
#    0.000    1.500    0.000    0.000    0.000    0.000 
#    0.000   12.000    0.000    0.000    0.000    0.000 
#
# Total GULP energy -495750.479647 kJ/mol
# GULP energy per Si atom -12393.761991 kJ/mol
# Density = 1.685742 g / cm^3
# Si number density = 16.895877 Si / 1000 Ang^3
#
#
#
# Elastic Constant Matrix: (Units=GPa)
#
#
# Indices 1 2 3 4 5 6 
#
# 1 73.2827 29.6829 48.7785 0.0000 0.0000 0.0000
# 2 29.6829 93.3215 43.1036 0.0000 0.0000 0.0000
# 3 48.7785 43.1036 85.3391 0.0000 0.0000 0.0000
# 4 0.0000 0.0000 0.0000 15.5117 0.0000 0.0000
# 5 0.0000 0.0000 0.0000 0.0000 20.4623 0.0000
# 6 0.0000 0.0000 0.0000 0.0000 0.0000 11.2703
#
#
#
# Elastic Compliance Matrix: (Units=1/GPa)
#
#
# Indices 1 2 3 4 5 6 
#
# 1 0.022200 -0.001565 -0.011898 0.000000 0.000000 0.000000
# 2 -0.001565 0.014087 -0.006220 0.000000 0.000000 0.000000
# 3 -0.011898 -0.006220 0.021661 0.000000 0.000000 0.000000
# 4 0.000000 0.000000 0.000000 0.064468 0.000000 0.000000
# 5 0.000000 0.000000 0.000000 0.000000 0.048870 0.000000
# 6 0.000000 0.000000 0.000000 0.000000 0.000000 0.088729
#
#
# Mechanical properties :
#
#
# Convention : Reuss Voigt Hill
#
# Bulk Modulus (GPa) = 53.82429 55.00816 54.41623
# Shear Modulus (GPa) = 16.36264 18.14074 17.25169
#
# Velocity S-wave (km/s) = 3.11535 3.28026 3.19887
# Velocity P-wave (km/s) = 6.69822 6.85380 6.77646
#
# Compressibility (1/GPa) = 0.01857897
#
# Stress axis : x y z
#
# Youngs Moduli (GPa) = 45.04588 70.98971 46.16697
#
# Poissons Ratio (x) = 0.11113 0.54931
# Poissons Ratio (y) = 0.07052 0.28716
# Poissons Ratio (z) = 0.53597 0.44157
#
# Static dielectric constant tensor:
#      x y z
#    x 2.831210 0.000000 0.000000 
#    y 0.000000 3.313410 0.000000 
#    z 0.000000 0.000000 3.208850 
# 
# 
# High freq. dielectric constant tensor:
#      x y z
#    x 1.596640 0.000000 0.000000 
#    y 0.000000 1.664600 0.000000 
#    z 0.000000 0.000000 1.625540 
# 
# From -- ./inp_files/45222.got.cif
#   From: 2010.03.12/outbox.cif.g09.slc.cpg/sg74_23_cif.got.tgz:45222.got - 2010.04.16 15:46:19.
