data_PCOD8297590
_publ_section_title
;
Structure prediction by ZEFSAII (Michael W. Deem and Ramdas Pophale) SiO2 
 PCOD8297590
Probable space group: I M M A
;
_chemical_formula_sum "Si O2"
_cell_formula_units_Z 96
_cell_length_a 9.010696
_cell_length_b 23.690899
_cell_length_c 28.790137
_cell_angle_alpha 90.000000
_cell_angle_beta 90.000000
_cell_angle_gamma 90.000000
_cell_volume 6145.873410
_symmetry_space_group_name_H-M "I M M A"
_symmetry_group_IT_number 74
_symmetry_cell_setting 'orthorhombic'
loop_
_space_group_symop_operation_xyz
x,y,z
-x,1/2-y,z
x,-y,-z
-x,1/2+y,-z
-x,-y,-z
x,1/2+y,-z
-x,y,z
x,1/2-y,z
1/2+x,1/2+y,1/2+z
1/2-x,-y,1/2+z
1/2+x,1/2-y,1/2-z
1/2-x,y,1/2-z
1/2-x,1/2-y,1/2-z
1/2+x,y,1/2-z
1/2-x,1/2+y,1/2+z
1/2+x,-y,1/2+z
loop_
_atom_site_type_symbol
_atom_site_label
_atom_site_fract_x
_atom_site_fract_y
_atom_site_fract_z
Si Si1 0.334117 0.547889 0.037900
Si Si2 0.339961 0.750000 0.649660
Si Si3 0.663624 0.671022 0.793626
Si Si4 0.832460 0.461436 0.296007
Si Si5 0.323706 0.531511 0.605540
Si Si6 0.160505 0.750000 0.957337
Si Si7 0.322487 0.125613 0.468889
O O1 0.500000 0.566173 0.054066
O O2 0.239395 0.524321 0.080796
O O3 0.348498 0.500000 0.000000
O O4 0.246861 0.600348 0.015725
O O5 0.500000 0.750000 0.675187
O O6 0.250513 0.807103 0.661295
O O7 0.370320 0.750000 0.596324
O O8 0.500000 0.696856 0.794643
O O9 0.750000 0.696992 0.750000
O O10 0.657118 0.604766 0.790522
O O11 0.750000 0.486638 0.250000
O O12 0.740926 0.471986 0.342751
O O13 0.000000 0.486792 0.299296
O O14 0.500000 0.527566 0.608375
O O15 0.275963 0.588305 0.576763
O O16 0.242248 0.809820 0.968143
O O17 0.000000 0.750000 0.983005
O O18 0.500000 0.125485 0.472267
#
# Coordination Sequence:
#
# PCOD8297590 Si02
#       7
#    16   8  16  16  16   8  16
#     4   9  17  29  45  65  87 110 140 179 220 259
#     4  11  20  30  43  57  74 100 138 179 217 256
#     4  10  20  32  43  55  73 100 135 176 219 258
#     4  10  20  32  45  61  83 110 140 175 216 261
#     4  10  18  29  47  67  87 113 146 182 219 261
#     4   9  18  30  44  61  83 112 141 173 214 260
#     4   9  17  30  46  64  86 113 146 180 218 264
#
# _framework density 15.620236
#
# number of rings (size 3 to 8) (size 9 to 14) (size 15 to 20)
#    0.000    2.333    0.000    3.500    0.000    6.000 
#    0.000    2.083    0.000    0.000    0.000    0.000 
#    0.000    0.000    0.000    0.750    0.000    9.500 
#
# Total GULP energy -594638.492159 kJ/mol
# GULP energy per Si atom -12388.301920 kJ/mol
# Density = 1.558468 g / cm^3
# Si number density = 15.620236 Si / 1000 Ang^3
#
#
#
# Elastic Constant Matrix: (Units=GPa)
#
#
# Indices 1 2 3 4 5 6 
#
# 1 100.8036 27.8520 43.7760 0.0000 0.0000 0.0000
# 2 27.8520 68.2285 45.2811 0.0000 0.0000 0.0000
# 3 43.7760 45.2811 87.6405 0.0000 0.0000 0.0000
# 4 0.0000 0.0000 0.0000 23.2723 0.0000 0.0000
# 5 0.0000 0.0000 0.0000 0.0000 25.8091 0.0000
# 6 0.0000 0.0000 0.0000 0.0000 0.0000 21.6661
#
#
#
# Elastic Compliance Matrix: (Units=1/GPa)
#
#
# Indices 1 2 3 4 5 6 
#
# 1 0.012767 -0.001491 -0.005607 0.000000 0.000000 0.000000
# 2 -0.001491 0.022479 -0.010870 0.000000 0.000000 0.000000
# 3 -0.005607 -0.010870 0.019827 0.000000 0.000000 0.000000
# 4 0.000000 0.000000 0.000000 0.042970 0.000000 0.000000
# 5 0.000000 0.000000 0.000000 0.000000 0.038746 0.000000
# 6 0.000000 0.000000 0.000000 0.000000 0.000000 0.046155
#
#
# Mechanical properties :
#
#
# Convention : Reuss Voigt Hill
#
# Bulk Modulus (GPa) = 52.25049 54.49900 53.37474
# Shear Modulus (GPa) = 22.19684 23.46707 22.83195
#
# Velocity S-wave (km/s) = 3.77375 3.88022 3.82735
# Velocity P-wave (km/s) = 7.24647 7.41893 7.33321
#
# Compressibility (1/GPa) = 0.01913858
#
# Stress axis : x y z
#
# Youngs Moduli (GPa) = 78.32661 44.48607 50.43657
#
# Poissons Ratio (x) = 0.06631 0.28279
# Poissons Ratio (y) = 0.11675 0.54823
# Poissons Ratio (z) = 0.43917 0.48355
#
# Static dielectric constant tensor:
#      x y z
#    x 3.293450 0.000000 0.000000 
#    y 0.000000 2.870270 0.000000 
#    z 0.000000 0.000000 2.934190 
# 
# 
# High freq. dielectric constant tensor:
#      x y z
#    x 1.611950 0.000000 0.000000 
#    y 0.000000 1.559960 0.000000 
#    z 0.000000 0.000000 1.579320 
# 
# From -- ./inp_files/64713.got.cif
#   From: 2010.03.12/outbox.cif.g09.slc.cpg/sg74_33_cif.got.tgz:64713.got - 2010.04.16 15:46:19.
