data_PCOD8297006
_publ_section_title
;
Structure prediction by ZEFSAII (Michael W. Deem and Ramdas Pophale) SiO2 
 PCOD8297006
Probable space group: I B C A 
;
_chemical_formula_sum "Si O2"
_cell_formula_units_Z 112
_cell_length_a 10.653711
_cell_length_b 15.686817
_cell_length_c 28.966465
_cell_angle_alpha 90.000000
_cell_angle_beta 90.000000
_cell_angle_gamma 90.000000
_cell_volume 4840.957166
_symmetry_space_group_name_H-M "I B C A "
_symmetry_group_IT_number 73
_symmetry_cell_setting 'orthorhombic'
loop_
_space_group_symop_operation_xyz
x,y,z
-x,1/2-y,z
x,-y,1/2-z
1/2-x,y,-z
-x,-y,-z
x,1/2+y,-z
-x,y,1/2+z
1/2+x,-y,z
1/2+x,1/2+y,1/2+z
1/2-x,-y,1/2+z
1/2+x,1/2-y,-z
-x,1/2+y,1/2-z
1/2-x,1/2-y,1/2-z
1/2+x,y,1/2-z
1/2-x,1/2+y,z
x,1/2-y,1/2+z
loop_
_atom_site_type_symbol
_atom_site_label
_atom_site_fract_x
_atom_site_fract_y
_atom_site_fract_z
Si Si1 0.333960 0.500000 0.750000
Si Si2 0.896650 0.313819 0.868935
Si Si3 0.278528 0.672485 0.215687
Si Si4 0.983597 0.015614 0.897644
Si Si5 0.728878 0.258213 0.948283
Si Si6 0.000000 0.250000 0.609931
Si Si7 0.727147 0.057282 0.949146
Si Si8 0.486371 0.609486 0.676903
O O1 0.253099 0.577625 0.768269
O O2 0.405269 0.545420 0.707677
O O3 0.782378 0.310131 0.833519
O O4 0.850996 0.285754 0.919673
O O5 0.000000 0.250000 0.849399
O O6 0.963548 0.403799 0.870631
O O7 0.250000 0.750000 0.250000
O O8 0.427456 0.667142 0.209908
O O9 0.854778 0.034553 0.923134
O O10 0.938374 0.950064 0.858492
O O11 0.099398 0.982531 0.928939
O O12 0.603584 0.295707 0.923297
O O13 0.709482 0.157779 0.950062
O O14 0.750000 0.295013 0.000000
O O15 0.076405 0.180620 0.642382
O O16 0.750000 0.020086 0.000000
#
# Coordination Sequence:
#
# PCOD8297006 Si02
#       8
#     8  16  16  16  16   8  16  16
#     4  12  28  46  76 110 146 196 258 326 386 474
#     4  12  26  47  71 106 144 196 244 306 378 455
#     4  12  28  48  76 109 151 198 255 318 390 466
#     4  12  25  46  76 103 155 196 250 313 383 451
#     4  11  26  45  72 105 146 196 252 312 377 452
#     4  12  24  46  76 104 150 198 250 312 384 464
#     4  11  25  45  72 110 148 197 254 317 379 453
#     4  12  26  47  71 106 143 194 249 307 384 454
#
# _framework density 23.135922000000001
#
# number of rings (size 3 to 8) (size 9 to 14) (size 15 to 20)
#    0.000    0.286    5.714    2.571    3.000    1.714 
#    0.000    0.000    0.000    0.000    0.000    0.000 
#    0.000    0.000    0.000    0.000    0.000    0.000 
#
# Total GULP energy -693813.654722 kJ/mol
# GULP energy per Si atom -12389.529549 kJ/mol
# Density = 2.308326 g / cm^3
# Si number density = 23.135922 Si / 1000 Ang^3
#
#
#
# Elastic Constant Matrix: (Units=GPa)
#
#
# Indices 1 2 3 4 5 6 
#
# 1 87.7178 4.2281 26.0860 0.0000 0.0000 0.0000
# 2 4.2281 98.8407 33.9940 0.0000 0.0000 0.0000
# 3 26.0860 33.9940 132.8605 0.0000 0.0000 0.0000
# 4 0.0000 0.0000 0.0000 55.6752 0.0000 0.0000
# 5 0.0000 0.0000 0.0000 0.0000 33.7467 0.0000
# 6 0.0000 0.0000 0.0000 0.0000 0.0000 122.1567
#
#
#
# Elastic Compliance Matrix: (Units=1/GPa)
#
#
# Indices 1 2 3 4 5 6 
#
# 1 0.012117 0.000329 -0.002463 0.000000 0.000000 0.000000
# 2 0.000329 0.011102 -0.002905 0.000000 0.000000 0.000000
# 3 -0.002463 -0.002905 0.008754 0.000000 0.000000 0.000000
# 4 0.000000 0.000000 0.000000 0.017961 0.000000 0.000000
# 5 0.000000 0.000000 0.000000 0.000000 0.029632 0.000000
# 6 0.000000 0.000000 0.000000 0.000000 0.000000 0.008186
#
#
# Mechanical properties :
#
#
# Convention : Reuss Voigt Hill
#
# Bulk Modulus (GPa) = 45.67515 49.78169 47.72842
# Shear Modulus (GPa) = 47.56013 59.32313 53.44163
#
# Velocity S-wave (km/s) = 4.53888 5.06920 4.81135
# Velocity P-wave (km/s) = 6.87412 7.47169 7.17913
#
# Compressibility (1/GPa) = 0.02189374
#
# Stress axis : x y z
#
# Youngs Moduli (GPa) = 82.52967 90.07040 114.23791
#
# Poissons Ratio (x) = -0.02962 0.28139
# Poissons Ratio (y) = -0.02714 0.33189
# Poissons Ratio (z) = 0.20329 0.26168
#
# Static dielectric constant tensor:
#      x y z
#    x 4.024430 0.000000 0.000000 
#    y 0.000000 4.726040 0.000000 
#    z 0.000000 0.000000 4.695340 
# 
# 
# High freq. dielectric constant tensor:
#      x y z
#    x 1.909020 0.000000 0.000000 
#    y 0.000000 1.935090 0.000000 
#    z 0.000000 0.000000 1.930300 
# 
# From -- ./inp_files/34060.got.cif
#   From: 2010.03.12/outbox.cif.g09.slc.cpg/sg73_18_cif.got.tgz:34060.got - 2010.04.16 15:25:48.
