data_PCOD8297703
_publ_section_title
;
Structure prediction by ZEFSAII (Michael W. Deem and Ramdas Pophale) SiO2 
 PCOD8297703
Probable space group: I M M A
;
_chemical_formula_sum "Si O2"
_cell_formula_units_Z 72
_cell_length_a 25.720463
_cell_length_b 8.510726
_cell_length_c 17.322451
_cell_angle_alpha 90.000000
_cell_angle_beta 90.000000
_cell_angle_gamma 90.000000
_cell_volume 3791.881288
_symmetry_space_group_name_H-M "I M M A"
_symmetry_group_IT_number 74
_symmetry_cell_setting 'orthorhombic'
loop_
_space_group_symop_operation_xyz
x,y,z
-x,1/2-y,z
x,-y,-z
-x,1/2+y,-z
-x,-y,-z
x,1/2+y,-z
-x,y,z
x,1/2-y,z
1/2+x,1/2+y,1/2+z
1/2-x,-y,1/2+z
1/2+x,1/2-y,1/2-z
1/2-x,y,1/2-z
1/2-x,1/2-y,1/2-z
1/2+x,y,1/2-z
1/2-x,1/2+y,1/2+z
1/2+x,-y,1/2+z
loop_
_atom_site_type_symbol
_atom_site_label
_atom_site_fract_x
_atom_site_fract_y
_atom_site_fract_z
Si Si1 0.157523 0.068988 0.578873
Si Si2 0.306534 0.434650 0.235979
Si Si3 0.000000 0.437904 0.086762
Si Si4 0.942184 0.430202 0.372241
Si Si5 0.912565 0.066149 0.201272
O O1 0.172639 0.250000 0.587828
O O2 0.181203 0.000000 0.500000
O O3 0.180494 0.966868 0.647630
O O4 0.095103 0.045747 0.579759
O O5 0.303318 0.250000 0.249707
O O6 0.250000 0.513399 0.250000
O O7 0.352902 0.502504 0.292077
O O8 0.948000 0.502636 0.131260
O O9 0.000000 0.250000 0.087042
O O10 0.000000 0.500000 0.000000
O O11 0.923981 0.250000 0.384491
O O12 0.941251 0.471356 0.281411
O O13 0.000000 0.457776 0.403596
O O14 0.908269 0.250000 0.187677
#
# Coordination Sequence:
#
# PCOD8297703 Si02
#       5
#    16  16   8  16  16
#     4  11  22  35  51  74 106 139 171 212 259 309
#     4   9  18  35  59  81 100 130 176 221 265 323
#     4  10  18  30  48  72 103 138 171 208 257 310
#     4   9  16  30  53  76  98 132 174 212 254 310
#     4   8  14  28  51  74  98 132 169 205 253 312
#
# _framework density 18.987936000000001
#
# number of rings (size 3 to 8) (size 9 to 14) (size 15 to 20)
#    0.000    2.667    1.111    3.333    0.000    1.333 
#    0.000    5.556    0.000    2.667    0.000    0.000 
#    0.000    0.000    0.000    0.000    0.000    0.000 
#
# Total GULP energy -446013.226104 kJ/mol
# GULP energy per Si atom -12389.256281 kJ/mol
# Density = 1.894472 g / cm^3
# Si number density = 18.987936 Si / 1000 Ang^3
#
#
#
# Elastic Constant Matrix: (Units=GPa)
#
#
# Indices 1 2 3 4 5 6 
#
# 1 145.2493 5.2128 46.2330 0.0000 0.0000 0.0000
# 2 5.2128 16.9446 -2.9205 0.0000 0.0000 0.0000
# 3 46.2330 -2.9205 95.4089 0.0000 0.0000 0.0000
# 4 0.0000 0.0000 0.0000 25.0941 0.0000 0.0000
# 5 0.0000 0.0000 0.0000 0.0000 8.2563 0.0000
# 6 0.0000 0.0000 0.0000 0.0000 0.0000 12.5510
#
#
#
# Elastic Compliance Matrix: (Units=1/GPa)
#
#
# Indices 1 2 3 4 5 6 
#
# 1 0.008317 -0.003270 -0.004130 0.000000 0.000000 0.000000
# 2 -0.003270 0.060615 0.003440 0.000000 0.000000 0.000000
# 3 -0.004130 0.003440 0.012588 0.000000 0.000000 0.000000
# 4 0.000000 0.000000 0.000000 0.039850 0.000000 0.000000
# 5 0.000000 0.000000 0.000000 0.000000 0.121120 0.000000
# 6 0.000000 0.000000 0.000000 0.000000 0.000000 0.079675
#
#
# Mechanical properties :
#
#
# Convention : Reuss Voigt Hill
#
# Bulk Modulus (GPa) = 13.58720 39.40592 26.49656
# Shear Modulus (GPa) = 14.09969 23.11878 18.60924
#
# Velocity S-wave (km/s) = 2.72795 3.49313 3.13398
# Velocity P-wave (km/s) = 4.13443 6.08830 5.20389
#
# Compressibility (1/GPa) = 0.07359866
#
# Stress axis : x y z
#
# Youngs Moduli (GPa) = 120.23947 16.49762 79.44122
#
# Poissons Ratio (x) = 0.05395 0.32811
# Poissons Ratio (y) = 0.39323 -0.27330
# Poissons Ratio (z) = 0.49661 -0.05676
#
# Static dielectric constant tensor:
#      x y z
#    x 4.069320 0.000000 0.000000 
#    y 0.000000 3.066400 0.000000 
#    z 0.000000 0.000000 3.391990 
# 
# 
# High freq. dielectric constant tensor:
#      x y z
#    x 1.739230 0.000000 0.000000 
#    y 0.000000 1.699380 0.000000 
#    z 0.000000 0.000000 1.723040 
# 
# From -- ./inp_files/29213.got.cif
#   From: 2010.03.12/outbox.cif.g09.slc.cpg/sg74_15_cif.got.tgz:29213.got - 2010.04.16 15:46:19.
