data_PCOD8297999
_publ_section_title
;
Structure prediction by ZEFSAII (Michael W. Deem and Ramdas Pophale) SiO2 
 PCOD8297999
Probable space group: I M M A
;
_chemical_formula_sum "Si O2"
_cell_formula_units_Z 104
_cell_length_a 8.897192
_cell_length_b 31.207815
_cell_length_c 19.316003
_cell_angle_alpha 90.000000
_cell_angle_beta 90.000000
_cell_angle_gamma 90.000000
_cell_volume 5363.318517
_symmetry_space_group_name_H-M "I M M A"
_symmetry_group_IT_number 74
_symmetry_cell_setting 'orthorhombic'
loop_
_space_group_symop_operation_xyz
x,y,z
-x,1/2-y,z
x,-y,-z
-x,1/2+y,-z
-x,-y,-z
x,1/2+y,-z
-x,y,z
x,1/2-y,z
1/2+x,1/2+y,1/2+z
1/2-x,-y,1/2+z
1/2+x,1/2-y,1/2-z
1/2-x,y,1/2-z
1/2-x,1/2-y,1/2-z
1/2+x,y,1/2-z
1/2-x,1/2+y,1/2+z
1/2+x,-y,1/2+z
loop_
_atom_site_type_symbol
_atom_site_label
_atom_site_fract_x
_atom_site_fract_y
_atom_site_fract_z
Si Si1 0.328590 0.250000 0.321824
Si Si2 0.174311 0.834480 0.181929
Si Si3 0.177670 0.957258 0.465736
Si Si4 0.676105 0.656980 0.674944
Si Si5 0.677747 0.574167 0.180400
Si Si6 0.177367 0.373984 0.455013
Si Si7 0.827556 0.701371 0.035107
O O1 0.500000 0.250000 0.301361
O O2 0.250000 0.250000 0.250000
O O3 0.291051 0.204720 0.358993
O O4 0.250000 0.813226 0.250000
O O5 0.256276 0.879067 0.165563
O O6 0.195964 0.802743 0.117596
O O7 0.000000 0.843753 0.196969
O O8 0.220765 0.955966 0.384547
O O9 0.241371 0.915125 0.504021
O O10 0.000000 0.957516 0.474992
O O11 0.248293 0.000000 0.500000
O O12 0.500000 0.647803 0.682141
O O13 0.750000 0.651588 0.750000
O O14 0.749605 0.624063 0.621307
O O15 0.500000 0.577909 0.189456
O O16 0.750000 0.554086 0.250000
O O17 0.220026 0.331038 0.495605
O O18 0.000000 0.375552 0.446747
O O19 0.787444 0.750000 0.013458
O O20 0.000000 0.690890 0.015061
#
# Coordination Sequence:
#
# PCOD8297999 Si02
#       7
#     8  16  16  16  16  16  16
#     4   8  16  30  50  74 102 138 179 220 261 316
#     4  10  19  32  53  78 109 147 188 231 277 323
#     4   9  19  37  60  84 112 147 184 228 284 342
#     4  10  20  36  56  80 111 148 189 229 279 332
#     4  10  18  32  56  83 111 143 184 227 274 330
#     4  11  22  37  58  84 112 145 187 233 283 335
#     4  10  22  38  54  76 112 155 192 229 279 333
#
# _framework density 19.390979999999999
#
# number of rings (size 3 to 8) (size 9 to 14) (size 15 to 20)
#    0.000    2.154    1.538    2.769    1.077    1.846 
#    0.000    0.769    0.000    9.231    0.000    0.000 
#    0.000    0.000    0.000    0.000    0.000    0.000 
#
# Total GULP energy -644554.479605 kJ/mol
# GULP energy per Si atom -12395.278454 kJ/mol
# Density = 1.934685 g / cm^3
# Si number density = 19.390980 Si / 1000 Ang^3
#
#
#
# Elastic Constant Matrix: (Units=GPa)
#
#
# Indices 1 2 3 4 5 6 
#
# 1 85.6222 32.4598 48.4429 0.0000 0.0000 0.0000
# 2 32.4598 97.2447 60.5402 -0.0001 0.0000 0.0000
# 3 48.4429 60.5402 122.1017 -0.0005 0.0000 0.0000
# 4 0.0000 -0.0001 -0.0005 31.4620 0.0000 0.0000
# 5 0.0000 0.0000 0.0000 0.0000 32.6951 -0.0001
# 6 0.0000 0.0000 0.0000 0.0000 -0.0001 15.9441
#
#
#
# Elastic Compliance Matrix: (Units=1/GPa)
#
#
# Indices 1 2 3 4 5 6 
#
# 1 0.015304 -0.001922 -0.005119 0.000000 0.000000 0.000000
# 2 -0.001922 0.015116 -0.006732 0.000000 0.000000 0.000000
# 3 -0.005119 -0.006732 0.013559 0.000000 0.000000 0.000000
# 4 0.000000 0.000000 0.000000 0.031784 0.000000 0.000000
# 5 0.000000 0.000000 0.000000 0.000000 0.030586 0.000000
# 6 0.000000 0.000000 0.000000 0.000000 0.000000 0.062719
#
#
# Mechanical properties :
#
#
# Convention : Reuss Voigt Hill
#
# Bulk Modulus (GPa) = 60.85350 65.31715 63.08533
# Shear Modulus (GPa) = 24.74127 26.92195 25.83161
#
# Velocity S-wave (km/s) = 3.57587 3.73013 3.65382
# Velocity P-wave (km/s) = 6.96417 7.23252 7.09961
#
# Compressibility (1/GPa) = 0.01643291
#
# Stress axis : x y z
#
# Youngs Moduli (GPa) = 65.34296 66.15480 73.75241
#
# Poissons Ratio (x) = 0.12712 0.37754
# Poissons Ratio (y) = 0.12556 0.49654
# Poissons Ratio (z) = 0.33449 0.44538
#
# Static dielectric constant tensor:
#      x y z
#    x 3.429660 0.000000 0.000000 
#    y 0.000000 3.526520 0.000000 
#    z 0.000000 0.000000 3.743820 
# 
# 
# High freq. dielectric constant tensor:
#      x y z
#    x 1.747150 0.000000 0.000000 
#    y 0.000000 1.729080 0.000000 
#    z 0.000000 0.000000 1.769410 
# 
# From -- ./inp_files/49588.got.cif
#   From: 2010.03.12/outbox.cif.g09.slc.cpg/sg74_25_cif.got.tgz:49588.got - 2010.04.16 15:46:19.
