data_PCOD8297557
_publ_section_title
;
Structure prediction by ZEFSAII (Michael W. Deem and Ramdas Pophale) SiO2 
 PCOD8297557
Probable space group: I M M A
;
_chemical_formula_sum "Si O2"
_cell_formula_units_Z 112
_cell_length_a 26.477691
_cell_length_b 17.804806
_cell_length_c 14.465723
_cell_angle_alpha 90.000000
_cell_angle_beta 90.000000
_cell_angle_gamma 90.000000
_cell_volume 6819.577987
_symmetry_space_group_name_H-M "I M M A"
_symmetry_group_IT_number 74
_symmetry_cell_setting 'orthorhombic'
loop_
_space_group_symop_operation_xyz
x,y,z
-x,1/2-y,z
x,-y,-z
-x,1/2+y,-z
-x,-y,-z
x,1/2+y,-z
-x,y,z
x,1/2-y,z
1/2+x,1/2+y,1/2+z
1/2-x,-y,1/2+z
1/2+x,1/2-y,1/2-z
1/2-x,y,1/2-z
1/2-x,1/2-y,1/2-z
1/2+x,y,1/2-z
1/2-x,1/2+y,1/2+z
1/2+x,-y,1/2+z
loop_
_atom_site_type_symbol
_atom_site_label
_atom_site_fract_x
_atom_site_fract_y
_atom_site_fract_z
Si Si1 0.308551 0.094049 0.829210
Si Si2 0.295284 0.663845 0.357211
Si Si3 0.288815 0.424159 0.131539
Si Si4 0.642909 0.664003 0.740615
Si Si5 0.805609 0.663916 0.937813
Si Si6 0.377538 0.583438 0.009306
Si Si7 0.555948 0.338425 0.129634
O O1 0.320464 0.111068 0.721331
O O2 0.265254 0.151551 0.862963
O O3 0.285534 0.011157 0.841242
O O4 0.361187 0.104090 0.885706
O O5 0.305811 0.750000 0.331265
O O6 0.320189 0.643855 0.456673
O O7 0.308443 0.379234 0.220464
O O8 0.234984 0.394578 0.099816
O O9 0.325754 0.411010 0.046408
O O10 0.648033 0.750000 0.772230
O O11 0.644887 0.656289 0.628810
O O12 0.590869 0.631571 0.785121
O O13 0.784871 0.750000 0.933487
O O14 0.419591 0.639408 0.969052
O O15 0.400510 0.500000 0.000000
O O16 0.500000 0.374213 0.139519
O O17 0.551285 0.250000 0.132570
#
# Coordination Sequence:
#
# PCOD8297557 Si02
#       7
#    16  16  16  16  16  16  16
#     4  10  19  31  43  63  90 127 160 197 225 260
#     4  10  21  32  42  60  89 129 170 193 220 264
#     4  10  18  29  43  66  94 121 154 191 228 274
#     4   9  18  30  45  66  91 119 149 188 237 286
#     4  10  19  30  44  64  92 127 162 192 225 276
#     4   9  18  31  46  67  96 121 157 190 232 285
#     4   9  18  32  50  72  93 115 150 198 250 298
#
# _framework density 16.423303000000001
#
# number of rings (size 3 to 8) (size 9 to 14) (size 15 to 20)
#    0.000    2.429    1.429    1.714    4.000    3.143 
#    0.000    0.000    0.000    0.000    0.000    1.000 
#    0.000   13.714    0.000    0.000    0.000    0.000 
#
# Total GULP energy -694039.351701 kJ/mol
# GULP energy per Si atom -12393.559852 kJ/mol
# Density = 1.638592 g / cm^3
# Si number density = 16.423303 Si / 1000 Ang^3
#
#
#
# Elastic Constant Matrix: (Units=GPa)
#
#
# Indices 1 2 3 4 5 6 
#
# 1 68.1921 22.0990 48.9583 0.0000 0.0000 0.0000
# 2 22.0990 48.9958 37.9907 0.0000 0.0000 0.0000
# 3 48.9583 37.9907 137.1735 0.0000 0.0000 0.0000
# 4 0.0000 0.0000 0.0000 20.5289 0.0000 0.0000
# 5 0.0000 0.0000 0.0000 0.0000 10.5164 0.0000
# 6 0.0000 0.0000 0.0000 0.0000 0.0000 12.2078
#
#
#
# Elastic Compliance Matrix: (Units=1/GPa)
#
#
# Indices 1 2 3 4 5 6 
#
# 1 0.020482 -0.004546 -0.006051 0.000000 0.000000 0.000000
# 2 -0.004546 0.027001 -0.005855 0.000000 0.000000 0.000000
# 3 -0.006051 -0.005855 0.011071 0.000000 0.000000 0.000000
# 4 0.000000 0.000000 0.000000 0.048712 0.000000 0.000000
# 5 0.000000 0.000000 0.000000 0.000000 0.095090 0.000000
# 6 0.000000 0.000000 0.000000 0.000000 0.000000 0.081915
#
#
# Mechanical properties :
#
#
# Convention : Reuss Voigt Hill
#
# Bulk Modulus (GPa) = 38.98832 52.49526 45.74179
# Shear Modulus (GPa) = 15.35033 18.33817 16.84425
#
# Velocity S-wave (km/s) = 3.06055 3.34517 3.20602
# Velocity P-wave (km/s) = 6.02333 6.85226 6.45112
#
# Compressibility (1/GPa) = 0.02564871
#
# Stress axis : x y z
#
# Youngs Moduli (GPa) = 48.82295 37.03619 90.32290
#
# Poissons Ratio (x) = 0.16838 0.54656
# Poissons Ratio (y) = 0.22196 0.52887
# Poissons Ratio (z) = 0.29543 0.21686
#
# Static dielectric constant tensor:
#      x y z
#    x 2.873950 0.000000 0.000000 
#    y 0.000000 3.148270 0.000000 
#    z 0.000000 0.000000 3.414400 
# 
# 
# High freq. dielectric constant tensor:
#      x y z
#    x 1.576580 0.000000 0.000000 
#    y 0.000000 1.633720 0.000000 
#    z 0.000000 0.000000 1.641270 
# 
# From -- ./inp_files/33144.got.cif
#   From: 2010.03.12/outbox.cif.g09.slc.cpg/sg74_17_cif.got.tgz:33144.got - 2010.04.16 15:46:19.
