data_PCOD8297459
_publ_section_title
;
Structure prediction by ZEFSAII (Michael W. Deem and Ramdas Pophale) SiO2 
 PCOD8297459
Probable space group: I M M A
;
_chemical_formula_sum "Si O2"
_cell_formula_units_Z 104
_cell_length_a 9.051255
_cell_length_b 24.322659
_cell_length_c 36.016970
_cell_angle_alpha 90.000000
_cell_angle_beta 90.000000
_cell_angle_gamma 90.000000
_cell_volume 7929.157155
_symmetry_space_group_name_H-M "I M M A"
_symmetry_group_IT_number 74
_symmetry_cell_setting 'orthorhombic'
loop_
_space_group_symop_operation_xyz
x,y,z
-x,1/2-y,z
x,-y,-z
-x,1/2+y,-z
-x,-y,-z
x,1/2+y,-z
-x,y,z
x,1/2-y,z
1/2+x,1/2+y,1/2+z
1/2-x,-y,1/2+z
1/2+x,1/2-y,1/2-z
1/2-x,y,1/2-z
1/2-x,1/2-y,1/2-z
1/2+x,y,1/2-z
1/2-x,1/2+y,1/2+z
1/2+x,-y,1/2+z
loop_
_atom_site_type_symbol
_atom_site_label
_atom_site_fract_x
_atom_site_fract_y
_atom_site_fract_z
Si Si1 0.672780 0.687970 0.915763
Si Si2 0.168717 0.410082 0.363189
Si Si3 0.833192 0.619131 0.972848
Si Si4 0.166053 0.018248 0.083555
Si Si5 0.322384 0.750000 0.709521
Si Si6 0.827656 0.142779 0.288531
Si Si7 0.833429 0.449579 0.528343
O O1 0.500000 0.684376 0.924020
O O2 0.719912 0.750000 0.904678
O O3 0.718685 0.647343 0.882294
O O4 0.755038 0.671070 0.953695
O O5 0.263934 0.461447 0.377635
O O6 0.187795 0.405861 0.318637
O O7 0.000000 0.422084 0.374063
O O8 0.749915 0.602706 0.010731
O O9 0.000000 0.635266 0.982989
O O10 0.828036 0.568096 0.945063
O O11 0.000000 0.998722 0.091263
O O12 0.255059 0.966740 0.066807
O O13 0.500000 0.750000 0.709216
O O14 0.250000 0.750000 0.750000
O O15 0.256116 0.694462 0.691860
O O16 0.750000 0.124913 0.250000
O O17 0.000000 0.157005 0.281017
O O18 0.829534 0.500000 0.500000
O O19 0.000000 0.431946 0.537443
#
# Coordination Sequence:
#
# PCOD8297459 Si02
#       7
#    16  16  16  16   8  16  16
#     4   9  17  28  40  51  65  88 116 142 170 207
#     4   9  18  29  41  53  67  88 112 138 171 213
#     4   9  16  25  36  51  70  88 108 134 165 198
#     4   9  16  25  37  53  72  88 104 131 166 201
#     4  10  18  28  40  52  64  78 100 132 168 206
#     4  10  19  30  43  54  67  84 108 139 174 212
#     4   9  15  23  37  53  69  88 110 131 155 193
#
# _framework density 13.116148000000001
#
# number of rings (size 3 to 8) (size 9 to 14) (size 15 to 20)
#    0.000    2.769    0.000    3.462    1.077    7.077 
#    0.000    0.000    0.000    0.000    0.000    0.000 
#    0.000    0.000    0.000    0.000    0.000    0.000 
#
# Total GULP energy -644517.711033 kJ/mol
# GULP energy per Si atom -12394.571366 kJ/mol
# Density = 1.308630 g / cm^3
# Si number density = 13.116148 Si / 1000 Ang^3
#
#
#
# Elastic Constant Matrix: (Units=GPa)
#
#
# Indices 1 2 3 4 5 6 
#
# 1 90.7378 17.4636 38.8931 0.0000 0.0000 0.0000
# 2 17.4636 18.2808 24.9571 0.0000 0.0000 0.0000
# 3 38.8931 24.9571 64.0970 0.0000 0.0000 0.0000
# 4 0.0000 0.0000 0.0000 19.6369 0.0000 0.0000
# 5 0.0000 0.0000 0.0000 0.0000 18.4141 0.0000
# 6 0.0000 0.0000 0.0000 0.0000 0.0000 15.1539
#
#
#
# Elastic Compliance Matrix: (Units=1/GPa)
#
#
# Indices 1 2 3 4 5 6 
#
# 1 0.015035 -0.004073 -0.007537 0.000000 0.000000 0.000000
# 2 -0.004073 0.117880 -0.043427 0.000000 0.000000 0.000000
# 3 -0.007537 -0.043427 0.037084 0.000000 0.000000 0.000000
# 4 0.000000 0.000000 0.000000 0.050924 0.000000 0.000000
# 5 0.000000 0.000000 0.000000 0.000000 0.054306 0.000000
# 6 0.000000 0.000000 0.000000 0.000000 0.000000 0.065990
#
#
# Mechanical properties :
#
#
# Convention : Reuss Voigt Hill
#
# Bulk Modulus (GPa) = 16.68766 37.30477 26.99622
# Shear Modulus (GPa) = 10.60966 16.76111 13.68539
#
# Velocity S-wave (km/s) = 2.84720 3.57865 3.23367
# Velocity P-wave (km/s) = 4.85380 6.75124 5.87957
#
# Compressibility (1/GPa) = 0.05992452
#
# Stress axis : x y z
#
# Youngs Moduli (GPa) = 66.50953 8.48321 26.96610
#
# Poissons Ratio (x) = 0.03456 0.20325
# Poissons Ratio (y) = 0.27092 1.17105
# Poissons Ratio (z) = 0.50130 0.36840
#
# Static dielectric constant tensor:
#      x y z
#    x 2.800700 0.000000 0.000000 
#    y 0.000000 2.425540 0.000000 
#    z 0.000000 0.000000 2.484640 
# 
# 
# High freq. dielectric constant tensor:
#      x y z
#    x 1.516900 0.000000 0.000000 
#    y 0.000000 1.444060 0.000000 
#    z 0.000000 0.000000 1.472470 
# 
# From -- ./inp_files/71004.got.cif
#   From: 2010.03.12/outbox.cif.g09.slc.cpg/sg74_36_cif.got.tgz:71004.got - 2010.04.16 15:46:19.
