data_PCOD8297354
_publ_section_title
;
Structure prediction by ZEFSAII (Michael W. Deem and Ramdas Pophale) SiO2 
 PCOD8297354
Probable space group: I M M A
;
_chemical_formula_sum "Si O2"
_cell_formula_units_Z 120
_cell_length_a 27.390226
_cell_length_b 20.209466
_cell_length_c 12.193930
_cell_angle_alpha 90.000000
_cell_angle_beta 90.000000
_cell_angle_gamma 90.000000
_cell_volume 6749.850462
_symmetry_space_group_name_H-M "I M M A"
_symmetry_group_IT_number 74
_symmetry_cell_setting 'orthorhombic'
loop_
_space_group_symop_operation_xyz
x,y,z
-x,1/2-y,z
x,-y,-z
-x,1/2+y,-z
-x,-y,-z
x,1/2+y,-z
-x,y,z
x,1/2-y,z
1/2+x,1/2+y,1/2+z
1/2-x,-y,1/2+z
1/2+x,1/2-y,1/2-z
1/2-x,y,1/2-z
1/2-x,1/2-y,1/2-z
1/2+x,y,1/2-z
1/2-x,1/2+y,1/2+z
1/2+x,-y,1/2+z
loop_
_atom_site_type_symbol
_atom_site_label
_atom_site_fract_x
_atom_site_fract_y
_atom_site_fract_z
Si Si1 0.778812 0.076494 0.985949
Si Si2 0.391966 0.500000 0.000000
Si Si3 0.637227 0.675604 0.861843
Si Si4 0.195368 0.573374 0.777233
Si Si5 0.055229 0.074816 0.320471
Si Si6 0.555055 0.016168 0.624213
Si Si7 0.327233 0.380202 0.935359
Si Si8 0.350378 0.067293 0.709051
O O1 0.730571 0.116878 0.955219
O O2 0.816952 0.089938 0.890386
O O3 0.805258 0.099811 0.097757
O O4 0.764582 0.000000 0.000000
O O5 0.425922 0.513317 0.894562
O O6 0.355579 0.440160 0.989099
O O7 0.635670 0.750000 0.815151
O O8 0.678899 0.633130 0.800145
O O9 0.584961 0.642203 0.839284
O O10 0.651247 0.680335 0.992103
O O11 0.250000 0.550333 0.750000
O O12 0.161608 0.508824 0.756038
O O13 0.000000 0.091108 0.354321
O O14 0.058474 0.051753 0.193886
O O15 0.500000 0.045515 0.630329
O O16 0.592990 0.070219 0.672125
O O17 0.570229 0.000000 0.500000
O O18 0.340305 0.379914 0.806277
#
# Coordination Sequence:
#
# PCOD8297354 Si02
#       8
#    16   8  16  16  16  16  16  16
#     4  10  19  28  50  80 110 134 162 205 267 325
#     4  10  17  30  52  78 112 130 163 206 268 324
#     4  11  24  38  53  71 102 146 189 225 255 300
#     4  11  19  33  51  77 108 133 171 214 267 326
#     4  10  20  34  55  80 109 139 170 216 269 321
#     4  10  19  32  50  79 115 141 162 200 264 331
#     4  11  18  33  48  75 106 139 169 214 261 314
#     4  11  19  30  53  81 108 134 166 213 270 332
#
# _framework density 17.778172000000001
#
# number of rings (size 3 to 8) (size 9 to 14) (size 15 to 20)
#    0.000    1.467    4.667    4.200    0.000    0.533 
#    0.000    0.000    0.000    2.400    0.000    0.000 
#    0.000    0.000    0.000    0.000    0.000    0.000 
#
# Total GULP energy -743742.754010 kJ/mol
# GULP energy per Si atom -12395.712567 kJ/mol
# Density = 1.773771 g / cm^3
# Si number density = 17.778172 Si / 1000 Ang^3
#
#
#
# Elastic Constant Matrix: (Units=GPa)
#
#
# Indices 1 2 3 4 5 6 
#
# 1 116.2326 17.9691 31.8436 0.0000 0.0000 0.0000
# 2 17.9691 47.2208 19.3464 0.0000 0.0000 0.0000
# 3 31.8436 19.3464 128.2898 0.0000 0.0000 0.0000
# 4 0.0000 0.0000 0.0000 11.8533 0.0000 0.0000
# 5 0.0000 0.0000 0.0000 0.0000 27.7573 0.0000
# 6 0.0000 0.0000 0.0000 0.0000 0.0000 11.6623
#
#
#
# Elastic Compliance Matrix: (Units=1/GPa)
#
#
# Indices 1 2 3 4 5 6 
#
# 1 0.009577 -0.002846 -0.001948 0.000000 0.000000 0.000000
# 2 -0.002846 0.023418 -0.002825 0.000000 0.000000 0.000000
# 3 -0.001948 -0.002825 0.008704 0.000000 0.000000 0.000000
# 4 0.000000 0.000000 0.000000 0.084365 0.000000 0.000000
# 5 0.000000 0.000000 0.000000 0.000000 0.036027 0.000000
# 6 0.000000 0.000000 0.000000 0.000000 0.000000 0.085746
#
#
# Mechanical properties :
#
#
# Convention : Reuss Voigt Hill
#
# Bulk Modulus (GPa) = 37.79198 47.78462 42.78830
# Shear Modulus (GPa) = 18.38942 25.09351 21.74146
#
# Velocity S-wave (km/s) = 3.21967 3.76104 3.50084
# Velocity P-wave (km/s) = 5.92667 6.76736 6.36092
#
# Compressibility (1/GPa) = 0.02646064
#
# Stress axis : x y z
#
# Youngs Moduli (GPa) = 104.41520 42.70293 114.88470
#
# Poissons Ratio (x) = 0.12155 0.22379
# Poissons Ratio (y) = 0.29720 0.32454
# Poissons Ratio (z) = 0.20340 0.12063
#
# Static dielectric constant tensor:
#      x y z
#    x 3.489610 0.000000 0.000000 
#    y 0.000000 2.880880 0.000000 
#    z 0.000000 0.000000 3.903530 
# 
# 
# High freq. dielectric constant tensor:
#      x y z
#    x 1.704880 0.000000 0.000000 
#    y 0.000000 1.612130 0.000000 
#    z 0.000000 0.000000 1.710350 
# 
# From -- ./inp_files/26518.got.cif
#   From: 2010.03.12/outbox.cif.g09.slc.cpg/sg74_14_cif.got.tgz:26518.got - 2010.04.16 15:46:19.
