data_PCOD8297969
_publ_section_title
;
Structure prediction by ZEFSAII (Michael W. Deem and Ramdas Pophale) SiO2 
 PCOD8297969
Probable space group: I M M A
;
_chemical_formula_sum "Si O2"
_cell_formula_units_Z 120
_cell_length_a 13.729581
_cell_length_b 22.813660
_cell_length_c 21.066224
_cell_angle_alpha 90.000000
_cell_angle_beta 90.000000
_cell_angle_gamma 90.000000
_cell_volume 6598.404664
_symmetry_space_group_name_H-M "I M M A"
_symmetry_group_IT_number 74
_symmetry_cell_setting 'orthorhombic'
loop_
_space_group_symop_operation_xyz
x,y,z
-x,1/2-y,z
x,-y,-z
-x,1/2+y,-z
-x,-y,-z
x,1/2+y,-z
-x,y,z
x,1/2-y,z
1/2+x,1/2+y,1/2+z
1/2-x,-y,1/2+z
1/2+x,1/2-y,1/2-z
1/2-x,y,1/2-z
1/2-x,1/2-y,1/2-z
1/2+x,y,1/2-z
1/2-x,1/2+y,1/2+z
1/2+x,-y,1/2+z
loop_
_atom_site_type_symbol
_atom_site_label
_atom_site_fract_x
_atom_site_fract_y
_atom_site_fract_z
Si Si1 0.887011 0.091684 0.397180
Si Si2 0.250000 0.100039 0.750000
Si Si3 0.892023 0.315827 0.085179
Si Si4 0.275012 0.318431 0.178828
Si Si5 0.888394 0.317242 0.831051
Si Si6 0.112861 0.036795 0.650589
Si Si7 0.805115 0.936336 0.475682
Si Si8 0.607305 0.384863 0.543085
O O1 0.864660 0.143758 0.347804
O O2 0.831947 0.105254 0.464468
O O3 0.000000 0.091192 0.413268
O O4 0.856399 0.030095 0.364992
O O5 0.179551 0.141237 0.790075
O O6 0.182745 0.058891 0.706546
O O7 0.867103 0.250000 0.063785
O O8 0.819794 0.337128 0.139471
O O9 0.000000 0.319902 0.114566
O O10 0.882540 0.355957 0.024692
O O11 0.302041 0.250000 0.173220
O O12 0.250000 0.336409 0.250000
O O13 0.854607 0.250000 0.823632
O O14 0.877450 0.334816 0.904487
O O15 0.000000 0.324722 0.808262
O O16 0.130008 0.076203 0.587069
O O17 0.000000 0.042010 0.671535
O O18 0.692108 0.933149 0.453711
O O19 0.832063 0.000000 0.500000
O O20 0.500000 0.414384 0.551395
#
# Coordination Sequence:
#
# PCOD8297969 Si02
#       8
#    16   8  16  16  16  16  16  16
#     4  10  21  38  60  81 106 143 190 233 279 332
#     4  12  21  36  60  84 113 148 184 232 272 320
#     4   9  17  31  52  75 100 134 175 219 269 325
#     4  10  21  35  54  79 111 145 179 224 277 335
#     4  10  21  36  55  82 115 150 186 221 269 333
#     4  10  22  38  58  84 111 146 187 230 277 330
#     4  10  19  36  58  80 108 143 184 235 281 327
#     4  10  18  32  54  81 108 139 181 227 273 319
#
# _framework density 18.186214
#
# number of rings (size 3 to 8) (size 9 to 14) (size 15 to 20)
#    0.000    2.000    2.667    1.400    0.933    4.267 
#    0.000    1.333    0.000    0.000    0.000    0.000 
#    0.000    0.000    0.000    0.000    0.000    0.000 
#
# Total GULP energy -743799.117379 kJ/mol
# GULP energy per Si atom -12396.651956 kJ/mol
# Density = 1.814482 g / cm^3
# Si number density = 18.186214 Si / 1000 Ang^3
#
#
#
# Elastic Constant Matrix: (Units=GPa)
#
#
# Indices 1 2 3 4 5 6 
#
# 1 100.8703 34.8219 49.1361 0.0000 0.0000 0.0000
# 2 34.8219 52.0079 42.2313 0.0000 0.0000 0.0000
# 3 49.1361 42.2313 115.3583 0.0000 0.0000 0.0000
# 4 0.0000 0.0000 0.0000 26.2028 0.0000 0.0000
# 5 0.0000 0.0000 0.0000 0.0000 21.6389 0.0000
# 6 0.0000 0.0000 0.0000 0.0000 0.0000 25.1837
#
#
#
# Elastic Compliance Matrix: (Units=1/GPa)
#
#
# Indices 1 2 3 4 5 6 
#
# 1 0.013853 -0.006381 -0.003565 0.000000 0.000000 0.000000
# 2 -0.006381 0.030301 -0.008375 0.000000 0.000000 0.000000
# 3 -0.003565 -0.008375 0.013253 0.000000 0.000000 0.000000
# 4 0.000000 0.000000 0.000000 0.038164 0.000000 0.000000
# 5 0.000000 0.000000 0.000000 0.000000 0.046213 0.000000
# 6 0.000000 0.000000 0.000000 0.000000 0.000000 0.039708
#
#
# Mechanical properties :
#
#
# Convention : Reuss Voigt Hill
#
# Bulk Modulus (GPa) = 48.15564 57.84612 53.00088
# Shear Modulus (GPa) = 22.21691 24.07488 23.14590
#
# Velocity S-wave (km/s) = 3.49898 3.64235 3.57139
# Velocity P-wave (km/s) = 6.54679 7.04029 6.79802
#
# Compressibility (1/GPa) = 0.02076600
#
# Stress axis : x y z
#
# Youngs Moduli (GPa) = 72.18746 33.00271 75.45489
#
# Poissons Ratio (x) = 0.21058 0.26897
# Poissons Ratio (y) = 0.46060 0.63193
# Poissons Ratio (z) = 0.25732 0.27639
#
# Static dielectric constant tensor:
#      x y z
#    x 3.498050 0.000000 0.000000 
#    y 0.000000 3.173400 0.000000 
#    z 0.000000 0.000000 3.504550 
# 
# 
# High freq. dielectric constant tensor:
#      x y z
#    x 1.713020 0.000000 0.000000 
#    y 0.000000 1.683310 0.000000 
#    z 0.000000 0.000000 1.712310 
# 
# From -- ./inp_files/52347.got.cif
#   From: 2010.03.12/outbox.cif.g09.slc.cpg/sg74_27_cif.got.tgz:52347.got - 2010.04.16 15:46:19.
