data_PCOD8297634
_publ_section_title
;
Structure prediction by ZEFSAII (Michael W. Deem and Ramdas Pophale) SiO2 
 PCOD8297634
Probable space group: I M M A
;
_chemical_formula_sum "Si O2"
_cell_formula_units_Z 88
_cell_length_a 26.424358
_cell_length_b 14.909353
_cell_length_c 11.017398
_cell_angle_alpha 90.000000
_cell_angle_beta 90.000000
_cell_angle_gamma 90.000000
_cell_volume 4340.525185
_symmetry_space_group_name_H-M "I M M A"
_symmetry_group_IT_number 74
_symmetry_cell_setting 'orthorhombic'
loop_
_space_group_symop_operation_xyz
x,y,z
-x,1/2-y,z
x,-y,-z
-x,1/2+y,-z
-x,-y,-z
x,1/2+y,-z
-x,y,z
x,1/2-y,z
1/2+x,1/2+y,1/2+z
1/2-x,-y,1/2+z
1/2+x,1/2-y,1/2-z
1/2-x,y,1/2-z
1/2-x,1/2-y,1/2-z
1/2+x,y,1/2-z
1/2-x,1/2+y,1/2+z
1/2+x,-y,1/2+z
loop_
_atom_site_type_symbol
_atom_site_label
_atom_site_fract_x
_atom_site_fract_y
_atom_site_fract_z
Si Si1 0.942752 0.345586 0.666164
Si Si2 0.317139 0.144473 0.636155
Si Si3 0.796822 0.146533 0.589455
Si Si4 0.385162 0.000000 0.500000
Si Si5 0.112754 0.593367 0.546822
Si Si6 0.559518 0.965614 0.729055
O O1 0.935432 0.250000 0.737424
O O2 0.911387 0.332967 0.541470
O O3 0.926835 0.429349 0.748908
O O4 0.000000 0.359301 0.624787
O O5 0.326427 0.250000 0.605294
O O6 0.260694 0.113877 0.598527
O O7 0.325092 0.129350 0.781157
O O8 0.352764 0.078108 0.562298
O O9 0.796675 0.250000 0.557181
O O10 0.826356 0.097277 0.477486
O O11 0.421587 0.947464 0.593518
O O12 0.089592 0.500000 0.500000
O O13 0.093743 0.600360 0.685647
O O14 0.500000 0.943803 0.744080
#
# Coordination Sequence:
#
# PCOD8297634 Si02
#       6
#    16  16  16   8  16  16
#     4   9  17  31  54  81 107 138 182 239 294 340
#     4   9  20  38  59  87 117 148 194 240 283 346
#     4   9  18  36  61  85 112 144 182 242 295 339
#     4  12  23  38  60  82 108 168 197 232 294 348
#     4  10  18  29  52  82 110 141 174 228 287 339
#     4  10  22  38  54  79 113 150 199 244 287 347
#
# _framework density 20.274044
#
# number of rings (size 3 to 8) (size 9 to 14) (size 15 to 20)
#    0.000    2.364    0.000    4.636    1.273    4.364 
#    0.000    1.818    0.000    6.000    0.000    0.000 
#    0.000    0.000    0.000    0.000    0.000    0.000 
#
# Total GULP energy -545074.161695 kJ/mol
# GULP energy per Si atom -12388.049129 kJ/mol
# Density = 2.022790 g / cm^3
# Si number density = 20.274044 Si / 1000 Ang^3
#
#
#
# Elastic Constant Matrix: (Units=GPa)
#
#
# Indices 1 2 3 4 5 6 
#
# 1 101.7791 28.4375 64.3876 0.0000 0.0000 0.0000
# 2 28.4375 57.0535 21.2062 0.0000 0.0000 0.0000
# 3 64.3876 21.2062 121.1443 0.0000 0.0000 0.0000
# 4 0.0000 0.0000 0.0000 19.9312 0.0000 0.0000
# 5 0.0000 0.0000 0.0000 0.0000 34.7855 0.0000
# 6 0.0000 0.0000 0.0000 0.0000 0.0000 20.8082
#
#
#
# Elastic Compliance Matrix: (Units=1/GPa)
#
#
# Indices 1 2 3 4 5 6 
#
# 1 0.016120 -0.005188 -0.007660 0.000000 0.000000 0.000000
# 2 -0.005188 0.020417 -0.000817 0.000000 0.000000 0.000000
# 3 -0.007660 -0.000817 0.012469 0.000000 0.000000 0.000000
# 4 0.000000 0.000000 0.000000 0.050172 0.000000 0.000000
# 5 0.000000 0.000000 0.000000 0.000000 0.028748 0.000000
# 6 0.000000 0.000000 0.000000 0.000000 0.000000 0.048058
#
#
# Mechanical properties :
#
#
# Convention : Reuss Voigt Hill
#
# Bulk Modulus (GPa) = 46.13118 56.44882 51.29000
# Shear Modulus (GPa) = 23.74862 26.16802 24.95832
#
# Velocity S-wave (km/s) = 3.42626 3.59655 3.51244
# Velocity P-wave (km/s) = 6.20125 6.71939 6.46551
#
# Compressibility (1/GPa) = 0.02167731
#
# Stress axis : x y z
#
# Youngs Moduli (GPa) = 62.03283 48.97935 80.20078
#
# Poissons Ratio (x) = 0.25410 0.61432
# Poissons Ratio (y) = 0.32182 0.06549
# Poissons Ratio (z) = 0.47516 0.03999
#
# Static dielectric constant tensor:
#      x y z
#    x 3.874210 0.000000 0.000000 
#    y 0.000000 3.562180 0.000000 
#    z 0.000000 0.000000 3.535450 
# 
# 
# High freq. dielectric constant tensor:
#      x y z
#    x 1.811360 0.000000 0.000000 
#    y 0.000000 1.777320 0.000000 
#    z 0.000000 0.000000 1.759510 
# 
# From -- ./inp_files/16099.got.cif
#   From: 2010.03.12/outbox.cif.g09.slc.cpg/sg74_9_cif.got.tgz:16099.got - 2010.04.16 15:46:19.
