data_PCOD8297646
_publ_section_title
;
Structure prediction by ZEFSAII (Michael W. Deem and Ramdas Pophale) SiO2 
 PCOD8297646
Probable space group: I M M A
;
_chemical_formula_sum "Si O2"
_cell_formula_units_Z 76
_cell_length_a 19.002997
_cell_length_b 7.520217
_cell_length_c 40.304906
_cell_angle_alpha 90.000000
_cell_angle_beta 90.000000
_cell_angle_gamma 90.000000
_cell_volume 5759.839542
_symmetry_space_group_name_H-M "I M M A"
_symmetry_group_IT_number 74
_symmetry_cell_setting 'orthorhombic'
loop_
_space_group_symop_operation_xyz
x,y,z
-x,1/2-y,z
x,-y,-z
-x,1/2+y,-z
-x,-y,-z
x,1/2+y,-z
-x,y,z
x,1/2-y,z
1/2+x,1/2+y,1/2+z
1/2-x,-y,1/2+z
1/2+x,1/2-y,1/2-z
1/2-x,y,1/2-z
1/2-x,1/2-y,1/2-z
1/2+x,y,1/2-z
1/2-x,1/2+y,1/2+z
1/2+x,-y,1/2+z
loop_
_atom_site_type_symbol
_atom_site_label
_atom_site_fract_x
_atom_site_fract_y
_atom_site_fract_z
Si Si1 0.000000 0.250000 0.698009
Si Si2 0.651301 0.543137 0.733477
Si Si3 0.583643 0.750000 0.085421
Si Si4 0.916632 0.553081 0.535795
Si Si5 0.641799 0.750000 0.157457
Si Si6 0.500000 0.541684 0.747168
Si Si7 0.714326 0.960952 0.802385
O O1 0.067150 0.250000 0.674934
O O2 0.000000 0.429457 0.719412
O O3 0.664391 0.750000 0.736013
O O4 0.569813 0.494043 0.725576
O O5 0.670664 0.472255 0.770105
O O6 0.704302 0.478124 0.704661
O O7 0.500000 0.750000 0.092811
O O8 0.608117 0.578613 0.064603
O O9 0.629531 0.750000 0.118422
O O10 0.884370 0.500000 0.500000
O O11 0.890614 0.750000 0.545390
O O12 0.000000 0.544208 0.532873
O O13 0.685611 0.572172 0.166574
O O14 0.500000 0.750000 0.757265
O O15 0.706516 0.750000 0.809774
#
# Coordination Sequence:
#
# PCOD8297646 Si02
#       7
#     4  16   8  16   8   8  16
#     4  12  22  28  38  58  74 106 134 156 214 252
#     4   8  15  28  45  60  73  96 132 169 206 242
#     4  10  20  30  38  58  82  96 130 164 191 240
#     4   9  15  26  44  60  73  95 119 152 196 231
#     4  12  22  30  41  54  80 111 130 163 204 247
#     4  10  18  30  44  60  78  94 125 178 217 243
#     4   9  18  31  43  56  75 102 134 163 198 250
#
# _framework density 13.194812000000001
#
# number of rings (size 3 to 8) (size 9 to 14) (size 15 to 20)
#    0.000    2.526    3.684    1.263    0.000    3.368 
#    0.000    0.000    0.000    0.000    0.000    0.000 
#    0.000    0.000    0.000    0.000    0.000    0.000 
#
# Total GULP energy -470833.921824 kJ/mol
# GULP energy per Si atom -12390.366364 kJ/mol
# Density = 1.316478 g / cm^3
# Si number density = 13.194812 Si / 1000 Ang^3
#
#
#
# Elastic Constant Matrix: (Units=GPa)
#
#
# Indices 1 2 3 4 5 6 
#
# 1 88.4128 27.9147 37.2190 0.0000 0.0000 0.0000
# 2 27.9147 88.9470 47.4366 0.0000 0.0000 0.0000
# 3 37.2190 47.4366 90.1905 0.0000 0.0000 0.0000
# 4 0.0000 0.0000 0.0000 18.1127 0.0000 0.0000
# 5 0.0000 0.0000 0.0000 0.0000 14.9688 0.0000
# 6 0.0000 0.0000 0.0000 0.0000 0.0000 11.5387
#
#
#
# Elastic Compliance Matrix: (Units=1/GPa)
#
#
# Indices 1 2 3 4 5 6 
#
# 1 0.013895 -0.001811 -0.004782 0.000000 0.000000 0.000000
# 2 -0.001811 0.015862 -0.007595 0.000000 0.000000 0.000000
# 3 -0.004782 -0.007595 0.017056 0.000000 0.000000 0.000000
# 4 0.000000 0.000000 0.000000 0.055210 0.000000 0.000000
# 5 0.000000 0.000000 0.000000 0.000000 0.066806 0.000000
# 6 0.000000 0.000000 0.000000 0.000000 0.000000 0.086665
#
#
# Mechanical properties :
#
#
# Convention : Reuss Voigt Hill
#
# Bulk Modulus (GPa) = 54.23873 54.74343 54.49108
# Shear Modulus (GPa) = 17.24054 19.25606 18.24830
#
# Velocity S-wave (km/s) = 3.61864 3.82431 3.72289
# Velocity P-wave (km/s) = 7.65864 7.81531 7.73737
#
# Compressibility (1/GPa) = 0.01843701
#
# Stress axis : x y z
#
# Youngs Moduli (GPa) = 71.96706 63.04537 58.63088
#
# Poissons Ratio (x) = 0.11415 0.28037
# Poissons Ratio (y) = 0.13030 0.44532
# Poissons Ratio (z) = 0.34414 0.47885
#
# Static dielectric constant tensor:
#      x y z
#    x 2.701380 0.000000 0.000000 
#    y 0.000000 2.771880 0.000000 
#    z 0.000000 0.000000 2.397140 
# 
# 
# High freq. dielectric constant tensor:
#      x y z
#    x 1.476000 0.000000 0.000000 
#    y 0.000000 1.517020 0.000000 
#    z 0.000000 0.000000 1.459390 
# 
# From -- ./inp_files/72924.got.cif
#   From: 2010.03.12/outbox.cif.g09.slc.cpg/sg74_37_cif.got.tgz:72924.got - 2010.04.16 15:46:19.
