data_PCOD8297099
_publ_section_title
;
Structure prediction by ZEFSAII (Michael W. Deem and Ramdas Pophale) SiO2 
 PCOD8297099
Probable space group: I M M A
;
_chemical_formula_sum "Si O2"
_cell_formula_units_Z 96
_cell_length_a 19.286318
_cell_length_b 18.187987
_cell_length_c 16.864769
_cell_angle_alpha 90.000000
_cell_angle_beta 90.000000
_cell_angle_gamma 90.000000
_cell_volume 5915.811882
_symmetry_space_group_name_H-M "I M M A"
_symmetry_group_IT_number 74
_symmetry_cell_setting 'orthorhombic'
loop_
_space_group_symop_operation_xyz
x,y,z
-x,1/2-y,z
x,-y,-z
-x,1/2+y,-z
-x,-y,-z
x,1/2+y,-z
-x,y,z
x,1/2-y,z
1/2+x,1/2+y,1/2+z
1/2-x,-y,1/2+z
1/2+x,1/2-y,1/2-z
1/2-x,y,1/2-z
1/2-x,1/2-y,1/2-z
1/2+x,y,1/2-z
1/2-x,1/2+y,1/2+z
1/2+x,-y,1/2+z
loop_
_atom_site_type_symbol
_atom_site_label
_atom_site_fract_x
_atom_site_fract_y
_atom_site_fract_z
Si Si1 0.789309 0.536245 0.823562
Si Si2 0.281249 0.583098 0.970088
Si Si3 0.423151 0.984727 0.244280
Si Si4 0.924309 0.447515 0.425166
Si Si5 0.749931 0.873744 0.363470
Si Si6 0.134824 0.169627 0.753921
O O1 0.750000 0.574610 0.750000
O O2 0.777078 0.587384 0.900812
O O3 0.870578 0.525309 0.804682
O O4 0.750960 0.458635 0.836978
O O5 0.358421 0.607041 0.938566
O O6 0.287638 0.500000 0.000000
O O7 0.256783 0.635468 0.041568
O O8 0.500000 0.009925 0.269534
O O9 0.420298 0.896175 0.251973
O O10 0.407287 0.005393 0.153451
O O11 0.930753 0.500000 0.500000
O O12 0.000000 0.407002 0.415601
O O13 0.815431 0.836267 0.322268
O O14 0.679631 0.834808 0.334910
O O15 0.098123 0.250000 0.751718
#
# Coordination Sequence:
#
# PCOD8297099 Si02
#       6
#    16  16  16  16  16  16
#     4  10  14  25  39  55  76 105 133 161 191 235
#     4   9  15  22  38  55  76 101 134 165 191 240
#     4  10  18  27  38  56  84 112 137 165 199 234
#     4   9  15  22  34  55  81 108 131 156 194 241
#     4   9  15  25  39  57  76 101 133 170 199 228
#     4  10  17  27  42  57  79 106 141 173 199 234
#
# _framework density 16.227696000000002
#
# number of rings (size 3 to 8) (size 9 to 14) (size 15 to 20)
#    0.000    2.500    5.000    3.000    0.000    0.333 
#    0.000    0.000    0.000   12.500    0.000    0.000 
#    0.000    2.667    0.000    0.000    0.000   12.000 
#
# Total GULP energy -594653.208694 kJ/mol
# GULP energy per Si atom -12388.608514 kJ/mol
# Density = 1.619076 g / cm^3
# Si number density = 16.227696 Si / 1000 Ang^3
#
#
#
# Elastic Constant Matrix: (Units=GPa)
#
#
# Indices 1 2 3 4 5 6 
#
# 1 96.1558 11.5269 59.7971 0.0000 0.0000 0.0000
# 2 11.5269 20.4410 26.8545 0.0000 0.0000 0.0000
# 3 59.7971 26.8545 120.2507 0.0000 0.0000 0.0000
# 4 0.0000 0.0000 0.0000 9.1993 0.0000 0.0000
# 5 0.0000 0.0000 0.0000 0.0000 20.5166 0.0000
# 6 0.0000 0.0000 0.0000 0.0000 0.0000 4.4034
#
#
#
# Elastic Compliance Matrix: (Units=1/GPa)
#
#
# Indices 1 2 3 4 5 6 
#
# 1 0.015108 0.001911 -0.007940 0.000000 0.000000 0.000000
# 2 0.001911 0.069476 -0.016466 0.000000 0.000000 0.000000
# 3 -0.007940 -0.016466 0.015941 0.000000 0.000000 0.000000
# 4 0.000000 0.000000 0.000000 0.108703 0.000000 0.000000
# 5 0.000000 0.000000 0.000000 0.000000 0.048741 0.000000
# 6 0.000000 0.000000 0.000000 0.000000 0.000000 0.227097
#
#
# Mechanical properties :
#
#
# Convention : Reuss Voigt Hill
#
# Bulk Modulus (GPa) = 18.00617 48.13384 33.07001
# Shear Modulus (GPa) = 9.11466 16.06848 12.59157
#
# Velocity S-wave (km/s) = 2.37254 3.15014 2.78858
# Velocity P-wave (km/s) = 4.31570 6.55417 5.54898
#
# Compressibility (1/GPa) = 0.05553650
#
# Stress axis : x y z
#
# Youngs Moduli (GPa) = 66.18940 14.39356 62.73043
#
# Poissons Ratio (x) = -0.02751 0.49806
# Poissons Ratio (y) = -0.12649 1.03290
# Poissons Ratio (z) = 0.52552 0.23700
#
# Static dielectric constant tensor:
#      x y z
#    x 3.252500 0.000000 0.000000 
#    y 0.000000 2.524330 0.000000 
#    z 0.000000 0.000000 3.349170 
# 
# 
# High freq. dielectric constant tensor:
#      x y z
#    x 1.620800 0.000000 0.000000 
#    y 0.000000 1.550260 0.000000 
#    z 0.000000 0.000000 1.626630 
# 
# From -- ./inp_files/35596.got.cif
#   From: 2010.03.12/outbox.cif.g09.slc.cpg/sg74_18_cif.got.tgz:35596.got - 2010.04.16 15:46:19.
