data_PCOD8297979
_publ_section_title
;
Structure prediction by ZEFSAII (Michael W. Deem and Ramdas Pophale) SiO2 
 PCOD8297979
Probable space group: I M M A
;
_chemical_formula_sum "Si O2"
_cell_formula_units_Z 80
_cell_length_a 16.142997
_cell_length_b 12.705696
_cell_length_c 22.557771
_cell_angle_alpha 90.000000
_cell_angle_beta 90.000000
_cell_angle_gamma 90.000000
_cell_volume 4626.779574
_symmetry_space_group_name_H-M "I M M A"
_symmetry_group_IT_number 74
_symmetry_cell_setting 'orthorhombic'
loop_
_space_group_symop_operation_xyz
x,y,z
-x,1/2-y,z
x,-y,-z
-x,1/2+y,-z
-x,-y,-z
x,1/2+y,-z
-x,y,z
x,1/2-y,z
1/2+x,1/2+y,1/2+z
1/2-x,-y,1/2+z
1/2+x,1/2-y,1/2-z
1/2-x,y,1/2-z
1/2-x,1/2-y,1/2-z
1/2+x,y,1/2-z
1/2-x,1/2+y,1/2+z
1/2+x,-y,1/2+z
loop_
_atom_site_type_symbol
_atom_site_label
_atom_site_fract_x
_atom_site_fract_y
_atom_site_fract_z
Si Si1 0.184533 0.953207 0.199239
Si Si2 0.094578 0.369698 0.132747
Si Si3 0.736013 0.133467 0.456923
Si Si4 0.595502 0.750000 0.113796
Si Si5 0.282151 0.077342 0.917614
Si Si6 0.349725 0.250000 0.752643
O O1 0.250000 0.985963 0.250000
O O2 0.232796 0.906309 0.142856
O O3 0.123254 0.858702 0.220540
O O4 0.130129 0.055176 0.184180
O O5 0.102067 0.250000 0.156049
O O6 0.145716 0.385092 0.071985
O O7 0.000000 0.399756 0.118806
O O8 0.769830 0.250000 0.441535
O O9 0.726489 0.119243 0.527549
O O10 0.799907 0.047344 0.429135
O O11 0.500000 0.750000 0.097365
O O12 0.633769 0.644386 0.084963
O O13 0.609503 0.750000 0.183506
O O14 0.250000 0.250000 0.750000
#
# Coordination Sequence:
#
# PCOD8297979 Si02
#       6
#    16  16  16   8  16   8
#     4  10  18  32  55  78 104 143 179 218 254 321
#     4   9  19  35  53  80 111 139 176 226 270 305
#     4   9  18  32  58  78 101 144 178 214 256 321
#     4  12  22  34  56  80 108 136 169 222 276 310
#     4  10  18  34  53  81 102 136 183 211 256 320
#     4  10  18  34  54  80 106 140 178 214 254 322
#
# _framework density 17.290645000000001
#
# number of rings (size 3 to 8) (size 9 to 14) (size 15 to 20)
#    0.000    2.200    5.000    0.000    0.000    1.200 
#    0.000   10.000    0.000    0.000    0.000    0.000 
#    0.000    0.000    0.000    0.000    0.000    0.000 
#
# Total GULP energy -495707.302649 kJ/mol
# GULP energy per Si atom -12392.682566 kJ/mol
# Density = 1.725129 g / cm^3
# Si number density = 17.290645 Si / 1000 Ang^3
#
#
#
# Elastic Constant Matrix: (Units=GPa)
#
#
# Indices 1 2 3 4 5 6 
#
# 1 95.8131 67.8684 44.3530 0.0000 0.0000 0.0000
# 2 67.8684 154.8484 57.0458 0.0000 0.0000 0.0000
# 3 44.3530 57.0458 113.3541 0.0000 0.0000 0.0000
# 4 0.0000 0.0000 0.0000 24.0844 0.0000 0.0000
# 5 0.0000 0.0000 0.0000 0.0000 18.0534 0.0000
# 6 0.0000 0.0000 0.0000 0.0000 0.0000 20.5778
#
#
#
# Elastic Compliance Matrix: (Units=1/GPa)
#
#
# Indices 1 2 3 4 5 6 
#
# 1 0.016126 -0.005823 -0.003379 0.000000 0.000000 0.000000
# 2 -0.005823 0.010030 -0.002769 0.000000 0.000000 0.000000
# 3 -0.003379 -0.002769 0.011538 0.000000 0.000000 0.000000
# 4 0.000000 0.000000 0.000000 0.041521 0.000000 0.000000
# 5 0.000000 0.000000 0.000000 0.000000 0.055391 0.000000
# 6 0.000000 0.000000 0.000000 0.000000 0.000000 0.048596
#
#
# Mechanical properties :
#
#
# Convention : Reuss Voigt Hill
#
# Bulk Modulus (GPa) = 72.72283 78.06110 75.39197
# Shear Modulus (GPa) = 23.61510 25.52634 24.57072
#
# Velocity S-wave (km/s) = 3.69965 3.84645 3.77376
# Velocity P-wave (km/s) = 7.77176 8.06048 7.91743
#
# Compressibility (1/GPa) = 0.01375084
#
# Stress axis : x y z
#
# Youngs Moduli (GPa) = 62.01203 99.69818 86.67099
#
# Poissons Ratio (x) = 0.58053 0.29289
# Poissons Ratio (y) = 0.36109 0.24003
# Poissons Ratio (z) = 0.20956 0.27610
#
# Static dielectric constant tensor:
#      x y z
#    x 2.891180 0.000000 0.000000 
#    y 0.000000 3.793690 0.000000 
#    z 0.000000 0.000000 3.297980 
# 
# 
# High freq. dielectric constant tensor:
#      x y z
#    x 1.620000 0.000000 0.000000 
#    y 0.000000 1.692040 0.000000 
#    z 0.000000 0.000000 1.670880 
# 
# From -- ./inp_files/52973.got.cif
#   From: 2010.03.12/outbox.cif.g09.slc.cpg/sg74_27_cif.got.tgz:52973.got - 2010.04.16 15:46:19.
