data_PCOD8297424
_publ_section_title
;
Structure prediction by ZEFSAII (Michael W. Deem and Ramdas Pophale) SiO2 
 PCOD8297424
Probable space group: I M M A
;
_chemical_formula_sum "Si O2"
_cell_formula_units_Z 80
_cell_length_a 9.273387
_cell_length_b 18.105376
_cell_length_c 36.636944
_cell_angle_alpha 90.000000
_cell_angle_beta 90.000000
_cell_angle_gamma 90.000000
_cell_volume 6151.275428
_symmetry_space_group_name_H-M "I M M A"
_symmetry_group_IT_number 74
_symmetry_cell_setting 'orthorhombic'
loop_
_space_group_symop_operation_xyz
x,y,z
-x,1/2-y,z
x,-y,-z
-x,1/2+y,-z
-x,-y,-z
x,1/2+y,-z
-x,y,z
x,1/2-y,z
1/2+x,1/2+y,1/2+z
1/2-x,-y,1/2+z
1/2+x,1/2-y,1/2-z
1/2-x,y,1/2-z
1/2-x,1/2-y,1/2-z
1/2+x,y,1/2-z
1/2-x,1/2+y,1/2+z
1/2+x,-y,1/2+z
loop_
_atom_site_type_symbol
_atom_site_label
_atom_site_fract_x
_atom_site_fract_y
_atom_site_fract_z
Si Si1 0.841628 0.662497 0.282974
Si Si2 0.166997 0.664858 0.999922
Si Si3 0.830925 0.079444 0.926428
Si Si4 0.336923 0.044499 0.037395
Si Si5 0.330666 0.164408 0.864345
O O1 0.849597 0.750000 0.278623
O O2 0.750000 0.627084 0.250000
O O3 0.780548 0.643808 0.323173
O O4 0.000000 0.628045 0.279214
O O5 0.211854 0.750000 0.999126
O O6 0.261150 0.623286 0.969346
O O7 0.000000 0.652734 0.990232
O O8 0.200860 0.634399 0.040141
O O9 0.765822 0.114902 0.890345
O O10 0.000000 0.065482 0.921173
O O11 0.753442 0.000858 0.932673
O O12 0.500000 0.056873 0.051418
O O13 0.335591 0.000000 0.000000
O O14 0.500000 0.147767 0.869947
O O15 0.298984 0.250000 0.872582
#
# Coordination Sequence:
#
# PCOD8297424 Si02
#       5
#    16  16  16  16  16
#     4   8  14  24  36  49  66  89 116 146 179 212
#     4   9  17  28  40  54  72  92 116 149 185 217
#     4  10  18  27  39  54  72  94 120 149 182 218
#     4   9  17  28  40  53  69  91 118 146 179 218
#     4   9  17  27  37  51  72  95 119 150 186 218
#
# _framework density 13.005433999999999
#
# number of rings (size 3 to 8) (size 9 to 14) (size 15 to 20)
#    0.000    3.000    0.000    3.000    0.000    5.600 
#    0.000    2.000    0.000    0.000    0.000    0.000 
#    0.000    0.000    0.000    0.000    0.000    1.000 
#
# Total GULP energy -495844.838837 kJ/mol
# GULP energy per Si atom -12396.120971 kJ/mol
# Density = 1.297583 g / cm^3
# Si number density = 13.005434 Si / 1000 Ang^3
#
#
#
# Elastic Constant Matrix: (Units=GPa)
#
#
# Indices 1 2 3 4 5 6 
#
# 1 82.7641 42.3091 53.1788 0.0000 0.0000 0.0000
# 2 42.3091 66.1822 38.3373 0.0000 0.0000 0.0000
# 3 53.1788 38.3373 81.9871 0.0000 0.0000 0.0000
# 4 0.0000 0.0000 0.0000 13.9402 0.0000 0.0000
# 5 0.0000 0.0000 0.0000 0.0000 23.7041 0.0000
# 6 0.0000 0.0000 0.0000 0.0000 0.0000 20.7380
#
#
#
# Elastic Compliance Matrix: (Units=1/GPa)
#
#
# Indices 1 2 3 4 5 6 
#
# 1 0.023829 -0.008613 -0.011428 0.000000 0.000000 0.000000
# 2 -0.008613 0.023836 -0.005559 0.000000 0.000000 0.000000
# 3 -0.011428 -0.005559 0.022209 0.000000 0.000000 0.000000
# 4 0.000000 0.000000 0.000000 0.071735 0.000000 0.000000
# 5 0.000000 0.000000 0.000000 0.000000 0.042187 0.000000
# 6 0.000000 0.000000 0.000000 0.000000 0.000000 0.048221
#
#
# Mechanical properties :
#
#
# Convention : Reuss Voigt Hill
#
# Bulk Modulus (GPa) = 53.55373 55.39820 54.47596
# Shear Modulus (GPa) = 17.27458 18.15032 17.71245
#
# Velocity S-wave (km/s) = 3.64848 3.73982 3.69443
# Velocity P-wave (km/s) = 7.68218 7.83179 7.75735
#
# Compressibility (1/GPa) = 0.01867284
#
# Stress axis : x y z
#
# Youngs Moduli (GPa) = 41.96613 41.95282 45.02640
#
# Poissons Ratio (x) = 0.36135 0.51458
# Poissons Ratio (y) = 0.36146 0.25031
# Poissons Ratio (z) = 0.47960 0.23322
#
# Static dielectric constant tensor:
#      x y z
#    x 2.802180 0.000000 0.000000 
#    y 0.000000 2.417640 0.000000 
#    z 0.000000 0.000000 2.536350 
# 
# 
# High freq. dielectric constant tensor:
#      x y z
#    x 1.506390 0.000000 0.000000 
#    y 0.000000 1.456930 0.000000 
#    z 0.000000 0.000000 1.473040 
# 
# From -- ./inp_files/70131.got.cif
#   From: 2010.03.12/outbox.cif.g09.slc.cpg/sg74_36_cif.got.tgz:70131.got - 2010.04.16 15:46:19.
