data_PCOD8297109
_publ_section_title
;
Structure prediction by ZEFSAII (Michael W. Deem and Ramdas Pophale) SiO2 
 PCOD8297109
Probable space group: I M M A
;
_chemical_formula_sum "Si O2"
_cell_formula_units_Z 104
_cell_length_a 23.560157
_cell_length_b 12.514866
_cell_length_c 22.902789
_cell_angle_alpha 90.000000
_cell_angle_beta 90.000000
_cell_angle_gamma 90.000000
_cell_volume 6752.937901
_symmetry_space_group_name_H-M "I M M A"
_symmetry_group_IT_number 74
_symmetry_cell_setting 'orthorhombic'
loop_
_space_group_symop_operation_xyz
x,y,z
-x,1/2-y,z
x,-y,-z
-x,1/2+y,-z
-x,-y,-z
x,1/2+y,-z
-x,y,z
x,1/2-y,z
1/2+x,1/2+y,1/2+z
1/2-x,-y,1/2+z
1/2+x,1/2-y,1/2-z
1/2-x,y,1/2-z
1/2-x,1/2-y,1/2-z
1/2+x,y,1/2-z
1/2-x,1/2+y,1/2+z
1/2+x,-y,1/2+z
loop_
_atom_site_type_symbol
_atom_site_label
_atom_site_fract_x
_atom_site_fract_y
_atom_site_fract_z
Si Si1 0.379966 0.070413 0.920937
Si Si2 0.000000 0.623693 0.255162
Si Si3 0.378491 0.624564 0.283058
Si Si4 0.194093 0.868610 0.321025
Si Si5 0.196569 0.123945 0.889054
Si Si6 0.674777 0.869442 0.959931
Si Si7 0.500000 0.876303 0.110634
Si Si8 0.276430 0.000000 0.500000
O O1 0.359000 0.135579 0.864938
O O2 0.447343 0.072363 0.922953
O O3 0.358701 0.947554 0.916028
O O4 0.355703 0.128269 0.977638
O O5 0.057914 0.576439 0.225672
O O6 0.000000 0.750000 0.247377
O O7 0.000000 0.588390 0.322189
O O8 0.380909 0.750000 0.268464
O O9 0.330548 0.575506 0.238183
O O10 0.358872 0.603014 0.349325
O O11 0.214602 0.750000 0.304614
O O12 0.248231 0.922397 0.353619
O O13 0.204338 0.250000 0.903316
O O14 0.186936 0.058609 0.949374
O O15 0.674674 0.750000 0.934144
O O16 0.738906 0.909306 0.968664
O O17 0.500000 0.750000 0.103740
#
# Coordination Sequence:
#
# PCOD8297109 Si02
#       8
#    16   8  16  16  16  16   8   8
#     4  10  19  28  43  63  84 118 154 180 217 255
#     4   9  16  26  41  63  93 121 137 158 211 273
#     4   9  17  26  41  66  94 120 139 167 216 268
#     4  10  15  25  42  65  93 115 138 172 215 263
#     4  10  18  28  43  67  94 114 142 179 215 263
#     4  10  19  31  43  58  85 119 154 188 216 248
#     4  11  18  27  44  64  91 119 150 181 206 259
#     4  10  18  28  46  64  84 116 146 172 222 270
#
# _framework density 15.400705
#
# number of rings (size 3 to 8) (size 9 to 14) (size 15 to 20)
#    0.000    2.308    4.615    2.308    0.000    3.077 
#    0.000    1.154    0.000    0.462    0.000    3.231 
#    0.000    0.000    0.000    0.000    0.000    0.000 
#
# Total GULP energy -644333.356881 kJ/mol
# GULP energy per Si atom -12391.026094 kJ/mol
# Density = 1.536565 g / cm^3
# Si number density = 15.400705 Si / 1000 Ang^3
#
#
#
# Elastic Constant Matrix: (Units=GPa)
#
#
# Indices 1 2 3 4 5 6 
#
# 1 41.4401 13.9763 32.0328 0.0000 0.0000 0.0000
# 2 13.9763 54.1062 18.0318 0.0000 0.0000 0.0000
# 3 32.0328 18.0318 85.2882 0.0000 0.0000 0.0000
# 4 0.0000 0.0000 0.0000 16.3830 0.0000 0.0000
# 5 0.0000 0.0000 0.0000 0.0000 9.0441 0.0000
# 6 0.0000 0.0000 0.0000 0.0000 0.0000 10.8449
#
#
#
# Elastic Compliance Matrix: (Units=1/GPa)
#
#
# Indices 1 2 3 4 5 6 
#
# 1 0.035239 -0.005048 -0.012168 0.000000 0.000000 0.000000
# 2 -0.005048 0.020606 -0.002461 0.000000 0.000000 0.000000
# 3 -0.012168 -0.002461 0.016815 0.000000 0.000000 0.000000
# 4 0.000000 0.000000 0.000000 0.061039 0.000000 0.000000
# 5 0.000000 0.000000 0.000000 0.000000 0.110570 0.000000
# 6 0.000000 0.000000 0.000000 0.000000 0.000000 0.092209
#
#
# Mechanical properties :
#
#
# Convention : Reuss Voigt Hill
#
# Bulk Modulus (GPa) = 30.02295 34.32407 32.17351
# Shear Modulus (GPa) = 12.92209 15.04063 13.98136
#
# Velocity S-wave (km/s) = 2.89979 3.12848 3.01631
# Velocity P-wave (km/s) = 5.54514 5.94858 5.75040
#
# Compressibility (1/GPa) = 0.03330785
#
# Stress axis : x y z
#
# Youngs Moduli (GPa) = 28.37729 48.52928 59.46931
#
# Poissons Ratio (x) = 0.24495 0.72363
# Poissons Ratio (y) = 0.14324 0.14634
# Poissons Ratio (z) = 0.34530 0.11942
#
# Static dielectric constant tensor:
#      x y z
#    x 2.989900 0.000000 0.000000 
#    y 0.000000 2.634030 0.000000 
#    z 0.000000 0.000000 2.870850 
# 
# 
# High freq. dielectric constant tensor:
#      x y z
#    x 1.582560 0.000000 0.000000 
#    y 0.000000 1.537450 0.000000 
#    z 0.000000 0.000000 1.580300 
# 
# From -- ./inp_files/62147.got.cif
#   From: 2010.03.12/outbox.cif.g09.slc.cpg/sg74_32_cif.got.tgz:62147.got - 2010.04.16 15:46:19.
