data_PCOD8297416
_publ_section_title
;
Structure prediction by ZEFSAII (Michael W. Deem and Ramdas Pophale) SiO2 
 PCOD8297416
Probable space group: I M M A
;
_chemical_formula_sum "Si O2"
_cell_formula_units_Z 88
_cell_length_a 16.543573
_cell_length_b 25.736240
_cell_length_c 12.351821
_cell_angle_alpha 90.000000
_cell_angle_beta 90.000000
_cell_angle_gamma 90.000000
_cell_volume 5259.026986
_symmetry_space_group_name_H-M "I M M A"
_symmetry_group_IT_number 74
_symmetry_cell_setting 'orthorhombic'
loop_
_space_group_symop_operation_xyz
x,y,z
-x,1/2-y,z
x,-y,-z
-x,1/2+y,-z
-x,-y,-z
x,1/2+y,-z
-x,y,z
x,1/2-y,z
1/2+x,1/2+y,1/2+z
1/2-x,-y,1/2+z
1/2+x,1/2-y,1/2-z
1/2-x,y,1/2-z
1/2-x,1/2-y,1/2-z
1/2+x,y,1/2-z
1/2-x,1/2+y,1/2+z
1/2+x,-y,1/2+z
loop_
_atom_site_type_symbol
_atom_site_label
_atom_site_fract_x
_atom_site_fract_y
_atom_site_fract_z
Si Si1 0.096756 0.032988 0.791556
Si Si2 0.191058 0.552440 0.657964
Si Si3 0.908080 0.250000 0.479472
Si Si4 0.594544 0.858037 0.195322
Si Si5 0.592569 0.638195 0.952606
Si Si6 0.692945 0.500000 0.500000
Si Si7 0.339376 0.750000 0.208759
O O1 0.120716 0.092299 0.765329
O O2 0.000000 0.023672 0.792076
O O3 0.138057 0.996476 0.700446
O O4 0.134160 0.024090 0.909707
O O5 0.250000 0.572929 0.750000
O O6 0.133924 0.600054 0.630965
O O7 0.246049 0.540886 0.553751
O O8 0.896015 0.302333 0.409092
O O9 0.845960 0.250000 0.579041
O O10 0.000000 0.250000 0.528422
O O11 0.500000 0.855148 0.184205
O O12 0.622147 0.804136 0.252343
O O13 0.629979 0.864779 0.073728
O O14 0.500000 0.620996 0.954705
O O15 0.250000 0.750000 0.250000
#
# Coordination Sequence:
#
# PCOD8297416 Si02
#       7
#    16  16   8  16  16   8   8
#     4  10  20  34  51  70  92 127 166 193 226 281
#     4  10  20  31  46  70  96 121 151 194 238 275
#     4   8  16  30  47  65  88 119 152 185 227 272
#     4   9  18  31  48  68  92 121 156 193 226 267
#     4   9  16  30  50  69  91 120 154 193 231 274
#     4  10  21  34  47  66 100 128 148 188 243 286
#     4  10  18  26  42  69  96 121 146 181 229 280
#
# _framework density 16.733132999999999
#
# number of rings (size 3 to 8) (size 9 to 14) (size 15 to 20)
#    0.000    2.545    0.000    3.818    0.000    5.091 
#    0.000    4.091    0.000    0.000    0.000    1.273 
#    0.000   11.636    0.000    0.000    0.000    0.000 
#
# Total GULP energy -545172.132263 kJ/mol
# GULP energy per Si atom -12390.275733 kJ/mol
# Density = 1.669505 g / cm^3
# Si number density = 16.733133 Si / 1000 Ang^3
#
#
#
# Elastic Constant Matrix: (Units=GPa)
#
#
# Indices 1 2 3 4 5 6 
#
# 1 75.2488 59.5711 40.6821 0.0000 0.0000 0.0000
# 2 59.5711 158.7544 58.7338 -0.0001 -0.0001 -0.0002
# 3 40.6821 58.7338 68.8773 0.0000 -0.0003 -0.0005
# 4 0.0000 -0.0001 0.0000 19.9703 -0.0001 -0.0003
# 5 0.0000 -0.0001 -0.0003 -0.0001 17.5812 -0.0002
# 6 0.0000 -0.0002 -0.0005 -0.0003 -0.0002 17.9683
#
#
#
# Elastic Compliance Matrix: (Units=1/GPa)
#
#
# Indices 1 2 3 4 5 6 
#
# 1 0.021967 -0.005029 -0.008686 0.000000 0.000000 0.000000
# 2 -0.005029 0.010354 -0.005858 0.000000 0.000000 0.000000
# 3 -0.008686 -0.005858 0.024644 0.000000 0.000000 0.000001
# 4 0.000000 0.000000 0.000000 0.050074 0.000000 0.000001
# 5 0.000000 0.000000 0.000000 0.000000 0.056879 0.000001
# 6 0.000000 0.000000 0.000001 0.000001 0.000001 0.055653
#
#
# Mechanical properties :
#
#
# Convention : Reuss Voigt Hill
#
# Bulk Modulus (GPa) = 56.12396 68.98385 62.55390
# Shear Modulus (GPa) = 18.89235 20.69687 19.79461
#
# Velocity S-wave (km/s) = 3.36376 3.52074 3.44315
# Velocity P-wave (km/s) = 6.97854 7.60545 7.29873
#
# Compressibility (1/GPa) = 0.01781770
#
# Stress axis : x y z
#
# Youngs Moduli (GPa) = 45.52374 96.58463 40.57714
#
# Poissons Ratio (x) = 0.48575 0.35245
# Poissons Ratio (y) = 0.22895 0.23771
# Poissons Ratio (z) = 0.39541 0.56582
#
# Static dielectric constant tensor:
#      x y z
#    x 3.139220 0.000000 0.000000 
#    y 0.000000 4.642740 0.000000 
#    z 0.000000 0.000000 3.599720 
# 
# 
# High freq. dielectric constant tensor:
#      x y z
#    x 1.646060 0.000000 0.000000 
#    y 0.000000 1.656810 0.000000 
#    z 0.000000 0.000000 1.615530 
# 
# From -- ./inp_files/22235.got.cif
#   From: 2010.03.12/outbox.cif.g09.slc.cpg/sg74_12_cif.got.tgz:22235.got - 2010.04.16 15:46:19.
