data_PCOD8297810
_publ_section_title
;
Structure prediction by ZEFSAII (Michael W. Deem and Ramdas Pophale) SiO2 
 PCOD8297810
Probable space group: I M M A
;
_chemical_formula_sum "Si O2"
_cell_formula_units_Z 64
_cell_length_a 20.962401
_cell_length_b 8.629596
_cell_length_c 19.726598
_cell_angle_alpha 90.000000
_cell_angle_beta 90.000000
_cell_angle_gamma 90.000000
_cell_volume 3568.483421
_symmetry_space_group_name_H-M "I M M A"
_symmetry_group_IT_number 74
_symmetry_cell_setting 'orthorhombic'
loop_
_space_group_symop_operation_xyz
x,y,z
-x,1/2-y,z
x,-y,-z
-x,1/2+y,-z
-x,-y,-z
x,1/2+y,-z
-x,y,z
x,1/2-y,z
1/2+x,1/2+y,1/2+z
1/2-x,-y,1/2+z
1/2+x,1/2-y,1/2-z
1/2-x,y,1/2-z
1/2-x,1/2-y,1/2-z
1/2+x,y,1/2-z
1/2-x,1/2+y,1/2+z
1/2+x,-y,1/2+z
loop_
_atom_site_type_symbol
_atom_site_label
_atom_site_fract_x
_atom_site_fract_y
_atom_site_fract_z
Si Si1 0.627619 0.566668 0.069402
Si Si2 0.929896 0.933770 0.291423
Si Si3 0.310983 0.566031 0.294338
Si Si4 0.232649 0.566863 0.929838
O O1 0.634021 0.750000 0.064034
O O2 0.583020 0.514057 0.131312
O O3 0.697193 0.498798 0.082629
O O4 0.597733 0.500000 0.000000
O O5 0.928327 0.750000 0.288016
O O6 0.874993 0.997732 0.241949
O O7 0.000000 0.996610 0.269896
O O8 0.311227 0.750000 0.303304
O O9 0.250000 0.513892 0.250000
O O10 0.311232 0.486638 0.367655
O O11 0.235017 0.750000 0.934575
O O12 0.203929 0.500000 0.000000
#
# Coordination Sequence:
#
# PCOD8297810 Si02
#       4
#    16  16  16  16
#     4  10  18  31  49  73 104 139 177 210 251 299
#     4   9  18  32  51  74 103 139 175 208 251 308
#     4  10  18  33  55  78 103 135 172 212 257 302
#     4  11  21  33  52  78 106 134 171 214 262 305
#
# _framework density 17.934791000000001
#
# number of rings (size 3 to 8) (size 9 to 14) (size 15 to 20)
#    0.000    2.000    2.500    4.500    0.000    1.000 
#    0.000    0.000    0.000    6.750    0.000    0.000 
#    0.000    0.000    0.000    0.000    0.000    0.000 
#
# Total GULP energy -396745.931098 kJ/mol
# GULP energy per Si atom -12398.310347 kJ/mol
# Density = 1.789397 g / cm^3
# Si number density = 17.934791 Si / 1000 Ang^3
#
#
#
# Elastic Constant Matrix: (Units=GPa)
#
#
# Indices 1 2 3 4 5 6 
#
# 1 119.4361 23.5061 75.3852 0.0000 0.0000 0.0000
# 2 23.5061 74.5552 39.9467 0.0000 0.0000 0.0000
# 3 75.3852 39.9467 146.6686 0.0000 0.0000 0.0000
# 4 0.0000 0.0000 0.0000 32.1011 0.0000 0.0000
# 5 0.0000 0.0000 0.0000 0.0000 25.7884 0.0000
# 6 0.0000 0.0000 0.0000 0.0000 0.0000 7.6232
#
#
#
# Elastic Compliance Matrix: (Units=1/GPa)
#
#
# Indices 1 2 3 4 5 6 
#
# 1 0.012415 -0.000580 -0.006223 0.000000 0.000000 0.000000
# 2 -0.000580 0.015732 -0.003987 0.000000 0.000000 0.000000
# 3 -0.006223 -0.003987 0.011102 0.000000 0.000000 0.000000
# 4 0.000000 0.000000 0.000000 0.031152 0.000000 0.000000
# 5 0.000000 0.000000 0.000000 0.000000 0.038777 0.000000
# 6 0.000000 0.000000 0.000000 0.000000 0.000000 0.131178
#
#
# Mechanical properties :
#
#
# Convention : Reuss Voigt Hill
#
# Bulk Modulus (GPa) = 56.59384 68.70399 62.64892
# Shear Modulus (GPa) = 18.66894 26.55734 22.61314
#
# Velocity S-wave (km/s) = 3.22985 3.85225 3.55470
# Velocity P-wave (km/s) = 6.74782 7.62741 7.20106
#
# Compressibility (1/GPa) = 0.01766977
#
# Stress axis : x y z
#
# Youngs Moduli (GPa) = 80.55045 63.56566 90.07060
#
# Poissons Ratio (x) = 0.03686 0.56051
# Poissons Ratio (y) = 0.04671 0.35908
# Poissons Ratio (z) = 0.50126 0.25342
#
# Static dielectric constant tensor:
#      x y z
#    x 3.369570 0.000000 0.000000 
#    y 0.000000 3.116410 0.000000 
#    z 0.000000 0.000000 3.626820 
# 
# 
# High freq. dielectric constant tensor:
#      x y z
#    x 1.668110 0.000000 0.000000 
#    y 0.000000 1.677780 0.000000 
#    z 0.000000 0.000000 1.704460 
# 
# From -- ./inp_files/39073.got.cif
#   From: 2010.03.12/outbox.cif.g09.slc.cpg/sg74_20_cif.got.tgz:39073.got - 2010.04.16 15:46:19.
