data_PCOD8297690
_publ_section_title
;
Structure prediction by ZEFSAII (Michael W. Deem and Ramdas Pophale) SiO2 
 PCOD8297690
Probable space group: I M M A
;
_chemical_formula_sum "Si O2"
_cell_formula_units_Z 72
_cell_length_a 16.418352
_cell_length_b 8.947114
_cell_length_c 28.177931
_cell_angle_alpha 90.000000
_cell_angle_beta 90.000000
_cell_angle_gamma 90.000000
_cell_volume 4139.249783
_symmetry_space_group_name_H-M "I M M A"
_symmetry_group_IT_number 74
_symmetry_cell_setting 'orthorhombic'
loop_
_space_group_symop_operation_xyz
x,y,z
-x,1/2-y,z
x,-y,-z
-x,1/2+y,-z
-x,-y,-z
x,1/2+y,-z
-x,y,z
x,1/2-y,z
1/2+x,1/2+y,1/2+z
1/2-x,-y,1/2+z
1/2+x,1/2-y,1/2-z
1/2-x,y,1/2-z
1/2-x,1/2-y,1/2-z
1/2+x,y,1/2-z
1/2-x,1/2+y,1/2+z
1/2+x,-y,1/2+z
loop_
_atom_site_type_symbol
_atom_site_label
_atom_site_fract_x
_atom_site_fract_y
_atom_site_fract_z
Si Si1 0.000000 0.570715 0.551977
Si Si2 0.334124 0.583448 0.777748
Si Si3 0.589918 0.074930 0.693996
Si Si4 0.750897 0.077278 0.857616
Si Si5 0.161187 0.575056 0.450007
O O1 0.000000 0.500000 0.500000
O O2 0.917143 0.505333 0.574743
O O3 0.000000 0.750000 0.552462
O O4 0.366424 0.750000 0.787260
O O5 0.250000 0.583181 0.750000
O O6 0.400104 0.498549 0.745739
O O7 0.320016 0.505043 0.828261
O O8 0.500000 0.033004 0.674224
O O9 0.598501 0.250000 0.701794
O O10 0.658465 0.018311 0.656431
O O11 0.743025 0.250000 0.844320
O O12 0.736190 0.051140 0.913662
O O13 0.185273 0.500000 0.500000
O O14 0.142573 0.750000 0.458404
#
# Coordination Sequence:
#
# PCOD8297690 Si02
#       5
#     8  16  16  16  16
#     4  10  18  30  48  68  92 120 152 190 234 282
#     4   9  17  29  46  68  94 122 152 191 237 281
#     4   9  17  31  51  72  95 126 162 198 236 279
#     4   9  18  32  50  71  95 126 163 198 234 281
#     4  10  19  32  50  71  96 126 160 198 237 282
#
# _framework density 17.394456000000002
#
# number of rings (size 3 to 8) (size 9 to 14) (size 15 to 20)
#    0.000    2.667    0.000    3.667    0.000    4.889 
#    2.000    0.000    0.000    0.667    0.000    0.000 
#    0.000    0.000    0.000    0.000    0.000    0.889 
#
# Total GULP energy -446140.662494 kJ/mol
# GULP energy per Si atom -12392.796180 kJ/mol
# Density = 1.735487 g / cm^3
# Si number density = 17.394456 Si / 1000 Ang^3
#
#
#
# Elastic Constant Matrix: (Units=GPa)
#
#
# Indices 1 2 3 4 5 6 
#
# 1 102.1536 41.7254 53.9013 0.0000 0.0000 0.0000
# 2 41.7254 86.3472 40.5851 0.0000 0.0000 0.0000
# 3 53.9013 40.5851 94.5686 0.0000 0.0000 0.0000
# 4 0.0000 0.0000 0.0000 23.6538 0.0000 0.0000
# 5 0.0000 0.0000 0.0000 0.0000 22.3499 0.0000
# 6 0.0000 0.0000 0.0000 0.0000 0.0000 16.3158
#
#
#
# Elastic Compliance Matrix: (Units=1/GPa)
#
#
# Indices 1 2 3 4 5 6 
#
# 1 0.015057 -0.004061 -0.006839 0.000000 0.000000 0.000000
# 2 -0.004061 0.015603 -0.004381 0.000000 0.000000 0.000000
# 3 -0.006839 -0.004381 0.016353 0.000000 0.000000 0.000000
# 4 0.000000 0.000000 0.000000 0.042277 0.000000 0.000000
# 5 0.000000 0.000000 0.000000 0.000000 0.044743 0.000000
# 6 0.000000 0.000000 0.000000 0.000000 0.000000 0.061290
#
#
# Mechanical properties :
#
#
# Convention : Reuss Voigt Hill
#
# Bulk Modulus (GPa) = 60.79358 61.72144 61.25751
# Shear Modulus (GPa) = 21.61059 22.25440 21.93250
#
# Velocity S-wave (km/s) = 3.52857 3.58075 3.55475
# Velocity P-wave (km/s) = 7.18519 7.25645 7.22091
#
# Compressibility (1/GPa) = 0.01644911
#
# Stress axis : x y z
#
# Youngs Moduli (GPa) = 66.41619 64.09008 61.15254
#
# Poissons Ratio (x) = 0.26029 0.41821
# Poissons Ratio (y) = 0.26974 0.26793
# Poissons Ratio (z) = 0.45421 0.28080
#
# Static dielectric constant tensor:
#      x y z
#    x 3.617980 0.000000 0.000000 
#    y 0.000000 3.372300 0.000000 
#    z 0.000000 0.000000 3.076260 
# 
# 
# High freq. dielectric constant tensor:
#      x y z
#    x 1.657420 0.000000 0.000000 
#    y 0.000000 1.679490 0.000000 
#    z 0.000000 0.000000 1.648720 
# 
# From -- ./inp_files/56704.got.cif
#   From: 2010.03.12/outbox.cif.g09.slc.cpg/sg74_29_cif.got.tgz:56704.got - 2010.04.16 15:46:19.
