data_PCOD8297420
_publ_section_title
;
Structure prediction by ZEFSAII (Michael W. Deem and Ramdas Pophale) SiO2 
 PCOD8297420
Probable space group: I M M A
;
_chemical_formula_sum "Si O2"
_cell_formula_units_Z 80
_cell_length_a 18.476589
_cell_length_b 10.688891
_cell_length_c 20.347212
_cell_angle_alpha 90.000000
_cell_angle_beta 90.000000
_cell_angle_gamma 90.000000
_cell_volume 4018.457290
_symmetry_space_group_name_H-M "I M M A"
_symmetry_group_IT_number 74
_symmetry_cell_setting 'orthorhombic'
loop_
_space_group_symop_operation_xyz
x,y,z
-x,1/2-y,z
x,-y,-z
-x,1/2+y,-z
-x,-y,-z
x,1/2+y,-z
-x,y,z
x,1/2-y,z
1/2+x,1/2+y,1/2+z
1/2-x,-y,1/2+z
1/2+x,1/2-y,1/2-z
1/2-x,y,1/2-z
1/2-x,1/2-y,1/2-z
1/2+x,y,1/2-z
1/2-x,1/2+y,1/2+z
1/2+x,-y,1/2+z
loop_
_atom_site_type_symbol
_atom_site_label
_atom_site_fract_x
_atom_site_fract_y
_atom_site_fract_z
Si Si1 0.335819 0.250000 0.757324
Si Si2 0.226123 0.894415 0.553085
Si Si3 0.291014 0.108294 0.311855
Si Si4 0.081324 0.750000 0.386914
Si Si5 0.417504 0.007067 0.744235
Si Si6 0.420167 0.021725 0.099968
O O1 0.250000 0.250000 0.750000
O O2 0.355341 0.250000 0.833918
O O3 0.372999 0.130487 0.723559
O O4 0.247453 0.750000 0.533184
O O5 0.267811 0.946434 0.617657
O O6 0.247043 0.000000 0.500000
O O7 0.139942 0.892066 0.567032
O O8 0.264397 0.250000 0.314328
O O9 0.250000 0.040457 0.250000
O O10 0.377265 0.100251 0.298224
O O11 0.089387 0.878571 0.428143
O O12 0.000000 0.750000 0.353259
O O13 0.500000 0.016547 0.720785
O O14 0.412114 0.978756 0.821452
O O15 0.500000 0.072407 0.080679
#
# Coordination Sequence:
#
# PCOD8297420 Si02
#       6
#     8  16  16   8  16  16
#     4  10  18  26  46  82 126 162 188 228 291 354
#     4  11  25  42  59  84 123 162 203 252 299 363
#     4  10  20  38  61  87 117 149 196 252 309 358
#     4   8  16  30  48  76 116 158 195 238 284 342
#     4  10  19  33  55  89 124 153 196 249 304 363
#     4   9  18  33  56  83 119 160 200 244 296 358
#
# _framework density 19.908137
#
# number of rings (size 3 to 8) (size 9 to 14) (size 15 to 20)
#    0.000    2.200    2.000    2.700    4.200    1.200 
#    1.800    2.000    0.000    0.600    0.000    0.000 
#    0.000    0.000    0.000    0.000    0.000    0.000 
#
# Total GULP energy -495598.441780 kJ/mol
# GULP energy per Si atom -12389.961044 kJ/mol
# Density = 1.986283 g / cm^3
# Si number density = 19.908137 Si / 1000 Ang^3
#
#
#
# Elastic Constant Matrix: (Units=GPa)
#
#
# Indices 1 2 3 4 5 6 
#
# 1 124.3365 21.2996 45.2628 0.0000 0.0000 0.0000
# 2 21.2996 64.3921 36.3188 0.0000 0.0000 0.0000
# 3 45.2628 36.3188 95.0808 0.0000 0.0000 0.0000
# 4 0.0000 0.0000 0.0000 24.0057 0.0000 0.0000
# 5 0.0000 0.0000 0.0000 0.0000 18.1806 0.0000
# 6 0.0000 0.0000 0.0000 0.0000 0.0000 27.8891
#
#
#
# Elastic Compliance Matrix: (Units=1/GPa)
#
#
# Indices 1 2 3 4 5 6 
#
# 1 0.009759 -0.000775 -0.004350 0.000000 0.000000 0.000000
# 2 -0.000775 0.019856 -0.007216 0.000000 0.000000 0.000000
# 3 -0.004350 -0.007216 0.015344 0.000000 0.000000 0.000000
# 4 0.000000 0.000000 0.000000 0.041657 0.000000 0.000000
# 5 0.000000 0.000000 0.000000 0.000000 0.055004 0.000000
# 6 0.000000 0.000000 0.000000 0.000000 0.000000 0.035856
#
#
# Mechanical properties :
#
#
# Convention : Reuss Voigt Hill
#
# Bulk Modulus (GPa) = 49.31267 54.39687 51.85477
# Shear Modulus (GPa) = 23.93307 26.07695 25.00501
#
# Velocity S-wave (km/s) = 3.47100 3.62313 3.54788
# Velocity P-wave (km/s) = 6.39435 6.69970 6.54881
#
# Compressibility (1/GPa) = 0.02027877
#
# Stress axis : x y z
#
# Youngs Moduli (GPa) = 102.47106 50.36268 65.17071
#
# Poissons Ratio (x) = 0.03901 0.28348
# Poissons Ratio (y) = 0.07938 0.47026
# Poissons Ratio (z) = 0.44572 0.36341
#
# Static dielectric constant tensor:
#      x y z
#    x 3.610360 0.000000 0.000000 
#    y 0.000000 3.767630 0.000000 
#    z 0.000000 0.000000 3.391610 
# 
# 
# High freq. dielectric constant tensor:
#      x y z
#    x 1.767160 0.000000 0.000000 
#    y 0.000000 1.780740 0.000000 
#    z 0.000000 0.000000 1.738600 
# 
# From -- ./inp_files/52800.got.cif
#   From: 2010.03.12/outbox.cif.g09.slc.cpg/sg74_27_cif.got.tgz:52800.got - 2010.04.16 15:46:19.
