data_PCOD8297947
_publ_section_title
;
Structure prediction by ZEFSAII (Michael W. Deem and Ramdas Pophale) SiO2 
 PCOD8297947
Probable space group: I M M A
;
_chemical_formula_sum "Si O2"
_cell_formula_units_Z 72
_cell_length_a 8.698813
_cell_length_b 15.644536
_cell_length_c 28.444661
_cell_angle_alpha 90.000000
_cell_angle_beta 90.000000
_cell_angle_gamma 90.000000
_cell_volume 3871.002431
_symmetry_space_group_name_H-M "I M M A"
_symmetry_group_IT_number 74
_symmetry_cell_setting 'orthorhombic'
loop_
_space_group_symop_operation_xyz
x,y,z
-x,1/2-y,z
x,-y,-z
-x,1/2+y,-z
-x,-y,-z
x,1/2+y,-z
-x,y,z
x,1/2-y,z
1/2+x,1/2+y,1/2+z
1/2-x,-y,1/2+z
1/2+x,1/2-y,1/2-z
1/2-x,y,1/2-z
1/2-x,1/2-y,1/2-z
1/2+x,y,1/2-z
1/2-x,1/2+y,1/2+z
1/2+x,-y,1/2+z
loop_
_atom_site_type_symbol
_atom_site_label
_atom_site_fract_x
_atom_site_fract_y
_atom_site_fract_z
Si Si1 0.180262 0.077432 0.469315
Si Si2 0.819000 0.425942 0.360603
Si Si3 0.828587 0.250000 0.028731
Si Si4 0.325370 0.250000 0.359539
Si Si5 0.318121 0.422774 0.698407
Si Si6 0.816941 0.250000 0.697893
O O1 0.225578 0.063857 0.415171
O O2 0.246552 0.165222 0.490375
O O3 0.000000 0.083125 0.475523
O O4 0.249401 0.000000 0.500000
O O5 0.764039 0.333809 0.341195
O O6 0.725291 0.497571 0.333507
O O7 0.000000 0.435998 0.351792
O O8 0.822488 0.250000 0.084624
O O9 0.000000 0.250000 0.009033
O O10 0.500000 0.250000 0.340369
O O11 0.500000 0.413174 0.702160
O O12 0.250000 0.437732 0.750000
O O13 0.246940 0.336982 0.674147
O O14 0.750000 0.250000 0.750000
O O15 0.000000 0.250000 0.697312
#
# Coordination Sequence:
#
# PCOD8297947 Si02
#       6
#    16  16   8   8  16   8
#     4   9  18  33  53  75 100 133 171 208 247 296
#     4  10  19  33  53  77 103 133 170 210 252 298
#     4   9  17  29  48  73 100 131 167 207 250 298
#     4   9  17  31  50  73 100 133 170 206 249 302
#     4  11  21  35  54  77 104 134 169 208 252 300
#     4  10  18  32  53  76 101 132 170 207 247 298
#
# _framework density 18.599831999999999
#
# number of rings (size 3 to 8) (size 9 to 14) (size 15 to 20)
#    0.000    2.222    0.000    5.667    0.000    4.000 
#    0.000    1.667    0.000    2.667    0.000    0.000 
#    0.000    0.000    0.000    0.000    0.000    0.000 
#
# Total GULP energy -446357.122189 kJ/mol
# GULP energy per Si atom -12398.808950 kJ/mol
# Density = 1.855750 g / cm^3
# Si number density = 18.599832 Si / 1000 Ang^3
#
#
#
# Elastic Constant Matrix: (Units=GPa)
#
#
# Indices 1 2 3 4 5 6 
#
# 1 119.0396 66.9214 34.8235 0.0000 0.0000 0.0000
# 2 66.9214 196.8393 53.2639 0.0000 0.0000 0.0000
# 3 34.8235 53.2639 41.1224 0.0000 0.0000 0.0000
# 4 0.0000 0.0000 0.0000 24.3785 0.0000 0.0000
# 5 0.0000 0.0000 0.0000 0.0000 19.2160 0.0000
# 6 0.0000 0.0000 0.0000 0.0000 0.0000 36.5132
#
#
#
# Elastic Compliance Matrix: (Units=1/GPa)
#
#
# Indices 1 2 3 4 5 6 
#
# 1 0.011651 -0.001988 -0.007291 0.000000 0.000000 0.000000
# 2 -0.001988 0.008161 -0.008887 0.000000 0.000000 0.000000
# 3 -0.007291 -0.008887 0.042003 0.000000 0.000000 0.000000
# 4 0.000000 0.000000 0.000000 0.041020 0.000000 0.000000
# 5 0.000000 0.000000 0.000000 0.000000 0.052040 0.000000
# 6 0.000000 0.000000 0.000000 0.000000 0.000000 0.027387
#
#
# Mechanical properties :
#
#
# Convention : Reuss Voigt Hill
#
# Bulk Modulus (GPa) = 39.24295 74.11320 56.67807
# Shear Modulus (GPa) = 22.01776 29.48772 25.75274
#
# Velocity S-wave (km/s) = 3.44432 3.98600 3.72502
# Velocity P-wave (km/s) = 6.07965 7.81773 7.00282
#
# Compressibility (1/GPa) = 0.02548229
#
# Stress axis : x y z
#
# Youngs Moduli (GPa) = 85.82742 122.53426 23.80780
#
# Poissons Ratio (x) = 0.24362 0.17359
# Poissons Ratio (y) = 0.17064 0.21158
# Poissons Ratio (z) = 0.62581 1.08895
#
# Static dielectric constant tensor:
#      x y z
#    x 3.501510 0.000000 0.000000 
#    y 0.000000 4.031910 0.000000 
#    z 0.000000 0.000000 3.071730 
# 
# 
# High freq. dielectric constant tensor:
#      x y z
#    x 1.734870 0.000000 0.000000 
#    y 0.000000 1.746560 0.000000 
#    z 0.000000 0.000000 1.671990 
# 
# From -- ./inp_files/63666.got.cif
#   From: 2010.03.12/outbox.cif.g09.slc.cpg/sg74_32_cif.got.tgz:63666.got - 2010.04.16 15:46:19.
