data_PCOD8297647
_publ_section_title
;
Structure prediction by ZEFSAII (Michael W. Deem and Ramdas Pophale) SiO2 
 PCOD8297647
Probable space group: I M M A
;
_chemical_formula_sum "Si O2"
_cell_formula_units_Z 72
_cell_length_a 8.610274
_cell_length_b 31.427532
_cell_length_c 18.399516
_cell_angle_alpha 90.000000
_cell_angle_beta 90.000000
_cell_angle_gamma 90.000000
_cell_volume 4978.902804
_symmetry_space_group_name_H-M "I M M A"
_symmetry_group_IT_number 74
_symmetry_cell_setting 'orthorhombic'
loop_
_space_group_symop_operation_xyz
x,y,z
-x,1/2-y,z
x,-y,-z
-x,1/2+y,-z
-x,-y,-z
x,1/2+y,-z
-x,y,z
x,1/2-y,z
1/2+x,1/2+y,1/2+z
1/2-x,-y,1/2+z
1/2+x,1/2-y,1/2-z
1/2-x,y,1/2-z
1/2-x,1/2-y,1/2-z
1/2+x,y,1/2-z
1/2-x,1/2+y,1/2+z
1/2+x,-y,1/2+z
loop_
_atom_site_type_symbol
_atom_site_label
_atom_site_fract_x
_atom_site_fract_y
_atom_site_fract_z
Si Si1 0.182512 0.663755 0.170134
Si Si2 0.829333 0.045939 0.035371
Si Si3 0.184237 0.498538 0.827580
Si Si4 0.683914 0.750000 0.169314
Si Si5 0.819551 0.583537 0.403192
O O1 0.250000 0.655013 0.250000
O O2 0.252653 0.706616 0.132927
O O3 0.223991 0.625125 0.117665
O O4 0.000000 0.668882 0.177379
O O5 0.772543 0.037713 0.118154
O O6 0.000000 0.067676 0.034244
O O7 0.710607 0.074457 0.988842
O O8 0.843301 0.000000 0.000000
O O9 0.250000 0.512173 0.750000
O O10 0.264799 0.455095 0.852743
O O11 0.000000 0.490958 0.825716
O O12 0.500000 0.750000 0.168279
O O13 0.750000 0.750000 0.250000
O O14 0.000000 0.591675 0.390089
#
# Coordination Sequence:
#
# PCOD8297647 Si02
#       5
#    16  16  16   8  16
#     4  11  20  31  44  59  80 106 136 168 203 239
#     4   8  16  30  43  56  77 104 131 163 203 242
#     4  10  19  30  43  59  80 105 135 169 204 241
#     4  10  18  30  44  60  80 102 131 164 201 240
#     4  11  20  29  42  60  80 104 136 171 204 238
#
# _framework density 14.461017
#
# number of rings (size 3 to 8) (size 9 to 14) (size 15 to 20)
#    0.000    2.000    0.000    9.000    0.000    4.889 
#    0.000    0.000    0.000    0.000    0.000    0.000 
#    0.000    0.000    0.000    1.000    0.000   13.556 
#
# Total GULP energy -446254.198966 kJ/mol
# GULP energy per Si atom -12395.949971 kJ/mol
# Density = 1.442810 g / cm^3
# Si number density = 14.461017 Si / 1000 Ang^3
#
#
#
# Elastic Constant Matrix: (Units=GPa)
#
#
# Indices 1 2 3 4 5 6 
#
# 1 104.8422 28.0499 26.2882 0.0000 0.0000 0.0000
# 2 28.0499 67.1122 32.6667 0.0000 0.0000 0.0000
# 3 26.2882 32.6667 87.9211 0.0000 -0.0001 0.0001
# 4 0.0000 0.0000 0.0000 12.4983 0.0000 0.0000
# 5 0.0000 0.0000 -0.0001 0.0000 19.5148 0.0000
# 6 0.0000 0.0000 0.0001 0.0000 0.0000 21.5260
#
#
#
# Elastic Compliance Matrix: (Units=1/GPa)
#
#
# Indices 1 2 3 4 5 6 
#
# 1 0.011001 -0.003658 -0.001930 0.000000 0.000000 0.000000
# 2 -0.003658 0.019407 -0.006117 0.000000 0.000000 0.000000
# 3 -0.001930 -0.006117 0.014223 0.000000 0.000000 0.000000
# 4 0.000000 0.000000 0.000000 0.080011 0.000000 0.000000
# 5 0.000000 0.000000 0.000000 0.000000 0.051243 0.000000
# 6 0.000000 0.000000 0.000000 0.000000 0.000000 0.046455
#
#
# Mechanical properties :
#
#
# Convention : Reuss Voigt Hill
#
# Bulk Modulus (GPa) = 47.12310 48.20948 47.66629
# Shear Modulus (GPa) = 19.77657 22.23253 21.00455
#
# Velocity S-wave (km/s) = 3.70209 3.92524 3.81530
# Velocity P-wave (km/s) = 7.13660 7.34529 7.24169
#
# Compressibility (1/GPa) = 0.02122102
#
# Stress axis : x y z
#
# Youngs Moduli (GPa) = 90.90197 51.52848 70.30622
#
# Poissons Ratio (x) = 0.18852 0.13569
# Poissons Ratio (y) = 0.33256 0.43004
# Poissons Ratio (z) = 0.17544 0.31518
#
# Static dielectric constant tensor:
#      x y z
#    x 2.936700 0.000000 0.000000 
#    y 0.000000 2.958310 0.000000 
#    z 0.000000 0.000000 3.009200 
# 
# 
# High freq. dielectric constant tensor:
#      x y z
#    x 1.571990 0.000000 0.000000 
#    y 0.000000 1.525620 0.000000 
#    z 0.000000 0.000000 1.526780 
# 
# From -- ./inp_files/39626.got.cif
#   From: 2010.03.12/outbox.cif.g09.slc.cpg/sg74_20_cif.got.tgz:39626.got - 2010.04.16 15:46:19.
