data_PCOD8297010
_publ_section_title
;
Structure prediction by ZEFSAII (Michael W. Deem and Ramdas Pophale) SiO2 
 PCOD8297010
Probable space group: I B C A 
;
_chemical_formula_sum "Si O2"
_cell_formula_units_Z 112
_cell_length_a 12.778475
_cell_length_b 28.049692
_cell_length_c 14.684253
_cell_angle_alpha 90.000000
_cell_angle_beta 90.000000
_cell_angle_gamma 90.000000
_cell_volume 5263.310400
_symmetry_space_group_name_H-M "I B C A "
_symmetry_group_IT_number 73
_symmetry_cell_setting 'orthorhombic'
loop_
_space_group_symop_operation_xyz
x,y,z
-x,1/2-y,z
x,-y,1/2-z
1/2-x,y,-z
-x,-y,-z
x,1/2+y,-z
-x,y,1/2+z
1/2+x,-y,z
1/2+x,1/2+y,1/2+z
1/2-x,-y,1/2+z
1/2+x,1/2-y,-z
-x,1/2+y,1/2-z
1/2-x,1/2-y,1/2-z
1/2+x,y,1/2-z
1/2-x,1/2+y,z
x,1/2-y,1/2+z
loop_
_atom_site_type_symbol
_atom_site_label
_atom_site_fract_x
_atom_site_fract_y
_atom_site_fract_z
Si Si1 0.489411 0.655923 0.649596
Si Si2 0.500000 0.750000 0.381123
Si Si3 0.700656 0.784045 0.674833
Si Si4 0.625790 0.559890 0.899150
Si Si5 0.895856 0.656790 0.178172
Si Si6 0.999717 0.000000 0.250000
Si Si7 0.644385 0.210496 0.474929
Si Si8 0.627213 0.938492 0.605459
O O1 0.413811 0.694883 0.698494
O O2 0.576888 0.637065 0.720539
O O3 0.552759 0.678771 0.566046
O O4 0.418287 0.614546 0.608686
O O5 0.531397 0.796725 0.325661
O O6 0.397427 0.763470 0.436418
O O7 0.750000 0.750000 0.750000
O O8 0.775359 0.829652 0.663751
O O9 0.685797 0.753722 0.585207
O O10 0.580129 0.613952 0.891845
O O11 0.571638 0.528215 0.821650
O O12 0.749035 0.560738 0.877435
O O13 0.603767 0.541523 0.002559
O O14 0.925905 0.967882 0.313397
O O15 0.750000 0.180076 0.500000
#
# Coordination Sequence:
#
# PCOD8297010 Si02
#       8
#    16   8  16  16  16   8  16  16
#     4  12  24  43  65  95 138 185 231 282 343 405
#     4  12  24  38  60  94 134 178 234 284 332 392
#     4  12  23  39  62  90 134 186 237 277 335 393
#     4  11  25  46  75 103 139 180 229 284 350 429
#     4  12  24  40  65  98 132 187 232 279 335 408
#     4  12  24  50  76 110 136 170 224 296 366 414
#     4  12  25  39  60  92 134 182 232 287 330 394
#     4  11  25  46  76 105 137 178 226 282 354 433
#
# _framework density 21.279381999999998
#
# number of rings (size 3 to 8) (size 9 to 14) (size 15 to 20)
#    0.000    0.286    7.143    2.571    0.000    0.000 
#    0.000    0.000    3.143    0.000    0.000    0.000 
#    0.000    0.000    0.000    0.000    0.000    0.000 
#
# Total GULP energy -693893.416266 kJ/mol
# GULP energy per Si atom -12390.953862 kJ/mol
# Density = 2.123095 g / cm^3
# Si number density = 21.279382 Si / 1000 Ang^3
#
#
#
# Elastic Constant Matrix: (Units=GPa)
#
#
# Indices 1 2 3 4 5 6 
#
# 1 140.3191 48.8785 46.6767 -0.0001 0.0003 0.0001
# 2 48.8785 78.4020 35.5564 -0.0008 0.0003 0.0001
# 3 46.6767 35.5564 103.5764 -0.0002 0.0016 0.0003
# 4 -0.0001 -0.0008 -0.0002 22.9104 0.0005 0.0001
# 5 0.0003 0.0003 0.0016 0.0005 36.3543 -0.0001
# 6 0.0001 0.0001 0.0003 0.0001 -0.0001 34.0712
#
#
#
# Elastic Compliance Matrix: (Units=1/GPa)
#
#
# Indices 1 2 3 4 5 6 
#
# 1 0.009711 -0.004820 -0.002722 0.000000 0.000000 0.000000
# 2 -0.004820 0.017499 -0.003835 0.000001 0.000000 0.000000
# 3 -0.002722 -0.003835 0.012198 0.000000 0.000000 0.000000
# 4 0.000000 0.000001 0.000000 0.043648 -0.000001 0.000000
# 5 0.000000 0.000000 0.000000 -0.000001 0.027507 0.000000
# 6 0.000000 0.000000 0.000000 0.000000 0.000000 0.029350
#
#
# Mechanical properties :
#
#
# Convention : Reuss Voigt Hill
#
# Bulk Modulus (GPa) = 60.04399 64.94674 62.49537
# Shear Modulus (GPa) = 29.72340 31.41292 30.56816
#
# Velocity S-wave (km/s) = 3.74146 3.84632 3.79425
# Velocity P-wave (km/s) = 6.85149 7.09315 6.97337
#
# Compressibility (1/GPa) = 0.01665446
#
# Stress axis : x y z
#
# Youngs Moduli (GPa) = 102.97734 57.14661 81.98242
#
# Poissons Ratio (x) = 0.27543 0.22313
# Poissons Ratio (y) = 0.49633 0.31441
# Poissons Ratio (z) = 0.28027 0.21916
#
# Static dielectric constant tensor:
#      x y z
#    x 4.083900 0.000000 0.000000 
#    y 0.000000 3.714920 0.000000 
#    z 0.000000 0.000000 3.783610 
# 
# 
# High freq. dielectric constant tensor:
#      x y z
#    x 1.856760 0.000000 0.000000 
#    y 0.000000 1.812590 0.000000 
#    z 0.000000 0.000000 1.846860 
# 
# From -- ./inp_files/16414.got.cif
#   From: 2010.03.12/outbox.cif.g09.slc.cpg/sg73_9_cif.got.tgz:16414.got - 2010.04.16 15:25:48.
