data_PCOD8297732
_publ_section_title
;
Structure prediction by ZEFSAII (Michael W. Deem and Ramdas Pophale) SiO2 
 PCOD8297732
Probable space group: I M M A
;
_chemical_formula_sum "Si O2"
_cell_formula_units_Z 104
_cell_length_a 8.883227
_cell_length_b 24.406941
_cell_length_c 25.068722
_cell_angle_alpha 90.000000
_cell_angle_beta 90.000000
_cell_angle_gamma 90.000000
_cell_volume 5435.209714
_symmetry_space_group_name_H-M "I M M A"
_symmetry_group_IT_number 74
_symmetry_cell_setting 'orthorhombic'
loop_
_space_group_symop_operation_xyz
x,y,z
-x,1/2-y,z
x,-y,-z
-x,1/2+y,-z
-x,-y,-z
x,1/2+y,-z
-x,y,z
x,1/2-y,z
1/2+x,1/2+y,1/2+z
1/2-x,-y,1/2+z
1/2+x,1/2-y,1/2-z
1/2-x,y,1/2-z
1/2-x,1/2-y,1/2-z
1/2+x,y,1/2-z
1/2-x,1/2+y,1/2+z
1/2+x,-y,1/2+z
loop_
_atom_site_type_symbol
_atom_site_label
_atom_site_fract_x
_atom_site_fract_y
_atom_site_fract_z
Si Si1 0.177576 0.686597 0.306257
Si Si2 0.177499 0.369978 0.908012
Si Si3 0.328827 0.017539 0.939351
Si Si4 0.666857 0.647457 0.802864
Si Si5 0.823080 0.750000 0.808669
Si Si6 0.668946 0.097135 0.089666
Si Si7 0.822506 0.812429 0.983231
O O1 0.218000 0.750000 0.317668
O O2 0.250000 0.667919 0.250000
O O3 0.242140 0.649930 0.354185
O O4 0.000000 0.677278 0.302503
O O5 0.226617 0.431084 0.924087
O O6 0.222949 0.329959 0.956777
O O7 0.000000 0.369372 0.897959
O O8 0.500000 0.029996 0.920647
O O9 0.257195 0.962859 0.913418
O O10 0.323898 0.000000 0.000000
O O11 0.500000 0.667551 0.785870
O O12 0.750000 0.626162 0.750000
O O13 0.757608 0.695276 0.834642
O O14 0.660548 0.601119 0.846602
O O15 0.750000 0.750000 0.750000
O O16 0.000000 0.750000 0.811083
O O17 0.500000 0.096704 0.065073
O O18 0.755641 0.145424 0.059557
O O19 0.764079 0.750000 0.973155
O O20 0.000000 0.814575 0.975907
#
# Coordination Sequence:
#
# PCOD8297732 Si02
#       7
#    16  16  16  16   8  16  16
#     4  10  21  38  62  92 126 164 204 246 297 357
#     4  11  22  37  60  88 121 157 197 243 293 351
#     4  10  20  38  61  82 111 151 197 244 293 346
#     4  10  20  35  53  75 104 136 177 222 273 327
#     4  10  18  30  50  74 100 134 174 212 259 314
#     4  10  22  38  57  81 108 144 188 238 287 338
#     4  10  22  37  54  82 118 151 184 230 287 346
#
# _framework density 19.134495000000001
#
# number of rings (size 3 to 8) (size 9 to 14) (size 15 to 20)
#    0.000    1.846    1.538    3.462    1.077    4.615 
#    0.000    0.769    0.000    1.846    0.000    0.000 
#    0.000    0.000    0.000    0.000    0.000    0.000 
#
# Total GULP energy -644344.826346 kJ/mol
# GULP energy per Si atom -12391.246660 kJ/mol
# Density = 1.909094 g / cm^3
# Si number density = 19.134495 Si / 1000 Ang^3
#
#
#
# Elastic Constant Matrix: (Units=GPa)
#
#
# Indices 1 2 3 4 5 6 
#
# 1 95.0045 40.5070 42.2430 0.0000 0.0000 0.0000
# 2 40.5070 126.5611 45.3669 0.0000 0.0000 0.0000
# 3 42.2430 45.3669 98.7754 0.0000 0.0000 0.0000
# 4 0.0000 0.0000 0.0000 30.9061 0.0000 0.0000
# 5 0.0000 0.0000 0.0000 0.0000 29.8478 0.0000
# 6 0.0000 0.0000 0.0000 0.0000 0.0000 29.6538
#
#
#
# Elastic Compliance Matrix: (Units=1/GPa)
#
#
# Indices 1 2 3 4 5 6 
#
# 1 0.013750 -0.002745 -0.004620 0.000000 0.000000 0.000000
# 2 -0.002745 0.010007 -0.003422 0.000000 0.000000 0.000000
# 3 -0.004620 -0.003422 0.013671 0.000000 0.000000 0.000000
# 4 0.000000 0.000000 0.000000 0.032356 0.000000 0.000000
# 5 0.000000 0.000000 0.000000 0.000000 0.033503 0.000000
# 6 0.000000 0.000000 0.000000 0.000000 0.000000 0.033723
#
#
# Mechanical properties :
#
#
# Convention : Reuss Voigt Hill
#
# Bulk Modulus (GPa) = 63.07259 64.06388 63.56823
# Shear Modulus (GPa) = 30.51224 30.89647 30.70435
#
# Velocity S-wave (km/s) = 3.99760 4.02269 4.01017
# Velocity P-wave (km/s) = 7.37171 7.42493 7.39837
#
# Compressibility (1/GPa) = 0.01585475
#
# Stress axis : x y z
#
# Youngs Moduli (GPa) = 72.72551 99.93503 73.14510
#
# Poissons Ratio (x) = 0.27431 0.33792
# Poissons Ratio (y) = 0.19962 0.25030
# Poissons Ratio (z) = 0.33598 0.34198
#
# Static dielectric constant tensor:
#      x y z
#    x 3.605070 0.000000 0.000000 
#    y 0.000000 3.964070 0.000000 
#    z 0.000000 0.000000 4.722140 
# 
# 
# High freq. dielectric constant tensor:
#      x y z
#    x 1.746590 0.000000 0.000000 
#    y 0.000000 1.742910 0.000000 
#    z 0.000000 0.000000 1.746210 
# 
# From -- ./inp_files/64806.got.cif
#   From: 2010.03.12/outbox.cif.g09.slc.cpg/sg74_33_cif.got.tgz:64806.got - 2010.04.16 15:46:19.
