data_PCOD8297750
_publ_section_title
;
Structure prediction by ZEFSAII (Michael W. Deem and Ramdas Pophale) SiO2 
 PCOD8297750
Probable space group: I M M A
;
_chemical_formula_sum "Si O2"
_cell_formula_units_Z 128
_cell_length_a 25.469853
_cell_length_b 26.433323
_cell_length_c 11.199925
_cell_angle_alpha 90.000000
_cell_angle_beta 90.000000
_cell_angle_gamma 90.000000
_cell_volume 7540.381438
_symmetry_space_group_name_H-M "I M M A"
_symmetry_group_IT_number 74
_symmetry_cell_setting 'orthorhombic'
loop_
_space_group_symop_operation_xyz
x,y,z
-x,1/2-y,z
x,-y,-z
-x,1/2+y,-z
-x,-y,-z
x,1/2+y,-z
-x,y,z
x,1/2-y,z
1/2+x,1/2+y,1/2+z
1/2-x,-y,1/2+z
1/2+x,1/2-y,1/2-z
1/2-x,y,1/2-z
1/2-x,1/2-y,1/2-z
1/2+x,y,1/2-z
1/2-x,1/2+y,1/2+z
1/2+x,-y,1/2+z
loop_
_atom_site_type_symbol
_atom_site_label
_atom_site_fract_x
_atom_site_fract_y
_atom_site_fract_z
Si Si1 0.560772 0.692126 0.683698
Si Si2 0.558143 0.502709 0.141045
Si Si3 0.741940 0.945492 0.468257
Si Si4 0.204681 0.627383 0.829367
Si Si5 0.891364 0.398190 0.326496
Si Si6 0.856579 0.079750 0.587484
Si Si7 0.355262 0.692402 0.498714
Si Si8 0.304554 0.631475 0.292228
O O1 0.500000 0.685042 0.660431
O O2 0.574397 0.750000 0.724398
O O3 0.578167 0.652702 0.786498
O O4 0.587168 0.680942 0.554010
O O5 0.500000 0.517011 0.192443
O O6 0.575066 0.449036 0.198906
O O7 0.602292 0.545373 0.163112
O O8 0.554316 0.500000 0.000000
O O9 0.731890 0.911344 0.582040
O O10 0.804273 0.951804 0.445104
O O11 0.712352 0.921776 0.353659
O O12 0.718012 0.000000 0.500000
O O13 0.250000 0.651093 0.750000
O O14 0.161585 0.597950 0.750585
O O15 0.183733 0.676450 0.896328
O O16 0.880717 0.395174 0.468399
O O17 0.840161 0.124558 0.675764
O O18 0.346823 0.750000 0.465680
O O19 0.342211 0.662493 0.379071
O O20 0.250000 0.659067 0.250000
#
# Coordination Sequence:
#
# PCOD8297750 Si02
#       8
#    16  16  16  16  16  16  16  16
#     4   9  18  34  57  79  98 125 165 217 266 301
#     4   9  18  30  45  68  97 132 166 195 238 292
#     4  10  19  30  47  72 100 136 171 206 245 289
#     4  10  19  29  48  74 100 125 163 207 252 299
#     4  10  18  30  51  74 104 130 164 206 251 307
#     4  10  19  32  47  71 103 135 170 207 243 296
#     4   9  19  36  53  73  97 128 168 209 252 303
#     4   9  20  34  50  72 104 137 171 204 242 300
#
# _framework density 16.975269000000001
#
# number of rings (size 3 to 8) (size 9 to 14) (size 15 to 20)
#    0.000    2.500    1.250    1.500    1.750    1.500 
#    0.000    1.250    0.000    0.000    0.000    5.250 
#    0.000    0.000    0.000    0.000    0.000    0.000 
#
# Total GULP energy -793030.090991 kJ/mol
# GULP energy per Si atom -12391.095172 kJ/mol
# Density = 1.693663 g / cm^3
# Si number density = 16.975269 Si / 1000 Ang^3
#
#
#
# Elastic Constant Matrix: (Units=GPa)
#
#
# Indices 1 2 3 4 5 6 
#
# 1 110.2949 43.1493 38.3936 0.0000 0.0000 0.0000
# 2 43.1493 78.1287 36.7148 0.0000 0.0000 0.0000
# 3 38.3936 36.7148 85.8835 0.0000 0.0000 0.0000
# 4 0.0000 0.0000 0.0000 15.6531 0.0000 0.0000
# 5 0.0000 0.0000 0.0000 0.0000 9.0549 0.0000
# 6 0.0000 0.0000 0.0000 0.0000 0.0000 17.0795
#
#
#
# Elastic Compliance Matrix: (Units=1/GPa)
#
#
# Indices 1 2 3 4 5 6 
#
# 1 0.012243 -0.005243 -0.003232 0.000000 0.000000 0.000000
# 2 -0.005243 0.018262 -0.005463 0.000000 0.000000 0.000000
# 3 -0.003232 -0.005463 0.015424 0.000000 0.000000 0.000000
# 4 0.000000 0.000000 0.000000 0.063885 0.000000 0.000000
# 5 0.000000 0.000000 0.000000 0.000000 0.110437 0.000000
# 6 0.000000 0.000000 0.000000 0.000000 0.000000 0.058550
#
#
# Mechanical properties :
#
#
# Convention : Reuss Voigt Hill
#
# Bulk Modulus (GPa) = 55.39164 56.75806 56.07485
# Shear Modulus (GPa) = 15.99006 18.76079 17.37543
#
# Velocity S-wave (km/s) = 3.07247 3.32804 3.20280
# Velocity P-wave (km/s) = 6.72966 6.94810 6.83975
#
# Compressibility (1/GPa) = 0.01805327
#
# Stress axis : x y z
#
# Youngs Moduli (GPa) = 81.68191 54.75787 64.83426
#
# Poissons Ratio (x) = 0.28708 0.20953
# Poissons Ratio (y) = 0.42824 0.35421
# Poissons Ratio (z) = 0.26397 0.29916
#
# Static dielectric constant tensor:
#      x y z
#    x 3.563900 0.000000 0.000000 
#    y 0.000000 3.091980 0.000000 
#    z 0.000000 0.000000 3.162640 
# 
# 
# High freq. dielectric constant tensor:
#      x y z
#    x 1.660860 0.000000 0.000000 
#    y 0.000000 1.637070 0.000000 
#    z 0.000000 0.000000 1.646460 
# 
# From -- ./inp_files/25667.got.cif
#   From: 2010.03.12/outbox.cif.g09.slc.cpg/sg74_13_cif.got.tgz:25667.got - 2010.04.16 15:46:19.
