data_PCOD8297017
_publ_section_title
;
Structure prediction by ZEFSAII (Michael W. Deem and Ramdas Pophale) SiO2 
 PCOD8297017
Probable space group: I B C A 
;
_chemical_formula_sum "Si O2"
_cell_formula_units_Z 120
_cell_length_a 11.991484
_cell_length_b 27.111550
_cell_length_c 18.356481
_cell_angle_alpha 90.000000
_cell_angle_beta 90.000000
_cell_angle_gamma 90.000000
_cell_volume 5967.833649
_symmetry_space_group_name_H-M "I B C A "
_symmetry_group_IT_number 73
_symmetry_cell_setting 'orthorhombic'
loop_
_space_group_symop_operation_xyz
x,y,z
-x,1/2-y,z
x,-y,1/2-z
1/2-x,y,-z
-x,-y,-z
x,1/2+y,-z
-x,y,1/2+z
1/2+x,-y,z
1/2+x,1/2+y,1/2+z
1/2-x,-y,1/2+z
1/2+x,1/2-y,-z
-x,1/2+y,1/2-z
1/2-x,1/2-y,1/2-z
1/2+x,y,1/2-z
1/2-x,1/2+y,z
x,1/2-y,1/2+z
loop_
_atom_site_type_symbol
_atom_site_label
_atom_site_fract_x
_atom_site_fract_y
_atom_site_fract_z
Si Si1 0.965930 0.698383 0.922324
Si Si2 0.199787 0.549868 0.656942
Si Si3 0.088585 0.212043 0.929839
Si Si4 0.250000 0.724475 0.500000
Si Si5 0.437423 0.405998 0.884006
Si Si6 0.485355 0.946425 0.965666
Si Si7 0.688380 0.613985 0.423950
Si Si8 0.344417 0.060528 0.818324
O O1 0.844830 0.693000 0.960357
O O2 0.967923 0.651679 0.867044
O O3 0.000000 0.750000 0.880738
O O4 0.053818 0.696943 0.988181
O O5 0.315194 0.576737 0.638824
O O6 0.108867 0.559035 0.595064
O O7 0.215782 0.491292 0.665048
O O8 0.157195 0.572856 0.732815
O O9 0.115992 0.160069 0.891203
O O10 0.000000 0.250000 0.891826
O O11 0.202512 0.242242 0.934483
O O12 0.526202 0.440905 0.842750
O O13 0.449647 0.409410 0.970854
O O14 0.605611 0.932115 0.933488
O O15 0.500000 0.000000 0.000000
O O16 0.750000 0.626589 0.500000
O O17 0.780245 0.602231 0.363378
#
# Coordination Sequence:
#
# PCOD8297017 Si02
#       8
#    16  16  16   8  16  16  16  16
#     4   9  19  33  55  92 125 161 201 265 320 374
#     4  11  27  43  64  92 132 173 217 266 326 396
#     4   9  17  30  52  89 126 157 198 262 319 375
#     4   8  16  28  52  80 132 148 194 254 324 360
#     4  12  23  42  67  94 129 168 217 268 332 379
#     4  12  23  40  64  97 131 162 215 278 324 379
#     4  12  20  36  64  95 129 169 214 270 320 386
#     4  11  26  43  64  91 127 182 216 259 325 404
#
# _framework density 20.107797999999999
#
# number of rings (size 3 to 8) (size 9 to 14) (size 15 to 20)
#    0.000    1.600    4.667    1.200    5.600    1.067 
#    0.000    0.000    0.000    1.600    0.000    0.933 
#    0.000    0.000    0.000    0.000    0.000    0.000 
#
# Total GULP energy -743481.066326 kJ/mol
# GULP energy per Si atom -12391.351105 kJ/mol
# Density = 2.006203 g / cm^3
# Si number density = 20.107798 Si / 1000 Ang^3
#
#
#
# Elastic Constant Matrix: (Units=GPa)
#
#
# Indices 1 2 3 4 5 6 
#
# 1 124.6511 38.2720 46.0979 -0.0001 0.0000 0.0000
# 2 38.2720 115.9978 25.8187 -0.0001 0.0000 0.0000
# 3 46.0979 25.8187 100.8797 -0.0002 0.0000 -0.0002
# 4 -0.0001 -0.0001 -0.0002 11.5006 0.0001 -0.0001
# 5 0.0000 0.0000 0.0000 0.0001 18.8239 0.0000
# 6 0.0000 0.0000 -0.0002 -0.0001 0.0000 29.5372
#
#
#
# Elastic Compliance Matrix: (Units=1/GPa)
#
#
# Indices 1 2 3 4 5 6 
#
# 1 0.010290 -0.002490 -0.004065 0.000000 0.000000 0.000000
# 2 -0.002490 0.009744 -0.001356 0.000000 0.000000 0.000000
# 3 -0.004065 -0.001356 0.012117 0.000000 0.000000 0.000000
# 4 0.000000 0.000000 0.000000 0.086952 0.000000 0.000000
# 5 0.000000 0.000000 0.000000 0.000000 0.053124 0.000000
# 6 0.000000 0.000000 0.000000 0.000000 0.000000 0.033856
#
#
# Mechanical properties :
#
#
# Convention : Reuss Voigt Hill
#
# Bulk Modulus (GPa) = 61.23857 62.43397 61.83627
# Shear Modulus (GPa) = 21.99260 27.39500 24.69380
#
# Velocity S-wave (km/s) = 3.31075 3.69508 3.50819
# Velocity P-wave (km/s) = 6.71834 7.02295 6.87233
#
# Compressibility (1/GPa) = 0.01632958
#
# Stress axis : x y z
#
# Youngs Moduli (GPa) = 97.17921 102.62383 82.52669
#
# Poissons Ratio (x) = 0.25557 0.33546
# Poissons Ratio (y) = 0.24201 0.11190
# Poissons Ratio (z) = 0.39502 0.13915
#
# Static dielectric constant tensor:
#      x y z
#    x 3.826270 0.000000 0.000000 
#    y 0.000000 4.029560 0.000000 
#    z 0.000000 0.000000 3.341290 
# 
# 
# High freq. dielectric constant tensor:
#      x y z
#    x 1.804510 0.000000 0.000000 
#    y 0.000000 1.793720 0.000000 
#    z 0.000000 0.000000 1.731230 
# 
# From -- ./inp_files/21554.got.cif
#   From: 2010.03.12/outbox.cif.g09.slc.cpg/sg73_11_cif.got.tgz:21554.got - 2010.04.16 15:25:48.
