data_PCOD8297015
_publ_section_title
;
Structure prediction by ZEFSAII (Michael W. Deem and Ramdas Pophale) SiO2 
 PCOD8297015
Probable space group: I B C A 
;
_chemical_formula_sum "Si O2"
_cell_formula_units_Z 88
_cell_length_a 12.906884
_cell_length_b 21.623475
_cell_length_c 14.020145
_cell_angle_alpha 90.000000
_cell_angle_beta 90.000000
_cell_angle_gamma 90.000000
_cell_volume 3912.905871
_symmetry_space_group_name_H-M "I B C A "
_symmetry_group_IT_number 73
_symmetry_cell_setting 'orthorhombic'
loop_
_space_group_symop_operation_xyz
x,y,z
-x,1/2-y,z
x,-y,1/2-z
1/2-x,y,-z
-x,-y,-z
x,1/2+y,-z
-x,y,1/2+z
1/2+x,-y,z
1/2+x,1/2+y,1/2+z
1/2-x,-y,1/2+z
1/2+x,1/2-y,-z
-x,1/2+y,1/2-z
1/2-x,1/2-y,1/2-z
1/2+x,y,1/2-z
1/2-x,1/2+y,z
x,1/2-y,1/2+z
loop_
_atom_site_type_symbol
_atom_site_label
_atom_site_fract_x
_atom_site_fract_y
_atom_site_fract_z
Si Si1 0.781875 0.642098 0.609451
Si Si2 0.750000 0.359661 0.500000
Si Si3 0.889268 0.230300 0.878884
Si Si4 0.933313 0.921484 0.414059
Si Si5 0.025068 0.442053 0.379006
Si Si6 0.582004 0.632260 0.727691
O O1 0.750000 0.633526 0.500000
O O2 0.811430 0.712695 0.632533
O O3 0.875913 0.599732 0.641376
O O4 0.688806 0.619196 0.674862
O O5 0.663767 0.319215 0.552457
O O6 0.812661 0.402758 0.574518
O O7 0.914636 0.199774 0.776459
O O8 0.000000 0.250000 0.925100
O O9 0.988042 0.928301 0.515095
O O10 0.989780 0.869323 0.350394
O O11 0.943577 0.987074 0.360471
O O12 0.934642 0.421379 0.306590
#
# Coordination Sequence:
#
# PCOD8297015 Si02
#       6
#    16   8  16  16  16  16
#     4  12  25  48  76 109 147 204 252 310 384 454
#     4  12  26  46  78 108 144 204 256 310 378 452
#     4  12  26  49  72 107 153 193 258 311 379 456
#     4  11  26  47  74 109 150 197 246 317 372 448
#     4  11  25  49  73 109 151 195 251 307 380 442
#     4  12  26  46  74 109 150 194 249 312 373 455
#
# _framework density 22.489678999999999
#
# number of rings (size 3 to 8) (size 9 to 14) (size 15 to 20)
#    0.000    0.364    6.364    1.091    3.818    1.455 
#    3.273    0.000    0.000    0.000    0.000    0.000 
#    0.000    0.000    0.000    0.000    0.000    0.000 
#
# Total GULP energy -545772.495577 kJ/mol
# GULP energy per Si atom -12403.920354 kJ/mol
# Density = 2.243849 g / cm^3
# Si number density = 22.489679 Si / 1000 Ang^3
#
#
#
# Elastic Constant Matrix: (Units=GPa)
#
#
# Indices 1 2 3 4 5 6 
#
# 1 111.3718 65.4233 48.6554 -0.0003 -0.0002 0.0000
# 2 65.4233 114.6918 48.3556 0.0013 0.0001 0.0002
# 3 48.6554 48.3556 106.4386 0.0006 -0.0001 0.0001
# 4 -0.0003 0.0013 0.0006 31.4976 0.0001 0.0001
# 5 -0.0002 0.0001 -0.0001 0.0001 47.7247 0.0001
# 6 0.0000 0.0002 0.0001 0.0001 0.0001 27.8873
#
#
#
# Elastic Compliance Matrix: (Units=1/GPa)
#
#
# Indices 1 2 3 4 5 6 
#
# 1 0.014515 -0.006781 -0.003554 0.000000 0.000000 0.000000
# 2 -0.006781 0.013953 -0.003239 -0.000001 0.000000 0.000000
# 3 -0.003554 -0.003239 0.012491 0.000000 0.000000 0.000000
# 4 0.000000 -0.000001 0.000000 0.031748 0.000000 0.000000
# 5 0.000000 0.000000 0.000000 0.000000 0.020953 0.000000
# 6 0.000000 0.000000 0.000000 0.000000 0.000000 0.035859
#
#
# Mechanical properties :
#
#
# Convention : Reuss Voigt Hill
#
# Bulk Modulus (GPa) = 72.41104 73.04121 72.72612
# Shear Modulus (GPa) = 31.00328 32.75977 31.88153
#
# Velocity S-wave (km/s) = 3.71692 3.82076 3.76920
# Velocity P-wave (km/s) = 7.11955 7.21196 7.16591
#
# Compressibility (1/GPa) = 0.01381005
#
# Stress axis : x y z
#
# Youngs Moduli (GPa) = 68.89247 71.66981 80.05503
#
# Poissons Ratio (x) = 0.48602 0.28456
# Poissons Ratio (y) = 0.46718 0.25930
# Poissons Ratio (z) = 0.24488 0.23214
#
# Static dielectric constant tensor:
#      x y z
#    x 4.208660 0.000000 0.000000 
#    y 0.000000 4.274960 0.000000 
#    z 0.000000 0.000000 4.162870 
# 
# 
# High freq. dielectric constant tensor:
#      x y z
#    x 1.896730 0.000000 0.000000 
#    y 0.000000 1.888910 0.000000 
#    z 0.000000 0.000000 1.893300 
# 
# From -- ./inp_files/16103.got.cif
#   From: 2010.03.12/outbox.cif.g09.slc.cpg/sg73_9_cif.got.tgz:16103.got - 2010.04.16 15:25:48.
