data_PCOD8297919
_publ_section_title
;
Structure prediction by ZEFSAII (Michael W. Deem and Ramdas Pophale) SiO2 
 PCOD8297919
Probable space group: I M M A
;
_chemical_formula_sum "Si O2"
_cell_formula_units_Z 72
_cell_length_a 33.209308
_cell_length_b 8.675523
_cell_length_c 14.337499
_cell_angle_alpha 90.000000
_cell_angle_beta 90.000000
_cell_angle_gamma 90.000000
_cell_volume 4130.749816
_symmetry_space_group_name_H-M "I M M A"
_symmetry_group_IT_number 74
_symmetry_cell_setting 'orthorhombic'
loop_
_space_group_symop_operation_xyz
x,y,z
-x,1/2-y,z
x,-y,-z
-x,1/2+y,-z
-x,-y,-z
x,1/2+y,-z
-x,y,z
x,1/2-y,z
1/2+x,1/2+y,1/2+z
1/2-x,-y,1/2+z
1/2+x,1/2-y,1/2-z
1/2-x,y,1/2-z
1/2-x,1/2-y,1/2-z
1/2+x,y,1/2-z
1/2-x,1/2+y,1/2+z
1/2+x,-y,1/2+z
loop_
_atom_site_type_symbol
_atom_site_label
_atom_site_fract_x
_atom_site_fract_y
_atom_site_fract_z
Si Si1 0.344395 0.931372 0.706349
Si Si2 0.765620 0.921428 0.146155
Si Si3 0.685956 0.431084 0.091928
Si Si4 0.000000 0.066676 0.103218
Si Si5 0.581582 0.932011 0.397502
O O1 0.351776 0.750000 0.696042
O O2 0.337104 0.981075 0.813936
O O3 0.306415 0.978647 0.642519
O O4 0.382779 0.025052 0.672099
O O5 0.773853 0.750000 0.105933
O O6 0.750000 0.909109 0.250000
O O7 0.731492 0.006015 0.087059
O O8 0.687502 0.250000 0.085019
O O9 0.663558 0.500000 0.000000
O O10 0.000000 0.250000 0.104651
O O11 0.959065 0.002194 0.149601
O O12 0.000000 0.000000 0.000000
O O13 0.577296 0.750000 0.406694
O O14 0.589988 0.000000 0.500000
#
# Coordination Sequence:
#
# PCOD8297919 Si02
#       5
#    16  16  16   8  16
#     4  10  20  34  50  72 100 129 164 206 248 289
#     4   9  17  30  47  66  90 121 158 200 244 287
#     4  10  20  33  50  70  96 130 168 208 248 291
#     4  10  18  32  52  74 101 130 159 192 234 288
#     4  11  21  34  52  75 102 131 162 197 239 289
#
# _framework density 17.430249
#
# number of rings (size 3 to 8) (size 9 to 14) (size 15 to 20)
#    0.000    2.000    0.000    6.333    0.000    6.222 
#    0.000    4.444    0.000    0.000    0.000    0.778 
#    0.000    0.000    0.000    0.000    0.000    0.000 
#
# Total GULP energy -446294.944201 kJ/mol
# GULP energy per Si atom -12397.081783 kJ/mol
# Density = 1.739058 g / cm^3
# Si number density = 17.430249 Si / 1000 Ang^3
#
#
#
# Elastic Constant Matrix: (Units=GPa)
#
#
# Indices 1 2 3 4 5 6 
#
# 1 113.0020 48.2077 40.8891 0.0000 0.0000 0.0000
# 2 48.2077 126.8980 38.3475 0.0000 0.0000 0.0000
# 3 40.8891 38.3475 76.5140 0.0000 0.0000 0.0000
# 4 0.0000 0.0000 0.0000 25.5660 0.0000 0.0000
# 5 0.0000 0.0000 0.0000 0.0000 24.8014 0.0000
# 6 0.0000 0.0000 0.0000 0.0000 0.0000 32.7597
#
#
#
# Elastic Compliance Matrix: (Units=1/GPa)
#
#
# Indices 1 2 3 4 5 6 
#
# 1 0.011902 -0.003063 -0.004825 0.000000 0.000000 0.000000
# 2 -0.003063 0.010075 -0.003412 0.000000 0.000000 0.000000
# 3 -0.004825 -0.003412 0.017358 0.000000 0.000000 0.000000
# 4 0.000000 0.000000 0.000000 0.039114 0.000000 0.000000
# 5 0.000000 0.000000 0.000000 0.000000 0.040320 0.000000
# 6 0.000000 0.000000 0.000000 0.000000 0.000000 0.030525
#
#
# Mechanical properties :
#
#
# Convention : Reuss Voigt Hill
#
# Bulk Modulus (GPa) = 59.75969 63.47805 61.61887
# Shear Modulus (GPa) = 28.17276 29.22339 28.69807
#
# Velocity S-wave (km/s) = 4.02470 4.09906 4.06205
# Velocity P-wave (km/s) = 7.48045 7.67466 7.57818
#
# Compressibility (1/GPa) = 0.01673369
#
# Stress axis : x y z
#
# Youngs Moduli (GPa) = 84.01749 99.25209 57.60899
#
# Poissons Ratio (x) = 0.30405 0.27798
# Poissons Ratio (y) = 0.25738 0.19659
# Poissons Ratio (z) = 0.40540 0.33870
#
# Static dielectric constant tensor:
#      x y z
#    x 3.574750 0.000000 0.000000 
#    y 0.000000 3.433170 0.000000 
#    z 0.000000 0.000000 3.211460 
# 
# 
# High freq. dielectric constant tensor:
#      x y z
#    x 1.658500 0.000000 0.000000 
#    y 0.000000 1.695750 0.000000 
#    z 0.000000 0.000000 1.649660 
# 
# From -- ./inp_files/29379.got.cif
#   From: 2010.03.12/outbox.cif.g09.slc.cpg/sg74_15_cif.got.tgz:29379.got - 2010.04.16 15:46:19.
