data_PCOD8297775
_publ_section_title
;
Structure prediction by ZEFSAII (Michael W. Deem and Ramdas Pophale) SiO2 
 PCOD8297775
Probable space group: I M M A
;
_chemical_formula_sum "Si O2"
_cell_formula_units_Z 80
_cell_length_a 10.766313
_cell_length_b 19.640750
_cell_length_c 19.303164
_cell_angle_alpha 90.000000
_cell_angle_beta 90.000000
_cell_angle_gamma 90.000000
_cell_volume 4081.817372
_symmetry_space_group_name_H-M "I M M A"
_symmetry_group_IT_number 74
_symmetry_cell_setting 'orthorhombic'
loop_
_space_group_symop_operation_xyz
x,y,z
-x,1/2-y,z
x,-y,-z
-x,1/2+y,-z
-x,-y,-z
x,1/2+y,-z
-x,y,z
x,1/2-y,z
1/2+x,1/2+y,1/2+z
1/2-x,-y,1/2+z
1/2+x,1/2-y,1/2-z
1/2-x,y,1/2-z
1/2-x,1/2-y,1/2-z
1/2+x,y,1/2-z
1/2-x,1/2+y,1/2+z
1/2+x,-y,1/2+z
loop_
_atom_site_type_symbol
_atom_site_label
_atom_site_fract_x
_atom_site_fract_y
_atom_site_fract_z
Si Si1 0.000000 0.941958 0.944744
Si Si2 0.641797 0.323550 0.026808
Si Si3 0.760798 0.827378 0.377995
Si Si4 0.856081 0.952313 0.302430
Si Si5 0.735243 0.537458 0.925982
Si Si6 0.000000 0.170050 0.941778
O O1 0.122722 0.955227 0.899144
O O2 0.000000 0.869278 0.984809
O O3 0.000000 0.000000 0.000000
O O4 0.500000 0.317648 0.046073
O O5 0.706729 0.250000 0.044072
O O6 0.655906 0.338075 0.945580
O O7 0.695126 0.384328 0.071693
O O8 0.764197 0.750000 0.350751
O O9 0.818670 0.874297 0.318413
O O10 0.620173 0.850384 0.396595
O O11 0.750000 0.980468 0.250000
O O12 0.000000 0.955713 0.275155
O O13 0.848500 0.996998 0.371958
O O14 0.723340 0.500000 0.000000
O O15 0.000000 0.250000 0.959808
#
# Coordination Sequence:
#
# PCOD8297775 Si02
#       6
#     8  16  16  16  16   8
#     4  10  18  30  54  86 116 152 188 243 300 358
#     4  10  19  32  56  90 122 151 192 250 310 359
#     4  10  20  36  59  87 123 162 203 247 295 355
#     4  12  28  44  62  87 122 165 208 255 307 368
#     4  11  21  37  63  89 119 154 203 253 307 354
#     4  10  18  32  58  94 128 158 194 245 303 360
#
# _framework density 19.599112999999999
#
# number of rings (size 3 to 8) (size 9 to 14) (size 15 to 20)
#    0.000    1.400    4.000    2.400    2.800    2.400 
#    0.000    0.000    0.000    0.600    0.000    0.000 
#    0.000    0.000    0.000    0.000    0.000    0.000 
#
# Total GULP energy -495697.570798 kJ/mol
# GULP energy per Si atom -12392.439270 kJ/mol
# Density = 1.955450 g / cm^3
# Si number density = 19.599113 Si / 1000 Ang^3
#
#
#
# Elastic Constant Matrix: (Units=GPa)
#
#
# Indices 1 2 3 4 5 6 
#
# 1 126.0540 29.2222 20.8595 0.0000 0.0000 0.0000
# 2 29.2222 106.2894 23.1644 0.0000 0.0000 0.0000
# 3 20.8595 23.1644 46.1603 0.0000 0.0000 0.0000
# 4 0.0000 0.0000 0.0000 20.7617 0.0000 0.0000
# 5 0.0000 0.0000 0.0000 0.0000 28.3907 0.0000
# 6 0.0000 0.0000 0.0000 0.0000 0.0000 24.5963
#
#
#
# Elastic Compliance Matrix: (Units=1/GPa)
#
#
# Indices 1 2 3 4 5 6 
#
# 1 0.008856 -0.001755 -0.003122 0.000000 0.000000 0.000000
# 2 -0.001755 0.010911 -0.004683 0.000000 0.000000 0.000000
# 3 -0.003122 -0.004683 0.025424 0.000000 0.000000 0.000000
# 4 0.000000 0.000000 0.000000 0.048166 0.000000 0.000000
# 5 0.000000 0.000000 0.000000 0.000000 0.035223 0.000000
# 6 0.000000 0.000000 0.000000 0.000000 0.000000 0.040656
#
#
# Mechanical properties :
#
#
# Convention : Reuss Voigt Hill
#
# Bulk Modulus (GPa) = 38.35234 47.22176 42.78705
# Shear Modulus (GPa) = 25.37483 28.43359 26.90421
#
# Velocity S-wave (km/s) = 3.60209 3.81302 3.70905
# Velocity P-wave (km/s) = 6.07544 6.59785 6.34202
#
# Compressibility (1/GPa) = 0.02607403
#
# Stress axis : x y z
#
# Youngs Moduli (GPa) = 112.91224 91.64907 39.33268
#
# Poissons Ratio (x) = 0.16081 0.12278
# Poissons Ratio (y) = 0.19811 0.18418
# Poissons Ratio (z) = 0.35247 0.42916
#
# Static dielectric constant tensor:
#      x y z
#    x -2.843640 0.000000 0.000000 
#    y 0.000000 3.910000 0.000000 
#    z 0.000000 0.000000 3.012220 
# 
# 
# High freq. dielectric constant tensor:
#      x y z
#    x 1.783970 0.000000 0.000000 
#    y 0.000000 1.777530 0.000000 
#    z 0.000000 0.000000 1.699480 
# 
# From -- ./inp_files/50423.got.cif
#   From: 2010.03.12/outbox.cif.g09.slc.cpg/sg74_26_cif.got.tgz:50423.got - 2010.04.16 15:46:19.
