data_PCOD8297842
_publ_section_title
;
Structure prediction by ZEFSAII (Michael W. Deem and Ramdas Pophale) SiO2 
 PCOD8297842
Probable space group: I M M A
;
_chemical_formula_sum "Si O2"
_cell_formula_units_Z 128
_cell_length_a 22.898990
_cell_length_b 26.431783
_cell_length_c 11.800894
_cell_angle_alpha 90.000000
_cell_angle_beta 90.000000
_cell_angle_gamma 90.000000
_cell_volume 7142.622492
_symmetry_space_group_name_H-M "I M M A"
_symmetry_group_IT_number 74
_symmetry_cell_setting 'orthorhombic'
loop_
_space_group_symop_operation_xyz
x,y,z
-x,1/2-y,z
x,-y,-z
-x,1/2+y,-z
-x,-y,-z
x,1/2+y,-z
-x,y,z
x,1/2-y,z
1/2+x,1/2+y,1/2+z
1/2-x,-y,1/2+z
1/2+x,1/2-y,1/2-z
1/2-x,y,1/2-z
1/2-x,1/2-y,1/2-z
1/2+x,y,1/2-z
1/2-x,1/2+y,1/2+z
1/2+x,-y,1/2+z
loop_
_atom_site_type_symbol
_atom_site_label
_atom_site_fract_x
_atom_site_fract_y
_atom_site_fract_z
Si Si1 0.311878 0.192481 0.997165
Si Si2 0.389312 0.194337 0.220530
Si Si3 0.435081 0.409551 0.228890
Si Si4 0.703054 0.946230 0.378154
Si Si5 0.565187 0.441222 0.984625
Si Si6 0.330569 0.057259 0.375245
Si Si7 0.173683 0.096341 0.645799
Si Si8 0.213064 0.165023 0.147099
O O1 0.318819 0.250000 0.953425
O O2 0.352571 0.182289 0.106257
O O3 0.244068 0.181710 0.030521
O O4 0.327760 0.154845 0.894231
O O5 0.418095 0.250000 0.213202
O O6 0.437798 0.151470 0.238598
O O7 0.349818 0.190894 0.334846
O O8 0.500000 0.431574 0.246071
O O9 0.411087 0.419739 0.103171
O O10 0.394468 0.437202 0.320324
O O11 0.662700 0.940237 0.488376
O O12 0.770766 0.933500 0.408044
O O13 0.679448 0.907886 0.281972
O O14 0.699032 0.004592 0.335877
O O15 0.500000 0.419416 0.954590
O O16 0.559684 0.500000 0.000000
O O17 0.612165 0.428515 0.888249
O O18 0.290430 0.104251 0.339150
O O19 0.250000 0.187422 0.250000
#
# Coordination Sequence:
#
# PCOD8297842 Si02
#       8
#    16  16  16  16  16  16  16  16
#     4  10  18  31  51  77 108 146 182 223 282 331
#     4   9  17  30  49  77 109 142 179 222 273 331
#     4  10  20  35  55  80 110 141 182 229 270 326
#     4  10  23  35  53  79 108 142 187 223 276 326
#     4  10  21  35  54  80 109 143 177 216 273 329
#     4  10  20  36  51  77 109 143 180 222 275 335
#     4  11  21  36  53  78 112 142 180 237 263 330
#     4   9  17  27  48  74 108 141 178 214 271 336
#
# _framework density 17.920589
#
# number of rings (size 3 to 8) (size 9 to 14) (size 15 to 20)
#    0.000    2.125    2.500    1.125    3.500    1.750 
#    0.000    3.125    0.000    0.375    0.000    0.000 
#    0.000    0.000    0.000    0.000    0.000    0.000 
#
# Total GULP energy -793073.253853 kJ/mol
# GULP energy per Si atom -12391.769591 kJ/mol
# Density = 1.787980 g / cm^3
# Si number density = 17.920589 Si / 1000 Ang^3
#
#
#
# Elastic Constant Matrix: (Units=GPa)
#
#
# Indices 1 2 3 4 5 6 
#
# 1 83.4970 22.8426 34.4547 0.0000 0.0000 0.0000
# 2 22.8426 98.9847 13.9246 0.0000 0.0000 0.0000
# 3 34.4547 13.9246 72.0340 0.0000 0.0000 0.0000
# 4 0.0000 0.0000 0.0000 27.3404 0.0000 0.0000
# 5 0.0000 0.0000 0.0000 0.0000 28.1187 0.0000
# 6 0.0000 0.0000 0.0000 0.0000 0.0000 14.6551
#
#
#
# Elastic Compliance Matrix: (Units=1/GPa)
#
#
# Indices 1 2 3 4 5 6 
#
# 1 0.015553 -0.002614 -0.006934 0.000000 0.000000 0.000000
# 2 -0.002614 0.010824 -0.000842 0.000000 0.000000 0.000000
# 3 -0.006934 -0.000842 0.017362 0.000000 0.000000 0.000000
# 4 0.000000 0.000000 0.000000 0.036576 0.000000 0.000000
# 5 0.000000 0.000000 0.000000 0.000000 0.035564 0.000000
# 6 0.000000 0.000000 0.000000 0.000000 0.000000 0.068236
#
#
# Mechanical properties :
#
#
# Convention : Reuss Voigt Hill
#
# Bulk Modulus (GPa) = 43.55559 44.10659 43.83109
# Shear Modulus (GPa) = 23.52432 26.24244 24.88338
#
# Velocity S-wave (km/s) = 3.62705 3.83087 3.73035
# Velocity P-wave (km/s) = 6.47288 6.65079 6.56244
#
# Compressibility (1/GPa) = 0.02295916
#
# Stress axis : x y z
#
# Youngs Moduli (GPa) = 64.29747 92.38558 57.59821
#
# Poissons Ratio (x) = 0.24147 0.39937
# Poissons Ratio (y) = 0.16805 0.04851
# Poissons Ratio (z) = 0.44583 0.07781
#
# Static dielectric constant tensor:
#      x y z
#    x 3.243250 0.000000 0.000000 
#    y 0.000000 3.289100 0.000000 
#    z 0.000000 0.000000 3.213010 
# 
# 
# High freq. dielectric constant tensor:
#      x y z
#    x 1.674890 0.000000 0.000000 
#    y 0.000000 1.699940 0.000000 
#    z 0.000000 0.000000 1.668430 
# 
# From -- ./inp_files/25654.got.cif
#   From: 2010.03.12/outbox.cif.g09.slc.cpg/sg74_13_cif.got.tgz:25654.got - 2010.04.16 15:46:19.
