data_PCOD8297997
_publ_section_title
;
Structure prediction by ZEFSAII (Michael W. Deem and Ramdas Pophale) SiO2 
 PCOD8297997
Probable space group: I M M A
;
_chemical_formula_sum "Si O2"
_cell_formula_units_Z 88
_cell_length_a 18.036751
_cell_length_b 8.888013
_cell_length_c 30.156957
_cell_angle_alpha 90.000000
_cell_angle_beta 90.000000
_cell_angle_gamma 90.000000
_cell_volume 4834.488235
_symmetry_space_group_name_H-M "I M M A"
_symmetry_group_IT_number 74
_symmetry_cell_setting 'orthorhombic'
loop_
_space_group_symop_operation_xyz
x,y,z
-x,1/2-y,z
x,-y,-z
-x,1/2+y,-z
-x,-y,-z
x,1/2+y,-z
-x,y,z
x,1/2-y,z
1/2+x,1/2+y,1/2+z
1/2-x,-y,1/2+z
1/2+x,1/2-y,1/2-z
1/2-x,y,1/2-z
1/2-x,1/2-y,1/2-z
1/2+x,y,1/2-z
1/2-x,1/2+y,1/2+z
1/2+x,-y,1/2+z
loop_
_atom_site_type_symbol
_atom_site_label
_atom_site_fract_x
_atom_site_fract_y
_atom_site_fract_z
Si Si1 0.000000 0.430879 0.548925
Si Si2 0.773347 0.427026 0.117751
Si Si3 0.585461 0.082639 0.743695
Si Si4 0.351212 0.571130 0.952077
Si Si5 0.417043 0.428555 0.643937
Si Si6 0.704064 0.927217 0.791844
O O1 0.000000 0.500000 0.500000
O O2 0.924337 0.495696 0.570985
O O3 0.000000 0.250000 0.549026
O O4 0.784589 0.250000 0.121006
O O5 0.720673 0.470200 0.076884
O O6 0.854819 0.500451 0.111701
O O7 0.735700 0.493533 0.162359
O O8 0.500000 0.087085 0.755248
O O9 0.619302 0.250000 0.745674
O O10 0.597952 0.014501 0.694293
O O11 0.620902 0.981764 0.782438
O O12 0.363310 0.750000 0.955742
O O13 0.336748 0.500000 0.000000
O O14 0.500000 0.479636 0.628922
O O15 0.412162 0.250000 0.642164
O O16 0.705399 0.750000 0.794737
O O17 0.750000 0.989704 0.750000
#
# Coordination Sequence:
#
# PCOD8297997 Si02
#       6
#     8  16  16  16  16  16
#     4  10  18  32  56  82 106 134 172 208 252 304
#     4  10  21  35  52  77 104 134 169 211 257 303
#     4   9  18  32  48  68  97 133 172 210 248 290
#     4  10  20  36  57  79 106 135 170 212 258 303
#     4   9  18  32  51  75 102 134 172 212 252 299
#     4  10  19  32  49  71 101 133 169 206 246 298
#
# _framework density 18.202546000000002
#
# number of rings (size 3 to 8) (size 9 to 14) (size 15 to 20)
#    0.000    2.364    1.818    3.545    0.000    3.273 
#    1.636    1.818    0.000    0.545    0.000    0.000 
#    0.000    0.000    0.000    0.000    0.000    0.000 
#
# Total GULP energy -545368.639656 kJ/mol
# GULP energy per Si atom -12394.741810 kJ/mol
# Density = 1.816112 g / cm^3
# Si number density = 18.202546 Si / 1000 Ang^3
#
#
#
# Elastic Constant Matrix: (Units=GPa)
#
#
# Indices 1 2 3 4 5 6 
#
# 1 152.4873 50.3833 60.1927 0.0000 0.0000 0.0000
# 2 50.3833 51.9891 32.7628 0.0000 0.0000 0.0000
# 3 60.1927 32.7628 73.9490 0.0000 0.0000 0.0000
# 4 0.0000 0.0000 0.0000 21.6670 0.0000 0.0000
# 5 0.0000 0.0000 0.0000 0.0000 29.1685 0.0000
# 6 0.0000 0.0000 0.0000 0.0000 0.0000 36.2409
#
#
#
# Elastic Compliance Matrix: (Units=1/GPa)
#
#
# Indices 1 2 3 4 5 6 
#
# 1 0.011302 -0.007152 -0.006030 0.000000 0.000000 0.000000
# 2 -0.007152 0.031212 -0.008007 0.000000 0.000000 0.000000
# 3 -0.006030 -0.008007 0.021979 0.000000 0.000000 0.000000
# 4 0.000000 0.000000 0.000000 0.046153 0.000000 0.000000
# 5 0.000000 0.000000 0.000000 0.000000 0.034284 0.000000
# 6 0.000000 0.000000 0.000000 0.000000 0.000000 0.027593
#
#
# Mechanical properties :
#
#
# Convention : Reuss Voigt Hill
#
# Bulk Modulus (GPa) = 45.22089 62.78924 54.00506
# Shear Modulus (GPa) = 22.49506 26.42105 24.45806
#
# Velocity S-wave (km/s) = 3.51924 3.81399 3.66958
# Velocity P-wave (km/s) = 6.43510 7.34609 6.90563
#
# Compressibility (1/GPa) = 0.02211367
#
# Stress axis : x y z
#
# Youngs Moduli (GPa) = 88.48382 32.03938 45.49858
#
# Poissons Ratio (x) = 0.22915 0.27438
# Poissons Ratio (y) = 0.63285 0.36428
# Poissons Ratio (z) = 0.53360 0.25652
#
# Static dielectric constant tensor:
#      x y z
#    x 3.709670 0.000000 0.000000 
#    y 0.000000 3.234480 0.000000 
#    z 0.000000 0.000000 3.132590 
# 
# 
# High freq. dielectric constant tensor:
#      x y z
#    x 1.719280 0.000000 0.000000 
#    y 0.000000 1.700710 0.000000 
#    z 0.000000 0.000000 1.665260 
# 
# From -- ./inp_files/73284.got.cif
#   From: 2010.03.12/outbox.cif.g09.slc.cpg/sg74_37_cif.got.tgz:73284.got - 2010.04.16 15:46:19.
