data_PCOD8297066
_publ_section_title
;
Structure prediction by ZEFSAII (Michael W. Deem and Ramdas Pophale) SiO2 
 PCOD8297066
Probable space group: I B C A 
;
_chemical_formula_sum "Si O2"
_cell_formula_units_Z 56
_cell_length_a 9.284778
_cell_length_b 13.849029
_cell_length_c 18.114183
_cell_angle_alpha 90.000000
_cell_angle_beta 90.000000
_cell_angle_gamma 90.000000
_cell_volume 2329.215115
_symmetry_space_group_name_H-M "I B C A "
_symmetry_group_IT_number 73
_symmetry_cell_setting 'orthorhombic'
loop_
_space_group_symop_operation_xyz
x,y,z
-x,1/2-y,z
x,-y,1/2-z
1/2-x,y,-z
-x,-y,-z
x,1/2+y,-z
-x,y,1/2+z
1/2+x,-y,z
1/2+x,1/2+y,1/2+z
1/2-x,-y,1/2+z
1/2+x,1/2-y,-z
-x,1/2+y,1/2-z
1/2-x,1/2-y,1/2-z
1/2+x,y,1/2-z
1/2-x,1/2+y,z
x,1/2-y,1/2+z
loop_
_atom_site_type_symbol
_atom_site_label
_atom_site_fract_x
_atom_site_fract_y
_atom_site_fract_z
Si Si1 0.623435 0.177700 0.753076
Si Si2 0.218863 0.904655 0.897957
Si Si3 0.250000 0.237314 0.000000
Si Si4 0.561302 0.404710 0.093096
O O1 0.500000 0.250000 0.778104
O O2 0.750000 0.250000 0.750000
O O3 0.662459 0.097555 0.814004
O O4 0.600246 0.123859 0.676353
O O5 0.389887 0.916597 0.909166
O O6 0.137051 0.996190 0.932630
O O7 0.172889 0.806402 0.939433
O O8 0.121906 0.176023 0.962615
#
# Coordination Sequence:
#
# PCOD8297066 Si02
#       4
#    16  16   8  16
#     4  12  24  48  79 109 147 194 243 304 368 435
#     4  12  29  48  76 112 149 195 248 309 369 447
#     4  12  26  50  72 100 150 198 250 306 368 438
#     4  12  28  49  74 112 149 192 254 303 373 444
#
# _framework density 24.042434
#
# number of rings (size 3 to 8) (size 9 to 14) (size 15 to 20)
#    0.000    0.000    5.714    2.571    4.000   11.429 
#    0.000    0.000    0.000    0.000    0.000    0.000 
#    0.000    0.000    0.000    0.000    0.000    0.000 
#
# Total GULP energy -347083.215668 kJ/mol
# GULP energy per Si atom -12395.829131 kJ/mol
# Density = 2.398771 g / cm^3
# Si number density = 24.042434 Si / 1000 Ang^3
#
#
#
# Elastic Constant Matrix: (Units=GPa)
#
#
# Indices 1 2 3 4 5 6 
#
# 1 186.1327 81.2578 58.4128 0.0000 0.0000 0.0000
# 2 81.2578 165.9727 44.7879 0.0000 0.0000 0.0000
# 3 58.4128 44.7879 127.1130 0.0000 0.0000 0.0000
# 4 0.0000 0.0000 0.0000 45.9884 0.0000 0.0000
# 5 0.0000 0.0000 0.0000 0.0000 27.0196 0.0000
# 6 0.0000 0.0000 0.0000 0.0000 0.0000 45.3521
#
#
#
# Elastic Compliance Matrix: (Units=1/GPa)
#
#
# Indices 1 2 3 4 5 6 
#
# 1 0.007420 -0.002997 -0.002353 0.000000 0.000000 0.000000
# 2 -0.002997 0.007869 -0.001395 0.000000 0.000000 0.000000
# 3 -0.002353 -0.001395 0.009440 0.000000 0.000000 0.000000
# 4 0.000000 0.000000 0.000000 0.021745 0.000000 0.000000
# 5 0.000000 0.000000 0.000000 0.000000 0.037010 0.000000
# 6 0.000000 0.000000 0.000000 0.000000 0.000000 0.022050
#
#
# Mechanical properties :
#
#
# Convention : Reuss Voigt Hill
#
# Bulk Modulus (GPa) = 88.99479 94.23726 91.61603
# Shear Modulus (GPa) = 40.72621 43.32269 42.02445
#
# Velocity S-wave (km/s) = 4.12020 4.24952 4.18536
# Velocity P-wave (km/s) = 7.72857 7.95985 7.84506
#
# Compressibility (1/GPa) = 0.01123661
#
# Stress axis : x y z
#
# Youngs Moduli (GPa) = 134.77734 127.07921 105.93114
#
# Poissons Ratio (x) = 0.38092 0.24930
# Poissons Ratio (y) = 0.40399 0.14780
# Poissons Ratio (z) = 0.31719 0.17730
#
# Static dielectric constant tensor:
#      x y z
#    x 4.295180 0.000000 0.000000 
#    y 0.000000 4.540610 0.000000 
#    z 0.000000 0.000000 4.335170 
# 
# 
# High freq. dielectric constant tensor:
#      x y z
#    x 1.963180 0.000000 0.000000 
#    y 0.000000 1.969500 0.000000 
#    z 0.000000 0.000000 1.971910 
# 
# From -- ./inp_files/4462.got.cif
#   From: 2010.03.12/outbox.cif.g09.slc.cpg/sg73_3_cif.got.tgz:4462.got - 2010.04.16 15:25:48.
