data_PCOD8297847
_publ_section_title
;
Structure prediction by ZEFSAII (Michael W. Deem and Ramdas Pophale) SiO2 
 PCOD8297847
Probable space group: I M M A
;
_chemical_formula_sum "Si O2"
_cell_formula_units_Z 104
_cell_length_a 8.627605
_cell_length_b 23.965178
_cell_length_c 25.546571
_cell_angle_alpha 90.000000
_cell_angle_beta 90.000000
_cell_angle_gamma 90.000000
_cell_volume 5282.062401
_symmetry_space_group_name_H-M "I M M A"
_symmetry_group_IT_number 74
_symmetry_cell_setting 'orthorhombic'
loop_
_space_group_symop_operation_xyz
x,y,z
-x,1/2-y,z
x,-y,-z
-x,1/2+y,-z
-x,-y,-z
x,1/2+y,-z
-x,y,z
x,1/2-y,z
1/2+x,1/2+y,1/2+z
1/2-x,-y,1/2+z
1/2+x,1/2-y,1/2-z
1/2-x,y,1/2-z
1/2-x,1/2-y,1/2-z
1/2+x,y,1/2-z
1/2-x,1/2+y,1/2+z
1/2+x,-y,1/2+z
loop_
_atom_site_type_symbol
_atom_site_label
_atom_site_fract_x
_atom_site_fract_y
_atom_site_fract_z
Si Si1 0.317660 0.637404 0.307021
Si Si2 0.683594 0.437916 0.598812
Si Si3 0.816787 0.750000 0.965307
Si Si4 0.183993 0.130426 0.999213
Si Si5 0.184362 0.562856 0.901351
Si Si6 0.683897 0.362754 0.305425
Si Si7 0.183399 0.250000 0.691958
Si Si8 0.183131 0.750000 0.650043
O O1 0.500000 0.645279 0.301920
O O2 0.250000 0.624450 0.250000
O O3 0.270542 0.586812 0.344818
O O4 0.247794 0.693411 0.334087
O O5 0.500000 0.439787 0.592512
O O6 0.753192 0.398955 0.552651
O O7 0.752842 0.500219 0.595283
O O8 0.765299 0.695379 0.998152
O O9 0.732993 0.750000 0.909966
O O10 0.000000 0.750000 0.954049
O O11 0.250197 0.098165 0.049867
O O12 0.000000 0.126553 0.998818
O O13 0.239944 0.591767 0.847883
O O14 0.000000 0.561046 0.903481
O O15 0.500000 0.358510 0.303313
O O16 0.750000 0.382934 0.250000
O O17 0.751211 0.303088 0.320058
O O18 0.250000 0.250000 0.750000
O O19 0.000000 0.250000 0.691618
O O20 0.000000 0.750000 0.654217
#
# Coordination Sequence:
#
# PCOD8297847 Si02
#       8
#    16  16   8  16  16  16   8   8
#     4  10  19  32  51  77 108 139 173 217 266 322
#     4   9  18  30  49  81 112 141 181 227 272 320
#     4  10  18  32  56  87 113 144 179 225 286 335
#     4   9  16  29  52  80 110 139 177 228 277 321
#     4   9  17  31  52  77 109 145 180 223 273 321
#     4  11  22  37  57  84 114 147 187 231 276 329
#     4  10  18  31  52  74  97 131 171 210 256 313
#     4  12  23  37  57  81 112 149 185 227 278 336
#
# _framework density 19.689278999999999
#
# number of rings (size 3 to 8) (size 9 to 14) (size 15 to 20)
#    0.000    2.154    1.538    3.923    0.000    3.077 
#    0.000    2.308    0.000    5.538    0.000    1.077 
#    0.000    0.000    0.000    0.000    0.000    0.000 
#
# Total GULP energy -644707.540661 kJ/mol
# GULP energy per Si atom -12398.221936 kJ/mol
# Density = 1.964447 g / cm^3
# Si number density = 19.689279 Si / 1000 Ang^3
#
#
#
# Elastic Constant Matrix: (Units=GPa)
#
#
# Indices 1 2 3 4 5 6 
#
# 1 62.4072 26.8634 28.1295 0.0000 0.0000 0.0000
# 2 26.8634 189.0499 90.3745 0.0000 0.0000 0.0000
# 3 28.1295 90.3745 149.9372 0.0000 0.0000 0.0000
# 4 0.0000 0.0000 0.0000 14.9677 0.0000 0.0000
# 5 0.0000 0.0000 0.0000 0.0000 21.7480 0.0000
# 6 0.0000 0.0000 0.0000 0.0000 0.0000 9.7664
#
#
#
# Elastic Compliance Matrix: (Units=1/GPa)
#
#
# Indices 1 2 3 4 5 6 
#
# 1 0.017730 -0.001305 -0.002540 0.000000 0.000000 0.000000
# 2 -0.001305 0.007527 -0.004292 0.000000 0.000000 0.000000
# 3 -0.002540 -0.004292 0.009733 0.000000 0.000000 0.000000
# 4 0.000000 0.000000 0.000000 0.066810 0.000000 0.000000
# 5 0.000000 0.000000 0.000000 0.000000 0.045981 0.000000
# 6 0.000000 0.000000 0.000000 0.000000 0.000000 0.102392
#
#
# Mechanical properties :
#
#
# Convention : Reuss Voigt Hill
#
# Bulk Modulus (GPa) = 53.42915 76.90326 65.16621
# Shear Modulus (GPa) = 18.33607 26.36487 22.35047
#
# Velocity S-wave (km/s) = 3.05499 3.66327 3.37287
# Velocity P-wave (km/s) = 6.29595 7.55222 6.95252
#
# Compressibility (1/GPa) = 0.01871637
#
# Stress axis : x y z
#
# Youngs Moduli (GPa) = 56.40031 132.85829 102.74515
#
# Poissons Ratio (x) = 0.17344 0.26092
# Poissons Ratio (y) = 0.07363 0.44097
# Poissons Ratio (z) = 0.14323 0.57021
#
# Static dielectric constant tensor:
#      x y z
#    x 3.164300 0.000000 0.000000 
#    y 0.000000 4.135150 0.000000 
#    z 0.000000 0.000000 3.716010 
# 
# 
# High freq. dielectric constant tensor:
#      x y z
#    x 1.722940 0.000000 0.000000 
#    y 0.000000 1.782380 0.000000 
#    z 0.000000 0.000000 1.768680 
# 
# From -- ./inp_files/64580.got.cif
#   From: 2010.03.12/outbox.cif.g09.slc.cpg/sg74_33_cif.got.tgz:64580.got - 2010.04.16 15:46:19.
