data_PCOD8297239
_publ_section_title
;
Structure prediction by ZEFSAII (Michael W. Deem and Ramdas Pophale) SiO2 
 PCOD8297239
Probable space group: I M M A
;
_chemical_formula_sum "Si O2"
_cell_formula_units_Z 72
_cell_length_a 23.505654
_cell_length_b 8.649632
_cell_length_c 23.199122
_cell_angle_alpha 90.000000
_cell_angle_beta 90.000000
_cell_angle_gamma 90.000000
_cell_volume 4716.735452
_symmetry_space_group_name_H-M "I M M A"
_symmetry_group_IT_number 74
_symmetry_cell_setting 'orthorhombic'
loop_
_space_group_symop_operation_xyz
x,y,z
-x,1/2-y,z
x,-y,-z
-x,1/2+y,-z
-x,-y,-z
x,1/2+y,-z
-x,y,z
x,1/2-y,z
1/2+x,1/2+y,1/2+z
1/2-x,-y,1/2+z
1/2+x,1/2-y,1/2-z
1/2-x,y,1/2-z
1/2-x,1/2-y,1/2-z
1/2+x,y,1/2-z
1/2-x,1/2+y,1/2+z
1/2+x,-y,1/2+z
loop_
_atom_site_type_symbol
_atom_site_label
_atom_site_fract_x
_atom_site_fract_y
_atom_site_fract_z
Si Si1 0.890086 0.066372 0.623496
Si Si2 0.835243 0.931753 0.728491
Si Si3 0.000000 0.067315 0.436535
Si Si4 0.276821 0.569277 0.325329
Si Si5 0.776391 0.571967 0.439500
O O1 0.895739 0.250000 0.622764
O O2 0.835686 0.007212 0.586511
O O3 0.884538 0.009249 0.689788
O O4 0.945062 0.989080 0.597083
O O5 0.845605 0.750000 0.732305
O O6 0.775406 0.972036 0.699635
O O7 0.833863 0.004734 0.793796
O O8 0.000000 0.250000 0.440547
O O9 0.000000 0.000000 0.500000
O O10 0.267736 0.750000 0.311470
O O11 0.275771 0.542459 0.394499
O O12 0.759302 0.500000 0.500000
O O13 0.785900 0.750000 0.451068
#
# Coordination Sequence:
#
# PCOD8297239 Si02
#       5
#    16  16   8  16  16
#     4  10  20  34  47  60  80 110 143 179 219 257
#     4  10  17  26  42  63  80 100 133 174 213 251
#     4  12  24  36  48  64  84 110 145 184 219 254
#     4   9  16  27  40  57  81 109 136 166 206 254
#     4   9  18  28  41  59  81 109 141 172 206 247
#
# _framework density 15.264796
#
# number of rings (size 3 to 8) (size 9 to 14) (size 15 to 20)
#    0.000    2.222    0.000    7.667    0.000    7.111 
#    0.000    0.000    0.000    0.000    0.000    0.000 
#    0.000    0.000    0.000    1.000    0.000   13.556 
#
# Total GULP energy -446083.653590 kJ/mol
# GULP energy per Si atom -12391.212600 kJ/mol
# Density = 1.523005 g / cm^3
# Si number density = 15.264796 Si / 1000 Ang^3
#
#
#
# Elastic Constant Matrix: (Units=GPa)
#
#
# Indices 1 2 3 4 5 6 
#
# 1 52.2529 28.9447 59.0459 0.0000 0.0000 0.0000
# 2 28.9447 89.4934 51.9884 0.0000 0.0000 0.0000
# 3 59.0459 51.9884 139.4102 0.0000 0.0000 0.0000
# 4 0.0000 0.0000 0.0000 29.2139 0.0000 0.0000
# 5 0.0000 0.0000 0.0000 0.0000 50.6088 0.0000
# 6 0.0000 0.0000 0.0000 0.0000 0.0000 20.1718
#
#
#
# Elastic Compliance Matrix: (Units=1/GPa)
#
#
# Indices 1 2 3 4 5 6 
#
# 1 0.037650 -0.003719 -0.014559 0.000000 0.000000 0.000000
# 2 -0.003719 0.014632 -0.003881 0.000000 0.000000 0.000000
# 3 -0.014559 -0.003881 0.014787 0.000000 0.000000 0.000000
# 4 0.000000 0.000000 0.000000 0.034230 0.000000 0.000000
# 5 0.000000 0.000000 0.000000 0.000000 0.019759 0.000000
# 6 0.000000 0.000000 0.000000 0.000000 0.000000 0.049574
#
#
# Mechanical properties :
#
#
# Convention : Reuss Voigt Hill
#
# Bulk Modulus (GPa) = 43.95792 62.34605 53.15199
# Shear Modulus (GPa) = 22.46839 29.41071 25.93955
#
# Velocity S-wave (km/s) = 3.84071 4.39418 4.12674
# Velocity P-wave (km/s) = 6.96617 8.16559 7.58961
#
# Compressibility (1/GPa) = 0.02274903
#
# Stress axis : x y z
#
# Youngs Moduli (GPa) = 26.56038 68.34556 67.62757
#
# Poissons Ratio (x) = 0.25420 0.98461
# Poissons Ratio (y) = 0.09879 0.26247
# Poissons Ratio (z) = 0.38670 0.26525
#
# Static dielectric constant tensor:
#      x y z
#    x 2.720260 0.000000 0.000000 
#    y 0.000000 2.994610 0.000000 
#    z 0.000000 0.000000 3.609580 
# 
# 
# High freq. dielectric constant tensor:
#      x y z
#    x 1.524170 0.000000 0.000000 
#    y 0.000000 1.601040 0.000000 
#    z 0.000000 0.000000 1.591630 
# 
# From -- ./inp_files/48937.got.cif
#   From: 2010.03.12/outbox.cif.g09.slc.cpg/sg74_25_cif.got.tgz:48937.got - 2010.04.16 15:46:19.
