data_PCOD8297331
_publ_section_title
;
Structure prediction by ZEFSAII (Michael W. Deem and Ramdas Pophale) SiO2 
 PCOD8297331
Probable space group: I M M A
;
_chemical_formula_sum "Si O2"
_cell_formula_units_Z 96
_cell_length_a 16.947663
_cell_length_b 18.503490
_cell_length_c 18.175747
_cell_angle_alpha 90.000000
_cell_angle_beta 90.000000
_cell_angle_gamma 90.000000
_cell_volume 5699.749093
_symmetry_space_group_name_H-M "I M M A"
_symmetry_group_IT_number 74
_symmetry_cell_setting 'orthorhombic'
loop_
_space_group_symop_operation_xyz
x,y,z
-x,1/2-y,z
x,-y,-z
-x,1/2+y,-z
-x,-y,-z
x,1/2+y,-z
-x,y,z
x,1/2-y,z
1/2+x,1/2+y,1/2+z
1/2-x,-y,1/2+z
1/2+x,1/2-y,1/2-z
1/2-x,y,1/2-z
1/2-x,1/2-y,1/2-z
1/2+x,y,1/2-z
1/2-x,1/2+y,1/2+z
1/2+x,-y,1/2+z
loop_
_atom_site_type_symbol
_atom_site_label
_atom_site_fract_x
_atom_site_fract_y
_atom_site_fract_z
Si Si1 0.234419 0.331538 0.518839
Si Si2 0.209014 0.468131 0.918346
Si Si3 0.088867 0.919596 0.524452
Si Si4 0.291119 0.331616 0.352693
Si Si5 0.906523 0.047923 0.177981
Si Si6 0.334735 0.441632 0.169142
O O1 0.232581 0.250000 0.549427
O O2 0.284547 0.381145 0.575446
O O3 0.145457 0.362255 0.515254
O O4 0.274348 0.335067 0.439364
O O5 0.125965 0.489959 0.881308
O O6 0.278842 0.498112 0.867102
O O7 0.217427 0.500000 0.000000
O O8 0.097845 0.915957 0.612666
O O9 0.000000 0.899467 0.502064
O O10 0.112077 0.000000 0.500000
O O11 0.297188 0.250000 0.323548
O O12 0.374248 0.371876 0.339909
O O13 0.219524 0.372146 0.310302
O O14 0.876413 0.025534 0.259135
O O15 0.000000 0.048198 0.173749
#
# Coordination Sequence:
#
# PCOD8297331 Si02
#       6
#    16  16  16  16  16  16
#     4  10  18  32  53  76 102 131 174 219 256 303
#     4  11  17  36  57  77  98 132 181 219 253 301
#     4  10  17  29  51  77 106 135 164 208 259 305
#     4   9  18  33  52  74 103 141 176 210 250 302
#     4  11  23  33  50  78 108 139 171 217 262 308
#     4  10  18  33  52  76 104 138 175 210 249 312
#
# _framework density 16.842846999999999
#
# number of rings (size 3 to 8) (size 9 to 14) (size 15 to 20)
#    0.000    1.833    6.667    2.500    0.000    2.333 
#    0.000    0.000    0.000    5.500    0.000    0.000 
#    0.000    0.000    0.000    0.000    0.000    0.000 
#
# Total GULP energy -595045.665790 kJ/mol
# GULP energy per Si atom -12396.784704 kJ/mol
# Density = 1.680451 g / cm^3
# Si number density = 16.842847 Si / 1000 Ang^3
#
#
#
# Elastic Constant Matrix: (Units=GPa)
#
#
# Indices 1 2 3 4 5 6 
#
# 1 125.8659 53.3380 45.5370 0.0000 0.0000 0.0000
# 2 53.3380 124.0421 40.8064 0.0000 0.0000 0.0000
# 3 45.5370 40.8064 59.8006 0.0000 0.0000 0.0000
# 4 0.0000 0.0000 0.0000 15.8987 0.0000 0.0000
# 5 0.0000 0.0000 0.0000 0.0000 24.1038 0.0000
# 6 0.0000 0.0000 0.0000 0.0000 0.0000 18.6053
#
#
#
# Elastic Compliance Matrix: (Units=1/GPa)
#
#
# Indices 1 2 3 4 5 6 
#
# 1 0.011623 -0.002690 -0.007015 0.000000 0.000000 0.000000
# 2 -0.002690 0.011018 -0.005470 0.000000 0.000000 0.000000
# 3 -0.007015 -0.005470 0.025797 0.000000 0.000000 0.000000
# 4 0.000000 0.000000 0.000000 0.062898 0.000000 0.000000
# 5 0.000000 0.000000 0.000000 0.000000 0.041487 0.000000
# 6 0.000000 0.000000 0.000000 0.000000 0.000000 0.053748
#
#
# Mechanical properties :
#
#
# Convention : Reuss Voigt Hill
#
# Bulk Modulus (GPa) = 55.28697 65.45239 60.36968
# Shear Modulus (GPa) = 20.58037 23.05671 21.81854
#
# Velocity S-wave (km/s) = 3.49937 3.70392 3.60310
# Velocity P-wave (km/s) = 7.01597 7.56552 7.29592
#
# Compressibility (1/GPa) = 0.01808745
#
# Stress axis : x y z
#
# Youngs Moduli (GPa) = 86.03716 90.76084 38.76491
#
# Poissons Ratio (x) = 0.24416 0.27193
# Poissons Ratio (y) = 0.23145 0.21204
# Poissons Ratio (z) = 0.60355 0.49645
#
# Static dielectric constant tensor:
#      x y z
#    x 3.046440 0.000000 0.000000 
#    y 0.000000 3.350130 0.000000 
#    z 0.000000 0.000000 3.195190 
# 
# 
# High freq. dielectric constant tensor:
#      x y z
#    x 1.639040 0.000000 0.000000 
#    y 0.000000 1.632270 0.000000 
#    z 0.000000 0.000000 1.645870 
# 
# From -- ./inp_files/44343.got.cif
#   From: 2010.03.12/outbox.cif.g09.slc.cpg/sg74_23_cif.got.tgz:44343.got - 2010.04.16 15:46:19.
