data_PCOD8297281
_publ_section_title
;
Structure prediction by ZEFSAII (Michael W. Deem and Ramdas Pophale) SiO2 
 PCOD8297281
Probable space group: I M M A
;
_chemical_formula_sum "Si O2"
_cell_formula_units_Z 128
_cell_length_a 22.076411
_cell_length_b 28.064989
_cell_length_c 12.524605
_cell_angle_alpha 90.000000
_cell_angle_beta 90.000000
_cell_angle_gamma 90.000000
_cell_volume 7759.922522
_symmetry_space_group_name_H-M "I M M A"
_symmetry_group_IT_number 74
_symmetry_cell_setting 'orthorhombic'
loop_
_space_group_symop_operation_xyz
x,y,z
-x,1/2-y,z
x,-y,-z
-x,1/2+y,-z
-x,-y,-z
x,1/2+y,-z
-x,y,z
x,1/2-y,z
1/2+x,1/2+y,1/2+z
1/2-x,-y,1/2+z
1/2+x,1/2-y,1/2-z
1/2-x,y,1/2-z
1/2-x,1/2-y,1/2-z
1/2+x,y,1/2-z
1/2-x,1/2+y,1/2+z
1/2+x,-y,1/2+z
loop_
_atom_site_type_symbol
_atom_site_label
_atom_site_fract_x
_atom_site_fract_y
_atom_site_fract_z
Si Si1 0.070761 0.063636 0.308743
Si Si2 0.070133 0.613766 0.465229
Si Si3 0.071419 0.543200 0.285958
Si Si4 0.771283 0.303925 0.129382
Si Si5 0.858032 0.304239 0.449990
Si Si6 0.065735 0.802964 0.753433
Si Si7 0.928676 0.448118 0.955843
Si Si8 0.378926 0.376909 0.378293
O O1 0.078722 0.086519 0.423916
O O2 0.116113 0.088285 0.224408
O O3 0.000000 0.066795 0.270180
O O4 0.093542 0.009442 0.316933
O O5 0.097353 0.581232 0.370321
O O6 0.110132 0.661775 0.463661
O O7 0.000000 0.626904 0.445747
O O8 0.091981 0.556246 0.166561
O O9 0.000000 0.544042 0.295180
O O10 0.798161 0.250000 0.109445
O O11 0.750000 0.306712 0.250000
O O12 0.713998 0.311849 0.051237
O O13 0.816345 0.347866 0.107263
O O14 0.875242 0.250000 0.479082
O O15 0.883719 0.316971 0.332445
O O16 0.075034 0.750000 0.795833
O O17 0.070609 0.836328 0.857191
O O18 0.000000 0.810081 0.698840
O O19 0.000000 0.439897 0.971918
O O20 0.910341 0.500000 0.000000
O O21 0.892010 0.406775 0.015824
#
# Coordination Sequence:
#
# PCOD8297281 Si02
#       8
#    16  16  16  16  16  16  16  16
#     4  10  17  27  45  75 105 129 161 202 251 300
#     4  10  18  29  49  77 105 129 160 206 259 307
#     4   9  18  31  47  71 104 137 167 200 242 300
#     4  10  19  33  50  71 101 136 171 206 250 307
#     4  10  19  31  48  71  99 131 165 204 251 306
#     4  10  18  27  43  73 107 129 151 197 257 306
#     4  10  19  32  50  74 103 136 171 206 245 296
#     4  12  19  28  50  74 102 132 171 207 245 290
#
# _framework density 16.495010000000001
#
# number of rings (size 3 to 8) (size 9 to 14) (size 15 to 20)
#    0.000    1.875    3.750    2.250    0.000    2.250 
#    0.000    0.000    0.000    5.250    0.000    5.250 
#    0.000    0.000    0.000    0.000    0.000    0.000 
#
# Total GULP energy -793123.837328 kJ/mol
# GULP energy per Si atom -12392.559958 kJ/mol
# Density = 1.645747 g / cm^3
# Si number density = 16.495010 Si / 1000 Ang^3
#
#
#
# Elastic Constant Matrix: (Units=GPa)
#
#
# Indices 1 2 3 4 5 6 
#
# 1 68.8976 49.6005 26.3303 0.0000 0.0000 0.0000
# 2 49.6005 147.0257 60.9044 0.0000 0.0000 0.0000
# 3 26.3303 60.9044 75.9258 0.0000 0.0000 0.0000
# 4 0.0000 0.0000 0.0000 24.5824 0.0000 0.0000
# 5 0.0000 0.0000 0.0000 0.0000 12.5217 0.0000
# 6 0.0000 0.0000 0.0000 0.0000 0.0000 29.5462
#
#
#
# Elastic Compliance Matrix: (Units=1/GPa)
#
#
# Indices 1 2 3 4 5 6 
#
# 1 0.019416 -0.005633 -0.002215 0.000000 0.000000 0.000000
# 2 -0.005633 0.011820 -0.007528 0.000000 0.000000 0.000000
# 3 -0.002215 -0.007528 0.019978 0.000000 0.000000 0.000000
# 4 0.000000 0.000000 0.000000 0.040680 0.000000 0.000000
# 5 0.000000 0.000000 0.000000 0.000000 0.079861 0.000000
# 6 0.000000 0.000000 0.000000 0.000000 0.000000 0.033845
#
#
# Mechanical properties :
#
#
# Convention : Reuss Voigt Hill
#
# Bulk Modulus (GPa) = 48.87113 62.83551 55.85332
# Shear Modulus (GPa) = 20.56152 23.66431 22.11291
#
# Velocity S-wave (km/s) = 3.53445 3.79177 3.66537
# Velocity P-wave (km/s) = 6.80798 7.57274 7.20052
#
# Compressibility (1/GPa) = 0.02046198
#
# Stress axis : x y z
#
# Youngs Moduli (GPa) = 51.50458 84.59991 50.05526
#
# Poissons Ratio (x) = 0.47651 0.11087
# Poissons Ratio (y) = 0.29010 0.37684
# Poissons Ratio (z) = 0.11408 0.63691
#
# Static dielectric constant tensor:
#      x y z
#    x 3.068960 0.000000 0.000000 
#    y 0.000000 3.424080 0.000000 
#    z 0.000000 0.000000 2.996100 
# 
# 
# High freq. dielectric constant tensor:
#      x y z
#    x 1.604270 0.000000 0.000000 
#    y 0.000000 1.653990 0.000000 
#    z 0.000000 0.000000 1.601650 
# 
# From -- ./inp_files/25666.got.cif
#   From: 2010.03.12/outbox.cif.g09.slc.cpg/sg74_13_cif.got.tgz:25666.got - 2010.04.16 15:46:19.
