data_PCOD8297209
_publ_section_title
;
Structure prediction by ZEFSAII (Michael W. Deem and Ramdas Pophale) SiO2 
 PCOD8297209
Probable space group: I M M A
;
_chemical_formula_sum "Si O2"
_cell_formula_units_Z 80
_cell_length_a 8.549519
_cell_length_b 23.202738
_cell_length_c 29.280067
_cell_angle_alpha 90.000000
_cell_angle_beta 90.000000
_cell_angle_gamma 90.000000
_cell_volume 5808.352753
_symmetry_space_group_name_H-M "I M M A"
_symmetry_group_IT_number 74
_symmetry_cell_setting 'orthorhombic'
loop_
_space_group_symop_operation_xyz
x,y,z
-x,1/2-y,z
x,-y,-z
-x,1/2+y,-z
-x,-y,-z
x,1/2+y,-z
-x,y,z
x,1/2-y,z
1/2+x,1/2+y,1/2+z
1/2-x,-y,1/2+z
1/2+x,1/2-y,1/2-z
1/2-x,y,1/2-z
1/2-x,1/2-y,1/2-z
1/2+x,y,1/2-z
1/2-x,1/2+y,1/2+z
1/2+x,-y,1/2+z
loop_
_atom_site_type_symbol
_atom_site_label
_atom_site_fract_x
_atom_site_fract_y
_atom_site_fract_z
Si Si1 0.315613 0.882289 0.116520
Si Si2 0.685690 0.186212 0.971787
Si Si3 0.318187 0.021798 0.564528
Si Si4 0.681407 0.079237 0.023563
Si Si5 0.683794 0.816248 0.298915
O O1 0.500000 0.890729 0.114637
O O2 0.253507 0.840254 0.076134
O O3 0.233260 0.945278 0.110764
O O4 0.267374 0.856472 0.164636
O O5 0.500000 0.189599 0.969173
O O6 0.758434 0.250000 0.978491
O O7 0.734831 0.145815 0.015018
O O8 0.500000 0.031095 0.554486
O O9 0.211569 0.048112 0.524630
O O10 0.278442 0.952828 0.564171
O O11 0.500000 0.076134 0.036234
O O12 0.500000 0.826736 0.300105
O O13 0.726784 0.750000 0.309546
O O14 0.750000 0.834608 0.250000
#
# Coordination Sequence:
#
# PCOD8297209 Si02
#       5
#    16  16  16  16  16
#     4  10  18  28  42  57  73  94 124 160 194 227
#     4   8  14  23  36  54  73  94 121 153 187 221
#     4  10  17  25  37  52  71  93 119 152 189 225
#     4   9  15  24  37  52  71  94 121 151 184 223
#     4  10  20  32  44  58  76  98 124 154 190 230
#
# _framework density 13.773268
#
# number of rings (size 3 to 8) (size 9 to 14) (size 15 to 20)
#    0.000    2.600    0.000    6.600    0.000    2.000 
#    0.000    0.000    0.000   12.000    0.000    0.000 
#    0.000    0.000    0.000    0.000    0.000    1.000 
#
# Total GULP energy -495637.677224 kJ/mol
# GULP energy per Si atom -12390.941931 kJ/mol
# Density = 1.374192 g / cm^3
# Si number density = 13.773268 Si / 1000 Ang^3
#
#
#
# Elastic Constant Matrix: (Units=GPa)
#
#
# Indices 1 2 3 4 5 6 
#
# 1 47.8984 27.4988 20.9844 0.0000 0.0000 0.0000
# 2 27.4988 97.9079 53.3827 0.0000 0.0000 0.0000
# 3 20.9844 53.3827 56.3192 0.0000 0.0000 0.0000
# 4 0.0000 0.0000 0.0000 29.3576 0.0000 0.0000
# 5 0.0000 0.0000 0.0000 0.0000 18.0049 0.0000
# 6 0.0000 0.0000 0.0000 0.0000 0.0000 15.1255
#
#
#
# Elastic Compliance Matrix: (Units=1/GPa)
#
#
# Indices 1 2 3 4 5 6 
#
# 1 0.025736 -0.004139 -0.005666 0.000000 0.000000 0.000000
# 2 -0.004139 0.021804 -0.019124 0.000000 0.000000 0.000000
# 3 -0.005666 -0.019124 0.037994 0.000000 0.000000 0.000000
# 4 0.000000 0.000000 0.000000 0.034063 0.000000 0.000000
# 5 0.000000 0.000000 0.000000 0.000000 0.055540 0.000000
# 6 0.000000 0.000000 0.000000 0.000000 0.000000 0.066114
#
#
# Mechanical properties :
#
#
# Convention : Reuss Voigt Hill
#
# Bulk Modulus (GPa) = 36.13373 45.09527 40.61450
# Shear Modulus (GPa) = 16.21615 19.18157 17.69886
#
# Velocity S-wave (km/s) = 3.43500 3.73589 3.58860
# Velocity P-wave (km/s) = 6.48258 7.17087 6.83540
#
# Compressibility (1/GPa) = 0.02767497
#
# Stress axis : x y z
#
# Youngs Moduli (GPa) = 38.85602 45.86415 26.31967
#
# Poissons Ratio (x) = 0.18984 0.14913
# Poissons Ratio (y) = 0.16083 0.50335
# Poissons Ratio (z) = 0.22016 0.87713
#
# Static dielectric constant tensor:
#      x y z
#    x 2.649740 0.000000 0.000000 
#    y 0.000000 3.331640 0.000000 
#    z 0.000000 0.000000 2.524680 
# 
# 
# High freq. dielectric constant tensor:
#      x y z
#    x 1.530120 0.000000 0.000000 
#    y 0.000000 1.519280 0.000000 
#    z 0.000000 0.000000 1.474020 
# 
# From -- ./inp_files/70691.got.cif
#   From: 2010.03.12/outbox.cif.g09.slc.cpg/sg74_36_cif.got.tgz:70691.got - 2010.04.16 15:46:19.
