data_PCOD8297917
_publ_section_title
;
Structure prediction by ZEFSAII (Michael W. Deem and Ramdas Pophale) SiO2 
 PCOD8297917
Probable space group: I M M A
;
_chemical_formula_sum "Si O2"
_cell_formula_units_Z 72
_cell_length_a 8.709527
_cell_length_b 16.343932
_cell_length_c 27.944683
_cell_angle_alpha 90.000000
_cell_angle_beta 90.000000
_cell_angle_gamma 90.000000
_cell_volume 3977.867417
_symmetry_space_group_name_H-M "I M M A"
_symmetry_group_IT_number 74
_symmetry_cell_setting 'orthorhombic'
loop_
_space_group_symop_operation_xyz
x,y,z
-x,1/2-y,z
x,-y,-z
-x,1/2+y,-z
-x,-y,-z
x,1/2+y,-z
-x,y,z
x,1/2-y,z
1/2+x,1/2+y,1/2+z
1/2-x,-y,1/2+z
1/2+x,1/2-y,1/2-z
1/2-x,y,1/2-z
1/2-x,1/2-y,1/2-z
1/2+x,y,1/2-z
1/2-x,1/2+y,1/2+z
1/2+x,-y,1/2+z
loop_
_atom_site_type_symbol
_atom_site_label
_atom_site_fract_x
_atom_site_fract_y
_atom_site_fract_z
Si Si1 0.177294 0.658749 0.945449
Si Si2 0.318557 0.915859 0.197735
Si Si3 0.679928 0.995663 0.614051
Si Si4 0.329034 0.418324 0.969465
Si Si5 0.316993 0.750000 0.302922
O O1 0.204905 0.750000 0.924850
O O2 0.234824 0.592608 0.906414
O O3 0.000000 0.641142 0.956210
O O4 0.263183 0.652391 0.996345
O O5 0.500000 0.907553 0.202098
O O6 0.250000 0.932832 0.250000
O O7 0.247698 0.833224 0.173457
O O8 0.271645 0.990763 0.163377
O O9 0.500000 0.997887 0.624723
O O10 0.722351 0.067693 0.576711
O O11 0.500000 0.394212 0.952265
O O12 0.331717 0.500000 0.000000
O O13 0.500000 0.750000 0.303626
O O14 0.250000 0.750000 0.250000
#
# Coordination Sequence:
#
# PCOD8297917 Si02
#       5
#    16  16  16  16   8
#     4   9  18  33  53  76 103 136 173 212 258 310
#     4  11  21  35  54  77 105 136 172 212 255 305
#     4  10  19  33  53  76 103 136 173 213 257 307
#     4   9  17  30  48  71  99 130 165 207 253 301
#     4  10  18  32  52  74 100 130 164 202 248 298
#
# _framework density 18.100151
#
# number of rings (size 3 to 8) (size 9 to 14) (size 15 to 20)
#    0.000    2.222    0.000    5.667    0.000    4.000 
#    2.000    0.000    0.000    0.667    0.000    0.000 
#    0.000    0.000    0.000    0.000    0.000    0.000 
#
# Total GULP energy -446298.596218 kJ/mol
# GULP energy per Si atom -12397.183228 kJ/mol
# Density = 1.805895 g / cm^3
# Si number density = 18.100151 Si / 1000 Ang^3
#
#
#
# Elastic Constant Matrix: (Units=GPa)
#
#
# Indices 1 2 3 4 5 6 
#
# 1 118.0558 36.1903 38.8702 0.0000 0.0000 0.0000
# 2 36.1903 93.5488 49.3184 0.0000 0.0000 0.0000
# 3 38.8702 49.3184 91.8575 0.0000 0.0000 0.0000
# 4 0.0000 0.0000 0.0000 23.7598 0.0000 0.0000
# 5 0.0000 0.0000 0.0000 0.0000 31.5891 0.0000
# 6 0.0000 0.0000 0.0000 0.0000 0.0000 21.6982
#
#
#
# Elastic Compliance Matrix: (Units=1/GPa)
#
#
# Indices 1 2 3 4 5 6 
#
# 1 0.010193 -0.002328 -0.003063 0.000000 0.000000 0.000000
# 2 -0.002328 0.015442 -0.007305 0.000000 0.000000 0.000000
# 3 -0.003063 -0.007305 0.016105 0.000000 0.000000 0.000000
# 4 0.000000 0.000000 0.000000 0.042088 0.000000 0.000000
# 5 0.000000 0.000000 0.000000 0.000000 0.031656 0.000000
# 6 0.000000 0.000000 0.000000 0.000000 0.000000 0.046087
#
#
# Mechanical properties :
#
#
# Convention : Reuss Voigt Hill
#
# Bulk Modulus (GPa) = 61.17803 61.35777 61.26790
# Shear Modulus (GPa) = 25.98578 27.34831 26.66705
#
# Velocity S-wave (km/s) = 3.79313 3.89130 3.84253
# Velocity P-wave (km/s) = 7.28402 7.35950 7.32186
#
# Compressibility (1/GPa) = 0.01634574
#
# Stress axis : x y z
#
# Youngs Moduli (GPa) = 98.10781 64.75949 62.09288
#
# Poissons Ratio (x) = 0.15078 0.19020
# Poissons Ratio (y) = 0.22843 0.45362
# Poissons Ratio (z) = 0.30051 0.47310
#
# Static dielectric constant tensor:
#      x y z
#    x 3.459070 0.000000 0.000000 
#    y 0.000000 3.499990 0.000000 
#    z 0.000000 0.000000 3.228840 
# 
# 
# High freq. dielectric constant tensor:
#      x y z
#    x 1.714100 0.000000 0.000000 
#    y 0.000000 1.683930 0.000000 
#    z 0.000000 0.000000 1.680460 
# 
# From -- ./inp_files/56706.got.cif
#   From: 2010.03.12/outbox.cif.g09.slc.cpg/sg74_29_cif.got.tgz:56706.got - 2010.04.16 15:46:19.
