data_PCOD8297760
_publ_section_title
;
Structure prediction by ZEFSAII (Michael W. Deem and Ramdas Pophale) SiO2 
 PCOD8297760
Probable space group: I M M A
;
_chemical_formula_sum "Si O2"
_cell_formula_units_Z 96
_cell_length_a 16.854108
_cell_length_b 16.438469
_cell_length_c 19.546632
_cell_angle_alpha 90.000000
_cell_angle_beta 90.000000
_cell_angle_gamma 90.000000
_cell_volume 5415.506435
_symmetry_space_group_name_H-M "I M M A"
_symmetry_group_IT_number 74
_symmetry_cell_setting 'orthorhombic'
loop_
_space_group_symop_operation_xyz
x,y,z
-x,1/2-y,z
x,-y,-z
-x,1/2+y,-z
-x,-y,-z
x,1/2+y,-z
-x,y,z
x,1/2-y,z
1/2+x,1/2+y,1/2+z
1/2-x,-y,1/2+z
1/2+x,1/2-y,1/2-z
1/2-x,y,1/2-z
1/2-x,1/2-y,1/2-z
1/2+x,y,1/2-z
1/2-x,1/2+y,1/2+z
1/2+x,-y,1/2+z
loop_
_atom_site_type_symbol
_atom_site_label
_atom_site_fract_x
_atom_site_fract_y
_atom_site_fract_z
Si Si1 0.680993 0.587732 0.918257
Si Si2 0.407087 0.012750 0.309012
Si Si3 0.179850 0.540490 0.066067
Si Si4 0.187385 0.654009 0.438530
Si Si5 0.794052 0.159108 0.182359
Si Si6 0.407837 0.961481 0.158389
O O1 0.741899 0.513372 0.923289
O O2 0.727967 0.657732 0.877458
O O3 0.606140 0.548948 0.878347
O O4 0.648849 0.623387 0.989824
O O5 0.500000 0.027119 0.310058
O O6 0.367685 0.099156 0.327349
O O7 0.379969 0.953245 0.370301
O O8 0.380425 0.972591 0.237431
O O9 0.218308 0.630454 0.056830
O O10 0.135462 0.500000 0.000000
O O11 0.178776 0.750000 0.429844
O O12 0.141791 0.612285 0.374956
O O13 0.828412 0.250000 0.187968
O O14 0.750000 0.130192 0.250000
O O15 0.500000 0.938875 0.153598
#
# Coordination Sequence:
#
# PCOD8297760 Si02
#       6
#    16  16  16  16  16  16
#     4   9  17  32  52  74  99 132 170 206 246 307
#     4  10  20  34  53  75 104 138 171 206 246 302
#     4   8  17  33  54  77  99 129 166 209 252 305
#     4  10  20  33  52  75 100 130 171 221 261 296
#     4  10  18  30  52  77 102 131 162 203 251 299
#     4  10  20  34  50  71 102 139 174 209 251 301
#
# _framework density 17.726873999999999
#
# number of rings (size 3 to 8) (size 9 to 14) (size 15 to 20)
#    0.000    2.500    1.667    2.000    0.000    2.333 
#    0.000    1.667    0.000    3.000    0.000    0.000 
#    0.000    0.000    0.000    0.000    0.000    0.000 
#
# Total GULP energy -594810.667523 kJ/mol
# GULP energy per Si atom -12391.888907 kJ/mol
# Density = 1.768653 g / cm^3
# Si number density = 17.726874 Si / 1000 Ang^3
#
#
#
# Elastic Constant Matrix: (Units=GPa)
#
#
# Indices 1 2 3 4 5 6 
#
# 1 43.2651 32.8334 35.9104 0.0000 0.0000 0.0000
# 2 32.8334 88.1569 39.1977 0.0000 0.0000 0.0000
# 3 35.9104 39.1977 136.6748 0.0000 0.0000 0.0000
# 4 0.0000 0.0000 0.0000 20.1182 0.0000 0.0000
# 5 0.0000 0.0000 0.0000 0.0000 22.9666 0.0000
# 6 0.0000 0.0000 0.0000 0.0000 0.0000 14.6474
#
#
#
# Elastic Compliance Matrix: (Units=1/GPa)
#
#
# Indices 1 2 3 4 5 6 
#
# 1 0.036727 -0.010760 -0.006564 0.000000 0.000000 0.000000
# 2 -0.010760 0.016154 -0.001806 0.000000 0.000000 0.000000
# 3 -0.006564 -0.001806 0.009559 0.000000 0.000000 0.000000
# 4 0.000000 0.000000 0.000000 0.049706 0.000000 0.000000
# 5 0.000000 0.000000 0.000000 0.000000 0.043542 0.000000
# 6 0.000000 0.000000 0.000000 0.000000 0.000000 0.068272
#
#
# Mechanical properties :
#
#
# Convention : Reuss Voigt Hill
#
# Bulk Modulus (GPa) = 41.35544 53.77554 47.56549
# Shear Modulus (GPa) = 18.49941 22.22346 20.36143
#
# Velocity S-wave (km/s) = 3.23395 3.54455 3.39281
# Velocity P-wave (km/s) = 6.10938 6.86682 6.49914
#
# Compressibility (1/GPa) = 0.02418062
#
# Stress axis : x y z
#
# Youngs Moduli (GPa) = 27.22784 61.90478 104.61238
#
# Poissons Ratio (x) = 0.66611 0.68666
# Poissons Ratio (y) = 0.29298 0.18890
# Poissons Ratio (z) = 0.17872 0.11178
#
# Static dielectric constant tensor:
#      x y z
#    x 3.030610 0.000000 0.000000 
#    y 0.000000 3.152870 0.000000 
#    z 0.000000 0.000000 3.734100 
# 
# 
# High freq. dielectric constant tensor:
#      x y z
#    x 1.656560 0.000000 0.000000 
#    y 0.000000 1.665060 0.000000 
#    z 0.000000 0.000000 1.703570 
# 
# From -- ./inp_files/44125.got.cif
#   From: 2010.03.12/outbox.cif.g09.slc.cpg/sg74_23_cif.got.tgz:44125.got - 2010.04.16 15:46:19.
