data_PCOD8297744
_publ_section_title
;
Structure prediction by ZEFSAII (Michael W. Deem and Ramdas Pophale) SiO2 
 PCOD8297744
Probable space group: I M M A
;
_chemical_formula_sum "Si O2"
_cell_formula_units_Z 88
_cell_length_a 25.648990
_cell_length_b 8.990269
_cell_length_c 20.229747
_cell_angle_alpha 90.000000
_cell_angle_beta 90.000000
_cell_angle_gamma 90.000000
_cell_volume 4664.804057
_symmetry_space_group_name_H-M "I M M A"
_symmetry_group_IT_number 74
_symmetry_cell_setting 'orthorhombic'
loop_
_space_group_symop_operation_xyz
x,y,z
-x,1/2-y,z
x,-y,-z
-x,1/2+y,-z
-x,-y,-z
x,1/2+y,-z
-x,y,z
x,1/2-y,z
1/2+x,1/2+y,1/2+z
1/2-x,-y,1/2+z
1/2+x,1/2-y,1/2-z
1/2-x,y,1/2-z
1/2-x,1/2-y,1/2-z
1/2+x,y,1/2-z
1/2-x,1/2+y,1/2+z
1/2+x,-y,1/2+z
loop_
_atom_site_type_symbol
_atom_site_label
_atom_site_fract_x
_atom_site_fract_y
_atom_site_fract_z
Si Si1 0.942071 0.926429 0.305290
Si Si2 0.750000 0.507688 0.750000
Si Si3 0.827646 0.927917 0.065065
Si Si4 0.140639 0.583415 0.204579
Si Si5 0.773977 0.084084 0.392574
Si Si6 0.620729 0.073998 0.931278
O O1 0.941811 0.750000 0.297708
O O2 0.901600 0.998794 0.251835
O O3 0.924464 0.967147 0.379300
O O4 0.000000 0.991433 0.293027
O O5 0.801597 0.410219 0.763603
O O6 0.761189 0.605192 0.685125
O O7 0.826616 0.750000 0.060583
O O8 0.858349 0.985882 0.130547
O O9 0.769182 0.990070 0.068828
O O10 0.854542 0.000000 0.000000
O O11 0.120947 0.750000 0.196649
O O12 0.777801 0.250000 0.423155
O O13 0.826617 0.994733 0.403023
O O14 0.627906 0.250000 0.939874
O O15 0.604270 0.000000 0.000000
#
# Coordination Sequence:
#
# PCOD8297744 Si02
#       6
#    16   8  16  16  16  16
#     4   9  18  34  56  80 104 134 178 226 266 308
#     4  10  18  30  50  78 107 138 171 216 265 318
#     4  10  20  33  51  76 109 143 176 212 258 316
#     4   9  17  30  52  80 106 136 174 217 263 312
#     4  11  21  33  50  76 110 144 177 215 262 316
#     4  11  22  36  54  77 105 141 179 222 267 311
#
# _framework density 18.864671999999999
#
# number of rings (size 3 to 8) (size 9 to 14) (size 15 to 20)
#    0.000    2.000    1.818    2.727    0.000    1.818 
#    0.000    0.000    0.000    2.182    0.000    0.000 
#    0.000    0.000    0.000    0.000    0.000    0.727 
#
# Total GULP energy -545250.163883 kJ/mol
# GULP energy per Si atom -12392.049179 kJ/mol
# Density = 1.882174 g / cm^3
# Si number density = 18.864672 Si / 1000 Ang^3
#
#
#
# Elastic Constant Matrix: (Units=GPa)
#
#
# Indices 1 2 3 4 5 6 
#
# 1 124.7563 21.7894 73.3034 0.0000 0.0000 0.0000
# 2 21.7894 77.1041 35.2595 0.0000 0.0000 0.0000
# 3 73.3034 35.2595 163.2369 0.0000 0.0000 0.0000
# 4 0.0000 0.0000 0.0000 23.4835 0.0000 0.0000
# 5 0.0000 0.0000 0.0000 0.0000 19.2006 0.0000
# 6 0.0000 0.0000 0.0000 0.0000 0.0000 8.9773
#
#
#
# Elastic Compliance Matrix: (Units=1/GPa)
#
#
# Indices 1 2 3 4 5 6 
#
# 1 0.010950 -0.000938 -0.004714 0.000000 0.000000 0.000000
# 2 -0.000938 0.014471 -0.002704 0.000000 0.000000 0.000000
# 3 -0.004714 -0.002704 0.008827 0.000000 0.000000 0.000000
# 4 0.000000 0.000000 0.000000 0.042583 0.000000 0.000000
# 5 0.000000 0.000000 0.000000 0.000000 0.052082 0.000000
# 6 0.000000 0.000000 0.000000 0.000000 0.000000 0.111393
#
#
# Mechanical properties :
#
#
# Convention : Reuss Voigt Hill
#
# Bulk Modulus (GPa) = 57.03274 69.53355 63.28314
# Shear Modulus (GPa) = 19.02121 25.98195 22.50158
#
# Velocity S-wave (km/s) = 3.17882 3.71520 3.45742
# Velocity P-wave (km/s) = 6.61599 7.43927 7.03968
#
# Compressibility (1/GPa) = 0.01753379
#
# Stress axis : x y z
#
# Youngs Moduli (GPa) = 91.32814 69.10179 113.28580
#
# Poissons Ratio (x) = 0.06485 0.53406
# Poissons Ratio (y) = 0.08571 0.30637
# Poissons Ratio (z) = 0.43055 0.18688
#
# Static dielectric constant tensor:
#      x y z
#    x 3.486870 0.000000 0.000000 
#    y 0.000000 3.136660 0.000000 
#    z 0.000000 0.000000 3.938590 
# 
# 
# High freq. dielectric constant tensor:
#      x y z
#    x 1.701770 0.000000 0.000000 
#    y 0.000000 1.704860 0.000000 
#    z 0.000000 0.000000 1.754570 
# 
# From -- ./inp_files/54529.got.cif
#   From: 2010.03.12/outbox.cif.g09.slc.cpg/sg74_28_cif.got.tgz:54529.got - 2010.04.16 15:46:19.
