data_PCOD8297095
_publ_section_title
;
Structure prediction by ZEFSAII (Michael W. Deem and Ramdas Pophale) SiO2 
 PCOD8297095
Probable space group: I M M A
;
_chemical_formula_sum "Si O2"
_cell_formula_units_Z 80
_cell_length_a 14.332200
_cell_length_b 18.480683
_cell_length_c 18.286141
_cell_angle_alpha 90.000000
_cell_angle_beta 90.000000
_cell_angle_gamma 90.000000
_cell_volume 4843.429044
_symmetry_space_group_name_H-M "I M M A"
_symmetry_group_IT_number 74
_symmetry_cell_setting 'orthorhombic'
loop_
_space_group_symop_operation_xyz
x,y,z
-x,1/2-y,z
x,-y,-z
-x,1/2+y,-z
-x,-y,-z
x,1/2+y,-z
-x,y,z
x,1/2-y,z
1/2+x,1/2+y,1/2+z
1/2-x,-y,1/2+z
1/2+x,1/2-y,1/2-z
1/2-x,y,1/2-z
1/2-x,1/2-y,1/2-z
1/2+x,y,1/2-z
1/2-x,1/2+y,1/2+z
1/2+x,-y,1/2+z
loop_
_atom_site_type_symbol
_atom_site_label
_atom_site_fract_x
_atom_site_fract_y
_atom_site_fract_z
Si Si1 0.304996 0.472944 0.582723
Si Si2 0.297167 0.830039 0.481915
Si Si3 0.760034 0.386222 0.364585
Si Si4 0.500000 0.016265 0.414451
Si Si5 0.500000 0.670323 0.541041
Si Si6 0.606295 0.164469 0.254815
O O1 0.315716 0.500000 0.500000
O O2 0.269402 0.389555 0.580212
O O3 0.234259 0.526308 0.625072
O O4 0.407141 0.481153 0.620950
O O5 0.268099 0.750000 0.454734
O O6 0.244301 0.845737 0.557845
O O7 0.408800 0.835643 0.490573
O O8 0.665507 0.367227 0.321489
O O9 0.852265 0.362190 0.322439
O O10 0.500000 0.104119 0.401517
O O11 0.500000 0.000000 0.500000
O O12 0.500000 0.750000 0.581734
O O13 0.500000 0.137398 0.259779
O O14 0.614256 0.250000 0.257668
#
# Coordination Sequence:
#
# PCOD8297095 Si02
#       6
#    16  16  16   8   8  16
#     4   9  16  24  40  60  85 114 140 176 211 256
#     4  10  17  25  40  64  91 116 141 172 215 263
#     4  10  18  30  45  63  87 117 147 172 207 254
#     4  10  12  24  30  52  86 112 142 164 196 244
#     4  10  16  20  32  56  86 118 144 162 200 256
#     4  10  21  33  44  62  86 114 149 183 208 239
#
# _framework density 16.517223999999999
#
# number of rings (size 3 to 8) (size 9 to 14) (size 15 to 20)
#    0.000    2.200    6.000    2.400    2.800    0.000 
#    0.000    0.000    0.000    5.400    0.000    2.800 
#    0.000    1.600    0.000    0.000    0.000    0.000 
#
# Total GULP energy -495589.473264 kJ/mol
# GULP energy per Si atom -12389.736832 kJ/mol
# Density = 1.647963 g / cm^3
# Si number density = 16.517224 Si / 1000 Ang^3
#
#
#
# Elastic Constant Matrix: (Units=GPa)
#
#
# Indices 1 2 3 4 5 6 
#
# 1 53.6690 23.0366 17.2736 0.0000 0.0000 0.0000
# 2 23.0366 152.0599 29.9985 0.0000 0.0000 0.0000
# 3 17.2736 29.9985 26.9472 0.0000 0.0000 0.0000
# 4 0.0000 0.0000 0.0000 20.7799 0.0000 0.0000
# 5 0.0000 0.0000 0.0000 0.0000 3.5742 0.0000
# 6 0.0000 0.0000 0.0000 0.0000 0.0000 17.4031
#
#
#
# Elastic Compliance Matrix: (Units=1/GPa)
#
#
# Indices 1 2 3 4 5 6 
#
# 1 0.023544 -0.000755 -0.014251 0.000000 0.000000 0.000000
# 2 -0.000755 0.008451 -0.008924 0.000000 0.000000 0.000000
# 3 -0.014251 -0.008924 0.056179 0.000000 0.000000 0.000000
# 4 0.000000 0.000000 0.000000 0.048123 0.000000 0.000000
# 5 0.000000 0.000000 0.000000 0.000000 0.279783 0.000000
# 6 0.000000 0.000000 0.000000 0.000000 0.000000 0.057461
#
#
# Mechanical properties :
#
#
# Convention : Reuss Voigt Hill
#
# Bulk Modulus (GPa) = 24.80561 41.47706 33.14134
# Shear Modulus (GPa) = 9.34858 19.17594 14.26226
#
# Velocity S-wave (km/s) = 2.38163 3.41099 2.94169
# Velocity P-wave (km/s) = 4.75537 6.37801 5.62550
#
# Compressibility (1/GPa) = 0.04031345
#
# Stress axis : x y z
#
# Youngs Moduli (GPa) = 42.47418 118.32425 17.80009
#
# Poissons Ratio (x) = 0.08937 0.25367
# Poissons Ratio (y) = 0.03208 0.15885
# Poissons Ratio (z) = 0.60530 1.05594
#
# Static dielectric constant tensor:
#      x y z
#    x 2.974880 0.000000 0.000000 
#    y 0.000000 3.678790 0.000000 
#    z 0.000000 0.000000 2.761750 
# 
# 
# High freq. dielectric constant tensor:
#      x y z
#    x 1.606330 0.000000 0.000000 
#    y 0.000000 1.649060 0.000000 
#    z 0.000000 0.000000 1.580340 
# 
# From -- ./inp_files/60225.got.cif
#   From: 2010.03.12/outbox.cif.g09.slc.cpg/sg74_31_cif.got.tgz:60225.got - 2010.04.16 15:46:19.
