data_PCOD8297536
_publ_section_title
;
Structure prediction by ZEFSAII (Michael W. Deem and Ramdas Pophale) SiO2 
 PCOD8297536
Probable space group: I M M A
;
_chemical_formula_sum "Si O2"
_cell_formula_units_Z 112
_cell_length_a 13.702131
_cell_length_b 15.756999
_cell_length_c 27.161367
_cell_angle_alpha 90.000000
_cell_angle_beta 90.000000
_cell_angle_gamma 90.000000
_cell_volume 5864.260396
_symmetry_space_group_name_H-M "I M M A"
_symmetry_group_IT_number 74
_symmetry_cell_setting 'orthorhombic'
loop_
_space_group_symop_operation_xyz
x,y,z
-x,1/2-y,z
x,-y,-z
-x,1/2+y,-z
-x,-y,-z
x,1/2+y,-z
-x,y,z
x,1/2-y,z
1/2+x,1/2+y,1/2+z
1/2-x,-y,1/2+z
1/2+x,1/2-y,1/2-z
1/2-x,y,1/2-z
1/2-x,1/2-y,1/2-z
1/2+x,y,1/2-z
1/2-x,1/2+y,1/2+z
1/2+x,-y,1/2+z
loop_
_atom_site_type_symbol
_atom_site_label
_atom_site_fract_x
_atom_site_fract_y
_atom_site_fract_z
Si Si1 0.385560 0.095034 0.660656
Si Si2 0.892612 0.349565 0.941323
Si Si3 0.615341 0.348322 0.451709
Si Si4 0.203264 0.923418 0.857208
Si Si5 0.889262 0.343669 0.228456
Si Si6 0.386805 0.018615 0.188410
Si Si7 0.615271 0.343919 0.763498
O O1 0.500000 0.116365 0.659493
O O2 0.335048 0.124581 0.608681
O O3 0.339276 0.142528 0.708487
O O4 0.366959 0.995704 0.665410
O O5 0.903728 0.250000 0.943540
O O6 0.000000 0.391683 0.938399
O O7 0.846228 0.377675 0.993840
O O8 0.500000 0.365632 0.446369
O O9 0.638353 0.250000 0.442163
O O10 0.676237 0.403452 0.413176
O O11 0.180708 0.846879 0.819577
O O12 0.317158 0.951610 0.856292
O O13 0.873273 0.250000 0.252445
O O14 0.863813 0.417947 0.266738
O O15 0.000000 0.353546 0.210232
O O16 0.500000 0.023935 0.172196
O O17 0.353842 0.922013 0.201396
O O18 0.500000 0.349010 0.758361
O O19 0.647655 0.250000 0.782945
#
# Coordination Sequence:
#
# PCOD8297536 Si02
#       7
#    16  16  16  16  16  16  16
#     4  10  18  28  47  76 105 130 161 202 247 306
#     4   8  15  29  47  70 105 140 164 195 246 308
#     4   9  18  32  50  74 104 137 171 205 248 309
#     4  12  21  30  48  71 100 134 173 211 252 296
#     4  10  20  34  52  72  98 132 168 208 254 305
#     4  10  22  38  50  68  99 133 178 224 259 298
#     4   9  17  32  53  72  97 136 173 209 254 300
#
# _framework density 19.098742000000001
#
# number of rings (size 3 to 8) (size 9 to 14) (size 15 to 20)
#    0.000    2.286    1.429    3.429    0.000    5.143 
#    0.000    4.286    0.000    0.000    0.000    2.000 
#    0.000    1.143    0.000    0.000    0.000    0.000 
#
# Total GULP energy -693768.092226 kJ/mol
# GULP energy per Si atom -12388.715933 kJ/mol
# Density = 1.905527 g / cm^3
# Si number density = 19.098742 Si / 1000 Ang^3
#
#
#
# Elastic Constant Matrix: (Units=GPa)
#
#
# Indices 1 2 3 4 5 6 
#
# 1 52.4906 9.0985 23.4750 0.0000 0.0000 0.0000
# 2 9.0985 86.3449 18.1621 0.0000 0.0000 0.0000
# 3 23.4750 18.1621 73.5574 0.0000 0.0000 0.0000
# 4 0.0000 0.0000 0.0000 26.4393 0.0000 0.0000
# 5 0.0000 0.0000 0.0000 0.0000 -4.1659 0.0000
# 6 0.0000 0.0000 0.0000 0.0000 0.0000 11.1786
#
#
#
# Elastic Compliance Matrix: (Units=1/GPa)
#
#
# Indices 1 2 3 4 5 6 
#
# 1 0.022289 -0.000899 -0.006891 0.000000 0.000000 0.000000
# 2 -0.000899 0.012252 -0.002738 0.000000 0.000000 0.000000
# 3 -0.006891 -0.002738 0.016470 0.000000 0.000000 0.000000
# 4 0.000000 0.000000 0.000000 0.037822 0.000000 0.000000
# 5 0.000000 0.000000 0.000000 0.000000 -0.240044 0.000000
# 6 0.000000 0.000000 0.000000 0.000000 0.000000 0.089457
#
#
# Mechanical properties :
#
#
# Convention : Reuss Voigt Hill
#
# Bulk Modulus (GPa) = 33.38453 34.87377 34.12915
# Shear Modulus (GPa) = -162.80402 17.46755 -72.66824
#
# Velocity S-wave (km/s) = -9.24275 3.02750 -6.17505
# Velocity P-wave (km/s) = 9.81767 5.52453 5.73874
#
# Compressibility (1/GPa) = 0.02995399
#
# Stress axis : x y z
#
# Youngs Moduli (GPa) = 44.86561 81.61811 60.71579
#
# Poissons Ratio (x) = 0.07339 0.41840
# Poissons Ratio (y) = 0.04034 0.16626
# Poissons Ratio (z) = 0.30918 0.22349
#
# Static dielectric constant tensor:
#      x y z
#    x 3.237770 0.000000 0.000000 
#    y 0.000000 3.660200 0.000000 
#    z 0.000000 0.000000 3.615480 
# 
# 
# High freq. dielectric constant tensor:
#      x y z
#    x 1.702320 0.000000 0.000000 
#    y 0.000000 1.755020 0.000000 
#    z 0.000000 0.000000 1.720380 
# 
# From -- ./inp_files/67216.got.cif
#   From: 2010.03.12/outbox.cif.g09.slc.cpg/sg74_34_cif.got.tgz:67216.got - 2010.04.16 15:46:19.
