data_PCOD8297602
_publ_section_title
;
Structure prediction by ZEFSAII (Michael W. Deem and Ramdas Pophale) SiO2 
 PCOD8297602
Probable space group: I M M A
;
_chemical_formula_sum "Si O2"
_cell_formula_units_Z 112
_cell_length_a 27.805194
_cell_length_b 17.192216
_cell_length_c 13.758959
_cell_angle_alpha 90.000000
_cell_angle_beta 90.000000
_cell_angle_gamma 90.000000
_cell_volume 6577.235088
_symmetry_space_group_name_H-M "I M M A"
_symmetry_group_IT_number 74
_symmetry_cell_setting 'orthorhombic'
loop_
_space_group_symop_operation_xyz
x,y,z
-x,1/2-y,z
x,-y,-z
-x,1/2+y,-z
-x,-y,-z
x,1/2+y,-z
-x,y,z
x,1/2-y,z
1/2+x,1/2+y,1/2+z
1/2-x,-y,1/2+z
1/2+x,1/2-y,1/2-z
1/2-x,y,1/2-z
1/2-x,1/2-y,1/2-z
1/2+x,y,1/2-z
1/2-x,1/2+y,1/2+z
1/2+x,-y,1/2+z
loop_
_atom_site_type_symbol
_atom_site_label
_atom_site_fract_x
_atom_site_fract_y
_atom_site_fract_z
Si Si1 0.053124 0.339837 0.718439
Si Si2 0.285066 0.837985 0.479142
Si Si3 0.350645 0.659527 0.314114
Si Si4 0.852821 0.658625 0.540624
Si Si5 0.701855 0.902604 0.134457
Si Si6 0.554027 0.909750 0.009508
Si Si7 0.268745 0.579472 0.856906
O O1 0.058661 0.250000 0.688484
O O2 0.093423 0.363353 0.798116
O O3 0.061077 0.388934 0.621917
O O4 0.000000 0.356001 0.763083
O O5 0.285866 0.750000 0.519154
O O6 0.335752 0.859048 0.425944
O O7 0.244722 0.844463 0.394952
O O8 0.273307 0.895272 0.568076
O O9 0.342160 0.750000 0.290842
O O10 0.316087 0.610405 0.243465
O O11 0.845570 0.750000 0.528712
O O12 0.841379 0.613525 0.440301
O O13 0.908776 0.637504 0.559856
O O14 0.817533 0.628797 0.625714
O O15 0.720712 0.989904 0.124562
O O16 0.500000 0.888880 0.974495
O O17 0.564901 0.000000 0.000000
O O18 0.250000 0.597380 0.750000
#
# Coordination Sequence:
#
# PCOD8297602 Si02
#       7
#    16  16  16  16  16  16  16
#     4   9  17  29  47  72 103 135 162 194 245 304
#     4  10  20  32  48  69  95 127 163 203 246 297
#     4  10  18  29  48  74 101 129 159 195 247 302
#     4  11  21  33  51  73 100 136 168 203 249 299
#     4  11  19  31  49  71  99 126 160 203 249 297
#     4  10  19  31  48  73 104 135 165 199 240 295
#     4  11  23  36  50  68  95 132 175 213 251 291
#
# _framework density 17.028431999999999
#
# number of rings (size 3 to 8) (size 9 to 14) (size 15 to 20)
#    0.000    1.714    1.429    6.857    0.000    3.143 
#    0.000    0.000    0.000    0.000    0.000    1.000 
#    0.000    8.000    0.000    0.000    0.000    0.000 
#
# Total GULP energy -694197.439356 kJ/mol
# GULP energy per Si atom -12396.382846 kJ/mol
# Density = 1.698967 g / cm^3
# Si number density = 17.028432 Si / 1000 Ang^3
#
#
#
# Elastic Constant Matrix: (Units=GPa)
#
#
# Indices 1 2 3 4 5 6 
#
# 1 95.8374 41.9430 52.1880 0.0000 0.0000 0.0000
# 2 41.9430 91.6124 47.9424 0.0000 0.0000 0.0000
# 3 52.1880 47.9424 82.1720 0.0000 0.0000 0.0000
# 4 0.0000 0.0000 0.0000 19.7609 0.0000 0.0000
# 5 0.0000 0.0000 0.0000 0.0000 23.6462 0.0000
# 6 0.0000 0.0000 0.0000 0.0000 0.0000 19.5925
#
#
#
# Elastic Compliance Matrix: (Units=1/GPa)
#
#
# Indices 1 2 3 4 5 6 
#
# 1 0.016497 -0.002980 -0.008739 0.000000 0.000000 0.000000
# 2 -0.002980 0.016251 -0.007589 0.000000 0.000000 0.000000
# 3 -0.008739 -0.007589 0.022148 0.000000 0.000000 0.000000
# 4 0.000000 0.000000 0.000000 0.050605 0.000000 0.000000
# 5 0.000000 0.000000 0.000000 0.000000 0.042290 0.000000
# 6 0.000000 0.000000 0.000000 0.000000 0.000000 0.051040
#
#
# Mechanical properties :
#
#
# Convention : Reuss Voigt Hill
#
# Bulk Modulus (GPa) = 61.42387 61.52984 61.47685
# Shear Modulus (GPa) = 20.58682 21.10315 20.84498
#
# Velocity S-wave (km/s) = 3.48079 3.52417 3.50255
# Velocity P-wave (km/s) = 7.23217 7.26442 7.24831
#
# Compressibility (1/GPa) = 0.01628031
#
# Stress axis : x y z
#
# Youngs Moduli (GPa) = 60.61639 61.53345 45.15142
#
# Poissons Ratio (x) = 0.18335 0.39458
# Poissons Ratio (y) = 0.18062 0.34267
# Poissons Ratio (z) = 0.52973 0.46699
#
# Static dielectric constant tensor:
#      x y z
#    x 3.552730 0.000000 0.000000 
#    y 0.000000 3.187980 0.000000 
#    z 0.000000 0.000000 2.945260 
# 
# 
# High freq. dielectric constant tensor:
#      x y z
#    x 1.662050 0.000000 0.000000 
#    y 0.000000 1.660170 0.000000 
#    z 0.000000 0.000000 1.616830 
# 
# From -- ./inp_files/37428.got.cif
#   From: 2010.03.12/outbox.cif.g09.slc.cpg/sg74_19_cif.got.tgz:37428.got - 2010.04.16 15:46:19.
