data_PCOD8297218
_publ_section_title
;
Structure prediction by ZEFSAII (Michael W. Deem and Ramdas Pophale) SiO2 
 PCOD8297218
Probable space group: I M M A
;
_chemical_formula_sum "Si O2"
_cell_formula_units_Z 128
_cell_length_a 26.028695
_cell_length_b 18.850729
_cell_length_c 18.230557
_cell_angle_alpha 90.000000
_cell_angle_beta 90.000000
_cell_angle_gamma 90.000000
_cell_volume 8945.002831
_symmetry_space_group_name_H-M "I M M A"
_symmetry_group_IT_number 74
_symmetry_cell_setting 'orthorhombic'
loop_
_space_group_symop_operation_xyz
x,y,z
-x,1/2-y,z
x,-y,-z
-x,1/2+y,-z
-x,-y,-z
x,1/2+y,-z
-x,y,z
x,1/2-y,z
1/2+x,1/2+y,1/2+z
1/2-x,-y,1/2+z
1/2+x,1/2-y,1/2-z
1/2-x,y,1/2-z
1/2-x,1/2-y,1/2-z
1/2+x,y,1/2-z
1/2-x,1/2+y,1/2+z
1/2+x,-y,1/2+z
loop_
_atom_site_type_symbol
_atom_site_label
_atom_site_fract_x
_atom_site_fract_y
_atom_site_fract_z
Si Si1 0.870404 0.332597 0.791470
Si Si2 0.557464 0.327507 0.500038
Si Si3 0.305128 0.059192 0.780991
Si Si4 0.255491 0.535807 0.074522
Si Si5 0.843199 0.975290 0.850116
Si Si6 0.851098 0.172011 0.090064
Si Si7 0.700140 0.670965 0.432638
Si Si8 0.940127 0.930661 0.132026
O O1 0.879252 0.250000 0.773901
O O2 0.840738 0.370212 0.723454
O O3 0.837816 0.347572 0.865408
O O4 0.924322 0.373966 0.804265
O O5 0.500000 0.328416 0.472317
O O6 0.570928 0.250000 0.537605
O O7 0.588314 0.334829 0.424259
O O8 0.567482 0.391707 0.554878
O O9 0.250000 0.082539 0.750000
O O10 0.298603 0.026062 0.862365
O O11 0.329864 0.996669 0.732702
O O12 0.198800 0.506410 0.093597
O O13 0.249629 0.620431 0.066136
O O14 0.276094 0.500000 0.000000
O O15 0.836561 0.890005 0.853683
O O16 0.901183 0.001935 0.868818
O O17 0.835689 0.250000 0.121934
O O18 0.828430 0.160620 0.009128
O O19 0.721583 0.750000 0.422842
O O20 0.000000 0.953728 0.143702
#
# Coordination Sequence:
#
# PCOD8297218 Si02
#       8
#    16  16  16  16  16  16  16  16
#     4  10  17  27  42  60  88 118 141 176 213 250
#     4   9  16  24  34  52  80 110 144 179 199 225
#     4   9  18  30  41  63  83 105 141 177 216 260
#     4  11  18  30  48  62  80 113 140 177 222 261
#     4  10  19  30  43  58  84 106 142 185 216 248
#     4  10  18  28  41  55  75 108 147 182 216 242
#     4  10  17  25  39  60  83 108 141 173 206 247
#     4  10  18  27  39  58  85 119 150 173 204 245
#
# _framework density 14.309666
#
# number of rings (size 3 to 8) (size 9 to 14) (size 15 to 20)
#    0.000    2.125    6.250    0.375    0.000    2.000 
#    0.000    1.250    0.000    4.125    0.000    0.000 
#    0.000    8.000    0.000    0.000    0.000   12.000 
#
# Total GULP energy -792945.741501 kJ/mol
# GULP energy per Si atom -12389.777211 kJ/mol
# Density = 1.427710 g / cm^3
# Si number density = 14.309666 Si / 1000 Ang^3
#
#
#
# Elastic Constant Matrix: (Units=GPa)
#
#
# Indices 1 2 3 4 5 6 
#
# 1 36.8500 24.6635 17.7770 0.0000 0.0000 0.0000
# 2 24.6635 93.1165 30.9790 0.0000 0.0000 0.0000
# 3 17.7770 30.9790 57.8306 0.0000 0.0000 0.0000
# 4 0.0000 0.0000 0.0000 14.2426 0.0000 0.0000
# 5 0.0000 0.0000 0.0000 0.0000 13.6221 0.0000
# 6 0.0000 0.0000 0.0000 0.0000 0.0000 12.5314
#
#
#
# Elastic Compliance Matrix: (Units=1/GPa)
#
#
# Indices 1 2 3 4 5 6 
#
# 1 0.035224 -0.006969 -0.007094 0.000000 0.000000 0.000000
# 2 -0.006969 0.014447 -0.005597 0.000000 0.000000 0.000000
# 3 -0.007094 -0.005597 0.022471 0.000000 0.000000 0.000000
# 4 0.000000 0.000000 0.000000 0.070212 0.000000 0.000000
# 5 0.000000 0.000000 0.000000 0.000000 0.073410 0.000000
# 6 0.000000 0.000000 0.000000 0.000000 0.000000 0.079800
#
#
# Mechanical properties :
#
#
# Convention : Reuss Voigt Hill
#
# Bulk Modulus (GPa) = 30.46842 37.18180 33.82511
# Shear Modulus (GPa) = 14.45817 15.70439 15.08128
#
# Velocity S-wave (km/s) = 3.18209 3.31640 3.24994
# Velocity P-wave (km/s) = 5.90249 6.38003 6.14590
#
# Compressibility (1/GPa) = 0.03282087
#
# Stress axis : x y z
#
# Youngs Moduli (GPa) = 28.38965 69.21754 44.50225
#
# Poissons Ratio (x) = 0.48241 0.31572
# Poissons Ratio (y) = 0.19786 0.24907
# Poissons Ratio (z) = 0.20141 0.38739
#
# Static dielectric constant tensor:
#      x y z
#    x 2.778660 0.000000 0.000000 
#    y 0.000000 2.982100 0.000000 
#    z 0.000000 0.000000 2.555910 
# 
# 
# High freq. dielectric constant tensor:
#      x y z
#    x 1.522530 0.000000 0.000000 
#    y 0.000000 1.555340 0.000000 
#    z 0.000000 0.000000 1.498230 
# 
# From -- ./inp_files/45629.got.cif
#   From: 2010.03.12/outbox.cif.g09.slc.cpg/sg74_23_cif.got.tgz:45629.got - 2010.04.16 15:46:19.
