data_PCOD8297599
_publ_section_title
;
Structure prediction by ZEFSAII (Michael W. Deem and Ramdas Pophale) SiO2 
 PCOD8297599
Probable space group: I M M A
;
_chemical_formula_sum "Si O2"
_cell_formula_units_Z 72
_cell_length_a 12.485107
_cell_length_b 19.588091
_cell_length_c 17.849838
_cell_angle_alpha 90.000000
_cell_angle_beta 90.000000
_cell_angle_gamma 90.000000
_cell_volume 4365.345887
_symmetry_space_group_name_H-M "I M M A"
_symmetry_group_IT_number 74
_symmetry_cell_setting 'orthorhombic'
loop_
_space_group_symop_operation_xyz
x,y,z
-x,1/2-y,z
x,-y,-z
-x,1/2+y,-z
-x,-y,-z
x,1/2+y,-z
-x,y,z
x,1/2-y,z
1/2+x,1/2+y,1/2+z
1/2-x,-y,1/2+z
1/2+x,1/2-y,1/2-z
1/2-x,y,1/2-z
1/2-x,1/2-y,1/2-z
1/2+x,y,1/2-z
1/2-x,1/2+y,1/2+z
1/2+x,-y,1/2+z
loop_
_atom_site_type_symbol
_atom_site_label
_atom_site_fract_x
_atom_site_fract_y
_atom_site_fract_z
Si Si1 0.378624 0.108701 0.129345
Si Si2 0.305074 0.397018 0.481185
Si Si3 0.624056 0.250000 0.451715
Si Si4 0.750000 0.523591 0.750000
Si Si5 0.377931 0.484374 0.613979
Si Si6 0.800393 0.250000 0.329993
O O1 0.500000 0.084061 0.116774
O O2 0.316183 0.100873 0.050455
O O3 0.326001 0.067595 0.197062
O O4 0.376927 0.186781 0.154261
O O5 0.347311 0.320009 0.495774
O O6 0.308914 0.434950 0.560616
O O7 0.376232 0.438221 0.419400
O O8 0.500000 0.250000 0.430717
O O9 0.692257 0.250000 0.377312
O O10 0.673515 0.478514 0.696569
O O11 0.500000 0.459021 0.617758
O O12 0.750000 0.250000 0.250000
#
# Coordination Sequence:
#
# PCOD8297599 Si02
#       6
#    16  16   8   8  16   8
#     4  10  19  32  46  66  98 129 156 197 236 276
#     4   9  19  32  49  72  94 121 166 192 234 294
#     4  10  18  29  48  72  94 117 154 202 233 272
#     4  10  20  31  46  71  92 118 170 194 232 296
#     4  10  18  33  51  69  97 128 153 197 243 280
#     4  10  19  31  40  68  98 130 164 181 224 291
#
# _framework density 16.493538999999998
#
# number of rings (size 3 to 8) (size 9 to 14) (size 15 to 20)
#    0.000    2.222    1.111    3.667    0.000    0.889 
#    0.000   10.000    0.000    0.667    0.000    0.000 
#    0.000    0.000    0.000    0.000    0.000    0.000 
#
# Total GULP energy -446208.235481 kJ/mol
# GULP energy per Si atom -12394.673208 kJ/mol
# Density = 1.645600 g / cm^3
# Si number density = 16.493539 Si / 1000 Ang^3
#
#
#
# Elastic Constant Matrix: (Units=GPa)
#
#
# Indices 1 2 3 4 5 6 
#
# 1 124.5572 25.6874 41.8887 0.0000 0.0000 0.0000
# 2 25.6874 82.3970 40.1029 0.0000 0.0000 0.0000
# 3 41.8887 40.1029 96.9784 0.0000 0.0000 0.0000
# 4 0.0000 0.0000 0.0000 12.8639 0.0000 0.0000
# 5 0.0000 0.0000 0.0000 0.0000 17.5922 0.0000
# 6 0.0000 0.0000 0.0000 0.0000 0.0000 11.7906
#
#
#
# Elastic Compliance Matrix: (Units=1/GPa)
#
#
# Indices 1 2 3 4 5 6 
#
# 1 0.009488 -0.001206 -0.003599 0.000000 0.000000 0.000000
# 2 -0.001206 0.015348 -0.005826 0.000000 0.000000 0.000000
# 3 -0.003599 -0.005826 0.014275 0.000000 0.000000 0.000000
# 4 0.000000 0.000000 0.000000 0.077737 0.000000 0.000000
# 5 0.000000 0.000000 0.000000 0.000000 0.056843 0.000000
# 6 0.000000 0.000000 0.000000 0.000000 0.000000 0.084813
#
#
# Mechanical properties :
#
#
# Convention : Reuss Voigt Hill
#
# Bulk Modulus (GPa) = 56.02696 57.69896 56.86296
# Shear Modulus (GPa) = 17.49992 21.53293 19.51642
#
# Velocity S-wave (km/s) = 3.26086 3.61714 3.44361
# Velocity P-wave (km/s) = 6.94409 7.24594 7.09662
#
# Compressibility (1/GPa) = 0.01784855
#
# Stress axis : x y z
#
# Youngs Moduli (GPa) = 105.40061 65.15616 70.05066
#
# Poissons Ratio (x) = 0.07857 0.25214
# Poissons Ratio (y) = 0.12711 0.40810
# Poissons Ratio (z) = 0.37938 0.37959
#
# Static dielectric constant tensor:
#      x y z
#    x 3.035600 0.000000 0.000000 
#    y 0.000000 3.200840 0.000000 
#    z 0.000000 0.000000 2.962830 
# 
# 
# High freq. dielectric constant tensor:
#      x y z
#    x 1.639750 0.000000 0.000000 
#    y 0.000000 1.621820 0.000000 
#    z 0.000000 0.000000 1.615980 
# 
# From -- ./inp_files/41152.got.cif
#   From: 2010.03.12/outbox.cif.g09.slc.cpg/sg74_21_cif.got.tgz:41152.got - 2010.04.16 15:46:19.
