data_PCOD8297448
_publ_section_title
;
Structure prediction by ZEFSAII (Michael W. Deem and Ramdas Pophale) SiO2 
 PCOD8297448
Probable space group: I M M A
;
_chemical_formula_sum "Si O2"
_cell_formula_units_Z 96
_cell_length_a 14.110832
_cell_length_b 14.179840
_cell_length_c 30.162784
_cell_angle_alpha 90.000000
_cell_angle_beta 90.000000
_cell_angle_gamma 90.000000
_cell_volume 6035.251544
_symmetry_space_group_name_H-M "I M M A"
_symmetry_group_IT_number 74
_symmetry_cell_setting 'orthorhombic'
loop_
_space_group_symop_operation_xyz
x,y,z
-x,1/2-y,z
x,-y,-z
-x,1/2+y,-z
-x,-y,-z
x,1/2+y,-z
-x,y,z
x,1/2-y,z
1/2+x,1/2+y,1/2+z
1/2-x,-y,1/2+z
1/2+x,1/2-y,1/2-z
1/2-x,y,1/2-z
1/2-x,1/2-y,1/2-z
1/2+x,y,1/2-z
1/2-x,1/2+y,1/2+z
1/2+x,-y,1/2+z
loop_
_atom_site_type_symbol
_atom_site_label
_atom_site_fract_x
_atom_site_fract_y
_atom_site_fract_z
Si Si1 0.890586 0.142028 0.573383
Si Si2 0.251365 0.990720 0.592437
Si Si3 0.258012 0.361479 0.322811
Si Si4 0.279050 0.647681 0.986804
Si Si5 0.396265 0.418839 0.535030
Si Si6 0.104227 0.861475 0.746238
O O1 0.871845 0.250000 0.588657
O O2 0.862764 0.129315 0.521869
O O3 0.000000 0.114738 0.579494
O O4 0.827186 0.070823 0.603260
O O5 0.266376 0.919791 0.632505
O O6 0.215356 0.933595 0.549454
O O7 0.351960 0.039271 0.580691
O O8 0.262770 0.250000 0.333437
O O9 0.160551 0.389419 0.298183
O O10 0.343260 0.394632 0.290855
O O11 0.292381 0.750000 0.963939
O O12 0.179077 0.652732 0.013462
O O13 0.413530 0.500000 0.500000
O O14 0.500000 0.372406 0.545333
O O15 0.097910 0.750000 0.748173
O O16 0.000000 0.907859 0.744372
#
# Coordination Sequence:
#
# PCOD8297448 Si02
#       6
#    16  16  16  16  16  16
#     4   9  18  32  46  59  81 116 152 180 210 251
#     4  10  18  27  43  66  88 109 141 186 222 249
#     4   9  17  28  43  65  91 116 141 171 211 258
#     4   9  17  28  42  61  86 116 146 176 215 259
#     4   8  15  27  39  53  79 114 147 177 209 244
#     4   8  15  29  45  60  85 120 148 168 200 255
#
# _framework density 15.906544999999999
#
# number of rings (size 3 to 8) (size 9 to 14) (size 15 to 20)
#    0.000    3.167    0.000    3.000    0.000    3.000 
#    0.000    0.000    0.000    8.000    0.000    2.333 
#    0.000    1.333    0.000    0.000    0.000    0.000 
#
# Total GULP energy -594746.019631 kJ/mol
# GULP energy per Si atom -12390.542076 kJ/mol
# Density = 1.587034 g / cm^3
# Si number density = 15.906545 Si / 1000 Ang^3
#
#
#
# Elastic Constant Matrix: (Units=GPa)
#
#
# Indices 1 2 3 4 5 6 
#
# 1 112.0078 20.2137 25.9709 0.0000 0.0000 0.0000
# 2 20.2137 51.0083 18.7729 0.0000 0.0000 0.0000
# 3 25.9709 18.7729 67.9397 0.0000 0.0000 0.0000
# 4 0.0000 0.0000 0.0000 24.2530 0.0000 0.0000
# 5 0.0000 0.0000 0.0000 0.0000 8.8442 0.0000
# 6 0.0000 0.0000 0.0000 0.0000 0.0000 15.4879
#
#
#
# Elastic Compliance Matrix: (Units=1/GPa)
#
#
# Indices 1 2 3 4 5 6 
#
# 1 0.010166 -0.002892 -0.003087 0.000000 0.000000 0.000000
# 2 -0.002892 0.022647 -0.005152 0.000000 0.000000 0.000000
# 3 -0.003087 -0.005152 0.017322 0.000000 0.000000 0.000000
# 4 0.000000 0.000000 0.000000 0.041232 0.000000 0.000000
# 5 0.000000 0.000000 0.000000 0.000000 0.113068 0.000000
# 6 0.000000 0.000000 0.000000 0.000000 0.000000 0.064567
#
#
# Mechanical properties :
#
#
# Convention : Reuss Voigt Hill
#
# Bulk Modulus (GPa) = 35.87747 40.09675 37.98711
# Shear Modulus (GPa) = 16.63587 20.78358 18.70972
#
# Velocity S-wave (km/s) = 3.23747 3.61862 3.43334
# Velocity P-wave (km/s) = 6.04806 6.53618 6.29685
#
# Compressibility (1/GPa) = 0.02787265
#
# Stress axis : x y z
#
# Youngs Moduli (GPa) = 98.37061 44.15591 57.72845
#
# Poissons Ratio (x) = 0.12772 0.17819
# Poissons Ratio (y) = 0.28453 0.29742
# Poissons Ratio (z) = 0.30364 0.22750
#
# Static dielectric constant tensor:
#      x y z
#    x 3.568510 0.000000 0.000000 
#    y 0.000000 2.907400 0.000000 
#    z 0.000000 0.000000 2.706200 
# 
# 
# High freq. dielectric constant tensor:
#      x y z
#    x 1.619830 0.000000 0.000000 
#    y 0.000000 1.591390 0.000000 
#    z 0.000000 0.000000 1.575750 
# 
# From -- ./inp_files/72605.got.cif
#   From: 2010.03.12/outbox.cif.g09.slc.cpg/sg74_37_cif.got.tgz:72605.got - 2010.04.16 15:46:19.
