data_PCOD8297523
_publ_section_title
;
Structure prediction by ZEFSAII (Michael W. Deem and Ramdas Pophale) SiO2 
 PCOD8297523
Probable space group: I M M A
;
_chemical_formula_sum "Si O2"
_cell_formula_units_Z 112
_cell_length_a 14.121120
_cell_length_b 15.059691
_cell_length_c 25.979271
_cell_angle_alpha 90.000000
_cell_angle_beta 90.000000
_cell_angle_gamma 90.000000
_cell_volume 5524.744075
_symmetry_space_group_name_H-M "I M M A"
_symmetry_group_IT_number 74
_symmetry_cell_setting 'orthorhombic'
loop_
_space_group_symop_operation_xyz
x,y,z
-x,1/2-y,z
x,-y,-z
-x,1/2+y,-z
-x,-y,-z
x,1/2+y,-z
-x,y,z
x,1/2-y,z
1/2+x,1/2+y,1/2+z
1/2-x,-y,1/2+z
1/2+x,1/2-y,1/2-z
1/2-x,y,1/2-z
1/2-x,1/2-y,1/2-z
1/2+x,y,1/2-z
1/2-x,1/2+y,1/2+z
1/2+x,-y,1/2+z
loop_
_atom_site_type_symbol
_atom_site_label
_atom_site_fract_x
_atom_site_fract_y
_atom_site_fract_z
Si Si1 0.390903 0.645391 0.865624
Si Si2 0.612619 0.469015 0.232071
Si Si3 0.392693 0.847381 0.677822
Si Si4 0.888572 0.152932 0.772664
Si Si5 0.105607 0.850219 0.005249
Si Si6 0.890332 0.086413 0.884212
Si Si7 0.286584 0.413461 0.412934
O O1 0.500000 0.626574 0.879817
O O2 0.376064 0.750000 0.853794
O O3 0.354442 0.584844 0.818070
O O4 0.325872 0.609466 0.912616
O O5 0.500000 0.466363 0.233766
O O6 0.652314 0.417965 0.282302
O O7 0.650373 0.571625 0.236557
O O8 0.500000 0.874996 0.664709
O O9 0.389327 0.750000 0.703745
O O10 0.335602 0.841743 0.624467
O O11 0.847159 0.250000 0.755589
O O12 0.863712 0.139426 0.832732
O O13 0.000000 0.154900 0.765772
O O14 0.115908 0.750000 0.986238
O O15 0.126747 0.852360 0.065990
O O16 0.000000 0.886608 0.994178
O O17 0.177973 0.909009 0.971861
O O18 0.000000 0.053276 0.881693
O O19 0.815809 0.007055 0.888758
#
# Coordination Sequence:
#
# PCOD8297523 Si02
#       7
#    16  16  16  16  16  16  16
#     4  10  22  39  56  74 101 140 185 232 281 326
#     4   9  17  32  51  73 103 140 181 221 263 315
#     4  10  18  28  45  72 107 140 168 205 256 317
#     4   9  16  29  52  79 108 145 183 216 255 310
#     4  10  20  33  52  81 115 149 181 212 254 317
#     4  10  19  33  52  79 115 150 177 206 257 325
#     4  12  21  32  51  77 108 140 182 221 266 318
#
# _framework density 20.272431999999998
#
# number of rings (size 3 to 8) (size 9 to 14) (size 15 to 20)
#    0.000    2.000    1.429    3.857    0.000    6.286 
#    0.000    1.429    0.000    4.286    0.000    0.000 
#    0.000    0.000    0.000    0.000    0.000    0.000 
#
# Total GULP energy -693931.321361 kJ/mol
# GULP energy per Si atom -12391.630739 kJ/mol
# Density = 2.022629 g / cm^3
# Si number density = 20.272432 Si / 1000 Ang^3
#
#
#
# Elastic Constant Matrix: (Units=GPa)
#
#
# Indices 1 2 3 4 5 6 
#
# 1 79.3828 20.4233 24.7975 0.0000 0.0000 0.0000
# 2 20.4233 127.8920 24.4936 0.0000 0.0000 0.0000
# 3 24.7975 24.4936 63.8475 0.0000 0.0000 0.0000
# 4 0.0000 0.0000 0.0000 21.8858 0.0000 0.0000
# 5 0.0000 0.0000 0.0000 0.0000 17.0744 0.0000
# 6 0.0000 0.0000 0.0000 0.0000 0.0000 10.9155
#
#
#
# Elastic Compliance Matrix: (Units=1/GPa)
#
#
# Indices 1 2 3 4 5 6 
#
# 1 0.014546 -0.001339 -0.005136 0.000000 0.000000 0.000000
# 2 -0.001339 0.008562 -0.002765 0.000000 0.000000 0.000000
# 3 -0.005136 -0.002765 0.018718 0.000000 0.000000 0.000000
# 4 0.000000 0.000000 0.000000 0.045692 0.000000 0.000000
# 5 0.000000 0.000000 0.000000 0.000000 0.058567 0.000000
# 6 0.000000 0.000000 0.000000 0.000000 0.000000 0.091613
#
#
# Mechanical properties :
#
#
# Convention : Reuss Voigt Hill
#
# Bulk Modulus (GPa) = 42.83241 45.61677 44.22459
# Shear Modulus (GPa) = 18.94232 23.40234 21.17233
#
# Velocity S-wave (km/s) = 3.06009 3.40132 3.23521
# Velocity P-wave (km/s) = 5.80171 6.16247 5.98481
#
# Compressibility (1/GPa) = 0.02334681
#
# Stress axis : x y z
#
# Youngs Moduli (GPa) = 68.74725 116.78904 53.42588
#
# Poissons Ratio (x) = 0.15642 0.27438
# Poissons Ratio (y) = 0.09207 0.14770
# Poissons Ratio (z) = 0.35306 0.32288
#
# Static dielectric constant tensor:
#      x y z
#    x 3.503560 0.000000 0.000000 
#    y 0.000000 3.998480 0.000000 
#    z 0.000000 0.000000 3.515420 
# 
# 
# High freq. dielectric constant tensor:
#      x y z
#    x 1.765080 0.000000 0.000000 
#    y 0.000000 1.802310 0.000000 
#    z 0.000000 0.000000 1.764800 
# 
# From -- ./inp_files/72673.got.cif
#   From: 2010.03.12/outbox.cif.g09.slc.cpg/sg74_37_cif.got.tgz:72673.got - 2010.04.16 15:46:19.
