data_PCOD8297400
_publ_section_title
;
Structure prediction by ZEFSAII (Michael W. Deem and Ramdas Pophale) SiO2 
 PCOD8297400
Probable space group: I M M A
;
_chemical_formula_sum "Si O2"
_cell_formula_units_Z 96
_cell_length_a 7.970265
_cell_length_b 30.061373
_cell_length_c 33.157429
_cell_angle_alpha 90.000000
_cell_angle_beta 90.000000
_cell_angle_gamma 90.000000
_cell_volume 7944.424133
_symmetry_space_group_name_H-M "I M M A"
_symmetry_group_IT_number 74
_symmetry_cell_setting 'orthorhombic'
loop_
_space_group_symop_operation_xyz
x,y,z
-x,1/2-y,z
x,-y,-z
-x,1/2+y,-z
-x,-y,-z
x,1/2+y,-z
-x,y,z
x,1/2-y,z
1/2+x,1/2+y,1/2+z
1/2-x,-y,1/2+z
1/2+x,1/2-y,1/2-z
1/2-x,y,1/2-z
1/2-x,1/2-y,1/2-z
1/2+x,y,1/2-z
1/2-x,1/2+y,1/2+z
1/2+x,-y,1/2+z
loop_
_atom_site_type_symbol
_atom_site_label
_atom_site_fract_x
_atom_site_fract_y
_atom_site_fract_z
Si Si1 0.191099 0.153780 0.127661
Si Si2 0.500000 0.015957 0.064833
Si Si3 0.808042 0.200157 0.448687
Si Si4 0.187034 0.064046 0.090248
Si Si5 0.316397 0.882480 0.507781
Si Si6 0.697017 0.800516 0.793845
Si Si7 0.000000 0.429323 0.517748
O O1 0.301134 0.183738 0.097661
O O2 0.235336 0.101405 0.123461
O O3 0.217227 0.167805 0.173617
O O4 0.000000 0.161107 0.114297
O O5 0.331466 0.026324 0.090744
O O6 0.500000 0.963848 0.054597
O O7 0.500000 0.045378 0.024664
O O8 0.734439 0.250000 0.451661
O O9 0.706591 0.168692 0.479115
O O10 0.000000 0.199046 0.462325
O O11 0.000000 0.043776 0.098660
O O12 0.186716 0.087284 0.047109
O O13 0.500000 0.886953 0.486612
O O14 0.167142 0.898841 0.478349
O O15 0.500000 0.803069 0.799336
O O16 0.762571 0.750000 0.799572
O O17 0.750000 0.818348 0.750000
#
# Coordination Sequence:
#
# PCOD8297400 Si02
#       7
#    16   8  16  16  16  16   8
#     4  10  19  28  39  53  68  85 105 132 165 202
#     4   9  16  24  40  50  66  88 100 128 158 188
#     4  10  18  26  37  52  68  86 111 140 166 197
#     4   8  16  26  36  53  68  81 104 129 156 192
#     4   9  16  26  37  48  67  88 106 132 159 190
#     4  10  20  31  41  52  66  85 108 134 163 199
#     4   9  16  26  35  52  66  84 109 124 156 195
#
# _framework density 12.083947
#
# number of rings (size 3 to 8) (size 9 to 14) (size 15 to 20)
#    0.000    2.667    0.833    3.000    4.667    5.000 
#    0.000    3.333    0.000    0.000    0.000    0.000 
#    0.000    0.000    0.000    0.000    0.000    0.000 
#
# Total GULP energy -594979.371715 kJ/mol
# GULP energy per Si atom -12395.403577 kJ/mol
# Density = 1.205644 g / cm^3
# Si number density = 12.083947 Si / 1000 Ang^3
#
#
#
# Elastic Constant Matrix: (Units=GPa)
#
#
# Indices 1 2 3 4 5 6 
#
# 1 81.7567 38.7918 22.5191 0.0000 0.0000 0.0000
# 2 38.7918 61.9395 32.2882 0.0000 0.0000 0.0000
# 3 22.5191 32.2882 29.5820 0.0000 0.0000 0.0000
# 4 0.0000 0.0000 0.0000 18.2646 0.0000 0.0000
# 5 0.0000 0.0000 0.0000 0.0000 11.5818 0.0000
# 6 0.0000 0.0000 0.0000 0.0000 0.0000 12.7256
#
#
#
# Elastic Compliance Matrix: (Units=1/GPa)
#
#
# Indices 1 2 3 4 5 6 
#
# 1 0.017529 -0.009332 -0.003159 0.000000 0.000000 0.000000
# 2 -0.009332 0.042424 -0.039202 0.000000 0.000000 0.000000
# 3 -0.003159 -0.039202 0.078997 0.000000 0.000000 0.000000
# 4 0.000000 0.000000 0.000000 0.054751 0.000000 0.000000
# 5 0.000000 0.000000 0.000000 0.000000 0.086343 0.000000
# 6 0.000000 0.000000 0.000000 0.000000 0.000000 0.078582
#
#
# Mechanical properties :
#
#
# Convention : Reuss Voigt Hill
#
# Bulk Modulus (GPa) = 28.11657 40.05297 34.08477
# Shear Modulus (GPa) = 10.55153 13.82633 12.18893
#
# Velocity S-wave (km/s) = 2.95818 3.38626 3.17943
# Velocity P-wave (km/s) = 5.91489 6.96466 6.46113
#
# Compressibility (1/GPa) = 0.03556622
#
# Stress axis : x y z
#
# Youngs Moduli (GPa) = 57.04797 23.57131 12.65876
#
# Poissons Ratio (x) = 0.21996 0.03998
# Poissons Ratio (y) = 0.53236 0.49625
# Poissons Ratio (z) = 0.18019 0.92404
#
# Static dielectric constant tensor:
#      x y z
#    x 2.775430 0.000000 0.000000 
#    y 0.000000 2.446070 0.000000 
#    z 0.000000 0.000000 2.164860 
# 
# 
# High freq. dielectric constant tensor:
#      x y z
#    x 1.481880 0.000000 0.000000 
#    y 0.000000 1.433810 0.000000 
#    z 0.000000 0.000000 1.395290 
# 
# From -- ./inp_files/71105.got.cif
#   From: 2010.03.12/outbox.cif.g09.slc.cpg/sg74_36_cif.got.tgz:71105.got - 2010.04.16 15:46:19.
