data_PCOD8297217
_publ_section_title
;
Structure prediction by ZEFSAII (Michael W. Deem and Ramdas Pophale) SiO2 
 PCOD8297217
Probable space group: I M M A
;
_chemical_formula_sum "Si O2"
_cell_formula_units_Z 80
_cell_length_a 8.584621
_cell_length_b 26.738615
_cell_length_c 23.961098
_cell_angle_alpha 90.000000
_cell_angle_beta 90.000000
_cell_angle_gamma 90.000000
_cell_volume 5500.051421
_symmetry_space_group_name_H-M "I M M A"
_symmetry_group_IT_number 74
_symmetry_cell_setting 'orthorhombic'
loop_
_space_group_symop_operation_xyz
x,y,z
-x,1/2-y,z
x,-y,-z
-x,1/2+y,-z
-x,-y,-z
x,1/2+y,-z
-x,y,z
x,1/2-y,z
1/2+x,1/2+y,1/2+z
1/2-x,-y,1/2+z
1/2+x,1/2-y,1/2-z
1/2-x,y,1/2-z
1/2-x,1/2-y,1/2-z
1/2+x,y,1/2-z
1/2-x,1/2+y,1/2+z
1/2+x,-y,1/2+z
loop_
_atom_site_type_symbol
_atom_site_label
_atom_site_fract_x
_atom_site_fract_y
_atom_site_fract_z
Si Si1 0.818740 0.547435 0.884691
Si Si2 0.681699 0.307394 0.402168
Si Si3 0.318160 0.617482 0.976632
Si Si4 0.816527 0.377987 0.309049
Si Si5 0.322932 0.534462 0.054095
O O1 0.765724 0.568614 0.824453
O O2 0.780890 0.488441 0.895228
O O3 0.000000 0.557746 0.894475
O O4 0.713335 0.578470 0.927302
O O5 0.500000 0.313531 0.389844
O O6 0.733325 0.250000 0.404070
O O7 0.722356 0.332027 0.462753
O O8 0.776714 0.334854 0.353580
O O9 0.500000 0.630257 0.977657
O O10 0.268758 0.590663 0.035369
O O11 0.750000 0.360017 0.250000
O O12 0.000000 0.385540 0.305678
O O13 0.500000 0.536013 0.075012
O O14 0.304165 0.500000 0.000000
#
# Coordination Sequence:
#
# PCOD8297217 Si02
#       5
#    16  16  16  16  16
#     4  10  17  25  39  58  77  96 120 150 187 230
#     4  10  20  32  44  58  76  98 128 166 204 239
#     4   9  16  26  40  56  75  98 123 152 187 228
#     4  11  21  33  46  57  73  97 128 166 203 238
#     4   8  14  24  37  55  77  98 119 145 181 224
#
# _framework density 14.545318999999999
#
# number of rings (size 3 to 8) (size 9 to 14) (size 15 to 20)
#    0.000    2.400    0.000    8.400    0.000    6.400 
#    0.000    0.000    0.000    0.000    0.000    0.000 
#    0.000    0.000    0.000    0.000    0.000    1.000 
#
# Total GULP energy -495541.409848 kJ/mol
# GULP energy per Si atom -12388.535246 kJ/mol
# Density = 1.451221 g / cm^3
# Si number density = 14.545319 Si / 1000 Ang^3
#
#
#
# Elastic Constant Matrix: (Units=GPa)
#
#
# Indices 1 2 3 4 5 6 
#
# 1 56.4992 32.1654 20.4590 0.0000 0.0000 0.0000
# 2 32.1654 85.7563 50.3567 0.0000 0.0000 0.0000
# 3 20.4590 50.3567 31.6803 0.0000 0.0000 0.0000
# 4 0.0000 0.0000 0.0000 16.0721 0.0000 0.0000
# 5 0.0000 0.0000 0.0000 0.0000 18.4895 0.0000
# 6 0.0000 0.0000 0.0000 0.0000 0.0000 22.4254
#
#
#
# Elastic Compliance Matrix: (Units=1/GPa)
#
#
# Indices 1 2 3 4 5 6 
#
# 1 0.023113 0.001435 -0.017208 0.000000 0.000000 0.000000
# 2 0.001435 0.175132 -0.279304 0.000000 0.000000 0.000000
# 3 -0.017208 -0.279304 0.486640 0.000000 0.000000 0.000000
# 4 0.000000 0.000000 0.000000 0.062220 0.000000 0.000000
# 5 0.000000 0.000000 0.000000 0.000000 0.054085 0.000000
# 6 0.000000 0.000000 0.000000 0.000000 0.000000 0.044592
#
#
# Mechanical properties :
#
#
# Convention : Reuss Voigt Hill
#
# Bulk Modulus (GPa) = 10.55609 42.21089 26.38349
# Shear Modulus (GPa) = 3.40713 16.12771 9.76742
#
# Velocity S-wave (km/s) = 1.53216 3.33346 2.59417
# Velocity P-wave (km/s) = 3.22539 6.62565 5.21068
#
# Compressibility (1/GPa) = 0.09473208
#
# Stress axis : x y z
#
# Youngs Moduli (GPa) = 43.26485 5.70998 2.05491
#
# Poissons Ratio (x) = -0.00819 0.03536
# Poissons Ratio (y) = -0.06209 0.57394
# Poissons Ratio (z) = 0.74449 1.59482
#
# Static dielectric constant tensor:
#      x y z
#    x 2.847620 0.000000 0.000000 
#    y 0.000000 3.154910 0.000000 
#    z 0.000000 0.000000 2.867520 
# 
# 
# High freq. dielectric constant tensor:
#      x y z
#    x 1.570960 0.000000 0.000000 
#    y 0.000000 1.535540 0.000000 
#    z 0.000000 0.000000 1.507370 
# 
# From -- ./inp_files/49395.got.cif
#   From: 2010.03.12/outbox.cif.g09.slc.cpg/sg74_25_cif.got.tgz:49395.got - 2010.04.16 15:46:19.
