data_PCOD8297433
_publ_section_title
;
Structure prediction by ZEFSAII (Michael W. Deem and Ramdas Pophale) SiO2 
 PCOD8297433
Probable space group: I M M A
;
_chemical_formula_sum "Si O2"
_cell_formula_units_Z 96
_cell_length_a 14.804604
_cell_length_b 14.179714
_cell_length_c 26.587127
_cell_angle_alpha 90.000000
_cell_angle_beta 90.000000
_cell_angle_gamma 90.000000
_cell_volume 5581.303981
_symmetry_space_group_name_H-M "I M M A"
_symmetry_group_IT_number 74
_symmetry_cell_setting 'orthorhombic'
loop_
_space_group_symop_operation_xyz
x,y,z
-x,1/2-y,z
x,-y,-z
-x,1/2+y,-z
-x,-y,-z
x,1/2+y,-z
-x,y,z
x,1/2-y,z
1/2+x,1/2+y,1/2+z
1/2-x,-y,1/2+z
1/2+x,1/2-y,1/2-z
1/2-x,y,1/2-z
1/2-x,1/2-y,1/2-z
1/2+x,y,1/2-z
1/2-x,1/2+y,1/2+z
1/2+x,-y,1/2+z
loop_
_atom_site_type_symbol
_atom_site_label
_atom_site_fract_x
_atom_site_fract_y
_atom_site_fract_z
Si Si1 0.644799 0.143275 0.760185
Si Si2 0.780369 0.361346 0.917603
Si Si3 0.393212 0.147005 0.380684
Si Si4 0.399230 0.360930 0.492611
Si Si5 0.599862 0.137854 0.871701
Si Si6 0.398878 0.544045 0.337210
O O1 0.607435 0.250000 0.753823
O O2 0.750000 0.140915 0.750000
O O3 0.621887 0.102866 0.815263
O O4 0.597373 0.073490 0.720858
O O5 0.776531 0.250000 0.923311
O O6 0.829618 0.406284 0.966637
O O7 0.677428 0.400223 0.910028
O O8 0.836684 0.383933 0.867587
O O9 0.500000 0.158419 0.381706
O O10 0.351814 0.250000 0.365285
O O11 0.361376 0.117402 0.436875
O O12 0.362030 0.064039 0.342839
O O13 0.500000 0.403844 0.500804
O O14 0.404970 0.250000 0.501064
O O15 0.500000 0.101344 0.888165
O O16 0.602430 0.250000 0.871423
O O17 0.500000 0.548730 0.359713
#
# Coordination Sequence:
#
# PCOD8297433 Si02
#       6
#    16  16  16  16  16  16
#     4  10  18  30  44  62  94 125 146 175 214 262
#     4  10  18  27  40  64  94 119 148 183 214 257
#     4   8  16  31  46  62  88 120 151 181 217 264
#     4   8  14  26  43  62  90 123 145 171 217 265
#     4   9  17  29  43  58  84 124 156 177 210 255
#     4  11  20  27  43  68  90 119 152 181 216 260
#
# _framework density 17.200281
#
# number of rings (size 3 to 8) (size 9 to 14) (size 15 to 20)
#    0.000    2.667    1.667    2.500    0.000    3.333 
#    0.000    2.500    0.000    0.500    0.000    2.333 
#    0.000    2.000    0.000    0.000    0.000    0.000 
#
# Total GULP energy -594759.361305 kJ/mol
# GULP energy per Si atom -12390.820027 kJ/mol
# Density = 1.716113 g / cm^3
# Si number density = 17.200281 Si / 1000 Ang^3
#
#
#
# Elastic Constant Matrix: (Units=GPa)
#
#
# Indices 1 2 3 4 5 6 
#
# 1 91.3158 14.9483 26.7635 0.0000 0.0000 0.0000
# 2 14.9483 46.3452 33.2794 0.0000 0.0000 0.0000
# 3 26.7635 33.2794 66.2680 0.0000 0.0000 0.0000
# 4 0.0000 0.0000 0.0000 12.3556 0.0000 0.0000
# 5 0.0000 0.0000 0.0000 0.0000 4.4520 0.0000
# 6 0.0000 0.0000 0.0000 0.0000 0.0000 7.4497
#
#
#
# Elastic Compliance Matrix: (Units=1/GPa)
#
#
# Indices 1 2 3 4 5 6 
#
# 1 0.012433 -0.000633 -0.004704 0.000000 0.000000 0.000000
# 2 -0.000633 0.033779 -0.016708 0.000000 0.000000 0.000000
# 3 -0.004704 -0.016708 0.025381 0.000000 0.000000 0.000000
# 4 0.000000 0.000000 0.000000 0.080935 0.000000 0.000000
# 5 0.000000 0.000000 0.000000 0.000000 0.224618 0.000000
# 6 0.000000 0.000000 0.000000 0.000000 0.000000 0.134234
#
#
# Mechanical properties :
#
#
# Convention : Reuss Voigt Hill
#
# Bulk Modulus (GPa) = 36.35842 39.32350 37.84096
# Shear Modulus (GPa) = 8.85525 13.44730 11.15128
#
# Velocity S-wave (km/s) = 2.27145 2.79911 2.54897
# Velocity P-wave (km/s) = 5.29750 5.77568 5.54175
#
# Compressibility (1/GPa) = 0.02750395
#
# Stress axis : x y z
#
# Youngs Moduli (GPa) = 80.43018 29.60417 39.40013
#
# Poissons Ratio (x) = 0.01873 0.18532
# Poissons Ratio (y) = 0.05088 0.65830
# Poissons Ratio (z) = 0.37831 0.49463
#
# Static dielectric constant tensor:
#      x y z
#    x 3.415800 0.000000 0.000000 
#    y 0.000000 3.106630 0.000000 
#    z 0.000000 0.000000 3.250890 
# 
# 
# High freq. dielectric constant tensor:
#      x y z
#    x 1.644910 0.000000 0.000000 
#    y 0.000000 1.633300 0.000000 
#    z 0.000000 0.000000 1.647820 
# 
# From -- ./inp_files/72600.got.cif
#   From: 2010.03.12/outbox.cif.g09.slc.cpg/sg74_37_cif.got.tgz:72600.got - 2010.04.16 15:46:19.
