data_PCOD8297713
_publ_section_title
;
Structure prediction by ZEFSAII (Michael W. Deem and Ramdas Pophale) SiO2 
 PCOD8297713
Probable space group: I M M A
;
_chemical_formula_sum "Si O2"
_cell_formula_units_Z 80
_cell_length_a 10.158246
_cell_length_b 23.842548
_cell_length_c 20.119349
_cell_angle_alpha 90.000000
_cell_angle_beta 90.000000
_cell_angle_gamma 90.000000
_cell_volume 4872.875502
_symmetry_space_group_name_H-M "I M M A"
_symmetry_group_IT_number 74
_symmetry_cell_setting 'orthorhombic'
loop_
_space_group_symop_operation_xyz
x,y,z
-x,1/2-y,z
x,-y,-z
-x,1/2+y,-z
-x,-y,-z
x,1/2+y,-z
-x,y,z
x,1/2-y,z
1/2+x,1/2+y,1/2+z
1/2-x,-y,1/2+z
1/2+x,1/2-y,1/2-z
1/2-x,y,1/2-z
1/2-x,1/2-y,1/2-z
1/2+x,y,1/2-z
1/2-x,1/2+y,1/2+z
1/2+x,-y,1/2+z
loop_
_atom_site_type_symbol
_atom_site_label
_atom_site_fract_x
_atom_site_fract_y
_atom_site_fract_z
Si Si1 0.152567 0.577025 0.539101
Si Si2 0.000000 0.075557 0.689310
Si Si3 0.270888 0.530422 0.102982
Si Si4 0.500000 0.187217 0.581577
Si Si5 0.000000 0.076689 0.845117
Si Si6 0.271358 0.312588 0.990401
Si Si7 0.500000 0.812710 0.114486
O O1 0.230499 0.536712 0.589794
O O2 0.179863 0.561422 0.462869
O O3 0.197552 0.641875 0.548088
O O4 0.000000 0.569615 0.555092
O O5 0.869437 0.045772 0.662177
O O6 0.000000 0.141993 0.673337
O O7 0.000000 0.066545 0.767408
O O8 0.124889 0.548294 0.120965
O O9 0.500000 0.250000 0.612243
O O10 0.500000 0.143466 0.641964
O O11 0.624939 0.177444 0.535066
O O12 0.288738 0.250000 0.020286
O O13 0.370759 0.321951 0.929527
O O14 0.500000 0.750000 0.145608
#
# Coordination Sequence:
#
# PCOD8297713 Si02
#       7
#    16   8  16   8   8  16   8
#     4  11  18  33  58  72 100 127 165 215 254 320
#     4  12  20  37  50  67 104 136 180 208 248 293
#     4  11  21  34  50  76  95 132 172 206 265 290
#     4  10  20  34  45  66 104 138 170 205 249 288
#     4  12  24  33  50  73 102 136 178 220 234 297
#     4  10  18  30  51  75 101 129 163 208 254 296
#     4  10  18  30  49  70  94 130 180 215 235 280
#
# _framework density 16.417411000000001
#
# number of rings (size 3 to 8) (size 9 to 14) (size 15 to 20)
#    0.000    1.200    7.000    1.200    0.000    2.800 
#    0.000    0.000    0.000    6.000    0.000    0.000 
#    0.000    4.800    0.000    0.000    0.000    0.000 
#
# Total GULP energy -495989.407394 kJ/mol
# GULP energy per Si atom -12399.735185 kJ/mol
# Density = 1.638004 g / cm^3
# Si number density = 16.417411 Si / 1000 Ang^3
#
#
#
# Elastic Constant Matrix: (Units=GPa)
#
#
# Indices 1 2 3 4 5 6 
#
# 1 121.0267 35.6747 20.8604 0.0000 0.0000 0.0000
# 2 35.6747 141.9108 46.8086 0.0000 0.0000 0.0000
# 3 20.8604 46.8086 44.1787 0.0000 0.0000 0.0000
# 4 0.0000 0.0000 0.0000 18.5805 0.0000 0.0000
# 5 0.0000 0.0000 0.0000 0.0000 3.9567 0.0000
# 6 0.0000 0.0000 0.0000 0.0000 0.0000 29.9336
#
#
#
# Elastic Compliance Matrix: (Units=1/GPa)
#
#
# Indices 1 2 3 4 5 6 
#
# 1 0.009159 -0.001347 -0.002898 0.000000 0.000000 0.000000
# 2 -0.001347 0.011030 -0.011051 0.000000 0.000000 0.000000
# 3 -0.002898 -0.011051 0.035713 0.000000 0.000000 0.000000
# 4 0.000000 0.000000 0.000000 0.053820 0.000000 0.000000
# 5 0.000000 0.000000 0.000000 0.000000 0.252738 0.000000
# 6 0.000000 0.000000 0.000000 0.000000 0.000000 0.033407
#
#
# Mechanical properties :
#
#
# Convention : Reuss Voigt Hill
#
# Bulk Modulus (GPa) = 39.50902 57.08930 48.29916
# Shear Modulus (GPa) = 11.49701 24.07898 17.78800
#
# Velocity S-wave (km/s) = 2.64918 3.83387 3.29520
# Velocity P-wave (km/s) = 5.78577 7.37884 6.63032
#
# Compressibility (1/GPa) = 0.02531068
#
# Stress axis : x y z
#
# Youngs Moduli (GPa) = 109.18129 90.65880 28.00122
#
# Poissons Ratio (x) = 0.12208 0.08115
# Poissons Ratio (y) = 0.14702 0.30945
# Poissons Ratio (z) = 0.31641 1.00188
#
# Static dielectric constant tensor:
#      x y z
#    x 3.148640 0.000000 0.000000 
#    y 0.000000 3.644910 0.000000 
#    z 0.000000 0.000000 2.632150 
# 
# 
# High freq. dielectric constant tensor:
#      x y z
#    x 1.652280 0.000000 0.000000 
#    y 0.000000 1.649810 0.000000 
#    z 0.000000 0.000000 1.568470 
# 
# From -- ./inp_files/41465.got.cif
#   From: 2010.03.12/outbox.cif.g09.slc.cpg/sg74_21_cif.got.tgz:41465.got - 2010.04.16 15:46:19.
