data_PCOD8297689
_publ_section_title
;
Structure prediction by ZEFSAII (Michael W. Deem and Ramdas Pophale) SiO2 
 PCOD8297689
Probable space group: I M M A
;
_chemical_formula_sum "Si O2"
_cell_formula_units_Z 120
_cell_length_a 9.347677
_cell_length_b 21.154215
_cell_length_c 36.595259
_cell_angle_alpha 90.000000
_cell_angle_beta 90.000000
_cell_angle_gamma 90.000000
_cell_volume 7236.447847
_symmetry_space_group_name_H-M "I M M A"
_symmetry_group_IT_number 74
_symmetry_cell_setting 'orthorhombic'
loop_
_space_group_symop_operation_xyz
x,y,z
-x,1/2-y,z
x,-y,-z
-x,1/2+y,-z
-x,-y,-z
x,1/2+y,-z
-x,y,z
x,1/2-y,z
1/2+x,1/2+y,1/2+z
1/2-x,-y,1/2+z
1/2+x,1/2-y,1/2-z
1/2-x,y,1/2-z
1/2-x,1/2-y,1/2-z
1/2+x,y,1/2-z
1/2-x,1/2+y,1/2+z
1/2+x,-y,1/2+z
loop_
_atom_site_type_symbol
_atom_site_label
_atom_site_fract_x
_atom_site_fract_y
_atom_site_fract_z
Si Si1 0.331040 0.064109 0.357480
Si Si2 0.169010 0.501146 0.213529
Si Si3 0.335934 0.178612 0.025463
Si Si4 0.168993 0.123915 0.828455
Si Si5 0.830297 0.557312 0.099615
Si Si6 0.828732 0.250000 0.788837
Si Si7 0.831794 0.679667 0.901962
Si Si8 0.666948 0.060281 0.975797
O O1 0.500000 0.060843 0.358504
O O2 0.274038 0.132015 0.370925
O O3 0.282654 0.051688 0.315970
O O4 0.276221 0.009692 0.384682
O O5 0.250000 0.483114 0.250000
O O6 0.223274 0.568884 0.198625
O O7 0.000000 0.501032 0.220650
O O8 0.500000 0.173019 0.037734
O O9 0.303196 0.250000 0.010862
O O10 0.240230 0.162142 0.060066
O O11 0.298932 0.126578 0.995342
O O12 0.217216 0.110877 0.870496
O O13 0.224738 0.190322 0.812715
O O14 0.000000 0.122091 0.828147
O O15 0.752136 0.566710 0.061585
O O16 0.000000 0.559347 0.092962
O O17 0.750000 0.250000 0.750000
O O18 0.000000 0.250000 0.782582
O O19 0.790171 0.750000 0.889072
O O20 0.000000 0.672302 0.908018
O O21 0.500000 0.052488 0.967014
O O22 0.718883 0.000000 0.000000
#
# Coordination Sequence:
#
# PCOD8297689 Si02
#       8
#    16  16  16  16  16   8  16  16
#     4   8  15  28  45  64  89 116 138 171 220 264
#     4   9  16  28  45  64  87 114 143 173 210 256
#     4   9  18  32  46  61  87 120 145 170 218 272
#     4   8  16  30  46  64  88 117 145 179 223 265
#     4   9  17  31  48  65  86 116 152 181 217 266
#     4  10  18  30  48  68  92 118 148 186 228 268
#     4   9  16  27  46  69  87 106 141 184 216 248
#     4  10  20  32  46  66  91 117 147 185 226 264
#
# _framework density 16.582722
#
# number of rings (size 3 to 8) (size 9 to 14) (size 15 to 20)
#    0.000    3.067    0.000    2.800    0.000    0.800 
#    1.200    4.000    0.000    0.400    0.000    0.000 
#    0.000    0.000    0.000    0.000    0.000    0.000 
#
# Total GULP energy -743590.013372 kJ/mol
# GULP energy per Si atom -12393.166890 kJ/mol
# Density = 1.654498 g / cm^3
# Si number density = 16.582722 Si / 1000 Ang^3
#
#
#
# Elastic Constant Matrix: (Units=GPa)
#
#
# Indices 1 2 3 4 5 6 
#
# 1 31.2412 32.8323 45.2280 0.0000 0.0000 0.0000
# 2 32.8323 121.8989 90.6190 0.0000 0.0000 0.0000
# 3 45.2280 90.6190 154.6254 0.0000 0.0000 0.0000
# 4 0.0000 0.0000 0.0000 25.9271 0.0000 0.0000
# 5 0.0000 0.0000 0.0000 0.0000 29.6050 0.0000
# 6 0.0000 0.0000 0.0000 0.0000 0.0000 13.8760
#
#
#
# Elastic Compliance Matrix: (Units=1/GPa)
#
#
# Indices 1 2 3 4 5 6 
#
# 1 0.057372 -0.005276 -0.013689 0.000000 0.000000 0.000000
# 2 -0.005276 0.015022 -0.007260 0.000000 0.000000 0.000000
# 3 -0.013689 -0.007260 0.014726 0.000000 0.000000 0.000000
# 4 0.000000 0.000000 0.000000 0.038570 0.000000 0.000000
# 5 0.000000 0.000000 0.000000 0.000000 0.033778 0.000000
# 6 0.000000 0.000000 0.000000 0.000000 0.000000 0.072067
#
#
# Mechanical properties :
#
#
# Convention : Reuss Voigt Hill
#
# Bulk Modulus (GPa) = 28.84454 71.68045 50.26250
# Shear Modulus (GPa) = 16.91807 23.15403 20.03605
#
# Velocity S-wave (km/s) = 3.19756 3.74073 3.47976
# Velocity P-wave (km/s) = 5.57356 7.87256 6.82062
#
# Compressibility (1/GPa) = 0.03466860
#
# Stress axis : x y z
#
# Youngs Moduli (GPa) = 17.43024 66.56926 67.90550
#
# Poissons Ratio (x) = 0.35122 0.92957
# Poissons Ratio (y) = 0.09196 0.49302
# Poissons Ratio (z) = 0.23861 0.48332
#
# Static dielectric constant tensor:
#      x y z
#    x 2.837380 0.000000 0.000000 
#    y 0.000000 3.696250 0.000000 
#    z 0.000000 0.000000 3.185480 
# 
# 
# High freq. dielectric constant tensor:
#      x y z
#    x 1.610740 0.000000 0.000000 
#    y 0.000000 1.643020 0.000000 
#    z 0.000000 0.000000 1.635860 
# 
# From -- ./inp_files/68429.got.cif
#   From: 2010.03.12/outbox.cif.g09.slc.cpg/sg74_35_cif.got.tgz:68429.got - 2010.04.16 15:46:19.
