data_PCOD8297881
_publ_section_title
;
Structure prediction by ZEFSAII (Michael W. Deem and Ramdas Pophale) SiO2 
 PCOD8297881
Probable space group: I M M A
;
_chemical_formula_sum "Si O2"
_cell_formula_units_Z 96
_cell_length_a 19.878211
_cell_length_b 13.774356
_cell_length_c 19.219807
_cell_angle_alpha 90.000000
_cell_angle_beta 90.000000
_cell_angle_gamma 90.000000
_cell_volume 5262.566801
_symmetry_space_group_name_H-M "I M M A"
_symmetry_group_IT_number 74
_symmetry_cell_setting 'orthorhombic'
loop_
_space_group_symop_operation_xyz
x,y,z
-x,1/2-y,z
x,-y,-z
-x,1/2+y,-z
-x,-y,-z
x,1/2+y,-z
-x,y,z
x,1/2-y,z
1/2+x,1/2+y,1/2+z
1/2-x,-y,1/2+z
1/2+x,1/2-y,1/2-z
1/2-x,y,1/2-z
1/2-x,1/2-y,1/2-z
1/2+x,y,1/2-z
1/2-x,1/2+y,1/2+z
1/2+x,-y,1/2+z
loop_
_atom_site_type_symbol
_atom_site_label
_atom_site_fract_x
_atom_site_fract_y
_atom_site_fract_z
Si Si1 0.784199 0.861294 0.179408
Si Si2 0.074764 0.566085 0.206269
Si Si3 0.425389 0.854524 0.732527
Si Si4 0.196980 0.975734 0.420784
Si Si5 0.575940 0.363492 0.862458
Si Si6 0.295207 0.642208 0.814103
O O1 0.766107 0.750000 0.179895
O O2 0.750000 0.907173 0.250000
O O3 0.864599 0.875428 0.171670
O O4 0.752339 0.903438 0.109693
O O5 0.085197 0.451689 0.186473
O O6 0.081182 0.583796 0.288400
O O7 0.000000 0.600752 0.180948
O O8 0.500000 0.860504 0.765489
O O9 0.417370 0.750000 0.691336
O O10 0.373367 0.855342 0.795074
O O11 0.208787 0.076334 0.381246
O O12 0.211540 0.000000 0.500000
O O13 0.124185 0.924097 0.413589
O O14 0.500000 0.369844 0.891622
O O15 0.597927 0.250000 0.855824
O O16 0.268782 0.750000 0.833361
O O17 0.250000 0.601462 0.750000
#
# Coordination Sequence:
#
# PCOD8297881 Si02
#       6
#    16  16  16  16  16  16
#     4  11  21  36  59  84 111 146 191 240 287 334
#     4  10  18  31  56  87 115 142 182 237 291 337
#     4   9  16  27  47  75 106 138 172 215 265 318
#     4  12  24  36  54  79 113 152 187 226 281 341
#     4  10  20  35  55  81 114 150 189 232 277 331
#     4  10  20  35  54  74  99 136 182 229 271 318
#
# _framework density 18.242049000000002
#
# number of rings (size 3 to 8) (size 9 to 14) (size 15 to 20)
#    0.000    1.667    3.333    2.500    0.000    2.667 
#    0.000    0.000    0.000    2.500    0.000    0.000 
#    0.000    2.667    0.000    0.000    0.000    0.000 
#
# Total GULP energy -594672.709676 kJ/mol
# GULP energy per Si atom -12389.014785 kJ/mol
# Density = 1.820053 g / cm^3
# Si number density = 18.242049 Si / 1000 Ang^3
#
#
#
# Elastic Constant Matrix: (Units=GPa)
#
#
# Indices 1 2 3 4 5 6 
#
# 1 123.3640 30.4918 46.6777 0.0000 0.0000 0.0000
# 2 30.4918 95.7703 34.6335 0.0000 0.0000 0.0000
# 3 46.6777 34.6335 80.9298 0.0000 0.0000 0.0000
# 4 0.0000 0.0000 0.0000 9.8325 0.0000 0.0000
# 5 0.0000 0.0000 0.0000 0.0000 16.7586 0.0000
# 6 0.0000 0.0000 0.0000 0.0000 0.0000 29.9301
#
#
#
# Elastic Compliance Matrix: (Units=1/GPa)
#
#
# Indices 1 2 3 4 5 6 
#
# 1 0.010518 -0.001366 -0.005482 0.000000 0.000000 0.000000
# 2 -0.001366 0.012531 -0.004574 0.000000 0.000000 0.000000
# 3 -0.005482 -0.004574 0.017476 0.000000 0.000000 0.000000
# 4 0.000000 0.000000 0.000000 0.101703 0.000000 0.000000
# 5 0.000000 0.000000 0.000000 0.000000 0.059671 0.000000
# 6 0.000000 0.000000 0.000000 0.000000 0.000000 0.033411
#
#
# Mechanical properties :
#
#
# Convention : Reuss Voigt Hill
#
# Bulk Modulus (GPa) = 56.56271 58.18556 57.37413
# Shear Modulus (GPa) = 18.93596 23.85499 21.39547
#
# Velocity S-wave (km/s) = 3.22536 3.62013 3.42843
# Velocity P-wave (km/s) = 6.70408 7.03131 6.86964
#
# Compressibility (1/GPa) = 0.01767949
#
# Stress axis : x y z
#
# Youngs Moduli (GPa) = 95.07556 79.80231 57.22243
#
# Poissons Ratio (x) = 0.10904 0.31367
# Poissons Ratio (y) = 0.12991 0.26176
# Poissons Ratio (z) = 0.52117 0.36505
#
# Static dielectric constant tensor:
#      x y z
#    x 3.724830 0.000000 0.000000 
#    y 0.000000 3.826320 0.000000 
#    z 0.000000 0.000000 2.744320 
# 
# 
# High freq. dielectric constant tensor:
#      x y z
#    x 1.728690 0.000000 0.000000 
#    y 0.000000 1.737190 0.000000 
#    z 0.000000 0.000000 1.619800 
# 
# From -- ./inp_files/35238.got.cif
#   From: 2010.03.12/outbox.cif.g09.slc.cpg/sg74_18_cif.got.tgz:35238.got - 2010.04.16 15:46:19.
