data_PCOD8297370
_publ_section_title
;
Structure prediction by ZEFSAII (Michael W. Deem and Ramdas Pophale) SiO2 
 PCOD8297370
Probable space group: I M M A
;
_chemical_formula_sum "Si O2"
_cell_formula_units_Z 72
_cell_length_a 15.586689
_cell_length_b 14.846135
_cell_length_c 14.040712
_cell_angle_alpha 90.000000
_cell_angle_beta 90.000000
_cell_angle_gamma 90.000000
_cell_volume 3249.050089
_symmetry_space_group_name_H-M "I M M A"
_symmetry_group_IT_number 74
_symmetry_cell_setting 'orthorhombic'
loop_
_space_group_symop_operation_xyz
x,y,z
-x,1/2-y,z
x,-y,-z
-x,1/2+y,-z
-x,-y,-z
x,1/2+y,-z
-x,y,z
x,1/2-y,z
1/2+x,1/2+y,1/2+z
1/2-x,-y,1/2+z
1/2+x,1/2-y,1/2-z
1/2-x,y,1/2-z
1/2-x,1/2-y,1/2-z
1/2+x,y,1/2-z
1/2-x,1/2+y,1/2+z
1/2+x,-y,1/2+z
loop_
_atom_site_type_symbol
_atom_site_label
_atom_site_fract_x
_atom_site_fract_y
_atom_site_fract_z
Si Si1 0.654308 0.250000 0.356570
Si Si2 0.860077 0.250000 0.355614
Si Si3 0.868906 0.897673 0.499136
Si Si4 0.750000 0.520759 0.250000
Si Si5 0.811179 0.074764 0.062506
Si Si6 0.595426 0.149549 0.793555
O O1 0.757228 0.250000 0.354175
O O2 0.608582 0.250000 0.253745
O O3 0.626531 0.158973 0.413025
O O4 0.896381 0.160205 0.407603
O O5 0.765284 0.896885 0.490410
O O6 0.905876 0.847999 0.407730
O O7 0.905111 0.000000 0.500000
O O8 0.762319 0.457920 0.158297
O O9 0.664250 0.579633 0.245670
O O10 0.863566 0.000000 0.000000
O O11 0.500000 0.122010 0.757550
O O12 0.617994 0.250000 0.756834
#
# Coordination Sequence:
#
# PCOD8297370 Si02
#       6
#     8   8  16   8  16  16
#     4   9  18  28  50  80 123 161 205 255 306 366
#     4   9  16  28  49  74 113 158 198 242 303 362
#     4  10  17  32  53  81 116 155 194 243 308 378
#     4  12  21  39  62  88 124 168 214 264 310 388
#     4  10  19  33  55  89 123 161 211 258 314 378
#     4  11  24  40  59  88 127 166 210 262 318 383
#
# _framework density 22.160323000000002
#
# number of rings (size 3 to 8) (size 9 to 14) (size 15 to 20)
#    0.000    1.778    5.556    3.000    0.000    0.444 
#    2.000    0.000    0.000    0.667    0.000    2.333 
#    0.000    0.000    0.000    0.000    0.000    0.000 
#
# Total GULP energy -446093.758787 kJ/mol
# GULP energy per Si atom -12391.493300 kJ/mol
# Density = 2.210989 g / cm^3
# Si number density = 22.160323 Si / 1000 Ang^3
#
#
#
# Elastic Constant Matrix: (Units=GPa)
#
#
# Indices 1 2 3 4 5 6 
#
# 1 61.0558 24.1395 4.7568 0.0000 0.0000 0.0000
# 2 24.1395 181.9469 53.3814 0.0000 0.0000 0.0000
# 3 4.7568 53.3814 75.2391 0.0000 0.0000 0.0000
# 4 0.0000 0.0000 0.0000 35.1867 0.0000 0.0000
# 5 0.0000 0.0000 0.0000 0.0000 1.5213 0.0000
# 6 0.0000 0.0000 0.0000 0.0000 0.0000 10.0423
#
#
#
# Elastic Compliance Matrix: (Units=1/GPa)
#
#
# Indices 1 2 3 4 5 6 
#
# 1 0.017312 -0.002495 0.000676 0.000000 0.000000 0.000000
# 2 -0.002495 0.007301 -0.005022 0.000000 0.000000 0.000000
# 3 0.000676 -0.005022 0.016811 0.000000 0.000000 0.000000
# 4 0.000000 0.000000 0.000000 0.028420 0.000000 0.000000
# 5 0.000000 0.000000 0.000000 0.000000 0.657344 0.000000
# 6 0.000000 0.000000 0.000000 0.000000 0.000000 0.099578
#
#
# Mechanical properties :
#
#
# Convention : Reuss Voigt Hill
#
# Bulk Modulus (GPa) = 36.04710 53.64412 44.84561
# Shear Modulus (GPa) = 5.88446 25.08100 15.48273
#
# Velocity S-wave (km/s) = 1.63131 3.36787 2.64610
# Velocity P-wave (km/s) = 4.45534 6.27561 5.44212
#
# Compressibility (1/GPa) = 0.02774149
#
# Stress axis : x y z
#
# Youngs Moduli (GPa) = 57.76241 136.97649 59.48403
#
# Poissons Ratio (x) = 0.34178 -0.04020
# Poissons Ratio (y) = 0.14413 0.29872
# Poissons Ratio (z) = -0.03903 0.68788
#
# Static dielectric constant tensor:
#      x y z
#    x 3.305170 0.000000 0.000000 
#    y 0.000000 4.466090 0.000000 
#    z 0.000000 0.000000 4.018490 
# 
# 
# High freq. dielectric constant tensor:
#      x y z
#    x 1.807480 0.000000 0.000000 
#    y 0.000000 1.895380 0.000000 
#    z 0.000000 0.000000 1.860800 
# 
# From -- ./inp_files/33872.got.cif
#   From: 2010.03.12/outbox.cif.g09.slc.cpg/sg74_17_cif.got.tgz:33872.got - 2010.04.16 15:46:19.
