data_PCOD8297470
_publ_section_title
;
Structure prediction by ZEFSAII (Michael W. Deem and Ramdas Pophale) SiO2 
 PCOD8297470
Probable space group: I M M A
;
_chemical_formula_sum "Si O2"
_cell_formula_units_Z 104
_cell_length_a 31.850635
_cell_length_b 8.784098
_cell_length_c 20.649287
_cell_angle_alpha 90.000000
_cell_angle_beta 90.000000
_cell_angle_gamma 90.000000
_cell_volume 5777.238916
_symmetry_space_group_name_H-M "I M M A"
_symmetry_group_IT_number 74
_symmetry_cell_setting 'orthorhombic'
loop_
_space_group_symop_operation_xyz
x,y,z
-x,1/2-y,z
x,-y,-z
-x,1/2+y,-z
-x,-y,-z
x,1/2+y,-z
-x,y,z
x,1/2-y,z
1/2+x,1/2+y,1/2+z
1/2-x,-y,1/2+z
1/2+x,1/2-y,1/2-z
1/2-x,y,1/2-z
1/2-x,1/2-y,1/2-z
1/2+x,y,1/2-z
1/2-x,1/2+y,1/2+z
1/2+x,-y,1/2+z
loop_
_atom_site_type_symbol
_atom_site_label
_atom_site_fract_x
_atom_site_fract_y
_atom_site_fract_z
Si Si1 0.285537 0.072865 0.067532
Si Si2 0.133644 0.070066 0.820377
Si Si3 0.500000 0.070325 0.068046
Si Si4 0.341276 0.574867 0.814705
Si Si5 0.066002 0.076349 0.336496
Si Si6 0.687559 0.428456 0.432749
Si Si7 0.547056 0.569086 0.696073
O O1 0.296027 0.250000 0.062451
O O2 0.307894 0.007664 0.133111
O O3 0.236683 0.039193 0.076539
O O4 0.301975 0.000000 0.000000
O O5 0.131149 0.250000 0.818779
O O6 0.154475 0.015010 0.752743
O O7 0.164498 0.014846 0.875740
O O8 0.087062 0.006532 0.839548
O O9 0.500000 0.250000 0.061163
O O10 0.459263 0.003119 0.104602
O O11 0.500000 0.000000 0.000000
O O12 0.330706 0.750000 0.796970
O O13 0.385219 0.559761 0.851892
O O14 0.051699 0.250000 0.330443
O O15 0.051828 0.002780 0.268649
O O16 0.671787 0.500000 0.500000
O O17 0.677145 0.250000 0.431383
O O18 0.500000 0.524382 0.669639
O O19 0.553166 0.750000 0.691927
#
# Coordination Sequence:
#
# PCOD8297470 Si02
#       7
#    16  16   8  16  16  16  16
#     4   9  19  34  54  77 102 137 181 224 271 321
#     4  11  22  34  51  81 113 140 173 218 267 312
#     4  10  18  28  40  60  88 124 167 208 249 298
#     4   9  18  34  53  74 101 138 179 222 267 317
#     4   8  14  27  47  65  88 124 167 207 247 298
#     4  10  20  37  58  79 105 138 175 216 262 323
#     4   9  16  31  56  78  97 131 173 211 254 310
#
# _framework density 18.00168
#
# number of rings (size 3 to 8) (size 9 to 14) (size 15 to 20)
#    0.000    2.615    0.769    2.769    0.000    2.769 
#    0.000    6.154    0.000    0.462    0.000    0.000 
#    0.000    0.000    0.000    0.000    0.000    0.000 
#
# Total GULP energy -644264.292806 kJ/mol
# GULP energy per Si atom -12389.697939 kJ/mol
# Density = 1.796071 g / cm^3
# Si number density = 18.001680 Si / 1000 Ang^3
#
#
#
# Elastic Constant Matrix: (Units=GPa)
#
#
# Indices 1 2 3 4 5 6 
#
# 1 86.4144 40.6637 56.0069 0.0000 0.0000 0.0000
# 2 40.6637 73.6520 41.5775 0.0000 0.0000 0.0000
# 3 56.0069 41.5775 105.0467 0.0000 0.0000 0.0000
# 4 0.0000 0.0000 0.0000 30.3890 0.0000 0.0000
# 5 0.0000 0.0000 0.0000 0.0000 18.9921 0.0000
# 6 0.0000 0.0000 0.0000 0.0000 0.0000 18.8349
#
#
#
# Elastic Compliance Matrix: (Units=1/GPa)
#
#
# Indices 1 2 3 4 5 6 
#
# 1 0.019774 -0.006394 -0.008012 0.000000 0.000000 0.000000
# 2 -0.006394 0.019552 -0.004329 0.000000 0.000000 0.000000
# 3 -0.008012 -0.004329 0.015505 0.000000 0.000000 0.000000
# 4 0.000000 0.000000 0.000000 0.032907 0.000000 0.000000
# 5 0.000000 0.000000 0.000000 0.000000 0.052654 0.000000
# 6 0.000000 0.000000 0.000000 0.000000 0.000000 0.053093
#
#
# Mechanical properties :
#
#
# Convention : Reuss Voigt Hill
#
# Bulk Modulus (GPa) = 57.60631 60.17879 58.89255
# Shear Modulus (GPa) = 21.12020 22.10087 21.61053
#
# Velocity S-wave (km/s) = 3.42897 3.50767 3.46854
# Velocity P-wave (km/s) = 6.90993 7.06450 6.98764
#
# Compressibility (1/GPa) = 0.01735921
#
# Stress axis : x y z
#
# Youngs Moduli (GPa) = 50.57232 51.14642 64.49698
#
# Poissons Ratio (x) = 0.32705 0.51673
# Poissons Ratio (y) = 0.32338 0.27923
# Poissons Ratio (z) = 0.40517 0.22143
#
# Static dielectric constant tensor:
#      x y z
#    x 5.158550 0.000000 0.000000 
#    y 0.000000 2.999310 0.000000 
#    z 0.000000 0.000000 3.066920 
# 
# 
# High freq. dielectric constant tensor:
#      x y z
#    x 1.703960 0.000000 0.000000 
#    y 0.000000 1.675140 0.000000 
#    z 0.000000 0.000000 1.684180 
# 
# From -- ./inp_files/49634.got.cif
#   From: 2010.03.12/outbox.cif.g09.slc.cpg/sg74_25_cif.got.tgz:49634.got - 2010.04.16 15:46:19.
