data_PCOD8297962
_publ_section_title
;
Structure prediction by ZEFSAII (Michael W. Deem and Ramdas Pophale) SiO2 
 PCOD8297962
Probable space group: I M M A
;
_chemical_formula_sum "Si O2"
_cell_formula_units_Z 104
_cell_length_a 23.803924
_cell_length_b 8.794036
_cell_length_c 25.325707
_cell_angle_alpha 90.000000
_cell_angle_beta 90.000000
_cell_angle_gamma 90.000000
_cell_volume 5301.495197
_symmetry_space_group_name_H-M "I M M A"
_symmetry_group_IT_number 74
_symmetry_cell_setting 'orthorhombic'
loop_
_space_group_symop_operation_xyz
x,y,z
-x,1/2-y,z
x,-y,-z
-x,1/2+y,-z
-x,-y,-z
x,1/2+y,-z
-x,y,z
x,1/2-y,z
1/2+x,1/2+y,1/2+z
1/2-x,-y,1/2+z
1/2+x,1/2-y,1/2-z
1/2-x,y,1/2-z
1/2-x,1/2-y,1/2-z
1/2+x,y,1/2-z
1/2-x,1/2+y,1/2+z
1/2+x,-y,1/2+z
loop_
_atom_site_type_symbol
_atom_site_label
_atom_site_fract_x
_atom_site_fract_y
_atom_site_fract_z
Si Si1 0.565256 0.571505 0.444624
Si Si2 0.935623 0.071916 0.739797
Si Si3 0.229173 0.579292 0.195313
Si Si4 0.117649 0.570408 0.841153
Si Si5 0.109726 0.574048 0.555640
Si Si6 0.849243 0.419469 0.648909
Si Si7 0.500000 0.570315 0.058065
O O1 0.585837 0.500000 0.500000
O O2 0.500000 0.534032 0.435333
O O3 0.576945 0.750000 0.446569
O O4 0.599945 0.500319 0.396808
O O5 0.928734 0.250000 0.750464
O O6 0.889918 0.018970 0.695860
O O7 0.000000 0.034244 0.721987
O O8 0.922733 0.986871 0.794371
O O9 0.204279 0.750000 0.204947
O O10 0.250000 0.505490 0.250000
O O11 0.182020 0.474977 0.169297
O O12 0.284040 0.588842 0.160445
O O13 0.112449 0.750000 0.845023
O O14 0.126012 0.500000 0.500000
O O15 0.099627 0.750000 0.545559
O O16 0.155065 0.537113 0.599920
O O17 0.055797 0.495330 0.584455
O O18 0.870444 0.250000 0.632802
O O19 0.500000 0.750000 0.057838
O O20 0.500000 0.500000 0.000000
#
# Coordination Sequence:
#
# PCOD8297962 Si02
#       7
#    16  16  16  16  16  16   8
#     4  10  21  39  64  93 127 166 207 251 303 366
#     4  10  21  38  60  87 119 157 198 240 294 357
#     4  10  20  40  65  85 112 155 205 250 295 354
#     4  12  24  37  59  90 126 161 201 250 300 356
#     4  11  22  37  56  81 113 148 188 234 288 345
#     4  10  21  38  61  87 114 150 195 243 296 351
#     4  10  18  32  54  78 106 142 188 230 275 330
#
# _framework density 19.617107000000001
#
# number of rings (size 3 to 8) (size 9 to 14) (size 15 to 20)
#    0.000    1.538    1.538    5.308    1.077    4.615 
#    0.000    0.769    0.000    3.692    0.000    0.000 
#    0.000    0.000    0.000    0.000    0.000    0.000 
#
# Total GULP energy -644590.771482 kJ/mol
# GULP energy per Si atom -12395.976375 kJ/mol
# Density = 1.957246 g / cm^3
# Si number density = 19.617107 Si / 1000 Ang^3
#
#
#
# Elastic Constant Matrix: (Units=GPa)
#
#
# Indices 1 2 3 4 5 6 
#
# 1 92.9818 35.0905 42.2871 0.0000 0.0000 0.0000
# 2 35.0905 124.8338 57.8669 0.0000 0.0000 0.0000
# 3 42.2871 57.8669 131.8096 0.0000 0.0000 0.0000
# 4 0.0000 0.0000 0.0000 34.5548 0.0000 0.0000
# 5 0.0000 0.0000 0.0000 0.0000 27.7281 0.0000
# 6 0.0000 0.0000 0.0000 0.0000 0.0000 23.4065
#
#
#
# Elastic Compliance Matrix: (Units=1/GPa)
#
#
# Indices 1 2 3 4 5 6 
#
# 1 0.013043 -0.002168 -0.003233 0.000000 0.000000 0.000000
# 2 -0.002168 0.010418 -0.003878 0.000000 0.000000 0.000000
# 3 -0.003233 -0.003878 0.010326 0.000000 0.000000 0.000000
# 4 0.000000 0.000000 0.000000 0.028940 0.000000 0.000000
# 5 0.000000 0.000000 0.000000 0.000000 0.036065 0.000000
# 6 0.000000 0.000000 0.000000 0.000000 0.000000 0.042723
#
#
# Mechanical properties :
#
#
# Convention : Reuss Voigt Hill
#
# Bulk Modulus (GPa) = 65.66052 68.90156 67.28104
# Shear Modulus (GPa) = 30.27576 31.42991 30.85284
#
# Velocity S-wave (km/s) = 3.93279 4.00705 3.97010
# Velocity P-wave (km/s) = 7.35977 7.52383 7.44225
#
# Compressibility (1/GPa) = 0.01522985
#
# Stress axis : x y z
#
# Youngs Moduli (GPa) = 76.66857 95.99029 96.83921
#
# Poissons Ratio (x) = 0.20809 0.31306
# Poissons Ratio (y) = 0.16621 0.37555
# Poissons Ratio (z) = 0.24785 0.37226
#
# Static dielectric constant tensor:
#      x y z
#    x 4.052550 0.000000 0.000000 
#    y 0.000000 3.633230 0.000000 
#    z 0.000000 0.000000 3.565520 
# 
# 
# High freq. dielectric constant tensor:
#      x y z
#    x 1.761250 0.000000 0.000000 
#    y 0.000000 1.761630 0.000000 
#    z 0.000000 0.000000 1.767540 
# 
# From -- ./inp_files/68635.got.cif
#   From: 2010.03.12/outbox.cif.g09.slc.cpg/sg74_35_cif.got.tgz:68635.got - 2010.04.16 15:46:19.
