data_PCOD8297861
_publ_section_title
;
Structure prediction by ZEFSAII (Michael W. Deem and Ramdas Pophale) SiO2 
 PCOD8297861
Probable space group: I M M A
;
_chemical_formula_sum "Si O2"
_cell_formula_units_Z 80
_cell_length_a 19.503350
_cell_length_b 18.067693
_cell_length_c 13.237614
_cell_angle_alpha 90.000000
_cell_angle_beta 90.000000
_cell_angle_gamma 90.000000
_cell_volume 4664.677573
_symmetry_space_group_name_H-M "I M M A"
_symmetry_group_IT_number 74
_symmetry_cell_setting 'orthorhombic'
loop_
_space_group_symop_operation_xyz
x,y,z
-x,1/2-y,z
x,-y,-z
-x,1/2+y,-z
-x,-y,-z
x,1/2+y,-z
-x,y,z
x,1/2-y,z
1/2+x,1/2+y,1/2+z
1/2-x,-y,1/2+z
1/2+x,1/2-y,1/2-z
1/2-x,y,1/2-z
1/2-x,1/2-y,1/2-z
1/2+x,y,1/2-z
1/2-x,1/2+y,1/2+z
1/2+x,-y,1/2+z
loop_
_atom_site_type_symbol
_atom_site_label
_atom_site_fract_x
_atom_site_fract_y
_atom_site_fract_z
Si Si1 0.820966 0.829458 0.194273
Si Si2 0.200237 0.982721 0.111558
Si Si3 0.849736 0.969810 0.680284
Si Si4 0.420108 0.835168 0.915896
Si Si5 0.921177 0.613925 0.361785
O O1 0.837152 0.750000 0.141331
O O2 0.750000 0.823728 0.250000
O O3 0.879782 0.845459 0.274865
O O4 0.812624 0.894759 0.114250
O O5 0.155763 0.023511 0.198033
O O6 0.278829 0.006422 0.127219
O O7 0.173690 0.000000 0.000000
O O8 0.872479 0.886498 0.654781
O O9 0.906593 0.026016 0.637256
O O10 0.500000 0.852793 0.896095
O O11 0.403244 0.750000 0.889811
O O12 0.400336 0.850882 0.031405
O O13 0.000000 0.628131 0.338434
#
# Coordination Sequence:
#
# PCOD8297861 Si02
#       5
#    16  16  16  16  16
#     4  10  19  33  51  76 104 136 168 206 262 306
#     4  10  19  35  52  74 101 134 176 213 248 303
#     4  10  19  33  51  75 100 137 169 208 256 304
#     4  10  20  32  49  76 107 136 163 202 258 312
#     4  10  18  31  53  80 106 132 168 211 256 310
#
# _framework density 17.150167
#
# number of rings (size 3 to 8) (size 9 to 14) (size 15 to 20)
#    0.000    2.000    4.000    3.000    0.000    2.800 
#    0.000    3.000    0.000   15.000    0.000    0.000 
#    0.000    0.000    0.000    0.000    0.000    0.000 
#
# Total GULP energy -495820.946419 kJ/mol
# GULP energy per Si atom -12395.523660 kJ/mol
# Density = 1.711113 g / cm^3
# Si number density = 17.150167 Si / 1000 Ang^3
#
#
#
# Elastic Constant Matrix: (Units=GPa)
#
#
# Indices 1 2 3 4 5 6 
#
# 1 64.8328 44.8598 36.2031 0.0000 0.0000 0.0000
# 2 44.8598 166.1153 69.1843 0.0000 0.0000 0.0000
# 3 36.2031 69.1843 86.6573 0.0000 0.0000 0.0000
# 4 0.0000 0.0000 0.0000 22.1675 0.0000 0.0000
# 5 0.0000 0.0000 0.0000 0.0000 16.0331 0.0000
# 6 0.0000 0.0000 0.0000 0.0000 0.0000 24.9541
#
#
#
# Elastic Compliance Matrix: (Units=1/GPa)
#
#
# Indices 1 2 3 4 5 6 
#
# 1 0.021092 -0.003035 -0.006388 0.000000 0.000000 0.000000
# 2 -0.003035 0.009455 -0.006281 0.000000 0.000000 0.000000
# 3 -0.006388 -0.006281 0.019223 0.000000 0.000000 0.000000
# 4 0.000000 0.000000 0.000000 0.045111 0.000000 0.000000
# 5 0.000000 0.000000 0.000000 0.000000 0.062371 0.000000
# 6 0.000000 0.000000 0.000000 0.000000 0.000000 0.040074
#
#
# Mechanical properties :
#
#
# Convention : Reuss Voigt Hill
#
# Bulk Modulus (GPa) = 54.46224 68.67774 61.56999
# Shear Modulus (GPa) = 21.28971 23.78816 22.53894
#
# Velocity S-wave (km/s) = 3.52713 3.72835 3.62914
# Velocity P-wave (km/s) = 6.95791 7.65938 7.31706
#
# Compressibility (1/GPa) = 0.01836134
#
# Stress axis : x y z
#
# Youngs Moduli (GPa) = 47.41185 105.75882 52.02092
#
# Poissons Ratio (x) = 0.32100 0.33233
# Poissons Ratio (y) = 0.14391 0.32674
# Poissons Ratio (z) = 0.30288 0.66426
#
# Static dielectric constant tensor:
#      x y z
#    x 3.120510 0.000000 0.000000 
#    y 0.000000 5.183270 0.000000 
#    z 0.000000 0.000000 3.023110 
# 
# 
# High freq. dielectric constant tensor:
#      x y z
#    x 1.655130 0.000000 0.000000 
#    y 0.000000 1.674120 0.000000 
#    z 0.000000 0.000000 1.636130 
# 
# From -- ./inp_files/33959.got.cif
#   From: 2010.03.12/outbox.cif.g09.slc.cpg/sg74_17_cif.got.tgz:33959.got - 2010.04.16 15:46:19.
