data_PCOD8297289
_publ_section_title
;
Structure prediction by ZEFSAII (Michael W. Deem and Ramdas Pophale) SiO2 
 PCOD8297289
Probable space group: I M M A
;
_chemical_formula_sum "Si O2"
_cell_formula_units_Z 96
_cell_length_a 10.063399
_cell_length_b 22.550705
_cell_length_c 23.852876
_cell_angle_alpha 90.000000
_cell_angle_beta 90.000000
_cell_angle_gamma 90.000000
_cell_volume 5413.093970
_symmetry_space_group_name_H-M "I M M A"
_symmetry_group_IT_number 74
_symmetry_cell_setting 'orthorhombic'
loop_
_space_group_symop_operation_xyz
x,y,z
-x,1/2-y,z
x,-y,-z
-x,1/2+y,-z
-x,-y,-z
x,1/2+y,-z
-x,y,z
x,1/2-y,z
1/2+x,1/2+y,1/2+z
1/2-x,-y,1/2+z
1/2+x,1/2-y,1/2-z
1/2-x,y,1/2-z
1/2-x,1/2-y,1/2-z
1/2+x,y,1/2-z
1/2-x,1/2+y,1/2+z
1/2+x,-y,1/2+z
loop_
_atom_site_type_symbol
_atom_site_label
_atom_site_fract_x
_atom_site_fract_y
_atom_site_fract_z
Si Si1 0.240492 0.634594 0.619351
Si Si2 0.500000 0.680429 0.810438
Si Si3 0.347695 0.183765 0.009201
Si Si4 0.000000 0.819758 0.822734
Si Si5 0.845841 0.887341 0.405911
Si Si6 0.152570 0.318816 0.700253
Si Si7 0.345495 0.984167 0.937316
O O1 0.232263 0.679325 0.567037
O O2 0.376197 0.645817 0.651414
O O3 0.233995 0.568164 0.593478
O O4 0.127076 0.647384 0.664636
O O5 0.500000 0.750000 0.826952
O O6 0.500000 0.672420 0.743894
O O7 0.500000 0.166489 0.022901
O O8 0.336229 0.250000 0.985176
O O9 0.284042 0.139136 0.963365
O O10 0.000000 0.750000 0.838337
O O11 0.786765 0.855341 0.351674
O O12 0.822426 0.957322 0.400024
O O13 0.000000 0.870389 0.408845
O O14 0.161744 0.250000 0.685089
O O15 0.250000 0.336281 0.750000
O O16 0.000000 0.336450 0.714904
O O17 0.500000 0.965681 0.940854
O O18 0.293881 0.000000 0.000000
#
# Coordination Sequence:
#
# PCOD8297289 Si02
#       7
#    16   8  16   8  16  16  16
#     4  12  21  37  60  86 111 150 192 230 287 346
#     4  11  22  40  63  86 110 146 197 242 284 341
#     4  10  17  27  51  86 112 133 178 235 276 323
#     4  11  26  42  57  82 122 156 183 238 300 349
#     4   9  17  29  51  81 108 138 178 229 279 318
#     4   9  17  31  52  76 105 140 177 221 272 325
#     4  10  18  33  57  85 112 144 184 233 277 326
#
# _framework density 17.734774999999999
#
# number of rings (size 3 to 8) (size 9 to 14) (size 15 to 20)
#    0.000    1.833    3.333    2.500    0.000    3.333 
#    0.000    2.083    3.667    0.000    0.000    0.000 
#    0.000    0.000    0.000    0.000    0.000    0.000 
#
# Total GULP energy -595076.014489 kJ/mol
# GULP energy per Si atom -12397.416969 kJ/mol
# Density = 1.769441 g / cm^3
# Si number density = 17.734775 Si / 1000 Ang^3
#
#
#
# Elastic Constant Matrix: (Units=GPa)
#
#
# Indices 1 2 3 4 5 6 
#
# 1 83.2098 35.0572 51.4247 0.0000 0.0000 0.0000
# 2 35.0572 110.2068 60.3101 0.0000 0.0000 0.0000
# 3 51.4247 60.3101 126.5704 0.0000 0.0000 0.0000
# 4 0.0000 0.0000 0.0000 30.6343 0.0000 0.0000
# 5 0.0000 0.0000 0.0000 0.0000 16.7077 0.0000
# 6 0.0000 0.0000 0.0000 0.0000 0.0000 22.4694
#
#
#
# Elastic Compliance Matrix: (Units=1/GPa)
#
#
# Indices 1 2 3 4 5 6 
#
# 1 0.016407 -0.002125 -0.005653 0.000000 0.000000 0.000000
# 2 -0.002125 0.012550 -0.005116 0.000000 0.000000 0.000000
# 3 -0.005653 -0.005116 0.012636 0.000000 0.000000 0.000000
# 4 0.000000 0.000000 0.000000 0.032643 0.000000 0.000000
# 5 0.000000 0.000000 0.000000 0.000000 0.059853 0.000000
# 6 0.000000 0.000000 0.000000 0.000000 0.000000 0.044505
#
#
# Mechanical properties :
#
#
# Convention : Reuss Voigt Hill
#
# Bulk Modulus (GPa) = 63.28206 68.17454 65.72830
# Shear Modulus (GPa) = 23.84916 25.50862 24.67889
#
# Velocity S-wave (km/s) = 3.67109 3.79666 3.73440
# Velocity P-wave (km/s) = 7.33001 7.59895 7.46570
#
# Compressibility (1/GPa) = 0.01580227
#
# Stress axis : x y z
#
# Youngs Moduli (GPa) = 60.94913 79.68207 79.14140
#
# Poissons Ratio (x) = 0.16936 0.44742
# Poissons Ratio (y) = 0.12954 0.40492
# Poissons Ratio (z) = 0.34457 0.40769
#
# Static dielectric constant tensor:
#      x y z
#    x 2.853300 0.000000 0.000000 
#    y 0.000000 3.319630 0.000000 
#    z 0.000000 0.000000 3.421540 
# 
# 
# High freq. dielectric constant tensor:
#      x y z
#    x 1.638240 0.000000 0.000000 
#    y 0.000000 1.694280 0.000000 
#    z 0.000000 0.000000 1.695430 
# 
# From -- ./inp_files/57355.got.cif
#   From: 2010.03.12/outbox.cif.g09.slc.cpg/sg74_29_cif.got.tgz:57355.got - 2010.04.16 15:46:19.
