data_PCOD8297562
_publ_section_title
;
Structure prediction by ZEFSAII (Michael W. Deem and Ramdas Pophale) SiO2 
 PCOD8297562
Probable space group: I M M A
;
_chemical_formula_sum "Si O2"
_cell_formula_units_Z 96
_cell_length_a 11.014154
_cell_length_b 14.356993
_cell_length_c 37.591834
_cell_angle_alpha 90.000000
_cell_angle_beta 90.000000
_cell_angle_gamma 90.000000
_cell_volume 5944.401668
_symmetry_space_group_name_H-M "I M M A"
_symmetry_group_IT_number 74
_symmetry_cell_setting 'orthorhombic'
loop_
_space_group_symop_operation_xyz
x,y,z
-x,1/2-y,z
x,-y,-z
-x,1/2+y,-z
-x,-y,-z
x,1/2+y,-z
-x,y,z
x,1/2-y,z
1/2+x,1/2+y,1/2+z
1/2-x,-y,1/2+z
1/2+x,1/2-y,1/2-z
1/2-x,y,1/2-z
1/2-x,1/2-y,1/2-z
1/2+x,y,1/2-z
1/2-x,1/2+y,1/2+z
1/2+x,-y,1/2+z
loop_
_atom_site_type_symbol
_atom_site_label
_atom_site_fract_x
_atom_site_fract_y
_atom_site_fract_z
Si Si1 0.863411 0.860434 0.272934
Si Si2 0.636946 0.534150 0.087657
Si Si3 0.858829 0.645100 0.548900
Si Si4 0.247611 0.140886 0.526094
Si Si5 0.000000 0.860682 0.057250
Si Si6 0.000000 0.356753 0.863666
Si Si7 0.260052 0.141648 0.847506
O O1 0.861420 0.750000 0.268632
O O2 0.750000 0.902316 0.250000
O O3 0.839755 0.888931 0.313830
O O4 0.000000 0.896983 0.262248
O O5 0.500000 0.541601 0.100886
O O6 0.673253 0.425921 0.080854
O O7 0.650434 0.589919 0.050971
O O8 0.716503 0.578014 0.118596
O O9 0.827944 0.750000 0.561650
O O10 0.778924 0.616598 0.514805
O O11 0.000000 0.636334 0.538215
O O12 0.232874 0.250000 0.533123
O O13 0.381563 0.103899 0.536162
O O14 0.000000 0.905345 0.097207
O O15 0.000000 0.750000 0.057796
O O16 0.882266 0.377830 0.839377
O O17 0.000000 0.250000 0.874478
O O18 0.284319 0.250000 0.856977
#
# Coordination Sequence:
#
# PCOD8297562 Si02
#       7
#    16  16  16  16   8   8  16
#     4   9  18  30  44  65  93 125 156 181 210 254
#     4  11  20  29  44  64  85 111 144 183 227 268
#     4   9  19  34  47  59  79 109 146 187 230 275
#     4  10  18  29  44  62  85 111 142 181 221 266
#     4   9  16  28  42  60  84 112 146 178 216 264
#     4   9  16  28  43  61  87 121 150 180 218 258
#     4  10  19  30  46  67  93 118 148 183 216 256
#
# _framework density 16.149650000000001
#
# number of rings (size 3 to 8) (size 9 to 14) (size 15 to 20)
#    0.000    2.333    1.667    2.000    1.167    4.000 
#    0.000    2.500    0.000    0.000    0.000    0.000 
#    0.000    0.667    0.000    0.333    0.000    0.333 
#
# Total GULP energy -594869.150185 kJ/mol
# GULP energy per Si atom -12393.107296 kJ/mol
# Density = 1.611289 g / cm^3
# Si number density = 16.149650 Si / 1000 Ang^3
#
#
#
# Elastic Constant Matrix: (Units=GPa)
#
#
# Indices 1 2 3 4 5 6 
#
# 1 92.0659 20.1445 34.8082 0.0000 0.0000 0.0000
# 2 20.1445 40.9407 29.7815 0.0000 0.0000 0.0000
# 3 34.8082 29.7815 60.4801 0.0000 0.0000 0.0000
# 4 0.0000 0.0000 0.0000 10.5458 0.0000 0.0000
# 5 0.0000 0.0000 0.0000 0.0000 25.7263 0.0000
# 6 0.0000 0.0000 0.0000 0.0000 0.0000 8.9815
#
#
#
# Elastic Compliance Matrix: (Units=1/GPa)
#
#
# Indices 1 2 3 4 5 6 
#
# 1 0.013949 -0.001595 -0.007243 0.000000 0.000000 0.000000
# 2 -0.001595 0.038240 -0.017912 0.000000 0.000000 0.000000
# 3 -0.007243 -0.017912 0.029523 0.000000 0.000000 0.000000
# 4 0.000000 0.000000 0.000000 0.094825 0.000000 0.000000
# 5 0.000000 0.000000 0.000000 0.000000 0.038871 0.000000
# 6 0.000000 0.000000 0.000000 0.000000 0.000000 0.111340
#
#
# Mechanical properties :
#
#
# Convention : Reuss Voigt Hill
#
# Bulk Modulus (GPa) = 35.44519 40.32836 37.88677
# Shear Modulus (GPa) = 12.83196 16.30088 14.56642
#
# Velocity S-wave (km/s) = 2.82186 3.18050 3.00653
# Velocity P-wave (km/s) = 5.71076 6.20591 5.96348
#
# Compressibility (1/GPa) = 0.02821257
#
# Stress axis : x y z
#
# Youngs Moduli (GPa) = 71.68917 26.15039 33.87167
#
# Poissons Ratio (x) = 0.04171 0.24533
# Poissons Ratio (y) = 0.11434 0.60672
# Poissons Ratio (z) = 0.51923 0.46842
#
# Static dielectric constant tensor:
#      x y z
#    x 3.369140 0.000000 0.000000 
#    y 0.000000 2.793840 0.000000 
#    z 0.000000 0.000000 2.873780 
# 
# 
# High freq. dielectric constant tensor:
#      x y z
#    x 1.636700 0.000000 0.000000 
#    y 0.000000 1.567850 0.000000 
#    z 0.000000 0.000000 1.601900 
# 
# From -- ./inp_files/71827.got.cif
#   From: 2010.03.12/outbox.cif.g09.slc.cpg/sg74_36_cif.got.tgz:71827.got - 2010.04.16 15:46:19.
