data_PCOD8297250
_publ_section_title
;
Structure prediction by ZEFSAII (Michael W. Deem and Ramdas Pophale) SiO2 
 PCOD8297250
Probable space group: I M M A
;
_chemical_formula_sum "Si O2"
_cell_formula_units_Z 80
_cell_length_a 28.897770
_cell_length_b 8.462422
_cell_length_c 23.027651
_cell_angle_alpha 90.000000
_cell_angle_beta 90.000000
_cell_angle_gamma 90.000000
_cell_volume 5631.299783
_symmetry_space_group_name_H-M "I M M A"
_symmetry_group_IT_number 74
_symmetry_cell_setting 'orthorhombic'
loop_
_space_group_symop_operation_xyz
x,y,z
-x,1/2-y,z
x,-y,-z
-x,1/2+y,-z
-x,-y,-z
x,1/2+y,-z
-x,y,z
x,1/2-y,z
1/2+x,1/2+y,1/2+z
1/2-x,-y,1/2+z
1/2+x,1/2-y,1/2-z
1/2-x,y,1/2-z
1/2-x,1/2-y,1/2-z
1/2+x,y,1/2-z
1/2-x,1/2+y,1/2+z
1/2+x,-y,1/2+z
loop_
_atom_site_type_symbol
_atom_site_label
_atom_site_fract_x
_atom_site_fract_y
_atom_site_fract_z
Si Si1 0.946554 0.434779 0.062223
Si Si2 0.814705 0.434697 0.232911
Si Si3 0.132714 0.934903 0.135510
Si Si4 0.770850 0.934180 0.335853
Si Si5 0.782033 0.563770 0.936181
O O1 0.936297 0.250000 0.063855
O O2 0.917763 0.521129 0.112151
O O3 0.000000 0.474627 0.073870
O O4 0.930682 0.500000 0.000000
O O5 0.803827 0.250000 0.227539
O O6 0.861594 0.478666 0.198428
O O7 0.814322 0.487661 0.300770
O O8 0.775366 0.536055 0.200961
O O9 0.136777 0.750000 0.145306
O O10 0.171288 0.989299 0.089547
O O11 0.780147 0.750000 0.344531
O O12 0.763186 0.015344 0.398449
O O13 0.788197 0.750000 0.936543
O O14 0.773337 0.500000 0.000000
#
# Coordination Sequence:
#
# PCOD8297250 Si02
#       5
#    16  16  16  16  16
#     4  10  20  33  46  59  76  99 127 160 199 241
#     4  10  17  27  41  57  75  97 124 155 191 228
#     4  11  20  30  43  59  77  98 127 163 199 234
#     4  10  17  27  40  56  76  98 124 155 191 228
#     4  11  20  30  41  56  77 102 131 162 196 231
#
# _framework density 14.206312
#
# number of rings (size 3 to 8) (size 9 to 14) (size 15 to 20)
#    0.000    1.600    0.000   12.000    0.000    1.200 
#    0.000    0.000    0.000    0.000    0.000    0.000 
#    0.000    0.000    0.000    0.000    0.000    1.000 
#
# Total GULP energy -495896.469478 kJ/mol
# GULP energy per Si atom -12397.411737 kJ/mol
# Density = 1.417398 g / cm^3
# Si number density = 14.206312 Si / 1000 Ang^3
#
#
#
# Elastic Constant Matrix: (Units=GPa)
#
#
# Indices 1 2 3 4 5 6 
#
# 1 46.0606 19.9982 39.4929 0.0000 0.0000 0.0000
# 2 19.9982 83.0318 25.0007 0.0000 0.0000 0.0000
# 3 39.4929 25.0007 84.3245 0.0000 0.0000 0.0000
# 4 0.0000 0.0000 0.0000 25.8169 0.0000 0.0000
# 5 0.0000 0.0000 0.0000 0.0000 6.9002 0.0000
# 6 0.0000 0.0000 0.0000 0.0000 0.0000 18.2779
#
#
#
# Elastic Compliance Matrix: (Units=1/GPa)
#
#
# Indices 1 2 3 4 5 6 
#
# 1 0.037515 -0.004112 -0.016351 0.000000 0.000000 0.000000
# 2 -0.004112 0.013675 -0.002128 0.000000 0.000000 0.000000
# 3 -0.016351 -0.002128 0.020148 0.000000 0.000000 0.000000
# 4 0.000000 0.000000 0.000000 0.038734 0.000000 0.000000
# 5 0.000000 0.000000 0.000000 0.000000 0.144924 0.000000
# 6 0.000000 0.000000 0.000000 0.000000 0.000000 0.054711
#
#
# Mechanical properties :
#
#
# Convention : Reuss Voigt Hill
#
# Bulk Modulus (GPa) = 38.23373 42.48894 40.36134
# Shear Modulus (GPa) = 13.75106 18.79402 16.27254
#
# Velocity S-wave (km/s) = 3.11457 3.64116 3.38811
# Velocity P-wave (km/s) = 6.31710 6.90296 6.61651
#
# Compressibility (1/GPa) = 0.02615492
#
# Stress axis : x y z
#
# Youngs Moduli (GPa) = 26.65567 73.12676 49.63318
#
# Poissons Ratio (x) = 0.30072 0.81155
# Poissons Ratio (y) = 0.10962 0.10564
# Poissons Ratio (z) = 0.43584 0.15564
#
# Static dielectric constant tensor:
#      x y z
#    x 2.646700 0.000000 0.000000 
#    y 0.000000 2.927650 0.000000 
#    z 0.000000 0.000000 3.158690 
# 
# 
# High freq. dielectric constant tensor:
#      x y z
#    x 1.489000 0.000000 0.000000 
#    y 0.000000 1.569810 0.000000 
#    z 0.000000 0.000000 1.535250 
# 
# From -- ./inp_files/62559.got.cif
#   From: 2010.03.12/outbox.cif.g09.slc.cpg/sg74_32_cif.got.tgz:62559.got - 2010.04.16 15:46:19.
