data_PCOD8297717
_publ_section_title
;
Structure prediction by ZEFSAII (Michael W. Deem and Ramdas Pophale) SiO2 
 PCOD8297717
Probable space group: I M M A
;
_chemical_formula_sum "Si O2"
_cell_formula_units_Z 56
_cell_length_a 8.715397
_cell_length_b 35.321048
_cell_length_c 10.087901
_cell_angle_alpha 90.000000
_cell_angle_beta 90.000000
_cell_angle_gamma 90.000000
_cell_volume 3105.428734
_symmetry_space_group_name_H-M "I M M A"
_symmetry_group_IT_number 74
_symmetry_cell_setting 'orthorhombic'
loop_
_space_group_symop_operation_xyz
x,y,z
-x,1/2-y,z
x,-y,-z
-x,1/2+y,-z
-x,-y,-z
x,1/2+y,-z
-x,y,z
x,1/2-y,z
1/2+x,1/2+y,1/2+z
1/2-x,-y,1/2+z
1/2+x,1/2-y,1/2-z
1/2-x,y,1/2-z
1/2-x,1/2-y,1/2-z
1/2+x,y,1/2-z
1/2-x,1/2+y,1/2+z
1/2+x,-y,1/2+z
loop_
_atom_site_type_symbol
_atom_site_label
_atom_site_fract_x
_atom_site_fract_y
_atom_site_fract_z
Si Si1 0.319401 0.386666 0.887758
Si Si2 0.818419 0.972208 0.387427
Si Si3 0.317117 0.250000 0.396540
Si Si4 0.317729 0.826643 0.895401
O O1 0.500000 0.385034 0.872337
O O2 0.250000 0.371501 0.750000
O O3 0.262530 0.429401 0.917262
O O4 0.264974 0.360752 0.009671
O O5 0.750000 0.986957 0.250000
O O6 0.000000 0.974359 0.379392
O O7 0.753463 0.000000 0.500000
O O8 0.500000 0.250000 0.397932
O O9 0.250000 0.250000 0.250000
O O10 0.251838 0.211604 0.462388
O O11 0.500000 0.822860 0.884395
O O12 0.250000 0.834516 0.750000
#
# Coordination Sequence:
#
# PCOD8297717 Si02
#       4
#    16  16   8  16
#     4   9  19  34  51  71  98 131 163 198 241 287
#     4   9  18  33  51  72  99 129 162 200 241 285
#     4  10  18  30  49  72  97 126 160 198 242 286
#     4  10  19  32  50  73  99 127 161 200 242 286
#
# _framework density 18.032935999999999
#
# number of rings (size 3 to 8) (size 9 to 14) (size 15 to 20)
#    0.000    2.571    0.000    3.857    0.000    4.000 
#    0.000    0.714    0.000    0.000    0.000    0.000 
#    0.000    0.000    0.000    0.000    0.000    0.000 
#
# Total GULP energy -347130.400074 kJ/mol
# GULP energy per Si atom -12397.514288 kJ/mol
# Density = 1.799189 g / cm^3
# Si number density = 18.032936 Si / 1000 Ang^3
#
#
#
# Elastic Constant Matrix: (Units=GPa)
#
#
# Indices 1 2 3 4 5 6 
#
# 1 58.4285 38.4222 36.6367 -0.0004 0.0000 0.0000
# 2 38.4222 130.0260 94.8469 -0.0024 0.0000 0.0000
# 3 36.6367 94.8469 131.9625 -0.0022 0.0001 0.0003
# 4 -0.0004 -0.0024 -0.0022 29.7280 0.0000 -0.0002
# 5 0.0000 0.0000 0.0001 0.0000 29.5007 -0.0004
# 6 0.0000 0.0000 0.0003 -0.0002 -0.0004 20.5831
#
#
#
# Elastic Compliance Matrix: (Units=1/GPa)
#
#
# Indices 1 2 3 4 5 6 
#
# 1 0.021789 -0.004259 -0.002988 0.000000 0.000000 0.000000
# 2 -0.004259 0.016999 -0.011036 0.000001 0.000000 0.000000
# 3 -0.002988 -0.011036 0.016339 0.000000 0.000000 0.000000
# 4 0.000000 0.000001 0.000000 0.033638 0.000000 0.000000
# 5 0.000000 0.000000 0.000000 0.000000 0.033897 0.000001
# 6 0.000000 0.000000 0.000000 0.000000 0.000001 0.048584
#
#
# Mechanical properties :
#
#
# Convention : Reuss Voigt Hill
#
# Bulk Modulus (GPa) = 53.87297 73.35874 63.61586
# Shear Modulus (GPa) = 23.36447 25.99642 24.68044
#
# Velocity S-wave (km/s) = 3.60343 3.80097 3.70352
# Velocity P-wave (km/s) = 6.87405 7.74803 7.32408
#
# Compressibility (1/GPa) = 0.01856218
#
# Stress axis : x y z
#
# Youngs Moduli (GPa) = 45.89404 58.82664 61.20210
#
# Poissons Ratio (x) = 0.25053 0.18289
# Poissons Ratio (y) = 0.19545 0.67540
# Poissons Ratio (z) = 0.13715 0.64919
#
# Static dielectric constant tensor:
#      x y z
#    x 3.259920 0.000000 0.000000 
#    y 0.000000 4.040950 0.000000 
#    z 0.000000 0.000000 3.252060 
# 
# 
# High freq. dielectric constant tensor:
#      x y z
#    x 1.698990 0.000000 0.000000 
#    y 0.000000 1.708830 0.000000 
#    z 0.000000 0.000000 1.680070 
# 
# From -- ./inp_files/17291.got.cif
#   From: 2010.03.12/outbox.cif.g09.slc.cpg/sg74_9_cif.got.tgz:17291.got - 2010.04.16 15:46:19.
