data_PCOD8297989
_publ_section_title
;
Structure prediction by ZEFSAII (Michael W. Deem and Ramdas Pophale) SiO2 
 PCOD8297989
Probable space group: I M M A
;
_chemical_formula_sum "Si O2"
_cell_formula_units_Z 96
_cell_length_a 16.607421
_cell_length_b 11.574556
_cell_length_c 25.281115
_cell_angle_alpha 90.000000
_cell_angle_beta 90.000000
_cell_angle_gamma 90.000000
_cell_volume 4859.625026
_symmetry_space_group_name_H-M "I M M A"
_symmetry_group_IT_number 74
_symmetry_cell_setting 'orthorhombic'
loop_
_space_group_symop_operation_xyz
x,y,z
-x,1/2-y,z
x,-y,-z
-x,1/2+y,-z
-x,-y,-z
x,1/2+y,-z
-x,y,z
x,1/2-y,z
1/2+x,1/2+y,1/2+z
1/2-x,-y,1/2+z
1/2+x,1/2-y,1/2-z
1/2-x,y,1/2-z
1/2-x,1/2-y,1/2-z
1/2+x,y,1/2-z
1/2-x,1/2+y,1/2+z
1/2+x,-y,1/2+z
loop_
_atom_site_type_symbol
_atom_site_label
_atom_site_fract_x
_atom_site_fract_y
_atom_site_fract_z
Si Si1 0.846538 0.003866 0.753257
Si Si2 0.403394 0.750000 0.116027
Si Si3 0.594133 0.383029 0.470566
Si Si4 0.092732 0.975032 0.443179
Si Si5 0.158464 0.250000 0.731916
Si Si6 0.838267 0.617464 0.856735
Si Si7 0.344250 0.384532 0.147628
O O1 0.750000 0.997034 0.750000
O O2 0.881485 0.134078 0.754903
O O3 0.879087 0.946309 0.806854
O O4 0.880520 0.943306 0.700391
O O5 0.500000 0.750000 0.127216
O O6 0.371970 0.859857 0.083205
O O7 0.351284 0.750000 0.168992
O O8 0.629744 0.500000 0.500000
O O9 0.500000 0.379329 0.481504
O O10 0.627536 0.250000 0.485552
O O11 0.610804 0.406735 0.409061
O O12 0.000000 0.951802 0.454138
O O13 0.135185 0.000000 0.500000
O O14 0.103747 0.082022 0.403540
O O15 0.250000 0.250000 0.750000
O O16 0.838173 0.750000 0.840786
O O17 0.746778 0.574550 0.864643
O O18 0.350963 0.250000 0.156936
#
# Coordination Sequence:
#
# PCOD8297989 Si02
#       7
#    16   8  16  16   8  16  16
#     4   9  17  31  51  76 104 135 169 208 257 312
#     4  10  20  38  58  78 108 144 179 224 280 325
#     4   9  18  35  58  79 105 141 178 220 271 325
#     4  10  22  37  54  74 102 141 180 219 265 318
#     4  10  18  32  56  78 106 140 180 214 264 326
#     4   9  18  33  53  77 108 137 172 214 265 319
#     4  10  19  32  53  77 104 135 173 218 262 307
#
# _framework density 19.754611000000001
#
# number of rings (size 3 to 8) (size 9 to 14) (size 15 to 20)
#    0.000    2.500    1.667    0.500    1.167    3.000 
#    1.500    1.667    0.000    2.000    0.000    0.000 
#    0.000    0.000    0.000    0.000    0.000    0.000 
#
# Total GULP energy -594703.982408 kJ/mol
# GULP energy per Si atom -12389.666300 kJ/mol
# Density = 1.970965 g / cm^3
# Si number density = 19.754611 Si / 1000 Ang^3
#
#
#
# Elastic Constant Matrix: (Units=GPa)
#
#
# Indices 1 2 3 4 5 6 
#
# 1 11.4243 14.4571 13.1790 0.0000 0.0000 0.0000
# 2 14.4571 137.1909 77.4729 0.0000 0.0000 0.0000
# 3 13.1790 77.4729 156.8338 0.0000 0.0000 0.0000
# 4 0.0000 0.0000 0.0000 43.2620 0.0000 0.0000
# 5 0.0000 0.0000 0.0000 0.0000 22.9319 0.0000
# 6 0.0000 0.0000 0.0000 0.0000 0.0000 14.4689
#
#
#
# Elastic Compliance Matrix: (Units=1/GPa)
#
#
# Indices 1 2 3 4 5 6 
#
# 1 0.103322 -0.008301 -0.004582 0.000000 0.000000 0.000000
# 2 -0.008301 0.010776 -0.004626 0.000000 0.000000 0.000000
# 3 -0.004582 -0.004626 0.009046 0.000000 0.000000 0.000000
# 4 0.000000 0.000000 0.000000 0.023115 0.000000 0.000000
# 5 0.000000 0.000000 0.000000 0.000000 0.043607 0.000000
# 6 0.000000 0.000000 0.000000 0.000000 0.000000 0.069114
#
#
# Mechanical properties :
#
#
# Convention : Reuss Voigt Hill
#
# Bulk Modulus (GPa) = 11.34712 57.29636 34.32174
# Shear Modulus (GPa) = 15.46203 29.48857 22.47530
#
# Velocity S-wave (km/s) = 2.80072 3.86780 3.37668
# Velocity P-wave (km/s) = 4.02681 7.00096 5.71090
#
# Compressibility (1/GPa) = 0.08812812
#
# Stress axis : x y z
#
# Youngs Moduli (GPa) = 9.67844 92.79936 110.54402
#
# Poissons Ratio (x) = 0.77029 0.50652
# Poissons Ratio (y) = 0.08034 0.51133
# Poissons Ratio (z) = 0.04435 0.42925
#
# Static dielectric constant tensor:
#      x y z
#    x 3.174690 0.000000 0.000000 
#    y 0.000000 4.137930 0.000000 
#    z 0.000000 0.000000 3.710070 
# 
# 
# High freq. dielectric constant tensor:
#      x y z
#    x 1.721040 0.000000 0.000000 
#    y 0.000000 1.787700 0.000000 
#    z 0.000000 0.000000 1.774340 
# 
# From -- ./inp_files/50803.got.cif
#   From: 2010.03.12/outbox.cif.g09.slc.cpg/sg74_26_cif.got.tgz:50803.got - 2010.04.16 15:46:19.
