data_PCOD8297478
_publ_section_title
;
Structure prediction by ZEFSAII (Michael W. Deem and Ramdas Pophale) SiO2 
 PCOD8297478
Probable space group: I M M A
;
_chemical_formula_sum "Si O2"
_cell_formula_units_Z 72
_cell_length_a 8.968643
_cell_length_b 17.931530
_cell_length_c 28.005209
_cell_angle_alpha 90.000000
_cell_angle_beta 90.000000
_cell_angle_gamma 90.000000
_cell_volume 4503.839468
_symmetry_space_group_name_H-M "I M M A"
_symmetry_group_IT_number 74
_symmetry_cell_setting 'orthorhombic'
loop_
_space_group_symop_operation_xyz
x,y,z
-x,1/2-y,z
x,-y,-z
-x,1/2+y,-z
-x,-y,-z
x,1/2+y,-z
-x,y,z
x,1/2-y,z
1/2+x,1/2+y,1/2+z
1/2-x,-y,1/2+z
1/2+x,1/2-y,1/2-z
1/2-x,y,1/2-z
1/2-x,1/2-y,1/2-z
1/2+x,y,1/2-z
1/2-x,1/2+y,1/2+z
1/2+x,-y,1/2+z
loop_
_atom_site_type_symbol
_atom_site_label
_atom_site_fract_x
_atom_site_fract_y
_atom_site_fract_z
Si Si1 0.821502 0.250000 0.197960
Si Si2 0.322839 0.834552 0.541715
Si Si3 0.327701 0.603913 0.799500
Si Si4 0.164611 0.936080 0.039496
Si Si5 0.669884 0.041065 0.102672
O O1 0.750000 0.250000 0.250000
O O2 0.756158 0.174385 0.175359
O O3 0.000000 0.250000 0.196351
O O4 0.500000 0.839771 0.547272
O O5 0.265908 0.750000 0.548986
O O6 0.276833 0.862116 0.488108
O O7 0.253944 0.887271 0.581851
O O8 0.500000 0.623858 0.788355
O O9 0.250000 0.578463 0.750000
O O10 0.315194 0.539488 0.839541
O O11 0.000000 0.922382 0.060775
O O12 0.268895 0.962032 0.083110
O O13 0.159998 0.000000 0.000000
O O14 0.500000 0.048463 0.086527
#
# Coordination Sequence:
#
# PCOD8297478 Si02
#       5
#     8  16  16  16  16
#     4  10  18  28  42  56  74 104 138 174 214 248
#     4   9  18  31  46  65  87 112 144 177 208 249
#     4  10  20  32  43  58  82 110 143 181 214 249
#     4   8  15  29  46  62  83 111 141 172 208 253
#     4  10  20  30  43  63  87 113 143 179 215 252
#
# _framework density 15.986361
#
# number of rings (size 3 to 8) (size 9 to 14) (size 15 to 20)
#    0.000    2.667    0.000    5.000    1.556    8.000 
#    0.000    0.000    0.000    0.000    0.000    0.000 
#    0.000    0.889    0.000    2.000    0.000    3.111 
#
# Total GULP energy -446021.196805 kJ/mol
# GULP energy per Si atom -12389.477689 kJ/mol
# Density = 1.594998 g / cm^3
# Si number density = 15.986361 Si / 1000 Ang^3
#
#
#
# Elastic Constant Matrix: (Units=GPa)
#
#
# Indices 1 2 3 4 5 6 
#
# 1 87.2481 18.4572 41.3010 0.0000 0.0000 0.0000
# 2 18.4572 36.4243 25.6326 0.0000 0.0000 0.0000
# 3 41.3010 25.6326 80.3574 0.0000 0.0000 0.0000
# 4 0.0000 0.0000 0.0000 23.8015 0.0000 0.0000
# 5 0.0000 0.0000 0.0000 0.0000 23.6779 0.0000
# 6 0.0000 0.0000 0.0000 0.0000 0.0000 17.6804
#
#
#
# Elastic Compliance Matrix: (Units=1/GPa)
#
#
# Indices 1 2 3 4 5 6 
#
# 1 0.015377 -0.002876 -0.006986 0.000000 0.000000 0.000000
# 2 -0.002876 0.035939 -0.009986 0.000000 0.000000 0.000000
# 3 -0.006986 -0.009986 0.019220 0.000000 0.000000 0.000000
# 4 0.000000 0.000000 0.000000 0.042014 0.000000 0.000000
# 5 0.000000 0.000000 0.000000 0.000000 0.042234 0.000000
# 6 0.000000 0.000000 0.000000 0.000000 0.000000 0.056560
#
#
# Mechanical properties :
#
#
# Convention : Reuss Voigt Hill
#
# Bulk Modulus (GPa) = 32.42444 41.64570 37.03507
# Shear Modulus (GPa) = 19.13377 20.94123 20.03750
#
# Velocity S-wave (km/s) = 3.46335 3.62324 3.54420
# Velocity P-wave (km/s) = 6.02658 6.60387 6.32182
#
# Compressibility (1/GPa) = 0.03084093
#
# Stress axis : x y z
#
# Youngs Moduli (GPa) = 65.03272 27.82521 52.02864
#
# Poissons Ratio (x) = 0.08002 0.36347
# Poissons Ratio (y) = 0.18702 0.51954
# Poissons Ratio (z) = 0.45431 0.27786
#
# Static dielectric constant tensor:
#      x y z
#    x 3.123910 0.000000 0.000000 
#    y 0.000000 3.421330 0.000000 
#    z 0.000000 0.000000 3.006500 
# 
# 
# High freq. dielectric constant tensor:
#      x y z
#    x 1.623880 0.000000 0.000000 
#    y 0.000000 1.572600 0.000000 
#    z 0.000000 0.000000 1.600040 
# 
# From -- ./inp_files/64143.got.cif
#   From: 2010.03.12/outbox.cif.g09.slc.cpg/sg74_33_cif.got.tgz:64143.got - 2010.04.16 15:46:19.
