data_PCOD8297584
_publ_section_title
;
Structure prediction by ZEFSAII (Michael W. Deem and Ramdas Pophale) SiO2 
 PCOD8297584
Probable space group: I M M A
;
_chemical_formula_sum "Si O2"
_cell_formula_units_Z 104
_cell_length_a 28.917359
_cell_length_b 9.161640
_cell_length_c 22.663395
_cell_angle_alpha 90.000000
_cell_angle_beta 90.000000
_cell_angle_gamma 90.000000
_cell_volume 6004.223049
_symmetry_space_group_name_H-M "I M M A"
_symmetry_group_IT_number 74
_symmetry_cell_setting 'orthorhombic'
loop_
_space_group_symop_operation_xyz
x,y,z
-x,1/2-y,z
x,-y,-z
-x,1/2+y,-z
-x,-y,-z
x,1/2+y,-z
-x,y,z
x,1/2-y,z
1/2+x,1/2+y,1/2+z
1/2-x,-y,1/2+z
1/2+x,1/2-y,1/2-z
1/2-x,y,1/2-z
1/2-x,1/2-y,1/2-z
1/2+x,y,1/2-z
1/2-x,1/2+y,1/2+z
1/2+x,-y,1/2+z
loop_
_atom_site_type_symbol
_atom_site_label
_atom_site_fract_x
_atom_site_fract_y
_atom_site_fract_z
Si Si1 0.733949 0.574833 0.437141
Si Si2 0.500000 0.084058 0.304723
Si Si3 0.177692 0.586841 0.843029
Si Si4 0.250000 0.013354 0.250000
Si Si5 0.911110 0.414069 0.802917
Si Si6 0.187761 0.915449 0.351797
Si Si7 0.500000 0.086901 0.163709
Si Si8 0.912483 0.412861 0.664185
O O1 0.732515 0.500000 0.500000
O O2 0.729851 0.750000 0.441379
O O3 0.691963 0.512149 0.398608
O O4 0.781338 0.522606 0.405291
O O5 0.500000 0.250000 0.328885
O O6 0.500000 0.085942 0.234179
O O7 0.455209 0.999000 0.329846
O O8 0.164714 0.750000 0.864370
O O9 0.218462 0.606692 0.794553
O O10 0.134149 0.508036 0.814880
O O11 0.215082 0.918269 0.289672
O O12 0.907409 0.250000 0.829935
O O13 0.917885 0.401193 0.733759
O O14 0.176108 0.750000 0.365000
O O15 0.137150 0.991597 0.350026
O O16 0.500000 0.250000 0.138780
O O17 0.454139 0.008997 0.138085
O O18 0.916330 0.250000 0.637124
#
# Coordination Sequence:
#
# PCOD8297584 Si02
#       8
#    16   8  16   8  16  16   8  16
#     4  10  21  37  54  71  95 127 166 208 247 292
#     4   9  17  29  43  63  96 133 164 199 241 287
#     4  11  21  32  48  72 101 132 164 201 247 293
#     4  10  18  30  44  70 101 130 159 200 243 292
#     4  10  18  29  46  69  97 131 168 201 238 289
#     4   9  17  29  49  72  96 127 162 199 243 293
#     4   9  17  27  39  61  92 129 160 193 236 281
#     4   9  16  28  44  66  93 127 163 195 232 287
#
# _framework density 17.321141999999998
#
# number of rings (size 3 to 8) (size 9 to 14) (size 15 to 20)
#    0.000    2.308    1.538    2.308    0.000    3.692 
#    0.000    1.538    0.000    0.000    0.000    1.077 
#    0.000    0.000    0.000    0.000    0.000    0.000 
#
# Total GULP energy -644365.611558 kJ/mol
# GULP energy per Si atom -12391.646376 kJ/mol
# Density = 1.728172 g / cm^3
# Si number density = 17.321142 Si / 1000 Ang^3
#
#
#
# Elastic Constant Matrix: (Units=GPa)
#
#
# Indices 1 2 3 4 5 6 
#
# 1 111.0690 48.9064 6.7746 0.0000 0.0000 0.0000
# 2 48.9064 116.5865 17.9951 0.0000 0.0000 0.0000
# 3 6.7746 17.9951 51.7066 0.0000 0.0000 0.0000
# 4 0.0000 0.0000 0.0000 13.5829 0.0000 0.0000
# 5 0.0000 0.0000 0.0000 0.0000 11.7321 0.0000
# 6 0.0000 0.0000 0.0000 0.0000 0.0000 19.4848
#
#
#
# Elastic Compliance Matrix: (Units=1/GPa)
#
#
# Indices 1 2 3 4 5 6 
#
# 1 0.011045 -0.004660 0.000175 0.000000 0.000000 0.000000
# 2 -0.004660 0.011030 -0.003228 0.000000 0.000000 0.000000
# 3 0.000175 -0.003228 0.020441 0.000000 0.000000 0.000000
# 4 0.000000 0.000000 0.000000 0.073622 0.000000 0.000000
# 5 0.000000 0.000000 0.000000 0.000000 0.085236 0.000000
# 6 0.000000 0.000000 0.000000 0.000000 0.000000 0.051322
#
#
# Mechanical properties :
#
#
# Convention : Reuss Voigt Hill
#
# Bulk Modulus (GPa) = 36.91617 47.41271 42.16444
# Shear Modulus (GPa) = 18.04061 22.67236 20.35649
#
# Velocity S-wave (km/s) = 3.23079 3.62185 3.43190
# Velocity P-wave (km/s) = 5.93939 6.70243 6.33242
#
# Compressibility (1/GPa) = 0.02708840
#
# Stress axis : x y z
#
# Youngs Moduli (GPa) = 90.54120 90.65822 48.92247
#
# Poissons Ratio (x) = 0.42247 -0.00855
# Poissons Ratio (y) = 0.42193 0.15794
# Poissons Ratio (z) = -0.01582 0.29267
#
# Static dielectric constant tensor:
#      x y z
#    x 3.585140 0.000000 0.000000 
#    y 0.000000 3.301450 0.000000 
#    z 0.000000 0.000000 2.763860 
# 
# 
# High freq. dielectric constant tensor:
#      x y z
#    x 1.682840 0.000000 0.000000 
#    y 0.000000 1.670700 0.000000 
#    z 0.000000 0.000000 1.605740 
# 
# From -- ./inp_files/62706.got.cif
#   From: 2010.03.12/outbox.cif.g09.slc.cpg/sg74_32_cif.got.tgz:62706.got - 2010.04.16 15:46:19.
