data_PCOD8297438
_publ_section_title
;
Structure prediction by ZEFSAII (Michael W. Deem and Ramdas Pophale) SiO2 
 PCOD8297438
Probable space group: I M M A
;
_chemical_formula_sum "Si O2"
_cell_formula_units_Z 80
_cell_length_a 29.075127
_cell_length_b 9.648312
_cell_length_c 18.892175
_cell_angle_alpha 90.000000
_cell_angle_beta 90.000000
_cell_angle_gamma 90.000000
_cell_volume 5299.744333
_symmetry_space_group_name_H-M "I M M A"
_symmetry_group_IT_number 74
_symmetry_cell_setting 'orthorhombic'
loop_
_space_group_symop_operation_xyz
x,y,z
-x,1/2-y,z
x,-y,-z
-x,1/2+y,-z
-x,-y,-z
x,1/2+y,-z
-x,y,z
x,1/2-y,z
1/2+x,1/2+y,1/2+z
1/2-x,-y,1/2+z
1/2+x,1/2-y,1/2-z
1/2-x,y,1/2-z
1/2-x,1/2-y,1/2-z
1/2+x,y,1/2-z
1/2-x,1/2+y,1/2+z
1/2+x,-y,1/2+z
loop_
_atom_site_type_symbol
_atom_site_label
_atom_site_fract_x
_atom_site_fract_y
_atom_site_fract_z
Si Si1 0.285835 0.594293 0.685766
Si Si2 0.272900 0.896940 0.108403
Si Si3 0.154371 0.905760 0.271521
Si Si4 0.342242 0.500000 0.000000
Si Si5 0.000000 0.408300 0.431198
Si Si6 0.402146 0.593432 0.872161
O O1 0.301654 0.750000 0.665596
O O2 0.250000 0.602583 0.750000
O O3 0.262338 0.525483 0.615649
O O4 0.330443 0.500728 0.704895
O O5 0.245990 0.750000 0.101637
O O6 0.300970 0.892723 0.180732
O O7 0.308314 0.901286 0.043527
O O8 0.138159 0.750000 0.248670
O O9 0.113980 0.983534 0.313878
O O10 0.374257 0.415473 0.054052
O O11 0.000000 0.500000 0.500000
O O12 0.955421 0.441028 0.384363
O O13 0.000000 0.250000 0.457048
O O14 0.395269 0.750000 0.843452
#
# Coordination Sequence:
#
# PCOD8297438 Si02
#       6
#    16  16  16   8   8  16
#     4   9  16  26  40  56  73  94 120 155 196 237
#     4   9  17  26  37  54  75  99 126 160 197 234
#     4   9  17  28  42  57  73  94 123 160 200 241
#     4  10  18  27  42  56  78 104 140 169 200 236
#     4  10  20  32  44  58  78 104 134 171 208 245
#     4  10  19  30  43  58  77 102 134 170 207 243
#
# _framework density 15.095067999999999
#
# number of rings (size 3 to 8) (size 9 to 14) (size 15 to 20)
#    0.000    2.600    1.000    1.800    0.000    9.600 
#    0.000    0.000    0.000    0.000    0.000    0.000 
#    0.000    0.000    0.000    0.000    0.000    1.000 
#
# Total GULP energy -495611.376668 kJ/mol
# GULP energy per Si atom -12390.284417 kJ/mol
# Density = 1.506071 g / cm^3
# Si number density = 15.095068 Si / 1000 Ang^3
#
#
#
# Elastic Constant Matrix: (Units=GPa)
#
#
# Indices 1 2 3 4 5 6 
#
# 1 76.1197 56.9318 34.3920 0.0000 0.0000 0.0000
# 2 56.9318 142.4768 25.4457 0.0000 0.0000 0.0000
# 3 34.3920 25.4457 26.1975 0.0000 0.0000 0.0000
# 4 0.0000 0.0000 0.0000 9.0341 0.0000 0.0000
# 5 0.0000 0.0000 0.0000 0.0000 11.6960 0.0000
# 6 0.0000 0.0000 0.0000 0.0000 0.0000 27.2384
#
#
#
# Elastic Compliance Matrix: (Units=1/GPa)
#
#
# Indices 1 2 3 4 5 6 
#
# 1 0.038066 -0.007605 -0.042587 0.000000 0.000000 0.000000
# 2 -0.007605 0.010011 0.000260 0.000000 0.000000 0.000000
# 3 -0.042587 0.000260 0.093827 0.000000 0.000000 0.000000
# 4 0.000000 0.000000 0.000000 0.110691 0.000000 0.000000
# 5 0.000000 0.000000 0.000000 0.000000 0.085500 0.000000
# 6 0.000000 0.000000 0.000000 0.000000 0.000000 0.036713
#
#
# Mechanical properties :
#
#
# Convention : Reuss Voigt Hill
#
# Bulk Modulus (GPa) = 23.78641 53.14812 38.46727
# Shear Modulus (GPa) = 10.23154 18.12867 14.18011
#
# Velocity S-wave (km/s) = 2.60630 3.46926 3.06827
# Velocity P-wave (km/s) = 4.98488 7.16471 6.17179
#
# Compressibility (1/GPa) = 0.04204080
#
# Stress axis : x y z
#
# Youngs Moduli (GPa) = 26.26982 99.88886 10.65796
#
# Poissons Ratio (x) = 0.75966 0.45389
# Poissons Ratio (y) = 0.19978 -0.00277
# Poissons Ratio (z) = 1.11874 -0.02598
#
# Static dielectric constant tensor:
#      x y z
#    x 2.720070 0.000000 0.000000 
#    y 0.000000 3.235550 0.000000 
#    z 0.000000 0.000000 2.645740 
# 
# 
# High freq. dielectric constant tensor:
#      x y z
#    x 1.540310 0.000000 0.000000 
#    y 0.000000 1.602150 0.000000 
#    z 0.000000 0.000000 1.529780 
# 
# From -- ./inp_files/46979.got.cif
#   From: 2010.03.12/outbox.cif.g09.slc.cpg/sg74_24_cif.got.tgz:46979.got - 2010.04.16 15:46:19.
