data_PCOD8297538
_publ_section_title
;
Structure prediction by ZEFSAII (Michael W. Deem and Ramdas Pophale) SiO2 
 PCOD8297538
Probable space group: I M M A
;
_chemical_formula_sum "Si O2"
_cell_formula_units_Z 112
_cell_length_a 23.137900
_cell_length_b 16.724687
_cell_length_c 14.893435
_cell_angle_alpha 90.000000
_cell_angle_beta 90.000000
_cell_angle_gamma 90.000000
_cell_volume 5763.374131
_symmetry_space_group_name_H-M "I M M A"
_symmetry_group_IT_number 74
_symmetry_cell_setting 'orthorhombic'
loop_
_space_group_symop_operation_xyz
x,y,z
-x,1/2-y,z
x,-y,-z
-x,1/2+y,-z
-x,-y,-z
x,1/2+y,-z
-x,y,z
x,1/2-y,z
1/2+x,1/2+y,1/2+z
1/2-x,-y,1/2+z
1/2+x,1/2-y,1/2-z
1/2-x,y,1/2-z
1/2-x,1/2-y,1/2-z
1/2+x,y,1/2-z
1/2-x,1/2+y,1/2+z
1/2+x,-y,1/2+z
loop_
_atom_site_type_symbol
_atom_site_label
_atom_site_fract_x
_atom_site_fract_y
_atom_site_fract_z
Si Si1 0.566887 0.343429 0.612459
Si Si2 0.066013 0.571989 0.297460
Si Si3 0.374820 0.418224 0.127020
Si Si4 0.566243 0.161471 0.972780
Si Si5 0.636738 0.344820 0.439339
Si Si6 0.062767 0.841903 0.779981
Si Si7 0.242678 0.341965 0.356499
O O1 0.500000 0.357699 0.583018
O O2 0.576388 0.250000 0.633424
O O3 0.582877 0.394535 0.700108
O O4 0.611729 0.373278 0.535494
O O5 0.109684 0.501868 0.326056
O O6 0.073053 0.644112 0.367457
O O7 0.000000 0.540145 0.298745
O O8 0.400717 0.348366 0.189177
O O9 0.306710 0.404546 0.115839
O O10 0.401496 0.407992 0.028067
O O11 0.500000 0.159206 0.002957
O O12 0.592111 0.250000 0.990837
O O13 0.633137 0.250000 0.433109
O O14 0.595931 0.383586 0.362762
O O15 0.702078 0.370909 0.415266
O O16 0.054220 0.750000 0.802234
O O17 0.000000 0.883615 0.769691
O O18 0.227279 0.250000 0.381078
O O19 0.250000 0.349234 0.250000
#
# Coordination Sequence:
#
# PCOD8297538 Si02
#       7
#    16  16  16  16  16  16  16
#     4   9  17  33  59  87 113 147 190 231 276 337
#     4  10  21  36  55  81 116 151 182 225 284 344
#     4  12  21  32  53  79 112 147 181 225 282 340
#     4  10  20  35  57  84 110 140 182 229 277 336
#     4   9  17  31  54  81 108 143 188 235 275 320
#     4  10  18  28  47  78 110 138 173 222 277 333
#     4  10  19  34  56  79 105 145 191 232 277 329
#
# _framework density 19.433062
#
# number of rings (size 3 to 8) (size 9 to 14) (size 15 to 20)
#    0.000    2.000    1.429    3.857    0.000    5.714 
#    0.000    0.714    6.286    2.571    0.000    4.000 
#    0.000    0.000    0.000    0.000    0.000    0.000 
#
# Total GULP energy -694130.708110 kJ/mol
# GULP energy per Si atom -12395.191216 kJ/mol
# Density = 1.938883 g / cm^3
# Si number density = 19.433062 Si / 1000 Ang^3
#
#
#
# Elastic Constant Matrix: (Units=GPa)
#
#
# Indices 1 2 3 4 5 6 
#
# 1 130.7804 37.2845 63.3178 0.0000 0.0000 0.0000
# 2 37.2845 56.2081 26.0259 0.0000 0.0000 0.0000
# 3 63.3178 26.0259 123.0861 0.0000 0.0000 0.0000
# 4 0.0000 0.0000 0.0000 17.6064 0.0000 0.0000
# 5 0.0000 0.0000 0.0000 0.0000 16.4029 0.0000
# 6 0.0000 0.0000 0.0000 0.0000 0.0000 22.3592
#
#
#
# Elastic Compliance Matrix: (Units=1/GPa)
#
#
# Indices 1 2 3 4 5 6 
#
# 1 0.011501 -0.005420 -0.004770 0.000000 0.000000 0.000000
# 2 -0.005420 0.022276 -0.001922 0.000000 0.000000 0.000000
# 3 -0.004770 -0.001922 0.010985 0.000000 0.000000 0.000000
# 4 0.000000 0.000000 0.000000 0.056798 0.000000 0.000000
# 5 0.000000 0.000000 0.000000 0.000000 0.060965 0.000000
# 6 0.000000 0.000000 0.000000 0.000000 0.000000 0.044724
#
#
# Mechanical properties :
#
#
# Convention : Reuss Voigt Hill
#
# Bulk Modulus (GPa) = 48.69214 62.59233 55.64224
# Shear Modulus (GPa) = 20.98016 23.50343 22.24180
#
# Velocity S-wave (km/s) = 3.28931 3.48150 3.38677
# Velocity P-wave (km/s) = 6.28783 6.95990 6.63238
#
# Compressibility (1/GPa) = 0.02053719
#
# Stress axis : x y z
#
# Youngs Moduli (GPa) = 86.94664 44.89055 91.03537
#
# Poissons Ratio (x) = 0.24332 0.43427
# Poissons Ratio (y) = 0.47128 0.17496
# Poissons Ratio (z) = 0.41477 0.08628
#
# Static dielectric constant tensor:
#      x y z
#    x 3.611380 0.000000 0.000000 
#    y 0.000000 3.219940 0.000000 
#    z 0.000000 0.000000 3.596700 
# 
# 
# High freq. dielectric constant tensor:
#      x y z
#    x 1.742380 0.000000 0.000000 
#    y 0.000000 1.730310 0.000000 
#    z 0.000000 0.000000 1.761320 
# 
# From -- ./inp_files/36494.got.cif
#   From: 2010.03.12/outbox.cif.g09.slc.cpg/sg74_19_cif.got.tgz:36494.got - 2010.04.16 15:46:19.
