data_PCOD8297352
_publ_section_title
;
Structure prediction by ZEFSAII (Michael W. Deem and Ramdas Pophale) SiO2 
 PCOD8297352
Probable space group: I M M A
;
_chemical_formula_sum "Si O2"
_cell_formula_units_Z 80
_cell_length_a 27.216014
_cell_length_b 18.027571
_cell_length_c 8.239614
_cell_angle_alpha 90.000000
_cell_angle_beta 90.000000
_cell_angle_gamma 90.000000
_cell_volume 4042.672881
_symmetry_space_group_name_H-M "I M M A"
_symmetry_group_IT_number 74
_symmetry_cell_setting 'orthorhombic'
loop_
_space_group_symop_operation_xyz
x,y,z
-x,1/2-y,z
x,-y,-z
-x,1/2+y,-z
-x,-y,-z
x,1/2+y,-z
-x,y,z
x,1/2-y,z
1/2+x,1/2+y,1/2+z
1/2-x,-y,1/2+z
1/2+x,1/2-y,1/2-z
1/2-x,y,1/2-z
1/2-x,1/2-y,1/2-z
1/2+x,y,1/2-z
1/2-x,1/2+y,1/2+z
1/2+x,-y,1/2+z
loop_
_atom_site_type_symbol
_atom_site_label
_atom_site_fract_x
_atom_site_fract_y
_atom_site_fract_z
Si Si1 0.647098 0.528993 0.171503
Si Si2 0.287166 0.435115 0.390029
Si Si3 0.844663 0.164715 0.870723
Si Si4 0.054472 0.480377 0.185727
Si Si5 0.444778 0.831719 0.552552
O O1 0.665961 0.474727 0.311690
O O2 0.663497 0.614030 0.209095
O O3 0.588332 0.521756 0.183774
O O4 0.666938 0.500000 0.000000
O O5 0.261292 0.500000 0.500000
O O6 0.250000 0.407420 0.250000
O O7 0.307086 0.364509 0.490436
O O8 0.831097 0.250000 0.831630
O O9 0.901942 0.156495 0.919429
O O10 0.000000 0.506731 0.229627
O O11 0.067800 0.500000 0.000000
O O12 0.060551 0.390824 0.198251
O O13 0.500000 0.840958 0.473497
O O14 0.438957 0.750000 0.629775
#
# Coordination Sequence:
#
# PCOD8297352 Si02
#       5
#    16  16  16  16  16
#     4  11  21  35  53  79 114 150 184 223 277 335
#     4  10  20  37  60  83 107 142 186 227 280 334
#     4  10  20  36  57  83 113 144 188 235 275 325
#     4  10  17  30  51  76 106 142 191 235 268 321
#     4   9  16  28  51  79 107 142 183 228 274 318
#
# _framework density 19.788889000000001
#
# number of rings (size 3 to 8) (size 9 to 14) (size 15 to 20)
#    0.000    2.000    4.000    1.200    0.000    0.800 
#    0.000    2.000    0.000   20.400    0.000    0.000 
#    0.000    0.000    0.000    0.000    0.000    0.000 
#
# Total GULP energy -495593.998421 kJ/mol
# GULP energy per Si atom -12389.849961 kJ/mol
# Density = 1.974385 g / cm^3
# Si number density = 19.788889 Si / 1000 Ang^3
#
#
#
# Elastic Constant Matrix: (Units=GPa)
#
#
# Indices 1 2 3 4 5 6 
#
# 1 76.4648 34.1530 28.9898 0.0000 0.0000 0.0000
# 2 34.1530 156.7497 52.2302 0.0000 0.0000 0.0000
# 3 28.9898 52.2302 84.2886 0.0000 0.0000 0.0000
# 4 0.0000 0.0000 0.0000 23.9096 0.0000 0.0000
# 5 0.0000 0.0000 0.0000 0.0000 15.8381 0.0000
# 6 0.0000 0.0000 0.0000 0.0000 0.0000 17.6972
#
#
#
# Elastic Compliance Matrix: (Units=1/GPa)
#
#
# Indices 1 2 3 4 5 6 
#
# 1 0.015531 -0.002021 -0.004089 0.000000 0.000000 0.000000
# 2 -0.002021 0.008303 -0.004450 0.000000 0.000000 0.000000
# 3 -0.004089 -0.004450 0.016028 0.000000 0.000000 0.000000
# 4 0.000000 0.000000 0.000000 0.041824 0.000000 0.000000
# 5 0.000000 0.000000 0.000000 0.000000 0.063139 0.000000
# 6 0.000000 0.000000 0.000000 0.000000 0.000000 0.056506
#
#
# Mechanical properties :
#
#
# Convention : Reuss Voigt Hill
#
# Bulk Modulus (GPa) = 53.35852 60.91657 57.13754
# Shear Modulus (GPa) = 21.86291 24.96432 23.41362
#
# Velocity S-wave (km/s) = 3.32747 3.55566 3.44346
# Velocity P-wave (km/s) = 6.46414 6.90702 6.68925
#
# Compressibility (1/GPa) = 0.01874115
#
# Stress axis : x y z
#
# Youngs Moduli (GPa) = 64.38710 120.44320 62.39233
#
# Poissons Ratio (x) = 0.24347 0.25513
# Poissons Ratio (y) = 0.13015 0.27762
# Poissons Ratio (z) = 0.26328 0.53592
#
# Static dielectric constant tensor:
#      x y z
#    x 3.643970 0.000000 0.000000 
#    y 0.000000 3.886120 0.000000 
#    z 0.000000 0.000000 3.200160 
# 
# 
# High freq. dielectric constant tensor:
#      x y z
#    x 1.786990 0.000000 0.000000 
#    y 0.000000 1.773760 0.000000 
#    z 0.000000 0.000000 1.714130 
# 
# From -- ./inp_files/16029.got.cif
#   From: 2010.03.12/outbox.cif.g09.slc.cpg/sg74_9_cif.got.tgz:16029.got - 2010.04.16 15:46:19.
