data_PCOD8297395
_publ_section_title
;
Structure prediction by ZEFSAII (Michael W. Deem and Ramdas Pophale) SiO2 
 PCOD8297395
Probable space group: I M M A
;
_chemical_formula_sum "Si O2"
_cell_formula_units_Z 88
_cell_length_a 14.421547
_cell_length_b 14.998141
_cell_length_c 26.215948
_cell_angle_alpha 90.000000
_cell_angle_beta 90.000000
_cell_angle_gamma 90.000000
_cell_volume 5670.415053
_symmetry_space_group_name_H-M "I M M A"
_symmetry_group_IT_number 74
_symmetry_cell_setting 'orthorhombic'
loop_
_space_group_symop_operation_xyz
x,y,z
-x,1/2-y,z
x,-y,-z
-x,1/2+y,-z
-x,-y,-z
x,1/2+y,-z
-x,y,z
x,1/2-y,z
1/2+x,1/2+y,1/2+z
1/2-x,-y,1/2+z
1/2+x,1/2-y,1/2-z
1/2-x,y,1/2-z
1/2-x,1/2-y,1/2-z
1/2+x,y,1/2-z
1/2-x,1/2+y,1/2+z
1/2+x,-y,1/2+z
loop_
_atom_site_type_symbol
_atom_site_label
_atom_site_fract_x
_atom_site_fract_y
_atom_site_fract_z
Si Si1 0.798037 0.853689 0.303374
Si Si2 0.809768 0.037818 0.886147
Si Si3 0.500000 0.529940 0.326952
Si Si4 0.000000 0.851566 0.270539
Si Si5 0.500000 0.157862 0.338851
Si Si6 0.894290 0.147560 0.971525
Si Si7 0.670362 0.347581 0.414042
O O1 0.776548 0.750000 0.314537
O O2 0.750000 0.882062 0.250000
O O3 0.762707 0.914046 0.349375
O O4 0.907918 0.873498 0.302383
O O5 0.820419 0.090207 0.939315
O O6 0.910492 0.042818 0.861237
O O7 0.772302 0.936377 0.897038
O O8 0.500000 0.598283 0.282096
O O9 0.500000 0.429308 0.303106
O O10 0.000000 0.750000 0.253193
O O11 0.500000 0.250000 0.305781
O O12 0.412578 0.157987 0.375074
O O13 0.884714 0.250000 0.954570
O O14 0.000000 0.114660 0.963016
O O15 0.869375 0.134613 0.030243
O O16 0.723641 0.250000 0.412337
#
# Coordination Sequence:
#
# PCOD8297395 Si02
#       7
#    16  16   8   8   8  16  16
#     4  10  20  33  48  67  91 118 150 186 226 271
#     4  11  19  28  44  67  93 123 159 189 216 265
#     4  10  18  25  42  67  89 121 155 184 221 261
#     4  10  20  34  49  64  90 121 147 183 230 273
#     4   8  14  25  39  57  88 124 155 179 212 264
#     4  10  18  26  39  64  98 129 154 183 222 270
#     4   9  17  28  41  60  91 129 157 182 222 267
#
# _framework density 15.519145999999999
#
# number of rings (size 3 to 8) (size 9 to 14) (size 15 to 20)
#    0.000    2.182    3.636    1.091    0.000    1.455 
#    0.000    0.000    0.000    1.636    0.000    2.545 
#    0.000    2.909    0.000    0.000    0.000    0.000 
#
# Total GULP energy -545083.109357 kJ/mol
# GULP energy per Si atom -12388.252485 kJ/mol
# Density = 1.548382 g / cm^3
# Si number density = 15.519146 Si / 1000 Ang^3
#
#
#
# Elastic Constant Matrix: (Units=GPa)
#
#
# Indices 1 2 3 4 5 6 
#
# 1 61.3545 38.1138 24.0009 0.0000 0.0000 0.0000
# 2 38.1138 103.9494 40.8392 0.0000 0.0000 0.0000
# 3 24.0009 40.8392 44.7090 0.0000 0.0000 0.0000
# 4 0.0000 0.0000 0.0000 22.6504 0.0000 0.0000
# 5 0.0000 0.0000 0.0000 0.0000 26.8951 0.0000
# 6 0.0000 0.0000 0.0000 0.0000 0.0000 20.3418
#
#
#
# Elastic Compliance Matrix: (Units=1/GPa)
#
#
# Indices 1 2 3 4 5 6 
#
# 1 0.022453 -0.005455 -0.007071 0.000000 0.000000 0.000000
# 2 -0.005455 0.016330 -0.011988 0.000000 0.000000 0.000000
# 3 -0.007071 -0.011988 0.037113 0.000000 0.000000 0.000000
# 4 0.000000 0.000000 0.000000 0.044149 0.000000 0.000000
# 5 0.000000 0.000000 0.000000 0.000000 0.037181 0.000000
# 6 0.000000 0.000000 0.000000 0.000000 0.000000 0.049160
#
#
# Mechanical properties :
#
#
# Convention : Reuss Voigt Hill
#
# Bulk Modulus (GPa) = 37.21796 46.21341 41.71569
# Shear Modulus (GPa) = 18.91279 21.11473 20.01376
#
# Velocity S-wave (km/s) = 3.49474 3.69258 3.59502
# Velocity P-wave (km/s) = 6.34967 6.92987 6.64611
#
# Compressibility (1/GPa) = 0.02686875
#
# Stress axis : x y z
#
# Youngs Moduli (GPa) = 44.53707 61.23719 26.94442
#
# Poissons Ratio (x) = 0.33402 0.19052
# Poissons Ratio (y) = 0.24293 0.32302
# Poissons Ratio (z) = 0.31492 0.73413
#
# Static dielectric constant tensor:
#      x y z
#    x 2.685500 0.000000 0.000000 
#    y 0.000000 3.713350 0.000000 
#    z 0.000000 0.000000 2.766630 
# 
# 
# High freq. dielectric constant tensor:
#      x y z
#    x 1.542990 0.000000 0.000000 
#    y 0.000000 1.618420 0.000000 
#    z 0.000000 0.000000 1.577330 
# 
# From -- ./inp_files/59993.got.cif
#   From: 2010.03.12/outbox.cif.g09.slc.cpg/sg74_30_cif.got.tgz:59993.got - 2010.04.16 15:46:19.
