data_PCOD8297725
_publ_section_title
;
Structure prediction by ZEFSAII (Michael W. Deem and Ramdas Pophale) SiO2 
 PCOD8297725
Probable space group: I M M A
;
_chemical_formula_sum "Si O2"
_cell_formula_units_Z 72
_cell_length_a 16.534925
_cell_length_b 8.943053
_cell_length_c 27.738954
_cell_angle_alpha 90.000000
_cell_angle_beta 90.000000
_cell_angle_gamma 90.000000
_cell_volume 4101.834318
_symmetry_space_group_name_H-M "I M M A"
_symmetry_group_IT_number 74
_symmetry_cell_setting 'orthorhombic'
loop_
_space_group_symop_operation_xyz
x,y,z
-x,1/2-y,z
x,-y,-z
-x,1/2+y,-z
-x,-y,-z
x,1/2+y,-z
-x,y,z
x,1/2-y,z
1/2+x,1/2+y,1/2+z
1/2-x,-y,1/2+z
1/2+x,1/2-y,1/2-z
1/2-x,y,1/2-z
1/2-x,1/2-y,1/2-z
1/2+x,y,1/2-z
1/2-x,1/2+y,1/2+z
1/2+x,-y,1/2+z
loop_
_atom_site_type_symbol
_atom_site_label
_atom_site_fract_x
_atom_site_fract_y
_atom_site_fract_z
Si Si1 0.000000 0.571053 0.947138
Si Si2 0.159027 0.923986 0.050703
Si Si3 0.909923 0.427141 0.313218
Si Si4 0.260412 0.920968 0.141627
Si Si5 0.830545 0.586391 0.780497
O O1 0.082279 0.506549 0.923591
O O2 0.000000 0.750000 0.946686
O O3 0.000000 0.500000 0.000000
O O4 0.138003 0.750000 0.042017
O O5 0.235499 0.942356 0.086005
O O6 0.182111 0.000000 0.000000
O O7 0.898809 0.250000 0.315459
O O8 0.845108 0.495785 0.350020
O O9 0.896135 0.479769 0.257490
O O10 0.000000 0.476499 0.329072
O O11 0.274218 0.750000 0.155178
O O12 0.185964 0.978835 0.174504
O O13 0.857797 0.750000 0.800013
O O14 0.750000 0.605058 0.750000
#
# Coordination Sequence:
#
# PCOD8297725 Si02
#       5
#     8  16  16  16  16
#     4  10  18  30  50  72  94 124 160 198 242 290
#     4  10  20  34  51  72 101 132 165 205 246 293
#     4   9  18  33  52  73  99 131 167 205 241 286
#     4  10  20  32  49  74 102 130 162 204 249 292
#     4   8  15  29  48  68  94 126 160 197 235 283
#
# _framework density 17.553124
#
# number of rings (size 3 to 8) (size 9 to 14) (size 15 to 20)
#    0.000    2.667    0.000    5.000    0.000    8.000 
#    2.000    0.000    0.000    0.667    0.000    0.000 
#    0.000    0.000    0.000    0.000    0.000    0.000 
#
# Total GULP energy -446102.586071 kJ/mol
# GULP energy per Si atom -12391.738502 kJ/mol
# Density = 1.751317 g / cm^3
# Si number density = 17.553124 Si / 1000 Ang^3
#
#
#
# Elastic Constant Matrix: (Units=GPa)
#
#
# Indices 1 2 3 4 5 6 
#
# 1 108.2191 51.3838 46.6443 0.0000 0.0000 0.0000
# 2 51.3838 104.6044 45.1637 0.0000 0.0000 0.0000
# 3 46.6443 45.1637 76.1219 0.0000 0.0000 0.0000
# 4 0.0000 0.0000 0.0000 26.4179 0.0000 0.0000
# 5 0.0000 0.0000 0.0000 0.0000 22.7106 0.0000
# 6 0.0000 0.0000 0.0000 0.0000 0.0000 21.0428
#
#
#
# Elastic Compliance Matrix: (Units=1/GPa)
#
#
# Indices 1 2 3 4 5 6 
#
# 1 0.013810 -0.004208 -0.005965 0.000000 0.000000 0.000000
# 2 -0.004208 0.014134 -0.005808 0.000000 0.000000 0.000000
# 3 -0.005965 -0.005808 0.020238 0.000000 0.000000 0.000000
# 4 0.000000 0.000000 0.000000 0.037853 0.000000 0.000000
# 5 0.000000 0.000000 0.000000 0.000000 0.044032 0.000000
# 6 0.000000 0.000000 0.000000 0.000000 0.000000 0.047522
#
#
# Mechanical properties :
#
#
# Convention : Reuss Voigt Hill
#
# Bulk Modulus (GPa) = 61.65209 63.92544 62.78876
# Shear Modulus (GPa) = 23.26036 23.75115 23.50575
#
# Velocity S-wave (km/s) = 3.64420 3.68244 3.66337
# Velocity P-wave (km/s) = 7.27367 7.38768 7.33090
#
# Compressibility (1/GPa) = 0.01622005
#
# Stress axis : x y z
#
# Youngs Moduli (GPa) = 72.41281 70.74971 49.41249
#
# Poissons Ratio (x) = 0.29772 0.29476
# Poissons Ratio (y) = 0.30471 0.28696
# Poissons Ratio (z) = 0.43197 0.41088
#
# Static dielectric constant tensor:
#      x y z
#    x 3.569930 0.000000 0.000000 
#    y 0.000000 3.319200 0.000000 
#    z 0.000000 0.000000 3.138920 
# 
# 
# High freq. dielectric constant tensor:
#      x y z
#    x 1.666060 0.000000 0.000000 
#    y 0.000000 1.684290 0.000000 
#    z 0.000000 0.000000 1.653780 
# 
# From -- ./inp_files/67472.got.cif
#   From: 2010.03.12/outbox.cif.g09.slc.cpg/sg74_34_cif.got.tgz:67472.got - 2010.04.16 15:46:19.
