data_PCOD8297468
_publ_section_title
;
Structure prediction by ZEFSAII (Michael W. Deem and Ramdas Pophale) SiO2 
 PCOD8297468
Probable space group: I M M A
;
_chemical_formula_sum "Si O2"
_cell_formula_units_Z 80
_cell_length_a 34.449794
_cell_length_b 9.560648
_cell_length_c 17.254704
_cell_angle_alpha 90.000000
_cell_angle_beta 90.000000
_cell_angle_gamma 90.000000
_cell_volume 5683.049929
_symmetry_space_group_name_H-M "I M M A"
_symmetry_group_IT_number 74
_symmetry_cell_setting 'orthorhombic'
loop_
_space_group_symop_operation_xyz
x,y,z
-x,1/2-y,z
x,-y,-z
-x,1/2+y,-z
-x,-y,-z
x,1/2+y,-z
-x,y,z
x,1/2-y,z
1/2+x,1/2+y,1/2+z
1/2-x,-y,1/2+z
1/2+x,1/2-y,1/2-z
1/2-x,y,1/2-z
1/2-x,1/2-y,1/2-z
1/2+x,y,1/2-z
1/2-x,1/2+y,1/2+z
1/2+x,-y,1/2+z
loop_
_atom_site_type_symbol
_atom_site_label
_atom_site_fract_x
_atom_site_fract_y
_atom_site_fract_z
Si Si1 0.329021 0.589367 0.320359
Si Si2 0.543776 0.750000 0.596549
Si Si3 0.542661 0.750000 0.412995
Si Si4 0.711582 0.410522 0.198992
Si Si5 0.095427 0.497388 0.908277
Si Si6 0.747423 0.912091 0.423220
O O1 0.338636 0.750000 0.296456
O O2 0.322092 0.492591 0.245253
O O3 0.363647 0.516811 0.366691
O O4 0.291712 0.588892 0.374522
O O5 0.500000 0.750000 0.633197
O O6 0.538621 0.750000 0.504927
O O7 0.570691 0.875183 0.624078
O O8 0.500000 0.750000 0.375290
O O9 0.566746 0.622197 0.382041
O O10 0.698931 0.250000 0.178774
O O11 0.750000 0.405060 0.250000
O O12 0.719039 0.503350 0.122351
O O13 0.103559 0.500000 0.000000
O O14 0.760016 0.750000 0.439764
O O15 0.739014 0.000000 0.500000
#
# Coordination Sequence:
#
# PCOD8297468 Si02
#       6
#    16   8   8  16  16  16
#     4  10  19  30  42  60  84 110 139 176 216 250
#     4   9  18  28  40  56  77 104 139 179 216 251
#     4   9  16  28  42  54  75 106 139 175 212 251
#     4   9  18  31  45  61  80 107 138 170 209 253
#     4  10  18  28  40  59  80 106 142 180 216 251
#     4  10  19  31  46  63  84 109 139 174 209 248
#
# _framework density 14.076947000000001
#
# number of rings (size 3 to 8) (size 9 to 14) (size 15 to 20)
#    0.000    2.400    1.000    2.400    1.400    5.600 
#    0.000    0.000    0.000    0.000    0.000    0.000 
#    0.000    0.000    0.000    0.000    0.000    6.000 
#
# Total GULP energy -495598.997578 kJ/mol
# GULP energy per Si atom -12389.974939 kJ/mol
# Density = 1.404491 g / cm^3
# Si number density = 14.076947 Si / 1000 Ang^3
#
#
#
# Elastic Constant Matrix: (Units=GPa)
#
#
# Indices 1 2 3 4 5 6 
#
# 1 75.7603 39.5960 16.5351 0.0000 0.0000 0.0000
# 2 39.5960 137.0346 24.8539 0.0000 0.0000 0.0000
# 3 16.5351 24.8539 22.7320 0.0000 0.0000 0.0000
# 4 0.0000 0.0000 0.0000 21.6857 0.0000 0.0000
# 5 0.0000 0.0000 0.0000 0.0000 12.5508 0.0000
# 6 0.0000 0.0000 0.0000 0.0000 0.0000 32.7801
#
#
#
# Elastic Compliance Matrix: (Units=1/GPa)
#
#
# Indices 1 2 3 4 5 6 
#
# 1 0.016802 -0.003291 -0.008623 0.000000 0.000000 0.000000
# 2 -0.003291 0.009747 -0.008263 0.000000 0.000000 0.000000
# 3 -0.008623 -0.008263 0.059298 0.000000 0.000000 0.000000
# 4 0.000000 0.000000 0.000000 0.046113 0.000000 0.000000
# 5 0.000000 0.000000 0.000000 0.000000 0.079676 0.000000
# 6 0.000000 0.000000 0.000000 0.000000 0.000000 0.030506
#
#
# Mechanical properties :
#
#
# Convention : Reuss Voigt Hill
#
# Bulk Modulus (GPa) = 21.98195 44.16633 33.07414
# Shear Modulus (GPa) = 16.79763 23.70610 20.25187
#
# Velocity S-wave (km/s) = 3.45813 4.10815 3.79708
# Velocity P-wave (km/s) = 5.62088 7.34477 6.53988
#
# Compressibility (1/GPa) = 0.04549187
#
# Stress axis : x y z
#
# Youngs Moduli (GPa) = 59.51836 102.59602 16.86400
#
# Poissons Ratio (x) = 0.33762 0.14543
# Poissons Ratio (y) = 0.19586 0.13935
# Poissons Ratio (z) = 0.51325 0.84776
#
# Static dielectric constant tensor:
#      x y z
#    x 2.709300 0.000000 0.000000 
#    y 0.000000 3.818970 0.000000 
#    z 0.000000 0.000000 2.476410 
# 
# 
# High freq. dielectric constant tensor:
#      x y z
#    x 1.519930 0.000000 0.000000 
#    y 0.000000 1.565070 0.000000 
#    z 0.000000 0.000000 1.488170 
# 
# From -- ./inp_files/40017.got.cif
#   From: 2010.03.12/outbox.cif.g09.slc.cpg/sg74_21_cif.got.tgz:40017.got - 2010.04.16 15:46:19.
