data_PCOD8297510
_publ_section_title
;
Structure prediction by ZEFSAII (Michael W. Deem and Ramdas Pophale) SiO2 
 PCOD8297510
Probable space group: I M M A
;
_chemical_formula_sum "Si O2"
_cell_formula_units_Z 104
_cell_length_a 9.271341
_cell_length_b 21.444485
_cell_length_c 27.332217
_cell_angle_alpha 90.000000
_cell_angle_beta 90.000000
_cell_angle_gamma 90.000000
_cell_volume 5434.167687
_symmetry_space_group_name_H-M "I M M A"
_symmetry_group_IT_number 74
_symmetry_cell_setting 'orthorhombic'
loop_
_space_group_symop_operation_xyz
x,y,z
-x,1/2-y,z
x,-y,-z
-x,1/2+y,-z
-x,-y,-z
x,1/2+y,-z
-x,y,z
x,1/2-y,z
1/2+x,1/2+y,1/2+z
1/2-x,-y,1/2+z
1/2+x,1/2-y,1/2-z
1/2-x,y,1/2-z
1/2-x,1/2-y,1/2-z
1/2+x,y,1/2-z
1/2-x,1/2+y,1/2+z
1/2+x,-y,1/2+z
loop_
_atom_site_type_symbol
_atom_site_label
_atom_site_fract_x
_atom_site_fract_y
_atom_site_fract_z
Si Si1 0.670328 0.638354 0.133273
Si Si2 0.834082 0.530012 0.299852
Si Si3 0.829418 0.060144 0.470340
Si Si4 0.664909 0.176725 0.298554
Si Si5 0.665707 0.088473 0.138027
Si Si6 0.171970 0.179303 0.528890
Si Si7 0.831030 0.250000 0.700226
O O1 0.500000 0.636650 0.126474
O O2 0.725771 0.573246 0.155946
O O3 0.736627 0.654773 0.080461
O O4 0.720739 0.690264 0.170870
O O5 0.750000 0.541757 0.250000
O O6 0.814902 0.459893 0.317866
O O7 0.000000 0.546730 0.289231
O O8 0.783633 0.057808 0.413320
O O9 0.773543 0.127377 0.490171
O O10 0.000000 0.056959 0.476360
O O11 0.764511 0.000000 0.500000
O O12 0.500000 0.154271 0.293006
O O13 0.674874 0.250000 0.306265
O O14 0.750000 0.155721 0.250000
O O15 0.735668 0.146922 0.347085
O O16 0.500000 0.110689 0.133205
O O17 0.229187 0.250000 0.517184
O O18 0.000000 0.181954 0.530374
O O19 0.750000 0.250000 0.750000
O O20 0.000000 0.250000 0.709879
#
# Coordination Sequence:
#
# PCOD8297510 Si02
#       7
#    16  16  16  16  16  16   8
#     4   9  16  28  44  65  95 127 162 203 249 294
#     4  10  20  32  47  69  99 133 166 203 248 299
#     4   9  17  29  46  71 104 138 173 217 266 309
#     4  10  21  37  57  80 106 138 173 211 260 319
#     4  10  20  33  51  77 107 138 171 212 264 315
#     4   9  15  25  43  67  94 125 163 207 253 300
#     4  10  18  28  44  66  92 124 162 204 245 288
#
# _framework density 19.138165999999998
#
# number of rings (size 3 to 8) (size 9 to 14) (size 15 to 20)
#    0.000    2.462    0.769    2.308    0.000    7.077 
#    0.000    1.538    0.000    0.462    0.000    2.154 
#    0.000    0.000    0.000    0.000    0.000    0.000 
#
# Total GULP energy -644515.850109 kJ/mol
# GULP energy per Si atom -12394.535579 kJ/mol
# Density = 1.909461 g / cm^3
# Si number density = 19.138166 Si / 1000 Ang^3
#
#
#
# Elastic Constant Matrix: (Units=GPa)
#
#
# Indices 1 2 3 4 5 6 
#
# 1 48.0521 27.8709 32.7728 0.0000 0.0000 0.0000
# 2 27.8709 103.0293 49.6884 0.0000 0.0000 0.0000
# 3 32.7728 49.6884 103.0640 0.0000 0.0000 0.0000
# 4 0.0000 0.0000 0.0000 53.2322 0.0000 0.0000
# 5 0.0000 0.0000 0.0000 0.0000 21.2842 0.0000
# 6 0.0000 0.0000 0.0000 0.0000 0.0000 13.4341
#
#
#
# Elastic Compliance Matrix: (Units=1/GPa)
#
#
# Indices 1 2 3 4 5 6 
#
# 1 0.027942 -0.004265 -0.006829 0.000000 0.000000 0.000000
# 2 -0.004265 0.013298 -0.005055 0.000000 0.000000 0.000000
# 3 -0.006829 -0.005055 0.014311 0.000000 0.000000 0.000000
# 4 0.000000 0.000000 0.000000 0.018786 0.000000 0.000000
# 5 0.000000 0.000000 0.000000 0.000000 0.046983 0.000000
# 6 0.000000 0.000000 0.000000 0.000000 0.000000 0.074438
#
#
# Mechanical properties :
#
#
# Convention : Reuss Voigt Hill
#
# Bulk Modulus (GPa) = 43.00481 52.75662 47.88071
# Shear Modulus (GPa) = 21.20390 27.17764 24.19077
#
# Velocity S-wave (km/s) = 3.33218 3.77248 3.55914
# Velocity P-wave (km/s) = 6.10934 6.82653 6.47787
#
# Compressibility (1/GPa) = 0.02325321
#
# Stress axis : x y z
#
# Youngs Moduli (GPa) = 35.78821 75.20208 69.87616
#
# Poissons Ratio (x) = 0.32077 0.47717
# Poissons Ratio (y) = 0.15265 0.35319
# Poissons Ratio (z) = 0.24439 0.38011
#
# Static dielectric constant tensor:
#      x y z
#    x 2.968470 0.000000 0.000000 
#    y 0.000000 3.654500 0.000000 
#    z 0.000000 0.000000 3.578560 
# 
# 
# High freq. dielectric constant tensor:
#      x y z
#    x 1.676540 0.000000 0.000000 
#    y 0.000000 1.759890 0.000000 
#    z 0.000000 0.000000 1.751740 
# 
# From -- ./inp_files/64802.got.cif
#   From: 2010.03.12/outbox.cif.g09.slc.cpg/sg74_33_cif.got.tgz:64802.got - 2010.04.16 15:46:19.
