data_PCOD8297076
_publ_section_title
;
Structure prediction by ZEFSAII (Michael W. Deem and Ramdas Pophale) SiO2 
 PCOD8297076
Probable space group: I B C A 
;
_chemical_formula_sum "Si O2"
_cell_formula_units_Z 64
_cell_length_a 10.507201
_cell_length_b 13.901590
_cell_length_c 19.565418
_cell_angle_alpha 90.000000
_cell_angle_beta 90.000000
_cell_angle_gamma 90.000000
_cell_volume 2857.858005
_symmetry_space_group_name_H-M "I B C A "
_symmetry_group_IT_number 73
_symmetry_cell_setting 'orthorhombic'
loop_
_space_group_symop_operation_xyz
x,y,z
-x,1/2-y,z
x,-y,1/2-z
1/2-x,y,-z
-x,-y,-z
x,1/2+y,-z
-x,y,1/2+z
1/2+x,-y,z
1/2+x,1/2+y,1/2+z
1/2-x,-y,1/2+z
1/2+x,1/2-y,-z
-x,1/2+y,1/2-z
1/2-x,1/2-y,1/2-z
1/2+x,y,1/2-z
1/2-x,1/2+y,z
x,1/2-y,1/2+z
loop_
_atom_site_type_symbol
_atom_site_label
_atom_site_fract_x
_atom_site_fract_y
_atom_site_fract_z
Si Si1 0.282579 0.677857 0.812566
Si Si2 0.098100 0.411849 0.008548
Si Si3 0.000000 0.250000 0.908598
Si Si4 0.520667 0.645449 0.647495
Si Si5 0.588605 0.500000 0.250000
O O1 0.250000 0.750000 0.750000
O O2 0.390162 0.719368 0.859022
O O3 0.170807 0.651223 0.866555
O O4 0.319746 0.575104 0.784633
O O5 0.058307 0.335320 0.952484
O O6 0.250000 0.438416 0.000000
O O7 0.000000 0.500000 0.000000
O O8 0.071301 0.364774 0.082302
O O9 0.500000 0.750000 0.683556
O O10 0.500768 0.555956 0.697293
#
# Coordination Sequence:
#
# PCOD8297076 Si02
#       5
#    16  16   8  16   8
#     4  12  26  47  79 115 159 207 268 336 411 485
#     4  12  30  50  80 114 160 214 272 337 409 489
#     4  12  28  50  82 114 154 216 274 328 416 490
#     4  12  25  49  76 109 161 205 264 339 400 483
#     4  12  26  46  78 116 154 210 264 334 414 492
#
# _framework density 22.394393999999998
#
# number of rings (size 3 to 8) (size 9 to 14) (size 15 to 20)
#    0.000    0.000    3.750    5.250    7.000    0.000 
#    0.000    0.000    0.000    0.000    0.000    0.000 
#    0.000    0.000    0.000    0.000    0.000    0.000 
#
# Total GULP energy -396445.271335 kJ/mol
# GULP energy per Si atom -12388.914729 kJ/mol
# Density = 2.234342 g / cm^3
# Si number density = 22.394394 Si / 1000 Ang^3
#
#
#
# Elastic Constant Matrix: (Units=GPa)
#
#
# Indices 1 2 3 4 5 6 
#
# 1 219.5802 76.3829 75.5700 0.0000 0.0000 0.0000
# 2 76.3829 187.1551 63.2305 0.0000 0.0000 0.0000
# 3 75.5700 63.2305 130.4975 0.0000 0.0000 0.0000
# 4 0.0000 0.0000 0.0000 84.2286 0.0000 0.0000
# 5 0.0000 0.0000 0.0000 0.0000 38.5341 0.0000
# 6 0.0000 0.0000 0.0000 0.0000 0.0000 51.0639
#
#
#
# Elastic Compliance Matrix: (Units=1/GPa)
#
#
# Indices 1 2 3 4 5 6 
#
# 1 0.006034 -0.001533 -0.002752 0.000000 0.000000 0.000000
# 2 -0.001533 0.006779 -0.002397 0.000000 0.000000 0.000000
# 3 -0.002752 -0.002397 0.010418 0.000000 0.000000 0.000000
# 4 0.000000 0.000000 0.000000 0.011872 0.000000 0.000000
# 5 0.000000 0.000000 0.000000 0.000000 0.025951 0.000000
# 6 0.000000 0.000000 0.000000 0.000000 0.000000 0.019583
#
#
# Mechanical properties :
#
#
# Convention : Reuss Voigt Hill
#
# Bulk Modulus (GPa) = 101.33886 107.51110 104.42498
# Shear Modulus (GPa) = 51.39291 56.23526 53.81409
#
# Velocity S-wave (km/s) = 4.79571 5.01656 4.90737
# Velocity P-wave (km/s) = 8.71867 9.03696 8.87924
#
# Compressibility (1/GPa) = 0.00986788
#
# Stress axis : x y z
#
# Youngs Moduli (GPa) = 165.71471 147.52333 95.99082
#
# Poissons Ratio (x) = 0.22618 0.26413
# Poissons Ratio (y) = 0.25407 0.23005
# Poissons Ratio (z) = 0.45599 0.35356
#
# Static dielectric constant tensor:
#      x y z
#    x 4.579100 0.000000 0.000000 
#    y 0.000000 4.634030 0.000000 
#    z 0.000000 0.000000 4.181580 
# 
# 
# High freq. dielectric constant tensor:
#      x y z
#    x 1.908530 0.000000 0.000000 
#    y 0.000000 1.907030 0.000000 
#    z 0.000000 0.000000 1.882910 
# 
# From -- ./inp_files/25215.got.cif
#   From: 2010.03.12/outbox.cif.g09.slc.cpg/sg73_13_cif.got.tgz:25215.got - 2010.04.16 15:25:48.
