data_PCOD8297837
_publ_section_title
;
Structure prediction by ZEFSAII (Michael W. Deem and Ramdas Pophale) SiO2 
 PCOD8297837
Probable space group: I M M A
;
_chemical_formula_sum "Si O2"
_cell_formula_units_Z 80
_cell_length_a 28.087567
_cell_length_b 7.789694
_cell_length_c 20.305522
_cell_angle_alpha 90.000000
_cell_angle_beta 90.000000
_cell_angle_gamma 90.000000
_cell_volume 4442.717286
_symmetry_space_group_name_H-M "I M M A"
_symmetry_group_IT_number 74
_symmetry_cell_setting 'orthorhombic'
loop_
_space_group_symop_operation_xyz
x,y,z
-x,1/2-y,z
x,-y,-z
-x,1/2+y,-z
-x,-y,-z
x,1/2+y,-z
-x,y,z
x,1/2-y,z
1/2+x,1/2+y,1/2+z
1/2-x,-y,1/2+z
1/2+x,1/2-y,1/2-z
1/2-x,y,1/2-z
1/2-x,1/2-y,1/2-z
1/2+x,y,1/2-z
1/2-x,1/2+y,1/2+z
1/2+x,-y,1/2+z
loop_
_atom_site_type_symbol
_atom_site_label
_atom_site_fract_x
_atom_site_fract_y
_atom_site_fract_z
Si Si1 0.783351 0.444845 0.192853
Si Si2 0.946753 0.250000 0.383356
Si Si3 0.446853 0.250000 0.273234
Si Si4 0.724073 0.449030 0.927194
Si Si5 0.617642 0.559833 0.272094
Si Si6 0.879692 0.553605 0.381792
O O1 0.795957 0.250000 0.212008
O O2 0.750000 0.525937 0.250000
O O3 0.757117 0.448047 0.123009
O O4 0.832747 0.547645 0.188734
O O5 0.949304 0.250000 0.305039
O O6 0.919995 0.422563 0.407945
O O7 0.000000 0.250000 0.413203
O O8 0.500000 0.250000 0.303150
O O9 0.419978 0.420532 0.298815
O O10 0.731922 0.250000 0.913115
O O11 0.668966 0.499008 0.917798
O O12 0.740372 0.500000 0.000000
O O13 0.596025 0.750000 0.283362
O O14 0.628809 0.527666 0.195572
O O15 0.894980 0.750000 0.397967
#
# Coordination Sequence:
#
# PCOD8297837 Si02
#       6
#    16   8   8  16  16  16
#     4  11  21  32  54  80 108 143 180 220 264 322
#     4   9  18  30  51  73  97 131 171 228 280 313
#     4   9  18  32  46  74 110 136 172 220 271 317
#     4  11  23  36  51  76 106 143 179 220 269 321
#     4  10  18  31  51  76 104 139 178 216 264 315
#     4   9  19  32  50  73  99 134 179 218 263 321
#
# _framework density 18.006996999999998
#
# number of rings (size 3 to 8) (size 9 to 14) (size 15 to 20)
#    0.000    2.000    3.000    1.200    2.800    1.600 
#    0.000    4.000    0.000    0.600    0.000    0.000 
#    0.000    0.800    0.400    0.000    0.000    0.000 
#
# Total GULP energy -496076.637486 kJ/mol
# GULP energy per Si atom -12401.915937 kJ/mol
# Density = 1.796601 g / cm^3
# Si number density = 18.006997 Si / 1000 Ang^3
#
#
#
# Elastic Constant Matrix: (Units=GPa)
#
#
# Indices 1 2 3 4 5 6 
#
# 1 114.4881 55.5857 29.8710 0.0000 0.0000 0.0000
# 2 55.5857 112.2288 14.6796 0.0000 0.0000 0.0000
# 3 29.8710 14.6796 62.6910 0.0000 0.0000 0.0000
# 4 0.0000 0.0000 0.0000 16.0907 0.0000 0.0000
# 5 0.0000 0.0000 0.0000 0.0000 13.1124 0.0000
# 6 0.0000 0.0000 0.0000 0.0000 0.0000 26.1257
#
#
#
# Elastic Compliance Matrix: (Units=1/GPa)
#
#
# Indices 1 2 3 4 5 6 
#
# 1 0.012730 -0.005686 -0.004734 0.000000 0.000000 0.000000
# 2 -0.005686 0.011732 -0.000038 0.000000 0.000000 0.000000
# 3 -0.004734 -0.000038 0.018216 0.000000 0.000000 0.000000
# 4 0.000000 0.000000 0.000000 0.062148 0.000000 0.000000
# 5 0.000000 0.000000 0.000000 0.000000 0.076264 0.000000
# 6 0.000000 0.000000 0.000000 0.000000 0.000000 0.038276
#
#
# Mechanical properties :
#
#
# Convention : Reuss Voigt Hill
#
# Bulk Modulus (GPa) = 45.95245 54.40893 50.18069
# Shear Modulus (GPa) = 20.19909 23.68386 21.94147
#
# Velocity S-wave (km/s) = 3.35287 3.63058 3.49448
# Velocity P-wave (km/s) = 6.36895 6.91780 6.64904
#
# Compressibility (1/GPa) = 0.02176163
#
# Stress axis : x y z
#
# Youngs Moduli (GPa) = 78.55211 85.24051 54.89698
#
# Poissons Ratio (x) = 0.48468 0.25990
# Poissons Ratio (y) = 0.44665 0.00207
# Poissons Ratio (z) = 0.37190 0.00322
#
# Static dielectric constant tensor:
#      x y z
#    x 3.318370 0.000000 0.000000 
#    y 0.000000 3.481370 0.000000 
#    z 0.000000 0.000000 2.857470 
# 
# 
# High freq. dielectric constant tensor:
#      x y z
#    x 1.684850 0.000000 0.000000 
#    y 0.000000 1.715300 0.000000 
#    z 0.000000 0.000000 1.644880 
# 
# From -- ./inp_files/46505.got.cif
#   From: 2010.03.12/outbox.cif.g09.slc.cpg/sg74_24_cif.got.tgz:46505.got - 2010.04.16 15:46:19.
