data_PCOD8297915
_publ_section_title
;
Structure prediction by ZEFSAII (Michael W. Deem and Ramdas Pophale) SiO2 
 PCOD8297915
Probable space group: I M M A
;
_chemical_formula_sum "Si O2"
_cell_formula_units_Z 88
_cell_length_a 20.214442
_cell_length_b 8.556326
_cell_length_c 29.964313
_cell_angle_alpha 90.000000
_cell_angle_beta 90.000000
_cell_angle_gamma 90.000000
_cell_volume 5182.668198
_symmetry_space_group_name_H-M "I M M A"
_symmetry_group_IT_number 74
_symmetry_cell_setting 'orthorhombic'
loop_
_space_group_symop_operation_xyz
x,y,z
-x,1/2-y,z
x,-y,-z
-x,1/2+y,-z
-x,-y,-z
x,1/2+y,-z
-x,y,z
x,1/2-y,z
1/2+x,1/2+y,1/2+z
1/2-x,-y,1/2+z
1/2+x,1/2-y,1/2-z
1/2-x,y,1/2-z
1/2-x,1/2-y,1/2-z
1/2+x,y,1/2-z
1/2-x,1/2+y,1/2+z
1/2+x,-y,1/2+z
loop_
_atom_site_type_symbol
_atom_site_label
_atom_site_fract_x
_atom_site_fract_y
_atom_site_fract_z
Si Si1 0.212582 0.936206 0.294221
Si Si2 0.636867 0.566237 0.451017
Si Si3 0.573497 0.573526 0.330037
Si Si4 0.302406 0.930251 0.630242
Si Si5 0.929339 0.427475 0.724409
Si Si6 0.000000 0.563485 0.950011
O O1 0.211294 0.750000 0.291793
O O2 0.250000 0.001108 0.250000
O O3 0.137325 0.005662 0.295533
O O4 0.247251 0.989151 0.339433
O O5 0.649846 0.500000 0.500000
O O6 0.633745 0.750000 0.454661
O O7 0.696285 0.511028 0.418635
O O8 0.567944 0.503108 0.428656
O O9 0.500000 0.526898 0.346985
O O10 0.591723 0.750000 0.346315
O O11 0.625711 0.449540 0.347845
O O12 0.576459 0.568641 0.277234
O O13 0.284820 0.750000 0.624801
O O14 0.932051 0.250000 0.707652
O O15 0.000000 0.508369 0.709995
O O16 0.000000 0.750000 0.948645
O O17 0.000000 0.500000 0.000000
#
# Coordination Sequence:
#
# PCOD8297915 Si02
#       6
#    16  16  16  16  16   8
#     4  10  18  32  52  72  98 132 171 210 251 300
#     4  11  22  38  55  71  94 126 166 209 255 300
#     4   9  17  31  49  68  92 126 171 213 250 295
#     4  12  24  34  47  70 101 133 168 209 255 302
#     4   8  14  27  49  72  94 125 166 211 251 293
#     4  10  18  32  52  74  98 126 162 206 256 298
#
# _framework density 16.979671
#
# number of rings (size 3 to 8) (size 9 to 14) (size 15 to 20)
#    0.000    2.000    1.818    6.273    1.273    0.727 
#    0.000    0.000    0.000    0.545    0.000    0.000 
#    0.000    0.727    0.000    2.000    0.000    2.909 
#
# Total GULP energy -545275.140732 kJ/mol
# GULP energy per Si atom -12392.616835 kJ/mol
# Density = 1.694102 g / cm^3
# Si number density = 16.979671 Si / 1000 Ang^3
#
#
#
# Elastic Constant Matrix: (Units=GPa)
#
#
# Indices 1 2 3 4 5 6 
#
# 1 130.1799 23.2893 55.7220 0.0000 0.0000 0.0000
# 2 23.2893 62.8433 16.6664 0.0000 0.0000 0.0000
# 3 55.7220 16.6664 73.0795 0.0000 0.0000 0.0000
# 4 0.0000 0.0000 0.0000 20.7355 0.0000 0.0000
# 5 0.0000 0.0000 0.0000 0.0000 28.3683 0.0000
# 6 0.0000 0.0000 0.0000 0.0000 0.0000 15.1458
#
#
#
# Elastic Compliance Matrix: (Units=1/GPa)
#
#
# Indices 1 2 3 4 5 6 
#
# 1 0.011656 -0.002089 -0.008411 0.000000 0.000000 0.000000
# 2 -0.002089 0.017311 -0.002355 0.000000 0.000000 0.000000
# 3 -0.008411 -0.002355 0.020634 0.000000 0.000000 0.000000
# 4 0.000000 0.000000 0.000000 0.048226 0.000000 0.000000
# 5 0.000000 0.000000 0.000000 0.000000 0.035251 0.000000
# 6 0.000000 0.000000 0.000000 0.000000 0.000000 0.066025
#
#
# Mechanical properties :
#
#
# Convention : Reuss Voigt Hill
#
# Bulk Modulus (GPa) = 41.85676 50.82868 46.34272
# Shear Modulus (GPa) = 21.47987 24.21159 22.84573
#
# Velocity S-wave (km/s) = 3.56059 3.78023 3.67205
# Velocity P-wave (km/s) = 6.45045 7.00382 6.73282
#
# Compressibility (1/GPa) = 0.02389100
#
# Stress axis : x y z
#
# Youngs Moduli (GPa) = 85.79630 57.76559 48.46378
#
# Poissons Ratio (x) = 0.12066 0.40762
# Poissons Ratio (y) = 0.17922 0.11415
# Poissons Ratio (z) = 0.72161 0.13605
#
# Static dielectric constant tensor:
#      x y z
#    x 3.571800 0.000000 0.000000 
#    y 0.000000 2.981770 0.000000 
#    z 0.000000 0.000000 3.154170 
# 
# 
# High freq. dielectric constant tensor:
#      x y z
#    x 1.639690 0.000000 0.000000 
#    y 0.000000 1.638700 0.000000 
#    z 0.000000 0.000000 1.636330 
# 
# From -- ./inp_files/73286.got.cif
#   From: 2010.03.12/outbox.cif.g09.slc.cpg/sg74_37_cif.got.tgz:73286.got - 2010.04.16 15:46:19.
