data_PCOD8297586
_publ_section_title
;
Structure prediction by ZEFSAII (Michael W. Deem and Ramdas Pophale) SiO2 
 PCOD8297586
Probable space group: I M M A
;
_chemical_formula_sum "Si O2"
_cell_formula_units_Z 80
_cell_length_a 7.827558
_cell_length_b 16.204932
_cell_length_c 34.920592
_cell_angle_alpha 90.000000
_cell_angle_beta 90.000000
_cell_angle_gamma 90.000000
_cell_volume 4429.504068
_symmetry_space_group_name_H-M "I M M A"
_symmetry_group_IT_number 74
_symmetry_cell_setting 'orthorhombic'
loop_
_space_group_symop_operation_xyz
x,y,z
-x,1/2-y,z
x,-y,-z
-x,1/2+y,-z
-x,-y,-z
x,1/2+y,-z
-x,y,z
x,1/2-y,z
1/2+x,1/2+y,1/2+z
1/2-x,-y,1/2+z
1/2+x,1/2-y,1/2-z
1/2-x,y,1/2-z
1/2-x,1/2-y,1/2-z
1/2+x,y,1/2-z
1/2-x,1/2+y,1/2+z
1/2+x,-y,1/2+z
loop_
_atom_site_type_symbol
_atom_site_label
_atom_site_fract_x
_atom_site_fract_y
_atom_site_fract_z
Si Si1 0.188959 0.903271 0.639322
Si Si2 0.700374 0.495135 0.706271
Si Si3 0.688654 0.065230 0.911069
Si Si4 0.000000 0.159269 0.095545
Si Si5 0.298645 0.341661 0.658381
Si Si6 0.500000 0.504225 0.454917
O O1 0.333354 0.843033 0.622878
O O2 0.000000 0.863116 0.634898
O O3 0.218623 0.927267 0.683725
O O4 0.204326 0.986969 0.615982
O O5 0.500000 0.499960 0.700449
O O6 0.750000 0.502862 0.750000
O O7 0.770055 0.407706 0.689553
O O8 0.500000 0.071538 0.930160
O O9 0.719044 0.143775 0.883730
O O10 0.832233 0.056663 0.943586
O O11 0.000000 0.250000 0.075631
O O12 0.000000 0.087727 0.063441
O O13 0.500000 0.350600 0.653816
O O14 0.245764 0.250000 0.672210
O O15 0.500000 0.500000 0.500000
#
# Coordination Sequence:
#
# PCOD8297586 Si02
#       6
#    16  16  16   8  16   8
#     4   9  17  32  53  76  99 131 174 215 254 306
#     4  10  18  29  46  72 102 137 180 221 263 312
#     4   9  17  31  52  74  98 134 180 215 250 305
#     4  10  20  36  58  82 106 132 170 214 258 310
#     4   9  17  30  47  68 100 140 181 224 264 304
#     4  10  20  36  56  80 110 138 168 210 258 310
#
# _framework density 18.060711000000001
#
# number of rings (size 3 to 8) (size 9 to 14) (size 15 to 20)
#    0.000    2.600    2.000    0.600    0.000    2.400 
#    0.000    1.000    0.000    0.600    0.000    0.000 
#    0.000    0.000    0.000    0.000    0.000    0.000 
#
# Total GULP energy -495763.504088 kJ/mol
# GULP energy per Si atom -12394.087602 kJ/mol
# Density = 1.801960 g / cm^3
# Si number density = 18.060711 Si / 1000 Ang^3
#
#
#
# Elastic Constant Matrix: (Units=GPa)
#
#
# Indices 1 2 3 4 5 6 
#
# 1 109.0085 18.7983 39.3680 0.0000 0.0000 0.0000
# 2 18.7983 52.0221 16.0692 0.0000 0.0000 0.0000
# 3 39.3680 16.0692 112.5470 0.0000 0.0000 0.0000
# 4 0.0000 0.0000 0.0000 17.0154 0.0000 0.0000
# 5 0.0000 0.0000 0.0000 0.0000 15.2283 0.0000
# 6 0.0000 0.0000 0.0000 0.0000 0.0000 5.5618
#
#
#
# Elastic Compliance Matrix: (Units=1/GPa)
#
#
# Indices 1 2 3 4 5 6 
#
# 1 0.010900 -0.002888 -0.003400 0.000000 0.000000 0.000000
# 2 -0.002888 0.020875 -0.001970 0.000000 0.000000 0.000000
# 3 -0.003400 -0.001970 0.010356 0.000000 0.000000 0.000000
# 4 0.000000 0.000000 0.000000 0.058770 0.000000 0.000000
# 5 0.000000 0.000000 0.000000 0.000000 0.065667 0.000000
# 6 0.000000 0.000000 0.000000 0.000000 0.000000 0.179799
#
#
# Mechanical properties :
#
#
# Convention : Reuss Voigt Hill
#
# Bulk Modulus (GPa) = 39.04269 46.89427 42.96848
# Shear Modulus (GPa) = 13.46178 20.85056 17.15617
#
# Velocity S-wave (km/s) = 2.73309 3.40144 3.08542
# Velocity P-wave (km/s) = 5.62353 6.43798 6.04449
#
# Compressibility (1/GPa) = 0.02561299
#
# Stress axis : x y z
#
# Youngs Moduli (GPa) = 91.74596 47.90448 96.56383
#
# Poissons Ratio (x) = 0.13836 0.32834
# Poissons Ratio (y) = 0.26499 0.19025
# Poissons Ratio (z) = 0.31196 0.09438
#
# Static dielectric constant tensor:
#      x y z
#    x 3.635600 0.000000 0.000000 
#    y 0.000000 3.165120 0.000000 
#    z 0.000000 0.000000 2.967740 
# 
# 
# High freq. dielectric constant tensor:
#      x y z
#    x 1.716160 0.000000 0.000000 
#    y 0.000000 1.671680 0.000000 
#    z 0.000000 0.000000 1.669040 
# 
# From -- ./inp_files/70146.got.cif
#   From: 2010.03.12/outbox.cif.g09.slc.cpg/sg74_36_cif.got.tgz:70146.got - 2010.04.16 15:46:19.
