data_PCOD8297926
_publ_section_title
;
Structure prediction by ZEFSAII (Michael W. Deem and Ramdas Pophale) SiO2 
 PCOD8297926
Probable space group: I M M A
;
_chemical_formula_sum "Si O2"
_cell_formula_units_Z 72
_cell_length_a 32.878805
_cell_length_b 8.552312
_cell_length_c 14.475380
_cell_angle_alpha 90.000000
_cell_angle_beta 90.000000
_cell_angle_gamma 90.000000
_cell_volume 4070.329186
_symmetry_space_group_name_H-M "I M M A"
_symmetry_group_IT_number 74
_symmetry_cell_setting 'orthorhombic'
loop_
_space_group_symop_operation_xyz
x,y,z
-x,1/2-y,z
x,-y,-z
-x,1/2+y,-z
-x,-y,-z
x,1/2+y,-z
-x,y,z
x,1/2-y,z
1/2+x,1/2+y,1/2+z
1/2-x,-y,1/2+z
1/2+x,1/2-y,1/2-z
1/2-x,y,1/2-z
1/2-x,1/2-y,1/2-z
1/2+x,y,1/2-z
1/2-x,1/2+y,1/2+z
1/2+x,-y,1/2+z
loop_
_atom_site_type_symbol
_atom_site_label
_atom_site_fract_x
_atom_site_fract_y
_atom_site_fract_z
Si Si1 0.312548 0.431059 0.406061
Si Si2 0.775067 0.434368 0.598429
Si Si3 0.082483 0.067889 0.601237
Si Si4 0.500000 0.065779 0.102616
Si Si5 0.654568 0.929349 0.787541
O O1 0.332352 0.500000 0.500000
O O2 0.300687 0.250000 0.420403
O O3 0.271804 0.526624 0.382980
O O4 0.344816 0.451612 0.323388
O O5 0.789702 0.500000 0.500000
O O6 0.782289 0.250000 0.602768
O O7 0.801562 0.518432 0.676214
O O8 0.075923 0.250000 0.589165
O O9 0.091919 0.000000 0.500000
O O10 0.041704 0.996062 0.648634
O O11 0.119533 0.035750 0.669766
O O12 0.500000 0.250000 0.104497
O O13 0.500000 0.000000 0.000000
O O14 0.646271 0.750000 0.814418
#
# Coordination Sequence:
#
# PCOD8297926 Si02
#       5
#    16  16  16   8  16
#     4  10  21  36  53  70  94 128 167 210 252 295
#     4  11  21  33  50  71  98 131 166 205 248 296
#     4  11  21  34  52  76 105 135 166 200 239 288
#     4  10  18  32  52  74 103 136 165 194 234 288
#     4  11  22  35  50  72 100 130 165 206 250 292
#
# _framework density 17.688987000000001
#
# number of rings (size 3 to 8) (size 9 to 14) (size 15 to 20)
#    0.000    1.333    0.000   10.333    0.000    6.222 
#    0.000    0.000    0.000    0.000    0.000    0.778 
#    0.000    0.000    0.000    0.000    0.000    0.000 
#
# Total GULP energy -446466.572938 kJ/mol
# GULP energy per Si atom -12401.849248 kJ/mol
# Density = 1.764873 g / cm^3
# Si number density = 17.688987 Si / 1000 Ang^3
#
#
#
# Elastic Constant Matrix: (Units=GPa)
#
#
# Indices 1 2 3 4 5 6 
#
# 1 72.0179 26.0782 40.1006 0.0000 0.0000 0.0000
# 2 26.0782 122.8638 32.6296 0.0000 0.0000 0.0000
# 3 40.1006 32.6296 85.7262 0.0000 0.0000 0.0000
# 4 0.0000 0.0000 0.0000 26.4790 0.0000 0.0000
# 5 0.0000 0.0000 0.0000 0.0000 30.8508 0.0000
# 6 0.0000 0.0000 0.0000 0.0000 0.0000 24.1298
#
#
#
# Elastic Compliance Matrix: (Units=1/GPa)
#
#
# Indices 1 2 3 4 5 6 
#
# 1 0.019157 -0.001876 -0.008247 0.000000 0.000000 0.000000
# 2 -0.001876 0.009238 -0.002639 0.000000 0.000000 0.000000
# 3 -0.008247 -0.002639 0.016527 0.000000 0.000000 0.000000
# 4 0.000000 0.000000 0.000000 0.037766 0.000000 0.000000
# 5 0.000000 0.000000 0.000000 0.000000 0.032414 0.000000
# 6 0.000000 0.000000 0.000000 0.000000 0.000000 0.041443
#
#
# Mechanical properties :
#
#
# Convention : Reuss Voigt Hill
#
# Bulk Modulus (GPa) = 51.54995 53.13606 52.34301
# Shear Modulus (GPa) = 26.52042 28.41189 27.46615
#
# Velocity S-wave (km/s) = 3.87623 4.01208 3.94474
# Velocity P-wave (km/s) = 7.01707 7.18099 7.09950
#
# Compressibility (1/GPa) = 0.01939866
#
# Stress axis : x y z
#
# Youngs Moduli (GPa) = 52.20082 108.24808 60.50632
#
# Poissons Ratio (x) = 0.20306 0.49900
# Poissons Ratio (y) = 0.09792 0.15966
# Poissons Ratio (z) = 0.43050 0.28564
#
# Static dielectric constant tensor:
#      x y z
#    x 3.415700 0.000000 0.000000 
#    y 0.000000 3.458450 0.000000 
#    z 0.000000 0.000000 3.281570 
# 
# 
# High freq. dielectric constant tensor:
#      x y z
#    x 1.664410 0.000000 0.000000 
#    y 0.000000 1.709290 0.000000 
#    z 0.000000 0.000000 1.662900 
# 
# From -- ./inp_files/29391.got.cif
#   From: 2010.03.12/outbox.cif.g09.slc.cpg/sg74_15_cif.got.tgz:29391.got - 2010.04.16 15:46:19.
