data_PCOD8297899
_publ_section_title
;
Structure prediction by ZEFSAII (Michael W. Deem and Ramdas Pophale) SiO2 
 PCOD8297899
Probable space group: I M M A
;
_chemical_formula_sum "Si O2"
_cell_formula_units_Z 96
_cell_length_a 8.734661
_cell_length_b 30.906494
_cell_length_c 19.644418
_cell_angle_alpha 90.000000
_cell_angle_beta 90.000000
_cell_angle_gamma 90.000000
_cell_volume 5303.162840
_symmetry_space_group_name_H-M "I M M A"
_symmetry_group_IT_number 74
_symmetry_cell_setting 'orthorhombic'
loop_
_space_group_symop_operation_xyz
x,y,z
-x,1/2-y,z
x,-y,-z
-x,1/2+y,-z
-x,-y,-z
x,1/2+y,-z
-x,y,z
x,1/2-y,z
1/2+x,1/2+y,1/2+z
1/2-x,-y,1/2+z
1/2+x,1/2-y,1/2-z
1/2-x,y,1/2-z
1/2-x,1/2-y,1/2-z
1/2+x,y,1/2-z
1/2-x,1/2+y,1/2+z
1/2+x,-y,1/2+z
loop_
_atom_site_type_symbol
_atom_site_label
_atom_site_fract_x
_atom_site_fract_y
_atom_site_fract_z
Si Si1 0.329278 0.801402 0.182852
Si Si2 0.181666 0.009530 0.679659
Si Si3 0.318600 0.701712 0.456523
Si Si4 0.818067 0.415167 0.180471
Si Si5 0.181300 0.377788 0.040604
Si Si6 0.680720 0.958921 0.454255
O O1 0.500000 0.820277 0.177996
O O2 0.331918 0.750000 0.188266
O O3 0.250000 0.821239 0.250000
O O4 0.236476 0.815838 0.116366
O O5 0.250000 0.028577 0.750000
O O6 0.231739 0.040043 0.617588
O O7 0.000000 0.006795 0.685213
O O8 0.250275 0.962212 0.666337
O O9 0.500000 0.702834 0.454909
O O10 0.253811 0.750000 0.472053
O O11 0.257045 0.668567 0.513939
O O12 0.750000 0.395198 0.250000
O O13 0.765993 0.384127 0.118599
O O14 0.000000 0.419241 0.185871
O O15 0.000000 0.379071 0.036940
O O16 0.242498 0.416484 0.993132
O O17 0.500000 0.957681 0.440364
O O18 0.725277 0.000000 0.500000
#
# Coordination Sequence:
#
# PCOD8297899 Si02
#       6
#    16  16  16  16  16  16
#     4   9  16  27  45  69  95 124 159 200 244 291
#     4  11  21  33  50  74 103 135 171 207 247 294
#     4   9  17  31  51  74  98 127 166 210 250 293
#     4  10  18  32  51  74 100 131 168 205 247 294
#     4   9  18  32  52  75 100 131 166 201 249 302
#     4  10  18  33  53  72  99 134 164 200 248 297
#
# _framework density 18.102404
#
# number of rings (size 3 to 8) (size 9 to 14) (size 15 to 20)
#    0.000    2.333    1.667    3.500    0.000    2.333 
#    0.000    3.333    0.000    0.500    0.000    0.000 
#    0.000    0.000    0.000    0.000    0.000    0.667 
#
# Total GULP energy -595091.298075 kJ/mol
# GULP energy per Si atom -12397.735377 kJ/mol
# Density = 1.806120 g / cm^3
# Si number density = 18.102404 Si / 1000 Ang^3
#
#
#
# Elastic Constant Matrix: (Units=GPa)
#
#
# Indices 1 2 3 4 5 6 
#
# 1 66.6584 23.7381 40.6871 0.0000 0.0000 0.0000
# 2 23.7381 85.0252 71.6708 0.0000 0.0000 0.0000
# 3 40.6871 71.6708 176.5655 0.0001 0.0000 0.0000
# 4 0.0000 0.0000 0.0001 28.1929 0.0000 0.0000
# 5 0.0000 0.0000 0.0000 0.0000 29.8281 0.0000
# 6 0.0000 0.0000 0.0000 0.0000 0.0000 9.8415
#
#
#
# Elastic Compliance Matrix: (Units=1/GPa)
#
#
# Indices 1 2 3 4 5 6 
#
# 1 0.017746 -0.002292 -0.003159 0.000000 0.000000 0.000000
# 2 -0.002292 0.018175 -0.006849 0.000000 0.000000 0.000000
# 3 -0.003159 -0.006849 0.009172 0.000000 0.000000 0.000000
# 4 0.000000 0.000000 0.000000 0.035470 0.000000 0.000000
# 5 0.000000 0.000000 0.000000 0.000000 0.033525 0.000000
# 6 0.000000 0.000000 0.000000 0.000000 0.000000 0.101611
#
#
# Mechanical properties :
#
#
# Convention : Reuss Voigt Hill
#
# Bulk Modulus (GPa) = 48.79827 66.71570 57.75698
# Shear Modulus (GPa) = 20.23232 26.38271 23.30751
#
# Velocity S-wave (km/s) = 3.34677 3.82175 3.59212
# Velocity P-wave (km/s) = 6.47687 7.51059 7.01280
#
# Compressibility (1/GPa) = 0.02049253
#
# Stress axis : x y z
#
# Youngs Moduli (GPa) = 56.34995 55.02214 109.02926
#
# Poissons Ratio (x) = 0.12609 0.34445
# Poissons Ratio (y) = 0.12913 0.74677
# Poissons Ratio (z) = 0.17802 0.37686
#
# Static dielectric constant tensor:
#      x y z
#    x 3.215240 0.000000 0.000000 
#    y 0.000000 3.285390 0.000000 
#    z 0.000000 0.000000 3.669840 
# 
# 
# High freq. dielectric constant tensor:
#      x y z
#    x 1.689570 0.000000 0.000000 
#    y 0.000000 1.663980 0.000000 
#    z 0.000000 0.000000 1.712240 
# 
# From -- ./inp_files/49044.got.cif
#   From: 2010.03.12/outbox.cif.g09.slc.cpg/sg74_25_cif.got.tgz:49044.got - 2010.04.16 15:46:19.
