data_PCOD8297308
_publ_section_title
;
Structure prediction by ZEFSAII (Michael W. Deem and Ramdas Pophale) SiO2 
 PCOD8297308
Probable space group: I M M A
;
_chemical_formula_sum "Si O2"
_cell_formula_units_Z 80
_cell_length_a 14.020025
_cell_length_b 17.565788
_cell_length_c 19.035116
_cell_angle_alpha 90.000000
_cell_angle_beta 90.000000
_cell_angle_gamma 90.000000
_cell_volume 4687.831066
_symmetry_space_group_name_H-M "I M M A"
_symmetry_group_IT_number 74
_symmetry_cell_setting 'orthorhombic'
loop_
_space_group_symop_operation_xyz
x,y,z
-x,1/2-y,z
x,-y,-z
-x,1/2+y,-z
-x,-y,-z
x,1/2+y,-z
-x,y,z
x,1/2-y,z
1/2+x,1/2+y,1/2+z
1/2-x,-y,1/2+z
1/2+x,1/2-y,1/2-z
1/2-x,y,1/2-z
1/2-x,1/2-y,1/2-z
1/2+x,y,1/2-z
1/2-x,1/2+y,1/2+z
1/2+x,-y,1/2+z
loop_
_atom_site_type_symbol
_atom_site_label
_atom_site_fract_x
_atom_site_fract_y
_atom_site_fract_z
Si Si1 0.605740 0.493345 0.714670
Si Si2 0.107508 0.394360 0.585969
Si Si3 0.609256 0.663244 0.935090
Si Si4 0.207650 0.468130 0.358697
Si Si5 0.360518 0.166423 0.763208
O O1 0.500000 0.527417 0.699999
O O2 0.678921 0.522873 0.655243
O O3 0.645311 0.521089 0.789014
O O4 0.593550 0.401268 0.717326
O O5 0.131456 0.344586 0.517717
O O6 0.177402 0.466983 0.586155
O O7 0.119574 0.341850 0.654174
O O8 0.000000 0.426145 0.582799
O O9 0.500000 0.638535 0.918940
O O10 0.626191 0.750000 0.912752
O O11 0.684214 0.614143 0.890273
O O12 0.399065 0.250000 0.739783
O O13 0.250000 0.159597 0.750000
#
# Coordination Sequence:
#
# PCOD8297308 Si02
#       5
#    16  16  16  16  16
#     4  10  19  32  50  72  97 130 172 206 236 286
#     4  10  18  30  49  74 101 129 159 192 238 300
#     4  10  20  32  50  76 101 125 157 202 253 298
#     4  10  18  33  50  73  99 130 161 199 247 290
#     4  10  17  28  46  72 104 133 158 190 238 291
#
# _framework density 17.065460999999999
#
# number of rings (size 3 to 8) (size 9 to 14) (size 15 to 20)
#    0.000    2.000    4.000    4.800    0.000    4.000 
#    0.000    2.000    0.000    4.200    0.000    0.000 
#    0.000    0.000    0.000    0.000    0.000    0.000 
#
# Total GULP energy -495802.975855 kJ/mol
# GULP energy per Si atom -12395.074396 kJ/mol
# Density = 1.702662 g / cm^3
# Si number density = 17.065461 Si / 1000 Ang^3
#
#
#
# Elastic Constant Matrix: (Units=GPa)
#
#
# Indices 1 2 3 4 5 6 
#
# 1 130.8159 41.0509 38.7392 0.0000 0.0000 0.0000
# 2 41.0509 87.1487 34.6300 0.0000 0.0000 0.0000
# 3 38.7392 34.6300 49.9287 0.0000 0.0000 0.0000
# 4 0.0000 0.0000 0.0000 19.7196 0.0000 0.0000
# 5 0.0000 0.0000 0.0000 0.0000 22.4604 0.0000
# 6 0.0000 0.0000 0.0000 0.0000 0.0000 13.2919
#
#
#
# Elastic Compliance Matrix: (Units=1/GPa)
#
#
# Indices 1 2 3 4 5 6 
#
# 1 0.010249 -0.002302 -0.006355 0.000000 0.000000 0.000000
# 2 -0.002302 0.016358 -0.009559 0.000000 0.000000 0.000000
# 3 -0.006355 -0.009559 0.031589 0.000000 0.000000 0.000000
# 4 0.000000 0.000000 0.000000 0.050711 0.000000 0.000000
# 5 0.000000 0.000000 0.000000 0.000000 0.044523 0.000000
# 6 0.000000 0.000000 0.000000 0.000000 0.000000 0.075234
#
#
# Mechanical properties :
#
#
# Convention : Reuss Voigt Hill
#
# Bulk Modulus (GPa) = 45.94980 55.19260 50.57120
# Shear Modulus (GPa) = 18.35870 21.32594 19.84232
#
# Velocity S-wave (km/s) = 3.28347 3.53888 3.41356
# Velocity P-wave (km/s) = 6.43109 7.00786 6.72566
#
# Compressibility (1/GPa) = 0.02176288
#
# Stress axis : x y z
#
# Youngs Moduli (GPa) = 97.57273 61.13367 31.65617
#
# Poissons Ratio (x) = 0.14075 0.20118
# Poissons Ratio (y) = 0.22465 0.30260
# Poissons Ratio (z) = 0.62008 0.58438
#
# Static dielectric constant tensor:
#      x y z
#    x 3.237040 0.000000 0.000000 
#    y 0.000000 3.280780 0.000000 
#    z 0.000000 0.000000 6.618560 
# 
# 
# High freq. dielectric constant tensor:
#      x y z
#    x 1.651650 0.000000 0.000000 
#    y 0.000000 1.653740 0.000000 
#    z 0.000000 0.000000 1.629990 
# 
# From -- ./inp_files/42663.got.cif
#   From: 2010.03.12/outbox.cif.g09.slc.cpg/sg74_22_cif.got.tgz:42663.got - 2010.04.16 15:46:19.
