data_PCOD8297046
_publ_section_title
;
Structure prediction by ZEFSAII (Michael W. Deem and Ramdas Pophale) SiO2 
 PCOD8297046
Probable space group: I B C A 
;
_chemical_formula_sum "Si O2"
_cell_formula_units_Z 120
_cell_length_a 17.034501
_cell_length_b 12.110252
_cell_length_c 25.754452
_cell_angle_alpha 90.000000
_cell_angle_beta 90.000000
_cell_angle_gamma 90.000000
_cell_volume 5312.939982
_symmetry_space_group_name_H-M "I B C A "
_symmetry_group_IT_number 73
_symmetry_cell_setting 'orthorhombic'
loop_
_space_group_symop_operation_xyz
x,y,z
-x,1/2-y,z
x,-y,1/2-z
1/2-x,y,-z
-x,-y,-z
x,1/2+y,-z
-x,y,1/2+z
1/2+x,-y,z
1/2+x,1/2+y,1/2+z
1/2-x,-y,1/2+z
1/2+x,1/2-y,-z
-x,1/2+y,1/2-z
1/2-x,1/2-y,1/2-z
1/2+x,y,1/2-z
1/2-x,1/2+y,z
x,1/2-y,1/2+z
loop_
_atom_site_type_symbol
_atom_site_label
_atom_site_fract_x
_atom_site_fract_y
_atom_site_fract_z
Si Si1 0.709405 0.138106 0.436950
Si Si2 0.250000 0.832416 0.000000
Si Si3 0.699111 0.858447 0.179028
Si Si4 0.878018 0.805482 0.194477
Si Si5 0.409823 0.045976 0.696557
Si Si6 0.423873 0.819093 0.198190
Si Si7 0.645674 0.517517 0.472292
Si Si8 0.552489 0.017688 0.627590
O O1 0.750775 0.254629 0.449444
O O2 0.673995 0.150270 0.380862
O O3 0.641771 0.106804 0.480150
O O4 0.778183 0.045724 0.436642
O O5 0.331996 0.900709 0.001350
O O6 0.787412 0.837587 0.195267
O O7 0.649048 0.763616 0.206177
O O8 0.673071 0.981000 0.195864
O O9 0.892402 0.674919 0.193973
O O10 0.927793 0.861553 0.241932
O O11 0.913740 0.862844 0.143442
O O12 0.461707 0.011726 0.645930
O O13 0.451508 0.000000 0.750000
O O14 0.500000 0.750000 0.180601
O O15 0.404458 0.915781 0.157141
O O16 0.568169 0.509212 0.435149
#
# Coordination Sequence:
#
# PCOD8297046 Si02
#       8
#    16   8  16  16  16  16  16  16
#     4   9  19  39  61  97 134 168 230 293 342 406
#     4   8  16  34  66  88 134 164 216 278 350 394
#     4  12  25  42  67 105 130 181 239 292 343 422
#     4  12  26  42  70  98 134 189 242 290 346 422
#     4  12  26  46  67  97 153 189 232 299 359 424
#     4  12  24  44  67  94 144 188 223 284 358 424
#     4   9  19  37  64  97 127 169 224 283 349 415
#     4  12  23  43  70 101 136 189 233 277 366 435
#
# _framework density 22.586365000000001
#
# number of rings (size 3 to 8) (size 9 to 14) (size 15 to 20)
#    0.000    1.333    4.000    3.600    1.867    2.133 
#    0.000    0.667    0.000    0.000    0.000    0.000 
#    0.000    0.000    0.000    0.000    0.000    0.000 
#
# Total GULP energy -743333.958849 kJ/mol
# GULP energy per Si atom -12388.899314 kJ/mol
# Density = 2.253496 g / cm^3
# Si number density = 22.586365 Si / 1000 Ang^3
#
#
#
# Elastic Constant Matrix: (Units=GPa)
#
#
# Indices 1 2 3 4 5 6 
#
# 1 91.7199 32.7708 20.5145 0.0000 0.0000 0.0000
# 2 32.7708 143.4435 30.8011 0.0000 0.0000 0.0000
# 3 20.5145 30.8011 120.6908 0.0000 0.0000 0.0000
# 4 0.0000 0.0000 0.0000 16.0184 0.0000 0.0000
# 5 0.0000 0.0000 0.0000 0.0000 38.1874 0.0000
# 6 0.0000 0.0000 0.0000 0.0000 0.0000 4.9726
#
#
#
# Elastic Compliance Matrix: (Units=1/GPa)
#
#
# Indices 1 2 3 4 5 6 
#
# 1 0.012101 -0.002457 -0.001430 0.000000 0.000000 0.000000
# 2 -0.002457 0.007875 -0.001592 0.000000 0.000000 0.000000
# 3 -0.001430 -0.001592 0.008935 0.000000 0.000000 0.000000
# 4 0.000000 0.000000 0.000000 0.062428 0.000000 0.000000
# 5 0.000000 0.000000 0.000000 0.000000 0.026187 0.000000
# 6 0.000000 0.000000 0.000000 0.000000 0.000000 0.201103
#
#
# Mechanical properties :
#
#
# Convention : Reuss Voigt Hill
#
# Bulk Modulus (GPa) = 55.70417 58.22524 56.96470
# Shear Modulus (GPa) = 14.90000 29.95352 22.42676
#
# Velocity S-wave (km/s) = 2.57123 3.64562 3.15450
# Velocity P-wave (km/s) = 5.79062 6.59967 6.20834
#
# Compressibility (1/GPa) = 0.01795198
#
# Stress axis : x y z
#
# Youngs Moduli (GPa) = 82.64075 126.98967 111.92047
#
# Poissons Ratio (x) = 0.31208 0.16001
# Poissons Ratio (y) = 0.20309 0.17817
# Poissons Ratio (z) = 0.11815 0.20216
#
# Static dielectric constant tensor:
#      x y z
#    x 3.835110 0.000000 0.000000 
#    y 0.000000 4.285040 0.000000 
#    z 0.000000 0.000000 4.126820 
# 
# 
# High freq. dielectric constant tensor:
#      x y z
#    x 1.860860 0.000000 0.000000 
#    y 0.000000 1.905200 0.000000 
#    z 0.000000 0.000000 1.885390 
# 
# From -- ./inp_files/32477.got.cif
#   From: 2010.03.12/outbox.cif.g09.slc.cpg/sg73_17_cif.got.tgz:32477.got - 2010.04.16 15:25:48.
