data_PCOD8297828
_publ_section_title
;
Structure prediction by ZEFSAII (Michael W. Deem and Ramdas Pophale) SiO2 
 PCOD8297828
Probable space group: I M M A
;
_chemical_formula_sum "Si O2"
_cell_formula_units_Z 96
_cell_length_a 22.871071
_cell_length_b 8.657877
_cell_length_c 27.304785
_cell_angle_alpha 90.000000
_cell_angle_beta 90.000000
_cell_angle_gamma 90.000000
_cell_volume 5406.754806
_symmetry_space_group_name_H-M "I M M A"
_symmetry_group_IT_number 74
_symmetry_cell_setting 'orthorhombic'
loop_
_space_group_symop_operation_xyz
x,y,z
-x,1/2-y,z
x,-y,-z
-x,1/2+y,-z
-x,-y,-z
x,1/2+y,-z
-x,y,z
x,1/2-y,z
1/2+x,1/2+y,1/2+z
1/2-x,-y,1/2+z
1/2+x,1/2-y,1/2-z
1/2-x,y,1/2-z
1/2-x,1/2-y,1/2-z
1/2+x,y,1/2-z
1/2-x,1/2+y,1/2+z
1/2+x,-y,1/2+z
loop_
_atom_site_type_symbol
_atom_site_label
_atom_site_fract_x
_atom_site_fract_y
_atom_site_fract_z
Si Si1 0.296434 0.068083 0.645229
Si Si2 0.380810 0.069571 0.104043
Si Si3 0.000000 0.571041 0.735635
Si Si4 0.228747 0.566975 0.448165
Si Si5 0.179002 0.075029 0.690870
Si Si6 0.000000 0.932588 0.372508
Si Si7 0.891483 0.926220 0.214144
O O1 0.303012 0.250000 0.644335
O O2 0.277448 0.008424 0.591305
O O3 0.245709 0.020261 0.683678
O O4 0.359862 0.007060 0.664588
O O5 0.383195 0.250000 0.093316
O O6 0.335441 0.992823 0.066362
O O7 0.362812 0.037541 0.160087
O O8 0.444877 0.997608 0.097560
O O9 0.000000 0.477691 0.685039
O O10 0.944383 0.533314 0.769447
O O11 0.000000 0.750000 0.721853
O O12 0.248401 0.500000 0.500000
O O13 0.226702 0.750000 0.450569
O O14 0.171558 0.250000 0.669921
O O15 0.161250 0.068167 0.746988
O O16 0.000000 0.750000 0.374431
O O17 0.914287 0.750000 0.208012
#
# Coordination Sequence:
#
# PCOD8297828 Si02
#       7
#    16  16   8  16  16   8  16
#     4   8  16  30  51  78 102 130 170 214 254 304
#     4  11  21  33  51  76 105 137 174 217 261 304
#     4  12  24  34  46  71 108 145 178 216 255 295
#     4  10  20  37  58  80 105 133 168 213 265 316
#     4   9  16  28  48  73 103 136 171 208 249 300
#     4  12  22  36  53  71  98 141 187 220 253 299
#     4  10  18  31  51  73 101 139 179 210 248 302
#
# _framework density 17.755568
#
# number of rings (size 3 to 8) (size 9 to 14) (size 15 to 20)
#    0.000    2.000    1.667    5.000    0.000    2.000 
#    0.000    4.583    0.000    5.000    0.000    0.583 
#    0.000    0.000    0.000    0.000    0.000    0.000 
#
# Total GULP energy -594911.556194 kJ/mol
# GULP energy per Si atom -12393.990754 kJ/mol
# Density = 1.771516 g / cm^3
# Si number density = 17.755568 Si / 1000 Ang^3
#
#
#
# Elastic Constant Matrix: (Units=GPa)
#
#
# Indices 1 2 3 4 5 6 
#
# 1 55.3932 15.8733 35.0607 0.0000 0.0000 0.0000
# 2 15.8733 82.0431 23.3933 0.0000 0.0000 0.0000
# 3 35.0607 23.3933 83.1101 0.0000 0.0000 0.0000
# 4 0.0000 0.0000 0.0000 21.4760 0.0000 0.0000
# 5 0.0000 0.0000 0.0000 0.0000 18.9616 0.0000
# 6 0.0000 0.0000 0.0000 0.0000 0.0000 16.6701
#
#
#
# Elastic Compliance Matrix: (Units=1/GPa)
#
#
# Indices 1 2 3 4 5 6 
#
# 1 0.024922 -0.001983 -0.009955 0.000000 0.000000 0.000000
# 2 -0.001983 0.013410 -0.002938 0.000000 0.000000 0.000000
# 3 -0.009955 -0.002938 0.017059 0.000000 0.000000 0.000000
# 4 0.000000 0.000000 0.000000 0.046564 0.000000 0.000000
# 5 0.000000 0.000000 0.000000 0.000000 0.052738 0.000000
# 6 0.000000 0.000000 0.000000 0.000000 0.000000 0.059988
#
#
# Mechanical properties :
#
#
# Convention : Reuss Voigt Hill
#
# Bulk Modulus (GPa) = 39.00436 41.02233 40.01334
# Shear Modulus (GPa) = 19.76440 21.16948 20.46694
#
# Velocity S-wave (km/s) = 3.33999 3.45668 3.39883
# Velocity P-wave (km/s) = 6.07364 6.25184 6.16339
#
# Compressibility (1/GPa) = 0.02563816
#
# Stress axis : x y z
#
# Youngs Moduli (GPa) = 40.12465 74.57045 58.62006
#
# Poissons Ratio (x) = 0.14789 0.58359
# Poissons Ratio (y) = 0.07958 0.17222
# Poissons Ratio (z) = 0.39946 0.21909
#
# Static dielectric constant tensor:
#      x y z
#    x 3.406530 0.000000 0.000000 
#    y 0.000000 3.156050 0.000000 
#    z 0.000000 0.000000 3.298800 
# 
# 
# High freq. dielectric constant tensor:
#      x y z
#    x 1.678380 0.000000 0.000000 
#    y 0.000000 1.673720 0.000000 
#    z 0.000000 0.000000 1.662070 
# 
# From -- ./inp_files/68589.got.cif
#   From: 2010.03.12/outbox.cif.g09.slc.cpg/sg74_35_cif.got.tgz:68589.got - 2010.04.16 15:46:19.
