data_PCOD8297784
_publ_section_title
;
Structure prediction by ZEFSAII (Michael W. Deem and Ramdas Pophale) SiO2 
 PCOD8297784
Probable space group: I M M A
;
_chemical_formula_sum "Si O2"
_cell_formula_units_Z 104
_cell_length_a 9.152031
_cell_length_b 32.956242
_cell_length_c 25.450424
_cell_angle_alpha 90.000000
_cell_angle_beta 90.000000
_cell_angle_gamma 90.000000
_cell_volume 7676.269043
_symmetry_space_group_name_H-M "I M M A"
_symmetry_group_IT_number 74
_symmetry_cell_setting 'orthorhombic'
loop_
_space_group_symop_operation_xyz
x,y,z
-x,1/2-y,z
x,-y,-z
-x,1/2+y,-z
-x,-y,-z
x,1/2+y,-z
-x,y,z
x,1/2-y,z
1/2+x,1/2+y,1/2+z
1/2-x,-y,1/2+z
1/2+x,1/2-y,1/2-z
1/2-x,y,1/2-z
1/2-x,1/2-y,1/2-z
1/2+x,y,1/2-z
1/2-x,1/2+y,1/2+z
1/2+x,-y,1/2+z
loop_
_atom_site_type_symbol
_atom_site_label
_atom_site_fract_x
_atom_site_fract_y
_atom_site_fract_z
Si Si1 0.836259 0.444792 0.453894
Si Si2 0.164973 0.605795 0.099531
Si Si3 0.823740 0.250000 0.806335
Si Si4 0.835297 0.031280 0.574944
Si Si5 0.171401 0.316904 0.625678
Si Si6 0.662819 0.870656 0.521965
Si Si7 0.668119 0.704619 0.005879
O O1 0.778918 0.484547 0.422175
O O2 0.835569 0.454459 0.515169
O O3 0.737498 0.405460 0.442375
O O4 0.000000 0.434475 0.435588
O O5 0.229334 0.560537 0.108407
O O6 0.268195 0.637279 0.130461
O O7 0.166435 0.616428 0.038395
O O8 0.000000 0.607359 0.121749
O O9 0.750000 0.250000 0.750000
O O10 0.767307 0.209991 0.835503
O O11 0.000000 0.250000 0.803229
O O12 0.000000 0.034427 0.597317
O O13 0.198109 0.299955 0.567594
O O14 0.000000 0.315605 0.640857
O O15 0.500000 0.865449 0.543204
O O16 0.741949 0.827438 0.528658
O O17 0.500000 0.696152 0.993720
O O18 0.714357 0.750000 0.988970
#
# Coordination Sequence:
#
# PCOD8297784 Si02
#       7
#    16  16   8  16  16  16  16
#     4   8  13  21  31  41  57  80 104 124 144 171
#     4   9  16  24  34  51  68  82  98 118 146 175
#     4  12  24  36  48  60  72  84 100 122 152 192
#     4   8  13  21  32  45  59  80 104 123 142 168
#     4  10  18  31  45  56  68  82 100 121 148 181
#     4   9  16  22  29  44  62  79  99 123 152 179
#     4   9  16  26  38  49  61  79 102 125 153 187
#
# _framework density 13.548247999999999
#
# number of rings (size 3 to 8) (size 9 to 14) (size 15 to 20)
#    0.000    2.923    0.769    3.000    0.000    5.231 
#    0.000    3.077    0.000    0.000    0.000    0.000 
#    0.000    0.000    0.000    0.000    0.000    0.000 
#
# Total GULP energy -644451.493864 kJ/mol
# GULP energy per Si atom -12393.297959 kJ/mol
# Density = 1.351741 g / cm^3
# Si number density = 13.548248 Si / 1000 Ang^3
#
#
#
# Elastic Constant Matrix: (Units=GPa)
#
#
# Indices 1 2 3 4 5 6 
#
# 1 101.5692 70.3766 14.6134 0.0000 0.0000 0.0000
# 2 70.3766 134.8650 20.4979 0.0000 0.0000 0.0000
# 3 14.6134 20.4979 9.4505 0.0000 0.0000 0.0000
# 4 0.0000 0.0000 0.0000 3.5254 0.0000 0.0000
# 5 0.0000 0.0000 0.0000 0.0000 8.8854 0.0000
# 6 0.0000 0.0000 0.0000 0.0000 0.0000 26.2808
#
#
#
# Elastic Compliance Matrix: (Units=1/GPa)
#
#
# Indices 1 2 3 4 5 6 
#
# 1 0.016020 -0.006854 -0.009905 0.000000 0.000000 0.000000
# 2 -0.006854 0.013994 -0.019753 0.000000 0.000000 0.000000
# 3 -0.009905 -0.019753 0.163975 0.000000 0.000000 0.000000
# 4 0.000000 0.000000 0.000000 0.283653 0.000000 0.000000
# 5 0.000000 0.000000 0.000000 0.000000 0.112544 0.000000
# 6 0.000000 0.000000 0.000000 0.000000 0.000000 0.038051
#
#
# Mechanical properties :
#
#
# Convention : Reuss Voigt Hill
#
# Bulk Modulus (GPa) = 8.26699 50.76229 29.51464
# Shear Modulus (GPa) = 6.74233 17.09810 11.92021
#
# Velocity S-wave (km/s) = 2.23323 3.55634 2.96942
# Velocity P-wave (km/s) = 3.57280 7.37648 5.79558
#
# Compressibility (1/GPa) = 0.12096300
#
# Stress axis : x y z
#
# Youngs Moduli (GPa) = 62.42258 71.46007 6.09850
#
# Poissons Ratio (x) = 0.48980 0.06041
# Poissons Ratio (y) = 0.42786 0.12047
# Poissons Ratio (z) = 0.61830 1.41158
#
# Static dielectric constant tensor:
#      x y z
#    x 2.878810 0.000000 0.000000 
#    y 0.000000 2.913650 0.000000 
#    z 0.000000 0.000000 2.034090 
# 
# 
# High freq. dielectric constant tensor:
#      x y z
#    x 1.529100 0.000000 0.000000 
#    y 0.000000 1.532450 0.000000 
#    z 0.000000 0.000000 1.414300 
# 
# From -- ./inp_files/65246.got.cif
#   From: 2010.03.12/outbox.cif.g09.slc.cpg/sg74_33_cif.got.tgz:65246.got - 2010.04.16 15:46:19.
