data_PCOD8297486
_publ_section_title
;
Structure prediction by ZEFSAII (Michael W. Deem and Ramdas Pophale) SiO2 
 PCOD8297486
Probable space group: I M M A
;
_chemical_formula_sum "Si O2"
_cell_formula_units_Z 104
_cell_length_a 21.841400
_cell_length_b 9.380069
_cell_length_c 27.549424
_cell_angle_alpha 90.000000
_cell_angle_beta 90.000000
_cell_angle_gamma 90.000000
_cell_volume 5644.156259
_symmetry_space_group_name_H-M "I M M A"
_symmetry_group_IT_number 74
_symmetry_cell_setting 'orthorhombic'
loop_
_space_group_symop_operation_xyz
x,y,z
-x,1/2-y,z
x,-y,-z
-x,1/2+y,-z
-x,-y,-z
x,1/2+y,-z
-x,y,z
x,1/2-y,z
1/2+x,1/2+y,1/2+z
1/2-x,-y,1/2+z
1/2+x,1/2-y,1/2-z
1/2-x,y,1/2-z
1/2-x,1/2-y,1/2-z
1/2+x,y,1/2-z
1/2-x,1/2+y,1/2+z
1/2+x,-y,1/2+z
loop_
_atom_site_type_symbol
_atom_site_label
_atom_site_fract_x
_atom_site_fract_y
_atom_site_fract_z
Si Si1 0.569441 0.583802 0.953068
Si Si2 0.284018 0.418264 0.450470
Si Si3 0.674804 0.082691 0.113775
Si Si4 0.310840 0.420156 0.221394
Si Si5 0.000000 0.582195 0.951107
Si Si6 0.392731 0.082194 0.383734
Si Si7 0.069955 0.580147 0.779428
O O1 0.500000 0.541030 0.941484
O O2 0.577051 0.750000 0.964919
O O3 0.606962 0.541543 0.904637
O O4 0.594006 0.500000 0.000000
O O5 0.299699 0.500000 0.500000
O O6 0.288863 0.250000 0.461438
O O7 0.218620 0.467925 0.429972
O O8 0.327978 0.464014 0.405967
O O9 0.682794 0.250000 0.120410
O O10 0.690325 0.016295 0.166478
O O11 0.309145 0.250000 0.222346
O O12 0.250000 0.477012 0.250000
O O13 0.376402 0.472873 0.243001
O O14 0.941686 0.528508 0.922060
O O15 0.000000 0.750000 0.960731
O O16 0.000000 0.500000 0.000000
O O17 0.396269 0.250000 0.377071
O O18 0.408305 0.015860 0.331282
O O19 0.068292 0.750000 0.780274
O O20 0.000000 0.526280 0.766678
#
# Coordination Sequence:
#
# PCOD8297486 Si02
#       7
#    16  16  16  16   8  16  16
#     4   9  17  29  45  64  89 119 147 177 216 263
#     4  10  19  30  45  64  89 120 150 182 220 262
#     4   9  17  28  41  60  87 118 147 178 222 268
#     4   9  16  25  38  58  85 116 147 179 219 270
#     4  10  18  28  42  60  86 114 144 180 213 250
#     4   9  16  27  41  59  85 116 146 177 216 257
#     4   9  15  24  39  59  84 116 149 178 217 270
#
# _framework density 18.426138000000002
#
# number of rings (size 3 to 8) (size 9 to 14) (size 15 to 20)
#    0.000    2.769    0.769    1.846    0.000    4.308 
#    0.000    3.077    0.000    0.000    0.000    0.000 
#    0.000   13.538    0.000    0.154    0.000    0.000 
#
# Total GULP energy -644242.209983 kJ/mol
# GULP energy per Si atom -12389.273269 kJ/mol
# Density = 1.838420 g / cm^3
# Si number density = 18.426138 Si / 1000 Ang^3
#
#
#
# Elastic Constant Matrix: (Units=GPa)
#
#
# Indices 1 2 3 4 5 6 
#
# 1 123.5914 14.1352 54.5724 0.0000 0.0000 0.0000
# 2 14.1352 14.5302 18.2154 0.0000 0.0000 0.0000
# 3 54.5724 18.2154 116.2950 0.0000 0.0000 0.0000
# 4 0.0000 0.0000 0.0000 16.8486 0.0000 0.0000
# 5 0.0000 0.0000 0.0000 0.0000 211.3447 0.0000
# 6 0.0000 0.0000 0.0000 0.0000 0.0000 5.0078
#
#
#
# Elastic Compliance Matrix: (Units=1/GPa)
#
#
# Indices 1 2 3 4 5 6 
#
# 1 0.010492 -0.005021 -0.004137 0.000000 0.000000 0.000000
# 2 -0.005021 0.088040 -0.011434 0.000000 0.000000 0.000000
# 3 -0.004137 -0.011434 0.012331 0.000000 0.000000 0.000000
# 4 0.000000 0.000000 0.000000 0.059352 0.000000 0.000000
# 5 0.000000 0.000000 0.000000 0.000000 0.004732 0.000000
# 6 0.000000 0.000000 0.000000 0.000000 0.000000 0.199690
#
#
# Mechanical properties :
#
#
# Convention : Reuss Voigt Hill
#
# Bulk Modulus (GPa) = 14.35125 47.58474 30.96800
# Shear Modulus (GPa) = 11.38829 57.80644 34.59736
#
# Velocity S-wave (km/s) = 2.48876 5.60715 4.33786
# Velocity P-wave (km/s) = 4.00799 8.23412 6.47552
#
# Compressibility (1/GPa) = 0.06968034
#
# Stress axis : x y z
#
# Youngs Moduli (GPa) = 95.30927 11.35843 81.09551
#
# Poissons Ratio (x) = 0.05703 0.33551
# Poissons Ratio (y) = 0.47850 0.92724
# Poissons Ratio (z) = 0.39431 0.12987
#
# Static dielectric constant tensor:
#      x y z
#    x 3.586100 0.000000 0.000000 
#    y 0.000000 2.688440 0.000000 
#    z 0.000000 0.000000 3.565740 
# 
# 
# High freq. dielectric constant tensor:
#      x y z
#    x 1.736310 0.000000 0.000000 
#    y 0.000000 1.627680 0.000000 
#    z 0.000000 0.000000 1.723370 
# 
# From -- ./inp_files/73360.got.cif
#   From: 2010.03.12/outbox.cif.g09.slc.cpg/sg74_37_cif.got.tgz:73360.got - 2010.04.16 15:46:19.
