data_PCOD8297595
_publ_section_title
;
Structure prediction by ZEFSAII (Michael W. Deem and Ramdas Pophale) SiO2 
 PCOD8297595
Probable space group: I M M A
;
_chemical_formula_sum "Si O2"
_cell_formula_units_Z 112
_cell_length_a 27.719865
_cell_length_b 18.487716
_cell_length_c 12.466450
_cell_angle_alpha 90.000000
_cell_angle_beta 90.000000
_cell_angle_gamma 90.000000
_cell_volume 6388.768793
_symmetry_space_group_name_H-M "I M M A"
_symmetry_group_IT_number 74
_symmetry_cell_setting 'orthorhombic'
loop_
_space_group_symop_operation_xyz
x,y,z
-x,1/2-y,z
x,-y,-z
-x,1/2+y,-z
-x,-y,-z
x,1/2+y,-z
-x,y,z
x,1/2-y,z
1/2+x,1/2+y,1/2+z
1/2-x,-y,1/2+z
1/2+x,1/2-y,1/2-z
1/2-x,y,1/2-z
1/2-x,1/2-y,1/2-z
1/2+x,y,1/2-z
1/2-x,1/2+y,1/2+z
1/2+x,-y,1/2+z
loop_
_atom_site_type_symbol
_atom_site_label
_atom_site_fract_x
_atom_site_fract_y
_atom_site_fract_z
Si Si1 0.087778 0.333916 0.109983
Si Si2 0.795455 0.164299 0.401383
Si Si3 0.945540 0.427733 0.696975
Si Si4 0.692945 0.333869 0.338069
Si Si5 0.944376 0.067443 0.934846
Si Si6 0.947292 0.096415 0.325100
Si Si7 0.622134 0.913932 0.007741
O O1 0.077179 0.250000 0.130363
O O2 0.144579 0.350458 0.096327
O O3 0.066290 0.379560 0.206478
O O4 0.062367 0.358760 0.000793
O O5 0.802330 0.250000 0.418968
O O6 0.739119 0.138666 0.406486
O O7 0.812578 0.136037 0.283458
O O8 0.825233 0.123192 0.495475
O O9 0.922748 0.420236 0.816331
O O10 0.950128 0.510819 0.667163
O O11 0.906357 0.391693 0.616618
O O12 0.000000 0.393236 0.686793
O O13 0.702261 0.250000 0.319919
O O14 0.000000 0.048349 0.916377
O O15 0.920197 0.000000 0.000000
O O16 0.908686 0.122558 0.411755
O O17 0.000000 0.128581 0.353506
O O18 0.628507 0.000000 0.000000
#
# Coordination Sequence:
#
# PCOD8297595 Si02
#       7
#    16  16  16  16  16  16  16
#     4  11  20  31  50  78 103 125 168 225 267 296
#     4   9  16  31  52  72  97 132 169 204 252 312
#     4   9  18  33  50  69  98 140 180 203 237 312
#     4   8  16  30  51  75  97 125 164 209 260 313
#     4  10  19  33  51  69  97 139 180 211 253 313
#     4  10  18  29  47  73 103 133 162 202 254 304
#     4  10  19  30  50  77 107 132 167 210 254 304
#
# _framework density 17.530766
#
# number of rings (size 3 to 8) (size 9 to 14) (size 15 to 20)
#    0.000    2.429    2.857    1.714    0.000    2.857 
#    0.000    1.429    0.000    3.000    0.000    3.000 
#    0.000    0.000    0.000    0.000    0.000    0.000 
#
# Total GULP energy -693926.799974 kJ/mol
# GULP energy per Si atom -12391.550000 kJ/mol
# Density = 1.749086 g / cm^3
# Si number density = 17.530766 Si / 1000 Ang^3
#
#
#
# Elastic Constant Matrix: (Units=GPa)
#
#
# Indices 1 2 3 4 5 6 
#
# 1 80.7728 24.7957 36.3082 0.0000 0.0000 0.0000
# 2 24.7957 29.6196 15.3654 0.0000 0.0000 0.0000
# 3 36.3082 15.3654 103.3199 0.0000 0.0000 0.0000
# 4 0.0000 0.0000 0.0000 17.9395 0.0000 0.0000
# 5 0.0000 0.0000 0.0000 0.0000 30.2325 0.0000
# 6 0.0000 0.0000 0.0000 0.0000 0.0000 24.0596
#
#
#
# Elastic Compliance Matrix: (Units=1/GPa)
#
#
# Indices 1 2 3 4 5 6 
#
# 1 0.018433 -0.013080 -0.004532 0.000000 0.000000 0.000000
# 2 -0.013080 0.045865 -0.002224 0.000000 0.000000 0.000000
# 3 -0.004532 -0.002224 0.011602 0.000000 0.000000 0.000000
# 4 0.000000 0.000000 0.000000 0.055743 0.000000 0.000000
# 5 0.000000 0.000000 0.000000 0.000000 0.033077 0.000000
# 6 0.000000 0.000000 0.000000 0.000000 0.000000 0.041564
#
#
# Mechanical properties :
#
#
# Convention : Reuss Voigt Hill
#
# Bulk Modulus (GPa) = 27.60377 40.73899 34.17138
# Shear Modulus (GPa) = 19.37739 23.59585 21.48662
#
# Velocity S-wave (km/s) = 3.32827 3.67272 3.50473
# Velocity P-wave (km/s) = 5.52720 6.42450 5.99267
#
# Compressibility (1/GPa) = 0.03622694
#
# Stress axis : x y z
#
# Youngs Moduli (GPa) = 54.25037 21.80310 86.19000
#
# Poissons Ratio (x) = 0.28518 0.39066
# Poissons Ratio (y) = 0.70958 0.19173
# Poissons Ratio (z) = 0.24589 0.04850
#
# Static dielectric constant tensor:
#      x y z
#    x 3.522600 0.000000 0.000000 
#    y 0.000000 2.879980 0.000000 
#    z 0.000000 0.000000 3.248730 
# 
# 
# High freq. dielectric constant tensor:
#      x y z
#    x 1.677860 0.000000 0.000000 
#    y 0.000000 1.638340 0.000000 
#    z 0.000000 0.000000 1.665230 
# 
# From -- ./inp_files/26493.got.cif
#   From: 2010.03.12/outbox.cif.g09.slc.cpg/sg74_14_cif.got.tgz:26493.got - 2010.04.16 15:46:19.
