data_PCOD8297621
_publ_section_title
;
Structure prediction by ZEFSAII (Michael W. Deem and Ramdas Pophale) SiO2 
 PCOD8297621
Probable space group: I M M A
;
_chemical_formula_sum "Si O2"
_cell_formula_units_Z 64
_cell_length_a 10.129831
_cell_length_b 22.726875
_cell_length_c 16.868942
_cell_angle_alpha 90.000000
_cell_angle_beta 90.000000
_cell_angle_gamma 90.000000
_cell_volume 3883.557755
_symmetry_space_group_name_H-M "I M M A"
_symmetry_group_IT_number 74
_symmetry_cell_setting 'orthorhombic'
loop_
_space_group_symop_operation_xyz
x,y,z
-x,1/2-y,z
x,-y,-z
-x,1/2+y,-z
-x,-y,-z
x,1/2+y,-z
-x,y,z
x,1/2-y,z
1/2+x,1/2+y,1/2+z
1/2-x,-y,1/2+z
1/2+x,1/2-y,1/2-z
1/2-x,y,1/2-z
1/2-x,1/2-y,1/2-z
1/2+x,y,1/2-z
1/2-x,1/2+y,1/2+z
1/2+x,-y,1/2+z
loop_
_atom_site_type_symbol
_atom_site_label
_atom_site_fract_x
_atom_site_fract_y
_atom_site_fract_z
Si Si1 0.353637 0.434379 0.310466
Si Si2 0.350853 0.750000 0.178660
Si Si3 0.250000 0.548577 0.250000
Si Si4 0.347477 0.067423 0.490485
Si Si5 0.148850 0.624730 0.389984
O O1 0.500000 0.414465 0.285764
O O2 0.250000 0.403730 0.250000
O O3 0.344200 0.505926 0.302952
O O4 0.322885 0.414157 0.399522
O O5 0.500000 0.750000 0.213196
O O6 0.250000 0.750000 0.250000
O O7 0.326701 0.693400 0.124337
O O8 0.165575 0.589339 0.308124
O O9 0.500000 0.077350 0.515046
O O10 0.253691 0.106846 0.543962
O O11 0.306411 0.000000 0.500000
O O12 0.000000 0.613068 0.420804
#
# Coordination Sequence:
#
# PCOD8297621 Si02
#       5
#    16   8   8  16  16
#     4   9  18  30  46  70 100 131 160 196 245 298
#     4  10  22  38  52  72  99 134 179 216 251 290
#     4  10  18  29  50  70 100 131 166 206 244 292
#     4  10  19  32  49  72 102 133 164 204 254 303
#     4  11  22  34  51  73 100 136 174 211 248 296
#
# _framework density 16.479734000000001
#
# number of rings (size 3 to 8) (size 9 to 14) (size 15 to 20)
#    0.750    1.250    3.750    0.750    0.000    3.500 
#    0.000    0.000    0.000    0.000    0.000    0.875 
#    0.000    0.000    0.000    0.000    0.000    0.000 
#
# Total GULP energy -396665.200420 kJ/mol
# GULP energy per Si atom -12395.787513 kJ/mol
# Density = 1.644223 g / cm^3
# Si number density = 16.479734 Si / 1000 Ang^3
#
#
#
# Elastic Constant Matrix: (Units=GPa)
#
#
# Indices 1 2 3 4 5 6 
#
# 1 131.9044 44.3633 77.0061 0.0000 0.0000 0.0000
# 2 44.3633 60.1799 40.5206 0.0000 0.0000 0.0000
# 3 77.0061 40.5206 94.7900 0.0000 0.0000 0.0000
# 4 0.0000 0.0000 0.0000 14.8002 0.0000 0.0000
# 5 0.0000 0.0000 0.0000 0.0000 37.1760 0.0000
# 6 0.0000 0.0000 0.0000 0.0000 0.0000 22.0296
#
#
#
# Elastic Compliance Matrix: (Units=1/GPa)
#
#
# Indices 1 2 3 4 5 6 
#
# 1 0.015085 -0.004028 -0.010533 0.000000 0.000000 0.000000
# 2 -0.004028 0.024408 -0.007161 0.000000 0.000000 0.000000
# 3 -0.010533 -0.007161 0.022168 0.000000 0.000000 0.000000
# 4 0.000000 0.000000 0.000000 0.067567 0.000000 0.000000
# 5 0.000000 0.000000 0.000000 0.000000 0.026899 0.000000
# 6 0.000000 0.000000 0.000000 0.000000 0.000000 0.045393
#
#
# Mechanical properties :
#
#
# Convention : Reuss Voigt Hill
#
# Bulk Modulus (GPa) = 54.89715 67.85048 61.37382
# Shear Modulus (GPa) = 19.91724 23.13346 21.52535
#
# Velocity S-wave (km/s) = 3.48025 3.75073 3.61802
# Velocity P-wave (km/s) = 7.03802 7.74718 7.40110
#
# Compressibility (1/GPa) = 0.01821588
#
# Stress axis : x y z
#
# Youngs Moduli (GPa) = 66.28946 40.96936 45.11026
#
# Poissons Ratio (x) = 0.16504 0.47515
# Poissons Ratio (y) = 0.26704 0.32305
# Poissons Ratio (z) = 0.69823 0.29340
#
# Static dielectric constant tensor:
#      x y z
#    x 3.129790 0.000000 0.000000 
#    y 0.000000 2.834890 0.000000 
#    z 0.000000 0.000000 3.018030 
# 
# 
# High freq. dielectric constant tensor:
#      x y z
#    x 1.644800 0.000000 0.000000 
#    y 0.000000 1.596270 0.000000 
#    z 0.000000 0.000000 1.632960 
# 
# From -- ./inp_files/28870.got.cif
#   From: 2010.03.12/outbox.cif.g09.slc.cpg/sg74_15_cif.got.tgz:28870.got - 2010.04.16 15:46:19.
