data_PCOD8297423
_publ_section_title
;
Structure prediction by ZEFSAII (Michael W. Deem and Ramdas Pophale) SiO2 
 PCOD8297423
Probable space group: I M M A
;
_chemical_formula_sum "Si O2"
_cell_formula_units_Z 88
_cell_length_a 28.708435
_cell_length_b 7.431311
_cell_length_c 34.241493
_cell_angle_alpha 90.000000
_cell_angle_beta 90.000000
_cell_angle_gamma 90.000000
_cell_volume 7305.124932
_symmetry_space_group_name_H-M "I M M A"
_symmetry_group_IT_number 74
_symmetry_cell_setting 'orthorhombic'
loop_
_space_group_symop_operation_xyz
x,y,z
-x,1/2-y,z
x,-y,-z
-x,1/2+y,-z
-x,-y,-z
x,1/2+y,-z
-x,y,z
x,1/2-y,z
1/2+x,1/2+y,1/2+z
1/2-x,-y,1/2+z
1/2+x,1/2-y,1/2-z
1/2-x,y,1/2-z
1/2-x,1/2-y,1/2-z
1/2+x,y,1/2-z
1/2-x,1/2+y,1/2+z
1/2+x,-y,1/2+z
loop_
_atom_site_type_symbol
_atom_site_label
_atom_site_fract_x
_atom_site_fract_y
_atom_site_fract_z
Si Si1 0.687094 0.456271 0.544933
Si Si2 0.668282 0.250000 0.282491
Si Si3 0.767277 0.750000 0.675498
Si Si4 0.220347 0.750000 0.901998
Si Si5 0.093610 0.449825 0.913199
Si Si6 0.121991 0.750000 0.860212
Si Si7 0.000000 0.040790 0.045357
Si Si8 0.299368 0.954015 0.229065
O O1 0.694603 0.500000 0.500000
O O2 0.698522 0.250000 0.553751
O O3 0.722766 0.573366 0.570770
O O4 0.634051 0.507867 0.556394
O O5 0.717279 0.250000 0.304310
O O6 0.625399 0.250000 0.313174
O O7 0.665117 0.432246 0.256499
O O8 0.763341 0.750000 0.628385
O O9 0.794099 0.567756 0.688834
O O10 0.173524 0.750000 0.877128
O O11 0.103025 0.250000 0.897508
O O12 0.093728 0.576073 0.875157
O O13 0.045192 0.453394 0.935707
O O14 0.000000 0.250000 0.054042
O O15 0.000000 0.000000 0.000000
O O16 0.318189 0.750000 0.221097
O O17 0.250000 0.940325 0.250000
#
# Coordination Sequence:
#
# PCOD8297423 Si02
#       8
#    16   8   8   8  16   8   8  16
#     4  10  18  27  39  49  60  79 102 130 164 198
#     4   8  14  23  35  50  67  84 102 116 139 170
#     4   8  14  23  32  47  67  85 100 123 143 168
#     4   9  17  26  36  48  65  82 104 128 154 183
#     4  10  20  31  41  53  65  79  99 127 164 201
#     4   9  17  29  39  51  69  84  98 122 151 191
#     4  12  22  32  44  55  65  78 101 133 168 207
#     4   8  13  21  34  50  67  85 102 118 136 163
#
# _framework density 12.046338
#
# number of rings (size 3 to 8) (size 9 to 14) (size 15 to 20)
#    0.000    2.727    1.818    2.455    0.000    2.909 
#    0.000    7.273    0.000    0.000    0.000    0.000 
#    0.000    0.000    0.000    0.000    0.000    0.000 
#
# Total GULP energy -545328.656683 kJ/mol
# GULP energy per Si atom -12393.833106 kJ/mol
# Density = 1.201892 g / cm^3
# Si number density = 12.046338 Si / 1000 Ang^3
#
#
#
# Elastic Constant Matrix: (Units=GPa)
#
#
# Indices 1 2 3 4 5 6 
#
# 1 17.4945 17.0248 31.8205 0.0000 0.0000 0.0000
# 2 17.0248 109.0246 47.7061 0.0000 0.0000 0.0000
# 3 31.8205 47.7061 91.1686 0.0000 0.0000 0.0000
# 4 0.0000 0.0000 0.0000 14.9839 0.0000 0.0000
# 5 0.0000 0.0000 0.0000 0.0000 15.3760 0.0000
# 6 0.0000 0.0000 0.0000 0.0000 0.0000 6.6567
#
#
#
# Elastic Compliance Matrix: (Units=1/GPa)
#
#
# Indices 1 2 3 4 5 6 
#
# 1 0.156580 -0.000697 -0.054286 0.000000 0.000000 0.000000
# 2 -0.000697 0.011899 -0.005983 0.000000 0.000000 0.000000
# 3 -0.054286 -0.005983 0.033047 0.000000 0.000000 0.000000
# 4 0.000000 0.000000 0.000000 0.066738 0.000000 0.000000
# 5 0.000000 0.000000 0.000000 0.000000 0.065036 0.000000
# 6 0.000000 0.000000 0.000000 0.000000 0.000000 0.150225
#
#
# Mechanical properties :
#
#
# Convention : Reuss Voigt Hill
#
# Bulk Modulus (GPa) = 12.56385 45.64339 29.10362
# Shear Modulus (GPa) = 7.91152 15.47906 11.69529
#
# Velocity S-wave (km/s) = 2.56551 3.58852 3.11924
# Velocity P-wave (km/s) = 4.38498 7.42577 6.09796
#
# Compressibility (1/GPa) = 0.07959344
#
# Stress axis : x y z
#
# Youngs Moduli (GPa) = 6.38651 84.03930 30.25973
#
# Poissons Ratio (x) = 0.05854 1.64269
# Poissons Ratio (y) = 0.00445 0.18106
# Poissons Ratio (z) = 0.34670 0.50284
#
# Static dielectric constant tensor:
#      x y z
#    x 2.092670 0.000000 0.000000 
#    y 0.000000 2.785790 0.000000 
#    z 0.000000 0.000000 2.554780 
# 
# 
# High freq. dielectric constant tensor:
#      x y z
#    x 1.385120 0.000000 0.000000 
#    y 0.000000 1.478970 0.000000 
#    z 0.000000 0.000000 1.442500 
# 
# From -- ./inp_files/73878.got.cif
#   From: 2010.03.12/outbox.cif.g09.slc.cpg/sg74_37_cif.got.tgz:73878.got - 2010.04.16 15:46:19.
