data_PCOD8297971
_publ_section_title
;
Structure prediction by ZEFSAII (Michael W. Deem and Ramdas Pophale) SiO2 
 PCOD8297971
Probable space group: I M M A
;
_chemical_formula_sum "Si O2"
_cell_formula_units_Z 56
_cell_length_a 8.462121
_cell_length_b 17.787559
_cell_length_c 17.972560
_cell_angle_alpha 90.000000
_cell_angle_beta 90.000000
_cell_angle_gamma 90.000000
_cell_volume 2705.238296
_symmetry_space_group_name_H-M "I M M A"
_symmetry_group_IT_number 74
_symmetry_cell_setting 'orthorhombic'
loop_
_space_group_symop_operation_xyz
x,y,z
-x,1/2-y,z
x,-y,-z
-x,1/2+y,-z
-x,-y,-z
x,1/2+y,-z
-x,y,z
x,1/2-y,z
1/2+x,1/2+y,1/2+z
1/2-x,-y,1/2+z
1/2+x,1/2-y,1/2-z
1/2-x,y,1/2-z
1/2-x,1/2-y,1/2-z
1/2+x,y,1/2-z
1/2-x,1/2+y,1/2+z
1/2+x,-y,1/2+z
loop_
_atom_site_type_symbol
_atom_site_label
_atom_site_fract_x
_atom_site_fract_y
_atom_site_fract_z
Si Si1 0.811550 0.750000 0.666026
Si Si2 0.686794 0.401045 0.331975
Si Si3 0.315449 0.466538 0.923223
Si Si4 0.813970 0.835302 0.170341
O O1 0.750000 0.750000 0.750000
O O2 0.740853 0.675512 0.625066
O O3 0.000000 0.750000 0.662775
O O4 0.500000 0.413165 0.336756
O O5 0.750000 0.390059 0.250000
O O6 0.778149 0.472952 0.360953
O O7 0.500000 0.453365 0.932517
O O8 0.241987 0.387034 0.898299
O O9 0.242436 0.500000 0.000000
O O10 0.754064 0.750000 0.155740
O O11 0.750000 0.864795 0.250000
O O12 0.000000 0.838830 0.174532
#
# Coordination Sequence:
#
# PCOD8297971 Si02
#       4
#     8  16  16  16
#     4  10  18  32  54  82 114 144 185 232 279 334
#     4  11  21  36  59  85 115 152 195 242 290 344
#     4  11  24  41  59  84 119 159 199 244 300 360
#     4  10  21  39  65  94 122 156 200 253 305 360
#
# _framework density 20.700578
#
# number of rings (size 3 to 8) (size 9 to 14) (size 15 to 20)
#    0.000    1.429    0.000    8.143    0.000    4.000 
#    2.571    0.000    0.000    0.000    0.000    0.000 
#    0.000    0.000    0.000    0.000    0.000    0.000 
#
# Total GULP energy -347103.522359 kJ/mol
# GULP energy per Si atom -12396.554370 kJ/mol
# Density = 2.065346 g / cm^3
# Si number density = 20.700578 Si / 1000 Ang^3
#
#
#
# Elastic Constant Matrix: (Units=GPa)
#
#
# Indices 1 2 3 4 5 6 
#
# 1 67.1130 20.9506 25.2261 0.0000 0.0000 0.0000
# 2 20.9506 142.4268 51.7921 0.0000 0.0000 0.0000
# 3 25.2261 51.7921 79.3773 0.0000 0.0000 0.0000
# 4 0.0000 0.0000 0.0000 23.1903 0.0000 0.0000
# 5 0.0000 0.0000 0.0000 0.0000 24.1026 0.0000
# 6 0.0000 0.0000 0.0000 0.0000 0.0000 31.3867
#
#
#
# Elastic Compliance Matrix: (Units=1/GPa)
#
#
# Indices 1 2 3 4 5 6 
#
# 1 0.016975 -0.000702 -0.004937 0.000000 0.000000 0.000000
# 2 -0.000702 0.009234 -0.005802 0.000000 0.000000 0.000000
# 3 -0.004937 -0.005802 0.017953 0.000000 0.000000 0.000000
# 4 0.000000 0.000000 0.000000 0.043121 0.000000 0.000000
# 5 0.000000 0.000000 0.000000 0.000000 0.041489 0.000000
# 6 0.000000 0.000000 0.000000 0.000000 0.000000 0.031861
#
#
# Mechanical properties :
#
#
# Convention : Reuss Voigt Hill
#
# Bulk Modulus (GPa) = 46.99116 53.87276 50.43196
# Shear Modulus (GPa) = 26.23182 28.46581 27.34881
#
# Velocity S-wave (km/s) = 3.56364 3.71229 3.63872
# Velocity P-wave (km/s) = 6.29940 6.66753 6.48608
#
# Compressibility (1/GPa) = 0.02128060
#
# Stress axis : x y z
#
# Youngs Moduli (GPa) = 58.91049 108.29210 55.70170
#
# Poissons Ratio (x) = 0.07599 0.27499
# Poissons Ratio (y) = 0.04134 0.32319
# Poissons Ratio (z) = 0.29083 0.62833
#
# Static dielectric constant tensor:
#      x y z
#    x 3.743620 0.000000 0.000000 
#    y 0.000000 4.816390 0.000000 
#    z 0.000000 0.000000 3.642050 
# 
# 
# High freq. dielectric constant tensor:
#      x y z
#    x 1.819860 0.000000 0.000000 
#    y 0.000000 1.837840 0.000000 
#    z 0.000000 0.000000 1.773690 
# 
# From -- ./inp_files/28504.got.cif
#   From: 2010.03.12/outbox.cif.g09.slc.cpg/sg74_15_cif.got.tgz:28504.got - 2010.04.16 15:46:19.
