data_PCOD8297605
_publ_section_title
;
Structure prediction by ZEFSAII (Michael W. Deem and Ramdas Pophale) SiO2 
 PCOD8297605
Probable space group: I M M A
;
_chemical_formula_sum "Si O2"
_cell_formula_units_Z 88
_cell_length_a 8.576782
_cell_length_b 28.091894
_cell_length_c 19.278820
_cell_angle_alpha 90.000000
_cell_angle_beta 90.000000
_cell_angle_gamma 90.000000
_cell_volume 4645.001313
_symmetry_space_group_name_H-M "I M M A"
_symmetry_group_IT_number 74
_symmetry_cell_setting 'orthorhombic'
loop_
_space_group_symop_operation_xyz
x,y,z
-x,1/2-y,z
x,-y,-z
-x,1/2+y,-z
-x,-y,-z
x,1/2+y,-z
-x,y,z
x,1/2-y,z
1/2+x,1/2+y,1/2+z
1/2-x,-y,1/2+z
1/2+x,1/2-y,1/2-z
1/2-x,y,1/2-z
1/2-x,1/2-y,1/2-z
1/2+x,y,1/2-z
1/2-x,1/2+y,1/2+z
1/2+x,-y,1/2+z
loop_
_atom_site_type_symbol
_atom_site_label
_atom_site_fract_x
_atom_site_fract_y
_atom_site_fract_z
Si Si1 0.815208 0.972183 0.672913
Si Si2 0.685237 0.303630 0.443270
Si Si3 0.184577 0.875131 0.826411
Si Si4 0.314724 0.160260 0.589036
Si Si5 0.815079 0.250000 0.825956
Si Si6 0.314861 0.930530 0.327221
O O1 0.750000 0.971244 0.750000
O O2 0.752641 0.923498 0.638328
O O3 0.000000 0.973354 0.671816
O O4 0.747984 0.020304 0.638344
O O5 0.500000 0.300966 0.446973
O O6 0.754037 0.250000 0.441197
O O7 0.739327 0.331500 0.374588
O O8 0.748039 0.332073 0.510776
O O9 0.250000 0.865429 0.750000
O O10 0.000000 0.879861 0.822357
O O11 0.500000 0.160146 0.589409
O O12 0.250491 0.203559 0.635146
O O13 0.253103 0.111065 0.622063
O O14 0.750000 0.250000 0.750000
O O15 0.000000 0.250000 0.824599
O O16 0.500000 0.932060 0.322608
O O17 0.250000 0.922102 0.250000
#
# Coordination Sequence:
#
# PCOD8297605 Si02
#       6
#    16  16  16  16   8  16
#     4  10  18  31  51  73 101 134 166 206 252 301
#     4   9  17  32  53  76 101 132 171 210 250 294
#     4  10  19  32  54  80 103 128 162 208 254 304
#     4   9  17  30  49  73 101 134 171 210 248 289
#     4  10  18  30  50  74 101 132 170 212 249 290
#     4  10  18  29  48  75 104 134 169 210 251 293
#
# _framework density 18.945095999999999
#
# number of rings (size 3 to 8) (size 9 to 14) (size 15 to 20)
#    0.000    2.364    0.909    5.455    0.000    0.364 
#    0.000    1.818    0.000   13.636    0.000    0.000 
#    0.000    0.000    0.000    0.000    0.000    0.000 
#
# Total GULP energy -545389.405688 kJ/mol
# GULP energy per Si atom -12395.213766 kJ/mol
# Density = 1.890198 g / cm^3
# Si number density = 18.945096 Si / 1000 Ang^3
#
#
#
# Elastic Constant Matrix: (Units=GPa)
#
#
# Indices 1 2 3 4 5 6 
#
# 1 70.7447 36.4365 24.0209 0.0000 0.0000 0.0000
# 2 36.4365 184.1241 85.0251 0.0001 0.0000 0.0000
# 3 24.0209 85.0251 116.6458 0.0005 0.0000 0.0000
# 4 0.0000 0.0001 0.0005 20.6888 0.0000 0.0000
# 5 0.0000 0.0000 0.0000 0.0000 18.5467 0.0000
# 6 0.0000 0.0000 0.0000 0.0000 0.0000 20.7894
#
#
#
# Elastic Compliance Matrix: (Units=1/GPa)
#
#
# Indices 1 2 3 4 5 6 
#
# 1 0.015907 -0.002465 -0.001479 0.000000 0.000000 0.000000
# 2 -0.002465 0.008569 -0.005738 0.000000 0.000000 0.000000
# 3 -0.001479 -0.005738 0.013060 0.000000 0.000000 0.000000
# 4 0.000000 0.000000 0.000000 0.048335 0.000000 0.000000
# 5 0.000000 0.000000 0.000000 0.000000 0.053918 0.000000
# 6 0.000000 0.000000 0.000000 0.000000 0.000000 0.048101
#
#
# Mechanical properties :
#
#
# Convention : Reuss Voigt Hill
#
# Bulk Modulus (GPa) = 55.03089 73.60884 64.31987
# Shear Modulus (GPa) = 23.43979 27.07379 25.25679
#
# Velocity S-wave (km/s) = 3.52127 3.78440 3.65520
# Velocity P-wave (km/s) = 6.75597 7.61798 7.19989
#
# Compressibility (1/GPa) = 0.01817161
#
# Stress axis : x y z
#
# Youngs Moduli (GPa) = 62.86528 116.70327 76.56790
#
# Poissons Ratio (x) = 0.28766 0.11325
# Poissons Ratio (y) = 0.15495 0.43937
# Poissons Ratio (z) = 0.09298 0.66968
#
# Static dielectric constant tensor:
#      x y z
#    x 3.179980 0.000000 0.000000 
#    y 0.000000 4.300290 0.000000 
#    z 0.000000 0.000000 3.388100 
# 
# 
# High freq. dielectric constant tensor:
#      x y z
#    x 1.710230 0.000000 0.000000 
#    y 0.000000 1.758080 0.000000 
#    z 0.000000 0.000000 1.712090 
# 
# From -- ./inp_files/40116.got.cif
#   From: 2010.03.12/outbox.cif.g09.slc.cpg/sg74_21_cif.got.tgz:40116.got - 2010.04.16 15:46:19.
