data_PCOD8297958
_publ_section_title
;
Structure prediction by ZEFSAII (Michael W. Deem and Ramdas Pophale) SiO2 
 PCOD8297958
Probable space group: I M M A
;
_chemical_formula_sum "Si O2"
_cell_formula_units_Z 104
_cell_length_a 8.871057
_cell_length_b 27.812897
_cell_length_c 23.172742
_cell_angle_alpha 90.000000
_cell_angle_beta 90.000000
_cell_angle_gamma 90.000000
_cell_volume 5717.405874
_symmetry_space_group_name_H-M "I M M A"
_symmetry_group_IT_number 74
_symmetry_cell_setting 'orthorhombic'
loop_
_space_group_symop_operation_xyz
x,y,z
-x,1/2-y,z
x,-y,-z
-x,1/2+y,-z
-x,-y,-z
x,1/2+y,-z
-x,y,z
x,1/2-y,z
1/2+x,1/2+y,1/2+z
1/2-x,-y,1/2+z
1/2+x,1/2-y,1/2-z
1/2-x,y,1/2-z
1/2-x,1/2-y,1/2-z
1/2+x,y,1/2-z
1/2-x,1/2+y,1/2+z
1/2+x,-y,1/2+z
loop_
_atom_site_type_symbol
_atom_site_label
_atom_site_fract_x
_atom_site_fract_y
_atom_site_fract_z
Si Si1 0.170533 0.922978 0.380345
Si Si2 0.820452 0.750000 0.313611
Si Si3 0.674094 0.447059 0.007956
Si Si4 0.826787 0.015281 0.308744
Si Si5 0.676456 0.656077 0.311736
Si Si6 0.321899 0.804210 0.811393
Si Si7 0.179285 0.104392 0.379322
O O1 0.192678 0.918239 0.448652
O O2 0.294882 0.889388 0.351712
O O3 0.000000 0.907556 0.362877
O O4 0.201950 0.977191 0.359772
O O5 0.750000 0.750000 0.250000
O O6 0.755906 0.701826 0.343275
O O7 0.000000 0.750000 0.313178
O O8 0.500000 0.455915 0.024366
O O9 0.746177 0.413786 0.058834
O O10 0.750331 0.500000 0.000000
O O11 0.750000 0.998260 0.250000
O O12 0.764966 0.066521 0.330901
O O13 0.000000 0.019615 0.293426
O O14 0.500000 0.665492 0.303938
O O15 0.750000 0.645714 0.250000
O O16 0.500000 0.808442 0.803743
O O17 0.275698 0.750000 0.830781
O O18 0.250000 0.817233 0.750000
O O19 0.263719 0.842415 0.859922
O O20 0.000000 0.105007 0.383377
#
# Coordination Sequence:
#
# PCOD8297958 Si02
#       7
#    16   8  16  16  16  16  16
#     4  10  19  31  49  72  97 129 168 209 252 302
#     4  10  18  32  54  78 102 128 164 204 245 294
#     4   9  15  28  50  72  93 126 171 213 252 297
#     4  10  19  29  44  68  97 126 159 199 249 301
#     4  11  21  34  52  75 104 136 167 203 252 304
#     4   9  17  29  47  72 101 130 160 201 254 307
#     4   9  16  28  47  70  95 126 164 208 251 296
#
# _framework density 18.190068
#
# number of rings (size 3 to 8) (size 9 to 14) (size 15 to 20)
#    0.000    2.308    1.538    3.923    0.000    1.846 
#    0.000    0.000    1.692    2.308    0.000    0.000 
#    0.000    0.000    0.000    0.000    0.000    0.000 
#
# Total GULP energy -644498.481623 kJ/mol
# GULP energy per Si atom -12394.201570 kJ/mol
# Density = 1.814867 g / cm^3
# Si number density = 18.190068 Si / 1000 Ang^3
#
#
#
# Elastic Constant Matrix: (Units=GPa)
#
#
# Indices 1 2 3 4 5 6 
#
# 1 64.4618 32.4118 22.0098 0.0000 0.0000 0.0000
# 2 32.4118 130.7698 58.4571 0.0000 0.0000 0.0000
# 3 22.0098 58.4571 110.0166 0.0000 0.0000 0.0000
# 4 0.0000 0.0000 0.0000 24.0640 0.0000 0.0000
# 5 0.0000 0.0000 0.0000 0.0000 16.6607 0.0000
# 6 0.0000 0.0000 0.0000 0.0000 0.0000 19.8914
#
#
#
# Elastic Compliance Matrix: (Units=1/GPa)
#
#
# Indices 1 2 3 4 5 6 
#
# 1 0.017936 -0.003727 -0.001608 0.000000 0.000000 0.000000
# 2 -0.003727 0.010804 -0.004995 0.000000 0.000000 0.000000
# 3 -0.001608 -0.004995 0.012065 0.000000 0.000000 0.000000
# 4 0.000000 0.000000 0.000000 0.041556 0.000000 0.000000
# 5 0.000000 0.000000 0.000000 0.000000 0.060021 0.000000
# 6 0.000000 0.000000 0.000000 0.000000 0.000000 0.050273
#
#
# Mechanical properties :
#
#
# Convention : Reuss Voigt Hill
#
# Bulk Modulus (GPa) = 49.63895 59.00062 54.31978
# Shear Modulus (GPa) = 22.72424 24.94786 23.83605
#
# Velocity S-wave (km/s) = 3.53833 3.70741 3.62386
# Velocity P-wave (km/s) = 6.63636 7.12969 6.88745
#
# Compressibility (1/GPa) = 0.02014547
#
# Stress axis : x y z
#
# Youngs Moduli (GPa) = 55.75411 92.56254 82.88259
#
# Poissons Ratio (x) = 0.34495 0.13328
# Poissons Ratio (y) = 0.20777 0.41399
# Poissons Ratio (z) = 0.08966 0.46234
#
# Static dielectric constant tensor:
#      x y z
#    x 3.014150 0.000000 0.000000 
#    y 0.000000 3.817310 0.000000 
#    z 0.000000 0.000000 3.283120 
# 
# 
# High freq. dielectric constant tensor:
#      x y z
#    x 1.668330 0.000000 0.000000 
#    y 0.000000 1.713980 0.000000 
#    z 0.000000 0.000000 1.688070 
# 
# From -- ./inp_files/49632.got.cif
#   From: 2010.03.12/outbox.cif.g09.slc.cpg/sg74_25_cif.got.tgz:49632.got - 2010.04.16 15:46:19.
