data_PCOD8297214
_publ_section_title
;
Structure prediction by ZEFSAII (Michael W. Deem and Ramdas Pophale) SiO2 
 PCOD8297214
Probable space group: I M M A
;
_chemical_formula_sum "Si O2"
_cell_formula_units_Z 112
_cell_length_a 18.475678
_cell_length_b 18.144538
_cell_length_c 17.732754
_cell_angle_alpha 90.000000
_cell_angle_beta 90.000000
_cell_angle_gamma 90.000000
_cell_volume 5944.597965
_symmetry_space_group_name_H-M "I M M A"
_symmetry_group_IT_number 74
_symmetry_cell_setting 'orthorhombic'
loop_
_space_group_symop_operation_xyz
x,y,z
-x,1/2-y,z
x,-y,-z
-x,1/2+y,-z
-x,-y,-z
x,1/2+y,-z
-x,y,z
x,1/2-y,z
1/2+x,1/2+y,1/2+z
1/2-x,-y,1/2+z
1/2+x,1/2-y,1/2-z
1/2-x,y,1/2-z
1/2-x,1/2-y,1/2-z
1/2+x,y,1/2-z
1/2-x,1/2+y,1/2+z
1/2+x,-y,1/2+z
loop_
_atom_site_type_symbol
_atom_site_label
_atom_site_fract_x
_atom_site_fract_y
_atom_site_fract_z
Si Si1 0.162258 0.562368 0.057286
Si Si2 0.082855 0.542607 0.833371
Si Si3 0.278717 0.419806 0.829992
Si Si4 0.918988 0.092265 0.419564
Si Si5 0.416212 0.332824 0.447346
Si Si6 0.080619 0.583100 0.410818
Si Si7 0.186263 0.921802 0.703534
O O1 0.104263 0.524274 0.112319
O O2 0.225879 0.603249 0.102541
O O3 0.124600 0.629747 0.015957
O O4 0.192624 0.500000 0.000000
O O5 0.126834 0.540255 0.756525
O O6 0.000000 0.532038 0.811299
O O7 0.097742 0.621961 0.870924
O O8 0.250000 0.387884 0.750000
O O9 0.359356 0.389562 0.850227
O O10 0.271960 0.508944 0.832939
O O11 0.901380 0.115501 0.505663
O O12 0.857220 0.124447 0.361406
O O13 0.000000 0.120825 0.397733
O O14 0.917126 0.004622 0.413789
O O15 0.500000 0.333399 0.468557
O O16 0.387344 0.250000 0.434548
O O17 0.000000 0.609545 0.386121
O O18 0.250000 0.876854 0.750000
#
# Coordination Sequence:
#
# PCOD8297214 Si02
#       7
#    16  16  16  16  16  16  16
#     4  10  19  30  49  74 100 130 159 205 255 306
#     4  10  18  30  48  73 100 129 163 203 253 305
#     4  10  18  28  39  66 100 130 157 196 248 307
#     4   8  14  23  35  52  78 117 161 192 222 274
#     4   9  19  35  53  72  97 131 173 213 250 301
#     4   8  15  25  38  54  82 125 163 193 231 285
#     4  10  17  25  38  64  97 131 153 192 244 302
#
# _framework density 18.840634999999999
#
# number of rings (size 3 to 8) (size 9 to 14) (size 15 to 20)
#    0.000    2.714    2.857    1.714    4.000    2.286 
#    0.000    0.000    0.000    0.857    0.000    0.000 
#    0.000    0.571    0.000    0.714    0.000    1.143 
#
# Total GULP energy -693877.813092 kJ/mol
# GULP energy per Si atom -12390.675234 kJ/mol
# Density = 1.879775 g / cm^3
# Si number density = 18.840635 Si / 1000 Ang^3
#
#
#
# Elastic Constant Matrix: (Units=GPa)
#
#
# Indices 1 2 3 4 5 6 
#
# 1 115.0947 6.5596 58.0194 0.0000 0.0000 0.0000
# 2 6.5596 28.7583 -6.4930 0.0000 0.0000 0.0000
# 3 58.0194 -6.4930 89.1455 0.0000 0.0000 0.0000
# 4 0.0000 0.0000 0.0000 3.4593 0.0000 0.0000
# 5 0.0000 0.0000 0.0000 0.0000 48.2992 0.0000
# 6 0.0000 0.0000 0.0000 0.0000 0.0000 6.2775
#
#
#
# Elastic Compliance Matrix: (Units=1/GPa)
#
#
# Indices 1 2 3 4 5 6 
#
# 1 0.013657 -0.005208 -0.009268 0.000000 0.000000 0.000000
# 2 -0.005208 0.037340 0.006109 0.000000 0.000000 0.000000
# 3 -0.009268 0.006109 0.017695 0.000000 0.000000 0.000000
# 4 0.000000 0.000000 0.000000 0.289078 0.000000 0.000000
# 5 0.000000 0.000000 0.000000 0.000000 0.020704 0.000000
# 6 0.000000 0.000000 0.000000 0.000000 0.000000 0.159298
#
#
# Mechanical properties :
#
#
# Convention : Reuss Voigt Hill
#
# Bulk Modulus (GPa) = 19.24620 38.79669 29.02144
# Shear Modulus (GPa) = 8.74394 23.26803 16.00598
#
# Velocity S-wave (km/s) = 2.15664 3.51806 2.91786
# Velocity P-wave (km/s) = 4.05449 6.09418 5.17580
#
# Compressibility (1/GPa) = 0.05195832
#
# Stress axis : x y z
#
# Youngs Moduli (GPa) = 73.22079 26.78112 56.51451
#
# Poissons Ratio (x) = 0.13947 0.52378
# Poissons Ratio (y) = 0.38131 -0.34525
# Poissons Ratio (z) = 0.67861 -0.16361
#
# Static dielectric constant tensor:
#      x y z
#    x 3.825490 0.000000 0.000000 
#    y 0.000000 2.738760 0.000000 
#    z 0.000000 0.000000 3.711260 
# 
# 
# High freq. dielectric constant tensor:
#      x y z
#    x 1.750080 0.000000 0.000000 
#    y 0.000000 1.635990 0.000000 
#    z 0.000000 0.000000 1.742390 
# 
# From -- ./inp_files/45433.got.cif
#   From: 2010.03.12/outbox.cif.g09.slc.cpg/sg74_23_cif.got.tgz:45433.got - 2010.04.16 15:46:19.
