data_PCOD8297592
_publ_section_title
;
Structure prediction by ZEFSAII (Michael W. Deem and Ramdas Pophale) SiO2 
 PCOD8297592
Probable space group: I M M A
;
_chemical_formula_sum "Si O2"
_cell_formula_units_Z 104
_cell_length_a 8.756664
_cell_length_b 27.924870
_cell_length_c 23.304022
_cell_angle_alpha 90.000000
_cell_angle_beta 90.000000
_cell_angle_gamma 90.000000
_cell_volume 5698.502294
_symmetry_space_group_name_H-M "I M M A"
_symmetry_group_IT_number 74
_symmetry_cell_setting 'orthorhombic'
loop_
_space_group_symop_operation_xyz
x,y,z
-x,1/2-y,z
x,-y,-z
-x,1/2+y,-z
-x,-y,-z
x,1/2+y,-z
-x,y,z
x,1/2-y,z
1/2+x,1/2+y,1/2+z
1/2-x,-y,1/2+z
1/2+x,1/2-y,1/2-z
1/2-x,y,1/2-z
1/2-x,1/2-y,1/2-z
1/2+x,y,1/2-z
1/2-x,1/2+y,1/2+z
1/2+x,-y,1/2+z
loop_
_atom_site_type_symbol
_atom_site_label
_atom_site_fract_x
_atom_site_fract_y
_atom_site_fract_z
Si Si1 0.818191 0.843924 0.687462
Si Si2 0.179789 0.194892 0.811566
Si Si3 0.679483 0.610148 0.120574
Si Si4 0.318548 0.250000 0.313673
Si Si5 0.680123 0.946214 0.009183
Si Si6 0.178467 0.018640 0.689332
Si Si7 0.180377 0.068065 0.384351
O O1 0.750000 0.849313 0.750000
O O2 0.747907 0.797264 0.655601
O O3 0.754264 0.888854 0.652849
O O4 0.000000 0.840404 0.689714
O O5 0.222803 0.250000 0.826981
O O6 0.250000 0.180525 0.750000
O O7 0.241201 0.160324 0.862395
O O8 0.000000 0.188128 0.806705
O O9 0.500000 0.620046 0.114256
O O10 0.746153 0.586083 0.061628
O O11 0.716945 0.572715 0.171207
O O12 0.500000 0.250000 0.312471
O O13 0.250000 0.250000 0.250000
O O14 0.500000 0.950831 0.020615
O O15 0.726166 0.920661 0.949856
O O16 0.746640 0.000000 0.000000
O O17 0.250000 0.006045 0.750000
O O18 0.000000 0.010946 0.695714
O O19 0.243865 0.982306 0.640672
O O20 0.000000 0.066045 0.380138
#
# Coordination Sequence:
#
# PCOD8297592 Si02
#       7
#    16  16  16   8  16  16  16
#     4  10  18  29  47  71  98 127 160 201 249 297
#     4  10  21  37  57  80 108 141 175 217 269 321
#     4  10  19  31  54  81 105 136 174 215 258 305
#     4  10  18  30  48  68  92 122 158 196 241 294
#     4   9  15  29  52  76 101 133 173 213 247 290
#     4  10  19  30  45  72 105 135 163 198 249 302
#     4   9  17  29  47  71  99 130 166 208 248 289
#
# _framework density 18.250409000000001
#
# number of rings (size 3 to 8) (size 9 to 14) (size 15 to 20)
#    0.000    2.308    1.538    3.462    0.000    2.769 
#    0.000    0.769    1.692    3.231    0.000    0.000 
#    0.000    0.000    0.000    0.000    0.000    0.000 
#
# Total GULP energy -644364.837334 kJ/mol
# GULP energy per Si atom -12391.631487 kJ/mol
# Density = 1.820887 g / cm^3
# Si number density = 18.250409 Si / 1000 Ang^3
#
#
#
# Elastic Constant Matrix: (Units=GPa)
#
#
# Indices 1 2 3 4 5 6 
#
# 1 53.9539 38.8855 22.1420 0.0000 0.0000 0.0000
# 2 38.8855 139.9650 62.6081 0.0000 0.0000 0.0000
# 3 22.1420 62.6081 112.6960 -0.0001 0.0000 0.0000
# 4 0.0000 0.0000 -0.0001 22.6535 0.0000 0.0000
# 5 0.0000 0.0000 0.0000 0.0000 18.4584 0.0000
# 6 0.0000 0.0000 0.0000 0.0000 0.0000 22.8909
#
#
#
# Elastic Compliance Matrix: (Units=1/GPa)
#
#
# Indices 1 2 3 4 5 6 
#
# 1 0.023318 -0.005894 -0.001307 0.000000 0.000000 0.000000
# 2 -0.005894 0.010997 -0.004951 0.000000 0.000000 0.000000
# 3 -0.001307 -0.004951 0.011881 0.000000 0.000000 0.000000
# 4 0.000000 0.000000 0.000000 0.044143 0.000000 0.000000
# 5 0.000000 0.000000 0.000000 0.000000 0.054176 0.000000
# 6 0.000000 0.000000 0.000000 0.000000 0.000000 0.043685
#
#
# Mechanical properties :
#
#
# Convention : Reuss Voigt Hill
#
# Bulk Modulus (GPa) = 45.67930 61.54290 53.61110
# Shear Modulus (GPa) = 22.74770 24.99920 23.87345
#
# Velocity S-wave (km/s) = 3.53430 3.70508 3.62070
# Velocity P-wave (km/s) = 6.46054 7.21790 6.84970
#
# Compressibility (1/GPa) = 0.02189175
#
# Stress axis : x y z
#
# Youngs Moduli (GPa) = 42.88445 90.93556 84.16824
#
# Poissons Ratio (x) = 0.53594 0.11004
# Poissons Ratio (y) = 0.25274 0.41674
# Poissons Ratio (z) = 0.05606 0.45025
#
# Static dielectric constant tensor:
#      x y z
#    x 3.038990 0.000000 0.000000 
#    y 0.000000 4.041070 0.000000 
#    z 0.000000 0.000000 3.428620 
# 
# 
# High freq. dielectric constant tensor:
#      x y z
#    x 1.675310 0.000000 0.000000 
#    y 0.000000 1.718480 0.000000 
#    z 0.000000 0.000000 1.693580 
# 
# From -- ./inp_files/57598.got.cif
#   From: 2010.03.12/outbox.cif.g09.slc.cpg/sg74_29_cif.got.tgz:57598.got - 2010.04.16 15:46:19.
