data_PCOD8297608
_publ_section_title
;
Structure prediction by ZEFSAII (Michael W. Deem and Ramdas Pophale) SiO2 
 PCOD8297608
Probable space group: I M M A
;
_chemical_formula_sum "Si O2"
_cell_formula_units_Z 96
_cell_length_a 25.486732
_cell_length_b 8.534867
_cell_length_c 23.762755
_cell_angle_alpha 90.000000
_cell_angle_beta 90.000000
_cell_angle_gamma 90.000000
_cell_volume 5169.013905
_symmetry_space_group_name_H-M "I M M A"
_symmetry_group_IT_number 74
_symmetry_cell_setting 'orthorhombic'
loop_
_space_group_symop_operation_xyz
x,y,z
-x,1/2-y,z
x,-y,-z
-x,1/2+y,-z
-x,-y,-z
x,1/2+y,-z
-x,y,z
x,1/2-y,z
1/2+x,1/2+y,1/2+z
1/2-x,-y,1/2+z
1/2+x,1/2-y,1/2-z
1/2-x,y,1/2-z
1/2-x,1/2-y,1/2-z
1/2+x,y,1/2-z
1/2-x,1/2+y,1/2+z
1/2+x,-y,1/2+z
loop_
_atom_site_type_symbol
_atom_site_label
_atom_site_fract_x
_atom_site_fract_y
_atom_site_fract_z
Si Si1 0.309004 0.435314 0.060939
Si Si2 0.500000 0.065147 0.062022
Si Si3 0.195659 0.063685 0.939650
Si Si4 0.098281 0.564004 0.132348
Si Si5 0.440724 0.063884 0.750395
Si Si6 0.902530 0.435604 0.629546
Si Si7 0.000000 0.063975 0.937926
O O1 0.311904 0.250000 0.058728
O O2 0.250990 0.490048 0.077689
O O3 0.347045 0.500547 0.108765
O O4 0.325889 0.500000 0.000000
O O5 0.500000 0.250000 0.060383
O O6 0.448441 0.006211 0.092597
O O7 0.500000 0.000000 0.000000
O O8 0.201078 0.250000 0.942955
O O9 0.153700 0.007622 0.893044
O O10 0.176883 0.000000 0.000000
O O11 0.096074 0.750000 0.132313
O O12 0.090849 0.499944 0.195943
O O13 0.051167 0.498551 0.094019
O O14 0.500000 0.995905 0.750656
O O15 0.443934 0.250000 0.748371
O O16 0.410107 0.008532 0.806080
O O17 0.904312 0.250000 0.624111
O O18 0.000000 0.250000 0.939072
O O19 0.000000 0.000000 0.000000
#
# Coordination Sequence:
#
# PCOD8297608 Si02
#       7
#    16   8  16  16  16  16   8
#     4  11  22  38  58  80 108 144 180 224 274 329
#     4  12  24  37  54  80 114 145 177 218 267 326
#     4  10  19  33  54  81 110 144 183 227 272 324
#     4   9  17  30  52  80 109 141 182 225 268 315
#     4   9  16  31  55  81 107 141 183 225 266 311
#     4  11  21  36  58  84 109 139 180 227 273 322
#     4  10  18  29  48  76 110 141 173 218 269 322
#
# _framework density 18.572208
#
# number of rings (size 3 to 8) (size 9 to 14) (size 15 to 20)
#    0.000    1.833    1.667    5.250    0.000    0.000 
#    0.000    1.667    0.000   12.000    0.000    0.000 
#    0.000    0.000    0.000    0.000    0.000    0.000 
#
# Total GULP energy -595227.598485 kJ/mol
# GULP energy per Si atom -12400.574968 kJ/mol
# Density = 1.852994 g / cm^3
# Si number density = 18.572208 Si / 1000 Ang^3
#
#
#
# Elastic Constant Matrix: (Units=GPa)
#
#
# Indices 1 2 3 4 5 6 
#
# 1 131.2295 31.4733 106.0010 0.0000 0.0000 0.0000
# 2 31.4733 80.8513 42.5291 0.0000 0.0000 0.0000
# 3 106.0010 42.5291 191.1634 0.0000 0.0000 0.0000
# 4 0.0000 0.0000 0.0000 23.0324 0.0000 0.0000
# 5 0.0000 0.0000 0.0000 0.0000 -3.0598 0.0000
# 6 0.0000 0.0000 0.0000 0.0000 0.0000 -22.1566
#
#
#
# Elastic Compliance Matrix: (Units=1/GPa)
#
#
# Indices 1 2 3 4 5 6 
#
# 1 0.013971 -0.001544 -0.007403 0.000000 0.000000 0.000000
# 2 -0.001544 0.014178 -0.002298 0.000000 0.000000 0.000000
# 3 -0.007403 -0.002298 0.009847 0.000000 0.000000 0.000000
# 4 0.000000 0.000000 0.000000 0.043417 0.000000 0.000000
# 5 0.000000 0.000000 0.000000 0.000000 -0.326820 0.000000
# 6 0.000000 0.000000 0.000000 0.000000 0.000000 -0.045133
#
#
# Mechanical properties :
#
#
# Convention : Reuss Voigt Hill
#
# Bulk Modulus (GPa) = 64.49337 84.80570 74.64953
# Shear Modulus (GPa) = -19.02004 14.44591 -2.28707
#
# Velocity S-wave (km/s) = -3.20365 2.79198 -1.11091
# Velocity P-wave (km/s) = 4.59528 7.49369 6.21578
#
# Compressibility (1/GPa) = 0.01550547
#
# Stress axis : x y z
#
# Youngs Moduli (GPa) = 71.57932 70.53029 101.54877
#
# Poissons Ratio (x) = 0.10891 0.75178
# Poissons Ratio (y) = 0.11053 0.23337
# Poissons Ratio (z) = 0.52991 0.16208
#
# Static dielectric constant tensor:
#      x y z
#    x 3.582740 0.000000 0.000000 
#    y 0.000000 3.241120 0.000000 
#    z 0.000000 0.000000 3.788200 
# 
# 
# High freq. dielectric constant tensor:
#      x y z
#    x 1.726250 0.000000 0.000000 
#    y 0.000000 1.702010 0.000000 
#    z 0.000000 0.000000 1.726110 
# 
# From -- ./inp_files/61973.got.cif
#   From: 2010.03.12/outbox.cif.g09.slc.cpg/sg74_31_cif.got.tgz:61973.got - 2010.04.16 15:46:19.
