data_PCOD8297097
_publ_section_title
;
Structure prediction by ZEFSAII (Michael W. Deem and Ramdas Pophale) SiO2 
 PCOD8297097
Probable space group: I M M A
;
_chemical_formula_sum "Si O2"
_cell_formula_units_Z 128
_cell_length_a 26.600570
_cell_length_b 18.523501
_cell_length_c 23.318032
_cell_angle_alpha 90.000000
_cell_angle_beta 90.000000
_cell_angle_gamma 90.000000
_cell_volume 11489.626470
_symmetry_space_group_name_H-M "I M M A"
_symmetry_group_IT_number 74
_symmetry_cell_setting 'orthorhombic'
loop_
_space_group_symop_operation_xyz
x,y,z
-x,1/2-y,z
x,-y,-z
-x,1/2+y,-z
-x,-y,-z
x,1/2+y,-z
-x,y,z
x,1/2-y,z
1/2+x,1/2+y,1/2+z
1/2-x,-y,1/2+z
1/2+x,1/2-y,1/2-z
1/2-x,y,1/2-z
1/2-x,1/2-y,1/2-z
1/2+x,y,1/2-z
1/2-x,1/2+y,1/2+z
1/2+x,-y,1/2+z
loop_
_atom_site_type_symbol
_atom_site_label
_atom_site_fract_x
_atom_site_fract_y
_atom_site_fract_z
Si Si1 0.098574 0.966867 0.937130
Si Si2 0.215501 0.168600 0.001231
Si Si3 0.790556 0.033808 0.062685
Si Si4 0.201300 0.170355 0.710384
Si Si5 0.646336 0.835975 0.319090
Si Si6 0.943081 0.103067 0.886090
Si Si7 0.258516 0.896551 0.385175
Si Si8 0.096793 0.831572 0.999000
O O1 0.153995 0.964752 0.909318
O O2 0.079002 0.884302 0.946710
O O3 0.063807 0.016832 0.897059
O O4 0.101017 0.000000 0.000000
O O5 0.228556 0.250000 0.019613
O O6 0.230905 0.115378 0.054213
O O7 0.156149 0.158046 0.988689
O O8 0.246595 0.147923 0.944300
O O9 0.756628 0.982905 0.103110
O O10 0.794220 0.000000 0.000000
O O11 0.191107 0.250000 0.685362
O O12 0.250000 0.172089 0.750000
O O13 0.155229 0.145997 0.751430
O O14 0.210771 0.118539 0.655959
O O15 0.648560 0.750000 0.330112
O O16 0.592427 0.868659 0.335203
O O17 0.689009 0.873490 0.357024
O O18 0.000000 0.116453 0.866402
O O19 0.932121 0.149064 0.942955
O O20 0.083870 0.750000 0.980803
#
# Coordination Sequence:
#
# PCOD8297097 Si02
#       8
#    16  16  16  16  16  16  16  16
#     4   8  14  25  32  40  56  77 101 127 157 184
#     4   9  14  20  32  47  64  84 103 121 146 179
#     4   8  13  20  31  45  61  80 100 122 148 179
#     4   8  15  22  31  46  59  73  94 122 159 186
#     4  10  17  25  32  42  60  75  96 133 159 179
#     4  11  19  25  33  42  55  80 106 129 161 189
#     4  10  13  21  35  46  59  79  99 123 152 181
#     4   9  16  24  33  43  57  78 105 133 156 181
#
# _framework density 11.140484000000001
#
# number of rings (size 3 to 8) (size 9 to 14) (size 15 to 20)
#    0.000    2.875    2.500    3.750    0.000    3.250 
#    0.000    0.000    0.000    0.000    0.000    0.000 
#    0.000    5.500    0.000    0.000    0.000    5.625 
#
# Total GULP energy -792850.896843 kJ/mol
# GULP energy per Si atom -12388.295263 kJ/mol
# Density = 1.111513 g / cm^3
# Si number density = 11.140484 Si / 1000 Ang^3
#
#
#
# Elastic Constant Matrix: (Units=GPa)
#
#
# Indices 1 2 3 4 5 6 
#
# 1 34.2606 24.9037 27.6723 0.0000 0.0000 0.0000
# 2 24.9037 99.6824 36.3895 0.0000 0.0000 0.0000
# 3 27.6723 36.3895 41.8242 0.0000 0.0000 0.0000
# 4 0.0000 0.0000 0.0000 15.7029 0.0000 0.0000
# 5 0.0000 0.0000 0.0000 0.0000 11.3810 0.0000
# 6 0.0000 0.0000 0.0000 0.0000 0.0000 7.3281
#
#
#
# Elastic Compliance Matrix: (Units=1/GPa)
#
#
# Indices 1 2 3 4 5 6 
#
# 1 0.062729 -0.000763 -0.040840 0.000000 0.000000 0.000000
# 2 -0.000763 0.014711 -0.012294 0.000000 0.000000 0.000000
# 3 -0.040840 -0.012294 0.061628 0.000000 0.000000 0.000000
# 4 0.000000 0.000000 0.000000 0.063682 0.000000 0.000000
# 5 0.000000 0.000000 0.000000 0.000000 0.087865 0.000000
# 6 0.000000 0.000000 0.000000 0.000000 0.000000 0.136461
#
#
# Mechanical properties :
#
#
# Convention : Reuss Voigt Hill
#
# Bulk Modulus (GPa) = 31.97662 39.29981 35.63822
# Shear Modulus (GPa) = 9.16935 12.66919 10.91927
#
# Velocity S-wave (km/s) = 2.87203 3.37593 3.13412
# Velocity P-wave (km/s) = 6.30583 7.10978 6.71984
#
# Compressibility (1/GPa) = 0.03127285
#
# Stress axis : x y z
#
# Youngs Moduli (GPa) = 15.94156 67.97842 16.22648
#
# Poissons Ratio (x) = 0.05185 0.66269
# Poissons Ratio (y) = 0.01216 0.19949
# Poissons Ratio (z) = 0.65105 0.83575
#
# Static dielectric constant tensor:
#      x y z
#    x 2.130100 0.000000 0.000000 
#    y 0.000000 2.717770 0.000000 
#    z 0.000000 0.000000 2.237930 
# 
# 
# High freq. dielectric constant tensor:
#      x y z
#    x 1.378230 0.000000 0.000000 
#    y 0.000000 1.429540 0.000000 
#    z 0.000000 0.000000 1.380440 
# 
# From -- ./inp_files/61795.got.cif
#   From: 2010.03.12/outbox.cif.g09.slc.cpg/sg74_31_cif.got.tgz:61795.got - 2010.04.16 15:46:19.
