data_PCOD8297891
_publ_section_title
;
Structure prediction by ZEFSAII (Michael W. Deem and Ramdas Pophale) SiO2 
 PCOD8297891
Probable space group: I M M A
;
_chemical_formula_sum "Si O2"
_cell_formula_units_Z 112
_cell_length_a 15.484989
_cell_length_b 28.022238
_cell_length_c 14.381810
_cell_angle_alpha 90.000000
_cell_angle_beta 90.000000
_cell_angle_gamma 90.000000
_cell_volume 6240.613201
_symmetry_space_group_name_H-M "I M M A"
_symmetry_group_IT_number 74
_symmetry_cell_setting 'orthorhombic'
loop_
_space_group_symop_operation_xyz
x,y,z
-x,1/2-y,z
x,-y,-z
-x,1/2+y,-z
-x,-y,-z
x,1/2+y,-z
-x,y,z
x,1/2-y,z
1/2+x,1/2+y,1/2+z
1/2-x,-y,1/2+z
1/2+x,1/2-y,1/2-z
1/2-x,y,1/2-z
1/2-x,1/2-y,1/2-z
1/2+x,y,1/2-z
1/2-x,1/2+y,1/2+z
1/2+x,-y,1/2+z
loop_
_atom_site_type_symbol
_atom_site_label
_atom_site_fract_x
_atom_site_fract_y
_atom_site_fract_z
Si Si1 0.099189 0.548901 0.041435
Si Si2 0.401500 0.545246 0.053318
Si Si3 0.746185 0.305922 0.141221
Si Si4 0.099739 0.135452 0.081229
Si Si5 0.654627 0.468950 0.741532
Si Si6 0.599556 0.127080 0.069927
Si Si7 0.904546 0.431404 0.249265
O O1 0.110502 0.554766 0.151781
O O2 0.000000 0.547401 0.012241
O O3 0.142471 0.500000 0.000000
O O4 0.135745 0.596758 0.993095
O O5 0.500000 0.544640 0.021004
O O6 0.396101 0.542422 0.164334
O O7 0.355804 0.500000 0.000000
O O8 0.367024 0.597522 0.020858
O O9 0.734220 0.250000 0.129975
O O10 0.750000 0.320552 0.250000
O O11 0.833989 0.320257 0.085696
O O12 0.662911 0.329254 0.091610
O O13 0.108817 0.113035 0.182653
O O14 0.000000 0.151911 0.061531
O O15 0.750000 0.447669 0.750000
O O16 0.660675 0.525911 0.725935
O O17 0.500000 0.146010 0.062388
O O18 0.608045 0.086437 0.147350
O O19 0.000000 0.453526 0.234771
#
# Coordination Sequence:
#
# PCOD8297891 Si02
#       7
#    16  16  16  16  16  16  16
#     4  10  20  35  53  74 107 150 189 222 262 316
#     4  10  20  35  53  74 107 150 189 222 262 316
#     4  11  24  38  57  83 113 143 177 232 283 329
#     4  10  21  36  57  79 107 152 189 221 269 324
#     4  12  24  30  46  80 115 150 186 227 260 312
#     4  10  21  36  57  79 107 152 189 221 269 324
#     4  10  18  32  50  73 110 149 184 220 258 311
#
# _framework density 17.946954000000002
#
# number of rings (size 3 to 8) (size 9 to 14) (size 15 to 20)
#    0.000    1.571    4.286    1.286    4.000    1.143 
#    0.000    1.429    0.000    0.000    0.000    2.000 
#    0.000    4.571    0.000    0.000    0.000    0.000 
#
# Total GULP energy -694019.243643 kJ/mol
# GULP energy per Si atom -12393.200779 kJ/mol
# Density = 1.790611 g / cm^3
# Si number density = 17.946954 Si / 1000 Ang^3
#
#
#
# Elastic Constant Matrix: (Units=GPa)
#
#
# Indices 1 2 3 4 5 6 
#
# 1 76.6499 43.3685 15.1290 0.0000 0.0000 0.0000
# 2 43.3685 84.6739 32.3752 -0.0001 0.0000 0.0000
# 3 15.1290 32.3752 96.1417 -0.0004 -0.0002 0.0000
# 4 0.0000 -0.0001 -0.0004 23.8235 -0.0001 0.0000
# 5 0.0000 0.0000 -0.0002 -0.0001 18.3276 0.0000
# 6 0.0000 0.0000 0.0000 0.0000 0.0000 25.6087
#
#
#
# Elastic Compliance Matrix: (Units=1/GPa)
#
#
# Indices 1 2 3 4 5 6 
#
# 1 0.018378 -0.009535 0.000319 0.000000 0.000000 0.000000
# 2 -0.009535 0.018502 -0.004730 0.000000 0.000000 0.000000
# 3 0.000319 -0.004730 0.011944 0.000000 0.000000 0.000000
# 4 0.000000 0.000000 0.000000 0.041975 0.000000 0.000000
# 5 0.000000 0.000000 0.000000 0.000000 0.054563 0.000000
# 6 0.000000 0.000000 0.000000 0.000000 0.000000 0.039049
#
#
# Mechanical properties :
#
#
# Convention : Reuss Voigt Hill
#
# Bulk Modulus (GPa) = 47.77368 48.80121 48.28745
# Shear Modulus (GPa) = 22.80177 24.65815 23.72996
#
# Velocity S-wave (km/s) = 3.56829 3.71070 3.64019
# Velocity P-wave (km/s) = 6.60712 6.75352 6.68072
#
# Compressibility (1/GPa) = 0.02093203
#
# Stress axis : x y z
#
# Youngs Moduli (GPa) = 54.41217 54.04769 83.72413
#
# Poissons Ratio (x) = 0.51534 -0.02669
# Poissons Ratio (y) = 0.51881 0.39602
# Poissons Ratio (z) = -0.01735 0.25565
#
# Static dielectric constant tensor:
#      x y z
#    x 3.368900 0.000000 0.000000 
#    y 0.000000 3.022390 0.000000 
#    z 0.000000 0.000000 3.269680 
# 
# 
# High freq. dielectric constant tensor:
#      x y z
#    x 1.695190 0.000000 0.000000 
#    y 0.000000 1.654600 0.000000 
#    z 0.000000 0.000000 1.689110 
# 
# From -- ./inp_files/33149.got.cif
#   From: 2010.03.12/outbox.cif.g09.slc.cpg/sg74_17_cif.got.tgz:33149.got - 2010.04.16 15:46:19.
