data_PCOD8297375
_publ_section_title
;
Structure prediction by ZEFSAII (Michael W. Deem and Ramdas Pophale) SiO2 
 PCOD8297375
Probable space group: I M M A
;
_chemical_formula_sum "Si O2"
_cell_formula_units_Z 96
_cell_length_a 18.578528
_cell_length_b 21.558370
_cell_length_c 12.372159
_cell_angle_alpha 90.000000
_cell_angle_beta 90.000000
_cell_angle_gamma 90.000000
_cell_volume 4955.331526
_symmetry_space_group_name_H-M "I M M A"
_symmetry_group_IT_number 74
_symmetry_cell_setting 'orthorhombic'
loop_
_space_group_symop_operation_xyz
x,y,z
-x,1/2-y,z
x,-y,-z
-x,1/2+y,-z
-x,-y,-z
x,1/2+y,-z
-x,y,z
x,1/2-y,z
1/2+x,1/2+y,1/2+z
1/2-x,-y,1/2+z
1/2+x,1/2-y,1/2-z
1/2-x,y,1/2-z
1/2-x,1/2-y,1/2-z
1/2+x,y,1/2-z
1/2-x,1/2+y,1/2+z
1/2+x,-y,1/2+z
loop_
_atom_site_type_symbol
_atom_site_label
_atom_site_fract_x
_atom_site_fract_y
_atom_site_fract_z
Si Si1 0.683516 0.882356 0.464206
Si Si2 0.584586 0.821840 0.856895
Si Si3 0.155600 0.250000 0.662816
Si Si4 0.835673 0.956908 0.243580
Si Si5 0.177627 0.750000 0.101589
Si Si6 0.830360 0.594690 0.792219
Si Si7 0.353249 0.625150 0.063544
O O1 0.644312 0.920754 0.367800
O O2 0.656828 0.811083 0.465245
O O3 0.664323 0.911252 0.578791
O O4 0.768915 0.882542 0.452495
O O5 0.500000 0.822722 0.841715
O O6 0.610691 0.750000 0.878219
O O7 0.620709 0.848196 0.747888
O O8 0.607430 0.872957 0.947745
O O9 0.133905 0.250000 0.787575
O O10 0.239755 0.250000 0.637217
O O11 0.120185 0.310357 0.612920
O O12 0.750000 0.951647 0.250000
O O13 0.875333 0.927425 0.349072
O O14 0.860300 0.028175 0.246650
O O15 0.750000 0.607130 0.750000
#
# Coordination Sequence:
#
# PCOD8297375 Si02
#       7
#    16  16   8  16   8  16  16
#     4  10  18  30  53  86 119 143 181 238 289 333
#     4  11  25  42  58  80 115 156 194 239 292 342
#     4   9  14  26  48  77 113 138 180 229 284 337
#     4   9  19  32  54  85 118 147 180 234 292 335
#     4   9  16  24  46  84 110 143 176 230 290 330
#     4  11  22  36  55  83 118 156 194 231 276 346
#     4  10  17  33  56  81 111 148 186 233 290 341
#
# _framework density 19.373073000000002
#
# number of rings (size 3 to 8) (size 9 to 14) (size 15 to 20)
#    0.000    2.000    4.167    0.500    1.167    1.000 
#    0.000    1.667    0.000    3.000    0.000    2.333 
#    0.000    0.000    0.000    0.000    0.000    0.000 
#
# Total GULP energy -594732.327590 kJ/mol
# GULP energy per Si atom -12390.256825 kJ/mol
# Density = 1.932898 g / cm^3
# Si number density = 19.373073 Si / 1000 Ang^3
#
#
#
# Elastic Constant Matrix: (Units=GPa)
#
#
# Indices 1 2 3 4 5 6 
#
# 1 26.9396 24.5843 8.5591 0.0000 0.0000 0.0000
# 2 24.5843 126.4235 46.1039 0.0000 0.0000 0.0000
# 3 8.5591 46.1039 110.9609 0.0000 0.0000 0.0000
# 4 0.0000 0.0000 0.0000 31.4830 0.0000 0.0000
# 5 0.0000 0.0000 0.0000 0.0000 11.5200 0.0000
# 6 0.0000 0.0000 0.0000 0.0000 0.0000 13.3954
#
#
#
# Elastic Compliance Matrix: (Units=1/GPa)
#
#
# Indices 1 2 3 4 5 6 
#
# 1 0.045132 -0.008847 0.000195 0.000000 0.000000 0.000000
# 2 -0.008847 0.011057 -0.003912 0.000000 0.000000 0.000000
# 3 0.000195 -0.003912 0.010622 0.000000 0.000000 0.000000
# 4 0.000000 0.000000 0.000000 0.031763 0.000000 0.000000
# 5 0.000000 0.000000 0.000000 0.000000 0.086806 0.000000
# 6 0.000000 0.000000 0.000000 0.000000 0.000000 0.074653
#
#
# Mechanical properties :
#
#
# Convention : Reuss Voigt Hill
#
# Bulk Modulus (GPa) = 23.99067 46.97982 35.48525
# Shear Modulus (GPa) = 16.71929 23.61813 20.16871
#
# Velocity S-wave (km/s) = 2.94090 3.49538 3.23006
# Velocity P-wave (km/s) = 4.89308 6.37126 5.68046
#
# Compressibility (1/GPa) = 0.04168287
#
# Stress axis : x y z
#
# Youngs Moduli (GPa) = 22.15716 90.44145 94.14036
#
# Poissons Ratio (x) = 0.80017 -0.01834
# Poissons Ratio (y) = 0.19603 0.36824
# Poissons Ratio (z) = -0.00432 0.35377
#
# Static dielectric constant tensor:
#      x y z
#    x 2.838520 0.000000 0.000000 
#    y 0.000000 3.858540 0.000000 
#    z 0.000000 0.000000 3.743560 
# 
# 
# High freq. dielectric constant tensor:
#      x y z
#    x 1.675370 0.000000 0.000000 
#    y 0.000000 1.767660 0.000000 
#    z 0.000000 0.000000 1.767720 
# 
# From -- ./inp_files/23967.got.cif
#   From: 2010.03.12/outbox.cif.g09.slc.cpg/sg74_12_cif.got.tgz:23967.got - 2010.04.16 15:46:19.
