data_PCOD8297587
_publ_section_title
;
Structure prediction by ZEFSAII (Michael W. Deem and Ramdas Pophale) SiO2 
 PCOD8297587
Probable space group: I M M A
;
_chemical_formula_sum "Si O2"
_cell_formula_units_Z 80
_cell_length_a 10.177497
_cell_length_b 11.377193
_cell_length_c 38.358163
_cell_angle_alpha 90.000000
_cell_angle_beta 90.000000
_cell_angle_gamma 90.000000
_cell_volume 4441.543386
_symmetry_space_group_name_H-M "I M M A"
_symmetry_group_IT_number 74
_symmetry_cell_setting 'orthorhombic'
loop_
_space_group_symop_operation_xyz
x,y,z
-x,1/2-y,z
x,-y,-z
-x,1/2+y,-z
-x,-y,-z
x,1/2+y,-z
-x,y,z
x,1/2-y,z
1/2+x,1/2+y,1/2+z
1/2-x,-y,1/2+z
1/2+x,1/2-y,1/2-z
1/2-x,y,1/2-z
1/2-x,1/2-y,1/2-z
1/2+x,y,1/2-z
1/2-x,1/2+y,1/2+z
1/2+x,-y,1/2+z
loop_
_atom_site_type_symbol
_atom_site_label
_atom_site_fract_x
_atom_site_fract_y
_atom_site_fract_z
Si Si1 0.500000 0.613584 0.555227
Si Si2 0.500000 0.937840 0.843424
Si Si3 0.220987 0.110252 0.475442
Si Si4 0.277537 0.379365 0.318348
Si Si5 0.750000 0.024378 0.750000
Si Si6 0.500000 0.621071 0.215433
Si Si7 0.000000 0.890320 0.868064
Si Si8 0.000000 0.617593 0.580749
O O1 0.500000 0.750000 0.562507
O O2 0.629128 0.579387 0.533664
O O3 0.500000 0.551896 0.593289
O O4 0.629922 0.867588 0.832623
O O5 0.500000 0.964934 0.884981
O O6 0.500000 0.055686 0.821217
O O7 0.207340 0.250000 0.489177
O O8 0.130841 0.096461 0.441563
O O9 0.175776 0.000000 0.500000
O O10 0.330777 0.250000 0.310147
O O11 0.293374 0.446961 0.282504
O O12 0.370531 0.436997 0.347901
O O13 0.626604 0.102091 0.760623
O O14 0.500000 0.750000 0.201134
O O15 0.000000 0.750000 0.871026
O O16 0.000000 0.750000 0.595438
#
# Coordination Sequence:
#
# PCOD8297587 Si02
#       8
#     8   8  16  16   8   8   8   8
#     4   9  17  30  49  72  98 131 170 208 249 297
#     4  10  20  32  50  73  96 129 164 199 246 296
#     4  10  20  34  53  77 104 134 168 206 247 297
#     4  10  18  29  46  72 104 128 154 196 249 304
#     4  10  20  32  50  72  94 128 166 204 250 296
#     4  10  21  37  52  68  92 126 172 214 246 285
#     4   9  17  28  45  69  98 132 162 194 239 295
#     4  10  19  33  53  76 103 132 163 199 244 297
#
# _framework density 18.011756999999999
#
# number of rings (size 3 to 8) (size 9 to 14) (size 15 to 20)
#    0.000    2.200    0.000    3.900    0.000    3.200 
#    0.000    4.000    0.000    0.000    0.000    7.000 
#    0.000    0.000    0.000    0.000    0.000    0.000 
#
# Total GULP energy -495555.329793 kJ/mol
# GULP energy per Si atom -12388.883245 kJ/mol
# Density = 1.797076 g / cm^3
# Si number density = 18.011757 Si / 1000 Ang^3
#
#
#
# Elastic Constant Matrix: (Units=GPa)
#
#
# Indices 1 2 3 4 5 6 
#
# 1 104.3622 26.6352 29.5135 0.0000 0.0000 0.0000
# 2 26.6352 82.8616 48.4445 0.0000 0.0000 0.0000
# 3 29.5135 48.4445 109.4280 0.0000 0.0000 0.0000
# 4 0.0000 0.0000 0.0000 4.1832 0.0000 0.0000
# 5 0.0000 0.0000 0.0000 0.0000 6.6728 0.0000
# 6 0.0000 0.0000 0.0000 0.0000 0.0000 10.0108
#
#
#
# Elastic Compliance Matrix: (Units=1/GPa)
#
#
# Indices 1 2 3 4 5 6 
#
# 1 0.010706 -0.002365 -0.001840 0.000000 0.000000 0.000000
# 2 -0.002365 0.016805 -0.006802 0.000000 0.000000 0.000000
# 3 -0.001840 -0.006802 0.012646 0.000000 0.000000 0.000000
# 4 0.000000 0.000000 0.000000 0.239050 0.000000 0.000000
# 5 0.000000 0.000000 0.000000 0.000000 0.149862 0.000000
# 6 0.000000 0.000000 0.000000 0.000000 0.000000 0.099892
#
#
# Mechanical properties :
#
#
# Convention : Reuss Voigt Hill
#
# Bulk Modulus (GPa) = 55.12006 56.20424 55.66215
# Shear Modulus (GPa) = 8.97626 16.97727 12.97676
#
# Velocity S-wave (km/s) = 2.23481 3.07345 2.68705
# Velocity P-wave (km/s) = 6.10965 6.62320 6.37160
#
# Compressibility (1/GPa) = 0.01814222
#
# Stress axis : x y z
#
# Youngs Moduli (GPa) = 93.40412 59.50486 79.07637
#
# Poissons Ratio (x) = 0.14076 0.14553
# Poissons Ratio (y) = 0.22095 0.53787
# Poissons Ratio (z) = 0.17189 0.40474
#
# Static dielectric constant tensor:
#      x y z
#    x 3.845090 0.000000 0.000000 
#    y 0.000000 3.078810 0.000000 
#    z 0.000000 0.000000 3.347780 
# 
# 
# High freq. dielectric constant tensor:
#      x y z
#    x 1.720460 0.000000 0.000000 
#    y 0.000000 1.657690 0.000000 
#    z 0.000000 0.000000 1.698470 
# 
# From -- ./inp_files/71608.got.cif
#   From: 2010.03.12/outbox.cif.g09.slc.cpg/sg74_36_cif.got.tgz:71608.got - 2010.04.16 15:46:19.
