data_PCOD8297329
_publ_section_title
;
Structure prediction by ZEFSAII (Michael W. Deem and Ramdas Pophale) SiO2 
 PCOD8297329
Probable space group: I M M A
;
_chemical_formula_sum "Si O2"
_cell_formula_units_Z 104
_cell_length_a 7.700986
_cell_length_b 26.594552
_cell_length_c 26.645397
_cell_angle_alpha 90.000000
_cell_angle_beta 90.000000
_cell_angle_gamma 90.000000
_cell_volume 5457.091151
_symmetry_space_group_name_H-M "I M M A"
_symmetry_group_IT_number 74
_symmetry_cell_setting 'orthorhombic'
loop_
_space_group_symop_operation_xyz
x,y,z
-x,1/2-y,z
x,-y,-z
-x,1/2+y,-z
-x,-y,-z
x,1/2+y,-z
-x,y,z
x,1/2-y,z
1/2+x,1/2+y,1/2+z
1/2-x,-y,1/2+z
1/2+x,1/2-y,1/2-z
1/2-x,y,1/2-z
1/2-x,1/2-y,1/2-z
1/2+x,y,1/2-z
1/2-x,1/2+y,1/2+z
1/2+x,-y,1/2+z
loop_
_atom_site_type_symbol
_atom_site_label
_atom_site_fract_x
_atom_site_fract_y
_atom_site_fract_z
Si Si1 0.500000 0.847553 0.445834
Si Si2 0.697695 0.871713 0.897116
Si Si3 0.695915 0.053949 0.803674
Si Si4 0.801030 0.515650 0.600866
Si Si5 0.700565 0.808175 0.989612
Si Si6 0.797058 0.193453 0.194885
Si Si7 0.500000 0.393145 0.655217
Si Si8 0.000000 0.957943 0.065474
O O1 0.675878 0.820181 0.463214
O O2 0.500000 0.846650 0.384462
O O3 0.500000 0.905797 0.466127
O O4 0.500000 0.877435 0.911834
O O5 0.774561 0.927768 0.893269
O O6 0.711064 0.843522 0.844556
O O7 0.779589 0.839131 0.942454
O O8 0.500000 0.075066 0.802435
O O9 0.750000 0.030148 0.750000
O O10 0.821634 0.102769 0.812934
O O11 0.711465 0.010257 0.844869
O O12 0.678339 0.489651 0.558058
O O13 0.000000 0.513591 0.581320
O O14 0.500000 0.821612 0.003160
O O15 0.716065 0.750000 0.975161
O O16 0.721916 0.250000 0.188125
O O17 0.750000 0.173209 0.250000
O O18 0.000000 0.193107 0.185837
O O19 0.500000 0.445341 0.624419
#
# Coordination Sequence:
#
# PCOD8297329 Si02
#       8
#     8  16  16  16  16  16   8   8
#     4  10  21  37  61  83 114 149 195 244 291 351
#     4  10  21  37  55  78 110 146 191 241 291 344
#     4  10  17  29  51  75 110 152 192 234 273 324
#     4   9  19  33  50  76 111 150 189 230 276 333
#     4  10  22  39  60  86 113 145 189 243 300 351
#     4  10  21  35  52  75 102 139 186 241 304 360
#     4   8  18  33  48  81 108 145 188 230 283 328
#     4   8  18  34  53  73 107 148 182 231 282 321
#
# _framework density 19.057770999999999
#
# number of rings (size 3 to 8) (size 9 to 14) (size 15 to 20)
#    0.462    2.000    0.769    1.154    2.154    3.385 
#    0.000    3.077    0.000    2.769    0.000    0.000 
#    0.000    2.462    0.000    0.000    0.000    0.000 
#
# Total GULP energy -644234.521454 kJ/mol
# GULP energy per Si atom -12389.125413 kJ/mol
# Density = 1.901439 g / cm^3
# Si number density = 19.057771 Si / 1000 Ang^3
#
#
#
# Elastic Constant Matrix: (Units=GPa)
#
#
# Indices 1 2 3 4 5 6 
#
# 1 111.2631 31.5580 30.7185 0.0000 0.0000 0.0000
# 2 31.5580 56.7866 28.1949 0.0000 0.0000 0.0000
# 3 30.7185 28.1949 49.4718 0.0000 0.0000 0.0000
# 4 0.0000 0.0000 0.0000 28.7811 0.0000 0.0000
# 5 0.0000 0.0000 0.0000 0.0000 16.7590 0.0000
# 6 0.0000 0.0000 0.0000 0.0000 0.0000 24.4804
#
#
#
# Elastic Compliance Matrix: (Units=1/GPa)
#
#
# Indices 1 2 3 4 5 6 
#
# 1 0.011449 -0.003951 -0.004858 0.000000 0.000000 0.000000
# 2 -0.003951 0.025923 -0.012321 0.000000 0.000000 0.000000
# 3 -0.004858 -0.012321 0.030251 0.000000 0.000000 0.000000
# 4 0.000000 0.000000 0.000000 0.034745 0.000000 0.000000
# 5 0.000000 0.000000 0.000000 0.000000 0.059669 0.000000
# 6 0.000000 0.000000 0.000000 0.000000 0.000000 0.040849
#
#
# Mechanical properties :
#
#
# Convention : Reuss Voigt Hill
#
# Bulk Modulus (GPa) = 39.42376 44.27381 41.84879
# Shear Modulus (GPa) = 19.71607 22.47411 21.09509
#
# Velocity S-wave (km/s) = 3.21992 3.43776 3.33062
# Velocity P-wave (km/s) = 5.87837 6.24815 6.06608
#
# Compressibility (1/GPa) = 0.02536541
#
# Stress axis : x y z
#
# Youngs Moduli (GPa) = 87.34031 38.57629 33.05623
#
# Poissons Ratio (x) = 0.15241 0.16057
# Poissons Ratio (y) = 0.34508 0.40727
# Poissons Ratio (z) = 0.42426 0.47528
#
# Static dielectric constant tensor:
#      x y z
#    x 3.696460 0.000000 0.000000 
#    y 0.000000 3.316570 0.000000 
#    z 0.000000 0.000000 3.290620 
# 
# 
# High freq. dielectric constant tensor:
#      x y z
#    x 1.755480 0.000000 0.000000 
#    y 0.000000 1.709970 0.000000 
#    z 0.000000 0.000000 1.721740 
# 
# From -- ./inp_files/65023.got.cif
#   From: 2010.03.12/outbox.cif.g09.slc.cpg/sg74_33_cif.got.tgz:65023.got - 2010.04.16 15:46:19.
