data_PCOD8297945
_publ_section_title
;
Structure prediction by ZEFSAII (Michael W. Deem and Ramdas Pophale) SiO2 
 PCOD8297945
Probable space group: I M M A
;
_chemical_formula_sum "Si O2"
_cell_formula_units_Z 64
_cell_length_a 27.529413
_cell_length_b 16.412555
_cell_length_c 8.841791
_cell_angle_alpha 90.000000
_cell_angle_beta 90.000000
_cell_angle_gamma 90.000000
_cell_volume 3994.968788
_symmetry_space_group_name_H-M "I M M A"
_symmetry_group_IT_number 74
_symmetry_cell_setting 'orthorhombic'
loop_
_space_group_symop_operation_xyz
x,y,z
-x,1/2-y,z
x,-y,-z
-x,1/2+y,-z
-x,-y,-z
x,1/2+y,-z
-x,y,z
x,1/2-y,z
1/2+x,1/2+y,1/2+z
1/2-x,-y,1/2+z
1/2+x,1/2-y,1/2-z
1/2-x,y,1/2-z
1/2-x,1/2-y,1/2-z
1/2+x,y,1/2-z
1/2-x,1/2+y,1/2+z
1/2+x,-y,1/2+z
loop_
_atom_site_type_symbol
_atom_site_label
_atom_site_fract_x
_atom_site_fract_y
_atom_site_fract_z
Si Si1 0.055060 0.581989 0.596315
Si Si2 0.795831 0.952714 0.350575
Si Si3 0.881016 0.157490 0.640530
Si Si4 0.885097 0.993611 0.177817
O O1 0.059104 0.500000 0.500000
O O2 0.085880 0.651013 0.510070
O O3 0.077744 0.562166 0.760559
O O4 0.000000 0.612372 0.616447
O O5 0.750000 0.927412 0.250000
O O6 0.825675 0.871023 0.397473
O O7 0.832011 0.010437 0.252020
O O8 0.778375 0.000000 0.500000
O O9 0.881249 0.250000 0.698600
O O10 0.902110 0.098168 0.773093
O O11 0.882563 0.000000 0.000000
#
# Coordination Sequence:
#
# PCOD8297945 Si02
#       4
#    16  16  16  16
#     4   9  16  31  53  73  97 131 173 209 247 305
#     4  10  18  32  53  74  95 135 180 216 255 305
#     4   9  18  33  50  73 103 133 171 214 260 309
#     4   9  17  32  50  74 104 133 172 211 257 305
#
# _framework density 16.020150000000001
#
# number of rings (size 3 to 8) (size 9 to 14) (size 15 to 20)
#    1.500    1.250    2.500    0.750    0.000    1.500 
#    0.000    1.250    0.000    0.750    0.000    0.000 
#    0.000    0.000    0.000    0.000    0.000    0.000 
#
# Total GULP energy -396426.744094 kJ/mol
# GULP energy per Si atom -12388.335753 kJ/mol
# Density = 1.598369 g / cm^3
# Si number density = 16.020150 Si / 1000 Ang^3
#
#
#
# Elastic Constant Matrix: (Units=GPa)
#
#
# Indices 1 2 3 4 5 6 
#
# 1 118.8095 22.9362 39.6851 0.0000 0.0000 0.0000
# 2 22.9362 74.2580 30.9349 0.0000 0.0000 0.0000
# 3 39.6851 30.9349 110.8453 0.0000 0.0000 0.0000
# 4 0.0000 0.0000 0.0000 11.9555 0.0000 0.0000
# 5 0.0000 0.0000 0.0000 0.0000 24.6285 0.0000
# 6 0.0000 0.0000 0.0000 0.0000 0.0000 5.1099
#
#
#
# Elastic Compliance Matrix: (Units=1/GPa)
#
#
# Indices 1 2 3 4 5 6 
#
# 1 0.009760 -0.001764 -0.003002 0.000000 0.000000 0.000000
# 2 -0.001764 0.015557 -0.003710 0.000000 0.000000 0.000000
# 3 -0.003002 -0.003710 0.011132 0.000000 0.000000 0.000000
# 4 0.000000 0.000000 0.000000 0.083644 0.000000 0.000000
# 5 0.000000 0.000000 0.000000 0.000000 0.040603 0.000000
# 6 0.000000 0.000000 0.000000 0.000000 0.000000 0.195697
#
#
# Mechanical properties :
#
#
# Convention : Reuss Voigt Hill
#
# Bulk Modulus (GPa) = 51.29103 54.55836 52.92469
# Shear Modulus (GPa) = 13.16328 22.36255 17.76291
#
# Velocity S-wave (km/s) = 2.86959 3.74023 3.33346
# Velocity P-wave (km/s) = 6.56243 7.26515 6.92271
#
# Compressibility (1/GPa) = 0.01949659
#
# Stress axis : x y z
#
# Youngs Moduli (GPa) = 102.45765 64.27976 89.83263
#
# Poissons Ratio (x) = 0.11339 0.26968
# Poissons Ratio (y) = 0.18074 0.33329
# Poissons Ratio (z) = 0.30758 0.23849
#
# Static dielectric constant tensor:
#      x y z
#    x 3.053210 0.000000 0.000000 
#    y 0.000000 2.637620 0.000000 
#    z 0.000000 0.000000 2.804880 
# 
# 
# High freq. dielectric constant tensor:
#      x y z
#    x 1.616310 0.000000 0.000000 
#    y 0.000000 1.576110 0.000000 
#    z 0.000000 0.000000 1.602150 
# 
# From -- ./inp_files/14811.got.cif
#   From: 2010.03.12/outbox.cif.g09.slc.cpg/sg74_8_cif.got.tgz:14811.got - 2010.04.16 15:46:19.
