data_PCOD8297853
_publ_section_title
;
Structure prediction by ZEFSAII (Michael W. Deem and Ramdas Pophale) SiO2 
 PCOD8297853
Probable space group: I M M A
;
_chemical_formula_sum "Si O2"
_cell_formula_units_Z 96
_cell_length_a 16.672464
_cell_length_b 23.905951
_cell_length_c 12.676736
_cell_angle_alpha 90.000000
_cell_angle_beta 90.000000
_cell_angle_gamma 90.000000
_cell_volume 5052.580706
_symmetry_space_group_name_H-M "I M M A"
_symmetry_group_IT_number 74
_symmetry_cell_setting 'orthorhombic'
loop_
_space_group_symop_operation_xyz
x,y,z
-x,1/2-y,z
x,-y,-z
-x,1/2+y,-z
-x,-y,-z
x,1/2+y,-z
-x,y,z
x,1/2-y,z
1/2+x,1/2+y,1/2+z
1/2-x,-y,1/2+z
1/2+x,1/2-y,1/2-z
1/2-x,y,1/2-z
1/2-x,1/2-y,1/2-z
1/2+x,y,1/2-z
1/2-x,1/2+y,1/2+z
1/2+x,-y,1/2+z
loop_
_atom_site_type_symbol
_atom_site_label
_atom_site_fract_x
_atom_site_fract_y
_atom_site_fract_z
Si Si1 0.342038 0.750000 0.221871
Si Si2 0.904416 0.560138 0.779562
Si Si3 0.405106 0.137606 0.859112
Si Si4 0.095344 0.058649 0.455967
Si Si5 0.906308 0.750000 0.046329
Si Si6 0.404718 0.561750 0.334145
Si Si7 0.904263 0.632360 0.970251
O O1 0.250000 0.750000 0.250000
O O2 0.361704 0.803238 0.150029
O O3 0.393860 0.750000 0.328369
O O4 0.870980 0.570484 0.661605
O O5 0.871007 0.501152 0.823770
O O6 0.874689 0.610008 0.856418
O O7 0.000000 0.558167 0.777794
O O8 0.500000 0.146794 0.854020
O O9 0.375207 0.097682 0.765230
O O10 0.377895 0.109550 0.969066
O O11 0.000000 0.054147 0.453205
O O12 0.130016 0.000000 0.500000
O O13 0.000000 0.750000 0.025127
O O14 0.868843 0.694427 0.992197
O O15 0.500000 0.560058 0.336265
O O16 0.371113 0.590047 0.440503
O O17 0.000000 0.633829 0.976559
#
# Coordination Sequence:
#
# PCOD8297853 Si02
#       7
#     8  16  16  16   8  16  16
#     4  12  24  36  51  74  98 132 169 213 254 296
#     4   9  15  23  37  69 108 133 157 194 244 297
#     4  10  18  31  52  77 102 130 166 206 250 300
#     4   9  15  25  44  73 106 135 161 197 247 298
#     4  10  18  32  51  70  97 132 163 201 254 300
#     4   9  14  22  41  68 100 129 155 196 245 293
#     4   9  16  24  39  66 100 134 164 197 241 290
#
# _framework density 19.000191999999998
#
# number of rings (size 3 to 8) (size 9 to 14) (size 15 to 20)
#    0.000    2.500    3.333    1.250    0.000    2.000 
#    0.000    0.833    0.000    4.000    4.333    2.333 
#    0.000    0.000    0.000    0.000    0.000    0.000 
#
# Total GULP energy -595028.941838 kJ/mol
# GULP energy per Si atom -12396.436288 kJ/mol
# Density = 1.895695 g / cm^3
# Si number density = 19.000192 Si / 1000 Ang^3
#
#
#
# Elastic Constant Matrix: (Units=GPa)
#
#
# Indices 1 2 3 4 5 6 
#
# 1 10.8829 14.9957 6.9938 0.0000 0.0000 0.0000
# 2 14.9957 177.1607 98.9545 0.0000 0.0000 0.0000
# 3 6.9938 98.9545 181.7640 -0.0001 0.0000 0.0000
# 4 0.0000 0.0000 -0.0001 37.9079 0.0000 0.0000
# 5 0.0000 0.0000 0.0000 0.0000 4.0362 0.0000
# 6 0.0000 0.0000 0.0000 0.0000 0.0000 1.3762
#
#
#
# Elastic Compliance Matrix: (Units=1/GPa)
#
#
# Indices 1 2 3 4 5 6 
#
# 1 0.104183 -0.009454 0.001138 0.000000 0.000000 0.000000
# 2 -0.009454 0.008969 -0.004519 0.000000 0.000000 0.000000
# 3 0.001138 -0.004519 0.007918 0.000000 0.000000 0.000000
# 4 0.000000 0.000000 0.000000 0.026380 0.000000 0.000000
# 5 0.000000 0.000000 0.000000 0.000000 0.247758 0.000002
# 6 0.000000 0.000000 0.000000 0.000000 0.000002 0.726638
#
#
# Mechanical properties :
#
#
# Convention : Reuss Voigt Hill
#
# Bulk Modulus (GPa) = 10.48220 67.96618 39.22419
# Shear Modulus (GPa) = 4.23975 25.25497 14.74736
#
# Velocity S-wave (km/s) = 1.49542 3.64977 2.78900
# Velocity P-wave (km/s) = 2.91729 7.32189 5.57318
#
# Compressibility (1/GPa) = 0.09539981
#
# Stress axis : x y z
#
# Youngs Moduli (GPa) = 9.59852 111.49499 126.29344
#
# Poissons Ratio (x) = 1.05412 -0.14378
# Poissons Ratio (y) = 0.09075 0.57073
# Poissons Ratio (z) = -0.01093 0.50385
#
# Static dielectric constant tensor:
#      x y z
#    x 2.699500 0.000000 0.000000 
#    y 0.000000 3.741290 0.000000 
#    z 0.000000 0.000000 3.772800 
# 
# 
# High freq. dielectric constant tensor:
#      x y z
#    x 1.661730 0.000000 0.000000 
#    y 0.000000 1.744600 0.000000 
#    z 0.000000 0.000000 1.742230 
# 
# From -- ./inp_files/24129.got.cif
#   From: 2010.03.12/outbox.cif.g09.slc.cpg/sg74_13_cif.got.tgz:24129.got - 2010.04.16 15:46:19.
