data_PCOD8297248
_publ_section_title
;
Structure prediction by ZEFSAII (Michael W. Deem and Ramdas Pophale) SiO2 
 PCOD8297248
Probable space group: I M M A
;
_chemical_formula_sum "Si O2"
_cell_formula_units_Z 96
_cell_length_a 20.866694
_cell_length_b 20.113754
_cell_length_c 13.643214
_cell_angle_alpha 90.000000
_cell_angle_beta 90.000000
_cell_angle_gamma 90.000000
_cell_volume 5726.159921
_symmetry_space_group_name_H-M "I M M A"
_symmetry_group_IT_number 74
_symmetry_cell_setting 'orthorhombic'
loop_
_space_group_symop_operation_xyz
x,y,z
-x,1/2-y,z
x,-y,-z
-x,1/2+y,-z
-x,-y,-z
x,1/2+y,-z
-x,y,z
x,1/2-y,z
1/2+x,1/2+y,1/2+z
1/2-x,-y,1/2+z
1/2+x,1/2-y,1/2-z
1/2-x,y,1/2-z
1/2-x,1/2-y,1/2-z
1/2+x,y,1/2-z
1/2-x,1/2+y,1/2+z
1/2+x,-y,1/2+z
loop_
_atom_site_type_symbol
_atom_site_label
_atom_site_fract_x
_atom_site_fract_y
_atom_site_fract_z
Si Si1 0.429033 0.954953 0.595665
Si Si2 0.270919 0.893856 0.475429
Si Si3 0.431008 0.171586 0.726918
Si Si4 0.100611 0.326459 0.989802
Si Si5 0.806437 0.327674 0.673182
Si Si6 0.206567 0.518173 0.846450
O O1 0.500000 0.972283 0.639680
O O2 0.429563 0.876773 0.568455
O O3 0.369674 0.965821 0.671508
O O4 0.414599 0.000000 0.500000
O O5 0.322874 0.835074 0.483740
O O6 0.206384 0.860755 0.432953
O O7 0.260909 0.927777 0.580846
O O8 0.293771 0.946505 0.394951
O O9 0.500000 0.148376 0.770115
O O10 0.422727 0.250000 0.734267
O O11 0.429460 0.151853 0.613506
O O12 0.372343 0.139233 0.787031
O O13 0.084419 0.250000 0.017544
O O14 0.813964 0.250000 0.656802
O O15 0.750000 0.343575 0.750000
O O16 0.250000 0.519345 0.750000
#
# Coordination Sequence:
#
# PCOD8297248 Si02
#       6
#    16  16  16  16  16  16
#     4  10  19  33  50  73 102 132 167 205 252 309
#     4  10  18  31  48  72  95 127 163 205 245 299
#     4   9  17  26  38  66 103 130 153 187 240 304
#     4  10  17  28  47  74 104 129 154 197 259 316
#     4  10  17  26  45  69  94 126 159 197 249 308
#     4  10  20  34  51  70  96 132 172 204 246 295
#
# _framework density 16.765162
#
# number of rings (size 3 to 8) (size 9 to 14) (size 15 to 20)
#    0.000    2.167    5.000    1.500    0.000    1.000 
#    0.000    0.000    0.000   13.500    0.000    2.333 
#    0.000    0.000    0.000    0.000    0.000    0.000 
#
# Total GULP energy -594666.582253 kJ/mol
# GULP energy per Si atom -12388.887130 kJ/mol
# Density = 1.672700 g / cm^3
# Si number density = 16.765162 Si / 1000 Ang^3
#
#
#
# Elastic Constant Matrix: (Units=GPa)
#
#
# Indices 1 2 3 4 5 6 
#
# 1 118.2271 6.7215 33.1547 0.0000 0.0000 0.0000
# 2 6.7215 47.1916 10.3758 0.0000 0.0000 0.0000
# 3 33.1547 10.3758 47.8515 0.0000 0.0000 0.0000
# 4 0.0000 0.0000 0.0000 19.0984 0.0000 0.0000
# 5 0.0000 0.0000 0.0000 0.0000 20.5388 0.0000
# 6 0.0000 0.0000 0.0000 0.0000 0.0000 13.8889
#
#
#
# Elastic Compliance Matrix: (Units=1/GPa)
#
#
# Indices 1 2 3 4 5 6 
#
# 1 0.010499 0.000109 -0.007298 0.000000 0.000000 0.000000
# 2 0.000109 0.022252 -0.004901 0.000000 0.000000 0.000000
# 3 -0.007298 -0.004901 0.027017 0.000000 0.000000 0.000000
# 4 0.000000 0.000000 0.000000 0.052360 0.000000 0.000000
# 5 0.000000 0.000000 0.000000 0.000000 0.048688 0.000000
# 6 0.000000 0.000000 0.000000 0.000000 0.000000 0.072000
#
#
# Mechanical properties :
#
#
# Convention : Reuss Voigt Hill
#
# Bulk Modulus (GPa) = 28.09839 34.86379 31.48109
# Shear Modulus (GPa) = 18.59718 21.57311 20.08514
#
# Velocity S-wave (km/s) = 3.33419 3.59107 3.46501
# Velocity P-wave (km/s) = 5.62306 6.16724 5.90143
#
# Compressibility (1/GPa) = 0.03558923
#
# Stress axis : x y z
#
# Youngs Moduli (GPa) = 95.25046 44.93952 37.01364
#
# Poissons Ratio (x) = -0.00491 0.27012
# Poissons Ratio (y) = -0.01040 0.18139
# Poissons Ratio (z) = 0.69512 0.22023
#
# Static dielectric constant tensor:
#      x y z
#    x 3.429860 0.000000 0.000000 
#    y 0.000000 3.196670 0.000000 
#    z 0.000000 0.000000 2.842770 
# 
# 
# High freq. dielectric constant tensor:
#      x y z
#    x 1.652120 0.000000 0.000000 
#    y 0.000000 1.648330 0.000000 
#    z 0.000000 0.000000 1.581690 
# 
# From -- ./inp_files/35600.got.cif
#   From: 2010.03.12/outbox.cif.g09.slc.cpg/sg74_18_cif.got.tgz:35600.got - 2010.04.16 15:46:19.
