data_PCOD8297393
_publ_section_title
;
Structure prediction by ZEFSAII (Michael W. Deem and Ramdas Pophale) SiO2 
 PCOD8297393
Probable space group: I M M A
;
_chemical_formula_sum "Si O2"
_cell_formula_units_Z 72
_cell_length_a 21.005118
_cell_length_b 7.710945
_cell_length_c 36.465630
_cell_angle_alpha 90.000000
_cell_angle_beta 90.000000
_cell_angle_gamma 90.000000
_cell_volume 5906.312916
_symmetry_space_group_name_H-M "I M M A"
_symmetry_group_IT_number 74
_symmetry_cell_setting 'orthorhombic'
loop_
_space_group_symop_operation_xyz
x,y,z
-x,1/2-y,z
x,-y,-z
-x,1/2+y,-z
-x,-y,-z
x,1/2+y,-z
-x,y,z
x,1/2-y,z
1/2+x,1/2+y,1/2+z
1/2-x,-y,1/2+z
1/2+x,1/2-y,1/2-z
1/2-x,y,1/2-z
1/2-x,1/2-y,1/2-z
1/2+x,y,1/2-z
1/2-x,1/2+y,1/2+z
1/2+x,-y,1/2+z
loop_
_atom_site_type_symbol
_atom_site_label
_atom_site_fract_x
_atom_site_fract_y
_atom_site_fract_z
Si Si1 0.075670 0.943930 0.460392
Si Si2 0.848542 0.750000 0.665834
Si Si3 0.574485 0.250000 0.241209
Si Si4 0.849605 0.442763 0.766774
Si Si5 0.575662 0.250000 0.091657
Si Si6 0.272906 0.442774 0.808304
O O1 0.099751 0.750000 0.450529
O O2 0.000000 0.948363 0.462097
O O3 0.103047 0.000000 0.500000
O O4 0.099772 0.078989 0.429819
O O5 0.891469 0.750000 0.702024
O O6 0.894893 0.750000 0.631626
O O7 0.803001 0.581493 0.663896
O O8 0.500000 0.250000 0.234280
O O9 0.593601 0.418486 0.265101
O O10 0.878658 0.250000 0.772130
O O11 0.801163 0.486851 0.800079
O O12 0.810442 0.451094 0.729510
O O13 0.500000 0.250000 0.095737
O O14 0.278883 0.250000 0.825536
#
# Coordination Sequence:
#
# PCOD8297393 Si02
#       6
#    16   8   8  16   8  16
#     4   9  15  25  40  52  60  76 106 141 169 195
#     4  10  18  26  35  49  71  93 108 132 176 223
#     4  10  18  25  34  49  71  95 113 132 169 219
#     4   8  14  25  39  52  62  80 114 147 169 193
#     4  10  19  27  35  50  71  90 109 134 171 220
#     4   8  14  25  40  52  62  80 111 146 172 197
#
# _framework density 12.190346
#
# number of rings (size 3 to 8) (size 9 to 14) (size 15 to 20)
#    0.000    3.111    1.111    2.333    0.000    4.000 
#    0.000    0.000    0.000    4.000    0.000    0.000 
#    0.000    0.000    0.000    0.000    0.000    0.000 
#
# Total GULP energy -446127.769186 kJ/mol
# GULP energy per Si atom -12392.438033 kJ/mol
# Density = 1.216260 g / cm^3
# Si number density = 12.190346 Si / 1000 Ang^3
#
#
#
# Elastic Constant Matrix: (Units=GPa)
#
#
# Indices 1 2 3 4 5 6 
#
# 1 36.8233 35.5271 20.8505 0.0000 0.0000 0.0000
# 2 35.5271 117.4826 35.7684 0.0000 0.0000 0.0000
# 3 20.8505 35.7684 39.6174 0.0000 0.0000 0.0000
# 4 0.0000 0.0000 0.0000 12.7719 0.0000 0.0000
# 5 0.0000 0.0000 0.0000 0.0000 8.7877 0.0000
# 6 0.0000 0.0000 0.0000 0.0000 0.0000 9.5961
#
#
#
# Elastic Compliance Matrix: (Units=1/GPa)
#
#
# Indices 1 2 3 4 5 6 
#
# 1 0.044297 -0.008685 -0.015472 0.000000 0.000000 0.000000
# 2 -0.008685 0.013441 -0.007565 0.000000 0.000000 0.000000
# 3 -0.015472 -0.007565 0.040214 0.000000 0.000000 0.000000
# 4 0.000000 0.000000 0.000000 0.078297 0.000000 0.000000
# 5 0.000000 0.000000 0.000000 0.000000 0.113796 0.000000
# 6 0.000000 0.000000 0.000000 0.000000 0.000000 0.104209
#
#
# Mechanical properties :
#
#
# Convention : Reuss Voigt Hill
#
# Bulk Modulus (GPa) = 28.97810 42.02392 35.50101
# Shear Modulus (GPa) = 10.65644 13.01629 11.83637
#
# Velocity S-wave (km/s) = 2.95985 3.27120 3.11941
# Velocity P-wave (km/s) = 5.95851 6.98681 6.49305
#
# Compressibility (1/GPa) = 0.03450882
#
# Stress axis : x y z
#
# Youngs Moduli (GPa) = 22.57508 74.39755 24.86698
#
# Poissons Ratio (x) = 0.64613 0.38474
# Poissons Ratio (y) = 0.19606 0.18811
# Poissons Ratio (z) = 0.34928 0.56279
#
# Static dielectric constant tensor:
#      x y z
#    x 2.245070 0.000000 0.000000 
#    y 0.000000 2.940000 0.000000 
#    z 0.000000 0.000000 2.224570 
# 
# 
# High freq. dielectric constant tensor:
#      x y z
#    x 1.418730 0.000000 0.000000 
#    y 0.000000 1.486810 0.000000 
#    z 0.000000 0.000000 1.419420 
# 
# From -- ./inp_files/67479.got.cif
#   From: 2010.03.12/outbox.cif.g09.slc.cpg/sg74_34_cif.got.tgz:67479.got - 2010.04.16 15:46:19.
