data_PCOD8297501
_publ_section_title
;
Structure prediction by ZEFSAII (Michael W. Deem and Ramdas Pophale) SiO2 
 PCOD8297501
Probable space group: I M M A
;
_chemical_formula_sum "Si O2"
_cell_formula_units_Z 96
_cell_length_a 8.970745
_cell_length_b 28.717949
_cell_length_c 25.770291
_cell_angle_alpha 90.000000
_cell_angle_beta 90.000000
_cell_angle_gamma 90.000000
_cell_volume 6638.978379
_symmetry_space_group_name_H-M "I M M A"
_symmetry_group_IT_number 74
_symmetry_cell_setting 'orthorhombic'
loop_
_space_group_symop_operation_xyz
x,y,z
-x,1/2-y,z
x,-y,-z
-x,1/2+y,-z
-x,-y,-z
x,1/2+y,-z
-x,y,z
x,1/2-y,z
1/2+x,1/2+y,1/2+z
1/2-x,-y,1/2+z
1/2+x,1/2-y,1/2-z
1/2-x,y,1/2-z
1/2-x,1/2-y,1/2-z
1/2+x,y,1/2-z
1/2-x,1/2+y,1/2+z
1/2+x,-y,1/2+z
loop_
_atom_site_type_symbol
_atom_site_label
_atom_site_fract_x
_atom_site_fract_y
_atom_site_fract_z
Si Si1 0.173801 0.802339 0.032258
Si Si2 0.823713 0.889237 0.497657
Si Si3 0.327729 0.696991 0.142312
Si Si4 0.673622 0.115459 0.698126
Si Si5 0.834836 0.976549 0.556005
Si Si6 0.828006 0.059166 0.904051
O O1 0.203042 0.750000 0.011635
O O2 0.247778 0.838961 0.992223
O O3 0.247037 0.810253 0.087817
O O4 0.000000 0.812929 0.037944
O O5 0.780825 0.923297 0.545851
O O6 0.766273 0.909310 0.443067
O O7 0.000000 0.883749 0.493601
O O8 0.500000 0.683142 0.135543
O O9 0.310430 0.750000 0.161563
O O10 0.250164 0.664507 0.184586
O O11 0.500000 0.124544 0.707660
O O12 0.750000 0.095598 0.750000
O O13 0.700598 0.077101 0.653833
O O14 0.000000 0.977228 0.581005
O O15 0.840506 0.000000 0.500000
O O16 0.723488 0.005008 0.593241
O O17 0.000000 0.062547 0.920084
#
# Coordination Sequence:
#
# PCOD8297501 Si02
#       6
#    16  16  16  16  16  16
#     4  10  19  29  42  61  84 109 137 169 205 244
#     4  10  18  28  44  63  83 107 134 163 199 243
#     4  10  20  33  48  62  76 100 133 170 215 258
#     4  11  23  35  47  62  79 103 135 171 213 255
#     4   8  16  28  42  62  83 104 129 158 197 243
#     4  10  19  30  44  62  81 102 130 167 207 246
#
# _framework density 14.460056
#
# number of rings (size 3 to 8) (size 9 to 14) (size 15 to 20)
#    0.000    2.167    1.667    3.500    0.000    8.000 
#    0.000    0.000    0.000    0.000    0.000    0.000 
#    0.000    0.000    0.000    0.000    0.000    0.833 
#
# Total GULP energy -595096.189198 kJ/mol
# GULP energy per Si atom -12397.837275 kJ/mol
# Density = 1.442714 g / cm^3
# Si number density = 14.460056 Si / 1000 Ang^3
#
#
#
# Elastic Constant Matrix: (Units=GPa)
#
#
# Indices 1 2 3 4 5 6 
#
# 1 100.7307 60.4132 33.7442 0.0000 0.0000 0.0000
# 2 60.4132 104.3110 42.5149 0.0000 0.0000 0.0000
# 3 33.7442 42.5149 35.9253 0.0000 0.0000 0.0000
# 4 0.0000 0.0000 0.0000 14.7714 0.0000 0.0000
# 5 0.0000 0.0000 0.0000 0.0000 18.8969 0.0000
# 6 0.0000 0.0000 0.0000 0.0000 0.0000 27.4126
#
#
#
# Elastic Compliance Matrix: (Units=1/GPa)
#
#
# Indices 1 2 3 4 5 6 
#
# 1 0.016322 -0.006190 -0.008005 0.000000 0.000000 0.000000
# 2 -0.006190 0.020867 -0.018880 0.000000 0.000000 0.000000
# 3 -0.008005 -0.018880 0.057698 0.000000 0.000000 0.000000
# 4 0.000000 0.000000 0.000000 0.067698 0.000000 0.000000
# 5 0.000000 0.000000 0.000000 0.000000 0.052919 0.000000
# 6 0.000000 0.000000 0.000000 0.000000 0.000000 0.036480
#
#
# Mechanical properties :
#
#
# Convention : Reuss Voigt Hill
#
# Bulk Modulus (GPa) = 34.80000 57.14573 45.97287
# Shear Modulus (GPa) = 15.25727 19.16917 17.21322
#
# Velocity S-wave (km/s) = 3.25180 3.64492 3.45396
# Velocity P-wave (km/s) = 6.18203 7.57096 6.91147
#
# Compressibility (1/GPa) = 0.02873563
#
# Stress axis : x y z
#
# Youngs Moduli (GPa) = 61.26797 47.92257 17.33167
#
# Poissons Ratio (x) = 0.29665 0.13874
# Poissons Ratio (y) = 0.37926 0.32722
# Poissons Ratio (z) = 0.49046 0.90478
#
# Static dielectric constant tensor:
#      x y z
#    x 2.997500 0.000000 0.000000 
#    y 0.000000 3.248330 0.000000 
#    z 0.000000 0.000000 2.481790 
# 
# 
# High freq. dielectric constant tensor:
#      x y z
#    x 1.573130 0.000000 0.000000 
#    y 0.000000 1.554520 0.000000 
#    z 0.000000 0.000000 1.490370 
# 
# From -- ./inp_files/64925.got.cif
#   From: 2010.03.12/outbox.cif.g09.slc.cpg/sg74_33_cif.got.tgz:64925.got - 2010.04.16 15:46:19.
