data_PCOD8297737
_publ_section_title
;
Structure prediction by ZEFSAII (Michael W. Deem and Ramdas Pophale) SiO2 
 PCOD8297737
Probable space group: I M M A
;
_chemical_formula_sum "Si O2"
_cell_formula_units_Z 96
_cell_length_a 20.646172
_cell_length_b 18.075571
_cell_length_c 15.279957
_cell_angle_alpha 90.000000
_cell_angle_beta 90.000000
_cell_angle_gamma 90.000000
_cell_volume 5702.347748
_symmetry_space_group_name_H-M "I M M A"
_symmetry_group_IT_number 74
_symmetry_cell_setting 'orthorhombic'
loop_
_space_group_symop_operation_xyz
x,y,z
-x,1/2-y,z
x,-y,-z
-x,1/2+y,-z
-x,-y,-z
x,1/2+y,-z
-x,y,z
x,1/2-y,z
1/2+x,1/2+y,1/2+z
1/2-x,-y,1/2+z
1/2+x,1/2-y,1/2-z
1/2-x,y,1/2-z
1/2-x,1/2-y,1/2-z
1/2+x,y,1/2-z
1/2-x,1/2+y,1/2+z
1/2+x,-y,1/2+z
loop_
_atom_site_type_symbol
_atom_site_label
_atom_site_fract_x
_atom_site_fract_y
_atom_site_fract_z
Si Si1 0.296584 0.452210 0.830411
Si Si2 0.308523 0.454341 0.419608
Si Si3 0.214921 0.666496 0.609438
Si Si4 0.000000 0.337910 0.509655
Si Si5 0.500000 0.160177 0.189996
Si Si6 0.135652 0.333391 0.560803
Si Si7 0.131091 0.419490 0.259357
O O1 0.250000 0.432672 0.750000
O O2 0.253696 0.495882 0.899246
O O3 0.319240 0.376557 0.872859
O O4 0.360566 0.501021 0.807302
O O5 0.342408 0.500000 0.500000
O O6 0.276924 0.373448 0.435769
O O7 0.359644 0.440092 0.342603
O O8 0.236134 0.750000 0.629579
O O9 0.156542 0.663182 0.540392
O O10 0.189520 0.631096 0.701219
O O11 0.000000 0.365147 0.409986
O O12 0.936980 0.366952 0.561164
O O13 0.000000 0.250000 0.506771
O O14 0.500000 0.250000 0.203973
O O15 0.563003 0.122388 0.233170
O O16 0.136834 0.250000 0.595699
#
# Coordination Sequence:
#
# PCOD8297737 Si02
#       7
#    16  16  16   8   8  16  16
#     4   9  19  34  50  72 104 136 176 221 253 306
#     4  10  19  34  51  70 102 135 170 218 267 309
#     4  10  18  30  51  77 104 132 169 215 268 324
#     4   9  18  31  47  72 109 139 158 200 257 317
#     4  11  20  35  52  74 110 137 166 212 270 331
#     4  10  18  30  50  75 104 143 178 209 260 314
#     4  10  21  32  50  75 100 139 172 207 268 319
#
# _framework density 16.835170999999999
#
# number of rings (size 3 to 8) (size 9 to 14) (size 15 to 20)
#    0.000    2.167    3.333    2.000    0.000    3.000 
#    0.000    1.250    0.000    0.000    0.000    0.000 
#    0.000    5.333    0.000    0.000    0.000    0.000 
#
# Total GULP energy -594650.995453 kJ/mol
# GULP energy per Si atom -12388.562405 kJ/mol
# Density = 1.679685 g / cm^3
# Si number density = 16.835171 Si / 1000 Ang^3
#
#
#
# Elastic Constant Matrix: (Units=GPa)
#
#
# Indices 1 2 3 4 5 6 
#
# 1 71.2831 41.1990 24.6374 0.0000 0.0000 0.0000
# 2 41.1990 93.2919 52.5820 0.0000 0.0000 0.0000
# 3 24.6374 52.5820 80.1256 0.0000 0.0000 0.0000
# 4 0.0000 0.0000 0.0000 28.9871 0.0000 0.0000
# 5 0.0000 0.0000 0.0000 0.0000 16.8832 0.0000
# 6 0.0000 0.0000 0.0000 0.0000 0.0000 26.4374
#
#
#
# Elastic Compliance Matrix: (Units=1/GPa)
#
#
# Indices 1 2 3 4 5 6 
#
# 1 0.018850 -0.008027 -0.000529 0.000000 0.000000 0.000000
# 2 -0.008027 0.020429 -0.010938 0.000000 0.000000 0.000000
# 3 -0.000529 -0.010938 0.019821 0.000000 0.000000 0.000000
# 4 0.000000 0.000000 0.000000 0.034498 0.000000 0.000000
# 5 0.000000 0.000000 0.000000 0.000000 0.059231 0.000000
# 6 0.000000 0.000000 0.000000 0.000000 0.000000 0.037825
#
#
# Mechanical properties :
#
#
# Convention : Reuss Voigt Hill
#
# Bulk Modulus (GPa) = 49.71874 53.50414 51.61144
# Shear Modulus (GPa) = 21.15543 22.88034 22.01788
#
# Velocity S-wave (km/s) = 3.54873 3.69057 3.62034
# Velocity P-wave (km/s) = 6.81088 7.07181 6.94257
#
# Compressibility (1/GPa) = 0.02011314
#
# Stress axis : x y z
#
# Youngs Moduli (GPa) = 53.04928 48.95050 50.45102
#
# Poissons Ratio (x) = 0.39290 0.02668
# Poissons Ratio (y) = 0.42580 0.55185
# Poissons Ratio (z) = 0.02805 0.53543
#
# Static dielectric constant tensor:
#      x y z
#    x 3.005030 0.000000 0.000000 
#    y 0.000000 3.243550 0.000000 
#    z 0.000000 0.000000 3.036380 
# 
# 
# High freq. dielectric constant tensor:
#      x y z
#    x 1.626490 0.000000 0.000000 
#    y 0.000000 1.651290 0.000000 
#    z 0.000000 0.000000 1.632930 
# 
# From -- ./inp_files/44151.got.cif
#   From: 2010.03.12/outbox.cif.g09.slc.cpg/sg74_23_cif.got.tgz:44151.got - 2010.04.16 15:46:19.
