data_PCOD8297216
_publ_section_title
;
Structure prediction by ZEFSAII (Michael W. Deem and Ramdas Pophale) SiO2 
 PCOD8297216
Probable space group: I M M A
;
_chemical_formula_sum "Si O2"
_cell_formula_units_Z 88
_cell_length_a 8.568559
_cell_length_b 25.825781
_cell_length_c 27.936789
_cell_angle_alpha 90.000000
_cell_angle_beta 90.000000
_cell_angle_gamma 90.000000
_cell_volume 6182.124445
_symmetry_space_group_name_H-M "I M M A"
_symmetry_group_IT_number 74
_symmetry_cell_setting 'orthorhombic'
loop_
_space_group_symop_operation_xyz
x,y,z
-x,1/2-y,z
x,-y,-z
-x,1/2+y,-z
-x,-y,-z
x,1/2+y,-z
-x,y,z
x,1/2-y,z
1/2+x,1/2+y,1/2+z
1/2-x,-y,1/2+z
1/2+x,1/2-y,1/2-z
1/2-x,y,1/2-z
1/2-x,1/2-y,1/2-z
1/2+x,y,1/2-z
1/2-x,1/2+y,1/2+z
1/2+x,-y,1/2+z
loop_
_atom_site_type_symbol
_atom_site_label
_atom_site_fract_x
_atom_site_fract_y
_atom_site_fract_z
Si Si1 0.683280 0.147792 0.349433
Si Si2 0.684586 0.750000 0.803003
Si Si3 0.674145 0.442803 0.521971
Si Si4 0.321091 0.398276 0.063490
Si Si5 0.185284 0.544536 0.697769
Si Si6 0.183982 0.001410 0.109490
O O1 0.500000 0.147549 0.340158
O O2 0.756315 0.200253 0.330891
O O3 0.720287 0.143401 0.406362
O O4 0.759213 0.100440 0.320516
O O5 0.500000 0.750000 0.800854
O O6 0.750000 0.750000 0.750000
O O7 0.687982 0.500000 0.500000
O O8 0.500000 0.421465 0.516223
O O9 0.780340 0.401385 0.493334
O O10 0.717006 0.448723 0.578770
O O11 0.500000 0.382992 0.069414
O O12 0.286881 0.453914 0.085792
O O13 0.250000 0.533639 0.750000
O O14 0.257094 0.498522 0.664245
O O15 0.000000 0.542092 0.697560
O O16 0.000000 0.015629 0.106923
#
# Coordination Sequence:
#
# PCOD8297216 Si02
#       6
#    16   8  16  16  16  16
#     4  11  21  34  47  59  74  94 121 153 193 234
#     4  12  24  38  50  62  76  92 120 156 197 238
#     4   8  14  24  37  53  74  97 117 141 176 217
#     4  10  17  25  39  58  76  94 116 145 181 220
#     4  11  20  30  42  56  74  97 125 157 192 226
#     4   9  16  26  38  53  73  96 121 148 180 217
#
# _framework density 14.234588
#
# number of rings (size 3 to 8) (size 9 to 14) (size 15 to 20)
#    0.000    2.000    0.000   10.091    0.000    4.000 
#    0.000    0.000    0.000    0.000    0.000    0.000 
#    0.000    0.000    0.000    0.000    0.000    0.000 
#
# Total GULP energy -545178.657282 kJ/mol
# GULP energy per Si atom -12390.424029 kJ/mol
# Density = 1.420219 g / cm^3
# Si number density = 14.234588 Si / 1000 Ang^3
#
#
#
# Elastic Constant Matrix: (Units=GPa)
#
#
# Indices 1 2 3 4 5 6 
#
# 1 94.7045 18.7334 42.6715 0.0000 0.0000 0.0000
# 2 18.7334 30.7971 44.8185 0.0000 0.0000 0.0000
# 3 42.6715 44.8185 123.7622 0.0000 0.0000 0.0000
# 4 0.0000 0.0000 0.0000 22.3869 0.0000 0.0000
# 5 0.0000 0.0000 0.0000 0.0000 26.1444 0.0000
# 6 0.0000 0.0000 0.0000 0.0000 0.0000 15.4314
#
#
#
# Elastic Compliance Matrix: (Units=1/GPa)
#
#
# Indices 1 2 3 4 5 6 
#
# 1 0.012618 -0.002842 -0.003321 0.000000 0.000000 0.000000
# 2 -0.002842 0.069289 -0.024112 0.000000 0.000000 0.000000
# 3 -0.003321 -0.024112 0.017957 0.000000 0.000000 0.000000
# 4 0.000000 0.000000 0.000000 0.044669 0.000000 0.000000
# 5 0.000000 0.000000 0.000000 0.000000 0.038249 0.000000
# 6 0.000000 0.000000 0.000000 0.000000 0.000000 0.064803
#
#
# Mechanical properties :
#
#
# Convention : Reuss Voigt Hill
#
# Bulk Modulus (GPa) = 25.43655 51.30119 38.36887
# Shear Modulus (GPa) = 15.56468 22.32857 18.94663
#
# Velocity S-wave (km/s) = 3.31031 3.96487 3.65228
# Velocity P-wave (km/s) = 5.70256 7.55502 6.69319
#
# Compressibility (1/GPa) = 0.03931350
#
# Stress axis : x y z
#
# Youngs Moduli (GPa) = 79.25316 14.43227 55.68849
#
# Poissons Ratio (x) = 0.04101 0.18496
# Poissons Ratio (y) = 0.22521 1.34277
# Poissons Ratio (z) = 0.26323 0.34799
#
# Static dielectric constant tensor:
#      x y z
#    x 2.948330 0.000000 0.000000 
#    y 0.000000 2.520060 0.000000 
#    z 0.000000 0.000000 3.472230 
# 
# 
# High freq. dielectric constant tensor:
#      x y z
#    x 1.564170 0.000000 0.000000 
#    y 0.000000 1.470010 0.000000 
#    z 0.000000 0.000000 1.550450 
# 
# From -- ./inp_files/70727.got.cif
#   From: 2010.03.12/outbox.cif.g09.slc.cpg/sg74_36_cif.got.tgz:70727.got - 2010.04.16 15:46:19.
