data_PCOD8297071
_publ_section_title
;
Structure prediction by ZEFSAII (Michael W. Deem and Ramdas Pophale) SiO2 
 PCOD8297071
Probable space group: I B C A 
;
_chemical_formula_sum "Si O2"
_cell_formula_units_Z 120
_cell_length_a 22.567955
_cell_length_b 22.776610
_cell_length_c 9.246264
_cell_angle_alpha 90.000000
_cell_angle_beta 90.000000
_cell_angle_gamma 90.000000
_cell_volume 4752.778579
_symmetry_space_group_name_H-M "I B C A "
_symmetry_group_IT_number 73
_symmetry_cell_setting 'orthorhombic'
loop_
_space_group_symop_operation_xyz
x,y,z
-x,1/2-y,z
x,-y,1/2-z
1/2-x,y,-z
-x,-y,-z
x,1/2+y,-z
-x,y,1/2+z
1/2+x,-y,z
1/2+x,1/2+y,1/2+z
1/2-x,-y,1/2+z
1/2+x,1/2-y,-z
-x,1/2+y,1/2-z
1/2-x,1/2-y,1/2-z
1/2+x,y,1/2-z
1/2-x,1/2+y,z
x,1/2-y,1/2+z
loop_
_atom_site_type_symbol
_atom_site_label
_atom_site_fract_x
_atom_site_fract_y
_atom_site_fract_z
Si Si1 0.050230 0.395440 0.750973
Si Si2 0.750000 0.318028 0.500000
Si Si3 0.855516 0.252916 0.620359
Si Si4 0.065137 0.271485 0.862805
Si Si5 0.324890 0.417693 0.136607
Si Si6 0.668742 0.015498 0.594025
Si Si7 0.307502 0.370866 0.435050
Si Si8 0.543314 0.952032 0.945952
O O1 0.052216 0.326131 0.760538
O O2 0.103854 0.421687 0.847908
O O3 0.060134 0.410232 0.581909
O O4 0.987366 0.417093 0.813887
O O5 0.788235 0.278650 0.613705
O O6 0.698882 0.356327 0.573730
O O7 0.887883 0.268790 0.772052
O O8 0.899586 0.284488 0.508555
O O9 0.853491 0.181429 0.600227
O O10 0.000000 0.250000 0.904541
O O11 0.298066 0.415710 0.298874
O O12 0.305790 0.471960 0.032648
O O13 0.677193 0.084346 0.563921
O O14 0.598374 0.010429 0.611019
O O15 0.698117 0.000000 0.750000
O O16 0.250000 0.338501 0.500000
O O17 0.500000 0.000000 0.000000
#
# Coordination Sequence:
#
# PCOD8297071 Si02
#       8
#    16   8  16  16  16  16  16  16
#     4  12  26  48  72 114 152 203 255 321 397 466
#     4  12  28  48  86 110 154 204 270 328 394 480
#     4  12  26  52  76 116 151 208 265 320 395 475
#     4  12  29  47  77 110 161 203 258 326 394 473
#     4  12  27  51  76 110 157 201 258 333 398 466
#     4  12  28  48  74 115 151 201 262 316 398 481
#     4  12  28  48  78 107 152 204 254 326 393 474
#     4  12  25  45  77 106 151 201 255 318 390 480
#
# _framework density 25.248389
#
# number of rings (size 3 to 8) (size 9 to 14) (size 15 to 20)
#    0.000    0.000    6.000    2.000   10.267    1.067 
#    0.000    0.000    0.000    0.000    0.000    0.000 
#    0.000    0.000    0.000    0.000    0.000    0.000 
#
# Total GULP energy -743304.598741 kJ/mol
# GULP energy per Si atom -12388.409979 kJ/mol
# Density = 2.519092 g / cm^3
# Si number density = 25.248389 Si / 1000 Ang^3
#
#
#
# Elastic Constant Matrix: (Units=GPa)
#
#
# Indices 1 2 3 4 5 6 
#
# 1 95.8643 -0.2600 10.3961 0.0000 0.0000 0.0000
# 2 -0.2600 72.3309 0.4363 0.0000 0.0000 0.0000
# 3 10.3961 0.4363 96.7252 0.0000 0.0000 0.0000
# 4 0.0000 0.0000 0.0000 31.0164 0.0000 0.0000
# 5 0.0000 0.0000 0.0000 0.0000 40.1036 0.0000
# 6 0.0000 0.0000 0.0000 0.0000 0.0000 41.2930
#
#
#
# Elastic Compliance Matrix: (Units=1/GPa)
#
#
# Indices 1 2 3 4 5 6 
#
# 1 0.010555 0.000045 -0.001135 0.000000 0.000000 0.000000
# 2 0.000045 0.013826 -0.000067 0.000000 0.000000 0.000000
# 3 -0.001135 -0.000067 0.010461 0.000000 0.000000 0.000000
# 4 0.000000 0.000000 0.000000 0.032241 0.000000 0.000000
# 5 0.000000 0.000000 0.000000 0.000000 0.024935 0.000000
# 6 0.000000 0.000000 0.000000 0.000000 0.000000 0.024217
#
#
# Mechanical properties :
#
#
# Convention : Reuss Voigt Hill
#
# Bulk Modulus (GPa) = 30.74343 31.78503 31.26423
# Shear Modulus (GPa) = 38.64245 39.43913 39.04079
#
# Velocity S-wave (km/s) = 3.91639 3.95656 3.93653
# Velocity P-wave (km/s) = 5.71434 5.78695 5.75076
#
# Compressibility (1/GPa) = 0.03252728
#
# Stress axis : x y z
#
# Youngs Moduli (GPa) = 94.74562 72.32797 95.59485
#
# Poissons Ratio (x) = -0.00324 0.10846
# Poissons Ratio (y) = -0.00424 0.00642
# Poissons Ratio (z) = 0.10750 0.00486
#
# Static dielectric constant tensor:
#      x y z
#    x 3.517160 0.000000 0.000000 
#    y 0.000000 4.515840 0.000000 
#    z 0.000000 0.000000 4.497580 
# 
# 
# High freq. dielectric constant tensor:
#      x y z
#    x 2.027630 0.000000 0.000000 
#    y 0.000000 1.996930 0.000000 
#    z 0.000000 0.000000 2.006890 
# 
# From -- ./inp_files/7396.got.cif
#   From: 2010.03.12/outbox.cif.g09.slc.cpg/sg73_4_cif.got.tgz:7396.got - 2010.04.16 15:25:48.
