data_PCOD8297612
_publ_section_title
;
Structure prediction by ZEFSAII (Michael W. Deem and Ramdas Pophale) SiO2 
 PCOD8297612
Probable space group: I M M A
;
_chemical_formula_sum "Si O2"
_cell_formula_units_Z 104
_cell_length_a 20.546605
_cell_length_b 15.709824
_cell_length_c 16.887041
_cell_angle_alpha 90.000000
_cell_angle_beta 90.000000
_cell_angle_gamma 90.000000
_cell_volume 5450.859015
_symmetry_space_group_name_H-M "I M M A"
_symmetry_group_IT_number 74
_symmetry_cell_setting 'orthorhombic'
loop_
_space_group_symop_operation_xyz
x,y,z
-x,1/2-y,z
x,-y,-z
-x,1/2+y,-z
-x,-y,-z
x,1/2+y,-z
-x,y,z
x,1/2-y,z
1/2+x,1/2+y,1/2+z
1/2-x,-y,1/2+z
1/2+x,1/2-y,1/2-z
1/2-x,y,1/2-z
1/2-x,1/2-y,1/2-z
1/2+x,y,1/2-z
1/2-x,1/2+y,1/2+z
1/2+x,-y,1/2+z
loop_
_atom_site_type_symbol
_atom_site_label
_atom_site_fract_x
_atom_site_fract_y
_atom_site_fract_z
Si Si1 0.575014 0.342745 0.904508
Si Si2 0.286322 0.653383 0.493970
Si Si3 0.155219 0.909660 0.541584
Si Si4 0.797987 0.347151 0.816100
Si Si5 0.117582 0.500000 0.000000
Si Si6 0.926103 0.983448 0.673356
Si Si7 0.427583 0.451919 0.665338
O O1 0.500000 0.348695 0.926127
O O2 0.592574 0.250000 0.866901
O O3 0.594068 0.417964 0.844309
O O4 0.610827 0.349784 0.988262
O O5 0.311826 0.750000 0.508473
O O6 0.225362 0.634390 0.551099
O O7 0.263983 0.642415 0.402075
O O8 0.341404 0.585478 0.514392
O O9 0.163799 0.000000 0.500000
O O10 0.122369 0.919770 0.628035
O O11 0.808284 0.250000 0.792153
O O12 0.750000 0.390102 0.750000
O O13 0.870112 0.385219 0.821342
O O14 0.073713 0.508087 0.078001
O O15 0.919128 0.973508 0.768325
O O16 0.000000 0.965196 0.644746
O O17 0.500000 0.410283 0.677179
#
# Coordination Sequence:
#
# PCOD8297612 Si02
#       7
#    16  16  16  16   8  16  16
#     4   9  17  28  44  70 107 147 181 218 268 332
#     4  10  20  35  55  82 110 145 191 232 278 342
#     4  10  18  29  49  72 106 149 183 215 263 326
#     4   9  20  34  52  80 118 152 179 224 286 351
#     4  10  21  40  60  80 109 142 186 242 305 340
#     4   9  19  32  48  76 108 142 186 232 281 336
#     4  10  21  36  58  82 107 144 192 241 288 342
#
# _framework density 19.079561999999999
#
# number of rings (size 3 to 8) (size 9 to 14) (size 15 to 20)
#    0.000    2.462    0.769    1.154    4.308    2.769 
#    0.000    1.538    0.000    4.154    0.000    4.308 
#    0.000    0.000    0.000    0.000    0.000    0.000 
#
# Total GULP energy -644447.342026 kJ/mol
# GULP energy per Si atom -12393.218116 kJ/mol
# Density = 1.903614 g / cm^3
# Si number density = 19.079562 Si / 1000 Ang^3
#
#
#
# Elastic Constant Matrix: (Units=GPa)
#
#
# Indices 1 2 3 4 5 6 
#
# 1 98.9004 35.3388 53.5658 0.0000 0.0000 0.0000
# 2 35.3388 60.7026 15.2907 0.0000 0.0000 0.0000
# 3 53.5658 15.2907 101.7304 0.0000 0.0000 0.0000
# 4 0.0000 0.0000 0.0000 16.1448 0.0000 0.0000
# 5 0.0000 0.0000 0.0000 0.0000 29.7747 0.0000
# 6 0.0000 0.0000 0.0000 0.0000 0.0000 18.0696
#
#
#
# Elastic Compliance Matrix: (Units=1/GPa)
#
#
# Indices 1 2 3 4 5 6 
#
# 1 0.017257 -0.008063 -0.007875 0.000000 0.000000 0.000000
# 2 -0.008063 0.020889 0.001106 0.000000 0.000000 0.000000
# 3 -0.007875 0.001106 0.013810 0.000000 0.000000 0.000000
# 4 0.000000 0.000000 0.000000 0.061939 0.000000 0.000000
# 5 0.000000 0.000000 0.000000 0.000000 0.033586 0.000000
# 6 0.000000 0.000000 0.000000 0.000000 0.000000 0.055342
#
#
# Mechanical properties :
#
#
# Convention : Reuss Voigt Hill
#
# Bulk Modulus (GPa) = 44.85804 52.19155 48.52480
# Shear Modulus (GPa) = 20.84044 23.27370 22.05707
#
# Velocity S-wave (km/s) = 3.30857 3.49639 3.40377
# Velocity P-wave (km/s) = 6.17718 6.61163 6.39810
#
# Compressibility (1/GPa) = 0.02229255
#
# Stress axis : x y z
#
# Youngs Moduli (GPa) = 57.94634 47.87172 72.41019
#
# Poissons Ratio (x) = 0.38599 0.57022
# Poissons Ratio (y) = 0.46722 -0.08007
# Poissons Ratio (z) = 0.45632 -0.05293
#
# Static dielectric constant tensor:
#      x y z
#    x 3.474340 0.000000 0.000000 
#    y 0.000000 3.350270 0.000000 
#    z 0.000000 0.000000 3.578850 
# 
# 
# High freq. dielectric constant tensor:
#      x y z
#    x 1.746520 0.000000 0.000000 
#    y 0.000000 1.709740 0.000000 
#    z 0.000000 0.000000 1.731250 
# 
# From -- ./inp_files/35514.got.cif
#   From: 2010.03.12/outbox.cif.g09.slc.cpg/sg74_18_cif.got.tgz:35514.got - 2010.04.16 15:46:19.
