data_PCOD8297637
_publ_section_title
;
Structure prediction by ZEFSAII (Michael W. Deem and Ramdas Pophale) SiO2 
 PCOD8297637
Probable space group: I M M A
;
_chemical_formula_sum "Si O2"
_cell_formula_units_Z 96
_cell_length_a 14.147446
_cell_length_b 26.765533
_cell_length_c 17.082133
_cell_angle_alpha 90.000000
_cell_angle_beta 90.000000
_cell_angle_gamma 90.000000
_cell_volume 6468.387662
_symmetry_space_group_name_H-M "I M M A"
_symmetry_group_IT_number 74
_symmetry_cell_setting 'orthorhombic'
loop_
_space_group_symop_operation_xyz
x,y,z
-x,1/2-y,z
x,-y,-z
-x,1/2+y,-z
-x,-y,-z
x,1/2+y,-z
-x,y,z
x,1/2-y,z
1/2+x,1/2+y,1/2+z
1/2-x,-y,1/2+z
1/2+x,1/2-y,1/2-z
1/2-x,y,1/2-z
1/2-x,1/2-y,1/2-z
1/2+x,y,1/2-z
1/2-x,1/2+y,1/2+z
1/2+x,-y,1/2+z
loop_
_atom_site_type_symbol
_atom_site_label
_atom_site_fract_x
_atom_site_fract_y
_atom_site_fract_z
Si Si1 0.000000 0.018703 0.755043
Si Si2 0.799280 0.050311 0.453161
Si Si3 0.000000 0.113101 0.854588
Si Si4 0.500000 0.308310 0.770146
Si Si5 0.500000 0.528872 0.917485
Si Si6 0.805800 0.499006 0.824925
Si Si7 0.704473 0.897735 0.409572
Si Si8 0.699206 0.194446 0.832189
O O1 0.000000 0.077843 0.776106
O O2 0.913957 0.994817 0.802164
O O3 0.000000 0.007511 0.660822
O O4 0.718899 0.040370 0.389119
O O5 0.753861 0.093258 0.506724
O O6 0.903782 0.062956 0.416301
O O7 0.816376 0.000000 0.500000
O O8 0.090249 0.105454 0.911398
O O9 0.000000 0.167698 0.816326
O O10 0.500000 0.250000 0.751907
O O11 0.408444 0.323835 0.820455
O O12 0.500000 0.500000 0.000000
O O13 0.750000 0.514801 0.750000
O O14 0.771825 0.443427 0.851086
O O15 0.747097 0.845176 0.384718
O O16 0.702310 0.250000 0.870826
O O17 0.750000 0.196651 0.750000
#
# Coordination Sequence:
#
# PCOD8297637 Si02
#       8
#     8  16   8   8   8  16  16  16
#     4  10  20  29  46  64  85 120 157 185 222 265
#     4   9  19  30  44  62  89 116 146 187 227 266
#     4  10  20  29  46  64  85 120 159 189 212 267
#     4  10  20  30  43  65  90 119 156 190 219 252
#     4  10  18  30  41  63  87 115 146 186 228 264
#     4  10  18  30  45  63  87 117 153 187 218 265
#     4  10  20  31  44  67  89 119 151 186 228 266
#     4  10  19  31  46  65  90 119 153 189 221 258
#
# _framework density 14.841412
#
# number of rings (size 3 to 8) (size 9 to 14) (size 15 to 20)
#    0.000    2.167    3.333    0.500    2.333    1.333 
#    0.000    3.333    0.000    0.000    0.000    0.000 
#    0.000    0.667    0.000    0.333    0.000    0.000 
#
# Total GULP energy -594634.753300 kJ/mol
# GULP energy per Si atom -12388.224027 kJ/mol
# Density = 1.480763 g / cm^3
# Si number density = 14.841412 Si / 1000 Ang^3
#
#
#
# Elastic Constant Matrix: (Units=GPa)
#
#
# Indices 1 2 3 4 5 6 
#
# 1 128.2159 35.0750 44.5236 0.0000 0.0000 0.0000
# 2 35.0750 53.4537 32.0697 0.0001 0.0000 0.0000
# 3 44.5236 32.0697 68.9173 0.0003 -0.0001 0.0000
# 4 0.0000 0.0001 0.0003 16.2390 0.0000 0.0000
# 5 0.0000 0.0000 -0.0001 0.0000 24.9463 0.0000
# 6 0.0000 0.0000 0.0000 0.0000 0.0000 19.7590
#
#
#
# Elastic Compliance Matrix: (Units=1/GPa)
#
#
# Indices 1 2 3 4 5 6 
#
# 1 0.010627 -0.003960 -0.005023 0.000000 0.000000 0.000000
# 2 -0.003960 0.027429 -0.010206 0.000000 0.000000 0.000000
# 3 -0.005023 -0.010206 0.022504 0.000000 0.000000 0.000000
# 4 0.000000 0.000000 0.000000 0.061580 0.000000 0.000000
# 5 0.000000 0.000000 0.000000 0.000000 0.040086 0.000000
# 6 0.000000 0.000000 0.000000 0.000000 0.000000 0.050610
#
#
# Mechanical properties :
#
#
# Convention : Reuss Voigt Hill
#
# Bulk Modulus (GPa) = 45.07792 52.65815 48.86804
# Shear Modulus (GPa) = 19.33443 21.45012 20.39228
#
# Velocity S-wave (km/s) = 3.61326 3.80582 3.71079
# Velocity P-wave (km/s) = 6.91712 7.40742 7.16647
#
# Compressibility (1/GPa) = 0.02218381
#
# Stress axis : x y z
#
# Youngs Moduli (GPa) = 94.10247 36.45803 44.43637
#
# Poissons Ratio (x) = 0.14436 0.22319
# Poissons Ratio (y) = 0.37260 0.45350
# Poissons Ratio (z) = 0.47266 0.37207
#
# Static dielectric constant tensor:
#      x y z
#    x 3.565450 0.000000 0.000000 
#    y 0.000000 2.698950 0.000000 
#    z 0.000000 0.000000 2.020530 
# 
# 
# High freq. dielectric constant tensor:
#      x y z
#    x 1.597810 0.000000 0.000000 
#    y 0.000000 1.527530 0.000000 
#    z 0.000000 0.000000 1.540430 
# 
# From -- ./inp_files/32680.got.cif
#   From: 2010.03.12/outbox.cif.g09.slc.cpg/sg74_17_cif.got.tgz:32680.got - 2010.04.16 15:46:19.
