data_PCOD8297274
_publ_section_title
;
Structure prediction by ZEFSAII (Michael W. Deem and Ramdas Pophale) SiO2 
 PCOD8297274
Probable space group: I M M A
;
_chemical_formula_sum "Si O2"
_cell_formula_units_Z 64
_cell_length_a 8.429946
_cell_length_b 22.727073
_cell_length_c 20.217292
_cell_angle_alpha 90.000000
_cell_angle_beta 90.000000
_cell_angle_gamma 90.000000
_cell_volume 3873.390502
_symmetry_space_group_name_H-M "I M M A"
_symmetry_group_IT_number 74
_symmetry_cell_setting 'orthorhombic'
loop_
_space_group_symop_operation_xyz
x,y,z
-x,1/2-y,z
x,-y,-z
-x,1/2+y,-z
-x,-y,-z
x,1/2+y,-z
-x,y,z
x,1/2-y,z
1/2+x,1/2+y,1/2+z
1/2-x,-y,1/2+z
1/2+x,1/2-y,1/2-z
1/2-x,y,1/2-z
1/2-x,1/2-y,1/2-z
1/2+x,y,1/2-z
1/2-x,1/2+y,1/2+z
1/2+x,-y,1/2+z
loop_
_atom_site_type_symbol
_atom_site_label
_atom_site_fract_x
_atom_site_fract_y
_atom_site_fract_z
Si Si1 0.686926 0.183055 0.057674
Si Si2 0.184433 0.492095 0.398217
Si Si3 0.685123 0.417009 0.516381
Si Si4 0.313181 0.608865 0.678643
O O1 0.500000 0.178818 0.048953
O O2 0.746569 0.250000 0.058112
O O3 0.735889 0.153073 0.126302
O O4 0.769921 0.151369 0.994129
O O5 0.263935 0.556467 0.412017
O O6 0.212513 0.451440 0.461897
O O7 0.264330 0.459053 0.335992
O O8 0.000000 0.500460 0.383691
O O9 0.500000 0.427567 0.503845
O O10 0.500000 0.615686 0.675092
O O11 0.250000 0.627572 0.750000
#
# Coordination Sequence:
#
# PCOD8297274 Si02
#       4
#    16  16  16  16
#     4  10  20  33  47  64  88 119 154 189 224 262
#     4  10  17  28  45  64  86 111 142 180 224 267
#     4  10  17  27  44  65  87 111 142 180 224 268
#     4  11  21  33  47  64  88 118 153 188 224 264
#
# _framework density 16.522991999999999
#
# number of rings (size 3 to 8) (size 9 to 14) (size 15 to 20)
#    0.000    1.750    0.000   12.000    0.000    2.500 
#    0.000    0.000    0.000    0.000    0.000    0.000 
#    0.000    1.000    0.000    3.750    0.000    6.750 
#
# Total GULP energy -396637.947425 kJ/mol
# GULP energy per Si atom -12394.935857 kJ/mol
# Density = 1.648539 g / cm^3
# Si number density = 16.522992 Si / 1000 Ang^3
#
#
#
# Elastic Constant Matrix: (Units=GPa)
#
#
# Indices 1 2 3 4 5 6 
#
# 1 60.7264 22.9975 7.0671 0.0000 0.0000 0.0000
# 2 22.9975 116.0360 43.6479 0.0000 0.0000 0.0000
# 3 7.0671 43.6479 19.9817 0.0000 0.0000 0.0000
# 4 0.0000 0.0000 0.0000 20.0383 0.0000 0.0000
# 5 0.0000 0.0000 0.0000 0.0000 23.0671 0.0000
# 6 0.0000 0.0000 0.0000 0.0000 0.0000 19.6036
#
#
#
# Elastic Compliance Matrix: (Units=1/GPa)
#
#
# Indices 1 2 3 4 5 6 
#
# 1 0.018029 -0.006588 0.008013 0.000000 0.000000 0.000000
# 2 -0.006588 0.050736 -0.108497 0.000000 0.000000 0.000000
# 3 0.008013 -0.108497 0.284211 0.000000 0.000000 0.000000
# 4 0.000000 0.000000 0.000000 0.049904 0.000000 0.000000
# 5 0.000000 0.000000 0.000000 0.000000 0.043352 0.000000
# 6 0.000000 0.000000 0.000000 0.000000 0.000000 0.051011
#
#
# Mechanical properties :
#
#
# Convention : Reuss Voigt Hill
#
# Bulk Modulus (GPa) = 7.20283 38.24101 22.72192
# Shear Modulus (GPa) = 6.59923 20.74393 13.67158
#
# Velocity S-wave (km/s) = 2.00066 3.54709 2.87963
# Velocity P-wave (km/s) = 3.11538 6.32219 4.98376
#
# Compressibility (1/GPa) = 0.13883439
#
# Stress axis : x y z
#
# Youngs Moduli (GPa) = 55.46467 19.71005 3.51851
#
# Poissons Ratio (x) = 0.12984 -0.02819
# Poissons Ratio (y) = 0.36538 0.38175
# Poissons Ratio (z) = -0.44445 2.13847
#
# Static dielectric constant tensor:
#      x y z
#    x 3.186750 0.000000 0.000000 
#    y 0.000000 3.612320 0.000000 
#    z 0.000000 0.000000 3.099380 
# 
# 
# High freq. dielectric constant tensor:
#      x y z
#    x 1.660150 0.000000 0.000000 
#    y 0.000000 1.623800 0.000000 
#    z 0.000000 0.000000 1.590360 
# 
# From -- ./inp_files/39337.got.cif
#   From: 2010.03.12/outbox.cif.g09.slc.cpg/sg74_20_cif.got.tgz:39337.got - 2010.04.16 15:46:19.
