data_PCOD8297638
_publ_section_title
;
Structure prediction by ZEFSAII (Michael W. Deem and Ramdas Pophale) SiO2 
 PCOD8297638
Probable space group: I M M A
;
_chemical_formula_sum "Si O2"
_cell_formula_units_Z 112
_cell_length_a 9.021151
_cell_length_b 31.677007
_cell_length_c 32.402384
_cell_angle_alpha 90.000000
_cell_angle_beta 90.000000
_cell_angle_gamma 90.000000
_cell_volume 9259.404512
_symmetry_space_group_name_H-M "I M M A"
_symmetry_group_IT_number 74
_symmetry_cell_setting 'orthorhombic'
loop_
_space_group_symop_operation_xyz
x,y,z
-x,1/2-y,z
x,-y,-z
-x,1/2+y,-z
-x,-y,-z
x,1/2+y,-z
-x,y,z
x,1/2-y,z
1/2+x,1/2+y,1/2+z
1/2-x,-y,1/2+z
1/2+x,1/2-y,1/2-z
1/2-x,y,1/2-z
1/2-x,1/2-y,1/2-z
1/2+x,y,1/2-z
1/2-x,1/2+y,1/2+z
1/2+x,-y,1/2+z
loop_
_atom_site_type_symbol
_atom_site_label
_atom_site_fract_x
_atom_site_fract_y
_atom_site_fract_z
Si Si1 0.667286 0.971278 0.959546
Si Si2 0.826100 0.336573 0.707335
Si Si3 0.823247 0.250000 0.923088
Si Si4 0.832324 0.403358 0.994346
Si Si5 0.671436 0.608668 0.130712
Si Si6 0.666310 0.960942 0.413833
Si Si7 0.673425 0.333687 0.947544
Si Si8 0.324852 0.750000 0.165540
O O1 0.500000 0.959454 0.947176
O O2 0.758177 0.928314 0.967600
O O3 0.741603 0.996309 0.921545
O O4 0.668783 0.000000 0.000000
O O5 0.750000 0.348292 0.750000
O O6 0.777620 0.371626 0.674070
O O7 0.776090 0.290519 0.691873
O O8 0.000000 0.337167 0.714183
O O9 0.763402 0.290349 0.947707
O O10 0.762869 0.250000 0.876854
O O11 0.000000 0.250000 0.922575
O O12 0.000000 0.390711 0.006258
O O13 0.831784 0.433082 0.954711
O O14 0.735885 0.361809 0.985076
O O15 0.500000 0.596083 0.130532
O O16 0.762777 0.565878 0.123358
O O17 0.702945 0.643522 0.095923
O O18 0.500000 0.973530 0.401402
O O19 0.500000 0.325162 0.954604
O O20 0.500000 0.750000 0.155135
#
# Coordination Sequence:
#
# PCOD8297638 Si02
#       8
#    16  16   8  16  16  16  16   8
#     4   9  15  23  35  51  70  93 114 127 149 187
#     4  10  20  32  45  57  70  86 107 136 174 216
#     4  12  22  29  41  58  71  84 110 144 176 208
#     4   9  16  25  36  53  73  88 108 135 160 186
#     4   9  17  29  42  53  67  87 108 131 162 206
#     4   9  16  24  36  53  71  88 106 132 159 185
#     4  10  18  30  43  52  67  90 112 134 167 207
#     4  10  19  35  47  54  68  86 106 134 174 220
#
# _framework density 12.09581
#
# number of rings (size 3 to 8) (size 9 to 14) (size 15 to 20)
#    0.000    2.429    1.429    2.571    0.000    6.857 
#    0.000    0.000    0.000    0.000    0.000    0.000 
#    0.000    0.000    0.000    0.000    0.000    0.000 
#
# Total GULP energy -694397.427215 kJ/mol
# GULP energy per Si atom -12399.954057 kJ/mol
# Density = 1.206828 g / cm^3
# Si number density = 12.095810 Si / 1000 Ang^3
#
#
#
# Elastic Constant Matrix: (Units=GPa)
#
#
# Indices 1 2 3 4 5 6 
#
# 1 83.2638 42.5144 29.2254 0.0000 0.0000 0.0000
# 2 42.5144 68.2522 44.3567 0.0000 0.0000 0.0000
# 3 29.2254 44.3567 42.1243 0.0000 0.0000 0.0000
# 4 0.0000 0.0000 0.0000 12.9626 0.0000 0.0000
# 5 0.0000 0.0000 0.0000 0.0000 16.7312 0.0000
# 6 0.0000 0.0000 0.0000 0.0000 0.0000 20.7322
#
#
#
# Elastic Compliance Matrix: (Units=1/GPa)
#
#
# Indices 1 2 3 4 5 6 
#
# 1 0.017671 -0.009629 -0.002120 0.000000 0.000000 0.000000
# 2 -0.009629 0.051662 -0.047719 0.000000 0.000000 0.000000
# 3 -0.002120 -0.047719 0.075459 0.000000 0.000000 0.000000
# 4 0.000000 0.000000 0.000000 0.077145 0.000000 0.000000
# 5 0.000000 0.000000 0.000000 0.000000 0.059769 0.000000
# 6 0.000000 0.000000 0.000000 0.000000 0.000000 0.048234
#
#
# Mechanical properties :
#
#
# Convention : Reuss Voigt Hill
#
# Bulk Modulus (GPa) = 38.67904 47.31481 42.99693
# Shear Modulus (GPa) = 10.92907 15.25479 13.09193
#
# Velocity S-wave (km/s) = 3.00916 3.55514 3.29348
# Velocity P-wave (km/s) = 6.64229 7.48690 7.07720
#
# Compressibility (1/GPa) = 0.02585379
#
# Stress axis : x y z
#
# Youngs Moduli (GPa) = 56.59009 19.35657 13.25229
#
# Poissons Ratio (x) = 0.18639 0.02810
# Poissons Ratio (y) = 0.54492 0.63239
# Poissons Ratio (z) = 0.12000 0.92368
#
# Static dielectric constant tensor:
#      x y z
#    x 2.631460 0.000000 0.000000 
#    y 0.000000 2.503880 0.000000 
#    z 0.000000 0.000000 2.208050 
# 
# 
# High freq. dielectric constant tensor:
#      x y z
#    x 1.474890 0.000000 0.000000 
#    y 0.000000 1.442410 0.000000 
#    z 0.000000 0.000000 1.405620 
# 
# From -- ./inp_files/71144.got.cif
#   From: 2010.03.12/outbox.cif.g09.slc.cpg/sg74_36_cif.got.tgz:71144.got - 2010.04.16 15:46:19.
