data_PCOD8297665
_publ_section_title
;
Structure prediction by ZEFSAII (Michael W. Deem and Ramdas Pophale) SiO2 
 PCOD8297665
Probable space group: I M M A
;
_chemical_formula_sum "Si O2"
_cell_formula_units_Z 56
_cell_length_a 9.077049
_cell_length_b 24.100533
_cell_length_c 13.637831
_cell_angle_alpha 90.000000
_cell_angle_beta 90.000000
_cell_angle_gamma 90.000000
_cell_volume 2983.435353
_symmetry_space_group_name_H-M "I M M A"
_symmetry_group_IT_number 74
_symmetry_cell_setting 'orthorhombic'
loop_
_space_group_symop_operation_xyz
x,y,z
-x,1/2-y,z
x,-y,-z
-x,1/2+y,-z
-x,-y,-z
x,1/2+y,-z
-x,y,z
x,1/2-y,z
1/2+x,1/2+y,1/2+z
1/2-x,-y,1/2+z
1/2+x,1/2-y,1/2-z
1/2-x,y,1/2-z
1/2-x,1/2-y,1/2-z
1/2+x,y,1/2-z
1/2-x,1/2+y,1/2+z
1/2+x,-y,1/2+z
loop_
_atom_site_type_symbol
_atom_site_label
_atom_site_fract_x
_atom_site_fract_y
_atom_site_fract_z
Si Si1 0.175769 0.250000 0.645666
Si Si2 0.172504 0.026491 0.650749
Si Si3 0.327383 0.915376 0.951507
Si Si4 0.831641 0.310337 0.012132
O O1 0.250000 0.250000 0.750000
O O2 0.234760 0.195308 0.587841
O O3 0.000000 0.250000 0.653268
O O4 0.250000 0.046239 0.750000
O O5 0.219194 0.963476 0.624067
O O6 0.000000 0.029490 0.667803
O O7 0.218142 0.066551 0.561557
O O8 0.500000 0.903526 0.944439
O O9 0.238598 0.859521 0.922989
O O10 0.824358 0.250000 0.067665
O O11 0.000000 0.325059 0.985826
#
# Coordination Sequence:
#
# PCOD8297665 Si02
#       4
#     8  16  16  16
#     4  10  18  30  46  66  95 130 165 202 246 296
#     4   9  19  34  52  76 102 131 171 214 256 304
#     4   9  18  34  53  73 102 138 171 206 255 309
#     4   9  19  32  47  72 100 129 167 206 247 297
#
# _framework density 18.770306999999999
#
# number of rings (size 3 to 8) (size 9 to 14) (size 15 to 20)
#    0.857    2.000    0.000    3.429    0.000    3.429 
#    0.000    5.714    0.000    0.857    0.000    0.000 
#    0.000    0.000    0.000    0.000    0.000    0.000 
#
# Total GULP energy -346922.599661 kJ/mol
# GULP energy per Si atom -12390.092845 kJ/mol
# Density = 1.872758 g / cm^3
# Si number density = 18.770307 Si / 1000 Ang^3
#
#
#
# Elastic Constant Matrix: (Units=GPa)
#
#
# Indices 1 2 3 4 5 6 
#
# 1 85.0258 30.9957 4.0153 -0.0001 0.0000 0.0000
# 2 30.9957 86.7357 -10.0581 0.0001 0.0000 0.0001
# 3 4.0153 -10.0581 33.1478 -0.0003 0.0001 0.0001
# 4 -0.0001 0.0001 -0.0003 16.5233 0.0000 0.0000
# 5 0.0000 0.0000 0.0001 0.0000 24.7051 0.0000
# 6 0.0000 0.0001 0.0001 0.0000 0.0000 25.2024
#
#
#
# Elastic Compliance Matrix: (Units=1/GPa)
#
#
# Indices 1 2 3 4 5 6 
#
# 1 0.013862 -0.005336 -0.003298 0.000000 0.000000 0.000000
# 2 -0.005336 0.014004 0.004896 0.000000 0.000000 0.000000
# 3 -0.003298 0.004896 0.032053 0.000000 0.000000 0.000000
# 4 0.000000 0.000000 0.000000 0.060520 0.000000 0.000000
# 5 0.000000 0.000000 0.000000 0.000000 0.040477 0.000000
# 6 0.000000 0.000000 0.000000 0.000000 0.000000 0.039679
#
#
# Mechanical properties :
#
#
# Convention : Reuss Voigt Hill
#
# Bulk Modulus (GPa) = 19.06900 28.31278 23.69089
# Shear Modulus (GPa) = 22.16763 25.28326 23.72545
#
# Velocity S-wave (km/s) = 3.44029 3.67411 3.55912
# Velocity P-wave (km/s) = 5.09529 5.75459 5.43495
#
# Compressibility (1/GPa) = 0.05244113
#
# Stress axis : x y z
#
# Youngs Moduli (GPa) = 72.13857 71.40843 31.19839
#
# Poissons Ratio (x) = 0.38105 0.10290
# Poissons Ratio (y) = 0.38495 -0.15274
# Poissons Ratio (z) = 0.23794 -0.34959
#
# Static dielectric constant tensor:
#      x y z
#    x 3.301660 0.000000 0.000000 
#    y 0.000000 3.523250 0.000000 
#    z 0.000000 0.000000 3.105930 
# 
# 
# High freq. dielectric constant tensor:
#      x y z
#    x 1.730510 0.000000 0.000000 
#    y 0.000000 1.731940 0.000000 
#    z 0.000000 0.000000 1.684060 
# 
# From -- ./inp_files/28989.got.cif
#   From: 2010.03.12/outbox.cif.g09.slc.cpg/sg74_15_cif.got.tgz:28989.got - 2010.04.16 15:46:19.
