data_PCOD8297822
_publ_section_title
;
Structure prediction by ZEFSAII (Michael W. Deem and Ramdas Pophale) SiO2 
 PCOD8297822
Probable space group: I M M A
;
_chemical_formula_sum "Si O2"
_cell_formula_units_Z 96
_cell_length_a 25.513019
_cell_length_b 8.759418
_cell_length_c 23.660824
_cell_angle_alpha 90.000000
_cell_angle_beta 90.000000
_cell_angle_gamma 90.000000
_cell_volume 5287.701968
_symmetry_space_group_name_H-M "I M M A"
_symmetry_group_IT_number 74
_symmetry_cell_setting 'orthorhombic'
loop_
_space_group_symop_operation_xyz
x,y,z
-x,1/2-y,z
x,-y,-z
-x,1/2+y,-z
-x,-y,-z
x,1/2+y,-z
-x,y,z
x,1/2-y,z
1/2+x,1/2+y,1/2+z
1/2-x,-y,1/2+z
1/2+x,1/2-y,1/2-z
1/2-x,y,1/2-z
1/2-x,1/2-y,1/2-z
1/2+x,y,1/2-z
1/2-x,1/2+y,1/2+z
1/2+x,-y,1/2+z
loop_
_atom_site_type_symbol
_atom_site_label
_atom_site_fract_x
_atom_site_fract_y
_atom_site_fract_z
Si Si1 0.304754 0.430194 0.059711
Si Si2 0.500000 0.069721 0.061323
Si Si3 0.194478 0.068313 0.939483
Si Si4 0.097247 0.569018 0.133105
Si Si5 0.440264 0.068910 0.753040
Si Si6 0.902758 0.571044 0.634886
Si Si7 0.000000 0.068651 0.938767
O O1 0.297987 0.250000 0.052018
O O2 0.250383 0.503549 0.080179
O O3 0.347614 0.471777 0.106629
O O4 0.322793 0.500000 0.000000
O O5 0.500000 0.250000 0.055064
O O6 0.449027 0.010677 0.094565
O O7 0.500000 0.000000 0.000000
O O8 0.197134 0.250000 0.944880
O O9 0.152676 0.014084 0.892433
O O10 0.178049 0.000000 0.000000
O O11 0.094730 0.750000 0.134005
O O12 0.088316 0.506386 0.196522
O O13 0.050912 0.506115 0.093692
O O14 0.500000 0.005992 0.756068
O O15 0.441296 0.250000 0.753209
O O16 0.405921 0.011071 0.805131
O O17 0.908666 0.750000 0.644882
O O18 0.000000 0.250000 0.942371
O O19 0.000000 0.000000 0.000000
#
# Coordination Sequence:
#
# PCOD8297822 Si02
#       7
#    16   8  16  16  16  16   8
#     4  10  20  35  55  78 105 138 173 212 259 310
#     4  10  20  33  50  74 104 131 161 204 255 310
#     4  10  19  33  54  78 106 139 173 214 260 308
#     4   9  18  33  53  76 104 137 173 213 259 304
#     4  10  19  34  56  78 100 136 180 215 252 305
#     4  10  21  36  53  75 106 137 167 211 265 310
#     4  10  18  31  50  74 106 135 165 210 259 310
#
# _framework density 18.155334
#
# number of rings (size 3 to 8) (size 9 to 14) (size 15 to 20)
#    0.000    2.167    1.667    3.000    0.000    2.000 
#    0.000    4.167    0.000    5.000    0.000    0.000 
#    0.000    0.000    0.000    0.000    0.000    0.000 
#
# Total GULP energy -595233.643352 kJ/mol
# GULP energy per Si atom -12400.700903 kJ/mol
# Density = 1.811401 g / cm^3
# Si number density = 18.155334 Si / 1000 Ang^3
#
#
#
# Elastic Constant Matrix: (Units=GPa)
#
#
# Indices 1 2 3 4 5 6 
#
# 1 145.4245 40.5875 96.0902 0.0000 0.0000 0.0000
# 2 40.5875 45.6615 37.1299 0.0000 0.0000 0.0000
# 3 96.0902 37.1299 173.1112 0.0000 0.0000 0.0000
# 4 0.0000 0.0000 0.0000 29.7192 0.0000 0.0000
# 5 0.0000 0.0000 0.0000 0.0000 33.4926 0.0000
# 6 0.0000 0.0000 0.0000 0.0000 0.0000 23.2864
#
#
#
# Elastic Compliance Matrix: (Units=1/GPa)
#
#
# Indices 1 2 3 4 5 6 
#
# 1 0.012270 -0.006502 -0.005416 0.000000 0.000000 0.000000
# 2 -0.006502 0.029973 -0.002819 0.000000 0.000000 0.000000
# 3 -0.005416 -0.002819 0.009388 0.000000 0.000000 0.000000
# 4 0.000000 0.000000 0.000000 0.033648 0.000000 0.000000
# 5 0.000000 0.000000 0.000000 0.000000 0.029857 0.000000
# 6 0.000000 0.000000 0.000000 0.000000 0.000000 0.042944
#
#
# Mechanical properties :
#
#
# Convention : Reuss Voigt Hill
#
# Bulk Modulus (GPa) = 45.13729 79.09026 62.11377
# Shear Modulus (GPa) = 25.64891 29.99229 27.82060
#
# Velocity S-wave (km/s) = 3.76273 4.06887 3.91879
# Velocity P-wave (km/s) = 6.61765 8.10752 7.40017
#
# Compressibility (1/GPa) = 0.02215463
#
# Stress axis : x y z
#
# Youngs Moduli (GPa) = 81.50007 33.36371 106.52220
#
# Poissons Ratio (x) = 0.21694 0.57694
# Poissons Ratio (y) = 0.52994 0.30033
# Poissons Ratio (z) = 0.44141 0.09407
#
# Static dielectric constant tensor:
#      x y z
#    x 3.539550 0.000000 0.000000 
#    y 0.000000 3.184370 0.000000 
#    z 0.000000 0.000000 3.429700 
# 
# 
# High freq. dielectric constant tensor:
#      x y z
#    x 1.709110 0.000000 0.000000 
#    y 0.000000 1.687250 0.000000 
#    z 0.000000 0.000000 1.705890 
# 
# From -- ./inp_files/61974.got.cif
#   From: 2010.03.12/outbox.cif.g09.slc.cpg/sg74_31_cif.got.tgz:61974.got - 2010.04.16 15:46:19.
