data_PCOD8297679
_publ_section_title
;
Structure prediction by ZEFSAII (Michael W. Deem and Ramdas Pophale) SiO2 
 PCOD8297679
Probable space group: I M M A
;
_chemical_formula_sum "Si O2"
_cell_formula_units_Z 96
_cell_length_a 17.952190
_cell_length_b 18.501538
_cell_length_c 16.282632
_cell_angle_alpha 90.000000
_cell_angle_beta 90.000000
_cell_angle_gamma 90.000000
_cell_volume 5408.164283
_symmetry_space_group_name_H-M "I M M A"
_symmetry_group_IT_number 74
_symmetry_cell_setting 'orthorhombic'
loop_
_space_group_symop_operation_xyz
x,y,z
-x,1/2-y,z
x,-y,-z
-x,1/2+y,-z
-x,-y,-z
x,1/2+y,-z
-x,y,z
x,1/2-y,z
1/2+x,1/2+y,1/2+z
1/2-x,-y,1/2+z
1/2+x,1/2-y,1/2-z
1/2-x,y,1/2-z
1/2-x,1/2-y,1/2-z
1/2+x,y,1/2-z
1/2-x,1/2+y,1/2+z
1/2+x,-y,1/2+z
loop_
_atom_site_type_symbol
_atom_site_label
_atom_site_fract_x
_atom_site_fract_y
_atom_site_fract_z
Si Si1 0.272399 0.666228 0.997041
Si Si2 0.140315 0.084574 0.076484
Si Si3 0.705220 0.166486 0.671463
Si Si4 0.912463 0.829480 0.768938
Si Si5 0.418577 0.335339 0.089317
Si Si6 0.085980 0.573964 0.093751
O O1 0.256278 0.750000 0.972580
O O2 0.223468 0.611697 0.942601
O O3 0.358018 0.644245 0.979519
O O4 0.257946 0.654146 0.093041
O O5 0.115618 0.118749 0.160827
O O6 0.134621 0.998917 0.090126
O O7 0.088744 0.108136 0.998440
O O8 0.685168 0.250000 0.685138
O O9 0.750000 0.135797 0.750000
O O10 0.626152 0.125955 0.659510
O O11 0.876077 0.750000 0.780593
O O12 0.892066 0.863103 0.679489
O O13 0.000000 0.822568 0.775608
O O14 0.500000 0.367836 0.064911
O O15 0.426742 0.250000 0.097782
O O16 0.000000 0.561194 0.119599
#
# Coordination Sequence:
#
# PCOD8297679 Si02
#       6
#    16  16  16  16  16  16
#     4   9  17  30  50  74 100 134 171 206 248 297
#     4  10  18  30  47  71 103 134 165 199 244 299
#     4   9  19  37  56  73  96 124 160 213 265 306
#     4   9  16  26  42  66 100 136 164 195 233 277
#     4   8  15  28  44  66  99 134 167 202 237 277
#     4  10  20  34  52  73  99 129 161 203 252 305
#
# _framework density 17.75094
#
# number of rings (size 3 to 8) (size 9 to 14) (size 15 to 20)
#    0.000    2.833    0.000    3.500    0.000    1.667 
#    3.000    3.333    0.000    3.000    0.000    9.333 
#    0.000    0.000    0.000    0.000    0.000    0.000 
#
# Total GULP energy -594847.599716 kJ/mol
# GULP energy per Si atom -12392.658327 kJ/mol
# Density = 1.771054 g / cm^3
# Si number density = 17.750940 Si / 1000 Ang^3
#
#
#
# Elastic Constant Matrix: (Units=GPa)
#
#
# Indices 1 2 3 4 5 6 
#
# 1 102.2616 49.7275 54.2877 0.0000 0.0000 0.0000
# 2 49.7275 53.7517 33.5680 0.0000 0.0000 0.0000
# 3 54.2877 33.5680 86.9493 0.0000 0.0000 0.0000
# 4 0.0000 0.0000 0.0000 16.1849 0.0000 0.0000
# 5 0.0000 0.0000 0.0000 0.0000 24.4872 0.0000
# 6 0.0000 0.0000 0.0000 0.0000 0.0000 5.7322
#
#
#
# Elastic Compliance Matrix: (Units=1/GPa)
#
#
# Indices 1 2 3 4 5 6 
#
# 1 0.020800 -0.014669 -0.007323 0.000000 0.000000 0.000000
# 2 -0.014669 0.034860 -0.004299 0.000000 0.000000 0.000000
# 3 -0.007323 -0.004299 0.017733 0.000000 0.000000 0.000000
# 4 0.000000 0.000000 0.000000 0.061786 0.000000 0.000000
# 5 0.000000 0.000000 0.000000 0.000000 0.040838 0.000000
# 6 0.000000 0.000000 0.000000 0.000000 0.000000 0.174453
#
#
# Mechanical properties :
#
#
# Convention : Reuss Voigt Hill
#
# Bulk Modulus (GPa) = 48.05550 57.56989 52.81270
# Shear Modulus (GPa) = 12.19542 16.30616 14.25079
#
# Velocity S-wave (km/s) = 2.62397 3.03414 2.83648
# Velocity P-wave (km/s) = 6.02587 6.69157 6.36743
#
# Compressibility (1/GPa) = 0.02080927
#
# Stress axis : x y z
#
# Youngs Moduli (GPa) = 48.07692 28.68611 56.39142
#
# Poissons Ratio (x) = 0.42081 0.41298
# Poissons Ratio (y) = 0.70526 0.24244
# Poissons Ratio (z) = 0.35209 0.12333
#
# Static dielectric constant tensor:
#      x y z
#    x 3.308400 0.000000 0.000000 
#    y 0.000000 2.914250 0.000000 
#    z 0.000000 0.000000 3.745700 
# 
# 
# High freq. dielectric constant tensor:
#      x y z
#    x 1.677360 0.000000 0.000000 
#    y 0.000000 1.660970 0.000000 
#    z 0.000000 0.000000 1.682300 
# 
# From -- ./inp_files/44133.got.cif
#   From: 2010.03.12/outbox.cif.g09.slc.cpg/sg74_23_cif.got.tgz:44133.got - 2010.04.16 15:46:19.
