data_PCOD8297080
_publ_section_title
;
Structure prediction by ZEFSAII (Michael W. Deem and Ramdas Pophale) SiO2 
 PCOD8297080
Probable space group: I B C A 
;
_chemical_formula_sum "Si O2"
_cell_formula_units_Z 24
_cell_length_a 10.038005
_cell_length_b 10.037989
_cell_length_c 10.038043
_cell_angle_alpha 90.000000
_cell_angle_beta 90.000000
_cell_angle_gamma 90.000000
_cell_volume 1011.447103
_symmetry_space_group_name_H-M "I B C A "
_symmetry_group_IT_number 73
_symmetry_cell_setting 'orthorhombic'
loop_
_space_group_symop_operation_xyz
x,y,z
-x,1/2-y,z
x,-y,1/2-z
1/2-x,y,-z
-x,-y,-z
x,1/2+y,-z
-x,y,1/2+z
1/2+x,-y,z
1/2+x,1/2+y,1/2+z
1/2-x,-y,1/2+z
1/2+x,1/2-y,-z
-x,1/2+y,1/2-z
1/2-x,1/2-y,1/2-z
1/2+x,y,1/2-z
1/2-x,1/2+y,z
x,1/2-y,1/2+z
loop_
_atom_site_type_symbol
_atom_site_label
_atom_site_fract_x
_atom_site_fract_y
_atom_site_fract_z
Si Si1 0.250000 0.375000 0.000000
Si Si2 0.500000 0.750000 0.875000
Si Si3 0.875000 0.500000 0.750000
O O1 0.375000 0.280851 0.030851
O O2 0.219149 0.469148 0.125000
O O3 0.469149 0.625000 0.780852
#
# Coordination Sequence:
#
# PCOD8297080 Si02
#       3
#     8   8   8
#     4  12  26  48  76 110 146 192 244 302 362 432
#     4  12  26  48  76 110 146 192 244 302 362 432
#     4  12  26  48  76 110 146 192 244 302 362 432
#
# _framework density 23.728379
#
# number of rings (size 3 to 8) (size 9 to 14) (size 15 to 20)
#    0.000    0.000    0.000   10.000    0.000    0.000 
#    0.000    0.000    0.000    0.000    0.000    0.000 
#    0.000    0.000    0.000    0.000    0.000    0.000 
#
# Total GULP energy -148914.094122 kJ/mol
# GULP energy per Si atom -12409.507844 kJ/mol
# Density = 2.367437 g / cm^3
# Si number density = 23.728379 Si / 1000 Ang^3
#
#
#
# Elastic Constant Matrix: (Units=GPa)
#
#
# Indices 1 2 3 4 5 6 
#
# 1 180.2692 86.0802 86.0793 0.0000 0.0000 0.0000
# 2 86.0802 180.2675 86.0789 0.0000 0.0000 0.0000
# 3 86.0793 86.0789 180.2706 0.0000 0.0000 0.0000
# 4 0.0000 0.0000 0.0000 34.2669 0.0000 0.0000
# 5 0.0000 0.0000 0.0000 0.0000 34.2672 0.0000
# 6 0.0000 0.0000 0.0000 0.0000 0.0000 34.2685
#
#
#
# Elastic Compliance Matrix: (Units=1/GPa)
#
#
# Indices 1 2 3 4 5 6 
#
# 1 0.008024 -0.002593 -0.002593 0.000000 0.000000 0.000000
# 2 -0.002593 0.008024 -0.002593 0.000000 0.000000 0.000000
# 3 -0.002593 -0.002593 0.008024 0.000000 0.000000 0.000000
# 4 0.000000 0.000000 0.000000 0.029183 0.000000 0.000000
# 5 0.000000 0.000000 0.000000 0.000000 0.029182 0.000000
# 6 0.000000 0.000000 0.000000 0.000000 0.000000 0.029181
#
#
# Mechanical properties :
#
#
# Convention : Reuss Voigt Hill
#
# Bulk Modulus (GPa) = 117.47600 117.47600 117.47600
# Shear Modulus (GPa) = 38.45742 39.39846 38.92794
#
# Velocity S-wave (km/s) = 4.03020 4.07921 4.05478
# Velocity P-wave (km/s) = 8.44232 8.47365 8.45800
#
# Compressibility (1/GPa) = 0.00851238
#
# Stress axis : x y z
#
# Youngs Moduli (GPa) = 124.62984 124.62862 124.63212
#
# Poissons Ratio (x) = 0.32319 0.32318
# Poissons Ratio (y) = 0.32320 0.32318
# Poissons Ratio (z) = 0.32318 0.32317
#
# Static dielectric constant tensor:
#      x y z
#    x 4.308730 0.000000 0.000000 
#    y 0.000000 4.308730 0.000000 
#    z 0.000000 0.000000 4.308760 
# 
# 
# High freq. dielectric constant tensor:
#      x y z
#    x 1.952470 0.000000 0.000000 
#    y 0.000000 1.952470 0.000000 
#    z 0.000000 0.000000 1.952470 
# 
# From -- ./inp_files/3334.got.cif
#   From: 2010.03.12/outbox.cif.g09.slc.cpg/sg73_2_cif.got.tgz:3334.got - 2010.04.16 15:25:48.
