data_PCOD8297499
_publ_section_title
;
Structure prediction by ZEFSAII (Michael W. Deem and Ramdas Pophale) SiO2 
 PCOD8297499
Probable space group: I M M A
;
_chemical_formula_sum "Si O2"
_cell_formula_units_Z 80
_cell_length_a 16.366233
_cell_length_b 12.980407
_cell_length_c 23.863529
_cell_angle_alpha 90.000000
_cell_angle_beta 90.000000
_cell_angle_gamma 90.000000
_cell_volume 5069.576820
_symmetry_space_group_name_H-M "I M M A"
_symmetry_group_IT_number 74
_symmetry_cell_setting 'orthorhombic'
loop_
_space_group_symop_operation_xyz
x,y,z
-x,1/2-y,z
x,-y,-z
-x,1/2+y,-z
-x,-y,-z
x,1/2+y,-z
-x,y,z
x,1/2-y,z
1/2+x,1/2+y,1/2+z
1/2-x,-y,1/2+z
1/2+x,1/2-y,1/2-z
1/2-x,y,1/2-z
1/2-x,1/2-y,1/2-z
1/2+x,y,1/2-z
1/2-x,1/2+y,1/2+z
1/2+x,-y,1/2+z
loop_
_atom_site_type_symbol
_atom_site_label
_atom_site_fract_x
_atom_site_fract_y
_atom_site_fract_z
Si Si1 0.500000 0.750000 0.465173
Si Si2 0.591926 0.250000 0.427732
Si Si3 0.500000 0.083904 0.628759
Si Si4 0.705136 0.970373 0.190518
Si Si5 0.000000 0.250000 0.777565
Si Si6 0.352810 0.067507 0.359243
Si Si7 0.330167 0.750000 0.211251
Si Si8 0.094368 0.366428 0.260414
O O1 0.580984 0.750000 0.504809
O O2 0.500000 0.850816 0.427690
O O3 0.500000 0.250000 0.399550
O O4 0.643099 0.349725 0.409055
O O5 0.500000 0.148878 0.685077
O O6 0.419577 0.017290 0.628468
O O7 0.750000 0.962866 0.250000
O O8 0.672584 0.855513 0.174483
O O9 0.765483 0.009946 0.141713
O O10 0.631868 0.052754 0.195495
O O11 0.083503 0.250000 0.742965
O O12 0.364685 0.125102 0.300351
O O13 0.250000 0.750000 0.250000
O O14 0.108397 0.250000 0.282588
O O15 0.000000 0.393789 0.254125
#
# Coordination Sequence:
#
# PCOD8297499 Si02
#       8
#     4   8   8  16   4  16   8  16
#     4   9  24  34  46  72  94 124 158 218 242 283
#     4  10  19  34  47  67  93 114 161 202 249 289
#     4  11  19  32  47  69  90 124 174 189 248 294
#     4   9  20  29  43  64  92 122 163 207 235 271
#     4  11  20  28  54  64  88 146 176 192 238 287
#     4  11  19  29  49  65  88 129 162 202 235 293
#     4  10  19  33  40  65  97 122 175 219 228 274
#     4  10  18  28  43  67  95 123 163 205 238 275
#
# _framework density 15.78041
#
# number of rings (size 3 to 8) (size 9 to 14) (size 15 to 20)
#    0.300    1.600    3.000    3.600    2.800    3.600 
#    0.000    0.000    0.000    0.000    0.000    0.000 
#    0.000    0.000    0.000    5.400   10.000    0.400 
#
# Total GULP energy -495815.463206 kJ/mol
# GULP energy per Si atom -12395.386580 kJ/mol
# Density = 1.574449 g / cm^3
# Si number density = 15.780410 Si / 1000 Ang^3
#
#
#
# Elastic Constant Matrix: (Units=GPa)
#
#
# Indices 1 2 3 4 5 6 
#
# 1 77.5633 44.3844 27.0960 0.0000 0.0000 0.0000
# 2 44.3844 135.1851 30.3380 0.0000 0.0000 0.0000
# 3 27.0960 30.3380 41.8738 0.0000 0.0000 0.0000
# 4 0.0000 0.0000 0.0000 11.2907 0.0000 0.0000
# 5 0.0000 0.0000 0.0000 0.0000 16.3528 0.0000
# 6 0.0000 0.0000 0.0000 0.0000 0.0000 37.2309
#
#
#
# Elastic Compliance Matrix: (Units=1/GPa)
#
#
# Indices 1 2 3 4 5 6 
#
# 1 0.018309 -0.004003 -0.008947 0.000000 0.000000 0.000000
# 2 -0.004003 0.009709 -0.004444 0.000000 0.000000 0.000000
# 3 -0.008947 -0.004444 0.032890 0.000000 0.000000 0.000000
# 4 0.000000 0.000000 0.000000 0.088568 0.000000 0.000000
# 5 0.000000 0.000000 0.000000 0.000000 0.061151 0.000000
# 6 0.000000 0.000000 0.000000 0.000000 0.000000 0.026859
#
#
# Mechanical properties :
#
#
# Convention : Reuss Voigt Hill
#
# Bulk Modulus (GPa) = 38.28477 50.91766 44.60121
# Shear Modulus (GPa) = 17.79468 23.16180 20.47824
#
# Velocity S-wave (km/s) = 3.36168 3.83529 3.60627
# Velocity P-wave (km/s) = 6.27547 7.20757 6.75761
#
# Compressibility (1/GPa) = 0.02612005
#
# Stress axis : x y z
#
# Youngs Moduli (GPa) = 54.61734 102.99807 30.40407
#
# Poissons Ratio (x) = 0.41235 0.27203
# Poissons Ratio (y) = 0.21866 0.13510
# Poissons Ratio (z) = 0.48867 0.45769
#
# Static dielectric constant tensor:
#      x y z
#    x 3.024530 0.000000 0.000000 
#    y 0.000000 3.432440 0.000000 
#    z 0.000000 0.000000 2.526360 
# 
# 
# High freq. dielectric constant tensor:
#      x y z
#    x 1.597690 0.000000 0.000000 
#    y 0.000000 1.637270 0.000000 
#    z 0.000000 0.000000 1.534360 
# 
# From -- ./inp_files/67677.got.cif
#   From: 2010.03.12/outbox.cif.g09.slc.cpg/sg74_34_cif.got.tgz:67677.got - 2010.04.16 15:46:19.
