data_PCOD8297636
_publ_section_title
;
Structure prediction by ZEFSAII (Michael W. Deem and Ramdas Pophale) SiO2 
 PCOD8297636
Probable space group: I M M A
;
_chemical_formula_sum "Si O2"
_cell_formula_units_Z 80
_cell_length_a 28.738560
_cell_length_b 17.064393
_cell_length_c 8.579316
_cell_angle_alpha 90.000000
_cell_angle_beta 90.000000
_cell_angle_gamma 90.000000
_cell_volume 4207.348747
_symmetry_space_group_name_H-M "I M M A"
_symmetry_group_IT_number 74
_symmetry_cell_setting 'orthorhombic'
loop_
_space_group_symop_operation_xyz
x,y,z
-x,1/2-y,z
x,-y,-z
-x,1/2+y,-z
-x,-y,-z
x,1/2+y,-z
-x,y,z
x,1/2-y,z
1/2+x,1/2+y,1/2+z
1/2-x,-y,1/2+z
1/2+x,1/2-y,1/2-z
1/2-x,y,1/2-z
1/2-x,1/2-y,1/2-z
1/2+x,y,1/2-z
1/2-x,1/2+y,1/2+z
1/2+x,-y,1/2+z
loop_
_atom_site_type_symbol
_atom_site_label
_atom_site_fract_x
_atom_site_fract_y
_atom_site_fract_z
Si Si1 0.879984 0.572326 0.896147
Si Si2 0.892144 0.160340 0.807534
Si Si3 0.554389 0.521519 0.175702
Si Si4 0.201752 0.898838 0.328970
Si Si5 0.701246 0.915198 0.819988
O O1 0.921817 0.541005 0.789705
O O2 0.840317 0.613591 0.791609
O O3 0.859370 0.500000 0.000000
O O4 0.899804 0.638793 0.010966
O O5 0.905455 0.250000 0.779152
O O6 0.926386 0.108815 0.701580
O O7 0.838619 0.144559 0.764203
O O8 0.500000 0.519166 0.209719
O O9 0.567096 0.500000 0.000000
O O10 0.250000 0.872066 0.250000
O O11 0.198415 0.875094 0.510621
O O12 0.195872 0.991589 0.322045
O O13 0.750000 0.888172 0.750000
#
# Coordination Sequence:
#
# PCOD8297636 Si02
#       5
#    16  16  16  16  16
#     4  10  19  34  55  81 111 144 187 228 273 332
#     4  11  23  37  56  84 119 152 183 227 282 335
#     4  10  21  40  65  87 108 141 187 234 279 333
#     4  10  19  32  54  81 113 149 189 231 279 326
#     4  10  18  29  55  84 108 142 194 242 272 315
#
# _framework density 19.01435
#
# number of rings (size 3 to 8) (size 9 to 14) (size 15 to 20)
#    0.000    1.800    4.000    2.400    2.800    4.400 
#    0.000    4.000    0.000    3.600    0.000    0.000 
#    0.000    0.000    0.000    0.000    0.000    0.000 
#
# Total GULP energy -496043.898749 kJ/mol
# GULP energy per Si atom -12401.097469 kJ/mol
# Density = 1.897107 g / cm^3
# Si number density = 19.014350 Si / 1000 Ang^3
#
#
#
# Elastic Constant Matrix: (Units=GPa)
#
#
# Indices 1 2 3 4 5 6 
#
# 1 110.5658 45.0513 77.2490 0.0000 0.0000 0.0000
# 2 45.0513 82.6459 49.0101 0.0000 0.0000 0.0000
# 3 77.2490 49.0101 149.5993 0.0000 0.0000 0.0000
# 4 0.0000 0.0000 0.0000 13.7497 0.0000 0.0000
# 5 0.0000 0.0000 0.0000 0.0000 34.3099 0.0000
# 6 0.0000 0.0000 0.0000 0.0000 0.0000 9.6269
#
#
#
# Elastic Compliance Matrix: (Units=1/GPa)
#
#
# Indices 1 2 3 4 5 6 
#
# 1 0.015427 -0.004574 -0.006467 0.000000 0.000000 0.000000
# 2 -0.004574 0.016374 -0.003002 0.000000 0.000000 0.000000
# 3 -0.006467 -0.003002 0.011008 0.000000 0.000000 0.000000
# 4 0.000000 0.000000 0.000000 0.072729 0.000000 0.000000
# 5 0.000000 0.000000 0.000000 0.000000 0.029146 0.000000
# 6 0.000000 0.000000 0.000000 0.000000 0.000000 0.103875
#
#
# Mechanical properties :
#
#
# Convention : Reuss Voigt Hill
#
# Bulk Modulus (GPa) = 67.93212 76.15907 72.04560
# Shear Modulus (GPa) = 17.75867 22.97066 20.36466
#
# Velocity S-wave (km/s) = 3.05939 3.47950 3.27619
# Velocity P-wave (km/s) = 6.94868 7.50220 7.23074
#
# Compressibility (1/GPa) = 0.01472058
#
# Stress axis : x y z
#
# Youngs Moduli (GPa) = 64.82253 61.07418 90.84551
#
# Poissons Ratio (x) = 0.27935 0.58754
# Poissons Ratio (y) = 0.29650 0.27274
# Poissons Ratio (z) = 0.41924 0.18336
#
# Static dielectric constant tensor:
#      x y z
#    x 3.444120 0.000000 0.000000 
#    y 0.000000 3.087760 0.000000 
#    z 0.000000 0.000000 3.892730 
# 
# 
# High freq. dielectric constant tensor:
#      x y z
#    x 1.738530 0.000000 0.000000 
#    y 0.000000 1.689850 0.000000 
#    z 0.000000 0.000000 1.761350 
# 
# From -- ./inp_files/11154.got.cif
#   From: 2010.03.12/outbox.cif.g09.slc.cpg/sg74_6_cif.got.tgz:11154.got - 2010.04.16 15:46:19.
