data_PCOD8297540
_publ_section_title
;
Structure prediction by ZEFSAII (Michael W. Deem and Ramdas Pophale) SiO2 
 PCOD8297540
Probable space group: I M M A
;
_chemical_formula_sum "Si O2"
_cell_formula_units_Z 72
_cell_length_a 8.576491
_cell_length_b 15.666929
_cell_length_c 28.888572
_cell_angle_alpha 90.000000
_cell_angle_beta 90.000000
_cell_angle_gamma 90.000000
_cell_volume 3881.678715
_symmetry_space_group_name_H-M "I M M A"
_symmetry_group_IT_number 74
_symmetry_cell_setting 'orthorhombic'
loop_
_space_group_symop_operation_xyz
x,y,z
-x,1/2-y,z
x,-y,-z
-x,1/2+y,-z
-x,-y,-z
x,1/2+y,-z
-x,y,z
x,1/2-y,z
1/2+x,1/2+y,1/2+z
1/2-x,-y,1/2+z
1/2+x,1/2-y,1/2-z
1/2-x,y,1/2-z
1/2-x,1/2-y,1/2-z
1/2+x,y,1/2-z
1/2-x,1/2+y,1/2+z
1/2+x,-y,1/2+z
loop_
_atom_site_type_symbol
_atom_site_label
_atom_site_fract_x
_atom_site_fract_y
_atom_site_fract_z
Si Si1 0.814057 0.999689 0.886756
Si Si2 0.184978 0.750000 0.801386
Si Si3 0.314816 0.344902 0.448912
Si Si4 0.314979 0.655545 0.447300
Si Si5 0.683614 0.424513 0.199125
O O1 0.749539 0.918079 0.915304
O O2 0.737938 0.999052 0.835645
O O3 0.000000 0.999200 0.882368
O O4 0.750445 0.084736 0.911965
O O5 0.250000 0.750000 0.750000
O O6 0.248704 0.837008 0.823962
O O7 0.000000 0.750000 0.803411
O O8 0.500000 0.349797 0.449508
O O9 0.262590 0.250000 0.431895
O O10 0.251177 0.361767 0.500873
O O11 0.500000 0.649705 0.448713
O O12 0.262063 0.750000 0.430623
O O13 0.500000 0.418449 0.203255
O O14 0.750000 0.443133 0.250000
#
# Coordination Sequence:
#
# PCOD8297540 Si02
#       5
#    16   8  16  16  16
#     4  10  18  28  48  75 100 132 170 211 253 296
#     4  10  18  32  52  72  96 128 164 198 238 290
#     4   8  14  24  41  70 104 134 165 205 246 289
#     4   8  14  26  45  71 102 132 168 213 254 292
#     4  11  22  36  51  71 100 133 167 207 250 299
#
# _framework density 18.548674999999999
#
# number of rings (size 3 to 8) (size 9 to 14) (size 15 to 20)
#    0.000    2.667    0.000    6.333    1.556    2.667 
#    0.000    0.000    0.000    4.000    0.000    3.111 
#    0.000    0.000    0.000    0.000    0.000    0.000 
#
# Total GULP energy -446173.151734 kJ/mol
# GULP energy per Si atom -12393.698659 kJ/mol
# Density = 1.850646 g / cm^3
# Si number density = 18.548675 Si / 1000 Ang^3
#
#
#
# Elastic Constant Matrix: (Units=GPa)
#
#
# Indices 1 2 3 4 5 6 
#
# 1 71.2151 24.5138 26.6591 0.0000 0.0000 0.0000
# 2 24.5138 125.6041 76.3552 0.0000 0.0000 0.0000
# 3 26.6591 76.3552 109.1561 0.0000 0.0000 0.0000
# 4 0.0000 0.0000 0.0000 32.0117 0.0000 0.0000
# 5 0.0000 0.0000 0.0000 0.0000 18.3433 0.0000
# 6 0.0000 0.0000 0.0000 0.0000 0.0000 11.7345
#
#
#
# Elastic Compliance Matrix: (Units=1/GPa)
#
#
# Indices 1 2 3 4 5 6 
#
# 1 0.015570 -0.001265 -0.002918 0.000000 0.000000 0.000000
# 2 -0.001265 0.013954 -0.009452 0.000000 0.000000 0.000000
# 3 -0.002918 -0.009452 0.016486 0.000000 0.000000 0.000000
# 4 0.000000 0.000000 0.000000 0.031239 0.000000 0.000000
# 5 0.000000 0.000000 0.000000 0.000000 0.054516 0.000000
# 6 0.000000 0.000000 0.000000 0.000000 0.000000 0.085219
#
#
# Mechanical properties :
#
#
# Convention : Reuss Voigt Hill
#
# Bulk Modulus (GPa) = 53.36215 62.33682 57.84948
# Shear Modulus (GPa) = 19.96012 24.31438 22.13725
#
# Velocity S-wave (km/s) = 3.28395 3.62448 3.45841
# Velocity P-wave (km/s) = 6.57345 7.15513 6.87045
#
# Compressibility (1/GPa) = 0.01873988
#
# Stress axis : x y z
#
# Youngs Moduli (GPa) = 64.22763 71.66160 60.65880
#
# Poissons Ratio (x) = 0.09065 0.17698
# Poissons Ratio (y) = 0.08125 0.57336
# Poissons Ratio (z) = 0.18739 0.67736
#
# Static dielectric constant tensor:
#      x y z
#    x 2.898780 0.000000 0.000000 
#    y 0.000000 3.857340 0.000000 
#    z 0.000000 0.000000 3.498610 
# 
# 
# High freq. dielectric constant tensor:
#      x y z
#    x 1.675150 0.000000 0.000000 
#    y 0.000000 1.709820 0.000000 
#    z 0.000000 0.000000 1.717220 
# 
# From -- ./inp_files/69957.got.cif
#   From: 2010.03.12/outbox.cif.g09.slc.cpg/sg74_35_cif.got.tgz:69957.got - 2010.04.16 15:46:19.
