data_PCOD8297512
_publ_section_title
;
Structure prediction by ZEFSAII (Michael W. Deem and Ramdas Pophale) SiO2 
 PCOD8297512
Probable space group: I M M A
;
_chemical_formula_sum "Si O2"
_cell_formula_units_Z 80
_cell_length_a 18.566126
_cell_length_b 9.101359
_cell_length_c 24.150818
_cell_angle_alpha 90.000000
_cell_angle_beta 90.000000
_cell_angle_gamma 90.000000
_cell_volume 4080.932241
_symmetry_space_group_name_H-M "I M M A"
_symmetry_group_IT_number 74
_symmetry_cell_setting 'orthorhombic'
loop_
_space_group_symop_operation_xyz
x,y,z
-x,1/2-y,z
x,-y,-z
-x,1/2+y,-z
-x,-y,-z
x,1/2+y,-z
-x,y,z
x,1/2-y,z
1/2+x,1/2+y,1/2+z
1/2-x,-y,1/2+z
1/2+x,1/2-y,1/2-z
1/2-x,y,1/2-z
1/2-x,1/2-y,1/2-z
1/2+x,y,1/2-z
1/2-x,1/2+y,1/2+z
1/2+x,-y,1/2+z
loop_
_atom_site_type_symbol
_atom_site_label
_atom_site_fract_x
_atom_site_fract_y
_atom_site_fract_z
Si Si1 0.344431 0.915174 0.137338
Si Si2 0.000000 0.423482 0.239989
Si Si3 0.500000 0.419836 0.853366
Si Si4 0.081144 0.078366 0.057393
Si Si5 0.859596 0.580152 0.231975
Si Si6 0.291481 0.422799 0.361830
O O1 0.319771 0.750000 0.123497
O O2 0.425438 0.944013 0.112243
O O3 0.349306 0.940846 0.203051
O O4 0.285122 0.025574 0.111453
O O5 0.000000 0.462372 0.304567
O O6 0.069641 0.493586 0.211113
O O7 0.000000 0.250000 0.230045
O O8 0.500000 0.250000 0.829721
O O9 0.089431 0.250000 0.046673
O O10 0.141389 0.025214 0.100824
O O11 0.000000 0.040894 0.078807
O O12 0.097475 0.000000 0.000000
O O13 0.865030 0.750000 0.215780
O O14 0.794892 0.506554 0.197278
O O15 0.290421 0.250000 0.352427
#
# Coordination Sequence:
#
# PCOD8297512 Si02
#       6
#    16   8   8  16  16  16
#     4   9  18  33  50  70 101 139 176 212 247 297
#     4  10  18  28  44  66  93 128 169 214 256 292
#     4   8  16  32  50  66  93 134 173 204 241 292
#     4   9  20  39  58  76 101 132 168 214 264 313
#     4  10  20  33  47  67  99 140 180 213 247 300
#     4  11  22  32  49  77 104 130 166 214 265 310
#
# _framework density 19.603365
#
# number of rings (size 3 to 8) (size 9 to 14) (size 15 to 20)
#    0.000    2.400    0.000    3.900    1.400    8.000 
#    0.000    0.000    0.000    0.000    0.000    0.700 
#    0.000    0.000    0.000    0.000    0.000    0.000 
#
# Total GULP energy -495717.607947 kJ/mol
# GULP energy per Si atom -12392.940199 kJ/mol
# Density = 1.955875 g / cm^3
# Si number density = 19.603365 Si / 1000 Ang^3
#
#
#
# Elastic Constant Matrix: (Units=GPa)
#
#
# Indices 1 2 3 4 5 6 
#
# 1 155.7017 59.0754 21.9658 0.0000 0.0000 0.0000
# 2 59.0754 97.0928 16.7850 0.0000 0.0000 0.0000
# 3 21.9658 16.7850 24.5789 0.0000 0.0000 0.0000
# 4 0.0000 0.0000 0.0000 20.3838 0.0000 0.0000
# 5 0.0000 0.0000 0.0000 0.0000 17.3527 0.0000
# 6 0.0000 0.0000 0.0000 0.0000 0.0000 37.2628
#
#
#
# Elastic Compliance Matrix: (Units=1/GPa)
#
#
# Indices 1 2 3 4 5 6 
#
# 1 0.008819 -0.004539 -0.004782 0.000000 0.000000 0.000000
# 2 -0.004539 0.014015 -0.005514 0.000000 0.000000 0.000000
# 3 -0.004782 -0.005514 0.048724 0.000000 0.000000 0.000000
# 4 0.000000 0.000000 0.000000 0.049059 0.000000 0.000000
# 5 0.000000 0.000000 0.000000 0.000000 0.057628 0.000000
# 6 0.000000 0.000000 0.000000 0.000000 0.000000 0.026836
#
#
# Mechanical properties :
#
#
# Convention : Reuss Voigt Hill
#
# Bulk Modulus (GPa) = 23.87316 52.55842 38.21579
# Shear Modulus (GPa) = 20.10342 26.96967 23.53654
#
# Velocity S-wave (km/s) = 3.20583 3.71316 3.46878
# Velocity P-wave (km/s) = 5.08996 6.72700 5.96490
#
# Compressibility (1/GPa) = 0.04188805
#
# Stress axis : x y z
#
# Youngs Moduli (GPa) = 113.38543 71.35399 20.52376
#
# Poissons Ratio (x) = 0.32391 0.09814
# Poissons Ratio (y) = 0.51471 0.11316
# Poissons Ratio (z) = 0.54219 0.39343
#
# Static dielectric constant tensor:
#      x y z
#    x 4.354690 0.000000 0.000000 
#    y 0.000000 3.478740 0.000000 
#    z 0.000000 0.000000 2.951850 
# 
# 
# High freq. dielectric constant tensor:
#      x y z
#    x 1.794320 0.000000 0.000000 
#    y 0.000000 1.763450 0.000000 
#    z 0.000000 0.000000 1.690880 
# 
# From -- ./inp_files/67559.got.cif
#   From: 2010.03.12/outbox.cif.g09.slc.cpg/sg74_34_cif.got.tgz:67559.got - 2010.04.16 15:46:19.
