data_PCOD8297087
_publ_section_title
;
Structure prediction by ZEFSAII (Michael W. Deem and Ramdas Pophale) SiO2 
 PCOD8297087
Probable space group: I B C A 
;
_chemical_formula_sum "Si O2"
_cell_formula_units_Z 32
_cell_length_a 9.299126
_cell_length_b 15.723872
_cell_length_c 8.155040
_cell_angle_alpha 90.000000
_cell_angle_beta 90.000000
_cell_angle_gamma 90.000000
_cell_volume 1192.415816
_symmetry_space_group_name_H-M "I B C A "
_symmetry_group_IT_number 73
_symmetry_cell_setting 'orthorhombic'
loop_
_space_group_symop_operation_xyz
x,y,z
-x,1/2-y,z
x,-y,1/2-z
1/2-x,y,-z
-x,-y,-z
x,1/2+y,-z
-x,y,1/2+z
1/2+x,-y,z
1/2+x,1/2+y,1/2+z
1/2-x,-y,1/2+z
1/2+x,1/2-y,-z
-x,1/2+y,1/2-z
1/2-x,1/2-y,1/2-z
1/2+x,y,1/2-z
1/2-x,1/2+y,z
x,1/2-y,1/2+z
loop_
_atom_site_type_symbol
_atom_site_label
_atom_site_fract_x
_atom_site_fract_y
_atom_site_fract_z
Si Si1 0.602604 0.829542 0.914181
Si Si2 0.113075 0.070444 0.612827
O O1 0.500000 0.750000 0.932962
O O2 0.636675 0.844553 0.722097
O O3 0.750000 0.807319 0.000000
O O4 0.528070 0.913693 0.999051
O O5 0.250000 0.050454 0.500000
O O6 0.085510 0.000000 0.750000
#
# Coordination Sequence:
#
# PCOD8297087 Si02
#       2
#    16  16
#     4  12  27  49  77 111 150 196 249 307 371 440
#     4  12  27  50  78 110 150 196 248 306 373 444
#
# _framework density 26.836275000000001
#
# number of rings (size 3 to 8) (size 9 to 14) (size 15 to 20)
#    0.000    0.000    0.000    9.000    0.000   10.000 
#    0.000    5.000    0.000    0.000    0.000    0.000 
#    0.000    0.000    0.000    0.000    0.000    0.000 
#
# Total GULP energy -198449.966701 kJ/mol
# GULP energy per Si atom -12403.122919 kJ/mol
# Density = 2.677519 g / cm^3
# Si number density = 26.836275 Si / 1000 Ang^3
#
#
#
# Elastic Constant Matrix: (Units=GPa)
#
#
# Indices 1 2 3 4 5 6 
#
# 1 154.5724 51.8129 59.9012 0.0000 0.0000 0.0000
# 2 51.8129 90.6111 49.0004 0.0000 0.0000 0.0000
# 3 59.9012 49.0004 186.3891 -0.0001 0.0000 0.0000
# 4 0.0000 0.0000 -0.0001 0.6514 0.0000 0.0000
# 5 0.0000 0.0000 0.0000 0.0000 63.1353 0.0000
# 6 0.0000 0.0000 0.0000 0.0000 0.0000 38.9590
#
#
#
# Elastic Compliance Matrix: (Units=1/GPa)
#
#
# Indices 1 2 3 4 5 6 
#
# 1 0.008433 -0.003913 -0.001681 -0.000001 0.000000 0.000000
# 2 -0.003913 0.014681 -0.002602 0.000001 0.000000 0.000000
# 3 -0.001681 -0.002602 0.006590 0.000000 0.000000 0.000000
# 4 -0.000001 0.000001 0.000000 1.535099 0.000000 0.000000
# 5 0.000000 0.000000 0.000000 0.000000 0.015839 0.000000
# 6 0.000000 0.000000 0.000000 0.000000 0.000000 0.025668
#
#
# Mechanical properties :
#
#
# Convention : Reuss Voigt Hill
#
# Bulk Modulus (GPa) = 75.12805 83.66684 79.39744
# Shear Modulus (GPa) = 3.07288 38.60635 20.83962
#
# Velocity S-wave (km/s) = 1.07123 3.79699 2.78968
# Velocity P-wave (km/s) = 5.43928 7.10403 6.32665
#
# Compressibility (1/GPa) = 0.01331061
#
# Stress axis : x y z
#
# Youngs Moduli (GPa) = 118.58771 68.11725 151.75556
#
# Poissons Ratio (x) = 0.26652 0.25517
# Poissons Ratio (y) = 0.46399 0.39487
# Poissons Ratio (z) = 0.19940 0.17724
#
# Static dielectric constant tensor:
#      x y z
#    x 4.691150 0.000000 0.000000 
#    y 0.000000 5.277860 0.000000 
#    z 0.000000 0.000000 5.937020 
# 
# 
# High freq. dielectric constant tensor:
#      x y z
#    x 2.072040 0.000000 0.000000 
#    y 0.000000 2.102630 0.000000 
#    z 0.000000 0.000000 2.117410 
# 
# From -- ./inp_files/3370.got.cif
#   From: 2010.03.12/outbox.cif.g09.slc.cpg/sg73_2_cif.got.tgz:3370.got - 2010.04.16 15:25:48.
