data_PCOD8297507
_publ_section_title
;
Structure prediction by ZEFSAII (Michael W. Deem and Ramdas Pophale) SiO2 
 PCOD8297507
Probable space group: I M M A
;
_chemical_formula_sum "Si O2"
_cell_formula_units_Z 96
_cell_length_a 25.507238
_cell_length_b 8.989867
_cell_length_c 25.430028
_cell_angle_alpha 90.000000
_cell_angle_beta 90.000000
_cell_angle_gamma 90.000000
_cell_volume 5831.275221
_symmetry_space_group_name_H-M "I M M A"
_symmetry_group_IT_number 74
_symmetry_cell_setting 'orthorhombic'
loop_
_space_group_symop_operation_xyz
x,y,z
-x,1/2-y,z
x,-y,-z
-x,1/2+y,-z
-x,-y,-z
x,1/2+y,-z
-x,y,z
x,1/2-y,z
1/2+x,1/2+y,1/2+z
1/2-x,-y,1/2+z
1/2+x,1/2-y,1/2-z
1/2-x,y,1/2-z
1/2-x,1/2-y,1/2-z
1/2+x,y,1/2-z
1/2-x,1/2+y,1/2+z
1/2+x,-y,1/2+z
loop_
_atom_site_type_symbol
_atom_site_label
_atom_site_fract_x
_atom_site_fract_y
_atom_site_fract_z
Si Si1 0.353441 0.572460 0.442830
Si Si2 0.440327 0.425562 0.145028
Si Si3 0.752248 0.923750 0.944002
Si Si4 0.937755 0.085394 0.748144
Si Si5 0.863537 0.076931 0.444162
Si Si6 0.941626 0.572911 0.137127
O O1 0.360901 0.500000 0.500000
O O2 0.350625 0.750000 0.447171
O O3 0.300217 0.508746 0.414856
O O4 0.401946 0.517282 0.407489
O O5 0.500000 0.479504 0.135712
O O6 0.436585 0.250000 0.147233
O O7 0.417275 0.484312 0.200320
O O8 0.405175 0.488887 0.097371
O O9 0.766038 0.750000 0.949140
O O10 0.694644 0.948074 0.918849
O O11 0.748913 0.000000 0.000000
O O12 0.913694 0.250000 0.740629
O O13 0.921756 0.017482 0.805204
O O14 0.000000 0.093980 0.747017
O O15 0.873382 0.250000 0.454171
O O16 0.871697 0.000000 0.500000
O O17 0.943637 0.750000 0.139222
O O18 0.000000 0.510762 0.124255
#
# Coordination Sequence:
#
# PCOD8297507 Si02
#       6
#    16  16  16  16  16  16
#     4  10  18  28  44  65  88 113 141 173 211 252
#     4   9  17  29  44  64  90 114 136 170 216 256
#     4   9  16  28  44  60  81 110 145 178 206 242
#     4   8  14  27  46  64  81 107 145 178 203 242
#     4   9  18  30  44  63  87 115 143 172 209 252
#     4   8  15  28  45  64  87 114 141 172 211 251
#
# _framework density 16.462949999999999
#
# number of rings (size 3 to 8) (size 9 to 14) (size 15 to 20)
#    0.000    3.167    0.000    3.000    0.000    2.000 
#    0.000    1.667    0.000    4.500    0.000    7.000 
#    0.000    0.000    0.000    0.000    0.000    0.000 
#
# Total GULP energy -594665.606937 kJ/mol
# GULP energy per Si atom -12388.866811 kJ/mol
# Density = 1.642548 g / cm^3
# Si number density = 16.462950 Si / 1000 Ang^3
#
#
#
# Elastic Constant Matrix: (Units=GPa)
#
#
# Indices 1 2 3 4 5 6 
#
# 1 108.8017 33.8070 70.3176 0.0000 0.0000 0.0000
# 2 33.8070 48.2738 32.3197 0.0000 0.0000 0.0000
# 3 70.3176 32.3197 111.1443 0.0000 0.0000 0.0000
# 4 0.0000 0.0000 0.0000 21.7518 0.0000 0.0000
# 5 0.0000 0.0000 0.0000 0.0000 5.4836 0.0000
# 6 0.0000 0.0000 0.0000 0.0000 0.0000 17.5585
#
#
#
# Elastic Compliance Matrix: (Units=1/GPa)
#
#
# Indices 1 2 3 4 5 6 
#
# 1 0.016744 -0.005754 -0.008920 0.000000 0.000000 0.000000
# 2 -0.005754 0.027700 -0.004415 0.000000 0.000000 0.000000
# 3 -0.008920 -0.004415 0.015925 0.000000 0.000000 0.000000
# 4 0.000000 0.000000 0.000000 0.045973 0.000000 0.000000
# 5 0.000000 0.000000 0.000000 0.000000 0.182363 0.000000
# 6 0.000000 0.000000 0.000000 0.000000 0.000000 0.056952
#
#
# Mechanical properties :
#
#
# Convention : Reuss Voigt Hill
#
# Bulk Modulus (GPa) = 45.06262 60.12315 52.59289
# Shear Modulus (GPa) = 12.78012 17.74381 15.26196
#
# Velocity S-wave (km/s) = 2.78923 3.28655 3.04805
# Velocity P-wave (km/s) = 6.14855 7.14153 6.66356
#
# Compressibility (1/GPa) = 0.02219134
#
# Stress axis : x y z
#
# Youngs Moduli (GPa) = 59.72300 36.10052 62.79589
#
# Poissons Ratio (x) = 0.20772 0.56015
# Poissons Ratio (y) = 0.34364 0.27722
# Poissons Ratio (z) = 0.53274 0.15937
#
# Static dielectric constant tensor:
#      x y z
#    x 3.696350 0.000000 0.000000 
#    y 0.000000 3.075010 0.000000 
#    z 0.000000 0.000000 3.172380 
# 
# 
# High freq. dielectric constant tensor:
#      x y z
#    x 1.625420 0.000000 0.000000 
#    y 0.000000 1.622450 0.000000 
#    z 0.000000 0.000000 1.615260 
# 
# From -- ./inp_files/62259.got.cif
#   From: 2010.03.12/outbox.cif.g09.slc.cpg/sg74_32_cif.got.tgz:62259.got - 2010.04.16 15:46:19.
