data_PCOD8297671
_publ_section_title
;
Structure prediction by ZEFSAII (Michael W. Deem and Ramdas Pophale) SiO2 
 PCOD8297671
Probable space group: I M M A
;
_chemical_formula_sum "Si O2"
_cell_formula_units_Z 88
_cell_length_a 7.636109
_cell_length_b 17.926421
_cell_length_c 32.620986
_cell_angle_alpha 90.000000
_cell_angle_beta 90.000000
_cell_angle_gamma 90.000000
_cell_volume 4465.424948
_symmetry_space_group_name_H-M "I M M A"
_symmetry_group_IT_number 74
_symmetry_cell_setting 'orthorhombic'
loop_
_space_group_symop_operation_xyz
x,y,z
-x,1/2-y,z
x,-y,-z
-x,1/2+y,-z
-x,-y,-z
x,1/2+y,-z
-x,y,z
x,1/2-y,z
1/2+x,1/2+y,1/2+z
1/2-x,-y,1/2+z
1/2+x,1/2-y,1/2-z
1/2-x,y,1/2-z
1/2-x,1/2-y,1/2-z
1/2+x,y,1/2-z
1/2-x,1/2+y,1/2+z
1/2+x,-y,1/2+z
loop_
_atom_site_type_symbol
_atom_site_label
_atom_site_fract_x
_atom_site_fract_y
_atom_site_fract_z
Si Si1 0.794491 0.750000 0.296978
Si Si2 0.700561 0.337245 0.928476
Si Si3 0.500000 0.161811 0.510861
Si Si4 0.297363 0.836139 0.858641
Si Si5 0.500000 0.162031 0.420093
Si Si6 0.703611 0.539129 0.797408
Si Si7 0.792666 0.393991 0.658767
O O1 0.750000 0.750000 0.250000
O O2 0.710505 0.676301 0.317185
O O3 0.000000 0.750000 0.305256
O O4 0.500000 0.352069 0.941603
O O5 0.727737 0.250000 0.917570
O O6 0.754929 0.386558 0.889144
O O7 0.824956 0.363820 0.965416
O O8 0.500000 0.250000 0.506932
O O9 0.500000 0.125307 0.465434
O O10 0.500000 0.850134 0.870930
O O11 0.263706 0.750000 0.847281
O O12 0.176475 0.862546 0.896413
O O13 0.238896 0.883707 0.818907
O O14 0.500000 0.250000 0.424729
O O15 0.500000 0.529036 0.802110
O O16 0.750000 0.541063 0.750000
O O17 0.790876 0.469006 0.821382
O O18 0.000000 0.393800 0.664100
#
# Coordination Sequence:
#
# PCOD8297671 Si02
#       7
#     8  16   8  16   8  16  16
#     4  10  18  30  46  68  98 136 182 224 266 316
#     4   9  16  30  50  72 103 144 180 218 267 308
#     4   9  18  30  49  85 113 129 180 232 258 323
#     4   9  19  36  57  80 106 140 178 213 267 332
#     4   9  18  34  57  83 113 140 169 223 279 322
#     4  10  21  35  52  76 105 136 178 226 267 319
#     4   9  17  32  50  68 102 144 180 219 267 318
#
# _framework density 19.706969000000001
#
# number of rings (size 3 to 8) (size 9 to 14) (size 15 to 20)
#    0.000    2.727    0.909    0.545    1.273    1.091 
#    3.273    3.636    0.000    2.182    0.000    5.091 
#    0.000    0.000    0.000    0.000    0.000    0.000 
#
# Total GULP energy -545396.289079 kJ/mol
# GULP energy per Si atom -12395.370206 kJ/mol
# Density = 1.966212 g / cm^3
# Si number density = 19.706969 Si / 1000 Ang^3
#
#
#
# Elastic Constant Matrix: (Units=GPa)
#
#
# Indices 1 2 3 4 5 6 
#
# 1 75.2478 34.6516 59.7929 0.0000 0.0000 0.0000
# 2 34.6516 99.0865 75.6300 0.0000 0.0000 0.0000
# 3 59.7929 75.6300 185.8474 0.0000 0.0000 0.0000
# 4 0.0000 0.0000 0.0000 26.2269 0.0000 0.0000
# 5 0.0000 0.0000 0.0000 0.0000 31.9180 0.0000
# 6 0.0000 0.0000 0.0000 0.0000 0.0000 6.3462
#
#
#
# Elastic Compliance Matrix: (Units=1/GPa)
#
#
# Indices 1 2 3 4 5 6 
#
# 1 0.018365 -0.002774 -0.004780 0.000000 0.000000 0.000000
# 2 -0.002774 0.015058 -0.005235 0.000000 0.000000 0.000000
# 3 -0.004780 -0.005235 0.009049 0.000000 0.000000 0.000000
# 4 0.000000 0.000000 0.000000 0.038129 0.000000 0.000000
# 5 0.000000 0.000000 0.000000 0.000000 0.031330 0.000000
# 6 0.000000 0.000000 0.000000 0.000000 0.000000 0.157574
#
#
# Mechanical properties :
#
#
# Convention : Reuss Voigt Hill
#
# Bulk Modulus (GPa) = 59.19322 77.81454 68.50388
# Shear Modulus (GPa) = 16.62703 25.57203 21.09953
#
# Velocity S-wave (km/s) = 2.90783 3.60615 3.27565
# Velocity P-wave (km/s) = 6.43240 7.54391 7.01022
#
# Compressibility (1/GPa) = 0.01689383
#
# Stress axis : x y z
#
# Youngs Moduli (GPa) = 54.45171 66.40798 110.50903
#
# Poissons Ratio (x) = 0.18423 0.52819
# Poissons Ratio (y) = 0.15106 0.57856
# Poissons Ratio (z) = 0.26026 0.34767
#
# Static dielectric constant tensor:
#      x y z
#    x 3.450120 0.000000 0.000000 
#    y 0.000000 3.730720 0.000000 
#    z 0.000000 0.000000 3.519410 
# 
# 
# High freq. dielectric constant tensor:
#      x y z
#    x 1.761030 0.000000 0.000000 
#    y 0.000000 1.746170 0.000000 
#    z 0.000000 0.000000 1.763970 
# 
# From -- ./inp_files/70352.got.cif
#   From: 2010.03.12/outbox.cif.g09.slc.cpg/sg74_36_cif.got.tgz:70352.got - 2010.04.16 15:46:19.
