data_PCOD8297383
_publ_section_title
;
Structure prediction by ZEFSAII (Michael W. Deem and Ramdas Pophale) SiO2 
 PCOD8297383
Probable space group: I M M A
;
_chemical_formula_sum "Si O2"
_cell_formula_units_Z 56
_cell_length_a 23.022103
_cell_length_b 21.692112
_cell_length_c 5.246914
_cell_angle_alpha 90.000000
_cell_angle_beta 90.000000
_cell_angle_gamma 90.000000
_cell_volume 2620.298551
_symmetry_space_group_name_H-M "I M M A"
_symmetry_group_IT_number 74
_symmetry_cell_setting 'orthorhombic'
loop_
_space_group_symop_operation_xyz
x,y,z
-x,1/2-y,z
x,-y,-z
-x,1/2+y,-z
-x,-y,-z
x,1/2+y,-z
-x,y,z
x,1/2-y,z
1/2+x,1/2+y,1/2+z
1/2-x,-y,1/2+z
1/2+x,1/2-y,1/2-z
1/2-x,y,1/2-z
1/2-x,1/2-y,1/2-z
1/2+x,y,1/2-z
1/2-x,1/2+y,1/2+z
1/2+x,-y,1/2+z
loop_
_atom_site_type_symbol
_atom_site_label
_atom_site_fract_x
_atom_site_fract_y
_atom_site_fract_z
Si Si1 0.000000 0.460096 0.248928
Si Si2 0.689357 0.818521 0.889981
Si Si3 0.186847 0.562615 0.330883
Si Si4 0.125429 0.921185 0.830501
O O1 0.000000 0.500000 0.500000
O O2 0.057984 0.419466 0.242248
O O3 0.000000 0.500000 0.000000
O O4 0.668478 0.750000 0.970373
O O5 0.750000 0.814967 0.750000
O O6 0.644439 0.849776 0.689104
O O7 0.692709 0.862791 0.138200
O O8 0.250000 0.535907 0.250000
O O9 0.164575 0.539356 0.618665
O O10 0.138175 0.550791 0.111231
#
# Coordination Sequence:
#
# PCOD8297383 Si02
#       4
#     8  16  16  16
#     4  12  26  46  69  82 103 158 218 256 300 356
#     4   9  18  32  59  92 128 163 190 225 289 364
#     4  10  17  34  57  88 123 155 182 235 294 351
#     4  10  21  37  59  87 120 151 200 252 288 344
#
# _framework density 21.371608999999999
#
# number of rings (size 3 to 8) (size 9 to 14) (size 15 to 20)
#    1.714    0.286    2.857    2.571    0.000    1.714 
#    0.000    0.714    0.000   29.143    0.000    0.000 
#    0.000    0.000    0.000    0.000    0.000    0.000 
#
# Total GULP energy -346962.443287 kJ/mol
# GULP energy per Si atom -12391.515832 kJ/mol
# Density = 2.132297 g / cm^3
# Si number density = 21.371609 Si / 1000 Ang^3
#
#
#
# Elastic Constant Matrix: (Units=GPa)
#
#
# Indices 1 2 3 4 5 6 
#
# 1 172.0222 28.2629 59.6213 0.0000 0.0000 0.0000
# 2 28.2629 75.1420 54.6013 0.0000 0.0000 0.0000
# 3 59.6213 54.6013 149.8548 0.0000 0.0000 0.0000
# 4 0.0000 0.0000 0.0000 31.2514 0.0000 0.0000
# 5 0.0000 0.0000 0.0000 0.0000 35.6021 0.0000
# 6 0.0000 0.0000 0.0000 0.0000 0.0000 -4.6047
#
#
#
# Elastic Compliance Matrix: (Units=1/GPa)
#
#
# Indices 1 2 3 4 5 6 
#
# 1 0.006778 -0.000802 -0.002405 0.000000 0.000000 0.000000
# 2 -0.000802 0.018195 -0.006310 0.000000 0.000000 0.000000
# 3 -0.002405 -0.006310 0.009929 0.000000 0.000000 0.000000
# 4 0.000000 0.000000 0.000000 0.031999 0.000000 0.000000
# 5 0.000000 0.000000 0.000000 0.000000 0.028088 0.000000
# 6 0.000000 0.000000 0.000000 0.000000 0.000000 -0.217170
#
#
# Mechanical properties :
#
#
# Convention : Reuss Voigt Hill
#
# Bulk Modulus (GPa) = 63.01902 75.77667 69.39785
# Shear Modulus (GPa) = -51.09557 29.41866 -10.83846
#
# Velocity S-wave (km/s) = -4.89490 3.71419 -2.25443
# Velocity P-wave (km/s) = 1.54773 7.34352 5.07601
#
# Compressibility (1/GPa) = 0.01586822
#
# Stress axis : x y z
#
# Youngs Moduli (GPa) = 147.52723 54.95903 100.71415
#
# Poissons Ratio (x) = 0.04409 0.24217
# Poissons Ratio (y) = 0.11836 0.63555
# Poissons Ratio (z) = 0.35473 0.34682
#
# Static dielectric constant tensor:
#      x y z
#    x 5.184150 0.000000 0.000000 
#    y 0.000000 4.455320 0.000000 
#    z 0.000000 0.000000 3.920490 
# 
# 
# High freq. dielectric constant tensor:
#      x y z
#    x 1.816850 0.000000 0.000000 
#    y 0.000000 1.844050 0.000000 
#    z 0.000000 0.000000 1.854470 
# 
# From -- ./inp_files/2847.got.cif
#   From: 2010.03.12/outbox.cif.g09.slc.cpg/sg74_2_cif.got.tgz:2847.got - 2010.04.16 15:46:19.
