data_PCOD8297078
_publ_section_title
;
Structure prediction by ZEFSAII (Michael W. Deem and Ramdas Pophale) SiO2 
 PCOD8297078
Probable space group: I B C A 
;
_chemical_formula_sum "Si O2"
_cell_formula_units_Z 64
_cell_length_a 18.629884
_cell_length_b 11.917732
_cell_length_c 13.710812
_cell_angle_alpha 90.000000
_cell_angle_beta 90.000000
_cell_angle_gamma 90.000000
_cell_volume 3044.156261
_symmetry_space_group_name_H-M "I B C A "
_symmetry_group_IT_number 73
_symmetry_cell_setting 'orthorhombic'
loop_
_space_group_symop_operation_xyz
x,y,z
-x,1/2-y,z
x,-y,1/2-z
1/2-x,y,-z
-x,-y,-z
x,1/2+y,-z
-x,y,1/2+z
1/2+x,-y,z
1/2+x,1/2+y,1/2+z
1/2-x,-y,1/2+z
1/2+x,1/2-y,-z
-x,1/2+y,1/2-z
1/2-x,1/2-y,1/2-z
1/2+x,y,1/2-z
1/2-x,1/2+y,z
x,1/2-y,1/2+z
loop_
_atom_site_type_symbol
_atom_site_label
_atom_site_fract_x
_atom_site_fract_y
_atom_site_fract_z
Si Si1 0.692254 0.907840 0.917267
Si Si2 0.712443 0.500000 0.750000
Si Si3 0.000000 0.750000 0.317447
Si Si4 0.114837 0.689439 0.660764
Si Si5 0.435425 0.923014 0.029742
O O1 0.653429 0.803697 0.867606
O O2 0.738104 0.957851 0.833496
O O3 0.634880 0.001264 0.951320
O O4 0.750000 0.871212 0.000000
O O5 0.668583 0.402341 0.699680
O O6 0.059082 0.804123 0.248683
O O7 0.040596 0.654250 0.379678
O O8 0.076542 0.656543 0.561401
O O9 0.500000 0.000000 0.000000
#
# Coordination Sequence:
#
# PCOD8297078 Si02
#       5
#    16   8   8  16  16
#     4  12  27  46  75 110 152 198 247 312 379 453
#     4  12  26  48  72 110 148 192 248 308 374 454
#     4  12  26  46  78 106 150 198 252 312 380 448
#     4  12  27  46  74 111 146 197 249 309 377 454
#     4  12  26  49  74 109 148 196 251 313 374 450
#
# _framework density 21.023886999999998
#
# number of rings (size 3 to 8) (size 9 to 14) (size 15 to 20)
#    0.000    0.000    2.500    7.500    7.000    2.000 
#    0.000    0.000    0.000    0.000    0.000    0.000 
#    0.000    0.000    0.000    0.000    0.000    0.000 
#
# Total GULP energy -396671.626672 kJ/mol
# GULP energy per Si atom -12395.988333 kJ/mol
# Density = 2.097604 g / cm^3
# Si number density = 21.023887 Si / 1000 Ang^3
#
#
#
# Elastic Constant Matrix: (Units=GPa)
#
#
# Indices 1 2 3 4 5 6 
#
# 1 141.8355 59.0182 70.4554 0.0000 0.0000 0.0000
# 2 59.0182 133.5397 71.3592 0.0000 0.0000 0.0000
# 3 70.4554 71.3592 175.1313 0.0000 0.0000 0.0000
# 4 0.0000 0.0000 0.0000 49.8245 0.0000 0.0000
# 5 0.0000 0.0000 0.0000 0.0000 68.8784 0.0000
# 6 0.0000 0.0000 0.0000 0.0000 0.0000 52.9174
#
#
#
# Elastic Compliance Matrix: (Units=1/GPa)
#
#
# Indices 1 2 3 4 5 6 
#
# 1 0.009551 -0.002771 -0.002713 0.000000 0.000000 0.000000
# 2 -0.002771 0.010377 -0.003113 0.000000 0.000000 0.000000
# 3 -0.002713 -0.003113 0.008070 0.000000 0.000000 0.000000
# 4 0.000000 0.000000 0.000000 0.020070 0.000000 0.000000
# 5 0.000000 0.000000 0.000000 0.000000 0.014518 0.000000
# 6 0.000000 0.000000 0.000000 0.000000 0.000000 0.018897
#
#
# Mechanical properties :
#
#
# Convention : Reuss Voigt Hill
#
# Bulk Modulus (GPa) = 92.57109 94.68577 93.62843
# Shear Modulus (GPa) = 48.88487 50.96897 49.92692
#
# Velocity S-wave (km/s) = 4.82727 4.92910 4.87845
# Velocity P-wave (km/s) = 8.67162 8.80509 8.73861
#
# Compressibility (1/GPa) = 0.01080251
#
# Stress axis : x y z
#
# Youngs Moduli (GPa) = 104.69670 96.36852 123.91442
#
# Poissons Ratio (x) = 0.26707 0.33622
# Poissons Ratio (y) = 0.29015 0.38577
# Poissons Ratio (z) = 0.28407 0.30002
#
# Static dielectric constant tensor:
#      x y z
#    x 4.802370 0.000000 0.000000 
#    y 0.000000 4.032180 0.000000 
#    z 0.000000 0.000000 4.916240 
# 
# 
# High freq. dielectric constant tensor:
#      x y z
#    x 1.851710 0.000000 0.000000 
#    y 0.000000 1.841470 0.000000 
#    z 0.000000 0.000000 1.854530 
# 
# From -- ./inp_files/9473.got.cif
#   From: 2010.03.12/outbox.cif.g09.slc.cpg/sg73_5_cif.got.tgz:9473.got - 2010.04.16 15:25:48.
