data_PCOD8297923
_publ_section_title
;
Structure prediction by ZEFSAII (Michael W. Deem and Ramdas Pophale) SiO2 
 PCOD8297923
Probable space group: I M M A
;
_chemical_formula_sum "Si O2"
_cell_formula_units_Z 72
_cell_length_a 8.714815
_cell_length_b 16.129222
_cell_length_c 28.142228
_cell_angle_alpha 90.000000
_cell_angle_beta 90.000000
_cell_angle_gamma 90.000000
_cell_volume 3955.761224
_symmetry_space_group_name_H-M "I M M A"
_symmetry_group_IT_number 74
_symmetry_cell_setting 'orthorhombic'
loop_
_space_group_symop_operation_xyz
x,y,z
-x,1/2-y,z
x,-y,-z
-x,1/2+y,-z
-x,-y,-z
x,1/2+y,-z
-x,y,z
x,1/2-y,z
1/2+x,1/2+y,1/2+z
1/2-x,-y,1/2+z
1/2+x,1/2-y,1/2-z
1/2-x,y,1/2-z
1/2-x,1/2-y,1/2-z
1/2+x,y,1/2-z
1/2-x,1/2+y,1/2+z
1/2+x,-y,1/2+z
loop_
_atom_site_type_symbol
_atom_site_label
_atom_site_fract_x
_atom_site_fract_y
_atom_site_fract_z
Si Si1 0.331962 0.412978 0.525691
Si Si2 0.817162 0.250000 0.802508
Si Si3 0.681322 0.917770 0.198113
Si Si4 0.175656 0.155321 0.439656
Si Si5 0.819038 0.508074 0.884945
O O1 0.350345 0.500000 0.500000
O O2 0.500000 0.370161 0.528676
O O3 0.219223 0.354599 0.495490
O O4 0.269339 0.434550 0.578399
O O5 0.750000 0.250000 0.750000
O O6 0.752675 0.165741 0.825994
O O7 0.000000 0.250000 0.803274
O O8 0.500000 0.909252 0.202618
O O9 0.750000 0.935133 0.250000
O O10 0.727900 0.993750 0.164021
O O11 0.202934 0.250000 0.424428
O O12 0.277494 0.098444 0.405363
O O13 0.000000 0.128758 0.433705
O O14 0.000000 0.505847 0.875580
#
# Coordination Sequence:
#
# PCOD8297923 Si02
#       5
#    16   8  16  16  16
#     4   8  16  31  50  71  97 130 168 210 256 306
#     4  10  18  32  52  74 102 134 170 210 254 304
#     4  11  21  35  55  79 107 140 176 217 263 313
#     4  10  20  33  51  77 107 139 175 217 263 314
#     4  10  20  35  54  77 104 138 179 220 262 313
#
# _framework density 18.201301999999998
#
# number of rings (size 3 to 8) (size 9 to 14) (size 15 to 20)
#    0.000    2.222    0.000    7.000    0.000    6.667 
#    2.000    0.000    0.000    0.667    0.000    0.000 
#    0.000    0.000    0.000    0.000    0.000    0.000 
#
# Total GULP energy -446221.456652 kJ/mol
# GULP energy per Si atom -12395.040463 kJ/mol
# Density = 1.815987 g / cm^3
# Si number density = 18.201302 Si / 1000 Ang^3
#
#
#
# Elastic Constant Matrix: (Units=GPa)
#
#
# Indices 1 2 3 4 5 6 
#
# 1 126.9015 38.8769 43.3200 0.0000 0.0000 0.0000
# 2 38.8769 67.8133 37.4267 0.0000 0.0000 0.0000
# 3 43.3200 37.4267 94.2217 0.0000 0.0000 0.0000
# 4 0.0000 0.0000 0.0000 22.0821 0.0000 0.0000
# 5 0.0000 0.0000 0.0000 0.0000 28.1648 0.0000
# 6 0.0000 0.0000 0.0000 0.0000 0.0000 26.4509
#
#
#
# Elastic Compliance Matrix: (Units=1/GPa)
#
#
# Indices 1 2 3 4 5 6 
#
# 1 0.010192 -0.004171 -0.003029 0.000000 0.000000 0.000000
# 2 -0.004171 0.020594 -0.006263 0.000000 0.000000 0.000000
# 3 -0.003029 -0.006263 0.014494 0.000000 0.000000 0.000000
# 4 0.000000 0.000000 0.000000 0.045285 0.000000 0.000000
# 5 0.000000 0.000000 0.000000 0.000000 0.035505 0.000000
# 6 0.000000 0.000000 0.000000 0.000000 0.000000 0.037806
#
#
# Mechanical properties :
#
#
# Convention : Reuss Voigt Hill
#
# Bulk Modulus (GPa) = 54.48435 58.68708 56.58571
# Shear Modulus (GPa) = 25.39100 26.62708 26.00904
#
# Velocity S-wave (km/s) = 3.73904 3.82897 3.78427
# Velocity P-wave (km/s) = 6.97422 7.20148 7.08876
#
# Compressibility (1/GPa) = 0.01835390
#
# Stress axis : x y z
#
# Youngs Moduli (GPa) = 98.11584 48.55755 68.99629
#
# Poissons Ratio (x) = 0.20255 0.20899
# Poissons Ratio (y) = 0.40927 0.43209
# Poissons Ratio (z) = 0.29720 0.30410
#
# Static dielectric constant tensor:
#      x y z
#    x 3.413360 0.000000 0.000000 
#    y 0.000000 3.325910 0.000000 
#    z 0.000000 0.000000 3.440780 
# 
# 
# High freq. dielectric constant tensor:
#      x y z
#    x 1.717700 0.000000 0.000000 
#    y 0.000000 1.684240 0.000000 
#    z 0.000000 0.000000 1.688800 
# 
# From -- ./inp_files/63837.got.cif
#   From: 2010.03.12/outbox.cif.g09.slc.cpg/sg74_32_cif.got.tgz:63837.got - 2010.04.16 15:46:19.
