data_PCOD8297884
_publ_section_title
;
Structure prediction by ZEFSAII (Michael W. Deem and Ramdas Pophale) SiO2 
 PCOD8297884
Probable space group: I M M A
;
_chemical_formula_sum "Si O2"
_cell_formula_units_Z 112
_cell_length_a 15.933423
_cell_length_b 26.257782
_cell_length_c 15.653829
_cell_angle_alpha 90.000000
_cell_angle_beta 90.000000
_cell_angle_gamma 90.000000
_cell_volume 6549.191804
_symmetry_space_group_name_H-M "I M M A"
_symmetry_group_IT_number 74
_symmetry_cell_setting 'orthorhombic'
loop_
_space_group_symop_operation_xyz
x,y,z
-x,1/2-y,z
x,-y,-z
-x,1/2+y,-z
-x,-y,-z
x,1/2+y,-z
-x,y,z
x,1/2-y,z
1/2+x,1/2+y,1/2+z
1/2-x,-y,1/2+z
1/2+x,1/2-y,1/2-z
1/2-x,y,1/2-z
1/2-x,1/2-y,1/2-z
1/2+x,y,1/2-z
1/2-x,1/2+y,1/2+z
1/2+x,-y,1/2+z
loop_
_atom_site_type_symbol
_atom_site_label
_atom_site_fract_x
_atom_site_fract_y
_atom_site_fract_z
Si Si1 0.692985 0.411358 0.395113
Si Si2 0.349302 0.750000 0.747611
Si Si3 0.907012 0.445946 0.955832
Si Si4 0.406856 0.449005 0.946393
Si Si5 0.096436 0.250000 0.440200
Si Si6 0.245300 0.478094 0.850636
Si Si7 0.906343 0.142761 0.240183
Si Si8 0.143604 0.141375 0.433905
O O1 0.623199 0.408048 0.469384
O O2 0.740306 0.465726 0.392382
O O3 0.652761 0.399844 0.302772
O O4 0.758736 0.368220 0.419947
O O5 0.250000 0.750000 0.750000
O O6 0.391653 0.750000 0.839420
O O7 0.380335 0.698240 0.702409
O O8 0.838008 0.446830 0.879583
O O9 0.000000 0.429598 0.921556
O O10 0.914440 0.500000 0.000000
O O11 0.500000 0.447351 0.902597
O O12 0.330369 0.449318 0.879194
O O13 0.398794 0.500000 0.000000
O O14 0.400053 0.399611 0.005784
O O15 0.136483 0.197659 0.476613
O O16 0.000000 0.250000 0.465503
O O17 0.250000 0.481981 0.750000
O O18 0.901402 0.139433 0.342061
O O19 0.000000 0.130479 0.210946
#
# Coordination Sequence:
#
# PCOD8297884 Si02
#       8
#    16   8  16  16   8  16  16  16
#     4  11  20  33  50  72 103 140 183 214 251 304
#     4  10  18  32  46  66 102 142 179 220 257 291
#     4   9  18  34  52  69  98 138 174 214 262 306
#     4  11  21  35  54  77 107 140 171 214 269 317
#     4  10  20  32  48  72 101 138 178 214 253 307
#     4  11  21  36  51  74 105 136 176 222 262 318
#     4  11  21  31  48  75 104 143 185 218 252 303
#     4  11  19  35  52  74 107 143 174 217 261 311
#
# _framework density 17.101345999999999
#
# number of rings (size 3 to 8) (size 9 to 14) (size 15 to 20)
#    0.000    1.429    2.857    6.643    0.000    1.143 
#    0.000    0.000    0.000    0.000    0.000    0.500 
#    0.000    0.000    0.000    0.000    0.000    0.000 
#
# Total GULP energy -694124.846641 kJ/mol
# GULP energy per Si atom -12395.086547 kJ/mol
# Density = 1.706242 g / cm^3
# Si number density = 17.101346 Si / 1000 Ang^3
#
#
#
# Elastic Constant Matrix: (Units=GPa)
#
#
# Indices 1 2 3 4 5 6 
#
# 1 155.8644 37.5273 34.6553 0.0000 0.0000 0.0000
# 2 37.5273 100.3772 26.2159 0.0002 0.0000 0.0000
# 3 34.6553 26.2159 42.2570 0.0001 0.0000 0.0000
# 4 0.0000 0.0002 0.0001 19.2132 0.0000 0.0000
# 5 0.0000 0.0000 0.0000 0.0000 17.8798 0.0000
# 6 0.0000 0.0000 0.0000 0.0000 0.0000 12.8682
#
#
#
# Elastic Compliance Matrix: (Units=1/GPa)
#
#
# Indices 1 2 3 4 5 6 
#
# 1 0.008039 -0.001532 -0.005643 0.000000 0.000000 0.000000
# 2 -0.001532 0.012181 -0.006301 0.000000 0.000000 0.000000
# 3 -0.005643 -0.006301 0.032201 0.000000 0.000000 0.000000
# 4 0.000000 0.000000 0.000000 0.052047 0.000000 0.000000
# 5 0.000000 0.000000 0.000000 0.000000 0.055929 0.000000
# 6 0.000000 0.000000 0.000000 0.000000 0.000000 0.077711
#
#
# Mechanical properties :
#
#
# Convention : Reuss Voigt Hill
#
# Bulk Modulus (GPa) = 39.26044 55.03285 47.14665
# Shear Modulus (GPa) = 18.27827 23.33225 20.80526
#
# Velocity S-wave (km/s) = 3.27283 3.69772 3.49174
# Velocity P-wave (km/s) = 6.10649 7.10501 6.62459
#
# Compressibility (1/GPa) = 0.02547093
#
# Stress axis : x y z
#
# Youngs Moduli (GPa) = 124.38935 82.09735 31.05477
#
# Poissons Ratio (x) = 0.12576 0.17523
# Poissons Ratio (y) = 0.19055 0.19566
# Poissons Ratio (z) = 0.70189 0.51726
#
# Static dielectric constant tensor:
#      x y z
#    x 3.568620 0.000000 0.000000 
#    y 0.000000 3.484010 0.000000 
#    z 0.000000 0.000000 2.895960 
# 
# 
# High freq. dielectric constant tensor:
#      x y z
#    x 1.684980 0.000000 0.000000 
#    y 0.000000 1.644740 0.000000 
#    z 0.000000 0.000000 1.612400 
# 
# From -- ./inp_files/33013.got.cif
#   From: 2010.03.12/outbox.cif.g09.slc.cpg/sg74_17_cif.got.tgz:33013.got - 2010.04.16 15:46:19.
