data_PCOD8297553
_publ_section_title
;
Structure prediction by ZEFSAII (Michael W. Deem and Ramdas Pophale) SiO2 
 PCOD8297553
Probable space group: I M M A
;
_chemical_formula_sum "Si O2"
_cell_formula_units_Z 104
_cell_length_a 23.093632
_cell_length_b 9.175886
_cell_length_c 36.063509
_cell_angle_alpha 90.000000
_cell_angle_beta 90.000000
_cell_angle_gamma 90.000000
_cell_volume 7642.021089
_symmetry_space_group_name_H-M "I M M A"
_symmetry_group_IT_number 74
_symmetry_cell_setting 'orthorhombic'
loop_
_space_group_symop_operation_xyz
x,y,z
-x,1/2-y,z
x,-y,-z
-x,1/2+y,-z
-x,-y,-z
x,1/2+y,-z
-x,y,z
x,1/2-y,z
1/2+x,1/2+y,1/2+z
1/2-x,-y,1/2+z
1/2+x,1/2-y,1/2-z
1/2-x,y,1/2-z
1/2-x,1/2-y,1/2-z
1/2+x,y,1/2-z
1/2-x,1/2+y,1/2+z
1/2+x,-y,1/2+z
loop_
_atom_site_type_symbol
_atom_site_label
_atom_site_fract_x
_atom_site_fract_y
_atom_site_fract_z
Si Si1 0.000000 0.577205 0.717236
Si Si2 0.192833 0.084614 0.325973
Si Si3 0.000000 0.907339 0.535160
Si Si4 0.120014 0.085932 0.251279
Si Si5 0.500000 0.084193 0.859874
Si Si6 0.126176 0.580898 0.539495
Si Si7 0.374357 0.079423 0.889731
Si Si8 0.287051 0.585639 0.287293
O O1 0.943937 0.524184 0.740116
O O2 0.000000 0.516080 0.676004
O O3 0.000000 0.750000 0.712456
O O4 0.202300 0.250000 0.340236
O O5 0.156093 0.085056 0.288805
O O6 0.158340 0.990073 0.355351
O O7 0.255004 0.010006 0.318579
O O8 0.060417 0.930357 0.556033
O O9 0.000000 0.750000 0.517013
O O10 0.000000 0.000000 0.500000
O O11 0.117051 0.250000 0.235366
O O12 0.149983 0.983867 0.220580
O O13 0.500000 0.250000 0.845685
O O14 0.443406 0.052479 0.884891
O O15 0.135410 0.500000 0.500000
O O16 0.146609 0.750000 0.536083
O O17 0.155288 0.493429 0.573347
O O18 0.360690 0.250000 0.891652
O O19 0.295427 0.750000 0.301996
O O20 0.250000 0.585035 0.250000
#
# Coordination Sequence:
#
# PCOD8297553 Si02
#       8
#     8  16   8  16   8  16  16  16
#     4  10  18  29  43  59  80 104 130 160 194 237
#     4  10  18  29  44  59  76  98 127 160 194 232
#     4   8  15  26  40  54  67  86 114 148 184 226
#     4   9  17  28  42  59  78 101 128 157 191 231
#     4  10  21  31  40  55  78 102 125 158 200 243
#     4  10  19  31  44  57  72  93 121 155 194 236
#     4  11  21  31  42  58  78 100 126 158 198 242
#     4   9  17  28  42  58  77  99 124 155 191 230
#
# _framework density 13.608966000000001
#
# number of rings (size 3 to 8) (size 9 to 14) (size 15 to 20)
#    0.000    2.308    1.538    2.308    0.000    4.308 
#    0.000    2.308    0.000    0.000    0.000    0.000 
#    0.000    0.000    0.000    0.000    0.000    0.000 
#
# Total GULP energy -644213.509235 kJ/mol
# GULP energy per Si atom -12388.721331 kJ/mol
# Density = 1.357799 g / cm^3
# Si number density = 13.608966 Si / 1000 Ang^3
#
#
#
# Elastic Constant Matrix: (Units=GPa)
#
#
# Indices 1 2 3 4 5 6 
#
# 1 44.5262 32.4045 17.2402 0.0000 0.0000 0.0000
# 2 32.4045 96.1857 36.5340 0.0000 0.0000 0.0000
# 3 17.2402 36.5340 39.4078 0.0000 0.0000 0.0000
# 4 0.0000 0.0000 0.0000 21.0827 0.0000 0.0000
# 5 0.0000 0.0000 0.0000 0.0000 -1.0216 0.0000
# 6 0.0000 0.0000 0.0000 0.0000 0.0000 18.1865
#
#
#
# Elastic Compliance Matrix: (Units=1/GPa)
#
#
# Indices 1 2 3 4 5 6 
#
# 1 0.030622 -0.008069 -0.005915 0.000000 0.000000 0.000000
# 2 -0.008069 0.018174 -0.013318 0.000000 0.000000 0.000000
# 3 -0.005915 -0.013318 0.040310 0.000000 0.000000 0.000000
# 4 0.000000 0.000000 0.000000 0.047432 0.000000 0.000000
# 5 0.000000 0.000000 0.000000 0.000000 -0.978810 0.000000
# 6 0.000000 0.000000 0.000000 0.000000 0.000000 0.054986
#
#
# Mechanical properties :
#
#
# Convention : Reuss Voigt Hill
#
# Bulk Modulus (GPa) = 28.98566 39.16412 34.07489
# Shear Modulus (GPa) = -6.93308 13.91226 3.48959
#
# Velocity S-wave (km/s) = -2.25955 3.20079 1.60304
# Velocity P-wave (km/s) = 3.81284 6.51926 5.34034
#
# Compressibility (1/GPa) = 0.03449981
#
# Stress axis : x y z
#
# Youngs Moduli (GPa) = 32.65649 55.02452 24.80746
#
# Poissons Ratio (x) = 0.44402 0.14675
# Poissons Ratio (y) = 0.26352 0.33039
# Poissons Ratio (z) = 0.19318 0.73282
#
# Static dielectric constant tensor:
#      x y z
#    x 2.605970 0.000000 0.000000 
#    y 0.000000 2.918310 0.000000 
#    z 0.000000 0.000000 2.432570 
# 
# 
# High freq. dielectric constant tensor:
#      x y z
#    x 1.477550 0.000000 0.000000 
#    y 0.000000 1.539640 0.000000 
#    z 0.000000 0.000000 1.487590 
# 
# From -- ./inp_files/73716.got.cif
#   From: 2010.03.12/outbox.cif.g09.slc.cpg/sg74_37_cif.got.tgz:73716.got - 2010.04.16 15:46:19.
