data_PCOD8297363
_publ_section_title
;
Structure prediction by ZEFSAII (Michael W. Deem and Ramdas Pophale) SiO2 
 PCOD8297363
Probable space group: I M M A
;
_chemical_formula_sum "Si O2"
_cell_formula_units_Z 80
_cell_length_a 19.999672
_cell_length_b 18.451238
_cell_length_c 12.620049
_cell_angle_alpha 90.000000
_cell_angle_beta 90.000000
_cell_angle_gamma 90.000000
_cell_volume 4657.034177
_symmetry_space_group_name_H-M "I M M A"
_symmetry_group_IT_number 74
_symmetry_cell_setting 'orthorhombic'
loop_
_space_group_symop_operation_xyz
x,y,z
-x,1/2-y,z
x,-y,-z
-x,1/2+y,-z
-x,-y,-z
x,1/2+y,-z
-x,y,z
x,1/2-y,z
1/2+x,1/2+y,1/2+z
1/2-x,-y,1/2+z
1/2+x,1/2-y,1/2-z
1/2-x,y,1/2-z
1/2-x,1/2-y,1/2-z
1/2+x,y,1/2-z
1/2-x,1/2+y,1/2+z
1/2+x,-y,1/2+z
loop_
_atom_site_type_symbol
_atom_site_label
_atom_site_fract_x
_atom_site_fract_y
_atom_site_fract_z
Si Si1 0.159029 0.164329 0.570244
Si Si2 0.671491 0.573248 0.265956
Si Si3 0.707491 0.583770 0.489787
Si Si4 0.826774 0.910342 0.779798
Si Si5 0.573741 0.165058 0.128042
O O1 0.166242 0.250000 0.588541
O O2 0.137130 0.127147 0.681741
O O3 0.227948 0.134094 0.522914
O O4 0.101661 0.143349 0.487125
O O5 0.750000 0.579518 0.250000
O O6 0.657805 0.594713 0.388860
O O7 0.649344 0.490728 0.246081
O O8 0.731970 0.500000 0.500000
O O9 0.666065 0.604472 0.594546
O O10 0.750000 0.895676 0.750000
O O11 0.876257 0.856835 0.721066
O O12 0.500000 0.129687 0.142092
O O13 0.567440 0.250000 0.135355
#
# Coordination Sequence:
#
# PCOD8297363 Si02
#       5
#    16  16  16  16  16
#     4  10  19  31  49  71 102 135 167 206 254 306
#     4   8  17  29  48  74 103 130 160 208 257 294
#     4   9  17  30  50  77 103 130 159 213 261 293
#     4  10  17  31  54  74  99 133 172 209 247 305
#     4  10  22  36  49  71 105 138 167 210 261 300
#
# _framework density 17.178315000000001
#
# number of rings (size 3 to 8) (size 9 to 14) (size 15 to 20)
#    0.000    2.600    2.000    1.200    0.000    4.800 
#    0.000    2.000    0.000    6.600    0.000    2.800 
#    0.000    0.000    0.000    0.000    0.000    0.000 
#
# Total GULP energy -495760.500758 kJ/mol
# GULP energy per Si atom -12394.012519 kJ/mol
# Density = 1.713922 g / cm^3
# Si number density = 17.178315 Si / 1000 Ang^3
#
#
#
# Elastic Constant Matrix: (Units=GPa)
#
#
# Indices 1 2 3 4 5 6 
#
# 1 71.7997 19.7675 44.7097 0.0000 0.0000 0.0000
# 2 19.7675 19.4672 38.4082 0.0000 0.0000 0.0000
# 3 44.7097 38.4082 157.4610 0.0000 0.0000 0.0000
# 4 0.0000 0.0000 0.0000 31.3030 0.0000 0.0000
# 5 0.0000 0.0000 0.0000 0.0000 3.7540 0.0000
# 6 0.0000 0.0000 0.0000 0.0000 0.0000 9.4854
#
#
#
# Elastic Compliance Matrix: (Units=1/GPa)
#
#
# Indices 1 2 3 4 5 6 
#
# 1 0.019482 -0.017096 -0.001362 0.000000 0.000000 0.000000
# 2 -0.017096 0.114026 -0.022959 0.000000 0.000000 0.000000
# 3 -0.001362 -0.022959 0.012338 0.000000 0.000000 0.000000
# 4 0.000000 0.000000 0.000000 0.031946 0.000000 0.000000
# 5 0.000000 0.000000 0.000000 0.000000 0.266384 0.000000
# 6 0.000000 0.000000 0.000000 0.000000 0.000000 0.105425
#
#
# Mechanical properties :
#
#
# Convention : Reuss Voigt Hill
#
# Bulk Modulus (GPa) = 15.87002 50.49984 33.18493
# Shear Modulus (GPa) = 7.65181 18.63130 13.14155
#
# Velocity S-wave (km/s) = 2.11282 3.29687 2.76888
# Velocity P-wave (km/s) = 3.90006 6.62976 5.43894
#
# Compressibility (1/GPa) = 0.06301189
#
# Stress axis : x y z
#
# Youngs Moduli (GPa) = 51.32827 8.76992 81.05272
#
# Poissons Ratio (x) = 0.14993 0.11037
# Poissons Ratio (y) = 0.87753 1.86090
# Poissons Ratio (z) = 0.06989 0.20135
#
# Static dielectric constant tensor:
#      x y z
#    x 2.947140 0.000000 0.000000 
#    y 0.000000 3.198380 0.000000 
#    z 0.000000 0.000000 3.926060 
# 
# 
# High freq. dielectric constant tensor:
#      x y z
#    x 1.609450 0.000000 0.000000 
#    y 0.000000 1.658980 0.000000 
#    z 0.000000 0.000000 1.685850 
# 
# From -- ./inp_files/33970.got.cif
#   From: 2010.03.12/outbox.cif.g09.slc.cpg/sg74_17_cif.got.tgz:33970.got - 2010.04.16 15:46:19.
