data_PCOD8297762
_publ_section_title
;
Structure prediction by ZEFSAII (Michael W. Deem and Ramdas Pophale) SiO2 
 PCOD8297762
Probable space group: I M M A
;
_chemical_formula_sum "Si O2"
_cell_formula_units_Z 128
_cell_length_a 16.626152
_cell_length_b 17.953268
_cell_length_c 23.255677
_cell_angle_alpha 90.000000
_cell_angle_beta 90.000000
_cell_angle_gamma 90.000000
_cell_volume 6941.674531
_symmetry_space_group_name_H-M "I M M A"
_symmetry_group_IT_number 74
_symmetry_cell_setting 'orthorhombic'
loop_
_space_group_symop_operation_xyz
x,y,z
-x,1/2-y,z
x,-y,-z
-x,1/2+y,-z
-x,-y,-z
x,1/2+y,-z
-x,y,z
x,1/2-y,z
1/2+x,1/2+y,1/2+z
1/2-x,-y,1/2+z
1/2+x,1/2-y,1/2-z
1/2-x,y,1/2-z
1/2-x,1/2-y,1/2-z
1/2+x,y,1/2-z
1/2-x,1/2+y,1/2+z
1/2+x,-y,1/2+z
loop_
_atom_site_type_symbol
_atom_site_label
_atom_site_fract_x
_atom_site_fract_y
_atom_site_fract_z
Si Si1 0.627639 0.431931 0.536820
Si Si2 0.213949 0.447698 0.309021
Si Si3 0.413110 0.337122 0.438476
Si Si4 0.326728 0.078381 0.656494
Si Si5 0.688615 0.420163 0.984851
Si Si6 0.093791 0.429712 0.722828
Si Si7 0.760655 0.838504 0.595806
Si Si8 0.672216 0.337428 0.872859
O O1 0.589137 0.500000 0.500000
O O2 0.595748 0.357701 0.505913
O O3 0.606687 0.430328 0.604943
O O4 0.723191 0.439776 0.537504
O O5 0.250000 0.416015 0.250000
O O6 0.276756 0.502263 0.339648
O O7 0.131629 0.491996 0.297540
O O8 0.197379 0.376869 0.349590
O O9 0.500000 0.367080 0.414170
O O10 0.413263 0.250000 0.434743
O O11 0.333581 0.366158 0.405162
O O12 0.371353 0.095855 0.715799
O O13 0.265054 0.145908 0.643593
O O14 0.644568 0.378523 0.932115
O O15 0.646271 0.500000 0.000000
O O16 0.691891 0.365219 0.039372
O O17 0.113422 0.364758 0.677644
O O18 0.000000 0.442615 0.728193
O O19 0.768026 0.750000 0.601005
O O20 0.661362 0.250000 0.881789
#
# Coordination Sequence:
#
# PCOD8297762 Si02
#       8
#    16  16  16  16  16  16  16  16
#     4   9  16  27  45  70  97 127 166 205 236 273
#     4   9  18  35  54  73  98 130 169 210 252 302
#     4   9  18  30  42  64 103 140 161 187 235 290
#     4   9  18  32  51  72  99 137 177 209 242 297
#     4   9  16  29  51  76 101 130 168 212 252 296
#     4  10  21  36  53  72  98 134 173 216 266 314
#     4  10  18  30  52  78 101 130 171 212 251 301
#     4  10  19  32  52  77 105 136 172 214 257 305
#
# _framework density 18.439354000000002
#
# number of rings (size 3 to 8) (size 9 to 14) (size 15 to 20)
#    0.000    2.625    0.000    5.250    0.000    5.250 
#    0.000    5.000    0.000    3.750    0.000    0.000 
#    0.000    0.000    0.000    0.000    0.000    0.000 
#
# Total GULP energy -793099.156685 kJ/mol
# GULP energy per Si atom -12392.174323 kJ/mol
# Density = 1.839739 g / cm^3
# Si number density = 18.439354 Si / 1000 Ang^3
#
#
#
# Elastic Constant Matrix: (Units=GPa)
#
#
# Indices 1 2 3 4 5 6 
#
# 1 48.5851 15.8828 19.1707 0.0000 0.0000 0.0000
# 2 15.8828 88.4949 53.1823 0.0000 0.0000 0.0000
# 3 19.1707 53.1823 121.4186 0.0000 0.0000 0.0000
# 4 0.0000 0.0000 0.0000 23.9021 0.0000 0.0000
# 5 0.0000 0.0000 0.0000 0.0000 6.6660 0.0000
# 6 0.0000 0.0000 0.0000 0.0000 0.0000 11.3659
#
#
#
# Elastic Compliance Matrix: (Units=1/GPa)
#
#
# Indices 1 2 3 4 5 6 
#
# 1 0.022372 -0.002569 -0.002407 0.000000 0.000000 0.000000
# 2 -0.002569 0.015632 -0.006441 0.000000 0.000000 0.000000
# 3 -0.002407 -0.006441 0.011437 0.000000 0.000000 0.000000
# 4 0.000000 0.000000 0.000000 0.041837 0.000000 0.000000
# 5 0.000000 0.000000 0.000000 0.000000 0.150016 0.000000
# 6 0.000000 0.000000 0.000000 0.000000 0.000000 0.087983
#
#
# Mechanical properties :
#
#
# Convention : Reuss Voigt Hill
#
# Bulk Modulus (GPa) = 37.58403 48.33002 42.95703
# Shear Modulus (GPa) = 13.85114 19.73764 16.79439
#
# Velocity S-wave (km/s) = 2.74373 3.27526 3.02120
# Velocity P-wave (km/s) = 5.51943 6.36948 5.95963
#
# Compressibility (1/GPa) = 0.02660704
#
# Stress axis : x y z
#
# Youngs Moduli (GPa) = 44.69874 63.97058 87.43196
#
# Poissons Ratio (x) = 0.16431 0.21047
# Poissons Ratio (y) = 0.11481 0.56319
# Poissons Ratio (z) = 0.10760 0.41206
#
# Static dielectric constant tensor:
#      x y z
#    x 3.245590 0.000000 0.000000 
#    y 0.000000 3.278230 0.000000 
#    z 0.000000 0.000000 3.650380 
# 
# 
# High freq. dielectric constant tensor:
#      x y z
#    x 1.669400 0.000000 0.000000 
#    y 0.000000 1.708370 0.000000 
#    z 0.000000 0.000000 1.723250 
# 
# From -- ./inp_files/61128.got.cif
#   From: 2010.03.12/outbox.cif.g09.slc.cpg/sg74_31_cif.got.tgz:61128.got - 2010.04.16 15:46:19.
