data_PCOD8297338
_publ_section_title
;
Structure prediction by ZEFSAII (Michael W. Deem and Ramdas Pophale) SiO2 
 PCOD8297338
Probable space group: I M M A
;
_chemical_formula_sum "Si O2"
_cell_formula_units_Z 96
_cell_length_a 23.307625
_cell_length_b 14.311965
_cell_length_c 14.009030
_cell_angle_alpha 90.000000
_cell_angle_beta 90.000000
_cell_angle_gamma 90.000000
_cell_volume 4673.102994
_symmetry_space_group_name_H-M "I M M A"
_symmetry_group_IT_number 74
_symmetry_cell_setting 'orthorhombic'
loop_
_space_group_symop_operation_xyz
x,y,z
-x,1/2-y,z
x,-y,-z
-x,1/2+y,-z
-x,-y,-z
x,1/2+y,-z
-x,y,z
x,1/2-y,z
1/2+x,1/2+y,1/2+z
1/2-x,-y,1/2+z
1/2+x,1/2-y,1/2-z
1/2-x,y,1/2-z
1/2-x,1/2-y,1/2-z
1/2+x,y,1/2-z
1/2-x,1/2+y,1/2+z
1/2+x,-y,1/2+z
loop_
_atom_site_type_symbol
_atom_site_label
_atom_site_fract_x
_atom_site_fract_y
_atom_site_fract_z
Si Si1 0.902207 0.049295 0.406418
Si Si2 0.703305 0.932352 0.129397
Si Si3 0.331483 0.928780 0.343292
Si Si4 0.405923 0.250000 0.336421
Si Si5 0.845239 0.750000 0.039254
Si Si6 0.787274 0.750000 0.482752
Si Si7 0.628341 0.750000 0.867272
Si Si8 0.938144 0.954120 0.801656
O O1 0.906656 0.161318 0.408421
O O2 0.934056 0.017283 0.309963
O O3 0.930710 0.000000 0.500000
O O4 0.834875 0.019981 0.403234
O O5 0.685177 0.902774 0.235882
O O6 0.770161 0.962300 0.113176
O O7 0.687692 0.841075 0.069209
O O8 0.358799 0.840446 0.397217
O O9 0.381201 0.007096 0.354654
O O10 0.379835 0.250000 0.441373
O O11 0.361336 0.250000 0.247058
O O12 0.442840 0.343460 0.321382
O O13 0.779814 0.750000 0.012031
O O14 0.807737 0.750000 0.591624
O O15 0.000000 0.995435 0.837368
#
# Coordination Sequence:
#
# PCOD8297338 Si02
#       8
#    16  16  16   8   8   8   8  16
#     4  10  19  34  58  88 116 147 183 228 284 355
#     4   9  17  32  56  87 120 150 178 225 292 344
#     4   9  19  36  58  85 114 148 190 236 284 337
#     4  10  23  40  55  76 113 151 197 238 283 334
#     4  10  21  36  56  86 112 150 194 240 277 332
#     4  10  17  29  56  86 117 154 182 222 278 354
#     4  10  20  33  51  82 118 154 177 221 282 344
#     4  10  22  41  61  80 110 151 195 245 285 328
#
# _framework density 20.543095000000001
#
# number of rings (size 3 to 8) (size 9 to 14) (size 15 to 20)
#    0.000    2.333    1.667    0.750    0.000    4.667 
#    0.000    6.250    0.000    0.000    0.000    0.000 
#    0.000    0.000    0.000    0.000    0.000    0.000 
#
# Total GULP energy -594635.830990 kJ/mol
# GULP energy per Si atom -12388.246479 kJ/mol
# Density = 2.049634 g / cm^3
# Si number density = 20.543095 Si / 1000 Ang^3
#
#
#
# Elastic Constant Matrix: (Units=GPa)
#
#
# Indices 1 2 3 4 5 6 
#
# 1 98.3887 48.5258 18.5530 0.0000 0.0000 0.0000
# 2 48.5258 102.1501 28.7368 0.0000 0.0000 0.0000
# 3 18.5530 28.7368 86.0278 0.0000 0.0000 0.0000
# 4 0.0000 0.0000 0.0000 25.6448 0.0000 0.0000
# 5 0.0000 0.0000 0.0000 0.0000 10.0668 0.0000
# 6 0.0000 0.0000 0.0000 0.0000 0.0000 8.5586
#
#
#
# Elastic Compliance Matrix: (Units=1/GPa)
#
#
# Indices 1 2 3 4 5 6 
#
# 1 0.013328 -0.006096 -0.000838 0.000000 0.000000 0.000000
# 2 -0.006096 0.013593 -0.003226 0.000000 0.000000 0.000000
# 3 -0.000838 -0.003226 0.012883 0.000000 0.000000 0.000000
# 4 0.000000 0.000000 0.000000 0.038994 0.000000 0.000000
# 5 0.000000 0.000000 0.000000 0.000000 0.099336 0.000000
# 6 0.000000 0.000000 0.000000 0.000000 0.000000 0.116842
#
#
# Mechanical properties :
#
#
# Convention : Reuss Voigt Hill
#
# Bulk Modulus (GPa) = 51.32450 53.13310 52.22880
# Shear Modulus (GPa) = 15.53806 21.57077 18.55442
#
# Velocity S-wave (km/s) = 2.75319 3.24392 3.00858
# Velocity P-wave (km/s) = 5.92831 6.32069 6.12764
#
# Compressibility (1/GPa) = 0.01948387
#
# Stress axis : x y z
#
# Youngs Moduli (GPa) = 75.02860 73.56860 77.62464
#
# Poissons Ratio (x) = 0.44845 0.06506
# Poissons Ratio (y) = 0.45735 0.25041
# Poissons Ratio (z) = 0.06289 0.23733
#
# Static dielectric constant tensor:
#      x y z
#    x 3.506870 0.000000 0.000000 
#    y 0.000000 3.796750 0.000000 
#    z 0.000000 0.000000 3.948500 
# 
# 
# High freq. dielectric constant tensor:
#      x y z
#    x 1.779550 0.000000 0.000000 
#    y 0.000000 1.798980 0.000000 
#    z 0.000000 0.000000 1.807500 
# 
# From -- ./inp_files/36464.got.cif
#   From: 2010.03.12/outbox.cif.g09.slc.cpg/sg74_19_cif.got.tgz:36464.got - 2010.04.16 15:46:19.
