data_PCOD8297548
_publ_section_title
;
Structure prediction by ZEFSAII (Michael W. Deem and Ramdas Pophale) SiO2 
 PCOD8297548
Probable space group: I M M A
;
_chemical_formula_sum "Si O2"
_cell_formula_units_Z 72
_cell_length_a 7.717271
_cell_length_b 19.021828
_cell_length_c 31.089257
_cell_angle_alpha 90.000000
_cell_angle_beta 90.000000
_cell_angle_gamma 90.000000
_cell_volume 4563.797274
_symmetry_space_group_name_H-M "I M M A"
_symmetry_group_IT_number 74
_symmetry_cell_setting 'orthorhombic'
loop_
_space_group_symop_operation_xyz
x,y,z
-x,1/2-y,z
x,-y,-z
-x,1/2+y,-z
-x,-y,-z
x,1/2+y,-z
-x,y,z
x,1/2-y,z
1/2+x,1/2+y,1/2+z
1/2-x,-y,1/2+z
1/2+x,1/2-y,1/2-z
1/2-x,y,1/2-z
1/2-x,1/2-y,1/2-z
1/2+x,y,1/2-z
1/2-x,1/2+y,1/2+z
1/2+x,-y,1/2+z
loop_
_atom_site_type_symbol
_atom_site_label
_atom_site_fract_x
_atom_site_fract_y
_atom_site_fract_z
Si Si1 0.500000 0.521713 0.431462
Si Si2 0.805925 0.461431 0.383383
Si Si3 0.303300 0.670698 0.940501
Si Si4 0.000000 0.886629 0.991089
Si Si5 0.702554 0.250000 0.298926
Si Si6 0.795631 0.401599 0.200748
O O1 0.672357 0.518622 0.402066
O O2 0.500000 0.457761 0.464254
O O3 0.500000 0.594575 0.458160
O O4 0.761982 0.384124 0.402444
O O5 0.788814 0.457942 0.331567
O O6 0.000000 0.485405 0.395760
O O7 0.500000 0.661011 0.957491
O O8 0.275002 0.750000 0.922538
O O9 0.172865 0.657629 0.980219
O O10 0.500000 0.250000 0.306759
O O11 0.750000 0.250000 0.250000
O O12 0.778018 0.324774 0.315334
O O13 0.750000 0.419716 0.250000
O O14 0.000000 0.404011 0.195275
#
# Coordination Sequence:
#
# PCOD8297548 Si02
#       6
#     8  16  16   8   8  16
#     4   9  18  32  44  62  82 104 146 188 216 263
#     4  10  19  30  43  61  83 112 144 184 224 253
#     4   9  18  30  44  66  89 110 140 173 216 270
#     4   9  17  30  48  62  81 111 140 178 226 257
#     4   8  16  26  36  50  70  98 132 174 218 256
#     4  10  18  29  40  56  79 108 145 184 223 264
#
# _framework density 15.776335
#
# number of rings (size 3 to 8) (size 9 to 14) (size 15 to 20)
#    0.000    2.667    1.111    1.000    1.556    1.778 
#    0.000    4.444    0.000    0.000    0.000    0.000 
#    0.000    0.000    0.000    0.000    0.000    4.444 
#
# Total GULP energy -446001.847761 kJ/mol
# GULP energy per Si atom -12388.940216 kJ/mol
# Density = 1.574043 g / cm^3
# Si number density = 15.776335 Si / 1000 Ang^3
#
#
#
# Elastic Constant Matrix: (Units=GPa)
#
#
# Indices 1 2 3 4 5 6 
#
# 1 89.2227 13.7275 32.5021 0.0000 0.0000 0.0000
# 2 13.7275 16.4506 19.1148 0.0000 0.0000 0.0000
# 3 32.5021 19.1148 80.8703 0.0000 0.0000 0.0000
# 4 0.0000 0.0000 0.0000 22.7613 0.0000 0.0000
# 5 0.0000 0.0000 0.0000 0.0000 21.5016 0.0000
# 6 0.0000 0.0000 0.0000 0.0000 0.0000 13.7099
#
#
#
# Elastic Compliance Matrix: (Units=1/GPa)
#
#
# Indices 1 2 3 4 5 6 
#
# 1 0.013680 -0.006931 -0.003860 0.000000 0.000000 0.000000
# 2 -0.006931 0.087316 -0.017853 0.000000 0.000000 0.000000
# 3 -0.003860 -0.017853 0.018137 0.000000 0.000000 0.000000
# 4 0.000000 0.000000 0.000000 0.043934 0.000000 0.000000
# 5 0.000000 0.000000 0.000000 0.000000 0.046508 0.000000
# 6 0.000000 0.000000 0.000000 0.000000 0.000000 0.072940
#
#
# Mechanical properties :
#
#
# Convention : Reuss Voigt Hill
#
# Bulk Modulus (GPa) = 16.16927 35.24803 25.70865
# Shear Modulus (GPa) = 13.87281 19.67451 16.77366
#
# Velocity S-wave (km/s) = 2.96859 3.53525 3.26424
# Velocity P-wave (km/s) = 4.69269 6.24939 5.52613
#
# Compressibility (1/GPa) = 0.06184573
#
# Stress axis : x y z
#
# Youngs Moduli (GPa) = 73.09736 11.45268 55.13721
#
# Poissons Ratio (x) = 0.07938 0.21283
# Poissons Ratio (y) = 0.50662 0.98435
# Poissons Ratio (z) = 0.28216 0.20446
#
# Static dielectric constant tensor:
#      x y z
#    x 3.375760 0.000000 0.000000 
#    y 0.000000 4.624150 0.000000 
#    z 0.000000 0.000000 2.942870 
# 
# 
# High freq. dielectric constant tensor:
#      x y z
#    x 1.623980 0.000000 0.000000 
#    y 0.000000 1.538130 0.000000 
#    z 0.000000 0.000000 1.585850 
# 
# From -- ./inp_files/64173.got.cif
#   From: 2010.03.12/outbox.cif.g09.slc.cpg/sg74_33_cif.got.tgz:64173.got - 2010.04.16 15:46:19.
