data_PCOD8297558
_publ_section_title
;
Structure prediction by ZEFSAII (Michael W. Deem and Ramdas Pophale) SiO2 
 PCOD8297558
Probable space group: I M M A
;
_chemical_formula_sum "Si O2"
_cell_formula_units_Z 96
_cell_length_a 28.588010
_cell_length_b 8.735218
_cell_length_c 28.592355
_cell_angle_alpha 90.000000
_cell_angle_beta 90.000000
_cell_angle_gamma 90.000000
_cell_volume 7140.154358
_symmetry_space_group_name_H-M "I M M A"
_symmetry_group_IT_number 74
_symmetry_cell_setting 'orthorhombic'
loop_
_space_group_symop_operation_xyz
x,y,z
-x,1/2-y,z
x,-y,-z
-x,1/2+y,-z
-x,-y,-z
x,1/2+y,-z
-x,y,z
x,1/2-y,z
1/2+x,1/2+y,1/2+z
1/2-x,-y,1/2+z
1/2+x,1/2-y,1/2-z
1/2-x,y,1/2-z
1/2-x,1/2-y,1/2-z
1/2+x,y,1/2-z
1/2-x,1/2+y,1/2+z
1/2+x,-y,1/2+z
loop_
_atom_site_type_symbol
_atom_site_label
_atom_site_fract_x
_atom_site_fract_y
_atom_site_fract_z
Si Si1 0.819450 0.078064 0.227331
Si Si2 0.765848 0.576737 0.675231
Si Si3 0.000000 0.069273 0.404351
Si Si4 0.904854 0.567648 0.719698
Si Si5 0.089413 0.572857 0.451491
Si Si6 0.149951 0.575178 0.363527
Si Si7 0.500000 0.930835 0.198459
O O1 0.826616 0.250000 0.209809
O O2 0.793939 0.077996 0.276787
O O3 0.785799 0.002148 0.187314
O O4 0.870818 0.006005 0.237876
O O5 0.760934 0.750000 0.656045
O O6 0.795509 0.476941 0.638371
O O7 0.000000 0.250000 0.396885
O O8 0.045025 0.019614 0.433209
O O9 0.000000 0.990814 0.354092
O O10 0.909694 0.750000 0.721551
O O11 0.883606 0.525098 0.669304
O O12 0.954928 0.489888 0.726659
O O13 0.106144 0.500000 0.500000
O O14 0.075363 0.750000 0.457678
O O15 0.132986 0.554589 0.416471
O O16 0.145963 0.750000 0.346750
O O17 0.500000 0.750000 0.196854
#
# Coordination Sequence:
#
# PCOD8297558 Si02
#       7
#    16  16   8  16  16  16   8
#     4   7  12  23  39  58  75  93 119 149 174 208
#     4   8  13  24  41  57  75  96 118 143 175 219
#     4  12  23  35  50  60  69  92 126 156 198 245
#     4  10  18  29  44  57  72  98 128 151 182 226
#     4  11  23  36  47  58  76  95 121 160 200 237
#     4  10  19  29  41  58  78  95 115 152 192 226
#     4  12  22  31  41  58  80  98 123 160 197 229
#
# _framework density 13.445086999999999
#
# number of rings (size 3 to 8) (size 9 to 14) (size 15 to 20)
#    0.000    2.333    1.667    5.250    0.000    2.000 
#    0.000    7.500    0.000    0.000    0.000    0.000 
#    0.000    0.000    0.000    0.000    0.000    0.000 
#
# Total GULP energy -594650.932300 kJ/mol
# GULP energy per Si atom -12388.561090 kJ/mol
# Density = 1.341449 g / cm^3
# Si number density = 13.445087 Si / 1000 Ang^3
#
#
#
# Elastic Constant Matrix: (Units=GPa)
#
#
# Indices 1 2 3 4 5 6 
#
# 1 111.1088 41.3581 48.8909 0.0000 0.0000 0.0000
# 2 41.3581 73.9582 22.0360 0.0000 0.0000 0.0000
# 3 48.8909 22.0360 35.7743 0.0000 0.0000 0.0000
# 4 0.0000 0.0000 0.0000 14.5237 0.0000 0.0000
# 5 0.0000 0.0000 0.0000 0.0000 7.3484 0.0000
# 6 0.0000 0.0000 0.0000 0.0000 0.0000 18.5291
#
#
#
# Elastic Compliance Matrix: (Units=1/GPa)
#
#
# Indices 1 2 3 4 5 6 
#
# 1 0.023697 -0.004412 -0.029668 0.000000 0.000000 0.000000
# 2 -0.004412 0.017382 -0.004677 0.000000 0.000000 0.000000
# 3 -0.029668 -0.004677 0.071380 0.000000 0.000000 0.000000
# 4 0.000000 0.000000 0.000000 0.068853 0.000000 0.000000
# 5 0.000000 0.000000 0.000000 0.000000 0.136084 0.000000
# 6 0.000000 0.000000 0.000000 0.000000 0.000000 0.053969
#
#
# Mechanical properties :
#
#
# Convention : Reuss Voigt Hill
#
# Bulk Modulus (GPa) = 28.61669 49.49013 39.05341
# Shear Modulus (GPa) = 10.85708 15.31732 13.08720
#
# Velocity S-wave (km/s) = 2.84476 3.37894 3.12329
# Velocity P-wave (km/s) = 5.66750 7.21886 6.48970
#
# Compressibility (1/GPa) = 0.03494464
#
# Stress axis : x y z
#
# Youngs Moduli (GPa) = 42.19879 57.53094 14.00950
#
# Poissons Ratio (x) = 0.25383 0.41564
# Poissons Ratio (y) = 0.18618 0.06552
# Poissons Ratio (z) = 1.25197 0.26908
#
# Static dielectric constant tensor:
#      x y z
#    x 3.183690 0.000000 0.000000 
#    y 0.000000 2.730970 0.000000 
#    z 0.000000 0.000000 2.490560 
# 
# 
# High freq. dielectric constant tensor:
#      x y z
#    x 1.511020 0.000000 0.000000 
#    y 0.000000 1.514860 0.000000 
#    z 0.000000 0.000000 1.456330 
# 
# From -- ./inp_files/73997.got.cif
#   From: 2010.03.12/outbox.cif.g09.slc.cpg/sg74_37_cif.got.tgz:73997.got - 2010.04.16 15:46:19.
