data_PCOD8297163
_publ_section_title
;
Structure prediction by ZEFSAII (Michael W. Deem and Ramdas Pophale) SiO2 
 PCOD8297163
Probable space group: I M M A
;
_chemical_formula_sum "Si O2"
_cell_formula_units_Z 64
_cell_length_a 14.722420
_cell_length_b 24.471591
_cell_length_c 8.843228
_cell_angle_alpha 90.000000
_cell_angle_beta 90.000000
_cell_angle_gamma 90.000000
_cell_volume 3186.047388
_symmetry_space_group_name_H-M "I M M A"
_symmetry_group_IT_number 74
_symmetry_cell_setting 'orthorhombic'
loop_
_space_group_symop_operation_xyz
x,y,z
-x,1/2-y,z
x,-y,-z
-x,1/2+y,-z
-x,-y,-z
x,1/2+y,-z
-x,y,z
x,1/2-y,z
1/2+x,1/2+y,1/2+z
1/2-x,-y,1/2+z
1/2+x,1/2-y,1/2-z
1/2-x,y,1/2-z
1/2-x,1/2-y,1/2-z
1/2+x,y,1/2-z
1/2-x,1/2+y,1/2+z
1/2+x,-y,1/2+z
loop_
_atom_site_type_symbol
_atom_site_label
_atom_site_fract_x
_atom_site_fract_y
_atom_site_fract_z
Si Si1 0.893258 0.631943 0.935560
Si Si2 0.402777 0.750000 0.538343
Si Si3 0.894207 0.136364 0.417461
Si Si4 0.254413 0.941276 0.072284
Si Si5 0.842712 0.750000 0.652556
O O1 0.874694 0.623663 0.758180
O O2 0.000000 0.627795 0.971736
O O3 0.853950 0.691606 0.995180
O O4 0.840775 0.584821 0.021749
O O5 0.500000 0.750000 0.455668
O O6 0.421943 0.750000 0.720446
O O7 0.840462 0.094538 0.522707
O O8 0.855237 0.196930 0.453293
O O9 0.000000 0.131616 0.458634
O O10 0.250000 0.947693 0.250000
O O11 0.266103 0.000000 0.000000
O O12 0.750000 0.750000 0.750000
#
# Coordination Sequence:
#
# PCOD8297163 Si02
#       5
#    16   8  16  16   8
#     4   9  18  36  63  91 118 150 190 238 291 350
#     4   8  14  28  54  87 117 145 180 220 271 340
#     4  10  20  37  62  91 122 156 195 240 292 352
#     4  12  26  42  59  80 112 154 203 254 302 358
#     4  10  16  28  58  93 125 153 186 230 279 342
#
# _framework density 20.087585000000001
#
# number of rings (size 3 to 8) (size 9 to 14) (size 15 to 20)
#    0.000    2.000    0.000    7.875    0.000    2.000 
#    0.000    2.500    0.000    3.000    0.000    0.000 
#    0.000    0.000    0.000    0.000    0.000    0.000 
#
# Total GULP energy -396481.273355 kJ/mol
# GULP energy per Si atom -12390.039792 kJ/mol
# Density = 2.004186 g / cm^3
# Si number density = 20.087585 Si / 1000 Ang^3
#
#
#
# Elastic Constant Matrix: (Units=GPa)
#
#
# Indices 1 2 3 4 5 6 
#
# 1 124.5108 67.2892 49.3156 0.0002 0.0002 -0.0001
# 2 67.2892 183.8770 68.0701 0.0004 -0.0001 0.0000
# 3 49.3156 68.0701 102.2481 0.0049 -0.0021 0.0009
# 4 0.0002 0.0004 0.0049 31.8200 -0.0004 0.0002
# 5 0.0002 -0.0001 -0.0021 -0.0004 28.5169 0.0000
# 6 -0.0001 0.0000 0.0009 0.0002 0.0000 22.5048
#
#
#
# Elastic Compliance Matrix: (Units=1/GPa)
#
#
# Indices 1 2 3 4 5 6 
#
# 1 0.010851 -0.002699 -0.003437 0.000001 0.000000 0.000000
# 2 -0.002699 0.007888 -0.003950 0.000001 0.000000 0.000000
# 3 -0.003437 -0.003950 0.014067 -0.000002 0.000001 -0.000001
# 4 0.000001 0.000001 -0.000002 0.031427 0.000000 0.000000
# 5 0.000000 0.000000 0.000001 0.000000 0.035067 0.000000
# 6 0.000000 0.000000 -0.000001 0.000000 0.000000 0.044435
#
#
# Mechanical properties :
#
#
# Convention : Reuss Voigt Hill
#
# Bulk Modulus (GPa) = 79.14100 86.66509 82.90304
# Shear Modulus (GPa) = 29.74091 31.63240 30.68666
#
# Velocity S-wave (km/s) = 3.85198 3.97258 3.91275
# Velocity P-wave (km/s) = 7.69852 8.01743 7.85959
#
# Compressibility (1/GPa) = 0.01263568
#
# Stress axis : x y z
#
# Youngs Moduli (GPa) = 92.15595 126.77225 71.08588
#
# Poissons Ratio (x) = 0.34210 0.24433
# Poissons Ratio (y) = 0.24869 0.28078
# Poissons Ratio (z) = 0.31675 0.50074
#
# Static dielectric constant tensor:
#      x y z
#    x 3.733260 0.000000 0.000000 
#    y 0.000000 3.947400 0.000000 
#    z 0.000000 0.000000 3.256720 
# 
# 
# High freq. dielectric constant tensor:
#      x y z
#    x 1.797100 0.000000 0.000000 
#    y 0.000000 1.796850 0.000000 
#    z 0.000000 0.000000 1.734100 
# 
# From -- ./inp_files/8882.got.cif
#   From: 2010.03.12/outbox.cif.g09.slc.cpg/sg74_5_cif.got.tgz:8882.got - 2010.04.16 15:46:19.
