data_PCOD8297259
_publ_section_title
;
Structure prediction by ZEFSAII (Michael W. Deem and Ramdas Pophale) SiO2 
 PCOD8297259
Probable space group: I M M A
;
_chemical_formula_sum "Si O2"
_cell_formula_units_Z 72
_cell_length_a 25.031612
_cell_length_b 13.770920
_cell_length_c 12.743886
_cell_angle_alpha 90.000000
_cell_angle_beta 90.000000
_cell_angle_gamma 90.000000
_cell_volume 4392.923614
_symmetry_space_group_name_H-M "I M M A"
_symmetry_group_IT_number 74
_symmetry_cell_setting 'orthorhombic'
loop_
_space_group_symop_operation_xyz
x,y,z
-x,1/2-y,z
x,-y,-z
-x,1/2+y,-z
-x,-y,-z
x,1/2+y,-z
-x,y,z
x,1/2-y,z
1/2+x,1/2+y,1/2+z
1/2-x,-y,1/2+z
1/2+x,1/2-y,1/2-z
1/2-x,y,1/2-z
1/2-x,1/2-y,1/2-z
1/2+x,y,1/2-z
1/2-x,1/2+y,1/2+z
1/2+x,-y,1/2+z
loop_
_atom_site_type_symbol
_atom_site_label
_atom_site_fract_x
_atom_site_fract_y
_atom_site_fract_z
Si Si1 0.207343 0.359492 0.162482
Si Si2 0.442224 0.963632 0.117139
Si Si3 0.842200 0.359557 0.547415
Si Si4 0.254380 0.500000 0.000000
Si Si5 0.887006 0.642043 0.683760
O O1 0.216382 0.250000 0.119473
O O2 0.250000 0.384920 0.250000
O O3 0.214455 0.435494 0.069107
O O4 0.149212 0.369503 0.213619
O O5 0.500000 0.918287 0.151486
O O6 0.393589 0.886652 0.119925
O O7 0.431264 0.057670 0.190451
O O8 0.447394 0.000000 0.000000
O O9 0.826339 0.250000 0.575815
O O10 0.792313 0.430265 0.571577
O O11 0.853067 0.371837 0.423145
O O12 0.913285 0.750000 0.682079
#
# Coordination Sequence:
#
# PCOD8297259 Si02
#       5
#    16  16  16   8  16
#     4  10  18  29  47  67  89 122 161 196 236 275
#     4   9  16  27  42  65  93 120 146 179 231 284
#     4  10  17  27  42  62  89 120 152 186 221 267
#     4  12  18  28  45  68  91 124 160 196 234 274
#     4   9  16  28  44  64  88 115 150 189 225 265
#
# _framework density 16.389996
#
# number of rings (size 3 to 8) (size 9 to 14) (size 15 to 20)
#    0.000    2.222    5.556    0.667    0.000    0.889 
#    0.000    4.444    0.000   12.000    0.000    0.778 
#    0.000    0.000    0.000    0.000    0.000    0.000 
#
# Total GULP energy -446092.151752 kJ/mol
# GULP energy per Si atom -12391.448660 kJ/mol
# Density = 1.635269 g / cm^3
# Si number density = 16.389996 Si / 1000 Ang^3
#
#
#
# Elastic Constant Matrix: (Units=GPa)
#
#
# Indices 1 2 3 4 5 6 
#
# 1 51.9683 31.7926 24.0295 0.0000 0.0000 0.0000
# 2 31.7926 110.0507 36.7629 0.0000 0.0000 0.0000
# 3 24.0295 36.7629 41.6553 0.0000 0.0000 0.0000
# 4 0.0000 0.0000 0.0000 28.3551 0.0000 0.0000
# 5 0.0000 0.0000 0.0000 0.0000 -3.0119 0.0000
# 6 0.0000 0.0000 0.0000 0.0000 0.0000 20.7746
#
#
#
# Elastic Compliance Matrix: (Units=1/GPa)
#
#
# Indices 1 2 3 4 5 6 
#
# 1 0.027276 -0.003720 -0.012451 0.000000 0.000000 0.000000
# 2 -0.003720 0.013393 -0.009674 0.000000 0.000000 0.000000
# 3 -0.012451 -0.009674 0.039727 0.000000 0.000000 0.000000
# 4 0.000000 0.000000 0.000000 0.035267 0.000000 0.000000
# 5 0.000000 0.000000 0.000000 0.000000 -0.332019 0.000000
# 6 0.000000 0.000000 0.000000 0.000000 0.000000 0.048136
#
#
# Mechanical properties :
#
#
# Convention : Reuss Voigt Hill
#
# Bulk Modulus (GPa) = 34.83712 43.20494 39.02103
# Shear Modulus (GPa) = -46.74597 16.62951 -15.05823
#
# Velocity S-wave (km/s) = -5.34630 3.18875 -3.03437
# Velocity P-wave (km/s) = 4.09992 6.32260 3.40338
#
# Compressibility (1/GPa) = 0.02870501
#
# Stress axis : x y z
#
# Youngs Moduli (GPa) = 36.66264 74.66512 25.17191
#
# Poissons Ratio (x) = 0.27778 0.31342
# Poissons Ratio (y) = 0.13640 0.24351
# Poissons Ratio (z) = 0.45649 0.72231
#
# Static dielectric constant tensor:
#      x y z
#    x 3.329000 0.000000 0.000000 
#    y 0.000000 3.312800 0.000000 
#    z 0.000000 0.000000 2.711720 
# 
# 
# High freq. dielectric constant tensor:
#      x y z
#    x 1.614720 0.000000 0.000000 
#    y 0.000000 1.644070 0.000000 
#    z 0.000000 0.000000 1.560390 
# 
# From -- ./inp_files/24802.got.cif
#   From: 2010.03.12/outbox.cif.g09.slc.cpg/sg74_13_cif.got.tgz:24802.got - 2010.04.16 15:46:19.
