data_PCOD8297284
_publ_section_title
;
Structure prediction by ZEFSAII (Michael W. Deem and Ramdas Pophale) SiO2 
 PCOD8297284
Probable space group: I M M A
;
_chemical_formula_sum "Si O2"
_cell_formula_units_Z 80
_cell_length_a 8.814026
_cell_length_b 18.140200
_cell_length_c 25.883909
_cell_angle_alpha 90.000000
_cell_angle_beta 90.000000
_cell_angle_gamma 90.000000
_cell_volume 4138.531475
_symmetry_space_group_name_H-M "I M M A"
_symmetry_group_IT_number 74
_symmetry_cell_setting 'orthorhombic'
loop_
_space_group_symop_operation_xyz
x,y,z
-x,1/2-y,z
x,-y,-z
-x,1/2+y,-z
-x,-y,-z
x,1/2+y,-z
-x,y,z
x,1/2-y,z
1/2+x,1/2+y,1/2+z
1/2-x,-y,1/2+z
1/2+x,1/2-y,1/2-z
1/2-x,y,1/2-z
1/2-x,1/2-y,1/2-z
1/2+x,y,1/2-z
1/2-x,1/2+y,1/2+z
1/2+x,-y,1/2+z
loop_
_atom_site_type_symbol
_atom_site_label
_atom_site_fract_x
_atom_site_fract_y
_atom_site_fract_z
Si Si1 0.678640 0.569137 0.698909
Si Si2 0.322901 0.571106 0.904819
Si Si3 0.674466 0.664674 0.507732
Si Si4 0.173836 0.400724 0.587664
Si Si5 0.676128 0.409700 0.798586
O O1 0.500000 0.577413 0.701399
O O2 0.750000 0.608303 0.750000
O O3 0.738258 0.604825 0.645427
O O4 0.729862 0.484721 0.698381
O O5 0.500000 0.577431 0.893922
O O6 0.279119 0.617395 0.954778
O O7 0.277647 0.486304 0.914921
O O8 0.500000 0.643609 0.516762
O O9 0.704470 0.750000 0.518755
O O10 0.718369 0.646751 0.448842
O O11 0.194344 0.369113 0.646237
O O12 0.000000 0.391550 0.569649
O O13 0.500000 0.427230 0.787954
O O14 0.750000 0.364207 0.750000
#
# Coordination Sequence:
#
# PCOD8297284 Si02
#       5
#    16  16  16  16  16
#     4  10  17  27  46  74 107 138 168 205 251 300
#     4  10  20  35  55  79 105 134 172 214 256 305
#     4  11  24  38  52  74 103 135 173 215 259 309
#     4   9  19  34  53  78 105 134 171 213 254 302
#     4   9  16  27  45  73 106 135 167 207 252 303
#
# _framework density 19.330528999999999
#
# number of rings (size 3 to 8) (size 9 to 14) (size 15 to 20)
#    0.000    2.200    0.000    6.600    0.000    8.800 
#    0.000    0.000    0.000    1.200    0.000    0.000 
#    0.000    0.000    0.000    0.000    0.000    0.000 
#
# Total GULP energy -495825.916932 kJ/mol
# GULP energy per Si atom -12395.647923 kJ/mol
# Density = 1.928653 g / cm^3
# Si number density = 19.330529 Si / 1000 Ang^3
#
#
#
# Elastic Constant Matrix: (Units=GPa)
#
#
# Indices 1 2 3 4 5 6 
#
# 1 105.7682 17.0517 38.8205 0.0000 0.0000 0.0000
# 2 17.0517 18.5721 4.0331 0.0000 0.0000 0.0000
# 3 38.8205 4.0331 112.8380 0.0000 0.0000 0.0000
# 4 0.0000 0.0000 0.0000 0.0075 0.0000 0.0000
# 5 0.0000 0.0000 0.0000 0.0000 42.2585 0.0000
# 6 0.0000 0.0000 0.0000 0.0000 0.0000 17.8385
#
#
#
# Elastic Compliance Matrix: (Units=1/GPa)
#
#
# Indices 1 2 3 4 5 6 
#
# 1 0.012643 -0.010746 -0.003965 -0.000018 0.000000 0.000000
# 2 -0.010746 0.063400 0.001431 0.000099 0.000000 0.000000
# 3 -0.003965 0.001431 0.010175 -0.000005 0.000000 0.000000
# 4 -0.000018 0.000099 -0.000005133.568484 0.000000 -0.000003
# 5 0.000000 0.000000 0.000000 0.000000 0.023664 0.000000
# 6 0.000000 0.000000 0.000000 -0.000003 0.000000 0.056058
#
#
# Mechanical properties :
#
#
# Convention : Reuss Voigt Hill
#
# Bulk Modulus (GPa) = 16.76263 39.66542 28.21403
# Shear Modulus (GPa) = 0.03737 23.83911 11.93824
#
# Velocity S-wave (km/s) = 0.13920 3.51556 2.48782
# Velocity P-wave (km/s) = 2.95233 6.08629 4.78326
#
# Compressibility (1/GPa) = 0.05965650
#
# Stress axis : x y z
#
# Youngs Moduli (GPa) = 79.09760 15.77287 98.27651
#
# Poissons Ratio (x) = 0.16950 0.38971
# Poissons Ratio (y) = 0.85002 -0.14065
# Poissons Ratio (z) = 0.31366 -0.02257
#
# Static dielectric constant tensor:
#      x y z
#    x 3.596070 0.000000 0.000000 
#    y 0.000000 2.944960 0.000000 
#    z 0.000000 0.000000 4.434170 
# 
# 
# High freq. dielectric constant tensor:
#      x y z
#    x 1.763890 0.000000 0.000000 
#    y 0.000000 1.681680 0.000000 
#    z 0.000000 0.000000 1.783120 
# 
# From -- ./inp_files/63898.got.cif
#   From: 2010.03.12/outbox.cif.g09.slc.cpg/sg74_32_cif.got.tgz:63898.got - 2010.04.16 15:46:19.
