data_PCOD8297449
_publ_section_title
;
Structure prediction by ZEFSAII (Michael W. Deem and Ramdas Pophale) SiO2 
 PCOD8297449
Probable space group: I M M A
;
_chemical_formula_sum "Si O2"
_cell_formula_units_Z 64
_cell_length_a 14.505397
_cell_length_b 13.337815
_cell_length_c 22.602247
_cell_angle_alpha 90.000000
_cell_angle_beta 90.000000
_cell_angle_gamma 90.000000
_cell_volume 4372.863546
_symmetry_space_group_name_H-M "I M M A"
_symmetry_group_IT_number 74
_symmetry_cell_setting 'orthorhombic'
loop_
_space_group_symop_operation_xyz
x,y,z
-x,1/2-y,z
x,-y,-z
-x,1/2+y,-z
-x,-y,-z
x,1/2+y,-z
-x,y,z
x,1/2-y,z
1/2+x,1/2+y,1/2+z
1/2-x,-y,1/2+z
1/2+x,1/2-y,1/2-z
1/2-x,y,1/2-z
1/2-x,1/2-y,1/2-z
1/2+x,y,1/2-z
1/2-x,1/2+y,1/2+z
1/2+x,-y,1/2+z
loop_
_atom_site_type_symbol
_atom_site_label
_atom_site_fract_x
_atom_site_fract_y
_atom_site_fract_z
Si Si1 0.667249 0.947472 0.909121
Si Si2 0.796622 0.131588 0.186389
Si Si3 0.500000 0.634194 0.839473
Si Si4 0.391563 0.364596 0.970548
Si Si5 0.500000 0.868353 0.712152
O O1 0.757375 0.931654 0.869092
O O2 0.589295 0.891197 0.874610
O O3 0.643178 0.065450 0.916630
O O4 0.671098 0.893492 0.973006
O O5 0.781781 0.250000 0.175803
O O6 0.750000 0.102589 0.250000
O O7 0.904180 0.099454 0.181691
O O8 0.500000 0.750000 0.826070
O O9 0.500000 0.578932 0.776428
O O10 0.500000 0.384584 0.984208
O O11 0.374427 0.250000 0.952199
O O12 0.500000 0.750000 0.717831
#
# Coordination Sequence:
#
# PCOD8297449 Si02
#       5
#    16  16   8  16   8
#     4  11  18  28  44  68  91 123 147 172 226 272
#     4  10  18  27  43  67  94 121 147 178 220 269
#     4  11  16  23  42  68  97 117 140 175 215 271
#     4  10  19  30  44  65  92 118 149 187 221 262
#     4   9  18  28  39  65  97 121 145 177 218 264
#
# _framework density 14.635719
#
# number of rings (size 3 to 8) (size 9 to 14) (size 15 to 20)
#    0.000    1.750    5.000    3.000    0.000    0.000 
#    0.000    0.000    0.000    3.750    0.000    2.625 
#    0.000    0.000    0.000    0.000    0.000    0.000 
#
# Total GULP energy -396457.050539 kJ/mol
# GULP energy per Si atom -12389.282829 kJ/mol
# Density = 1.460241 g / cm^3
# Si number density = 14.635719 Si / 1000 Ang^3
#
#
#
# Elastic Constant Matrix: (Units=GPa)
#
#
# Indices 1 2 3 4 5 6 
#
# 1 100.5123 23.1057 36.9020 0.0000 0.0000 0.0000
# 2 23.1057 73.9698 24.2350 0.0000 0.0000 0.0000
# 3 36.9020 24.2350 65.1406 0.0000 0.0000 0.0000
# 4 0.0000 0.0000 0.0000 8.1700 0.0000 0.0000
# 5 0.0000 0.0000 0.0000 0.0000 50.8793 0.0000
# 6 0.0000 0.0000 0.0000 0.0000 0.0000 17.7078
#
#
#
# Elastic Compliance Matrix: (Units=1/GPa)
#
#
# Indices 1 2 3 4 5 6 
#
# 1 0.012779 -0.001845 -0.006553 0.000000 0.000000 0.000000
# 2 -0.001845 0.015662 -0.004782 0.000000 0.000000 0.000000
# 3 -0.006553 -0.004782 0.020843 0.000000 0.000000 0.000000
# 4 0.000000 0.000000 0.000000 0.122398 0.000000 0.000000
# 5 0.000000 0.000000 0.000000 0.000000 0.019654 0.000000
# 6 0.000000 0.000000 0.000000 0.000000 0.000000 0.056472
#
#
# Mechanical properties :
#
#
# Convention : Reuss Voigt Hill
#
# Bulk Modulus (GPa) = 43.62141 45.34535 44.48338
# Shear Modulus (GPa) = 17.74251 25.71009 21.72630
#
# Velocity S-wave (km/s) = 3.48555 4.19581 3.85706
# Velocity P-wave (km/s) = 6.78736 7.38397 7.09194
#
# Compressibility (1/GPa) = 0.02292452
#
# Stress axis : x y z
#
# Youngs Moduli (GPa) = 78.25378 63.84886 47.97854
#
# Poissons Ratio (x) = 0.11779 0.31440
# Poissons Ratio (y) = 0.14436 0.22943
# Poissons Ratio (z) = 0.51279 0.30532
#
# Static dielectric constant tensor:
#      x y z
#    x 2.768990 0.000000 0.000000 
#    y 0.000000 2.743880 0.000000 
#    z 0.000000 0.000000 2.903650 
# 
# 
# High freq. dielectric constant tensor:
#      x y z
#    x 1.549330 0.000000 0.000000 
#    y 0.000000 1.532670 0.000000 
#    z 0.000000 0.000000 1.552250 
# 
# From -- ./inp_files/42425.got.cif
#   From: 2010.03.12/outbox.cif.g09.slc.cpg/sg74_22_cif.got.tgz:42425.got - 2010.04.16 15:46:19.
