data_PCOD8297262
_publ_section_title
;
Structure prediction by ZEFSAII (Michael W. Deem and Ramdas Pophale) SiO2 
 PCOD8297262
Probable space group: I M M A
;
_chemical_formula_sum "Si O2"
_cell_formula_units_Z 96
_cell_length_a 15.037134
_cell_length_b 18.931323
_cell_length_c 22.122227
_cell_angle_alpha 90.000000
_cell_angle_beta 90.000000
_cell_angle_gamma 90.000000
_cell_volume 6297.597204
_symmetry_space_group_name_H-M "I M M A"
_symmetry_group_IT_number 74
_symmetry_cell_setting 'orthorhombic'
loop_
_space_group_symop_operation_xyz
x,y,z
-x,1/2-y,z
x,-y,-z
-x,1/2+y,-z
-x,-y,-z
x,1/2+y,-z
-x,y,z
x,1/2-y,z
1/2+x,1/2+y,1/2+z
1/2-x,-y,1/2+z
1/2+x,1/2-y,1/2-z
1/2-x,y,1/2-z
1/2-x,1/2-y,1/2-z
1/2+x,y,1/2-z
1/2-x,1/2+y,1/2+z
1/2+x,-y,1/2+z
loop_
_atom_site_type_symbol
_atom_site_label
_atom_site_fract_x
_atom_site_fract_y
_atom_site_fract_z
Si Si1 0.824525 0.978893 0.096432
Si Si2 0.690498 0.169726 0.100490
Si Si3 0.500000 0.169555 0.439630
Si Si4 0.301469 0.459050 0.186625
Si Si5 0.000000 0.053016 0.285147
Si Si6 0.500000 0.465070 0.354264
Si Si7 0.324696 0.386528 0.488222
Si Si8 0.500000 0.671336 0.874983
O O1 0.742161 0.982361 0.142838
O O2 0.916604 0.984308 0.132771
O O3 0.814449 0.905608 0.059234
O O4 0.827956 0.042141 0.049362
O O5 0.707043 0.250000 0.122943
O O6 0.717146 0.117281 0.155238
O O7 0.586844 0.155299 0.084588
O O8 0.742266 0.158098 0.037733
O O9 0.500000 0.250000 0.413379
O O10 0.500000 0.110544 0.387537
O O11 0.586152 0.159099 0.481283
O O12 0.250000 0.457611 0.250000
O O13 0.405898 0.481511 0.192744
O O14 0.000000 0.058326 0.214254
O O15 0.000000 0.131098 0.311640
O O16 0.500000 0.750000 0.850985
#
# Coordination Sequence:
#
# PCOD8297262 Si02
#       8
#    16  16   8  16   8   8  16   8
#     4   9  17  29  44  60  82 116 152 182 215 260
#     4   9  17  29  44  62  86 116 147 182 219 255
#     4  10  19  28  40  64  94 116 143 183 213 251
#     4  10  18  29  43  62  87 116 151 182 213 254
#     4  10  18  28  41  61  87 118 148 179 213 246
#     4  10  17  27  43  61  86 123 152 168 214 263
#     4   9  17  29  43  60  84 117 150 180 219 257
#     4   8  16  29  42  58  84 117 151 180 210 250
#
# _framework density 15.243909
#
# number of rings (size 3 to 8) (size 9 to 14) (size 15 to 20)
#    0.000    2.667    1.667    1.000    0.000    2.667 
#    0.000    0.833    0.000    5.000    0.000    0.000 
#    0.000    2.667    0.000    0.000    0.000    0.000 
#
# Total GULP energy -594627.907275 kJ/mol
# GULP energy per Si atom -12388.081402 kJ/mol
# Density = 1.520921 g / cm^3
# Si number density = 15.243909 Si / 1000 Ang^3
#
#
#
# Elastic Constant Matrix: (Units=GPa)
#
#
# Indices 1 2 3 4 5 6 
#
# 1 137.2525 26.7754 70.2541 0.0000 0.0000 0.0000
# 2 26.7754 26.1654 41.3444 0.0000 0.0000 0.0000
# 3 70.2541 41.3444 88.6013 0.0000 0.0000 0.0000
# 4 0.0000 0.0000 0.0000 16.4468 0.0000 0.0000
# 5 0.0000 0.0000 0.0000 0.0000 18.9549 0.0000
# 6 0.0000 0.0000 0.0000 0.0000 0.0000 13.3549
#
#
#
# Elastic Compliance Matrix: (Units=1/GPa)
#
#
# Indices 1 2 3 4 5 6 
#
# 1 0.013107 0.011457 -0.015739 0.000000 0.000000 0.000000
# 2 0.011457 0.155516 -0.081654 0.000000 0.000000 0.000000
# 3 -0.015739 -0.081654 0.061869 0.000000 0.000000 0.000000
# 4 0.000000 0.000000 0.000000 0.060802 0.000000 0.000000
# 5 0.000000 0.000000 0.000000 0.000000 0.052757 0.000000
# 6 0.000000 0.000000 0.000000 0.000000 0.000000 0.074879
#
#
# Mechanical properties :
#
#
# Convention : Reuss Voigt Hill
#
# Bulk Modulus (GPa) = 17.05884 58.75187 37.90536
# Shear Modulus (GPa) = 8.19213 17.32768 12.75991
#
# Velocity S-wave (km/s) = 2.32071 3.37515 2.89632
# Velocity P-wave (km/s) = 4.28904 7.33578 6.00872
#
# Compressibility (1/GPa) = 0.05862063
#
# Stress axis : x y z
#
# Youngs Moduli (GPa) = 76.29513 6.43019 16.16326
#
# Poissons Ratio (x) = -0.07367 0.25439
# Poissons Ratio (y) = -0.87411 1.31979
# Poissons Ratio (z) = 1.20081 0.52505
#
# Static dielectric constant tensor:
#      x y z
#    x 3.379140 0.000000 0.000000 
#    y 0.000000 2.742780 0.000000 
#    z 0.000000 0.000000 2.884050 
# 
# 
# High freq. dielectric constant tensor:
#      x y z
#    x 1.605400 0.000000 0.000000 
#    y 0.000000 1.541930 0.000000 
#    z 0.000000 0.000000 1.562420 
# 
# From -- ./inp_files/44169.got.cif
#   From: 2010.03.12/outbox.cif.g09.slc.cpg/sg74_23_cif.got.tgz:44169.got - 2010.04.16 15:46:19.
