data_PCOD8297174
_publ_section_title
;
Structure prediction by ZEFSAII (Michael W. Deem and Ramdas Pophale) SiO2 
 PCOD8297174
Probable space group: I M M A
;
_chemical_formula_sum "Si O2"
_cell_formula_units_Z 60
_cell_length_a 18.737663
_cell_length_b 14.288104
_cell_length_c 13.331421
_cell_angle_alpha 90.000000
_cell_angle_beta 90.000000
_cell_angle_gamma 90.000000
_cell_volume 3569.163721
_symmetry_space_group_name_H-M "I M M A"
_symmetry_group_IT_number 74
_symmetry_cell_setting 'orthorhombic'
loop_
_space_group_symop_operation_xyz
x,y,z
-x,1/2-y,z
x,-y,-z
-x,1/2+y,-z
-x,-y,-z
x,1/2+y,-z
-x,y,z
x,1/2-y,z
1/2+x,1/2+y,1/2+z
1/2-x,-y,1/2+z
1/2+x,1/2-y,1/2-z
1/2-x,y,1/2-z
1/2-x,1/2-y,1/2-z
1/2+x,y,1/2-z
1/2-x,1/2+y,1/2+z
1/2+x,-y,1/2+z
loop_
_atom_site_type_symbol
_atom_site_label
_atom_site_fract_x
_atom_site_fract_y
_atom_site_fract_z
Si Si1 0.118737 0.750000 0.870053
Si Si2 0.210541 0.951656 0.603143
Si Si3 0.000000 0.046766 0.891715
Si Si4 0.000000 0.250000 0.965799
Si Si5 0.863120 0.047499 0.197532
Si Si6 0.770569 0.750000 0.631108
O O1 0.110599 0.656373 0.801393
O O2 0.194840 0.750000 0.925538
O O3 0.067107 0.750000 0.962761
O O4 0.162330 0.990602 0.694049
O O5 0.295258 0.963153 0.623049
O O6 0.187772 0.842341 0.597765
O O7 0.188220 0.000000 0.500000
O O8 0.000000 0.158820 0.896229
O O9 0.071551 0.017077 0.834703
O O10 0.000000 0.000000 0.000000
O O11 0.750000 0.750000 0.750000
#
# Coordination Sequence:
#
# PCOD8297174 Si02
#       6
#     8  16   8   4  16   8
#     4  10  16  30  52  76 103 128 175 227 264 302
#     4  10  19  33  55  80 108 144 181 224 271 320
#     4  12  22  34  53  78 109 141 172 227 277 323
#     4  12  24  32  50  84 108 140 172 214 292 316
#     4  10  19  34  52  80 109 136 180 226 267 316
#     4  10  16  32  53  78 105 138 180 235 265 295
#
# _framework density 16.810661
#
# number of rings (size 3 to 8) (size 9 to 14) (size 15 to 20)
#    0.000    1.600    8.000    0.800    3.733    0.000 
#    0.000    2.000    0.000    3.200    0.000    0.000 
#    0.000    0.000    0.000    0.000    0.000    0.000 
#
# Total GULP energy -371713.629358 kJ/mol
# GULP energy per Si atom -12390.454312 kJ/mol
# Density = 1.677240 g / cm^3
# Si number density = 16.810661 Si / 1000 Ang^3
#
#
#
# Elastic Constant Matrix: (Units=GPa)
#
#
# Indices 1 2 3 4 5 6 
#
# 1 95.5020 37.4023 42.8729 0.0000 0.0000 0.0000
# 2 37.4023 119.8083 60.8719 0.0000 0.0000 0.0000
# 3 42.8729 60.8719 110.9749 0.0000 0.0000 0.0000
# 4 0.0000 0.0000 0.0000 27.3597 0.0000 0.0000
# 5 0.0000 0.0000 0.0000 0.0000 14.4870 0.0000
# 6 0.0000 0.0000 0.0000 0.0000 0.0000 24.3959
#
#
#
# Elastic Compliance Matrix: (Units=1/GPa)
#
#
# Indices 1 2 3 4 5 6 
#
# 1 0.013036 -0.002095 -0.003887 0.000000 0.000000 0.000000
# 2 -0.002095 0.011908 -0.005723 0.000000 0.000000 0.000000
# 3 -0.003887 -0.005723 0.013652 0.000000 0.000000 0.000000
# 4 0.000000 0.000000 0.000000 0.036550 0.000000 0.000000
# 5 0.000000 0.000000 0.000000 0.000000 0.069027 0.000000
# 6 0.000000 0.000000 0.000000 0.000000 0.000000 0.040991
#
#
# Mechanical properties :
#
#
# Convention : Reuss Voigt Hill
#
# Bulk Modulus (GPa) = 65.84557 67.61994 66.73275
# Shear Modulus (GPa) = 23.40428 25.59106 24.49767
#
# Velocity S-wave (km/s) = 3.73531 3.90591 3.82156
# Velocity P-wave (km/s) = 7.60640 7.78802 7.69775
#
# Compressibility (1/GPa) = 0.01518705
#
# Stress axis : x y z
#
# Youngs Moduli (GPa) = 76.70775 83.97626 73.25029
#
# Poissons Ratio (x) = 0.17590 0.28475
# Poissons Ratio (y) = 0.16068 0.41918
# Poissons Ratio (z) = 0.29819 0.48056
#
# Static dielectric constant tensor:
#      x y z
#    x 3.243250 0.000000 0.000000 
#    y 0.000000 3.270490 0.000000 
#    z 0.000000 0.000000 2.952440 
# 
# 
# High freq. dielectric constant tensor:
#      x y z
#    x 1.640310 0.000000 0.000000 
#    y 0.000000 1.646040 0.000000 
#    z 0.000000 0.000000 1.619500 
# 
# From -- ./inp_files/19857.got.cif
#   From: 2010.03.12/outbox.cif.g09.slc.cpg/sg74_10_cif.got.tgz:19857.got - 2010.04.16 15:46:19.
