data_PCOD8297111
_publ_section_title
;
Structure prediction by ZEFSAII (Michael W. Deem and Ramdas Pophale) SiO2 
 PCOD8297111
Probable space group: I M M A
;
_chemical_formula_sum "Si O2"
_cell_formula_units_Z 64
_cell_length_a 14.361166
_cell_length_b 22.529034
_cell_length_c 9.889276
_cell_angle_alpha 90.000000
_cell_angle_beta 90.000000
_cell_angle_gamma 90.000000
_cell_volume 3199.607974
_symmetry_space_group_name_H-M "I M M A"
_symmetry_group_IT_number 74
_symmetry_cell_setting 'orthorhombic'
loop_
_space_group_symop_operation_xyz
x,y,z
-x,1/2-y,z
x,-y,-z
-x,1/2+y,-z
-x,-y,-z
x,1/2+y,-z
-x,y,z
x,1/2-y,z
1/2+x,1/2+y,1/2+z
1/2-x,-y,1/2+z
1/2+x,1/2-y,1/2-z
1/2-x,y,1/2-z
1/2-x,1/2-y,1/2-z
1/2+x,y,1/2-z
1/2-x,1/2+y,1/2+z
1/2+x,-y,1/2+z
loop_
_atom_site_type_symbol
_atom_site_label
_atom_site_fract_x
_atom_site_fract_y
_atom_site_fract_z
Si Si1 0.816821 0.386900 0.633061
Si Si2 0.893726 0.487686 0.792710
Si Si3 0.000000 0.818007 0.318858
Si Si4 0.500000 0.818501 0.502316
Si Si5 0.154783 0.093170 0.043080
O O1 0.750000 0.359259 0.750000
O O2 0.840770 0.455682 0.668825
O O3 0.909013 0.348044 0.616569
O O4 0.760565 0.387330 0.491619
O O5 0.890458 0.443287 0.919661
O O6 0.000000 0.498781 0.751310
O O7 0.846050 0.551112 0.824801
O O8 0.000000 0.826479 0.158901
O O9 0.000000 0.750000 0.362741
O O10 0.500000 0.750000 0.544802
O O11 0.408139 0.848626 0.566087
#
# Coordination Sequence:
#
# PCOD8297111 Si02
#       5
#    16  16   8   8  16
#     4  10  18  29  44  68  94 123 156 194 230 274
#     4  10  15  28  49  64  86 127 159 190 238 269
#     4  11  20  29  41  61  95 135 162 176 216 278
#     4  11  18  26  42  67  95 126 157 185 223 276
#     4  10  17  28  45  68  94 123 151 197 232 272
#
# _framework density 20.00245
#
# number of rings (size 3 to 8) (size 9 to 14) (size 15 to 20)
#    0.000    1.750    8.750    0.750    0.000    1.500 
#    0.000    0.000    0.000   13.500    0.000    0.000 
#    0.000   27.000    0.000    2.000    0.000    0.000 
#
# Total GULP energy -396741.098297 kJ/mol
# GULP energy per Si atom -12398.159322 kJ/mol
# Density = 1.995692 g / cm^3
# Si number density = 20.002450 Si / 1000 Ang^3
#
#
#
# Elastic Constant Matrix: (Units=GPa)
#
#
# Indices 1 2 3 4 5 6 
#
# 1 171.7496 78.5188 27.8889 0.0005 -0.0001 0.0002
# 2 78.5188 161.1383 29.3769 -0.0005 0.0001 0.0000
# 3 27.8889 29.3769 16.1763 -0.0032 0.0013 -0.0006
# 4 0.0005 -0.0005 -0.0032 17.7184 0.0003 -0.0001
# 5 -0.0001 0.0001 0.0013 0.0003 1.2009 -0.0002
# 6 0.0002 0.0000 -0.0006 -0.0001 -0.0002 17.1295
#
#
#
# Elastic Compliance Matrix: (Units=1/GPa)
#
#
# Indices 1 2 3 4 5 6 
#
# 1 0.008587 -0.002220 -0.010772 -0.000002 0.000013 -0.000001
# 2 -0.002220 0.009852 -0.014063 -0.000002 0.000014 0.000000
# 3 -0.010772 -0.014063 0.105929 0.000019 -0.000117 0.000004
# 4 -0.000002 -0.000002 0.000019 0.056439 -0.000015 0.000000
# 5 0.000013 0.000014 -0.000117 -0.000015 0.832717 0.000010
# 6 -0.000001 0.000000 0.000004 0.000000 0.000010 0.058379
#
#
# Mechanical properties :
#
#
# Convention : Reuss Voigt Hill
#
# Bulk Modulus (GPa) = 14.23344 68.95926 41.59635
# Shear Modulus (GPa) = 4.34998 21.42839 12.88919
#
# Velocity S-wave (km/s) = 1.47629 3.27660 2.54122
# Velocity P-wave (km/s) = 3.16816 6.99036 5.42689
#
# Compressibility (1/GPa) = 0.07025708
#
# Stress axis : x y z
#
# Youngs Moduli (GPa) = 116.46079 101.50710 9.44031
#
# Poissons Ratio (x) = 0.22537 0.10169
# Poissons Ratio (y) = 0.25857 0.13276
# Poissons Ratio (z) = 1.25448 1.42749
#
# Static dielectric constant tensor:
#      x y z
#    x 3.789230 0.000000 0.000000 
#    y 0.000000 3.641840 0.000000 
#    z 0.000000 0.000000 3.029170 
# 
# 
# High freq. dielectric constant tensor:
#      x y z
#    x 1.800020 0.000000 0.000000 
#    y 0.000000 1.763390 0.000000 
#    z 0.000000 0.000000 1.704690 
# 
# From -- ./inp_files/32023.got.cif
#   From: 2010.03.12/outbox.cif.g09.slc.cpg/sg74_17_cif.got.tgz:32023.got - 2010.04.16 15:46:19.
