data_PCOD8297877
_publ_section_title
;
Structure prediction by ZEFSAII (Michael W. Deem and Ramdas Pophale) SiO2 
 PCOD8297877
Probable space group: I M M A
;
_chemical_formula_sum "Si O2"
_cell_formula_units_Z 96
_cell_length_a 17.341731
_cell_length_b 28.385807
_cell_length_c 10.426295
_cell_angle_alpha 90.000000
_cell_angle_beta 90.000000
_cell_angle_gamma 90.000000
_cell_volume 5132.437855
_symmetry_space_group_name_H-M "I M M A"
_symmetry_group_IT_number 74
_symmetry_cell_setting 'orthorhombic'
loop_
_space_group_symop_operation_xyz
x,y,z
-x,1/2-y,z
x,-y,-z
-x,1/2+y,-z
-x,-y,-z
x,1/2+y,-z
-x,y,z
x,1/2-y,z
1/2+x,1/2+y,1/2+z
1/2-x,-y,1/2+z
1/2+x,1/2-y,1/2-z
1/2-x,y,1/2-z
1/2-x,1/2-y,1/2-z
1/2+x,y,1/2-z
1/2-x,1/2+y,1/2+z
1/2+x,-y,1/2+z
loop_
_atom_site_type_symbol
_atom_site_label
_atom_site_fract_x
_atom_site_fract_y
_atom_site_fract_z
Si Si1 0.800052 0.866173 0.372164
Si Si2 0.162369 0.195645 0.209738
Si Si3 0.342616 0.888521 0.528294
Si Si4 0.414087 0.305061 0.025265
Si Si5 0.588883 0.572024 0.274490
Si Si6 0.415034 0.474211 0.365457
O O1 0.750000 0.848250 0.250000
O O2 0.745695 0.887397 0.482543
O O3 0.851115 0.823752 0.425429
O O4 0.857607 0.907807 0.336021
O O5 0.152004 0.250000 0.165840
O O6 0.250000 0.185629 0.250000
O O7 0.108063 0.182826 0.328954
O O8 0.137386 0.161963 0.091990
O O9 0.398050 0.899794 0.408153
O O10 0.354907 0.930612 0.632365
O O11 0.500000 0.325509 0.998554
O O12 0.413625 0.250000 0.003636
O O13 0.500000 0.578483 0.237880
O O14 0.612188 0.516630 0.273221
O O15 0.422202 0.500000 0.500000
O O16 0.500000 0.455007 0.325952
#
# Coordination Sequence:
#
# PCOD8297877 Si02
#       6
#    16  16  16  16  16  16
#     4  10  20  33  54  80 113 143 183 220 270 319
#     4  10  20  36  56  78 106 141 179 222 276 328
#     4  10  18  31  55  83 106 136 183 228 268 320
#     4  10  21  37  57  80 108 145 184 222 268 325
#     4   9  18  34  55  79 111 148 180 221 270 320
#     4   8  15  30  52  76 103 138 177 215 263 318
#
# _framework density 18.704561999999999
#
# number of rings (size 3 to 8) (size 9 to 14) (size 15 to 20)
#    0.000    2.500    1.667    2.000    0.000    1.667 
#    0.000    8.333    0.000    1.000    0.000    3.500 
#    0.000    0.000    0.000    0.000    0.000    0.000 
#
# Total GULP energy -594871.974890 kJ/mol
# GULP energy per Si atom -12393.166144 kJ/mol
# Density = 1.866199 g / cm^3
# Si number density = 18.704562 Si / 1000 Ang^3
#
#
#
# Elastic Constant Matrix: (Units=GPa)
#
#
# Indices 1 2 3 4 5 6 
#
# 1 127.3621 58.3150 48.8345 0.0000 -0.0001 0.0000
# 2 58.3150 112.1198 58.9560 0.0004 0.0000 0.0004
# 3 48.8345 58.9560 62.9640 0.0014 0.0010 0.0016
# 4 0.0000 0.0004 0.0014 27.4836 0.0003 0.0007
# 5 -0.0001 0.0000 0.0010 0.0003 20.6260 0.0000
# 6 0.0000 0.0004 0.0016 0.0007 0.0000 22.1120
#
#
#
# Elastic Compliance Matrix: (Units=1/GPa)
#
#
# Indices 1 2 3 4 5 6 
#
# 1 0.011534 -0.002551 -0.006557 0.000000 0.000000 0.000001
# 2 -0.002551 0.018134 -0.015001 0.000000 0.000001 0.000001
# 3 -0.006557 -0.015001 0.035013 -0.000002 -0.000002 -0.000002
# 4 0.000000 0.000000 -0.000002 0.036385 0.000000 -0.000001
# 5 0.000000 0.000001 -0.000002 0.000000 0.048482 0.000000
# 6 0.000001 0.000001 -0.000002 -0.000001 0.000000 0.045224
#
#
# Mechanical properties :
#
#
# Convention : Reuss Voigt Hill
#
# Bulk Modulus (GPa) = 60.74040 70.51741 65.62891
# Shear Modulus (GPa) = 20.12246 23.13368 21.62807
#
# Velocity S-wave (km/s) = 3.28351 3.52062 3.40413
# Velocity P-wave (km/s) = 6.84977 7.36946 7.11436
#
# Compressibility (1/GPa) = 0.01646351
#
# Stress axis : x y z
#
# Youngs Moduli (GPa) = 86.70195 55.14564 28.56044
#
# Poissons Ratio (x) = 0.14068 0.18727
# Poissons Ratio (y) = 0.22119 0.42843
# Poissons Ratio (z) = 0.56849 0.82723
#
# Static dielectric constant tensor:
#      x y z
#    x 3.613640 0.000000 0.000000 
#    y 0.000000 3.660220 0.000000 
#    z 0.000000 0.000000 3.273730 
# 
# 
# High freq. dielectric constant tensor:
#      x y z
#    x 1.732110 0.000000 0.000000 
#    y 0.000000 1.722530 0.000000 
#    z 0.000000 0.000000 1.699180 
# 
# From -- ./inp_files/22653.got.cif
#   From: 2010.03.12/outbox.cif.g09.slc.cpg/sg74_12_cif.got.tgz:22653.got - 2010.04.16 15:46:19.
