data_PCOD8297315
_publ_section_title
;
Structure prediction by ZEFSAII (Michael W. Deem and Ramdas Pophale) SiO2 
 PCOD8297315
Probable space group: I M M A
;
_chemical_formula_sum "Si O2"
_cell_formula_units_Z 48
_cell_length_a 9.210690
_cell_length_b 14.938933
_cell_length_c 20.031784
_cell_angle_alpha 90.000000
_cell_angle_beta 90.000000
_cell_angle_gamma 90.000000
_cell_volume 2756.331027
_symmetry_space_group_name_H-M "I M M A"
_symmetry_group_IT_number 74
_symmetry_cell_setting 'orthorhombic'
loop_
_space_group_symop_operation_xyz
x,y,z
-x,1/2-y,z
x,-y,-z
-x,1/2+y,-z
-x,-y,-z
x,1/2+y,-z
-x,y,z
x,1/2-y,z
1/2+x,1/2+y,1/2+z
1/2-x,-y,1/2+z
1/2+x,1/2-y,1/2-z
1/2-x,y,1/2-z
1/2-x,1/2-y,1/2-z
1/2+x,y,1/2-z
1/2-x,1/2+y,1/2+z
1/2+x,-y,1/2+z
loop_
_atom_site_type_symbol
_atom_site_label
_atom_site_fract_x
_atom_site_fract_y
_atom_site_fract_z
Si Si1 0.750000 0.034190 0.750000
Si Si2 0.500000 0.750000 0.612433
Si Si3 0.304901 0.750000 0.936952
Si Si4 0.000000 0.411827 0.212969
Si Si5 0.500000 0.085918 0.841965
Si Si6 0.000000 0.250000 0.559361
Si Si7 0.000000 0.883922 0.634584
O O1 0.646280 0.094756 0.796994
O O2 0.645044 0.971886 0.704735
O O3 0.633133 0.750000 0.561835
O O4 0.500000 0.837165 0.657546
O O5 0.359141 0.661482 0.898248
O O6 0.357440 0.750000 0.013276
O O7 0.000000 0.366563 0.286174
O O8 0.500000 0.162294 0.896130
O O9 0.500000 0.990071 0.879293
#
# Coordination Sequence:
#
# PCOD8297315 Si02
#       7
#     8   4   8   8   8   4   8
#     4   8  18  32  52  80 100 118 160 201 254 313
#     4  12  18  27  48  73 112 132 156 214 242 270
#     4  10  21  33  47  76 102 137 179 194 224 296
#     4  10  17  28  50  81 106 132 154 194 261 305
#     4  10  18  36  57  75  99 125 157 211 256 296
#     4  10  24  39  52  65  92 142 182 198 242 296
#     4   8  17  33  52  74 105 131 161 196 245 312
#
# _framework density 17.414453999999999
#
# number of rings (size 3 to 8) (size 9 to 14) (size 15 to 20)
#    0.000    3.000    0.000    5.000    0.000    5.333 
#    0.000    3.333    0.000    4.000    0.000    0.000 
#    0.000    0.000    0.000    0.000    0.000    0.000 
#
# Total GULP energy -297452.536074 kJ/mol
# GULP energy per Si atom -12393.855670 kJ/mol
# Density = 1.737482 g / cm^3
# Si number density = 17.414454 Si / 1000 Ang^3
#
#
#
# Elastic Constant Matrix: (Units=GPa)
#
#
# Indices 1 2 3 4 5 6 
#
# 1 164.1640 43.4357 64.9295 0.0000 0.0000 0.0000
# 2 43.4357 102.4267 66.7422 0.0000 0.0000 0.0000
# 3 64.9295 66.7422 115.5470 0.0000 0.0000 0.0000
# 4 0.0000 0.0000 0.0000 24.7364 0.0000 0.0000
# 5 0.0000 0.0000 0.0000 0.0000 15.5912 0.0000
# 6 0.0000 0.0000 0.0000 0.0000 0.0000 0.3033
#
#
#
# Elastic Compliance Matrix: (Units=1/GPa)
#
#
# Indices 1 2 3 4 5 6 
#
# 1 0.007866 -0.000730 -0.003998 0.000000 0.000000 0.000000
# 2 -0.000730 0.015723 -0.008672 0.000000 0.000000 0.000000
# 3 -0.003998 -0.008672 0.015910 0.000000 0.000000 0.000000
# 4 0.000000 0.000000 0.000000 0.040426 0.000000 0.000000
# 5 0.000000 0.000000 0.000000 0.000000 0.064139 0.000000
# 6 0.000000 0.000000 0.000000 0.000000 0.000000 3.296686
#
#
# Mechanical properties :
#
#
# Convention : Reuss Voigt Hill
#
# Bulk Modulus (GPa) = 78.74723 81.37252 80.05987
# Shear Modulus (GPa) = 1.44018 21.92820 11.68419
#
# Velocity S-wave (km/s) = 0.91038 3.55236 2.59308
# Velocity P-wave (km/s) = 6.81342 7.97836 7.41879
#
# Compressibility (1/GPa) = 0.01269886
#
# Stress axis : x y z
#
# Youngs Moduli (GPa) = 127.12731 63.59956 62.85266
#
# Poissons Ratio (x) = 0.04645 0.25131
# Poissons Ratio (y) = 0.09285 0.54504
# Poissons Ratio (z) = 0.50830 0.55152
#
# Static dielectric constant tensor:
#      x y z
#    x 3.460550 0.000000 0.000000 
#    y 0.000000 2.986720 0.000000 
#    z 0.000000 0.000000 2.963000 
# 
# 
# High freq. dielectric constant tensor:
#      x y z
#    x 1.685050 0.000000 0.000000 
#    y 0.000000 1.658750 0.000000 
#    z 0.000000 0.000000 1.646480 
# 
# From -- ./inp_files/38753.got.cif
#   From: 2010.03.12/outbox.cif.g09.slc.cpg/sg74_20_cif.got.tgz:38753.got - 2010.04.16 15:46:19.
