data_PCOD8297728
_publ_section_title
;
Structure prediction by ZEFSAII (Michael W. Deem and Ramdas Pophale) SiO2 
 PCOD8297728
Probable space group: I M M A
;
_chemical_formula_sum "Si O2"
_cell_formula_units_Z 72
_cell_length_a 8.772338
_cell_length_b 32.393649
_cell_length_c 14.653629
_cell_angle_alpha 90.000000
_cell_angle_beta 90.000000
_cell_angle_gamma 90.000000
_cell_volume 4164.093004
_symmetry_space_group_name_H-M "I M M A"
_symmetry_group_IT_number 74
_symmetry_cell_setting 'orthorhombic'
loop_
_space_group_symop_operation_xyz
x,y,z
-x,1/2-y,z
x,-y,-z
-x,1/2+y,-z
-x,-y,-z
x,1/2+y,-z
-x,y,z
x,1/2-y,z
1/2+x,1/2+y,1/2+z
1/2-x,-y,1/2+z
1/2+x,1/2-y,1/2-z
1/2-x,y,1/2-z
1/2-x,1/2-y,1/2-z
1/2+x,y,1/2-z
1/2-x,1/2+y,1/2+z
1/2+x,-y,1/2+z
loop_
_atom_site_type_symbol
_atom_site_label
_atom_site_fract_x
_atom_site_fract_y
_atom_site_fract_z
Si Si1 0.318398 0.250000 0.850784
Si Si2 0.678863 0.589734 0.472731
Si Si3 0.679819 0.332655 0.650905
Si Si4 0.321679 0.974906 0.156077
Si Si5 0.678558 0.929219 0.844141
O O1 0.500000 0.250000 0.851050
O O2 0.250000 0.250000 0.750000
O O3 0.254091 0.208092 0.896552
O O4 0.500000 0.583025 0.479070
O O5 0.722614 0.629507 0.413801
O O6 0.752302 0.549146 0.428952
O O7 0.746563 0.596217 0.573478
O O8 0.500000 0.326303 0.661349
O O9 0.750000 0.341585 0.750000
O O10 0.500000 0.966642 0.159995
O O11 0.250000 0.958052 0.250000
O O12 0.281722 0.022712 0.142382
O O13 0.500000 0.920997 0.842368
O O14 0.750000 0.912798 0.750000
#
# Coordination Sequence:
#
# PCOD8297728 Si02
#       5
#     8  16  16  16  16
#     4  10  18  30  50  72  97 130 161 190 230 282
#     4  11  22  33  49  73  99 129 164 203 245 288
#     4  10  20  33  49  72 102 132 161 194 234 283
#     4  10  20  33  49  70  97 130 165 203 247 291
#     4  10  21  36  52  69  93 127 167 209 250 291
#
# _framework density 17.290679999999998
#
# number of rings (size 3 to 8) (size 9 to 14) (size 15 to 20)
#    0.000    1.778    0.000    6.333    0.000   10.667 
#    0.000    0.000    0.000    0.000    0.000    0.778 
#    0.000    0.000    0.000    0.000    0.000    0.000 
#
# Total GULP energy -446506.634336 kJ/mol
# GULP energy per Si atom -12402.962065 kJ/mol
# Density = 1.725133 g / cm^3
# Si number density = 17.290680 Si / 1000 Ang^3
#
#
#
# Elastic Constant Matrix: (Units=GPa)
#
#
# Indices 1 2 3 4 5 6 
#
# 1 98.7932 51.2487 49.8147 0.0001 0.0000 0.0000
# 2 51.2487 72.0879 47.3695 -0.0003 0.0000 0.0000
# 3 49.8147 47.3695 121.9579 -0.0004 0.0000 0.0000
# 4 0.0001 -0.0003 -0.0004 12.8466 -0.0001 0.0000
# 5 0.0000 0.0000 0.0000 -0.0001 32.6733 0.0000
# 6 0.0000 0.0000 0.0000 0.0000 0.0000 20.8021
#
#
#
# Elastic Compliance Matrix: (Units=1/GPa)
#
#
# Indices 1 2 3 4 5 6 
#
# 1 0.016809 -0.009987 -0.002987 0.000000 0.000000 0.000000
# 2 -0.009987 0.024560 -0.005460 0.000000 0.000000 0.000000
# 3 -0.002987 -0.005460 0.011540 0.000000 0.000000 0.000000
# 4 0.000000 0.000000 0.000000 0.077842 0.000000 0.000000
# 5 0.000000 0.000000 0.000000 0.000000 0.030606 0.000000
# 6 0.000000 0.000000 0.000000 0.000000 0.000000 0.048072
#
#
# Mechanical properties :
#
#
# Convention : Reuss Voigt Hill
#
# Bulk Modulus (GPa) = 62.33877 65.52277 63.93077
# Shear Modulus (GPa) = 19.86938 22.89147 21.38043
#
# Velocity S-wave (km/s) = 3.39357 3.64252 3.52025
# Velocity P-wave (km/s) = 7.17543 7.46108 7.31965
#
# Compressibility (1/GPa) = 0.01604138
#
# Stress axis : x y z
#
# Youngs Moduli (GPa) = 59.49192 40.71683 86.65430
#
# Poissons Ratio (x) = 0.40665 0.25880
# Poissons Ratio (y) = 0.59417 0.47312
# Poissons Ratio (z) = 0.17768 0.22231
#
# Static dielectric constant tensor:
#      x y z
#    x 3.342600 0.000000 0.000000 
#    y 0.000000 3.458050 0.000000 
#    z 0.000000 0.000000 3.176330 
# 
# 
# High freq. dielectric constant tensor:
#      x y z
#    x 1.689400 0.000000 0.000000 
#    y 0.000000 1.649810 0.000000 
#    z 0.000000 0.000000 1.651320 
# 
# From -- ./inp_files/29382.got.cif
#   From: 2010.03.12/outbox.cif.g09.slc.cpg/sg74_15_cif.got.tgz:29382.got - 2010.04.16 15:46:19.
