data_PCOD8297660
_publ_section_title
;
Structure prediction by ZEFSAII (Michael W. Deem and Ramdas Pophale) SiO2 
 PCOD8297660
Probable space group: I M M A
;
_chemical_formula_sum "Si O2"
_cell_formula_units_Z 88
_cell_length_a 8.767482
_cell_length_b 20.643085
_cell_length_c 24.961330
_cell_angle_alpha 90.000000
_cell_angle_beta 90.000000
_cell_angle_gamma 90.000000
_cell_volume 4517.698103
_symmetry_space_group_name_H-M "I M M A"
_symmetry_group_IT_number 74
_symmetry_cell_setting 'orthorhombic'
loop_
_space_group_symop_operation_xyz
x,y,z
-x,1/2-y,z
x,-y,-z
-x,1/2+y,-z
-x,-y,-z
x,1/2+y,-z
-x,y,z
x,1/2-y,z
1/2+x,1/2+y,1/2+z
1/2-x,-y,1/2+z
1/2+x,1/2-y,1/2-z
1/2-x,y,1/2-z
1/2-x,1/2-y,1/2-z
1/2+x,y,1/2-z
1/2-x,1/2+y,1/2+z
1/2+x,-y,1/2+z
loop_
_atom_site_type_symbol
_atom_site_label
_atom_site_fract_x
_atom_site_fract_y
_atom_site_fract_z
Si Si1 0.318526 0.750000 0.690653
Si Si2 0.819318 0.127512 0.696346
Si Si3 0.329038 0.944706 0.462046
Si Si4 0.819802 0.621757 0.691542
Si Si5 0.327797 0.503237 0.343257
Si Si6 0.820200 0.677461 0.418684
O O1 0.500000 0.750000 0.691232
O O2 0.250000 0.750000 0.750000
O O3 0.253616 0.814834 0.662801
O O4 0.750000 0.161249 0.750000
O O5 0.765857 0.165160 0.642694
O O6 0.000000 0.125934 0.700944
O O7 0.752892 0.054923 0.695170
O O8 0.500000 0.931793 0.483315
O O9 0.244441 0.875073 0.461079
O O10 0.251277 0.000000 0.500000
O O11 0.329229 0.971454 0.402878
O O12 0.750000 0.610717 0.750000
O O13 0.773022 0.561301 0.655487
O O14 0.000000 0.629789 0.695351
O O15 0.500000 0.490097 0.322574
O O16 0.766567 0.750000 0.435096
O O17 0.000000 0.671071 0.421134
#
# Coordination Sequence:
#
# PCOD8297660 Si02
#       6
#     8  16  16  16  16  16
#     4  10  18  30  46  66  92 126 166 202 244 294
#     4  10  19  31  47  71 105 141 176 213 252 298
#     4   9  19  36  58  81 103 129 169 217 264 314
#     4  11  20  31  47  69  98 131 168 206 248 300
#     4  10  19  32  50  72  98 129 167 211 257 306
#     4   9  19  35  54  78 108 141 177 215 259 311
#
# _framework density 19.478946000000001
#
# number of rings (size 3 to 8) (size 9 to 14) (size 15 to 20)
#    0.000    2.182    0.000    5.182    0.000    2.545 
#    0.000    0.000    2.000    0.000    0.000    0.000 
#    0.000    0.000    0.000    0.000    0.000    0.000 
#
# Total GULP energy -545399.675239 kJ/mol
# GULP energy per Si atom -12395.447165 kJ/mol
# Density = 1.943461 g / cm^3
# Si number density = 19.478946 Si / 1000 Ang^3
#
#
#
# Elastic Constant Matrix: (Units=GPa)
#
#
# Indices 1 2 3 4 5 6 
#
# 1 113.6166 48.3087 15.1858 0.0000 0.0000 0.0000
# 2 48.3087 158.6589 27.2302 0.0000 0.0000 0.0000
# 3 15.1858 27.2302 46.2359 0.0000 0.0000 0.0000
# 4 0.0000 0.0000 0.0000 20.3448 0.0000 0.0000
# 5 0.0000 0.0000 0.0000 0.0000 21.7242 0.0000
# 6 0.0000 0.0000 0.0000 0.0000 0.0000 32.2447
#
#
#
# Elastic Compliance Matrix: (Units=1/GPa)
#
#
# Indices 1 2 3 4 5 6 
#
# 1 0.010229 -0.002823 -0.001697 0.000000 0.000000 0.000000
# 2 -0.002823 0.007791 -0.003661 0.000000 0.000000 0.000000
# 3 -0.001697 -0.003661 0.024342 0.000000 0.000000 0.000000
# 4 0.000000 0.000000 0.000000 0.049153 0.000000 0.000000
# 5 0.000000 0.000000 0.000000 0.000000 0.046032 0.000000
# 6 0.000000 0.000000 0.000000 0.000000 0.000000 0.031013
#
#
# Mechanical properties :
#
#
# Convention : Reuss Voigt Hill
#
# Bulk Modulus (GPa) = 38.46305 55.55120 47.00713
# Shear Modulus (GPa) = 25.82820 30.04851 27.93836
#
# Velocity S-wave (km/s) = 3.64532 3.93187 3.79130
# Velocity P-wave (km/s) = 6.12426 7.01380 6.58407
#
# Compressibility (1/GPa) = 0.02599898
#
# Stress axis : x y z
#
# Youngs Moduli (GPa) = 97.76373 128.35667 41.08183
#
# Poissons Ratio (x) = 0.36238 0.06971
# Poissons Ratio (y) = 0.27601 0.15040
# Poissons Ratio (z) = 0.16589 0.46992
#
# Static dielectric constant tensor:
#      x y z
#    x 3.672860 0.000000 0.000000 
#    y 0.000000 4.115980 0.000000 
#    z 0.000000 0.000000 3.280330 
# 
# 
# High freq. dielectric constant tensor:
#      x y z
#    x 1.762060 0.000000 0.000000 
#    y 0.000000 1.769340 0.000000 
#    z 0.000000 0.000000 1.718650 
# 
# From -- ./inp_files/56958.got.cif
#   From: 2010.03.12/outbox.cif.g09.slc.cpg/sg74_29_cif.got.tgz:56958.got - 2010.04.16 15:46:19.
