data_PCOD8297391
_publ_section_title
;
Structure prediction by ZEFSAII (Michael W. Deem and Ramdas Pophale) SiO2 
 PCOD8297391
Probable space group: I M M A
;
_chemical_formula_sum "Si O2"
_cell_formula_units_Z 88
_cell_length_a 9.510219
_cell_length_b 35.174038
_cell_length_c 22.059420
_cell_angle_alpha 90.000000
_cell_angle_beta 90.000000
_cell_angle_gamma 90.000000
_cell_volume 7379.158450
_symmetry_space_group_name_H-M "I M M A"
_symmetry_group_IT_number 74
_symmetry_cell_setting 'orthorhombic'
loop_
_space_group_symop_operation_xyz
x,y,z
-x,1/2-y,z
x,-y,-z
-x,1/2+y,-z
-x,-y,-z
x,1/2+y,-z
-x,y,z
x,1/2-y,z
1/2+x,1/2+y,1/2+z
1/2-x,-y,1/2+z
1/2+x,1/2-y,1/2-z
1/2-x,y,1/2-z
1/2-x,1/2-y,1/2-z
1/2+x,y,1/2-z
1/2-x,1/2+y,1/2+z
1/2+x,-y,1/2+z
loop_
_atom_site_type_symbol
_atom_site_label
_atom_site_fract_x
_atom_site_fract_y
_atom_site_fract_z
Si Si1 0.160346 0.901073 0.107505
Si Si2 0.837049 0.475117 0.810921
Si Si3 0.157069 0.439166 0.515438
Si Si4 0.164291 0.667644 0.187910
Si Si5 0.158682 0.514137 0.595852
Si Si6 0.158778 0.750000 0.191372
O O1 0.243115 0.907301 0.044621
O O2 0.219930 0.863304 0.140022
O O3 0.000000 0.895511 0.088394
O O4 0.178972 0.935923 0.153268
O O5 0.750000 0.470267 0.750000
O O6 0.769030 0.509888 0.849193
O O7 0.000000 0.484561 0.797471
O O8 0.161185 0.476345 0.556372
O O9 0.205112 0.450530 0.447137
O O10 0.000000 0.422426 0.513493
O O11 0.250000 0.663447 0.250000
O O12 0.187522 0.709790 0.157107
O O13 0.000000 0.660125 0.202470
O O14 0.000000 0.520644 0.620824
O O15 0.250000 0.750000 0.250000
O O16 0.000000 0.750000 0.214702
#
# Coordination Sequence:
#
# PCOD8297391 Si02
#       6
#    16  16  16  16  16   8
#     4   9  17  25  33  47  65  81 100 129 163 194
#     4  10  18  25  33  46  63  83 104 128 159 192
#     4   8  14  24  37  49  60  77 100 124 154 188
#     4   9  16  25  35  47  62  81 104 131 162 194
#     4   8  14  25  37  47  60  78 100 126 153 185
#     4   8  14  24  36  46  58  78 104 130 157 190
#
# _framework density 11.92548
#
# number of rings (size 3 to 8) (size 9 to 14) (size 15 to 20)
#    0.000    3.273    0.000    2.182    0.000    2.182 
#    0.000    3.636    0.000    0.000    0.000    0.000 
#    0.000    0.000    0.000    0.000    0.000    0.000 
#
# Total GULP energy -545088.165043 kJ/mol
# GULP energy per Si atom -12388.367387 kJ/mol
# Density = 1.189834 g / cm^3
# Si number density = 11.925480 Si / 1000 Ang^3
#
#
#
# Elastic Constant Matrix: (Units=GPa)
#
#
# Indices 1 2 3 4 5 6 
#
# 1 57.6656 29.0251 25.9543 0.0000 0.0000 0.0000
# 2 29.0251 64.3579 29.8132 0.0000 0.0000 0.0000
# 3 25.9543 29.8132 28.3255 0.0001 0.0000 0.0000
# 4 0.0000 0.0000 0.0001 15.5699 0.0000 0.0000
# 5 0.0000 0.0000 0.0000 0.0000 21.5569 0.0000
# 6 0.0000 0.0000 0.0000 0.0000 0.0000 12.2790
#
#
#
# Elastic Compliance Matrix: (Units=1/GPa)
#
#
# Indices 1 2 3 4 5 6 
#
# 1 0.029590 -0.001532 -0.025500 0.000000 0.000000 0.000000
# 2 -0.001532 0.030402 -0.030595 0.000000 0.000000 0.000000
# 3 -0.025500 -0.030595 0.090870 0.000000 0.000000 0.000000
# 4 0.000000 0.000000 0.000000 0.064226 0.000000 0.000000
# 5 0.000000 0.000000 0.000000 0.000000 0.046389 0.000000
# 6 0.000000 0.000000 0.000000 0.000000 0.000000 0.081440
#
#
# Mechanical properties :
#
#
# Convention : Reuss Voigt Hill
#
# Bulk Modulus (GPa) = 28.08315 35.54823 31.81569
# Shear Modulus (GPa) = 10.63739 14.25159 12.44449
#
# Velocity S-wave (km/s) = 2.98986 3.46070 3.23386
# Velocity P-wave (km/s) = 5.95978 6.77067 6.37813
#
# Compressibility (1/GPa) = 0.03560854
#
# Stress axis : x y z
#
# Youngs Moduli (GPa) = 33.79567 32.89275 11.00468
#
# Poissons Ratio (x) = 0.05040 0.28062
# Poissons Ratio (y) = 0.05178 0.33668
# Poissons Ratio (z) = 0.86178 1.00634
#
# Static dielectric constant tensor:
#      x y z
#    x 2.615240 0.000000 0.000000 
#    y 0.000000 2.606800 0.000000 
#    z 0.000000 0.000000 1.891030 
# 
# 
# High freq. dielectric constant tensor:
#      x y z
#    x 1.462280 0.000000 0.000000 
#    y 0.000000 1.421460 0.000000 
#    z 0.000000 0.000000 1.421240 
# 
# From -- ./inp_files/47147.got.cif
#   From: 2010.03.12/outbox.cif.g09.slc.cpg/sg74_24_cif.got.tgz:47147.got - 2010.04.16 15:46:19.
