data_PCOD8297489
_publ_section_title
;
Structure prediction by ZEFSAII (Michael W. Deem and Ramdas Pophale) SiO2 
 PCOD8297489
Probable space group: I M M A
;
_chemical_formula_sum "Si O2"
_cell_formula_units_Z 104
_cell_length_a 22.188820
_cell_length_b 9.399493
_cell_length_c 29.849269
_cell_angle_alpha 90.000000
_cell_angle_beta 90.000000
_cell_angle_gamma 90.000000
_cell_volume 6225.472739
_symmetry_space_group_name_H-M "I M M A"
_symmetry_group_IT_number 74
_symmetry_cell_setting 'orthorhombic'
loop_
_space_group_symop_operation_xyz
x,y,z
-x,1/2-y,z
x,-y,-z
-x,1/2+y,-z
-x,-y,-z
x,1/2+y,-z
-x,y,z
x,1/2-y,z
1/2+x,1/2+y,1/2+z
1/2-x,-y,1/2+z
1/2+x,1/2-y,1/2-z
1/2-x,y,1/2-z
1/2-x,1/2-y,1/2-z
1/2+x,y,1/2-z
1/2-x,1/2+y,1/2+z
1/2+x,-y,1/2+z
loop_
_atom_site_type_symbol
_atom_site_label
_atom_site_fract_x
_atom_site_fract_y
_atom_site_fract_z
Si Si1 0.888799 0.917871 0.605760
Si Si2 0.855847 0.417055 0.044845
Si Si3 0.428919 0.913880 0.799842
Si Si4 0.070768 0.085612 0.882970
Si Si5 0.282645 0.585185 0.956160
Si Si6 0.000000 0.080693 0.453620
Si Si7 0.428455 0.092766 0.717240
O O1 0.895488 0.750000 0.609918
O O2 0.896437 0.979581 0.656061
O O3 0.824215 0.963677 0.585476
O O4 0.941593 0.972739 0.573476
O O5 0.869059 0.250000 0.038309
O O6 0.894942 0.477822 0.085015
O O7 0.786205 0.446199 0.056754
O O8 0.874490 0.500000 0.000000
O O9 0.500000 0.937739 0.805742
O O10 0.413011 0.750000 0.793304
O O11 0.402528 0.990464 0.755699
O O12 0.087942 0.250000 0.892913
O O13 0.090625 0.042967 0.832516
O O14 0.000000 0.063113 0.890078
O O15 0.293291 0.750000 0.967235
O O16 0.302658 0.500000 0.000000
O O17 0.000000 0.250000 0.461596
O O18 0.000000 0.000000 0.500000
O O19 0.500000 0.095028 0.719304
O O20 0.402820 0.250000 0.726447
#
# Coordination Sequence:
#
# PCOD8297489 Si02
#       7
#    16  16  16  16  16   8  16
#     4   9  16  28  45  64  90 122 155 193 235 276
#     4  10  20  33  50  71  94 122 156 190 224 265
#     4   9  15  25  43  66  90 119 155 190 228 274
#     4   9  18  33  52  73  97 123 148 178 226 278
#     4   9  18  32  48  65  88 121 159 195 229 269
#     4  10  18  28  42  62  90 122 154 192 239 282
#     4   8  15  28  45  66  93 121 145 178 226 274
#
# _framework density 16.705559000000001
#
# number of rings (size 3 to 8) (size 9 to 14) (size 15 to 20)
#    0.000    2.923    0.769    1.846    0.000    1.846 
#    0.000    3.077    0.000    0.923    0.000    6.462 
#    0.000    0.000    0.000    0.000    0.000    0.000 
#
# Total GULP energy -644605.848134 kJ/mol
# GULP energy per Si atom -12396.266310 kJ/mol
# Density = 1.666754 g / cm^3
# Si number density = 16.705559 Si / 1000 Ang^3
#
#
#
# Elastic Constant Matrix: (Units=GPa)
#
#
# Indices 1 2 3 4 5 6 
#
# 1 53.1402 34.7912 55.3270 0.0000 0.0000 0.0000
# 2 34.7912 71.2999 71.9810 0.0000 0.0000 0.0000
# 3 55.3270 71.9810 164.7708 0.0000 0.0000 0.0000
# 4 0.0000 0.0000 0.0000 33.6000 0.0000 0.0000
# 5 0.0000 0.0000 0.0000 0.0000 21.2118 0.0000
# 6 0.0000 0.0000 0.0000 0.0000 0.0000 14.6676
#
#
#
# Elastic Compliance Matrix: (Units=1/GPa)
#
#
# Indices 1 2 3 4 5 6 
#
# 1 0.031514 -0.008399 -0.006913 0.000000 0.000000 0.000000
# 2 -0.008399 0.027329 -0.009119 0.000000 0.000000 0.000000
# 3 -0.006913 -0.009119 0.012374 0.000000 0.000000 0.000000
# 4 0.000000 0.000000 0.000000 0.029762 0.000000 0.000000
# 5 0.000000 0.000000 0.000000 0.000000 0.047144 0.000000
# 6 0.000000 0.000000 0.000000 0.000000 0.000000 0.068178
#
#
# Mechanical properties :
#
#
# Convention : Reuss Voigt Hill
#
# Bulk Modulus (GPa) = 44.72936 68.15658 56.44297
# Shear Modulus (GPa) = 18.34099 22.36999 20.35549
#
# Velocity S-wave (km/s) = 3.31705 3.66331 3.49447
# Velocity P-wave (km/s) = 6.44233 7.66684 7.08110
#
# Compressibility (1/GPa) = 0.02235668
#
# Stress axis : x y z
#
# Youngs Moduli (GPa) = 31.73185 36.59064 80.81515
#
# Poissons Ratio (x) = 0.30731 0.55867
# Poissons Ratio (y) = 0.26650 0.73695
# Poissons Ratio (z) = 0.21936 0.33367
#
# Static dielectric constant tensor:
#      x y z
#    x 2.942620 0.000000 0.000000 
#    y 0.000000 3.085880 0.000000 
#    z 0.000000 0.000000 3.365940 
# 
# 
# High freq. dielectric constant tensor:
#      x y z
#    x 1.614330 0.000000 0.000000 
#    y 0.000000 1.629970 0.000000 
#    z 0.000000 0.000000 1.653590 
# 
# From -- ./inp_files/73679.got.cif
#   From: 2010.03.12/outbox.cif.g09.slc.cpg/sg74_37_cif.got.tgz:73679.got - 2010.04.16 15:46:19.
