data_PCOD8297976
_publ_section_title
;
Structure prediction by ZEFSAII (Michael W. Deem and Ramdas Pophale) SiO2 
 PCOD8297976
Probable space group: I M M A
;
_chemical_formula_sum "Si O2"
_cell_formula_units_Z 112
_cell_length_a 21.181481
_cell_length_b 25.509966
_cell_length_c 11.090695
_cell_angle_alpha 90.000000
_cell_angle_beta 90.000000
_cell_angle_gamma 90.000000
_cell_volume 5992.733494
_symmetry_space_group_name_H-M "I M M A"
_symmetry_group_IT_number 74
_symmetry_cell_setting 'orthorhombic'
loop_
_space_group_symop_operation_xyz
x,y,z
-x,1/2-y,z
x,-y,-z
-x,1/2+y,-z
-x,-y,-z
x,1/2+y,-z
-x,y,z
x,1/2-y,z
1/2+x,1/2+y,1/2+z
1/2-x,-y,1/2+z
1/2+x,1/2-y,1/2-z
1/2-x,y,1/2-z
1/2-x,1/2-y,1/2-z
1/2+x,y,1/2-z
1/2-x,1/2+y,1/2+z
1/2+x,-y,1/2+z
loop_
_atom_site_type_symbol
_atom_site_label
_atom_site_fract_x
_atom_site_fract_y
_atom_site_fract_z
Si Si1 0.570915 0.191995 0.147580
Si Si2 0.165348 0.131392 0.504673
Si Si3 0.272039 0.310221 0.386694
Si Si4 0.071212 0.445462 0.934784
Si Si5 0.674920 0.067171 0.771293
Si Si6 0.889288 0.876702 0.859042
Si Si7 0.682404 0.548476 0.810750
O O1 0.500000 0.198968 0.105837
O O2 0.603435 0.250000 0.154599
O O3 0.601205 0.155344 0.046383
O O4 0.573289 0.165410 0.278758
O O5 0.218194 0.175729 0.483188
O O6 0.155261 0.115826 0.643529
O O7 0.185876 0.078310 0.437119
O O8 0.291005 0.250000 0.401271
O O9 0.250000 0.323106 0.250000
O O10 0.330407 0.346926 0.418368
O O11 0.128435 0.431118 0.844145
O O12 0.000000 0.448192 0.876518
O O13 0.088222 0.500000 0.000000
O O14 0.068063 0.399324 0.034133
O O15 0.750000 0.073478 0.750000
O O16 0.662394 0.011369 0.835113
O O17 0.868796 0.925419 0.776396
O O18 0.750000 0.551208 0.750000
#
# Coordination Sequence:
#
# PCOD8297976 Si02
#       7
#    16  16  16  16  16  16  16
#     4  10  21  36  58  85 110 143 190 243 298 350
#     4  11  20  35  54  85 118 151 186 237 299 352
#     4  11  19  31  57  91 119 147 186 242 307 364
#     4  11  24  41  60  84 120 167 209 245 293 360
#     4  11  24  36  58  85 121 161 201 243 288 356
#     4  11  18  35  60  85 115 149 190 248 292 351
#     4  10  18  32  54  86 119 152 186 235 287 355
#
# _framework density 18.689299999999999
#
# number of rings (size 3 to 8) (size 9 to 14) (size 15 to 20)
#    0.000    1.286    5.714    2.571    0.000    0.571 
#    0.000    0.000    0.000   12.000    0.000    2.000 
#    0.000    0.000    0.000    0.000    0.000    0.000 
#
# Total GULP energy -694174.855402 kJ/mol
# GULP energy per Si atom -12395.979561 kJ/mol
# Density = 1.864676 g / cm^3
# Si number density = 18.689300 Si / 1000 Ang^3
#
#
#
# Elastic Constant Matrix: (Units=GPa)
#
#
# Indices 1 2 3 4 5 6 
#
# 1 93.8671 27.9545 39.1927 0.0000 0.0000 0.0000
# 2 27.9545 106.8565 45.3741 0.0000 0.0000 0.0000
# 3 39.1927 45.3741 86.1522 0.0000 0.0000 0.0000
# 4 0.0000 0.0000 0.0000 22.9432 0.0000 0.0000
# 5 0.0000 0.0000 0.0000 0.0000 22.6705 0.0000
# 6 0.0000 0.0000 0.0000 0.0000 0.0000 22.5837
#
#
#
# Elastic Compliance Matrix: (Units=1/GPa)
#
#
# Indices 1 2 3 4 5 6 
#
# 1 0.013264 -0.001169 -0.005418 0.000000 0.000000 0.000000
# 2 -0.001169 0.012157 -0.005871 0.000000 0.000000 0.000000
# 3 -0.005418 -0.005871 0.017164 0.000000 0.000000 0.000000
# 4 0.000000 0.000000 0.000000 0.043586 0.000000 0.000000
# 5 0.000000 0.000000 0.000000 0.000000 0.044110 0.000000
# 6 0.000000 0.000000 0.000000 0.000000 0.000000 0.044280
#
#
# Mechanical properties :
#
#
# Convention : Reuss Voigt Hill
#
# Bulk Modulus (GPa) = 56.59779 56.87982 56.73880
# Shear Modulus (GPa) = 24.34659 25.26312 24.80485
#
# Velocity S-wave (km/s) = 3.61321 3.68059 3.64706
# Velocity P-wave (km/s) = 6.91060 6.96871 6.93971
#
# Compressibility (1/GPa) = 0.01766853
#
# Stress axis : x y z
#
# Youngs Moduli (GPa) = 75.39286 82.25583 58.26031
#
# Poissons Ratio (x) = 0.09617 0.31567
# Poissons Ratio (y) = 0.08815 0.34204
# Poissons Ratio (z) = 0.40850 0.48292
#
# Static dielectric constant tensor:
#      x y z
#    x 3.379120 0.000000 0.000000 
#    y 0.000000 3.662550 0.000000 
#    z 0.000000 0.000000 3.209410 
# 
# 
# High freq. dielectric constant tensor:
#      x y z
#    x 1.724140 0.000000 0.000000 
#    y 0.000000 1.736580 0.000000 
#    z 0.000000 0.000000 1.690870 
# 
# From -- ./inp_files/24189.got.cif
#   From: 2010.03.12/outbox.cif.g09.slc.cpg/sg74_13_cif.got.tgz:24189.got - 2010.04.16 15:46:19.
