data_PCOD8297573
_publ_section_title
;
Structure prediction by ZEFSAII (Michael W. Deem and Ramdas Pophale) SiO2 
 PCOD8297573
Probable space group: I M M A
;
_chemical_formula_sum "Si O2"
_cell_formula_units_Z 96
_cell_length_a 8.701860
_cell_length_b 26.115317
_cell_length_c 28.612367
_cell_angle_alpha 90.000000
_cell_angle_beta 90.000000
_cell_angle_gamma 90.000000
_cell_volume 6502.212830
_symmetry_space_group_name_H-M "I M M A"
_symmetry_group_IT_number 74
_symmetry_cell_setting 'orthorhombic'
loop_
_space_group_symop_operation_xyz
x,y,z
-x,1/2-y,z
x,-y,-z
-x,1/2+y,-z
-x,-y,-z
x,1/2+y,-z
-x,y,z
x,1/2-y,z
1/2+x,1/2+y,1/2+z
1/2-x,-y,1/2+z
1/2+x,1/2-y,1/2-z
1/2-x,y,1/2-z
1/2-x,1/2-y,1/2-z
1/2+x,y,1/2-z
1/2-x,1/2+y,1/2+z
1/2+x,-y,1/2+z
loop_
_atom_site_type_symbol
_atom_site_label
_atom_site_fract_x
_atom_site_fract_y
_atom_site_fract_z
Si Si1 0.820153 0.394066 0.052610
Si Si2 0.320266 0.504157 0.609942
Si Si3 0.676160 0.191767 0.112785
Si Si4 0.818416 0.147909 0.202000
Si Si5 0.326629 0.051769 0.970819
Si Si6 0.681834 0.036379 0.201735
O O1 0.780298 0.441554 0.086237
O O2 0.735692 0.343904 0.071255
O O3 0.000000 0.383523 0.051082
O O4 0.760670 0.404600 0.000198
O O5 0.500000 0.497880 0.618308
O O6 0.261489 0.457506 0.577833
O O7 0.232612 0.499943 0.659247
O O8 0.500000 0.178096 0.124055
O O9 0.694399 0.250000 0.095698
O O10 0.775431 0.184964 0.159659
O O11 0.750000 0.170904 0.250000
O O12 0.749059 0.092370 0.191857
O O13 0.000000 0.142895 0.206415
O O14 0.500000 0.069721 0.960549
O O15 0.324348 0.000000 0.000000
O O16 0.500000 0.039326 0.205424
O O17 0.750000 0.014002 0.250000
#
# Coordination Sequence:
#
# PCOD8297573 Si02
#       6
#    16  16  16  16  16  16
#     4  10  19  31  47  64  85 109 136 174 215 257
#     4  10  18  29  45  66  88 110 139 173 210 253
#     4  11  23  36  49  64  82 107 140 179 222 266
#     4  11  21  34  49  63  79 104 137 178 223 266
#     4   9  17  28  44  65  87 110 136 167 207 252
#     4  11  20  30  45  63  86 113 143 176 214 257
#
# _framework density 14.764206
#
# number of rings (size 3 to 8) (size 9 to 14) (size 15 to 20)
#    0.000    1.667    1.667    6.000    0.000    5.000 
#    0.000    0.000    0.000    0.000    0.000    0.000 
#    0.000    0.000    0.000    0.000    0.000    0.833 
#
# Total GULP energy -595331.904049 kJ/mol
# GULP energy per Si atom -12402.748001 kJ/mol
# Density = 1.473060 g / cm^3
# Si number density = 14.764206 Si / 1000 Ang^3
#
#
#
# Elastic Constant Matrix: (Units=GPa)
#
#
# Indices 1 2 3 4 5 6 
#
# 1 118.6195 28.6268 55.4936 0.0000 0.0000 0.0000
# 2 28.6268 43.4273 47.5685 0.0000 0.0000 0.0000
# 3 55.4936 47.5685 102.8032 0.0000 0.0000 0.0000
# 4 0.0000 0.0000 0.0000 20.6074 0.0000 0.0000
# 5 0.0000 0.0000 0.0000 0.0000 29.7370 0.0000
# 6 0.0000 0.0000 0.0000 0.0000 0.0000 17.3279
#
#
#
# Elastic Compliance Matrix: (Units=1/GPa)
#
#
# Indices 1 2 3 4 5 6 
#
# 1 0.011330 -0.001560 -0.005394 0.000000 0.000000 0.000000
# 2 -0.001560 0.046907 -0.020863 0.000000 0.000000 0.000000
# 3 -0.005394 -0.020863 0.022293 0.000000 0.000000 0.000000
# 4 0.000000 0.000000 0.000000 0.048526 0.000000 0.000000
# 5 0.000000 0.000000 0.000000 0.000000 0.033628 0.000000
# 6 0.000000 0.000000 0.000000 0.000000 0.000000 0.057710
#
#
# Mechanical properties :
#
#
# Convention : Reuss Voigt Hill
#
# Bulk Modulus (GPa) = 40.16643 58.69199 49.42921
# Shear Modulus (GPa) = 17.58531 22.41186 19.99859
#
# Velocity S-wave (km/s) = 3.45494 3.90036 3.68439
# Velocity P-wave (km/s) = 6.57114 7.75390 7.18689
#
# Compressibility (1/GPa) = 0.02489641
#
# Stress axis : x y z
#
# Youngs Moduli (GPa) = 88.25770 21.31856 44.85793
#
# Poissons Ratio (x) = 0.03326 0.24198
# Poissons Ratio (y) = 0.13770 0.93585
# Poissons Ratio (z) = 0.47609 0.44476
#
# Static dielectric constant tensor:
#      x y z
#    x 3.044700 0.000000 0.000000 
#    y 0.000000 2.503080 0.000000 
#    z 0.000000 0.000000 2.998660 
# 
# 
# High freq. dielectric constant tensor:
#      x y z
#    x 1.590360 0.000000 0.000000 
#    y 0.000000 1.504950 0.000000 
#    z 0.000000 0.000000 1.561770 
# 
# From -- ./inp_files/57483.got.cif
#   From: 2010.03.12/outbox.cif.g09.slc.cpg/sg74_29_cif.got.tgz:57483.got - 2010.04.16 15:46:19.
