data_PCOD8297781
_publ_section_title
;
Structure prediction by ZEFSAII (Michael W. Deem and Ramdas Pophale) SiO2 
 PCOD8297781
Probable space group: I M M A
;
_chemical_formula_sum "Si O2"
_cell_formula_units_Z 72
_cell_length_a 10.232704
_cell_length_b 14.565798
_cell_length_c 23.789044
_cell_angle_alpha 90.000000
_cell_angle_beta 90.000000
_cell_angle_gamma 90.000000
_cell_volume 3545.697523
_symmetry_space_group_name_H-M "I M M A"
_symmetry_group_IT_number 74
_symmetry_cell_setting 'orthorhombic'
loop_
_space_group_symop_operation_xyz
x,y,z
-x,1/2-y,z
x,-y,-z
-x,1/2+y,-z
-x,-y,-z
x,1/2+y,-z
-x,y,z
x,1/2-y,z
1/2+x,1/2+y,1/2+z
1/2-x,-y,1/2+z
1/2+x,1/2-y,1/2-z
1/2-x,y,1/2-z
1/2-x,1/2-y,1/2-z
1/2+x,y,1/2-z
1/2-x,1/2+y,1/2+z
1/2+x,-y,1/2+z
loop_
_atom_site_type_symbol
_atom_site_label
_atom_site_fract_x
_atom_site_fract_y
_atom_site_fract_z
Si Si1 0.500000 0.542493 0.695660
Si Si2 0.000000 0.345787 0.818287
Si Si3 0.851845 0.644626 0.974222
Si Si4 0.000000 0.358478 0.310969
Si Si5 0.734131 0.546079 0.873470
Si Si6 0.757427 0.150127 0.899824
O O1 0.500000 0.437181 0.720262
O O2 0.500000 0.614036 0.745904
O O3 0.628349 0.556222 0.658414
O O4 0.878138 0.344686 0.858819
O O5 0.000000 0.250000 0.781965
O O6 0.844173 0.750000 0.955193
O O7 0.754083 0.586523 0.935565
O O8 0.000000 0.607918 0.968424
O O9 0.806459 0.631938 0.037675
O O10 0.871301 0.396124 0.340194
O O11 0.000000 0.250000 0.315451
O O12 0.679288 0.440914 0.879664
O O13 0.681997 0.250000 0.896649
#
# Coordination Sequence:
#
# PCOD8297781 Si02
#       6
#     8   8  16   8  16  16
#     4  10  22  39  64  88 106 146 205 249 284 333
#     4   8  14  29  55  89 123 143 171 232 298 336
#     4  10  18  30  55  92 124 151 191 237 280 332
#     4  12  28  46  58  77 115 155 190 243 304 343
#     4  11  22  39  61  86 117 154 195 238 287 345
#     4   9  17  31  55  90 125 151 180 230 288 339
#
# _framework density 20.3063
#
# number of rings (size 3 to 8) (size 9 to 14) (size 15 to 20)
#    0.000    2.000    2.222    2.000    0.000    3.556 
#    0.000    3.889    0.000    8.000    0.000    0.000 
#    0.000    0.000    0.000    0.000    0.000    0.000 
#
# Total GULP energy -445999.404430 kJ/mol
# GULP energy per Si atom -12388.872345 kJ/mol
# Density = 2.026008 g / cm^3
# Si number density = 20.306300 Si / 1000 Ang^3
#
#
#
# Elastic Constant Matrix: (Units=GPa)
#
#
# Indices 1 2 3 4 5 6 
#
# 1 69.0770 46.3544 20.8640 0.0000 0.0000 0.0000
# 2 46.3544 184.1205 45.9940 0.0000 0.0000 0.0000
# 3 20.8640 45.9940 47.6330 0.0000 0.0000 0.0000
# 4 0.0000 0.0000 0.0000 34.4061 0.0000 0.0000
# 5 0.0000 0.0000 0.0000 0.0000 6.7548 0.0000
# 6 0.0000 0.0000 0.0000 0.0000 0.0000 32.5787
#
#
#
# Elastic Compliance Matrix: (Units=1/GPa)
#
#
# Indices 1 2 3 4 5 6 
#
# 1 0.018175 -0.003409 -0.004669 0.000000 0.000000 0.000000
# 2 -0.003409 0.007797 -0.006036 0.000000 0.000000 0.000000
# 3 -0.004669 -0.006036 0.028867 0.000000 0.000000 0.000000
# 4 0.000000 0.000000 0.000000 0.029065 0.000000 0.000000
# 5 0.000000 0.000000 0.000000 0.000000 0.148042 0.000000
# 6 0.000000 0.000000 0.000000 0.000000 0.000000 0.030695
#
#
# Mechanical properties :
#
#
# Convention : Reuss Voigt Hill
#
# Bulk Modulus (GPa) = 37.57811 58.58395 48.08103
# Shear Modulus (GPa) = 16.68122 27.25580 21.96851
#
# Velocity S-wave (km/s) = 2.86926 3.66763 3.29273
# Velocity P-wave (km/s) = 5.43348 6.84456 6.17943
#
# Compressibility (1/GPa) = 0.02661124
#
# Stress axis : x y z
#
# Youngs Moduli (GPa) = 55.02174 128.24935 34.64190
#
# Poissons Ratio (x) = 0.43725 0.16173
# Poissons Ratio (y) = 0.18759 0.20909
# Poissons Ratio (z) = 0.25688 0.77407
#
# Static dielectric constant tensor:
#      x y z
#    x 3.248990 0.000000 0.000000 
#    y 0.000000 4.645090 0.000000 
#    z 0.000000 0.000000 3.489790 
# 
# 
# High freq. dielectric constant tensor:
#      x y z
#    x 1.752720 0.000000 0.000000 
#    y 0.000000 1.826310 0.000000 
#    z 0.000000 0.000000 1.782070 
# 
# From -- ./inp_files/63703.got.cif
#   From: 2010.03.12/outbox.cif.g09.slc.cpg/sg74_32_cif.got.tgz:63703.got - 2010.04.16 15:46:19.
