data_PCOD8297074
_publ_section_title
;
Structure prediction by ZEFSAII (Michael W. Deem and Ramdas Pophale) SiO2 
 PCOD8297074
Probable space group: I B C A 
;
_chemical_formula_sum "Si O2"
_cell_formula_units_Z 56
_cell_length_a 16.243996
_cell_length_b 15.957285
_cell_length_c 9.073094
_cell_angle_alpha 90.000000
_cell_angle_beta 90.000000
_cell_angle_gamma 90.000000
_cell_volume 2351.837365
_symmetry_space_group_name_H-M "I B C A "
_symmetry_group_IT_number 73
_symmetry_cell_setting 'orthorhombic'
loop_
_space_group_symop_operation_xyz
x,y,z
-x,1/2-y,z
x,-y,1/2-z
1/2-x,y,-z
-x,-y,-z
x,1/2+y,-z
-x,y,1/2+z
1/2+x,-y,z
1/2+x,1/2+y,1/2+z
1/2-x,-y,1/2+z
1/2+x,1/2-y,-z
-x,1/2+y,1/2-z
1/2-x,1/2-y,1/2-z
1/2+x,y,1/2-z
1/2-x,1/2+y,z
x,1/2-y,1/2+z
loop_
_atom_site_type_symbol
_atom_site_label
_atom_site_fract_x
_atom_site_fract_y
_atom_site_fract_z
Si Si1 0.296656 0.000000 0.750000
Si Si2 0.542790 0.836012 0.719697
Si Si3 0.063878 0.435768 0.937411
Si Si4 0.215782 0.171191 0.838115
O O1 0.351991 0.983042 0.895279
O O2 0.241212 0.918331 0.728118
O O3 0.500000 0.750000 0.678679
O O4 0.581217 0.868961 0.566255
O O5 0.472742 0.895387 0.788468
O O6 0.616497 0.824849 0.837187
O O7 0.000000 0.500000 0.000000
O O8 0.250000 0.250000 0.750000
O O9 0.250000 0.181025 0.000000
#
# Coordination Sequence:
#
# PCOD8297074 Si02
#       4
#     8  16  16  16
#     4  12  28  50  82 112 164 202 270 334 402 474
#     4  12  28  48  80 111 158 203 265 325 395 480
#     4  12  25  48  78 113 146 207 262 317 391 477
#     4  12  32  50  77 117 159 208 262 331 411 474
#
# _framework density 23.811170000000001
#
# number of rings (size 3 to 8) (size 9 to 14) (size 15 to 20)
#    0.000    0.000    2.857    4.286   20.000    0.000 
#    0.000    0.000    0.000    0.000    0.000    0.000 
#    0.000    0.000    0.000    0.000    0.000    0.000 
#
# Total GULP energy -347399.248183 kJ/mol
# GULP energy per Si atom -12407.116007 kJ/mol
# Density = 2.375698 g / cm^3
# Si number density = 23.811170 Si / 1000 Ang^3
#
#
#
# Elastic Constant Matrix: (Units=GPa)
#
#
# Indices 1 2 3 4 5 6 
#
# 1 105.4028 37.6782 16.9281 0.0000 0.0000 0.0000
# 2 37.6782 176.8320 41.5244 0.0000 0.0000 0.0000
# 3 16.9281 41.5244 122.8108 0.0000 0.0000 0.0000
# 4 0.0000 0.0000 0.0000 42.8758 0.0000 0.0000
# 5 0.0000 0.0000 0.0000 0.0000 35.3592 0.0000
# 6 0.0000 0.0000 0.0000 0.0000 0.0000 42.2002
#
#
#
# Elastic Compliance Matrix: (Units=1/GPa)
#
#
# Indices 1 2 3 4 5 6 
#
# 1 0.010331 -0.002028 -0.000738 0.000000 0.000000 0.000000
# 2 -0.002028 0.006541 -0.001932 0.000000 0.000000 0.000000
# 3 -0.000738 -0.001932 0.008898 0.000000 0.000000 0.000000
# 4 0.000000 0.000000 0.000000 0.023323 0.000000 0.000000
# 5 0.000000 0.000000 0.000000 0.000000 0.028281 0.000000
# 6 0.000000 0.000000 0.000000 0.000000 0.000000 0.023697
#
#
# Mechanical properties :
#
#
# Convention : Reuss Voigt Hill
#
# Bulk Modulus (GPa) = 61.07665 66.36745 63.72205
# Shear Modulus (GPa) = 43.13153 44.68136 43.90644
#
# Velocity S-wave (km/s) = 4.26067 4.33654 4.29877
# Velocity P-wave (km/s) = 7.06474 7.28059 7.17348
#
# Compressibility (1/GPa) = 0.01637287
#
# Stress axis : x y z
#
# Youngs Moduli (GPa) = 96.79704 152.88499 112.38929
#
# Poissons Ratio (x) = 0.31003 0.08298
# Poissons Ratio (y) = 0.19629 0.21714
# Poissons Ratio (z) = 0.07147 0.29538
#
# Static dielectric constant tensor:
#      x y z
#    x 4.365830 0.000000 0.000000 
#    y 0.000000 4.511600 0.000000 
#    z 0.000000 0.000000 3.413460 
# 
# 
# High freq. dielectric constant tensor:
#      x y z
#    x 1.949060 0.000000 0.000000 
#    y 0.000000 1.966210 0.000000 
#    z 0.000000 0.000000 1.952250 
# 
# From -- ./inp_files/5121.got.cif
#   From: 2010.03.12/outbox.cif.g09.slc.cpg/sg73_3_cif.got.tgz:5121.got - 2010.04.16 15:25:48.
