data_PCOD8297517
_publ_section_title
;
Structure prediction by ZEFSAII (Michael W. Deem and Ramdas Pophale) SiO2 
 PCOD8297517
Probable space group: I M M A
;
_chemical_formula_sum "Si O2"
_cell_formula_units_Z 96
_cell_length_a 8.817016
_cell_length_b 28.274906
_cell_length_c 26.192776
_cell_angle_alpha 90.000000
_cell_angle_beta 90.000000
_cell_angle_gamma 90.000000
_cell_volume 6529.866878
_symmetry_space_group_name_H-M "I M M A"
_symmetry_group_IT_number 74
_symmetry_cell_setting 'orthorhombic'
loop_
_space_group_symop_operation_xyz
x,y,z
-x,1/2-y,z
x,-y,-z
-x,1/2+y,-z
-x,-y,-z
x,1/2+y,-z
-x,y,z
x,1/2-y,z
1/2+x,1/2+y,1/2+z
1/2-x,-y,1/2+z
1/2+x,1/2-y,1/2-z
1/2-x,y,1/2-z
1/2-x,1/2-y,1/2-z
1/2+x,y,1/2-z
1/2-x,1/2+y,1/2+z
1/2+x,-y,1/2+z
loop_
_atom_site_type_symbol
_atom_site_label
_atom_site_fract_x
_atom_site_fract_y
_atom_site_fract_z
Si Si1 0.325313 0.303388 0.043899
Si Si2 0.324259 0.946805 0.605209
Si Si3 0.678973 0.891983 0.802404
Si Si4 0.176007 0.303666 0.152547
Si Si5 0.824382 0.110369 0.001719
Si Si6 0.171246 0.471173 0.552128
O O1 0.500000 0.315145 0.056044
O O2 0.307151 0.250000 0.023030
O O3 0.229210 0.310655 0.094861
O O4 0.260439 0.339093 0.001433
O O5 0.500000 0.950166 0.619494
O O6 0.233046 0.925038 0.651885
O O7 0.297030 0.914085 0.556190
O O8 0.261499 0.999434 0.594949
O O9 0.500000 0.893747 0.798540
O O10 0.750000 0.911349 0.750000
O O11 0.731296 0.837851 0.810383
O O12 0.204219 0.250000 0.170872
O O13 0.000000 0.317754 0.154812
O O14 0.753858 0.078876 0.956463
O O15 0.000000 0.117973 0.989862
O O16 0.173363 0.500000 0.500000
O O17 0.000000 0.462288 0.570890
#
# Coordination Sequence:
#
# PCOD8297517 Si02
#       6
#    16  16  16  16  16  16
#     4  10  19  29  43  63  86 113 144 177 214 256
#     4  10  19  32  47  64  86 108 136 173 214 258
#     4  12  24  36  50  64  82 107 140 178 222 266
#     4  10  20  34  49  63  80 104 137 178 223 266
#     4  10  18  28  45  65  87 112 139 173 211 253
#     4   9  17  28  44  65  87 109 136 168 207 252
#
# _framework density 14.701679
#
# number of rings (size 3 to 8) (size 9 to 14) (size 15 to 20)
#    0.000    1.833    1.667    4.000    0.000    5.667 
#    0.000    0.000    0.000    0.000    0.000    0.000 
#    0.000    0.000    0.000    0.000    0.000    0.833 
#
# Total GULP energy -595314.867978 kJ/mol
# GULP energy per Si atom -12402.393083 kJ/mol
# Density = 1.466822 g / cm^3
# Si number density = 14.701679 Si / 1000 Ang^3
#
#
#
# Elastic Constant Matrix: (Units=GPa)
#
#
# Indices 1 2 3 4 5 6 
#
# 1 122.9291 48.4521 37.2192 0.0000 0.0000 0.0000
# 2 48.4521 75.9818 37.3382 0.0000 0.0000 0.0000
# 3 37.2192 37.3382 40.8040 0.0000 0.0000 0.0000
# 4 0.0000 0.0000 0.0000 11.0669 0.0000 0.0000
# 5 0.0000 0.0000 0.0000 0.0000 21.1321 0.0000
# 6 0.0000 0.0000 0.0000 0.0000 0.0000 27.9911
#
#
#
# Elastic Compliance Matrix: (Units=1/GPa)
#
#
# Indices 1 2 3 4 5 6 
#
# 1 0.011901 -0.004097 -0.007107 0.000000 0.000000 0.000000
# 2 -0.004097 0.025325 -0.019437 0.000000 0.000000 0.000000
# 3 -0.007107 -0.019437 0.048776 0.000000 0.000000 0.000000
# 4 0.000000 0.000000 0.000000 0.090360 0.000000 0.000000
# 5 0.000000 0.000000 0.000000 0.000000 0.047321 0.000000
# 6 0.000000 0.000000 0.000000 0.000000 0.000000 0.035726
#
#
# Mechanical properties :
#
#
# Convention : Reuss Voigt Hill
#
# Bulk Modulus (GPa) = 40.45170 53.97045 47.21107
# Shear Modulus (GPa) = 15.20074 19.81838 17.50956
#
# Velocity S-wave (km/s) = 3.21899 3.67554 3.45482
# Velocity P-wave (km/s) = 6.43355 7.40290 6.93518
#
# Compressibility (1/GPa) = 0.02472084
#
# Stress axis : x y z
#
# Youngs Moduli (GPa) = 84.02481 39.48643 20.50180
#
# Poissons Ratio (x) = 0.16177 0.14570
# Poissons Ratio (y) = 0.34424 0.39850
# Poissons Ratio (z) = 0.59715 0.76751
#
# Static dielectric constant tensor:
#      x y z
#    x 3.031740 0.000000 0.000000 
#    y 0.000000 2.974880 0.000000 
#    z 0.000000 0.000000 2.503990 
# 
# 
# High freq. dielectric constant tensor:
#      x y z
#    x 1.587330 0.000000 0.000000 
#    y 0.000000 1.556030 0.000000 
#    z 0.000000 0.000000 1.506390 
# 
# From -- ./inp_files/49090.got.cif
#   From: 2010.03.12/outbox.cif.g09.slc.cpg/sg74_25_cif.got.tgz:49090.got - 2010.04.16 15:46:19.
