data_PCOD8297992
_publ_section_title
;
Structure prediction by ZEFSAII (Michael W. Deem and Ramdas Pophale) SiO2 
 PCOD8297992
Probable space group: I M M A
;
_chemical_formula_sum "Si O2"
_cell_formula_units_Z 120
_cell_length_a 26.883690
_cell_length_b 8.798107
_cell_length_c 27.908618
_cell_angle_alpha 90.000000
_cell_angle_beta 90.000000
_cell_angle_gamma 90.000000
_cell_volume 6601.102092
_symmetry_space_group_name_H-M "I M M A"
_symmetry_group_IT_number 74
_symmetry_cell_setting 'orthorhombic'
loop_
_space_group_symop_operation_xyz
x,y,z
-x,1/2-y,z
x,-y,-z
-x,1/2+y,-z
-x,-y,-z
x,1/2+y,-z
-x,y,z
x,1/2-y,z
1/2+x,1/2+y,1/2+z
1/2-x,-y,1/2+z
1/2+x,1/2-y,1/2-z
1/2-x,y,1/2-z
1/2-x,1/2-y,1/2-z
1/2+x,y,1/2-z
1/2-x,1/2+y,1/2+z
1/2+x,-y,1/2+z
loop_
_atom_site_type_symbol
_atom_site_label
_atom_site_fract_x
_atom_site_fract_y
_atom_site_fract_z
Si Si1 0.556294 0.075742 0.631575
Si Si2 0.146308 0.075558 0.805029
Si Si3 0.613690 0.428256 0.450928
Si Si4 0.296544 0.929154 0.399654
Si Si5 0.305107 0.929231 0.883513
Si Si6 0.299469 0.428956 0.224704
Si Si7 0.399356 0.569576 0.947654
Si Si8 0.000000 0.568108 0.447175
O O1 0.500000 0.040046 0.646366
O O2 0.563713 0.250000 0.614582
O O3 0.589997 0.044871 0.678104
O O4 0.572515 0.966816 0.588729
O O5 0.155364 0.250000 0.791906
O O6 0.184605 0.023534 0.846672
O O7 0.154016 0.977068 0.757373
O O8 0.594190 0.500000 0.500000
O O9 0.618903 0.250000 0.456254
O O10 0.667486 0.496869 0.438693
O O11 0.298476 0.750000 0.406720
O O12 0.241360 0.990506 0.409088
O O13 0.296328 0.750000 0.884669
O O14 0.308049 0.991672 0.828945
O O15 0.354601 0.974667 0.912185
O O16 0.295592 0.250000 0.222549
O O17 0.250000 0.498185 0.250000
O O18 0.405942 0.750000 0.952667
O O19 0.449217 0.496705 0.923578
O O20 0.388498 0.500000 0.000000
O O21 0.000000 0.500000 0.500000
O O22 0.000000 0.750000 0.446693
#
# Coordination Sequence:
#
# PCOD8297992 Si02
#       8
#    16  16  16  16  16  16  16   8
#     4   9  19  37  58  79 105 138 178 224 273 327
#     4   9  18  32  52  78 103 135 175 216 266 318
#     4  11  22  36  54  76 106 141 181 225 271 323
#     4  10  20  34  52  75 105 140 177 216 265 322
#     4  10  21  35  52  79 110 143 178 219 267 314
#     4  10  19  32  53  78 106 139 177 217 260 310
#     4  10  20  35  55  78 107 140 176 214 260 311
#     4  10  18  32  56  80 102 130 172 212 254 304
#
# _framework density 18.178782999999999
#
# number of rings (size 3 to 8) (size 9 to 14) (size 15 to 20)
#    0.000    2.133    1.333    4.200    0.000    5.067 
#    0.000    1.333    1.467    0.000    0.000    0.000 
#    0.000    0.000    0.000    0.000    0.000    0.000 
#
# Total GULP energy -744013.011381 kJ/mol
# GULP energy per Si atom -12400.216856 kJ/mol
# Density = 1.813741 g / cm^3
# Si number density = 18.178783 Si / 1000 Ang^3
#
#
#
# Elastic Constant Matrix: (Units=GPa)
#
#
# Indices 1 2 3 4 5 6 
#
# 1 149.8415 44.5577 46.5003 0.0000 0.0000 0.0000
# 2 44.5577 68.8943 25.5970 0.0000 0.0000 0.0000
# 3 46.5003 25.5970 78.8351 0.0000 0.0000 0.0000
# 4 0.0000 0.0000 0.0000 27.7126 0.0000 0.0000
# 5 0.0000 0.0000 0.0000 0.0000 15.9891 0.0000
# 6 0.0000 0.0000 0.0000 0.0000 0.0000 28.5186
#
#
#
# Elastic Compliance Matrix: (Units=1/GPa)
#
#
# Indices 1 2 3 4 5 6 
#
# 1 0.009252 -0.004499 -0.003996 0.000000 0.000000 0.000000
# 2 -0.004499 0.018694 -0.003416 0.000000 0.000000 0.000000
# 3 -0.003996 -0.003416 0.016151 0.000000 0.000000 0.000000
# 4 0.000000 0.000000 0.000000 0.036085 0.000000 0.000000
# 5 0.000000 0.000000 0.000000 0.000000 0.062542 0.000000
# 6 0.000000 0.000000 0.000000 0.000000 0.000000 0.035065
#
#
# Mechanical properties :
#
#
# Convention : Reuss Voigt Hill
#
# Bulk Modulus (GPa) = 49.32393 58.98676 54.15535
# Shear Modulus (GPa) = 23.99589 26.50513 25.25051
#
# Velocity S-wave (km/s) = 3.63711 3.82255 3.73099
# Velocity P-wave (km/s) = 6.69550 7.21118 6.95812
#
# Compressibility (1/GPa) = 0.02027413
#
# Stress axis : x y z
#
# Youngs Moduli (GPa) = 108.08855 53.49363 61.91530
#
# Poissons Ratio (x) = 0.24066 0.24743
# Poissons Ratio (y) = 0.48627 0.21151
# Poissons Ratio (z) = 0.43196 0.18274
#
# Static dielectric constant tensor:
#      x y z
#    x 3.582940 0.000000 0.000000 
#    y 0.000000 3.287570 0.000000 
#    z 0.000000 0.000000 3.293590 
# 
# 
# High freq. dielectric constant tensor:
#      x y z
#    x 1.705870 0.000000 0.000000 
#    y 0.000000 1.706450 0.000000 
#    z 0.000000 0.000000 1.684650 
# 
# From -- ./inp_files/69014.got.cif
#   From: 2010.03.12/outbox.cif.g09.slc.cpg/sg74_35_cif.got.tgz:69014.got - 2010.04.16 15:46:19.
