data_PCOD8297788
_publ_section_title
;
Structure prediction by ZEFSAII (Michael W. Deem and Ramdas Pophale) SiO2 
 PCOD8297788
Probable space group: I M M A
;
_chemical_formula_sum "Si O2"
_cell_formula_units_Z 80
_cell_length_a 22.834543
_cell_length_b 9.249370
_cell_length_c 24.372423
_cell_angle_alpha 90.000000
_cell_angle_beta 90.000000
_cell_angle_gamma 90.000000
_cell_volume 5147.580938
_symmetry_space_group_name_H-M "I M M A"
_symmetry_group_IT_number 74
_symmetry_cell_setting 'orthorhombic'
loop_
_space_group_symop_operation_xyz
x,y,z
-x,1/2-y,z
x,-y,-z
-x,1/2+y,-z
-x,-y,-z
x,1/2+y,-z
-x,y,z
x,1/2-y,z
1/2+x,1/2+y,1/2+z
1/2-x,-y,1/2+z
1/2+x,1/2-y,1/2-z
1/2-x,y,1/2-z
1/2-x,1/2-y,1/2-z
1/2+x,y,1/2-z
1/2-x,1/2+y,1/2+z
1/2+x,-y,1/2+z
loop_
_atom_site_type_symbol
_atom_site_label
_atom_site_fract_x
_atom_site_fract_y
_atom_site_fract_z
Si Si1 0.670100 0.576090 0.778993
Si Si2 0.617911 0.960519 0.376628
Si Si3 0.731357 0.919741 0.323214
Si Si4 0.566466 0.410690 0.739777
Si Si5 0.069703 0.250000 0.087498
Si Si6 0.430757 0.750000 0.461864
O O1 0.674465 0.750000 0.779739
O O2 0.698392 0.504332 0.725379
O O3 0.706153 0.503834 0.830278
O O4 0.602678 0.523547 0.777807
O O5 0.688737 0.938418 0.375769
O O6 0.589807 0.892828 0.322273
O O7 0.593583 0.890969 0.432132
O O8 0.598861 0.123989 0.378281
O O9 0.741534 0.750000 0.310000
O O10 0.500000 0.467514 0.738906
O O11 0.570475 0.250000 0.765863
O O12 0.000000 0.250000 0.092701
O O13 0.090241 0.250000 0.024532
O O14 0.500000 0.750000 0.458553
#
# Coordination Sequence:
#
# PCOD8297788 Si02
#       6
#    16  16  16  16   8   8
#     4  10  19  28  44  66  87 107 134 180 223 254
#     4  11  20  32  47  64  81 111 150 189 222 261
#     4  10  18  31  46  60  81 110 144 178 214 263
#     4  10  19  31  46  63  88 120 150 177 209 258
#     4  11  24  32  44  63  86 112 141 190 239 271
#     4  11  20  36  48  59  82 112 149 186 231 273
#
# _framework density 15.54128
#
# number of rings (size 3 to 8) (size 9 to 14) (size 15 to 20)
#    0.000    1.600    2.000    7.200    7.000    2.000 
#    0.000    0.000    0.000    0.000    0.000    0.000 
#    0.000    0.000    0.000    0.000    0.000    6.000 
#
# Total GULP energy -495589.990018 kJ/mol
# GULP energy per Si atom -12389.749750 kJ/mol
# Density = 1.550591 g / cm^3
# Si number density = 15.541280 Si / 1000 Ang^3
#
#
#
# Elastic Constant Matrix: (Units=GPa)
#
#
# Indices 1 2 3 4 5 6 
#
# 1 105.1603 42.4431 28.9900 0.0000 0.0000 0.0000
# 2 42.4431 137.2968 15.0732 0.0000 0.0000 0.0000
# 3 28.9900 15.0732 25.5351 0.0000 0.0000 0.0000
# 4 0.0000 0.0000 0.0000 62.2541 0.0000 0.0000
# 5 0.0000 0.0000 0.0000 0.0000 17.3836 0.0000
# 6 0.0000 0.0000 0.0000 0.0000 0.0000 33.7241
#
#
#
# Elastic Compliance Matrix: (Units=1/GPa)
#
#
# Indices 1 2 3 4 5 6 
#
# 1 0.014870 -0.002933 -0.015150 0.000000 0.000000 0.000000
# 2 -0.002933 0.008367 -0.001609 0.000000 0.000000 0.000000
# 3 -0.015150 -0.001609 0.057311 0.000000 0.000000 0.000000
# 4 0.000000 0.000000 0.000000 0.016063 0.000000 0.000000
# 5 0.000000 0.000000 0.000000 0.000000 0.057525 0.000000
# 6 0.000000 0.000000 0.000000 0.000000 0.000000 0.029652
#
#
# Mechanical properties :
#
#
# Convention : Reuss Voigt Hill
#
# Bulk Modulus (GPa) = 24.29322 49.00052 36.64687
# Shear Modulus (GPa) = 21.10648 34.77143 27.93895
#
# Velocity S-wave (km/s) = 3.68923 4.73520 4.24456
# Velocity P-wave (km/s) = 5.81486 7.84181 6.90313
#
# Compressibility (1/GPa) = 0.04116374
#
# Stress axis : x y z
#
# Youngs Moduli (GPa) = 67.25076 119.51823 17.44861
#
# Poissons Ratio (x) = 0.35061 0.26435
# Poissons Ratio (y) = 0.19728 0.02807
# Poissons Ratio (z) = 1.01885 0.19225
#
# Static dielectric constant tensor:
#      x y z
#    x 3.791640 0.000000 0.000000 
#    y 0.000000 3.040150 0.000000 
#    z 0.000000 0.000000 2.765450 
# 
# 
# High freq. dielectric constant tensor:
#      x y z
#    x 1.598300 0.000000 0.000000 
#    y 0.000000 1.619880 0.000000 
#    z 0.000000 0.000000 1.527900 
# 
# From -- ./inp_files/68543.got.cif
#   From: 2010.03.12/outbox.cif.g09.slc.cpg/sg74_35_cif.got.tgz:68543.got - 2010.04.16 15:46:19.
