data_PCOD8297033
_publ_section_title
;
Structure prediction by ZEFSAII (Michael W. Deem and Ramdas Pophale) SiO2 
 PCOD8297033
Probable space group: I B C A 
;
_chemical_formula_sum "Si O2"
_cell_formula_units_Z 112
_cell_length_a 28.756726
_cell_length_b 13.972967
_cell_length_c 11.099545
_cell_angle_alpha 90.000000
_cell_angle_beta 90.000000
_cell_angle_gamma 90.000000
_cell_volume 4459.983469
_symmetry_space_group_name_H-M "I B C A "
_symmetry_group_IT_number 73
_symmetry_cell_setting 'orthorhombic'
loop_
_space_group_symop_operation_xyz
x,y,z
-x,1/2-y,z
x,-y,1/2-z
1/2-x,y,-z
-x,-y,-z
x,1/2+y,-z
-x,y,1/2+z
1/2+x,-y,z
1/2+x,1/2+y,1/2+z
1/2-x,-y,1/2+z
1/2+x,1/2-y,-z
-x,1/2+y,1/2-z
1/2-x,1/2-y,1/2-z
1/2+x,y,1/2-z
1/2-x,1/2+y,z
x,1/2-y,1/2+z
loop_
_atom_site_type_symbol
_atom_site_label
_atom_site_fract_x
_atom_site_fract_y
_atom_site_fract_z
Si Si1 0.738553 0.152914 0.630350
Si Si2 0.609873 0.177730 0.354042
Si Si3 0.856368 0.509125 0.018904
Si Si4 0.500000 0.750000 0.374285
Si Si5 0.185820 0.336747 0.825527
Si Si6 0.176748 0.500000 0.250000
Si Si7 0.990470 0.901237 0.806049
Si Si8 0.429183 0.350198 0.972581
O O1 0.750000 0.104639 0.500000
O O2 0.786816 0.162351 0.699107
O O3 0.709905 0.250648 0.599623
O O4 0.708186 0.090755 0.721084
O O5 0.632969 0.181943 0.220751
O O6 0.555648 0.151433 0.350759
O O7 0.610221 0.287456 0.402296
O O8 0.638067 0.100202 0.436963
O O9 0.814913 0.565360 0.093279
O O10 0.852182 0.517082 0.873097
O O11 0.903194 0.568010 0.048976
O O12 0.484193 0.839866 0.295939
O O13 0.453581 0.728946 0.446591
O O14 0.030099 0.909428 0.906239
O O15 0.974814 0.000000 0.750000
#
# Coordination Sequence:
#
# PCOD8297033 Si02
#       8
#    16  16  16   8  16   8  16  16
#     4  11  28  50  82 115 155 203 251 321 401 475
#     4  12  24  51  75 112 155 207 263 320 401 475
#     4  12  30  46  79 114 154 209 259 324 396 468
#     4  12  22  46  70 106 144 208 250 314 392 454
#     4  11  27  50  79 111 154 202 255 320 392 474
#     4  12  30  50  76 122 150 200 258 322 390 482
#     4  12  26  46  74 107 151 201 261 323 396 462
#     4  12  27  45  71 110 151 202 260 325 383 470
#
# _framework density 25.112200999999999
#
# number of rings (size 3 to 8) (size 9 to 14) (size 15 to 20)
#    0.000    0.286    2.857    4.714   15.000    1.143 
#    0.000    0.000    0.000    0.000    0.000    0.000 
#    0.000    0.000    0.000    0.000    0.000    0.000 
#
# Total GULP energy -693938.482667 kJ/mol
# GULP energy per Si atom -12391.758619 kJ/mol
# Density = 2.505504 g / cm^3
# Si number density = 25.112201 Si / 1000 Ang^3
#
#
#
# Elastic Constant Matrix: (Units=GPa)
#
#
# Indices 1 2 3 4 5 6 
#
# 1 87.6542 21.4690 23.7626 0.0000 0.0000 0.0000
# 2 21.4690 80.1071 6.2222 0.0000 0.0000 0.0000
# 3 23.7626 6.2222 102.4796 0.0000 0.0000 0.0000
# 4 0.0000 0.0000 0.0000 58.3808 0.0000 0.0000
# 5 0.0000 0.0000 0.0000 0.0000 30.1714 0.0000
# 6 0.0000 0.0000 0.0000 0.0000 0.0000 4.8624
#
#
#
# Elastic Compliance Matrix: (Units=1/GPa)
#
#
# Indices 1 2 3 4 5 6 
#
# 1 0.012968 -0.003257 -0.002809 0.000000 0.000000 0.000000
# 2 -0.003257 0.013361 -0.000056 0.000000 0.000000 0.000000
# 3 -0.002809 -0.000056 0.010413 0.000000 0.000000 0.000000
# 4 0.000000 0.000000 0.000000 0.017129 0.000000 0.000000
# 5 0.000000 0.000000 0.000000 0.000000 0.033144 0.000000
# 6 0.000000 0.000000 0.000000 0.000000 0.000000 0.205659
#
#
# Mechanical properties :
#
#
# Convention : Reuss Voigt Hill
#
# Bulk Modulus (GPa) = 40.82203 41.46092 41.14147
# Shear Modulus (GPa) = 15.97020 33.26873 24.61946
#
# Velocity S-wave (km/s) = 2.52455 3.64373 3.13450
# Velocity P-wave (km/s) = 4.97885 5.85222 5.43311
#
# Compressibility (1/GPa) = 0.02449658
#
# Stress axis : x y z
#
# Youngs Moduli (GPa) = 77.11414 74.84704 96.03550
#
# Poissons Ratio (x) = 0.24379 0.26978
# Poissons Ratio (y) = 0.25118 0.00537
# Poissons Ratio (z) = 0.21663 0.00419
#
# Static dielectric constant tensor:
#      x y z
#    x 4.545130 0.000000 0.000000 
#    y 0.000000 4.568300 0.000000 
#    z 0.000000 0.000000 4.628250 
# 
# 
# High freq. dielectric constant tensor:
#      x y z
#    x 2.007820 0.000000 0.000000 
#    y 0.000000 2.003830 0.000000 
#    z 0.000000 0.000000 2.005120 
# 
# From -- ./inp_files/14845.got.cif
#   From: 2010.03.12/outbox.cif.g09.slc.cpg/sg73_8_cif.got.tgz:14845.got - 2010.04.16 15:25:48.
