data_PCOD8297826
_publ_section_title
;
Structure prediction by ZEFSAII (Michael W. Deem and Ramdas Pophale) SiO2 
 PCOD8297826
Probable space group: I M M A
;
_chemical_formula_sum "Si O2"
_cell_formula_units_Z 112
_cell_length_a 19.259187
_cell_length_b 18.387683
_cell_length_c 17.307967
_cell_angle_alpha 90.000000
_cell_angle_beta 90.000000
_cell_angle_gamma 90.000000
_cell_volume 6129.301948
_symmetry_space_group_name_H-M "I M M A"
_symmetry_group_IT_number 74
_symmetry_cell_setting 'orthorhombic'
loop_
_space_group_symop_operation_xyz
x,y,z
-x,1/2-y,z
x,-y,-z
-x,1/2+y,-z
-x,-y,-z
x,1/2+y,-z
-x,y,z
x,1/2-y,z
1/2+x,1/2+y,1/2+z
1/2-x,-y,1/2+z
1/2+x,1/2-y,1/2-z
1/2-x,y,1/2-z
1/2-x,1/2-y,1/2-z
1/2+x,y,1/2-z
1/2-x,1/2+y,1/2+z
1/2+x,-y,1/2+z
loop_
_atom_site_type_symbol
_atom_site_label
_atom_site_fract_x
_atom_site_fract_y
_atom_site_fract_z
Si Si1 0.920052 0.666876 0.329195
Si Si2 0.832183 0.080123 0.239141
Si Si3 0.349367 0.330856 0.118565
Si Si4 0.826848 0.081896 0.781637
Si Si5 0.366801 0.420931 0.972323
Si Si6 0.296127 0.426041 0.542249
Si Si7 0.314144 0.169274 0.403895
O O1 0.899132 0.750000 0.351850
O O2 0.876153 0.643343 0.254136
O O3 0.907523 0.611025 0.399405
O O4 0.000000 0.663091 0.305437
O O5 0.750000 0.083093 0.250000
O O6 0.872042 0.122337 0.307197
O O7 0.852480 0.117355 0.157758
O O8 0.856352 0.996854 0.242919
O O9 0.379970 0.250000 0.127116
O O10 0.266785 0.329067 0.115095
O O11 0.380871 0.365981 0.042144
O O12 0.750000 0.095531 0.750000
O O13 0.829674 0.084768 0.874300
O O14 0.286660 0.426440 0.948093
O O15 0.394211 0.500000 0.000000
O O16 0.319777 0.500000 0.500000
O O17 0.324236 0.359938 0.490443
O O18 0.346065 0.250000 0.398466
#
# Coordination Sequence:
#
# PCOD8297826 Si02
#       7
#    16  16  16  16  16  16  16
#     4  11  25  42  56  77 113 152 191 238 284 326
#     4   9  16  26  45  71 103 136 171 213 268 323
#     4   9  16  25  41  67 102 139 173 211 261 324
#     4  11  20  35  57  80 106 144 184 227 277 335
#     4  10  19  33  54  78 108 144 185 225 272 329
#     4  10  18  31  50  81 113 141 175 226 280 329
#     4   9  16  25  40  68 105 139 168 212 274 328
#
# _framework density 18.272880000000001
#
# number of rings (size 3 to 8) (size 9 to 14) (size 15 to 20)
#    0.000    2.143    2.857    1.714    4.000    3.429 
#    0.000    0.000    0.000    0.429    0.000    0.000 
#    0.000    1.714    0.000    0.286    0.000    0.000 
#
# Total GULP energy -694299.958989 kJ/mol
# GULP energy per Si atom -12398.213553 kJ/mol
# Density = 1.823129 g / cm^3
# Si number density = 18.272880 Si / 1000 Ang^3
#
#
#
# Elastic Constant Matrix: (Units=GPa)
#
#
# Indices 1 2 3 4 5 6 
#
# 1 33.6630 30.5542 29.1406 0.0000 0.0000 0.0000
# 2 30.5542 128.4071 52.3093 0.0000 0.0000 0.0000
# 3 29.1406 52.3093 136.4174 0.0000 0.0000 0.0000
# 4 0.0000 0.0000 0.0000 35.7383 0.0000 0.0000
# 5 0.0000 0.0000 0.0000 0.0000 13.5846 0.0000
# 6 0.0000 0.0000 0.0000 0.0000 0.0000 12.8383
#
#
#
# Elastic Compliance Matrix: (Units=1/GPa)
#
#
# Indices 1 2 3 4 5 6 
#
# 1 0.041716 -0.007462 -0.006050 0.000000 0.000000 0.000000
# 2 -0.007462 0.010564 -0.002457 0.000000 0.000000 0.000000
# 3 -0.006050 -0.002457 0.009565 0.000000 0.000000 0.000000
# 4 0.000000 0.000000 0.000000 0.027981 0.000000 0.000000
# 5 0.000000 0.000000 0.000000 0.000000 0.073613 0.000000
# 6 0.000000 0.000000 0.000000 0.000000 0.000000 0.077892
#
#
# Mechanical properties :
#
#
# Convention : Reuss Voigt Hill
#
# Bulk Modulus (GPa) = 33.43588 58.05508 45.74548
# Shear Modulus (GPa) = 17.65304 24.86446 21.25875
#
# Velocity S-wave (km/s) = 3.11155 3.69281 3.41457
# Velocity P-wave (km/s) = 5.58989 7.07267 6.37454
#
# Compressibility (1/GPa) = 0.02990799
#
# Stress axis : x y z
#
# Youngs Moduli (GPa) = 23.97164 94.66036 104.54911
#
# Poissons Ratio (x) = 0.70632 0.63251
# Poissons Ratio (y) = 0.17887 0.25687
# Poissons Ratio (z) = 0.14503 0.23257
#
# Static dielectric constant tensor:
#      x y z
#    x 2.677340 0.000000 0.000000 
#    y 0.000000 3.702000 0.000000 
#    z 0.000000 0.000000 3.493210 
# 
# 
# High freq. dielectric constant tensor:
#      x y z
#    x 1.625980 0.000000 0.000000 
#    y 0.000000 1.726160 0.000000 
#    z 0.000000 0.000000 1.723320 
# 
# From -- ./inp_files/45437.got.cif
#   From: 2010.03.12/outbox.cif.g09.slc.cpg/sg74_23_cif.got.tgz:45437.got - 2010.04.16 15:46:19.
