data_PCOD8297497
_publ_section_title
;
Structure prediction by ZEFSAII (Michael W. Deem and Ramdas Pophale) SiO2 
 PCOD8297497
Probable space group: I M M A
;
_chemical_formula_sum "Si O2"
_cell_formula_units_Z 104
_cell_length_a 8.928069
_cell_length_b 28.340108
_cell_length_c 24.514903
_cell_angle_alpha 90.000000
_cell_angle_beta 90.000000
_cell_angle_gamma 90.000000
_cell_volume 6202.820566
_symmetry_space_group_name_H-M "I M M A"
_symmetry_group_IT_number 74
_symmetry_cell_setting 'orthorhombic'
loop_
_space_group_symop_operation_xyz
x,y,z
-x,1/2-y,z
x,-y,-z
-x,1/2+y,-z
-x,-y,-z
x,1/2+y,-z
-x,y,z
x,1/2-y,z
1/2+x,1/2+y,1/2+z
1/2-x,-y,1/2+z
1/2+x,1/2-y,1/2-z
1/2-x,y,1/2-z
1/2-x,1/2-y,1/2-z
1/2+x,y,1/2-z
1/2-x,1/2+y,1/2+z
1/2+x,-y,1/2+z
loop_
_atom_site_type_symbol
_atom_site_label
_atom_site_fract_x
_atom_site_fract_y
_atom_site_fract_z
Si Si1 0.178434 0.930521 0.809719
Si Si2 0.325080 0.022202 0.808334
Si Si3 0.825532 0.126327 0.691756
Si Si4 0.322472 0.839496 0.624864
Si Si5 0.325970 0.804832 0.510583
Si Si6 0.821552 0.250000 0.191428
Si Si7 0.177130 0.196461 0.600203
O O1 0.250000 0.923466 0.750000
O O2 0.233268 0.888238 0.848658
O O3 0.000000 0.932322 0.804390
O O4 0.240751 0.978742 0.838392
O O5 0.500000 0.010141 0.803451
O O6 0.250000 0.025062 0.750000
O O7 0.298682 0.073987 0.834408
O O8 0.750000 0.133758 0.750000
O O9 0.759186 0.163961 0.648907
O O10 0.000000 0.134856 0.701588
O O11 0.500000 0.836580 0.624642
O O12 0.265903 0.834778 0.562396
O O13 0.260418 0.796027 0.660167
O O14 0.500000 0.813835 0.500123
O O15 0.293994 0.750000 0.522804
O O16 0.239283 0.822496 0.457138
O O17 0.750000 0.250000 0.250000
O O18 0.000000 0.250000 0.196137
O O19 0.231635 0.250000 0.610911
O O20 0.000000 0.193078 0.597671
#
# Coordination Sequence:
#
# PCOD8297497 Si02
#       7
#    16  16  16  16  16   8  16
#     4  10  18  28  43  65  91 118 149 187 230 270
#     4   9  16  28  45  64  87 117 151 183 216 261
#     4   9  18  31  48  70  96 123 148 176 217 267
#     4   9  17  29  46  64  87 119 152 188 228 268
#     4   9  16  30  50  67  84 115 159 193 218 261
#     4  10  18  30  44  62  90 122 149 182 229 276
#     4   9  18  32  48  69  97 122 143 179 227 266
#
# _framework density 16.766565
#
# number of rings (size 3 to 8) (size 9 to 14) (size 15 to 20)
#    0.000    2.769    0.769    2.308    0.000    1.538 
#    0.000    3.077    0.000    0.923    0.000    6.462 
#    0.000    0.000    0.000    0.000    0.000    0.000 
#
# Total GULP energy -644449.898346 kJ/mol
# GULP energy per Si atom -12393.267276 kJ/mol
# Density = 1.672840 g / cm^3
# Si number density = 16.766565 Si / 1000 Ang^3
#
#
#
# Elastic Constant Matrix: (Units=GPa)
#
#
# Indices 1 2 3 4 5 6 
#
# 1 42.9510 34.9178 28.8818 0.0000 0.0000 0.0000
# 2 34.9178 132.3671 80.7352 0.0000 0.0000 0.0000
# 3 28.8818 80.7352 120.4617 0.0000 0.0000 0.0000
# 4 0.0000 0.0000 0.0000 15.8522 0.0000 0.0000
# 5 0.0000 0.0000 0.0000 0.0000 23.8401 0.0000
# 6 0.0000 0.0000 0.0000 0.0000 0.0000 19.7860
#
#
#
# Elastic Compliance Matrix: (Units=1/GPa)
#
#
# Indices 1 2 3 4 5 6 
#
# 1 0.030365 -0.006038 -0.003234 0.000000 0.000000 0.000000
# 2 -0.006038 0.013979 -0.007921 0.000000 0.000000 0.000000
# 3 -0.003234 -0.007921 0.014386 0.000000 0.000000 0.000000
# 4 0.000000 0.000000 0.000000 0.063083 0.000000 0.000000
# 5 0.000000 0.000000 0.000000 0.000000 0.041946 0.000000
# 6 0.000000 0.000000 0.000000 0.000000 0.000000 0.050541
#
#
# Mechanical properties :
#
#
# Convention : Reuss Voigt Hill
#
# Bulk Modulus (GPa) = 41.07735 64.98326 53.03031
# Shear Modulus (GPa) = 19.47040 21.97867 20.72453
#
# Velocity S-wave (km/s) = 3.41143 3.62451 3.51958
# Velocity P-wave (km/s) = 6.33008 7.50719 6.94362
#
# Compressibility (1/GPa) = 0.02434432
#
# Stress axis : x y z
#
# Youngs Moduli (GPa) = 32.93215 71.53600 69.51375
#
# Poissons Ratio (x) = 0.43193 0.22479
# Poissons Ratio (y) = 0.19884 0.55064
# Poissons Ratio (z) = 0.10649 0.56666
#
# Static dielectric constant tensor:
#      x y z
#    x 3.028680 0.000000 0.000000 
#    y 0.000000 3.849930 0.000000 
#    z 0.000000 0.000000 3.081540 
# 
# 
# High freq. dielectric constant tensor:
#      x y z
#    x 1.634660 0.000000 0.000000 
#    y 0.000000 1.650960 0.000000 
#    z 0.000000 0.000000 1.623270 
# 
# From -- ./inp_files/57853.got.cif
#   From: 2010.03.12/outbox.cif.g09.slc.cpg/sg74_29_cif.got.tgz:57853.got - 2010.04.16 15:46:19.
