data_PCOD8297977
_publ_section_title
;
Structure prediction by ZEFSAII (Michael W. Deem and Ramdas Pophale) SiO2 
 PCOD8297977
Probable space group: I M M A
;
_chemical_formula_sum "Si O2"
_cell_formula_units_Z 96
_cell_length_a 23.205638
_cell_length_b 8.990026
_cell_length_c 25.502607
_cell_angle_alpha 90.000000
_cell_angle_beta 90.000000
_cell_angle_gamma 90.000000
_cell_volume 5320.335739
_symmetry_space_group_name_H-M "I M M A"
_symmetry_group_IT_number 74
_symmetry_cell_setting 'orthorhombic'
loop_
_space_group_symop_operation_xyz
x,y,z
-x,1/2-y,z
x,-y,-z
-x,1/2+y,-z
-x,-y,-z
x,1/2+y,-z
-x,y,z
x,1/2-y,z
1/2+x,1/2+y,1/2+z
1/2-x,-y,1/2+z
1/2+x,1/2-y,1/2-z
1/2-x,y,1/2-z
1/2-x,1/2-y,1/2-z
1/2+x,y,1/2-z
1/2-x,1/2+y,1/2+z
1/2+x,-y,1/2+z
loop_
_atom_site_type_symbol
_atom_site_label
_atom_site_fract_x
_atom_site_fract_y
_atom_site_fract_z
Si Si1 0.828382 0.424897 0.945806
Si Si2 0.880478 0.075580 0.152469
Si Si3 0.195869 0.924673 0.446180
Si Si4 0.817645 0.080103 0.756220
Si Si5 0.000000 0.422538 0.204839
Si Si6 0.123296 0.573821 0.349041
Si Si7 0.000000 0.425479 0.683348
O O1 0.838268 0.250000 0.950193
O O2 0.869377 0.490446 0.901409
O O3 0.761948 0.463164 0.932489
O O4 0.846939 0.500000 0.000000
O O5 0.872613 0.250000 0.143215
O O6 0.944536 0.033614 0.170887
O O7 0.834857 0.022263 0.195438
O O8 0.186956 0.750000 0.452830
O O9 0.155845 0.991597 0.399866
O O10 0.176037 0.000000 0.500000
O O11 0.837548 0.250000 0.766890
O O12 0.750000 0.071617 0.750000
O O13 0.847228 0.014142 0.704007
O O14 0.000000 0.250000 0.219594
O O15 0.000000 0.510794 0.258656
O O16 0.130118 0.750000 0.350259
O O17 0.056435 0.522825 0.349050
O O18 0.000000 0.250000 0.690384
#
# Coordination Sequence:
#
# PCOD8297977 Si02
#       7
#    16  16  16  16   8  16   8
#     4  10  20  36  58  81 107 140 177 221 270 323
#     4  11  22  36  54  78 109 143 179 219 268 324
#     4   9  18  34  54  77 106 138 173 215 266 316
#     4  10  19  32  52  78 107 138 175 222 273 323
#     4  10  22  38  53  74 109 146 178 221 270 315
#     4   9  17  30  50  76 103 134 176 221 261 308
#     4  10  18  32  55  76  98 138 188 223 257 315
#
# _framework density 18.043975
#
# number of rings (size 3 to 8) (size 9 to 14) (size 15 to 20)
#    0.000    2.167    1.667    2.000    0.000    4.333 
#    0.000    2.500    0.000    0.000    0.000    0.000 
#    0.000    0.000    0.000    0.000    0.000    0.000 
#
# Total GULP energy -595292.505156 kJ/mol
# GULP energy per Si atom -12401.927191 kJ/mol
# Density = 1.800291 g / cm^3
# Si number density = 18.043975 Si / 1000 Ang^3
#
#
#
# Elastic Constant Matrix: (Units=GPa)
#
#
# Indices 1 2 3 4 5 6 
#
# 1 87.7755 31.6081 48.5970 0.0000 0.0000 0.0000
# 2 31.6081 52.2086 42.9347 0.0000 0.0000 0.0000
# 3 48.5970 42.9347 130.2308 0.0000 0.0000 0.0000
# 4 0.0000 0.0000 0.0000 33.4662 0.0000 0.0000
# 5 0.0000 0.0000 0.0000 0.0000 19.9669 0.0000
# 6 0.0000 0.0000 0.0000 0.0000 0.0000 -1.7888
#
#
#
# Elastic Compliance Matrix: (Units=1/GPa)
#
#
# Indices 1 2 3 4 5 6 
#
# 1 0.015809 -0.006475 -0.003764 0.000000 0.000000 0.000000
# 2 -0.006475 0.028931 -0.007122 0.000000 0.000000 0.000000
# 3 -0.003764 -0.007122 0.011431 0.000000 0.000000 0.000000
# 4 0.000000 0.000000 0.000000 0.029881 0.000000 0.000000
# 5 0.000000 0.000000 0.000000 0.000000 0.050083 0.000000
# 6 0.000000 0.000000 0.000000 0.000000 0.000000 -0.559033
#
#
# Mechanical properties :
#
#
# Convention : Reuss Voigt Hill
#
# Bulk Modulus (GPa) = 46.62392 57.38829 52.00611
# Shear Modulus (GPa) = -13.12244 20.13386 3.50571
#
# Velocity S-wave (km/s) = -2.69968 3.34402 1.39538
# Velocity P-wave (km/s) = 4.02212 6.83986 5.61075
#
# Compressibility (1/GPa) = 0.02144822
#
# Stress axis : x y z
#
# Youngs Moduli (GPa) = 63.25678 34.56533 87.47918
#
# Poissons Ratio (x) = 0.22381 0.32931
# Poissons Ratio (y) = 0.40959 0.62300
# Poissons Ratio (z) = 0.23813 0.24616
#
# Static dielectric constant tensor:
#      x y z
#    x 3.618330 0.000000 0.000000 
#    y 0.000000 3.206410 0.000000 
#    z 0.000000 0.000000 3.432040 
# 
# 
# High freq. dielectric constant tensor:
#      x y z
#    x 1.700370 0.000000 0.000000 
#    y 0.000000 1.682480 0.000000 
#    z 0.000000 0.000000 1.702540 
# 
# From -- ./inp_files/61927.got.cif
#   From: 2010.03.12/outbox.cif.g09.slc.cpg/sg74_31_cif.got.tgz:61927.got - 2010.04.16 15:46:19.
