data_PCOD8297238
_publ_section_title
;
Structure prediction by ZEFSAII (Michael W. Deem and Ramdas Pophale) SiO2 
 PCOD8297238
Probable space group: I M M A
;
_chemical_formula_sum "Si O2"
_cell_formula_units_Z 128
_cell_length_a 25.194341
_cell_length_b 19.016092
_cell_length_c 16.844790
_cell_angle_alpha 90.000000
_cell_angle_beta 90.000000
_cell_angle_gamma 90.000000
_cell_volume 8070.303622
_symmetry_space_group_name_H-M "I M M A"
_symmetry_group_IT_number 74
_symmetry_cell_setting 'orthorhombic'
loop_
_space_group_symop_operation_xyz
x,y,z
-x,1/2-y,z
x,-y,-z
-x,1/2+y,-z
-x,-y,-z
x,1/2+y,-z
-x,y,z
x,1/2-y,z
1/2+x,1/2+y,1/2+z
1/2-x,-y,1/2+z
1/2+x,1/2-y,1/2-z
1/2-x,y,1/2-z
1/2-x,1/2-y,1/2-z
1/2+x,y,1/2-z
1/2-x,1/2+y,1/2+z
1/2+x,-y,1/2+z
loop_
_atom_site_type_symbol
_atom_site_label
_atom_site_fract_x
_atom_site_fract_y
_atom_site_fract_z
Si Si1 0.335771 0.171454 0.417440
Si Si2 0.756125 0.171340 0.942816
Si Si3 0.719216 0.444674 0.324022
Si Si4 0.559210 0.979493 0.369285
Si Si5 0.858797 0.042891 0.740965
Si Si6 0.695211 0.528530 0.083054
Si Si7 0.561010 0.888989 0.517292
Si Si8 0.694407 0.672202 0.282811
O O1 0.332281 0.250000 0.380881
O O2 0.286718 0.158359 0.475939
O O3 0.325078 0.111607 0.351919
O O4 0.394009 0.166914 0.458241
O O5 0.729070 0.250000 0.942361
O O6 0.713252 0.109954 0.926521
O O7 0.802781 0.170371 0.877696
O O8 0.750000 0.408624 0.250000
O O9 0.690434 0.513129 0.290513
O O10 0.757096 0.475241 0.393160
O O11 0.500000 0.963274 0.343797
O O12 0.588257 0.983086 0.284182
O O13 0.577880 0.918855 0.430788
O O14 0.564016 0.052164 0.415318
O O15 0.852569 0.022730 0.647971
O O16 0.854596 0.126938 0.750226
O O17 0.672110 0.500000 0.000000
O O18 0.500000 0.858857 0.515129
O O19 0.684956 0.750000 0.248808
O O20 0.750000 0.641719 0.250000
#
# Coordination Sequence:
#
# PCOD8297238 Si02
#       8
#    16  16  16  16  16  16  16  16
#     4  11  21  31  46  65  93 136 163 190 235 270
#     4  10  19  29  41  64  96 124 154 187 226 278
#     4  10  20  31  45  68  93 124 160 196 232 278
#     4   9  18  31  51  73  93 119 150 195 244 282
#     4  11  18  30  49  69  91 121 162 194 236 280
#     4  11  20  30  46  68  93 125 157 196 236 275
#     4   9  18  32  49  71  95 121 158 197 234 276
#     4  10  17  26  41  66  95 119 149 185 226 272
#
# _framework density 15.860618000000001
#
# number of rings (size 3 to 8) (size 9 to 14) (size 15 to 20)
#    0.000    1.875    5.000    1.875    0.000    0.500 
#    0.000    0.000    0.000    1.500    0.000    0.000 
#    0.000    0.000    0.000    0.000    0.000    0.000 
#
# Total GULP energy -792887.756250 kJ/mol
# GULP energy per Si atom -12388.871191 kJ/mol
# Density = 1.582452 g / cm^3
# Si number density = 15.860618 Si / 1000 Ang^3
#
#
#
# Elastic Constant Matrix: (Units=GPa)
#
#
# Indices 1 2 3 4 5 6 
#
# 1 50.9236 20.9661 31.8550 0.0000 0.0000 0.0000
# 2 20.9661 71.2219 28.4572 0.0000 0.0000 0.0000
# 3 31.8550 28.4572 89.4392 0.0000 0.0000 0.0000
# 4 0.0000 0.0000 0.0000 14.7984 0.0000 0.0000
# 5 0.0000 0.0000 0.0000 0.0000 27.2283 0.0000
# 6 0.0000 0.0000 0.0000 0.0000 0.0000 14.7911
#
#
#
# Elastic Compliance Matrix: (Units=1/GPa)
#
#
# Indices 1 2 3 4 5 6 
#
# 1 0.026531 -0.004622 -0.007979 0.000000 0.000000 0.000000
# 2 -0.004622 0.016891 -0.003728 0.000000 0.000000 0.000000
# 3 -0.007979 -0.003728 0.015209 0.000000 0.000000 0.000000
# 4 0.000000 0.000000 0.000000 0.067575 0.000000 0.000000
# 5 0.000000 0.000000 0.000000 0.000000 0.036727 0.000000
# 6 0.000000 0.000000 0.000000 0.000000 0.000000 0.067608
#
#
# Mechanical properties :
#
#
# Convention : Reuss Voigt Hill
#
# Bulk Modulus (GPa) = 38.50169 41.57125 40.03647
# Shear Modulus (GPa) = 18.39208 20.05066 19.22137
#
# Velocity S-wave (km/s) = 3.40899 3.55939 3.48500
# Velocity P-wave (km/s) = 6.31052 6.56959 6.44136
#
# Compressibility (1/GPa) = 0.02597289
#
# Stress axis : x y z
#
# Youngs Moduli (GPa) = 37.69116 59.20374 65.75183
#
# Poissons Ratio (x) = 0.27365 0.52462
# Poissons Ratio (y) = 0.17422 0.24512
# Poissons Ratio (z) = 0.30073 0.22071
#
# Static dielectric constant tensor:
#      x y z
#    x 2.813040 0.000000 0.000000 
#    y 0.000000 3.004720 0.000000 
#    z 0.000000 0.000000 3.062200 
# 
# 
# High freq. dielectric constant tensor:
#      x y z
#    x 1.567090 0.000000 0.000000 
#    y 0.000000 1.609850 0.000000 
#    z 0.000000 0.000000 1.601970 
# 
# From -- ./inp_files/44603.got.cif
#   From: 2010.03.12/outbox.cif.g09.slc.cpg/sg74_23_cif.got.tgz:44603.got - 2010.04.16 15:46:19.
