data_PCOD8297090
_publ_section_title
;
Structure prediction by ZEFSAII (Michael W. Deem and Ramdas Pophale) SiO2 
 PCOD8297090
Probable space group: I B C A 
;
_chemical_formula_sum "Si O2"
_cell_formula_units_Z 96
_cell_length_a 26.892329
_cell_length_b 10.319162
_cell_length_c 19.245202
_cell_angle_alpha 90.000000
_cell_angle_beta 90.000000
_cell_angle_gamma 90.000000
_cell_volume 5340.664790
_symmetry_space_group_name_H-M "I B C A "
_symmetry_group_IT_number 73
_symmetry_cell_setting 'orthorhombic'
loop_
_space_group_symop_operation_xyz
x,y,z
-x,1/2-y,z
x,-y,1/2-z
1/2-x,y,-z
-x,-y,-z
x,1/2+y,-z
-x,y,1/2+z
1/2+x,-y,z
1/2+x,1/2+y,1/2+z
1/2-x,-y,1/2+z
1/2+x,1/2-y,-z
-x,1/2+y,1/2-z
1/2-x,1/2-y,1/2-z
1/2+x,y,1/2-z
1/2-x,1/2+y,z
x,1/2-y,1/2+z
loop_
_atom_site_type_symbol
_atom_site_label
_atom_site_fract_x
_atom_site_fract_y
_atom_site_fract_z
Si Si1 0.217748 0.358208 0.163815
Si Si2 0.046748 0.467877 0.406173
Si Si3 0.107519 0.711693 0.357901
Si Si4 0.707853 0.353811 0.172771
Si Si5 0.039298 0.134254 0.053040
Si Si6 0.898735 0.635332 0.712258
O O1 0.166728 0.294587 0.136358
O O2 0.262011 0.264220 0.136116
O O3 0.222659 0.507449 0.137511
O O4 0.220512 0.359387 0.246392
O O5 0.084591 0.585183 0.394024
O O6 0.061374 0.396489 0.477347
O O7 0.053659 0.373109 0.339264
O O8 0.989337 0.512066 0.412571
O O9 0.086395 0.835809 0.398410
O O10 0.090213 0.730475 0.277022
O O11 0.648844 0.324871 0.165433
O O12 0.000000 0.250000 0.047486
O O13 0.884225 0.500000 0.750000
#
# Coordination Sequence:
#
# PCOD8297090 Si02
#       6
#    16  16  16  16  16  16
#     4   9  15  25  47  75 102 132 164 208 252 308
#     4   9  16  30  51  71  97 127 172 205 249 308
#     4   9  16  30  50  76  96 130 167 208 257 303
#     4   9  14  25  45  76 103 128 166 203 254 305
#     4   9  18  30  49  74  93 131 169 207 246 308
#     4   9  14  28  49  77  96 128 165 206 253 307
#
# _framework density 17.975290000000001
#
# number of rings (size 3 to 8) (size 9 to 14) (size 15 to 20)
#    0.000    3.000    5.000    0.000    0.000    0.000 
#    0.000    5.833   11.000    1.000   43.333    0.000 
#    0.000    0.000    0.000    0.000    0.000    0.000 
#
# Total GULP energy -594698.272075 kJ/mol
# GULP energy per Si atom -12389.547335 kJ/mol
# Density = 1.793438 g / cm^3
# Si number density = 17.975290 Si / 1000 Ang^3
#
#
#
# Elastic Constant Matrix: (Units=GPa)
#
#
# Indices 1 2 3 4 5 6 
#
# 1 83.1968 39.6770 53.5212 0.0000 0.0000 0.0000
# 2 39.6770 66.5941 39.4043 0.0000 0.0000 0.0000
# 3 53.5212 39.4043 87.2779 0.0000 0.0000 0.0000
# 4 0.0000 0.0000 0.0000 26.5269 0.0000 0.0000
# 5 0.0000 0.0000 0.0000 0.0000 16.4787 0.0000
# 6 0.0000 0.0000 0.0000 0.0000 0.0000 23.8138
#
#
#
# Elastic Compliance Matrix: (Units=1/GPa)
#
#
# Indices 1 2 3 4 5 6 
#
# 1 0.022005 -0.006995 -0.010336 0.000000 0.000000 0.000000
# 2 -0.006995 0.022714 -0.005965 0.000000 0.000000 0.000000
# 3 -0.010336 -0.005965 0.020489 0.000000 0.000000 0.000000
# 4 0.000000 0.000000 0.000000 0.037698 0.000000 0.000000
# 5 0.000000 0.000000 0.000000 0.000000 0.060685 0.000000
# 6 0.000000 0.000000 0.000000 0.000000 0.000000 0.041992
#
#
# Mechanical properties :
#
#
# Convention : Reuss Voigt Hill
#
# Bulk Modulus (GPa) = 53.71876 55.80818 54.76347
# Shear Modulus (GPa) = 19.35141 20.32830 19.83985
#
# Velocity S-wave (km/s) = 3.28465 3.36654 3.32585
# Velocity P-wave (km/s) = 6.65845 6.79897 6.72907
#
# Compressibility (1/GPa) = 0.01861547
#
# Stress axis : x y z
#
# Youngs Moduli (GPa) = 45.44495 44.02656 48.80620
#
# Poissons Ratio (x) = 0.30795 0.50446
# Poissons Ratio (y) = 0.31787 0.29115
# Poissons Ratio (z) = 0.46972 0.26264
#
# Static dielectric constant tensor:
#      x y z
#    x 3.351060 0.000000 0.000000 
#    y 0.000000 3.527650 0.000000 
#    z 0.000000 0.000000 3.267010 
# 
# 
# High freq. dielectric constant tensor:
#      x y z
#    x 1.685040 0.000000 0.000000 
#    y 0.000000 1.675460 0.000000 
#    z 0.000000 0.000000 1.662790 
# 
# From -- ./inp_files/12128.got.cif
#   From: 2010.03.12/outbox.cif.g09.slc.cpg/sg73_7_cif.got.tgz:12128.got - 2010.04.16 15:25:48.
