data_PCOD8297124
_publ_section_title
;
Structure prediction by ZEFSAII (Michael W. Deem and Ramdas Pophale) SiO2 
 PCOD8297124
Probable space group: I M M A
;
_chemical_formula_sum "Si O2"
_cell_formula_units_Z 80
_cell_length_a 16.362399
_cell_length_b 13.704709
_cell_length_c 19.169820
_cell_angle_alpha 90.000000
_cell_angle_beta 90.000000
_cell_angle_gamma 90.000000
_cell_volume 4298.677182
_symmetry_space_group_name_H-M "I M M A"
_symmetry_group_IT_number 74
_symmetry_cell_setting 'orthorhombic'
loop_
_space_group_symop_operation_xyz
x,y,z
-x,1/2-y,z
x,-y,-z
-x,1/2+y,-z
-x,-y,-z
x,1/2+y,-z
-x,y,z
x,1/2-y,z
1/2+x,1/2+y,1/2+z
1/2-x,-y,1/2+z
1/2+x,1/2-y,1/2-z
1/2-x,y,1/2-z
1/2-x,1/2-y,1/2-z
1/2+x,y,1/2-z
1/2-x,1/2+y,1/2+z
1/2+x,-y,1/2+z
loop_
_atom_site_type_symbol
_atom_site_label
_atom_site_fract_x
_atom_site_fract_y
_atom_site_fract_z
Si Si1 0.000000 0.145409 0.369518
Si Si2 0.000000 0.110571 0.521071
Si Si3 0.148397 0.864942 0.710201
Si Si4 0.819162 0.360452 0.539444
Si Si5 0.251848 0.450874 0.098064
Si Si6 0.906542 0.634945 0.863565
O O1 0.081481 0.091972 0.344337
O O2 0.000000 0.250000 0.328350
O O3 0.000000 0.171350 0.450275
O O4 0.915768 0.135305 0.561305
O O5 0.000000 0.000000 0.500000
O O6 0.166317 0.750000 0.705913
O O7 0.229238 0.917016 0.678522
O O8 0.116616 0.896539 0.785257
O O9 0.787551 0.250000 0.550726
O O10 0.806783 0.392208 0.458620
O O11 0.766940 0.433278 0.588672
O O12 0.155935 0.424170 0.085994
O O13 0.894964 0.750000 0.875129
O O14 0.000000 0.604073 0.879721
#
# Coordination Sequence:
#
# PCOD8297124 Si02
#       6
#     8   8  16  16  16  16
#     4  10  16  24  44  74 106 134 154 190 244 305
#     4  12  18  32  50  77 109 142 168 197 249 304
#     4  10  17  29  50  78 109 135 162 202 258 316
#     4  11  22  35  52  76 107 140 176 211 248 302
#     4  11  21  33  52  77 105 137 172 212 256 306
#     4  10  20  34  53  78 105 134 170 216 268 313
#
# _framework density 18.610375999999999
#
# number of rings (size 3 to 8) (size 9 to 14) (size 15 to 20)
#    0.000    1.400    5.000    3.300    0.000    1.600 
#    0.000    2.000    0.000    4.200    0.000    0.000 
#    0.000    0.000    0.000    0.000    0.000    0.000 
#
# Total GULP energy -495532.293264 kJ/mol
# GULP energy per Si atom -12388.307332 kJ/mol
# Density = 1.856802 g / cm^3
# Si number density = 18.610376 Si / 1000 Ang^3
#
#
#
# Elastic Constant Matrix: (Units=GPa)
#
#
# Indices 1 2 3 4 5 6 
#
# 1 143.9789 36.8272 19.1038 0.0000 0.0000 0.0000
# 2 36.8272 116.4889 15.6669 0.0000 0.0000 0.0000
# 3 19.1038 15.6669 29.3629 0.0000 0.0000 0.0000
# 4 0.0000 0.0000 0.0000 22.4018 0.0000 0.0000
# 5 0.0000 0.0000 0.0000 0.0000 13.3440 0.0000
# 6 0.0000 0.0000 0.0000 0.0000 0.0000 21.1597
#
#
#
# Elastic Compliance Matrix: (Units=1/GPa)
#
#
# Indices 1 2 3 4 5 6 
#
# 1 0.008001 -0.001971 -0.004154 0.000000 0.000000 0.000000
# 2 -0.001971 0.009734 -0.003911 0.000000 0.000000 0.000000
# 3 -0.004154 -0.003911 0.038846 0.000000 0.000000 0.000000
# 4 0.000000 0.000000 0.000000 0.044639 0.000000 0.000000
# 5 0.000000 0.000000 0.000000 0.000000 0.074940 0.000000
# 6 0.000000 0.000000 0.000000 0.000000 0.000000 0.047260
#
#
# Mechanical properties :
#
#
# Convention : Reuss Voigt Hill
#
# Bulk Modulus (GPa) = 27.39077 48.11404 37.75241
# Shear Modulus (GPa) = 19.55721 25.92996 22.74359
#
# Velocity S-wave (km/s) = 3.24524 3.73675 3.49964
# Velocity P-wave (km/s) = 5.36582 6.67287 6.05472
#
# Compressibility (1/GPa) = 0.03650865
#
# Stress axis : x y z
#
# Youngs Moduli (GPa) = 124.98936 102.73712 25.74262
#
# Poissons Ratio (x) = 0.20246 0.10693
# Poissons Ratio (y) = 0.24632 0.10069
# Poissons Ratio (z) = 0.51918 0.40184
#
# Static dielectric constant tensor:
#      x y z
#    x 3.829240 0.000000 0.000000 
#    y 0.000000 3.218550 0.000000 
#    z 0.000000 0.000000 2.799480 
# 
# 
# High freq. dielectric constant tensor:
#      x y z
#    x 1.740480 0.000000 0.000000 
#    y 0.000000 1.689870 0.000000 
#    z 0.000000 0.000000 1.684830 
# 
# From -- ./inp_files/43886.got.cif
#   From: 2010.03.12/outbox.cif.g09.slc.cpg/sg74_22_cif.got.tgz:43886.got - 2010.04.16 15:46:19.
