data_PCOD8297094
_publ_section_title
;
Structure prediction by ZEFSAII (Michael W. Deem and Ramdas Pophale) SiO2 
 PCOD8297094
Probable space group: I B C A 
;
_chemical_formula_sum "Si O2"
_cell_formula_units_Z 64
_cell_length_a 12.000000
_cell_length_b 24.000000
_cell_length_c 24.000000
_cell_angle_alpha 90.000000
_cell_angle_beta 90.000000
_cell_angle_gamma 90.000000
_cell_volume 6912.000000
_symmetry_space_group_name_H-M "I B C A "
_symmetry_group_IT_number 73
_symmetry_cell_setting 'orthorhombic'
loop_
_space_group_symop_operation_xyz
x,y,z
-x,1/2-y,z
x,-y,1/2-z
1/2-x,y,-z
-x,-y,-z
x,1/2+y,-z
-x,y,1/2+z
1/2+x,-y,z
1/2+x,1/2+y,1/2+z
1/2-x,-y,1/2+z
1/2+x,1/2-y,-z
-x,1/2+y,1/2-z
1/2-x,1/2-y,1/2-z
1/2+x,y,1/2-z
1/2-x,1/2+y,z
x,1/2-y,1/2+z
loop_
_atom_site_type_symbol
_atom_site_label
_atom_site_fract_x
_atom_site_fract_y
_atom_site_fract_z
Si Si1 0.984284 0.315444 0.286178
Si Si2 0.365847 0.124039 0.918013
Si Si3 0.543692 0.809952 0.987958
Si Si4 0.474012 0.685151 0.662628
Si Si5 0.346656 0.382237 0.043228
Si Si6 0.722004 0.192048 0.145130
Si Si7 0.162043 0.683282 0.126845
Si Si8 0.875058 0.496071 0.030493
O O1 0.986613 0.335684 0.223029
O O2 0.083091 0.341191 0.324185
O O3 0.000000 0.250000 0.290545
O O4 0.862304 0.331118 0.308381
O O5 0.470200 0.144831 0.882008
O O6 0.250810 0.134664 0.885120
O O7 0.379806 0.058461 0.930434
O O8 0.360370 0.164310 0.972479
O O9 0.500000 0.750000 0.010475
O O10 0.449988 0.857346 0.990656
O O11 0.585688 0.802058 0.925619
O O12 0.500000 0.750000 0.650975
O O13 0.343774 0.672734 0.661289
O O14 0.314031 0.336625 0.088272
O O15 0.372261 0.445378 0.065203
O O16 0.250000 0.389418 0.000000
O O17 0.723227 0.259258 0.142751
O O18 0.750000 0.491001 0.000000
O O19 0.000000 0.500000 0.000000
#
# Coordination Sequence:
#
# PCOD8297094 Si02
#       8
#    16  16  16  16  16  16  16  16
#     4   9  21  37  60  87 125 167 201 245 304 372
#     4  12  25  38  60  91 124 158 204 253 304 361
#     4  12  21  34  55  92 128 156 193 244 314 373
#     4  11  23  38  60  94 125 159 204 251 306 365
#     4  11  23  38  60  86 124 161 199 249 301 370
#     4  11  21  38  58  90 124 161 201 245 310 365
#     4  11  21  36  57  92 126 160 197 245 309 370
#     4  11  25  45  63  87 123 170 216 247 299 373
#
# _framework density 9.2592590000000001
#
# number of rings (size 3 to 8) (size 9 to 14) (size 15 to 20)
#    0.000    1.000    5.000    2.625    5.250    1.500 
#    0.000    0.000    0.000    0.750    0.000    0.000 
#    0.000    0.000    0.000    0.000    0.000    0.000 
#
# Total GULP energy -792977.706865 kJ/mol
# GULP energy per Si atom -12390.276670 kJ/mol
# Density = 0.923818 g / cm^3
# Si number density = 9.259259 Si / 1000 Ang^3
#
#
#
# Elastic Constant Matrix: (Units=GPa)
#
#
# Indices 1 2 3 4 5 6 
#
# 1 129.7313 37.3777 26.1798 0.0000 0.0000 0.0000
# 2 37.3777 111.7557 24.8925 0.0000 0.0000 0.0000
# 3 26.1798 24.8925 73.2844 0.0000 0.0000 0.0000
# 4 0.0000 0.0000 0.0000 14.5370 0.0000 0.0000
# 5 0.0000 0.0000 0.0000 0.0000 7.0191 0.0000
# 6 0.0000 0.0000 0.0000 0.0000 0.0000 32.4748
#
#
#
# Elastic Compliance Matrix: (Units=1/GPa)
#
#
# Indices 1 2 3 4 5 6 
#
# 1 0.008887 -0.002451 -0.002342 0.000000 0.000000 0.000000
# 2 -0.002451 0.010356 -0.002642 0.000000 0.000000 0.000000
# 3 -0.002342 -0.002642 0.015380 0.000000 0.000000 0.000000
# 4 0.000000 0.000000 0.000000 0.068790 0.000000 0.000000
# 5 0.000000 0.000000 0.000000 0.000000 0.142469 0.000000
# 6 0.000000 0.000000 0.000000 0.000000 0.000000 0.030793
#
#
# Mechanical properties :
#
#
# Convention : Reuss Voigt Hill
#
# Bulk Modulus (GPa) = 50.62641 54.63018 52.62829
# Shear Modulus (GPa) = 16.77121 25.89426 21.33274
#
# Velocity S-wave (km/s) = 3.01266 3.74343 3.39775
# Velocity P-wave (km/s) = 6.28483 6.94613 6.62374
#
# Compressibility (1/GPa) = 0.01975254
#
# Stress axis : x y z
#
# Youngs Moduli (GPa) = 112.52414 96.56001 65.02062
#
# Poissons Ratio (x) = 0.23663 0.15230
# Poissons Ratio (y) = 0.27575 0.17180
# Poissons Ratio (z) = 0.26357 0.25514
#
# Static dielectric constant tensor:
#      x y z
#    x 4.285290 0.000000 0.000000 
#    y 0.000000 3.554110 0.000000 
#    z 0.000000 0.000000 3.473830 
# 
# 
# High freq. dielectric constant tensor:
#      x y z
#    x 1.752470 0.000000 0.000000 
#    y 0.000000 1.697370 0.000000 
#    z 0.000000 0.000000 1.702210 
# 
# From -- ./inp_files/29147.got.cif
#   From: 2010.03.12/outbox.ucp.g09.slc.cvg/sg73_15_cif.got.tgz:29147.got - 2010.05.04 20:06:02.
