data_PCOD8297806
_publ_section_title
;
Structure prediction by ZEFSAII (Michael W. Deem and Ramdas Pophale) SiO2 
 PCOD8297806
Probable space group: I M M A
;
_chemical_formula_sum "Si O2"
_cell_formula_units_Z 96
_cell_length_a 23.859816
_cell_length_b 14.407466
_cell_length_c 17.433585
_cell_angle_alpha 90.000000
_cell_angle_beta 90.000000
_cell_angle_gamma 90.000000
_cell_volume 5992.960250
_symmetry_space_group_name_H-M "I M M A"
_symmetry_group_IT_number 74
_symmetry_cell_setting 'orthorhombic'
loop_
_space_group_symop_operation_xyz
x,y,z
-x,1/2-y,z
x,-y,-z
-x,1/2+y,-z
-x,-y,-z
x,1/2+y,-z
-x,y,z
x,1/2-y,z
1/2+x,1/2+y,1/2+z
1/2-x,-y,1/2+z
1/2+x,1/2-y,1/2-z
1/2-x,y,1/2-z
1/2-x,1/2-y,1/2-z
1/2+x,y,1/2-z
1/2-x,1/2+y,1/2+z
1/2+x,-y,1/2+z
loop_
_atom_site_type_symbol
_atom_site_label
_atom_site_fract_x
_atom_site_fract_y
_atom_site_fract_z
Si Si1 0.064276 0.250000 0.795368
Si Si2 0.565535 0.051688 0.921694
Si Si3 0.833001 0.353995 0.812779
Si Si4 0.770693 0.001018 0.090890
Si Si5 0.063497 0.750000 0.387787
Si Si6 0.307592 0.646769 0.704589
Si Si7 0.840653 0.998851 0.315596
O O1 0.098958 0.159013 0.825378
O O2 0.068608 0.250000 0.703531
O O3 0.000000 0.250000 0.824607
O O4 0.500000 0.049323 0.900347
O O5 0.589874 0.157202 0.925227
O O6 0.598399 0.002475 0.853402
O O7 0.578679 0.000000 0.000000
O O8 0.806428 0.250000 0.805775
O O9 0.803957 0.409129 0.881968
O O10 0.823193 0.408828 0.733698
O O11 0.706734 0.004550 0.119343
O O12 0.801094 0.093332 0.123615
O O13 0.771647 0.000000 0.000000
O O14 0.000000 0.750000 0.414571
O O15 0.331852 0.750000 0.689106
O O16 0.250000 0.652923 0.750000
O O17 0.347478 0.587769 0.760313
#
# Coordination Sequence:
#
# PCOD8297806 Si02
#       7
#     8  16  16  16   8  16  16
#     4   9  16  30  54  76  94 123 160 198 246 301
#     4  10  19  31  47  68  99 133 166 204 243 283
#     4   9  18  31  49  75  99 124 153 206 243 285
#     4  10  20  31  46  70 103 130 158 198 243 294
#     4   9  16  30  47  67  95 126 161 195 237 290
#     4   8  16  32  50  64  87 125 166 198 230 281
#     4  10  18  31  49  70  96 130 168 199 237 288
#
# _framework density 16.018795000000001
#
# number of rings (size 3 to 8) (size 9 to 14) (size 15 to 20)
#    0.500    2.167    1.667    2.000    0.000    2.000 
#    1.500    0.000    3.667    0.500    0.000    0.000 
#    0.000    0.000    0.000    0.000    0.000    0.000 
#
# Total GULP energy -594629.148858 kJ/mol
# GULP energy per Si atom -12388.107268 kJ/mol
# Density = 1.598234 g / cm^3
# Si number density = 16.018795 Si / 1000 Ang^3
#
#
#
# Elastic Constant Matrix: (Units=GPa)
#
#
# Indices 1 2 3 4 5 6 
#
# 1 51.3680 36.1485 40.8323 0.0000 0.0000 0.0000
# 2 36.1485 134.3136 57.5030 0.0000 0.0000 0.0000
# 3 40.8323 57.5030 117.7634 0.0000 0.0000 0.0000
# 4 0.0000 0.0000 0.0000 13.5507 0.0000 0.0000
# 5 0.0000 0.0000 0.0000 0.0000 22.5974 0.0000
# 6 0.0000 0.0000 0.0000 0.0000 0.0000 16.9278
#
#
#
# Elastic Compliance Matrix: (Units=1/GPa)
#
#
# Indices 1 2 3 4 5 6 
#
# 1 0.028788 -0.004393 -0.007837 0.000000 0.000000 0.000000
# 2 -0.004393 0.010083 -0.003401 0.000000 0.000000 0.000000
# 3 -0.007837 -0.003401 0.012869 0.000000 0.000000 0.000000
# 4 0.000000 0.000000 0.000000 0.073797 0.000000 0.000000
# 5 0.000000 0.000000 0.000000 0.000000 0.044253 0.000000
# 6 0.000000 0.000000 0.000000 0.000000 0.000000 0.059075
#
#
# Mechanical properties :
#
#
# Convention : Reuss Voigt Hill
#
# Bulk Modulus (GPa) = 48.82666 63.60140 56.21403
# Shear Modulus (GPa) = 18.72995 21.87925 20.30460
#
# Velocity S-wave (km/s) = 3.42314 3.69975 3.56413
# Velocity P-wave (km/s) = 6.79491 7.61848 7.21845
#
# Compressibility (1/GPa) = 0.02048061
#
# Stress axis : x y z
#
# Youngs Moduli (GPa) = 34.73660 99.17338 77.70423
#
# Poissons Ratio (x) = 0.43565 0.60895
# Poissons Ratio (y) = 0.15259 0.26423
# Poissons Ratio (z) = 0.27222 0.33724
#
# Static dielectric constant tensor:
#      x y z
#    x 2.938570 0.000000 0.000000 
#    y 0.000000 3.468230 0.000000 
#    z 0.000000 0.000000 2.846980 
# 
# 
# High freq. dielectric constant tensor:
#      x y z
#    x 1.595180 0.000000 0.000000 
#    y 0.000000 1.622660 0.000000 
#    z 0.000000 0.000000 1.594940 
# 
# From -- ./inp_files/37331.got.cif
#   From: 2010.03.12/outbox.cif.g09.slc.cpg/sg74_19_cif.got.tgz:37331.got - 2010.04.16 15:46:19.
