data_PCOD8297666
_publ_section_title
;
Structure prediction by ZEFSAII (Michael W. Deem and Ramdas Pophale) SiO2 
 PCOD8297666
Probable space group: I M M A
;
_chemical_formula_sum "Si O2"
_cell_formula_units_Z 96
_cell_length_a 9.074659
_cell_length_b 25.852108
_cell_length_c 23.104682
_cell_angle_alpha 90.000000
_cell_angle_beta 90.000000
_cell_angle_gamma 90.000000
_cell_volume 5420.336783
_symmetry_space_group_name_H-M "I M M A"
_symmetry_group_IT_number 74
_symmetry_cell_setting 'orthorhombic'
loop_
_space_group_symop_operation_xyz
x,y,z
-x,1/2-y,z
x,-y,-z
-x,1/2+y,-z
-x,-y,-z
x,1/2+y,-z
-x,y,z
x,1/2-y,z
1/2+x,1/2+y,1/2+z
1/2-x,-y,1/2+z
1/2+x,1/2-y,1/2-z
1/2-x,y,1/2-z
1/2-x,1/2-y,1/2-z
1/2+x,y,1/2-z
1/2-x,1/2+y,1/2+z
1/2+x,-y,1/2+z
loop_
_atom_site_type_symbol
_atom_site_label
_atom_site_fract_x
_atom_site_fract_y
_atom_site_fract_z
Si Si1 0.162394 0.947370 0.843359
Si Si2 0.678062 0.250000 0.313891
Si Si3 0.675407 0.150692 0.188091
Si Si4 0.671231 0.192406 0.689502
Si Si5 0.338491 0.400721 0.852074
Si Si6 0.832918 0.008715 0.567002
Si Si7 0.250000 0.524814 0.250000
O O1 0.286636 0.903224 0.841646
O O2 0.000000 0.922930 0.850994
O O3 0.206925 0.977448 0.900666
O O4 0.150420 0.985867 0.788135
O O5 0.500000 0.250000 0.312556
O O6 0.750000 0.250000 0.250000
O O7 0.744797 0.198832 0.345236
O O8 0.500000 0.158856 0.191877
O O9 0.750000 0.146829 0.250000
O O10 0.500000 0.185276 0.700393
O O11 0.706113 0.250000 0.664475
O O12 0.750000 0.183856 0.750000
O O13 0.724099 0.146849 0.647066
O O14 0.500000 0.375572 0.851770
O O15 0.313334 0.431932 0.911858
O O16 0.333307 0.438628 0.795913
O O17 0.000000 0.990748 0.582654
O O18 0.801615 0.000000 0.500000
#
# Coordination Sequence:
#
# PCOD8297666 Si02
#       7
#    16   8  16  16  16  16   8
#     4  11  21  32  50  75 104 135 169 209 252 304
#     4  10  18  30  46  66  96 132 168 202 242 293
#     4  11  20  31  47  70 101 133 167 202 246 295
#     4  10  20  32  47  71 105 141 173 207 251 302
#     4  10  19  31  51  76 102 135 171 207 252 303
#     4   9  20  38  55  74 102 135 171 213 262 311
#     4  10  20  30  47  71 108 136 166 200 252 300
#
# _framework density 17.711075999999998
#
# number of rings (size 3 to 8) (size 9 to 14) (size 15 to 20)
#    0.000    1.833    1.667    4.750    0.000    5.333 
#    0.000    0.000    0.000    0.000    2.167    0.000 
#    0.000    0.000    0.000    0.000    0.000    0.000 
#
# Total GULP energy -594651.712542 kJ/mol
# GULP energy per Si atom -12388.577345 kJ/mol
# Density = 1.767076 g / cm^3
# Si number density = 17.711076 Si / 1000 Ang^3
#
#
#
# Elastic Constant Matrix: (Units=GPa)
#
#
# Indices 1 2 3 4 5 6 
#
# 1 134.5464 55.3827 29.0287 0.0000 0.0000 0.0000
# 2 55.3827 121.4592 35.6532 0.0000 0.0000 0.0000
# 3 29.0287 35.6532 80.2529 0.0000 0.0000 0.0000
# 4 0.0000 0.0000 0.0000 13.1241 0.0000 0.0000
# 5 0.0000 0.0000 0.0000 0.0000 14.4290 0.0000
# 6 0.0000 0.0000 0.0000 0.0000 0.0000 23.3164
#
#
#
# Elastic Compliance Matrix: (Units=1/GPa)
#
#
# Indices 1 2 3 4 5 6 
#
# 1 0.009350 -0.003761 -0.001711 0.000000 0.000000 0.000000
# 2 -0.003761 0.010981 -0.003518 0.000000 0.000000 0.000000
# 3 -0.001711 -0.003518 0.014642 0.000000 0.000000 0.000000
# 4 0.000000 0.000000 0.000000 0.076196 0.000000 0.000000
# 5 0.000000 0.000000 0.000000 0.000000 0.069305 0.000000
# 6 0.000000 0.000000 0.000000 0.000000 0.000000 0.042888
#
#
# Mechanical properties :
#
#
# Convention : Reuss Voigt Hill
#
# Bulk Modulus (GPa) = 58.84803 64.04309 61.44556
# Shear Modulus (GPa) = 20.24242 24.58682 22.41462
#
# Velocity S-wave (km/s) = 3.38438 3.72992 3.56135
# Velocity P-wave (km/s) = 6.96928 7.40190 7.18885
#
# Compressibility (1/GPa) = 0.01699292
#
# Stress axis : x y z
#
# Youngs Moduli (GPa) = 106.95578 91.06813 68.29475
#
# Poissons Ratio (x) = 0.34250 0.11686
# Poissons Ratio (y) = 0.40226 0.24026
# Poissons Ratio (z) = 0.18301 0.32037
#
# Static dielectric constant tensor:
#      x y z
#    x 3.451100 0.000000 0.000000 
#    y 0.000000 4.190120 0.000000 
#    z 0.000000 0.000000 2.861680 
# 
# 
# High freq. dielectric constant tensor:
#      x y z
#    x 1.697850 0.000000 0.000000 
#    y 0.000000 1.698390 0.000000 
#    z 0.000000 0.000000 1.625060 
# 
# From -- ./inp_files/57518.got.cif
#   From: 2010.03.12/outbox.cif.g09.slc.cpg/sg74_29_cif.got.tgz:57518.got - 2010.04.16 15:46:19.
