data_PCOD8297340
_publ_section_title
;
Structure prediction by ZEFSAII (Michael W. Deem and Ramdas Pophale) SiO2 
 PCOD8297340
Probable space group: I M M A
;
_chemical_formula_sum "Si O2"
_cell_formula_units_Z 128
_cell_length_a 19.023406
_cell_length_b 17.773580
_cell_length_c 23.893148
_cell_angle_alpha 90.000000
_cell_angle_beta 90.000000
_cell_angle_gamma 90.000000
_cell_volume 8078.608522
_symmetry_space_group_name_H-M "I M M A"
_symmetry_group_IT_number 74
_symmetry_cell_setting 'orthorhombic'
loop_
_space_group_symop_operation_xyz
x,y,z
-x,1/2-y,z
x,-y,-z
-x,1/2+y,-z
-x,-y,-z
x,1/2+y,-z
-x,y,z
x,1/2-y,z
1/2+x,1/2+y,1/2+z
1/2-x,-y,1/2+z
1/2+x,1/2-y,1/2-z
1/2-x,y,1/2-z
1/2-x,1/2-y,1/2-z
1/2+x,y,1/2-z
1/2-x,1/2+y,1/2+z
1/2+x,-y,1/2+z
loop_
_atom_site_type_symbol
_atom_site_label
_atom_site_fract_x
_atom_site_fract_y
_atom_site_fract_z
Si Si1 0.916605 0.890253 0.561883
Si Si2 0.672599 0.435169 0.388060
Si Si3 0.824918 0.836191 0.778247
Si Si4 0.920383 0.451047 0.944177
Si Si5 0.820721 0.667987 0.466994
Si Si6 0.664811 0.165751 0.492428
Si Si7 0.423401 0.837654 0.818192
Si Si8 0.805237 0.490197 0.562993
O O1 0.883955 0.842818 0.511051
O O2 0.893943 0.850523 0.619610
O O3 0.000000 0.896241 0.553520
O O4 0.882392 0.972936 0.564445
O O5 0.669336 0.394164 0.328929
O O6 0.616240 0.503159 0.393287
O O7 0.650619 0.373451 0.433477
O O8 0.750644 0.470317 0.395346
O O9 0.843509 0.750000 0.796827
O O10 0.750000 0.836283 0.750000
O O11 0.875687 0.871006 0.730834
O O12 0.000000 0.429769 0.926635
O O13 0.920339 0.500000 0.000000
O O14 0.874629 0.376397 0.956498
O O15 0.830973 0.750000 0.437405
O O16 0.748161 0.666967 0.500325
O O17 0.817733 0.598527 0.422889
O O18 0.634128 0.250000 0.490322
O O19 0.500000 0.875924 0.813303
O O20 0.428184 0.750000 0.807714
O O21 0.773336 0.500000 0.500000
#
# Coordination Sequence:
#
# PCOD8297340 Si02
#       8
#    16  16  16  16  16  16  16  16
#     4  10  19  30  48  69  91 125 161 190 224 269
#     4  11  17  31  47  65  91 125 160 192 229 272
#     4  10  21  31  44  68  94 122 160 201 232 263
#     4   9  18  31  47  66  90 120 154 191 231 277
#     4  10  19  29  45  67  93 125 156 184 220 271
#     4  10  18  29  47  68  92 123 154 184 223 275
#     4   9  18  33  47  62  91 125 154 189 231 267
#     4  10  17  30  45  64  91 123 151 190 228 267
#
# _framework density 15.844313
#
# number of rings (size 3 to 8) (size 9 to 14) (size 15 to 20)
#    0.000    2.125    3.750    1.875    0.000    3.750 
#    0.000    0.000    0.000    2.250    0.000    0.000 
#    0.000    9.000    0.000    2.000    0.000    0.000 
#
# Total GULP energy -793120.448704 kJ/mol
# GULP energy per Si atom -12392.507011 kJ/mol
# Density = 1.580825 g / cm^3
# Si number density = 15.844313 Si / 1000 Ang^3
#
#
#
# Elastic Constant Matrix: (Units=GPa)
#
#
# Indices 1 2 3 4 5 6 
#
# 1 86.3280 30.3486 24.7009 0.0000 0.0000 0.0000
# 2 30.3486 101.3812 21.0376 0.0000 0.0000 0.0000
# 3 24.7009 21.0376 54.6695 0.0000 0.0000 0.0000
# 4 0.0000 0.0000 0.0000 25.2038 0.0000 0.0000
# 5 0.0000 0.0000 0.0000 0.0000 21.0136 0.0000
# 6 0.0000 0.0000 0.0000 0.0000 0.0000 18.1276
#
#
#
# Elastic Compliance Matrix: (Units=1/GPa)
#
#
# Indices 1 2 3 4 5 6 
#
# 1 0.014182 -0.003169 -0.005188 0.000000 0.000000 0.000000
# 2 -0.003169 0.011428 -0.002966 0.000000 0.000000 0.000000
# 3 -0.005188 -0.002966 0.021777 0.000000 0.000000 0.000000
# 4 0.000000 0.000000 0.000000 0.039677 0.000000 0.000000
# 5 0.000000 0.000000 0.000000 0.000000 0.047588 0.000000
# 6 0.000000 0.000000 0.000000 0.000000 0.000000 0.055165
#
#
# Mechanical properties :
#
#
# Convention : Reuss Voigt Hill
#
# Bulk Modulus (GPa) = 40.41854 43.83922 42.12888
# Shear Modulus (GPa) = 22.65417 23.95511 23.30464
#
# Velocity S-wave (km/s) = 3.78537 3.89254 3.83933
# Velocity P-wave (km/s) = 6.68360 6.92324 6.80448
#
# Compressibility (1/GPa) = 0.02474112
#
# Stress axis : x y z
#
# Youngs Moduli (GPa) = 70.51044 87.50593 45.91945
#
# Poissons Ratio (x) = 0.27729 0.23825
# Poissons Ratio (y) = 0.22344 0.13619
# Poissons Ratio (z) = 0.36584 0.25953
#
# Static dielectric constant tensor:
#      x y z
#    x 3.193410 0.000000 0.000000 
#    y 0.000000 3.308860 0.000000 
#    z 0.000000 0.000000 2.774740 
# 
# 
# High freq. dielectric constant tensor:
#      x y z
#    x 1.618160 0.000000 0.000000 
#    y 0.000000 1.605150 0.000000 
#    z 0.000000 0.000000 1.560360 
# 
# From -- ./inp_files/61134.got.cif
#   From: 2010.03.12/outbox.cif.g09.slc.cpg/sg74_31_cif.got.tgz:61134.got - 2010.04.16 15:46:19.
