data_PCOD8297028
_publ_section_title
;
Structure prediction by ZEFSAII (Michael W. Deem and Ramdas Pophale) SiO2 
 PCOD8297028
Probable space group: I B C A 
;
_chemical_formula_sum "Si O2"
_cell_formula_units_Z 72
_cell_length_a 13.653535
_cell_length_b 9.304081
_cell_length_c 25.545269
_cell_angle_alpha 90.000000
_cell_angle_beta 90.000000
_cell_angle_gamma 90.000000
_cell_volume 3245.107371
_symmetry_space_group_name_H-M "I B C A "
_symmetry_group_IT_number 73
_symmetry_cell_setting 'orthorhombic'
loop_
_space_group_symop_operation_xyz
x,y,z
-x,1/2-y,z
x,-y,1/2-z
1/2-x,y,-z
-x,-y,-z
x,1/2+y,-z
-x,y,1/2+z
1/2+x,-y,z
1/2+x,1/2+y,1/2+z
1/2-x,-y,1/2+z
1/2+x,1/2-y,-z
-x,1/2+y,1/2-z
1/2-x,1/2-y,1/2-z
1/2+x,y,1/2-z
1/2-x,1/2+y,z
x,1/2-y,1/2+z
loop_
_atom_site_type_symbol
_atom_site_label
_atom_site_fract_x
_atom_site_fract_y
_atom_site_fract_z
Si Si1 0.750000 0.292219 0.500000
Si Si2 0.254305 0.236448 0.832063
Si Si3 0.294116 0.519357 0.598036
Si Si4 0.597523 0.663176 0.756693
Si Si5 0.564070 0.381608 0.028912
O O1 0.761705 0.396784 0.449383
O O2 0.844168 0.185698 0.504035
O O3 0.308395 0.378551 0.852526
O O4 0.144766 0.282649 0.812059
O O5 0.316710 0.176974 0.785103
O O6 0.257839 0.125165 0.880806
O O7 0.400156 0.468744 0.579225
O O8 0.500000 0.750000 0.744161
O O9 0.563972 0.500000 0.750000
O O10 0.500000 0.250000 0.048783
O O11 0.500000 0.500000 0.000000
#
# Coordination Sequence:
#
# PCOD8297028 Si02
#       5
#     8  16  16  16  16
#     4  12  26  48  76 102 160 200 250 310 372 430
#     4  11  26  49  75 104 147 188 243 303 372 444
#     4  12  25  47  74 105 145 201 245 300 368 439
#     4  11  26  49  76 109 143 183 236 308 378 448
#     4  12  27  46  71 107 150 206 254 310 366 433
#
# _framework density 22.187246999999999
#
# number of rings (size 3 to 8) (size 9 to 14) (size 15 to 20)
#    0.000    0.444    6.667    0.667    3.111    0.889 
#    8.000    0.000    0.000    0.000    0.000    0.000 
#    0.000    0.000    0.000    0.000    0.000    0.000 
#
# Total GULP energy -446042.958183 kJ/mol
# GULP energy per Si atom -12390.082172 kJ/mol
# Density = 2.213675 g / cm^3
# Si number density = 22.187247 Si / 1000 Ang^3
#
#
#
# Elastic Constant Matrix: (Units=GPa)
#
#
# Indices 1 2 3 4 5 6 
#
# 1 118.3559 67.1390 31.3997 0.0000 0.0000 0.0000
# 2 67.1390 163.6935 38.4142 0.0000 0.0000 0.0000
# 3 31.3997 38.4142 79.3958 0.0000 0.0000 0.0000
# 4 0.0000 0.0000 0.0000 36.7571 0.0000 0.0000
# 5 0.0000 0.0000 0.0000 0.0000 32.8167 0.0000
# 6 0.0000 0.0000 0.0000 0.0000 0.0000 53.1753
#
#
#
# Elastic Compliance Matrix: (Units=1/GPa)
#
#
# Indices 1 2 3 4 5 6 
#
# 1 0.011449 -0.004099 -0.002545 0.000000 0.000000 0.000000
# 2 -0.004099 0.008359 -0.002423 0.000000 0.000000 0.000000
# 3 -0.002545 -0.002423 0.014774 0.000000 0.000000 0.000000
# 4 0.000000 0.000000 0.000000 0.027206 0.000000 0.000000
# 5 0.000000 0.000000 0.000000 0.000000 0.030472 0.000000
# 6 0.000000 0.000000 0.000000 0.000000 0.000000 0.018806
#
#
# Mechanical properties :
#
#
# Convention : Reuss Voigt Hill
#
# Bulk Modulus (GPa) = 60.79649 70.59457 65.69553
# Shear Modulus (GPa) = 37.12439 39.51596 38.32017
#
# Velocity S-wave (km/s) = 4.09495 4.22479 4.16038
# Velocity P-wave (km/s) = 7.05827 7.46225 7.26307
#
# Compressibility (1/GPa) = 0.01644832
#
# Stress axis : x y z
#
# Youngs Moduli (GPa) = 87.34149 119.63522 67.68625
#
# Poissons Ratio (x) = 0.49035 0.17226
# Poissons Ratio (y) = 0.35799 0.16402
# Poissons Ratio (z) = 0.22228 0.28991
#
# Static dielectric constant tensor:
#      x y z
#    x 3.941970 0.000000 0.000000 
#    y 0.000000 4.954330 0.000000 
#    z 0.000000 0.000000 3.504620 
# 
# 
# High freq. dielectric constant tensor:
#      x y z
#    x 1.858580 0.000000 0.000000 
#    y 0.000000 1.911790 0.000000 
#    z 0.000000 0.000000 1.867680 
# 
# From -- ./inp_files/4811.got.cif
#   From: 2010.03.12/outbox.cif.g09.slc.cpg/sg73_3_cif.got.tgz:4811.got - 2010.04.16 15:25:48.
