data_PCOD8297155
_publ_section_title
;
Structure prediction by ZEFSAII (Michael W. Deem and Ramdas Pophale) SiO2 
 PCOD8297155
Probable space group: I M M A
;
_chemical_formula_sum "Si O2"
_cell_formula_units_Z 88
_cell_length_a 17.697575
_cell_length_b 13.702122
_cell_length_c 18.859567
_cell_angle_alpha 90.000000
_cell_angle_beta 90.000000
_cell_angle_gamma 90.000000
_cell_volume 4573.338097
_symmetry_space_group_name_H-M "I M M A"
_symmetry_group_IT_number 74
_symmetry_cell_setting 'orthorhombic'
loop_
_space_group_symop_operation_xyz
x,y,z
-x,1/2-y,z
x,-y,-z
-x,1/2+y,-z
-x,-y,-z
x,1/2+y,-z
-x,y,z
x,1/2-y,z
1/2+x,1/2+y,1/2+z
1/2-x,-y,1/2+z
1/2+x,1/2-y,1/2-z
1/2-x,y,1/2-z
1/2-x,1/2-y,1/2-z
1/2+x,y,1/2-z
1/2-x,1/2+y,1/2+z
1/2+x,-y,1/2+z
loop_
_atom_site_type_symbol
_atom_site_label
_atom_site_fract_x
_atom_site_fract_y
_atom_site_fract_z
Si Si1 0.339805 0.027752 0.746699
Si Si2 0.335199 0.643323 0.388096
Si Si3 0.813836 0.000000 0.500000
Si Si4 0.913254 0.862146 0.821993
Si Si5 0.844121 0.140601 0.615844
Si Si6 0.687098 0.135647 0.457464
O O1 0.250000 0.017528 0.750000
O O2 0.368441 0.075166 0.672903
O O3 0.372958 0.091300 0.811358
O O4 0.378170 0.921095 0.744669
O O5 0.370699 0.750000 0.376093
O O6 0.245314 0.649304 0.381041
O O7 0.353667 0.606359 0.467873
O O8 0.865885 0.069497 0.549769
O O9 0.762029 0.068915 0.448893
O O10 0.903304 0.750000 0.801500
O O11 0.868841 0.888120 0.893868
O O12 0.000000 0.889834 0.834479
O O13 0.879316 0.250000 0.607503
O O14 0.710678 0.250000 0.459829
#
# Coordination Sequence:
#
# PCOD8297155 Si02
#       6
#    16  16   8  16  16  16
#     4  10  18  30  49  71  95 127 169 213 254 297
#     4   8  14  25  43  68  96 128 169 211 244 279
#     4  10  16  28  47  74 105 130 164 204 246 300
#     4  10  21  35  48  66  98 139 177 211 249 292
#     4   9  17  28  45  70  99 128 156 198 254 298
#     4   9  16  27  43  62  91 133 173 207 241 280
#
# _framework density 19.241961
#
# number of rings (size 3 to 8) (size 9 to 14) (size 15 to 20)
#    0.000    2.727    0.000    5.455    0.000    2.545 
#    0.000    5.909    0.000    3.273    0.000    0.636 
#    0.000    0.000    0.000    0.000    0.000    0.000 
#
# Total GULP energy -545294.849246 kJ/mol
# GULP energy per Si atom -12393.064756 kJ/mol
# Density = 1.919817 g / cm^3
# Si number density = 19.241961 Si / 1000 Ang^3
#
#
#
# Elastic Constant Matrix: (Units=GPa)
#
#
# Indices 1 2 3 4 5 6 
#
# 1 16.6390 22.9941 18.7968 0.0000 0.0000 0.0000
# 2 22.9941 120.9086 84.6111 0.0000 0.0000 0.0000
# 3 18.7968 84.6111 113.4298 0.0000 0.0000 0.0000
# 4 0.0000 0.0000 0.0000 39.4686 0.0000 0.0000
# 5 0.0000 0.0000 0.0000 0.0000 9.7940 0.0000
# 6 0.0000 0.0000 0.0000 0.0000 0.0000 12.8920
#
#
#
# Elastic Compliance Matrix: (Units=1/GPa)
#
#
# Indices 1 2 3 4 5 6 
#
# 1 0.082433 -0.012798 -0.004114 0.000000 0.000000 0.000000
# 2 -0.012798 0.019290 -0.012268 0.000000 0.000000 0.000000
# 3 -0.004114 -0.012268 0.018649 0.000000 0.000000 0.000000
# 4 0.000000 0.000000 0.000000 0.025337 0.000000 0.000000
# 5 0.000000 0.000000 0.000000 0.000000 0.102103 0.000000
# 6 0.000000 0.000000 0.000000 0.000000 0.000000 0.077568
#
#
# Mechanical properties :
#
#
# Convention : Reuss Voigt Hill
#
# Bulk Modulus (GPa) = 16.12589 55.97573 36.05081
# Shear Modulus (GPa) = 12.36368 20.73594 16.54981
#
# Velocity S-wave (km/s) = 2.53758 3.28631 2.93591
# Velocity P-wave (km/s) = 4.12123 6.59950 5.50172
#
# Compressibility (1/GPa) = 0.06201208
#
# Stress axis : x y z
#
# Youngs Moduli (GPa) = 12.13100 51.84095 53.62261
#
# Poissons Ratio (x) = 0.66348 0.22058
# Poissons Ratio (y) = 0.15526 0.65784
# Poissons Ratio (z) = 0.04990 0.63599
#
# Static dielectric constant tensor:
#      x y z
#    x 2.797330 0.000000 0.000000 
#    y 0.000000 3.998720 0.000000 
#    z 0.000000 0.000000 3.711820 
# 
# 
# High freq. dielectric constant tensor:
#      x y z
#    x 1.661960 0.000000 0.000000 
#    y 0.000000 1.777610 0.000000 
#    z 0.000000 0.000000 1.747030 
# 
# From -- ./inp_files/43935.got.cif
#   From: 2010.03.12/outbox.cif.g09.slc.cpg/sg74_22_cif.got.tgz:43935.got - 2010.04.16 15:46:19.
