data_PCOD8297175
_publ_section_title
;
Structure prediction by ZEFSAII (Michael W. Deem and Ramdas Pophale) SiO2 
 PCOD8297175
Probable space group: I M M A
;
_chemical_formula_sum "Si O2"
_cell_formula_units_Z 84
_cell_length_a 11.345109
_cell_length_b 19.090698
_cell_length_c 22.802104
_cell_angle_alpha 90.000000
_cell_angle_beta 90.000000
_cell_angle_gamma 90.000000
_cell_volume 4938.617630
_symmetry_space_group_name_H-M "I M M A"
_symmetry_group_IT_number 74
_symmetry_cell_setting 'orthorhombic'
loop_
_space_group_symop_operation_xyz
x,y,z
-x,1/2-y,z
x,-y,-z
-x,1/2+y,-z
-x,-y,-z
x,1/2+y,-z
-x,y,z
x,1/2-y,z
1/2+x,1/2+y,1/2+z
1/2-x,-y,1/2+z
1/2+x,1/2-y,1/2-z
1/2-x,y,1/2-z
1/2-x,1/2-y,1/2-z
1/2+x,y,1/2-z
1/2-x,1/2+y,1/2+z
1/2+x,-y,1/2+z
loop_
_atom_site_type_symbol
_atom_site_label
_atom_site_fract_x
_atom_site_fract_y
_atom_site_fract_z
Si Si1 0.000000 0.107878 0.001499
Si Si2 0.139127 0.020440 0.590990
Si Si3 0.135970 0.750000 0.360575
Si Si4 0.744379 0.750000 0.014502
Si Si5 0.500000 0.250000 0.498318
Si Si6 0.259804 0.595922 0.979946
Si Si7 0.500000 0.665620 0.368851
Si Si8 0.758801 0.613675 0.182615
O O1 0.000000 0.139939 0.935968
O O2 0.000000 0.179697 0.041401
O O3 0.877760 0.068385 0.015166
O O4 0.169958 0.071654 0.537294
O O5 0.207157 0.047077 0.647995
O O6 0.000000 0.020708 0.602091
O O7 0.183206 0.941346 0.576585
O O8 0.161509 0.750000 0.429632
O O9 0.181847 0.818249 0.328730
O O10 0.000000 0.750000 0.350966
O O11 0.879396 0.750000 0.038357
O O12 0.725325 0.819962 0.975125
O O13 0.500000 0.750000 0.362569
O O14 0.609591 0.630754 0.336493
O O15 0.750000 0.592423 0.250000
#
# Coordination Sequence:
#
# PCOD8297175 Si02
#       8
#     8  16   8   8   4  16   8  16
#     4  10  16  30  52  77 110 135 179 213 274 322
#     4  11  23  39  52  73 111 145 182 223 278 324
#     4  12  23  35  52  78 113 146 186 223 260 315
#     4  10  18  33  55  86 110 147 181 220 272 330
#     4   8  14  26  48  74 110 138 166 212 262 302
#     4  10  20  33  55  81 108 145 179 222 275 329
#     4  12  22  37  55  80 114 143 189 230 270 309
#     4  12  26  39  56  77 104 151 194 231 269 313
#
# _framework density 17.008807999999998
#
# number of rings (size 3 to 8) (size 9 to 14) (size 15 to 20)
#    0.000    1.143    5.238    3.143    2.667    3.048 
#    0.000    0.000    0.000    0.000    0.000    0.667 
#    0.000    0.000    0.000    0.000    0.000    0.000 
#
# Total GULP energy -520416.145250 kJ/mol
# GULP energy per Si atom -12390.860601 kJ/mol
# Density = 1.697010 g / cm^3
# Si number density = 17.008808 Si / 1000 Ang^3
#
#
#
# Elastic Constant Matrix: (Units=GPa)
#
#
# Indices 1 2 3 4 5 6 
#
# 1 149.1445 41.6220 45.0679 0.0000 0.0000 0.0000
# 2 41.6220 118.0034 54.8706 0.0000 0.0000 0.0000
# 3 45.0679 54.8706 87.2181 0.0000 0.0000 0.0000
# 4 0.0000 0.0000 0.0000 23.3048 0.0000 0.0000
# 5 0.0000 0.0000 0.0000 0.0000 -37.7950 0.0000
# 6 0.0000 0.0000 0.0000 0.0000 0.0000 25.4558
#
#
#
# Elastic Compliance Matrix: (Units=1/GPa)
#
#
# Indices 1 2 3 4 5 6 
#
# 1 0.008081 -0.001284 -0.003368 0.000000 0.000000 0.000000
# 2 -0.001284 0.012183 -0.007001 0.000000 0.000000 0.000000
# 3 -0.003368 -0.007001 0.017610 0.000000 0.000000 0.000000
# 4 0.000000 0.000000 0.000000 0.042910 0.000000 0.000000
# 5 0.000000 0.000000 0.000000 0.000000 -0.026459 0.000000
# 6 0.000000 0.000000 0.000000 0.000000 0.000000 0.039284
#
#
# Mechanical properties :
#
#
# Convention : Reuss Voigt Hill
#
# Bulk Modulus (GPa) = 68.64282 70.83190 69.73736
# Shear Modulus (GPa) = 41.06116 16.38015 28.72066
#
# Velocity S-wave (km/s) = 4.91869 3.10665 4.11369
# Velocity P-wave (km/s) = 8.52660 7.38939 7.97828
#
# Compressibility (1/GPa) = 0.01456817
#
# Stress axis : x y z
#
# Youngs Moduli (GPa) = 123.74775 82.08440 56.78634
#
# Poissons Ratio (x) = 0.10543 0.19123
# Poissons Ratio (y) = 0.15894 0.39754
# Poissons Ratio (z) = 0.41673 0.57464
#
# Static dielectric constant tensor:
#      x y z
#    x 3.482400 0.000000 0.000000 
#    y 0.000000 3.456300 0.000000 
#    z 0.000000 0.000000 2.894950 
# 
# 
# High freq. dielectric constant tensor:
#      x y z
#    x 1.683320 0.000000 0.000000 
#    y 0.000000 1.656630 0.000000 
#    z 0.000000 0.000000 1.600550 
# 
# From -- ./inp_files/50746.got.cif
#   From: 2010.03.12/outbox.cif.g09.slc.cpg/sg74_26_cif.got.tgz:50746.got - 2010.04.16 15:46:19.
