data_PCOD8297783
_publ_section_title
;
Structure prediction by ZEFSAII (Michael W. Deem and Ramdas Pophale) SiO2 
 PCOD8297783
Probable space group: I M M A
;
_chemical_formula_sum "Si O2"
_cell_formula_units_Z 104
_cell_length_a 14.302510
_cell_length_b 22.808454
_cell_length_c 21.896326
_cell_angle_alpha 90.000000
_cell_angle_beta 90.000000
_cell_angle_gamma 90.000000
_cell_volume 7142.978772
_symmetry_space_group_name_H-M "I M M A"
_symmetry_group_IT_number 74
_symmetry_cell_setting 'orthorhombic'
loop_
_space_group_symop_operation_xyz
x,y,z
-x,1/2-y,z
x,-y,-z
-x,1/2+y,-z
-x,-y,-z
x,1/2+y,-z
-x,y,z
x,1/2-y,z
1/2+x,1/2+y,1/2+z
1/2-x,-y,1/2+z
1/2+x,1/2-y,1/2-z
1/2-x,y,1/2-z
1/2-x,1/2-y,1/2-z
1/2+x,y,1/2-z
1/2-x,1/2+y,1/2+z
1/2+x,-y,1/2+z
loop_
_atom_site_type_symbol
_atom_site_label
_atom_site_fract_x
_atom_site_fract_y
_atom_site_fract_z
Si Si1 0.391239 0.135867 0.984552
Si Si2 0.896073 0.532703 0.564136
Si Si3 0.290294 0.750000 0.049859
Si Si4 0.326009 0.250000 0.804392
Si Si5 0.395678 0.622303 0.360078
Si Si6 0.103737 0.250000 0.909212
Si Si7 0.896695 0.123834 0.718643
Si Si8 0.208982 0.934909 0.382058
O O1 0.500000 0.150172 0.977811
O O2 0.334812 0.195600 0.984509
O O3 0.360681 0.099283 0.926046
O O4 0.370508 0.100309 0.047634
O O5 0.899792 0.500000 0.500000
O O6 0.815300 0.504078 0.607391
O O7 0.000000 0.529263 0.594651
O O8 0.292333 0.750000 0.124453
O O9 0.178832 0.750000 0.035659
O O10 0.250000 0.250000 0.750000
O O11 0.387853 0.307531 0.796021
O O12 0.500000 0.604247 0.383073
O O13 0.379660 0.691760 0.368660
O O14 0.383658 0.610046 0.289262
O O15 0.317638 0.582440 0.394942
O O16 0.000000 0.250000 0.937796
O O17 0.817740 0.084969 0.685966
O O18 0.000000 0.104501 0.697291
#
# Coordination Sequence:
#
# PCOD8297783 Si02
#       8
#    16  16   8   8  16   8  16  16
#     4  10  19  29  42  62  82  98 127 168 213 250
#     4   8  16  29  43  58  76 100 127 162 207 254
#     4  12  19  28  44  62  81 106 132 179 211 236
#     4  12  21  27  36  52  83 113 143 169 198 232
#     4  10  20  30  40  56  80 110 142 174 205 231
#     4  10  18  31  41  50  75 116 147 165 198 239
#     4  11  20  27  38  57  80 107 137 171 202 235
#     4  11  17  28  44  55  76 105 140 167 198 241
#
# _framework density 14.559752
#
# number of rings (size 3 to 8) (size 9 to 14) (size 15 to 20)
#    0.000    1.692    3.077    5.538    0.000    1.846 
#    0.000    0.000    0.000    5.077    0.000    0.000 
#    0.000    0.000    0.000    2.769    0.000    9.538 
#
# Total GULP energy -644255.283203 kJ/mol
# GULP energy per Si atom -12389.524677 kJ/mol
# Density = 1.452661 g / cm^3
# Si number density = 14.559752 Si / 1000 Ang^3
#
#
#
# Elastic Constant Matrix: (Units=GPa)
#
#
# Indices 1 2 3 4 5 6 
#
# 1 121.3175 48.9526 29.2974 0.0000 0.0000 0.0000
# 2 48.9526 73.4061 30.3673 0.0000 0.0000 0.0000
# 3 29.2974 30.3673 26.2321 0.0000 0.0000 0.0000
# 4 0.0000 0.0000 0.0000 19.4976 0.0000 0.0000
# 5 0.0000 0.0000 0.0000 0.0000 14.9761 0.0000
# 6 0.0000 0.0000 0.0000 0.0000 0.0000 22.8282
#
#
#
# Elastic Compliance Matrix: (Units=1/GPa)
#
#
# Indices 1 2 3 4 5 6 
#
# 1 0.012094 -0.004754 -0.008004 0.000000 0.000000 0.000000
# 2 -0.004754 0.028012 -0.027118 0.000000 0.000000 0.000000
# 3 -0.008004 -0.027118 0.078452 0.000000 0.000000 0.000000
# 4 0.000000 0.000000 0.000000 0.051288 0.000000 0.000000
# 5 0.000000 0.000000 0.000000 0.000000 0.066773 0.000000
# 6 0.000000 0.000000 0.000000 0.000000 0.000000 0.043806
#
#
# Mechanical properties :
#
#
# Convention : Reuss Voigt Hill
#
# Bulk Modulus (GPa) = 25.76836 48.68783 37.22809
# Shear Modulus (GPa) = 13.40083 18.94959 16.17521
#
# Velocity S-wave (km/s) = 3.03710 3.61155 3.33671
# Velocity P-wave (km/s) = 5.48046 7.13468 6.36157
#
# Compressibility (1/GPa) = 0.03880729
#
# Stress axis : x y z
#
# Youngs Moduli (GPa) = 82.68564 35.69961 12.74660
#
# Poissons Ratio (x) = 0.16972 0.10202
# Poissons Ratio (y) = 0.39310 0.34566
# Poissons Ratio (z) = 0.66178 0.96808
#
# Static dielectric constant tensor:
#      x y z
#    x 3.138000 0.000000 0.000000 
#    y 0.000000 3.199000 0.000000 
#    z 0.000000 0.000000 2.606020 
# 
# 
# High freq. dielectric constant tensor:
#      x y z
#    x 1.572420 0.000000 0.000000 
#    y 0.000000 1.532810 0.000000 
#    z 0.000000 0.000000 1.502640 
# 
# From -- ./inp_files/54796.got.cif
#   From: 2010.03.12/outbox.cif.g09.slc.cpg/sg74_28_cif.got.tgz:54796.got - 2010.04.16 15:46:19.
