data_PCOD8297850
_publ_section_title
;
Structure prediction by ZEFSAII (Michael W. Deem and Ramdas Pophale) SiO2 
 PCOD8297850
Probable space group: I M M A
;
_chemical_formula_sum "Si O2"
_cell_formula_units_Z 64
_cell_length_a 10.502715
_cell_length_b 15.984557
_cell_length_c 18.636126
_cell_angle_alpha 90.000000
_cell_angle_beta 90.000000
_cell_angle_gamma 90.000000
_cell_volume 3128.656064
_symmetry_space_group_name_H-M "I M M A"
_symmetry_group_IT_number 74
_symmetry_cell_setting 'orthorhombic'
loop_
_space_group_symop_operation_xyz
x,y,z
-x,1/2-y,z
x,-y,-z
-x,1/2+y,-z
-x,-y,-z
x,1/2+y,-z
-x,y,z
x,1/2-y,z
1/2+x,1/2+y,1/2+z
1/2-x,-y,1/2+z
1/2+x,1/2-y,1/2-z
1/2-x,y,1/2-z
1/2-x,1/2-y,1/2-z
1/2+x,y,1/2-z
1/2-x,1/2+y,1/2+z
1/2+x,-y,1/2+z
loop_
_atom_site_type_symbol
_atom_site_label
_atom_site_fract_x
_atom_site_fract_y
_atom_site_fract_z
Si Si1 0.000000 0.349918 0.163293
Si Si2 0.146818 0.652133 0.310278
Si Si3 0.746478 0.155233 0.097611
Si Si4 0.645872 0.089543 0.964224
Si Si5 0.000000 0.849823 0.673941
O O1 0.123697 0.388611 0.124015
O O2 0.000000 0.380921 0.244790
O O3 0.000000 0.250000 0.157921
O O4 0.160456 0.750000 0.329210
O O5 0.250000 0.626303 0.250000
O O6 0.183569 0.597698 0.380794
O O7 0.000000 0.633094 0.285985
O O8 0.751270 0.250000 0.124737
O O9 0.624174 0.111156 0.135082
O O10 0.732476 0.152097 0.011530
O O11 0.500000 0.117130 0.972967
O O12 0.672570 0.000000 0.000000
O O13 0.000000 0.750000 0.667327
#
# Coordination Sequence:
#
# PCOD8297850 Si02
#       5
#     8  16  16  16   8
#     4   9  18  30  45  74 109 135 165 216 262 298
#     4   9  18  35  60  86 109 138 183 235 280 323
#     4  10  18  31  52  76 101 135 180 220 263 315
#     4  10  20  35  56  78 108 141 179 222 270 328
#     4   9  16  28  49  72  99 135 175 210 244 296
#
# _framework density 20.456068999999999
#
# number of rings (size 3 to 8) (size 9 to 14) (size 15 to 20)
#    0.000    2.500    1.250    1.500    0.000    4.000 
#    2.250    3.125    0.000    0.000    0.000    0.000 
#    0.000    0.000    0.000    0.000    0.000    0.000 
#
# Total GULP energy -396608.453537 kJ/mol
# GULP energy per Si atom -12394.014173 kJ/mol
# Density = 2.040951 g / cm^3
# Si number density = 20.456069 Si / 1000 Ang^3
#
#
#
# Elastic Constant Matrix: (Units=GPa)
#
#
# Indices 1 2 3 4 5 6 
#
# 1 175.1345 19.8584 103.0905 0.0000 0.0000 0.0000
# 2 19.8584 27.8261 28.4934 0.0000 0.0000 0.0000
# 3 103.0905 28.4934 180.1993 0.0000 0.0000 0.0000
# 4 0.0000 0.0000 0.0000 23.8318 0.0000 0.0000
# 5 0.0000 0.0000 0.0000 0.0000 32.6552 0.0000
# 6 0.0000 0.0000 0.0000 0.0000 0.0000 11.1834
#
#
#
# Elastic Compliance Matrix: (Units=1/GPa)
#
#
# Indices 1 2 3 4 5 6 
#
# 1 0.008649 -0.001319 -0.004740 0.000000 0.000000 0.000000
# 2 -0.001319 0.043082 -0.006057 0.000000 0.000000 0.000000
# 3 -0.004740 -0.006057 0.009219 0.000000 0.000000 0.000000
# 4 0.000000 0.000000 0.000000 0.041961 0.000000 0.000000
# 5 0.000000 0.000000 0.000000 0.000000 0.030623 0.000000
# 6 0.000000 0.000000 0.000000 0.000000 0.000000 0.089418
#
#
# Mechanical properties :
#
#
# Convention : Reuss Voigt Hill
#
# Bulk Modulus (GPa) = 27.23528 76.22718 51.73123
# Shear Modulus (GPa) = 19.27347 28.98190 24.12768
#
# Velocity S-wave (km/s) = 3.07284 3.76811 3.43809
# Velocity P-wave (km/s) = 5.09242 7.50175 6.41128
#
# Compressibility (1/GPa) = 0.03671708
#
# Stress axis : x y z
#
# Youngs Moduli (GPa) = 115.61453 23.21168 108.47503
#
# Poissons Ratio (x) = 0.03063 0.51413
# Poissons Ratio (y) = 0.15255 0.65707
# Poissons Ratio (z) = 0.54797 0.14060
#
# Static dielectric constant tensor:
#      x y z
#    x 3.963120 0.000000 0.000000 
#    y 0.000000 3.314930 0.000000 
#    z 0.000000 0.000000 3.726630 
# 
# 
# High freq. dielectric constant tensor:
#      x y z
#    x 1.797300 0.000000 0.000000 
#    y 0.000000 1.757390 0.000000 
#    z 0.000000 0.000000 1.801730 
# 
# From -- ./inp_files/30239.got.cif
#   From: 2010.03.12/outbox.cif.g09.slc.cpg/sg74_16_cif.got.tgz:30239.got - 2010.04.16 15:46:19.
