data_PCOD8297616
_publ_section_title
;
Structure prediction by ZEFSAII (Michael W. Deem and Ramdas Pophale) SiO2 
 PCOD8297616
Probable space group: I M M A
;
_chemical_formula_sum "Si O2"
_cell_formula_units_Z 80
_cell_length_a 8.907031
_cell_length_b 25.043412
_cell_length_c 20.774177
_cell_angle_alpha 90.000000
_cell_angle_beta 90.000000
_cell_angle_gamma 90.000000
_cell_volume 4633.938757
_symmetry_space_group_name_H-M "I M M A"
_symmetry_group_IT_number 74
_symmetry_cell_setting 'orthorhombic'
loop_
_space_group_symop_operation_xyz
x,y,z
-x,1/2-y,z
x,-y,-z
-x,1/2+y,-z
-x,-y,-z
x,1/2+y,-z
-x,y,z
x,1/2-y,z
1/2+x,1/2+y,1/2+z
1/2-x,-y,1/2+z
1/2+x,1/2-y,1/2-z
1/2-x,y,1/2-z
1/2-x,1/2-y,1/2-z
1/2+x,y,1/2-z
1/2-x,1/2+y,1/2+z
1/2+x,-y,1/2+z
loop_
_atom_site_type_symbol
_atom_site_label
_atom_site_fract_x
_atom_site_fract_y
_atom_site_fract_z
Si Si1 0.675711 0.356612 0.121250
Si Si2 0.180140 0.864318 0.015469
Si Si3 0.335410 0.250000 0.523477
Si Si4 0.667091 0.750000 0.629633
Si Si5 0.173933 0.533812 0.684303
Si Si6 0.677553 0.033208 0.937344
O O1 0.500000 0.348517 0.107545
O O2 0.744457 0.302899 0.152236
O O3 0.706239 0.403883 0.171645
O O4 0.753861 0.374170 0.055142
O O5 0.241502 0.806504 0.042877
O O6 0.238617 0.909921 0.063065
O O7 0.000000 0.863757 0.011038
O O8 0.500000 0.250000 0.554542
O O9 0.344617 0.250000 0.446612
O O10 0.500000 0.750000 0.660207
O O11 0.250000 0.515157 0.750000
O O12 0.235280 0.498315 0.625258
O O13 0.000000 0.522635 0.691854
O O14 0.500000 0.042759 0.937161
O O15 0.726530 0.000000 0.000000
#
# Coordination Sequence:
#
# PCOD8297616 Si02
#       6
#    16  16   8   8  16  16
#     4  10  18  32  50  70  98 137 173 207 258 310
#     4  10  18  29  49  77 104 133 168 211 253 297
#     4   7  14  27  41  66 105 130 151 197 253 291
#     4   9  17  29  46  72  99 128 169 221 258 289
#     4  10  22  37  53  72 100 136 171 213 259 308
#     4  10  19  35  53  73 104 135 168 211 259 307
#
# _framework density 17.263932
#
# number of rings (size 3 to 8) (size 9 to 14) (size 15 to 20)
#    0.000    2.400    2.000    2.700    0.000    2.800 
#    0.000    2.000    0.000    0.000    0.000    0.700 
#    0.000    0.000    0.000    0.000    0.000    0.000 
#
# Total GULP energy -495782.765171 kJ/mol
# GULP energy per Si atom -12394.569129 kJ/mol
# Density = 1.722464 g / cm^3
# Si number density = 17.263932 Si / 1000 Ang^3
#
#
#
# Elastic Constant Matrix: (Units=GPa)
#
#
# Indices 1 2 3 4 5 6 
#
# 1 64.9416 45.4315 30.9327 0.0000 0.0000 0.0000
# 2 45.4315 136.7302 55.2560 0.0000 0.0000 0.0000
# 3 30.9327 55.2560 91.3053 -0.0002 0.0000 0.0000
# 4 0.0000 0.0000 -0.0002 14.2706 0.0000 0.0000
# 5 0.0000 0.0000 0.0000 0.0000 22.4173 0.0000
# 6 0.0000 0.0000 0.0000 0.0000 0.0000 31.4179
#
#
#
# Elastic Compliance Matrix: (Units=1/GPa)
#
#
# Indices 1 2 3 4 5 6 
#
# 1 0.021029 -0.005438 -0.003833 0.000000 0.000000 0.000000
# 2 -0.005438 0.011088 -0.004868 0.000000 0.000000 0.000000
# 3 -0.003833 -0.004868 0.015197 0.000000 0.000000 0.000000
# 4 0.000000 0.000000 0.000000 0.070074 0.000000 0.000000
# 5 0.000000 0.000000 0.000000 0.000000 0.044608 0.000000
# 6 0.000000 0.000000 0.000000 0.000000 0.000000 0.031829
#
#
# Mechanical properties :
#
#
# Convention : Reuss Voigt Hill
#
# Bulk Modulus (GPa) = 52.53443 61.80194 57.16819
# Shear Modulus (GPa) = 21.88685 24.37829 23.13257
#
# Velocity S-wave (km/s) = 3.56445 3.76186 3.66449
# Velocity P-wave (km/s) = 6.88743 7.39897 7.14778
#
# Compressibility (1/GPa) = 0.01903514
#
# Stress axis : x y z
#
# Youngs Moduli (GPa) = 47.55430 90.18948 65.80375
#
# Poissons Ratio (x) = 0.49046 0.25223
# Poissons Ratio (y) = 0.25861 0.32031
# Poissons Ratio (z) = 0.18228 0.43902
#
# Static dielectric constant tensor:
#      x y z
#    x 3.173640 0.000000 0.000000 
#    y 0.000000 3.631240 0.000000 
#    z 0.000000 0.000000 2.860990 
# 
# 
# High freq. dielectric constant tensor:
#      x y z
#    x 1.663060 0.000000 0.000000 
#    y 0.000000 1.683120 0.000000 
#    z 0.000000 0.000000 1.615210 
# 
# From -- ./inp_files/39782.got.cif
#   From: 2010.03.12/outbox.cif.g09.slc.cpg/sg74_20_cif.got.tgz:39782.got - 2010.04.16 15:46:19.
