data_PCOD8297751
_publ_section_title
;
Structure prediction by ZEFSAII (Michael W. Deem and Ramdas Pophale) SiO2 
 PCOD8297751
Probable space group: I M M A
;
_chemical_formula_sum "Si O2"
_cell_formula_units_Z 80
_cell_length_a 20.301976
_cell_length_b 10.103507
_cell_length_c 23.713992
_cell_angle_alpha 90.000000
_cell_angle_beta 90.000000
_cell_angle_gamma 90.000000
_cell_volume 4864.241467
_symmetry_space_group_name_H-M "I M M A"
_symmetry_group_IT_number 74
_symmetry_cell_setting 'orthorhombic'
loop_
_space_group_symop_operation_xyz
x,y,z
-x,1/2-y,z
x,-y,-z
-x,1/2+y,-z
-x,-y,-z
x,1/2+y,-z
-x,y,z
x,1/2-y,z
1/2+x,1/2+y,1/2+z
1/2-x,-y,1/2+z
1/2+x,1/2-y,1/2-z
1/2-x,y,1/2-z
1/2-x,1/2-y,1/2-z
1/2+x,y,1/2-z
1/2-x,1/2+y,1/2+z
1/2+x,-y,1/2+z
loop_
_atom_site_type_symbol
_atom_site_label
_atom_site_fract_x
_atom_site_fract_y
_atom_site_fract_z
Si Si1 0.579115 0.750000 0.813278
Si Si2 0.425238 0.250000 0.837540
Si Si3 0.260572 0.491592 0.937588
Si Si4 0.283483 0.593555 0.326759
Si Si5 0.352708 0.485492 0.778188
Si Si6 0.142638 0.750000 0.448994
Si Si7 0.656140 0.250000 0.074231
O O1 0.500000 0.750000 0.808433
O O2 0.610430 0.875283 0.781822
O O3 0.599349 0.750000 0.878973
O O4 0.500000 0.250000 0.820860
O O5 0.395227 0.380246 0.811220
O O6 0.417942 0.250000 0.905559
O O7 0.204493 0.452128 0.891668
O O8 0.315391 0.379409 0.936793
O O9 0.295944 0.625735 0.919437
O O10 0.227948 0.500000 0.000000
O O11 0.269645 0.750000 0.322071
O O12 0.345668 0.553460 0.288129
O O13 0.219514 0.512915 0.305812
O O14 0.118477 0.750000 0.513855
#
# Coordination Sequence:
#
# PCOD8297751 Si02
#       7
#     8   8  16  16  16   8   8
#     4  12  24  37  48  69 110 142 176 218 252 299
#     4  12  20  33  52  73 100 136 188 224 244 289
#     4  10  18  30  51  75 103 133 165 208 256 301
#     4  11  18  34  59  75 103 127 171 224 255 316
#     4  11  21  34  51  77  97 135 176 211 273 299
#     4  10  18  32  47  68 100 138 180 219 243 282
#     4  10  20  32  47  68 100 140 184 207 245 296
#
# _framework density 16.446552000000001
#
# number of rings (size 3 to 8) (size 9 to 14) (size 15 to 20)
#    0.000    1.200    7.000    1.200    0.000    2.800 
#    0.000    0.000    0.000    6.000    0.000    0.000 
#    0.000    4.800    0.000    0.000    0.000    0.000 
#
# Total GULP energy -495841.173395 kJ/mol
# GULP energy per Si atom -12396.029335 kJ/mol
# Density = 1.640912 g / cm^3
# Si number density = 16.446552 Si / 1000 Ang^3
#
#
#
# Elastic Constant Matrix: (Units=GPa)
#
#
# Indices 1 2 3 4 5 6 
#
# 1 49.9836 26.7816 46.6476 0.0000 0.0000 0.0000
# 2 26.7816 121.4392 36.2201 0.0000 0.0000 0.0000
# 3 46.6476 36.2201 139.5719 0.0000 0.0000 0.0000
# 4 0.0000 0.0000 0.0000 21.7669 0.0000 0.0000
# 5 0.0000 0.0000 0.0000 0.0000 16.8128 0.0000
# 6 0.0000 0.0000 0.0000 0.0000 0.0000 24.0159
#
#
#
# Elastic Compliance Matrix: (Units=1/GPa)
#
#
# Indices 1 2 3 4 5 6 
#
# 1 0.030797 -0.004034 -0.009246 0.000000 0.000000 0.000000
# 2 -0.004034 0.009454 -0.001105 0.000000 0.000000 0.000000
# 3 -0.009246 -0.001105 0.010542 0.000000 0.000000 0.000000
# 4 0.000000 0.000000 0.000000 0.045941 0.000000 0.000000
# 5 0.000000 0.000000 0.000000 0.000000 0.059479 0.000000
# 6 0.000000 0.000000 0.000000 0.000000 0.000000 0.041639
#
#
# Mechanical properties :
#
#
# Convention : Reuss Voigt Hill
#
# Bulk Modulus (GPa) = 45.40889 58.92146 52.16517
# Shear Modulus (GPa) = 21.37090 25.94214 23.65652
#
# Velocity S-wave (km/s) = 3.60865 3.97591 3.79672
# Velocity P-wave (km/s) = 6.71067 7.54857 7.14192
#
# Compressibility (1/GPa) = 0.02202212
#
# Stress axis : x y z
#
# Youngs Moduli (GPa) = 32.47062 105.77723 94.86088
#
# Poissons Ratio (x) = 0.42672 0.87709
# Poissons Ratio (y) = 0.13099 0.10483
# Poissons Ratio (z) = 0.30023 0.11689
#
# Static dielectric constant tensor:
#      x y z
#    x 2.719890 0.000000 0.000000 
#    y 0.000000 3.192140 0.000000 
#    z 0.000000 0.000000 3.722490 
# 
# 
# High freq. dielectric constant tensor:
#      x y z
#    x 1.569210 0.000000 0.000000 
#    y 0.000000 1.655170 0.000000 
#    z 0.000000 0.000000 1.648710 
# 
# From -- ./inp_files/61389.got.cif
#   From: 2010.03.12/outbox.cif.g09.slc.cpg/sg74_31_cif.got.tgz:61389.got - 2010.04.16 15:46:19.
