data_PCOD8297700
_publ_section_title
;
Structure prediction by ZEFSAII (Michael W. Deem and Ramdas Pophale) SiO2 
 PCOD8297700
Probable space group: I M M A
;
_chemical_formula_sum "Si O2"
_cell_formula_units_Z 96
_cell_length_a 9.340966
_cell_length_b 18.783714
_cell_length_c 29.992415
_cell_angle_alpha 90.000000
_cell_angle_beta 90.000000
_cell_angle_gamma 90.000000
_cell_volume 5262.410166
_symmetry_space_group_name_H-M "I M M A"
_symmetry_group_IT_number 74
_symmetry_cell_setting 'orthorhombic'
loop_
_space_group_symop_operation_xyz
x,y,z
-x,1/2-y,z
x,-y,-z
-x,1/2+y,-z
-x,-y,-z
x,1/2+y,-z
-x,y,z
x,1/2-y,z
1/2+x,1/2+y,1/2+z
1/2-x,-y,1/2+z
1/2+x,1/2-y,1/2-z
1/2-x,y,1/2-z
1/2-x,1/2-y,1/2-z
1/2+x,y,1/2-z
1/2-x,1/2+y,1/2+z
1/2+x,-y,1/2+z
loop_
_atom_site_type_symbol
_atom_site_label
_atom_site_fract_x
_atom_site_fract_y
_atom_site_fract_z
Si Si1 0.667853 0.332219 0.704927
Si Si2 0.170272 0.433660 0.971382
Si Si3 0.331300 0.828239 0.544144
Si Si4 0.666442 0.401283 0.366209
Si Si5 0.840816 0.166107 0.290485
Si Si6 0.332391 0.936879 0.371870
O O1 0.500000 0.346251 0.712902
O O2 0.697504 0.250000 0.692532
O O3 0.750000 0.353866 0.750000
O O4 0.729142 0.380623 0.664226
O O5 0.235663 0.427812 0.921406
O O6 0.000000 0.442999 0.967864
O O7 0.231893 0.500000 0.000000
O O8 0.216668 0.361985 0.997152
O O9 0.500000 0.819541 0.544629
O O10 0.259921 0.750000 0.549618
O O11 0.287377 0.882162 0.583491
O O12 0.500000 0.383845 0.357738
O O13 0.761877 0.351066 0.335997
O O14 0.700658 0.483287 0.355496
O O15 0.851268 0.250000 0.285041
O O16 0.750000 0.132347 0.250000
O O17 0.000000 0.132620 0.289966
O O18 0.500000 0.923088 0.375794
#
# Coordination Sequence:
#
# PCOD8297700 Si02
#       6
#    16  16  16  16  16  16
#     4   9  18  33  51  71  97 129 165 207 254 301
#     4   9  14  24  40  62  96 132 159 192 244 293
#     4   9  16  24  39  66  96 127 163 200 240 290
#     4  10  18  30  48  71 100 130 160 199 246 296
#     4  10  21  36  52  70  94 126 163 202 244 289
#     4   9  17  28  46  71  99 132 166 201 248 300
#
# _framework density 18.242591000000001
#
# number of rings (size 3 to 8) (size 9 to 14) (size 15 to 20)
#    0.000    2.667    1.667    1.000    0.000    3.000 
#    0.000    5.833    0.000    0.000    0.000    3.500 
#    0.000    2.667    0.000    0.000    0.000    0.000 
#
# Total GULP energy -594952.108464 kJ/mol
# GULP energy per Si atom -12394.835593 kJ/mol
# Density = 1.820107 g / cm^3
# Si number density = 18.242591 Si / 1000 Ang^3
#
#
#
# Elastic Constant Matrix: (Units=GPa)
#
#
# Indices 1 2 3 4 5 6 
#
# 1 44.7760 15.9730 33.3167 0.0000 0.0000 0.0000
# 2 15.9730 93.5788 51.5404 0.0000 0.0000 0.0000
# 3 33.3167 51.5404 137.1465 0.0000 0.0000 0.0000
# 4 0.0000 0.0000 0.0000 34.7128 0.0000 0.0000
# 5 0.0000 0.0000 0.0000 0.0000 14.0166 0.0000
# 6 0.0000 0.0000 0.0000 0.0000 0.0000 12.2166
#
#
#
# Elastic Compliance Matrix: (Units=1/GPa)
#
#
# Indices 1 2 3 4 5 6 
#
# 1 0.027381 -0.001274 -0.006173 0.000000 0.000000 0.000000
# 2 -0.001274 0.013535 -0.004777 0.000000 0.000000 0.000000
# 3 -0.006173 -0.004777 0.010586 0.000000 0.000000 0.000000
# 4 0.000000 0.000000 0.000000 0.028808 0.000000 0.000000
# 5 0.000000 0.000000 0.000000 0.000000 0.071344 0.000000
# 6 0.000000 0.000000 0.000000 0.000000 0.000000 0.081856
#
#
# Mechanical properties :
#
#
# Convention : Reuss Voigt Hill
#
# Bulk Modulus (GPa) = 36.96247 53.01794 44.99020
# Shear Modulus (GPa) = 18.72838 23.83394 21.28116
#
# Velocity S-wave (km/s) = 3.20758 3.61847 3.41921
# Velocity P-wave (km/s) = 5.83299 6.82522 6.34852
#
# Compressibility (1/GPa) = 0.02705447
#
# Stress axis : x y z
#
# Youngs Moduli (GPa) = 36.52179 73.88471 94.46232
#
# Poissons Ratio (x) = 0.09412 0.58310
# Poissons Ratio (y) = 0.04652 0.45124
# Poissons Ratio (z) = 0.22544 0.35294
#
# Static dielectric constant tensor:
#      x y z
#    x 2.896880 0.000000 0.000000 
#    y 0.000000 3.449930 0.000000 
#    z 0.000000 0.000000 3.579320 
# 
# 
# High freq. dielectric constant tensor:
#      x y z
#    x 1.642190 0.000000 0.000000 
#    y 0.000000 1.707060 0.000000 
#    z 0.000000 0.000000 1.718860 
# 
# From -- ./inp_files/64288.got.cif
#   From: 2010.03.12/outbox.cif.g09.slc.cpg/sg74_33_cif.got.tgz:64288.got - 2010.04.16 15:46:19.
