data_PCOD8297925
_publ_section_title
;
Structure prediction by ZEFSAII (Michael W. Deem and Ramdas Pophale) SiO2 
 PCOD8297925
Probable space group: I M M A
;
_chemical_formula_sum "Si O2"
_cell_formula_units_Z 72
_cell_length_a 8.634789
_cell_length_b 15.137045
_cell_length_c 28.934329
_cell_angle_alpha 90.000000
_cell_angle_beta 90.000000
_cell_angle_gamma 90.000000
_cell_volume 3781.866960
_symmetry_space_group_name_H-M "I M M A"
_symmetry_group_IT_number 74
_symmetry_cell_setting 'orthorhombic'
loop_
_space_group_symop_operation_xyz
x,y,z
-x,1/2-y,z
x,-y,-z
-x,1/2+y,-z
-x,-y,-z
x,1/2+y,-z
-x,y,z
x,1/2-y,z
1/2+x,1/2+y,1/2+z
1/2-x,-y,1/2+z
1/2+x,1/2-y,1/2-z
1/2-x,y,1/2-z
1/2-x,1/2-y,1/2-z
1/2+x,y,1/2-z
1/2-x,1/2+y,1/2+z
1/2+x,-y,1/2+z
loop_
_atom_site_type_symbol
_atom_site_label
_atom_site_fract_x
_atom_site_fract_y
_atom_site_fract_z
Si Si1 0.316113 0.750000 0.698827
Si Si2 0.179912 0.351543 0.446413
Si Si3 0.319564 0.001094 0.614224
Si Si4 0.318457 0.570209 0.800266
Si Si5 0.321172 0.149423 0.543750
O O1 0.500000 0.750000 0.697826
O O2 0.250000 0.750000 0.750000
O O3 0.250474 0.660229 0.676502
O O4 0.223781 0.250000 0.435574
O O5 0.282115 0.412599 0.413849
O O6 0.217670 0.373687 0.499530
O O7 0.000000 0.370261 0.437131
O O8 0.500000 0.003600 0.625613
O O9 0.227469 0.005206 0.662974
O O10 0.266857 0.086746 0.585395
O O11 0.500000 0.579664 0.794624
O O12 0.250000 0.548232 0.750000
O O13 0.500000 0.131633 0.530699
O O14 0.295218 0.250000 0.559922
#
# Coordination Sequence:
#
# PCOD8297925 Si02
#       5
#     8  16  16  16  16
#     4  10  18  32  52  74 102 138 176 212 256 310
#     4  10  21  35  52  78 113 147 180 220 267 321
#     4  11  22  35  55  81 108 142 183 225 270 324
#     4  11  22  37  55  77 108 142 179 222 267 318
#     4   9  19  37  58  79 106 141 181 225 275 327
#
# _framework density 19.038217
#
# number of rings (size 3 to 8) (size 9 to 14) (size 15 to 20)
#    0.000    1.778    0.000    6.333    1.556    5.778 
#    0.000    0.000    0.000    0.667    0.000    0.000 
#    0.000    0.000    0.000    0.000    0.000    0.000 
#
# Total GULP energy -446453.510380 kJ/mol
# GULP energy per Si atom -12401.486399 kJ/mol
# Density = 1.899489 g / cm^3
# Si number density = 19.038217 Si / 1000 Ang^3
#
#
#
# Elastic Constant Matrix: (Units=GPa)
#
#
# Indices 1 2 3 4 5 6 
#
# 1 97.7335 24.1601 26.1155 0.0000 0.0000 0.0000
# 2 24.1601 69.8232 52.8155 0.0000 0.0000 0.0000
# 3 26.1155 52.8155 98.4760 0.0000 0.0000 0.0000
# 4 0.0000 0.0000 0.0000 29.2363 0.0000 0.0000
# 5 0.0000 0.0000 0.0000 0.0000 33.8931 0.0000
# 6 0.0000 0.0000 0.0000 0.0000 0.0000 22.7733
#
#
#
# Elastic Compliance Matrix: (Units=1/GPa)
#
#
# Indices 1 2 3 4 5 6 
#
# 1 0.011322 -0.002770 -0.001517 0.000000 0.000000 0.000000
# 2 -0.002770 0.024776 -0.012553 0.000000 0.000000 0.000000
# 3 -0.001517 -0.012553 0.017290 0.000000 0.000000 0.000000
# 4 0.000000 0.000000 0.000000 0.034204 0.000000 0.000000
# 5 0.000000 0.000000 0.000000 0.000000 0.029505 0.000000
# 6 0.000000 0.000000 0.000000 0.000000 0.000000 0.043911
#
#
# Mechanical properties :
#
#
# Convention : Reuss Voigt Hill
#
# Bulk Modulus (GPa) = 50.74379 52.46832 51.60606
# Shear Modulus (GPa) = 24.84378 28.04331 26.44354
#
# Velocity S-wave (km/s) = 3.61632 3.84213 3.73093
# Velocity P-wave (km/s) = 6.64443 6.87764 6.76204
#
# Compressibility (1/GPa) = 0.01970684
#
# Stress axis : x y z
#
# Youngs Moduli (GPa) = 88.32335 40.36145 57.83761
#
# Poissons Ratio (x) = 0.11181 0.08773
# Poissons Ratio (y) = 0.24468 0.72606
# Poissons Ratio (z) = 0.13397 0.50668
#
# Static dielectric constant tensor:
#      x y z
#    x 3.484520 0.000000 0.000000 
#    y 0.000000 3.732470 0.000000 
#    z 0.000000 0.000000 3.490410 
# 
# 
# High freq. dielectric constant tensor:
#      x y z
#    x 1.749100 0.000000 0.000000 
#    y 0.000000 1.720850 0.000000 
#    z 0.000000 0.000000 1.738560 
# 
# From -- ./inp_files/56691.got.cif
#   From: 2010.03.12/outbox.cif.g09.slc.cpg/sg74_29_cif.got.tgz:56691.got - 2010.04.16 15:46:19.
