data_PCOD8297161
_publ_section_title
;
Structure prediction by ZEFSAII (Michael W. Deem and Ramdas Pophale) SiO2 
 PCOD8297161
Probable space group: I M M A
;
_chemical_formula_sum "Si O2"
_cell_formula_units_Z 80
_cell_length_a 10.653369
_cell_length_b 27.815982
_cell_length_c 14.025035
_cell_angle_alpha 90.000000
_cell_angle_beta 90.000000
_cell_angle_gamma 90.000000
_cell_volume 4156.093605
_symmetry_space_group_name_H-M "I M M A"
_symmetry_group_IT_number 74
_symmetry_cell_setting 'orthorhombic'
loop_
_space_group_symop_operation_xyz
x,y,z
-x,1/2-y,z
x,-y,-z
-x,1/2+y,-z
-x,-y,-z
x,1/2+y,-z
-x,y,z
x,1/2-y,z
1/2+x,1/2+y,1/2+z
1/2-x,-y,1/2+z
1/2+x,1/2-y,1/2-z
1/2-x,y,1/2-z
1/2-x,1/2-y,1/2-z
1/2+x,y,1/2-z
1/2-x,1/2+y,1/2+z
1/2+x,-y,1/2+z
loop_
_atom_site_type_symbol
_atom_site_label
_atom_site_fract_x
_atom_site_fract_y
_atom_site_fract_z
Si Si1 0.500000 0.895278 0.176432
Si Si2 0.215814 0.303719 0.424707
Si Si3 0.000000 0.055392 0.473881
Si Si4 0.000000 0.302368 0.576406
Si Si5 0.858537 0.305195 0.901163
Si Si6 0.750000 0.126419 0.750000
Si Si7 0.640493 0.395700 0.182506
O O1 0.500000 0.837491 0.166702
O O2 0.628308 0.908374 0.233129
O O3 0.500000 0.916958 0.072024
O O4 0.209100 0.250000 0.379036
O O5 0.117662 0.310275 0.509191
O O6 0.344668 0.312565 0.483483
O O7 0.190294 0.342424 0.342803
O O8 0.876138 0.070649 0.411911
O O9 0.000000 0.000000 0.500000
O O10 0.000000 0.250000 0.623817
O O11 0.824495 0.250000 0.875864
O O12 0.767462 0.340435 0.842853
O O13 0.000000 0.318164 0.873416
O O14 0.500000 0.391819 0.231114
O O15 0.750000 0.418315 0.250000
#
# Coordination Sequence:
#
# PCOD8297161 Si02
#       7
#     8  16   8   8  16   8  16
#     4  12  22  38  56  87 112 156 197 235 302 344
#     4  10  18  32  54  78 115 163 202 235 286 353
#     4  10  22  46  70  85 114 160 188 233 310 376
#     4  10  16  28  52  72 102 151 200 222 260 341
#     4  10  20  30  43  72 114 161 205 245 285 326
#     4  12  21  32  50  80 116 144 200 252 283 336
#     4  10  21  39  63  94 119 151 197 245 294 351
#
# _framework density 19.248844999999999
#
# number of rings (size 3 to 8) (size 9 to 14) (size 15 to 20)
#    0.600    1.000    6.000    0.300    0.000    2.000 
#    1.800    0.000    0.000    0.600    0.000    0.000 
#    0.000    0.000    0.000    0.000    0.000    0.000 
#
# Total GULP energy -495541.052236 kJ/mol
# GULP energy per Si atom -12388.526306 kJ/mol
# Density = 1.920503 g / cm^3
# Si number density = 19.248845 Si / 1000 Ang^3
#
#
#
# Elastic Constant Matrix: (Units=GPa)
#
#
# Indices 1 2 3 4 5 6 
#
# 1 124.0516 26.1267 50.6339 0.0001 0.0000 0.0000
# 2 26.1267 72.3614 31.6923 0.0005 -0.0001 -0.0001
# 3 50.6339 31.6923 69.5169 0.0013 0.0001 -0.0003
# 4 0.0001 0.0005 0.0013 9.5063 -0.0001 -0.0001
# 5 0.0000 -0.0001 0.0001 -0.0001 49.1287 0.0000
# 6 0.0000 -0.0001 -0.0003 -0.0001 0.0000 7.3891
#
#
#
# Elastic Compliance Matrix: (Units=1/GPa)
#
#
# Indices 1 2 3 4 5 6 
#
# 1 0.011493 -0.000604 -0.008096 0.000001 0.000000 0.000000
# 2 -0.000604 0.017299 -0.007447 0.000000 0.000000 0.000000
# 3 -0.008096 -0.007447 0.023676 -0.000003 0.000000 0.000001
# 4 0.000001 0.000000 -0.000003 0.105194 0.000000 0.000001
# 5 0.000000 0.000000 0.000000 0.000000 0.020355 0.000000
# 6 0.000000 0.000000 0.000001 0.000001 0.000000 0.135334
#
#
# Mechanical properties :
#
#
# Convention : Reuss Voigt Hill
#
# Bulk Modulus (GPa) = 49.56417 53.64841 51.60629
# Shear Modulus (GPa) = 14.18968 23.70328 18.94648
#
# Velocity S-wave (km/s) = 2.71803 3.51296 3.14075
# Velocity P-wave (km/s) = 5.97121 6.66228 6.32619
#
# Compressibility (1/GPa) = 0.02017586
#
# Stress axis : x y z
#
# Youngs Moduli (GPa) = 87.01161 57.80686 42.23602
#
# Poissons Ratio (x) = 0.03491 0.34193
# Poissons Ratio (y) = 0.05255 0.31452
# Poissons Ratio (z) = 0.70441 0.43047
#
# Static dielectric constant tensor:
#      x y z
#    x 3.660980 -0.000010 0.000000 
#    y -0.000010 5.278230 -0.000030 
#    z 0.000000 -0.000030 3.388070 
# 
# 
# High freq. dielectric constant tensor:
#      x y z
#    x 1.759580 0.000000 0.000000 
#    y 0.000000 1.699190 0.000000 
#    z 0.000000 0.000000 1.731150 
# 
# From -- ./inp_files/30945.got.cif
#   From: 2010.03.12/outbox.cif.g09.slc.cpg/sg74_16_cif.got.tgz:30945.got - 2010.04.16 15:46:19.
