data_PCOD8297339
_publ_section_title
;
Structure prediction by ZEFSAII (Michael W. Deem and Ramdas Pophale) SiO2 
 PCOD8297339
Probable space group: I M M A
;
_chemical_formula_sum "Si O2"
_cell_formula_units_Z 112
_cell_length_a 18.375924
_cell_length_b 23.266638
_cell_length_c 18.138553
_cell_angle_alpha 90.000000
_cell_angle_beta 90.000000
_cell_angle_gamma 90.000000
_cell_volume 7755.065266
_symmetry_space_group_name_H-M "I M M A"
_symmetry_group_IT_number 74
_symmetry_cell_setting 'orthorhombic'
loop_
_space_group_symop_operation_xyz
x,y,z
-x,1/2-y,z
x,-y,-z
-x,1/2+y,-z
-x,-y,-z
x,1/2+y,-z
-x,y,z
x,1/2-y,z
1/2+x,1/2+y,1/2+z
1/2-x,-y,1/2+z
1/2+x,1/2-y,1/2-z
1/2-x,y,1/2-z
1/2-x,1/2-y,1/2-z
1/2+x,y,1/2-z
1/2-x,1/2+y,1/2+z
1/2+x,-y,1/2+z
loop_
_atom_site_type_symbol
_atom_site_label
_atom_site_fract_x
_atom_site_fract_y
_atom_site_fract_z
Si Si1 0.917599 0.119115 0.546202
Si Si2 0.843104 0.184635 0.663198
Si Si3 0.921035 0.525345 0.327607
Si Si4 0.280244 0.596344 0.373280
Si Si5 0.788044 0.434525 0.479608
Si Si6 0.582067 0.878909 0.289679
Si Si7 0.727128 0.473226 0.172210
O O1 0.891728 0.176392 0.589058
O O2 0.908314 0.068319 0.605037
O O3 0.862765 0.102981 0.479786
O O4 0.000000 0.125853 0.516801
O O5 0.816045 0.250000 0.666458
O O6 0.772846 0.143469 0.662621
O O7 0.891938 0.171460 0.734895
O O8 0.916564 0.560343 0.251890
O O9 0.860413 0.476534 0.329609
O O10 0.000000 0.495466 0.334766
O O11 0.268747 0.591679 0.461397
O O12 0.363409 0.615555 0.359201
O O13 0.263657 0.535890 0.333608
O O14 0.807535 0.500000 0.500000
O O15 0.751786 0.432934 0.397804
O O16 0.500000 0.864997 0.317411
O O17 0.750000 0.444536 0.250000
#
# Coordination Sequence:
#
# PCOD8297339 Si02
#       7
#    16  16  16  16  16  16  16
#     4   9  16  26  38  56  83 108 131 161 196 237
#     4  10  18  28  42  61  84 111 139 165 195 234
#     4   9  15  23  36  55  77 101 128 159 197 238
#     4  10  17  30  41  56  80 106 138 172 201 237
#     4   9  17  26  39  58  76 101 135 171 201 239
#     4  10  18  27  39  54  76 109 142 170 197 225
#     4  11  16  27  43  58  77 104 134 170 210 242
#
# _framework density 14.442174
#
# number of rings (size 3 to 8) (size 9 to 14) (size 15 to 20)
#    0.000    2.286    7.143    1.714    0.000    3.143 
#    0.000    0.000    0.000    4.714    0.000    0.000 
#    0.000    9.143    0.000    0.000    0.000    9.143 
#
# Total GULP energy -694026.075480 kJ/mol
# GULP energy per Si atom -12393.322776 kJ/mol
# Density = 1.440930 g / cm^3
# Si number density = 14.442174 Si / 1000 Ang^3
#
#
#
# Elastic Constant Matrix: (Units=GPa)
#
#
# Indices 1 2 3 4 5 6 
#
# 1 96.0715 25.4203 39.3849 0.0000 0.0000 0.0000
# 2 25.4203 35.7057 23.6012 0.0000 0.0000 0.0000
# 3 39.3849 23.6012 87.0266 -0.0001 0.0000 0.0000
# 4 0.0000 0.0000 -0.0001 7.6776 0.0000 0.0000
# 5 0.0000 0.0000 0.0000 0.0000 15.3270 0.0000
# 6 0.0000 0.0000 0.0000 0.0000 0.0000 5.9287
#
#
#
# Elastic Compliance Matrix: (Units=1/GPa)
#
#
# Indices 1 2 3 4 5 6 
#
# 1 0.014117 -0.007101 -0.004463 0.000000 0.000000 0.000000
# 2 -0.007101 0.037695 -0.007009 0.000000 0.000000 0.000000
# 3 -0.004463 -0.007009 0.015412 0.000000 0.000000 0.000000
# 4 0.000000 0.000000 0.000000 0.130250 0.000000 0.000000
# 5 0.000000 0.000000 0.000000 0.000000 0.065244 0.000000
# 6 0.000000 0.000000 0.000000 0.000000 0.000000 0.168671
#
#
# Mechanical properties :
#
#
# Convention : Reuss Voigt Hill
#
# Bulk Modulus (GPa) = 33.24729 43.95739 38.60234
# Shear Modulus (GPa) = 10.44799 14.47982 12.46390
#
# Velocity S-wave (km/s) = 2.69259 3.16983 2.94091
# Velocity P-wave (km/s) = 5.72169 6.62571 6.19022
#
# Compressibility (1/GPa) = 0.03007764
#
# Stress axis : x y z
#
# Youngs Moduli (GPa) = 70.83415 26.52875 64.88628
#
# Poissons Ratio (x) = 0.18837 0.28961
# Poissons Ratio (y) = 0.50296 0.45481
# Poissons Ratio (z) = 0.31616 0.18595
#
# Static dielectric constant tensor:
#      x y z
#    x 2.933080 0.000000 0.000000 
#    y 0.000000 2.445010 0.000000 
#    z 0.000000 0.000000 2.820610 
# 
# 
# High freq. dielectric constant tensor:
#      x y z
#    x 1.553980 0.000000 0.000000 
#    y 0.000000 1.497280 0.000000 
#    z 0.000000 0.000000 1.527440 
# 
# From -- ./inp_files/45560.got.cif
#   From: 2010.03.12/outbox.cif.g09.slc.cpg/sg74_23_cif.got.tgz:45560.got - 2010.04.16 15:46:19.
