data_PCOD8297201
_publ_section_title
;
Structure prediction by ZEFSAII (Michael W. Deem and Ramdas Pophale) SiO2 
 PCOD8297201
Probable space group: I M M A
;
_chemical_formula_sum "Si O2"
_cell_formula_units_Z 80
_cell_length_a 8.600831
_cell_length_b 23.217804
_cell_length_c 29.519684
_cell_angle_alpha 90.000000
_cell_angle_beta 90.000000
_cell_angle_gamma 90.000000
_cell_volume 5894.856793
_symmetry_space_group_name_H-M "I M M A"
_symmetry_group_IT_number 74
_symmetry_cell_setting 'orthorhombic'
loop_
_space_group_symop_operation_xyz
x,y,z
-x,1/2-y,z
x,-y,-z
-x,1/2+y,-z
-x,-y,-z
x,1/2+y,-z
-x,y,z
x,1/2-y,z
1/2+x,1/2+y,1/2+z
1/2-x,-y,1/2+z
1/2+x,1/2-y,1/2-z
1/2-x,y,1/2-z
1/2-x,1/2-y,1/2-z
1/2+x,y,1/2-z
1/2-x,1/2+y,1/2+z
1/2+x,-y,1/2+z
loop_
_atom_site_type_symbol
_atom_site_label
_atom_site_fract_x
_atom_site_fract_y
_atom_site_fract_z
Si Si1 0.181354 0.978289 0.564232
Si Si2 0.684351 0.686286 0.527252
Si Si3 0.815388 0.882114 0.884778
Si Si4 0.816021 0.684819 0.797008
Si Si5 0.180911 0.921209 0.023417
O O1 0.234499 0.945173 0.609858
O O2 0.285362 0.951860 0.524316
O O3 0.000000 0.969578 0.554984
O O4 0.222875 0.047035 0.563910
O O5 0.500000 0.690316 0.530002
O O6 0.757111 0.750000 0.520510
O O7 0.743488 0.659471 0.574691
O O8 0.731979 0.645643 0.484394
O O9 0.755282 0.854990 0.837856
O O10 0.000000 0.889663 0.885207
O O11 0.755135 0.750000 0.804731
O O12 0.750000 0.659753 0.750000
O O13 0.000000 0.684003 0.795270
O O14 0.000000 0.925515 0.035098
#
# Coordination Sequence:
#
# PCOD8297201 Si02
#       5
#    16  16  16  16  16
#     4  10  17  24  35  50  68  87 111 145 179 207
#     4   8  13  21  35  53  68  85 114 148 174 199
#     4   9  16  26  39  52  67  89 118 148 178 213
#     4   9  17  28  41  55  71  92 117 147 183 221
#     4   9  15  24  37  50  67  90 114 139 170 210
#
# _framework density 13.571153000000001
#
# number of rings (size 3 to 8) (size 9 to 14) (size 15 to 20)
#    0.000    3.000    0.000    5.400    0.000    3.200 
#    0.000    0.000    0.000   19.800    0.000    0.000 
#    0.000    0.000    0.000    0.000    0.000    1.000 
#
# Total GULP energy -495545.165505 kJ/mol
# GULP energy per Si atom -12388.629138 kJ/mol
# Density = 1.354026 g / cm^3
# Si number density = 13.571153 Si / 1000 Ang^3
#
#
#
# Elastic Constant Matrix: (Units=GPa)
#
#
# Indices 1 2 3 4 5 6 
#
# 1 25.6712 20.7774 16.5593 0.0000 0.0000 0.0000
# 2 20.7774 101.9636 59.4902 0.0000 0.0000 0.0000
# 3 16.5593 59.4902 67.6986 0.0000 0.0000 0.0000
# 4 0.0000 0.0000 0.0000 23.8808 0.0000 0.0000
# 5 0.0000 0.0000 0.0000 0.0000 14.6945 0.0000
# 6 0.0000 0.0000 0.0000 0.0000 0.0000 9.5069
#
#
#
# Elastic Compliance Matrix: (Units=1/GPa)
#
#
# Indices 1 2 3 4 5 6 
#
# 1 0.047983 -0.006013 -0.006453 0.000000 0.000000 0.000000
# 2 -0.006013 0.020880 -0.016877 0.000000 0.000000 0.000000
# 3 -0.006453 -0.016877 0.031181 0.000000 0.000000 0.000000
# 4 0.000000 0.000000 0.000000 0.041875 0.000000 0.000000
# 5 0.000000 0.000000 0.000000 0.000000 0.068053 0.000000
# 6 0.000000 0.000000 0.000000 0.000000 0.000000 0.105186
#
#
# Mechanical properties :
#
#
# Convention : Reuss Voigt Hill
#
# Bulk Modulus (GPa) = 24.17948 43.22079 33.70013
# Shear Modulus (GPa) = 12.89890 16.18353 14.54122
#
# Velocity S-wave (km/s) = 3.08631 3.45700 3.27690
# Velocity P-wave (km/s) = 5.52774 6.91745 6.26127
#
# Compressibility (1/GPa) = 0.04135738
#
# Stress axis : x y z
#
# Youngs Moduli (GPa) = 20.84057 47.89363 32.07098
#
# Poissons Ratio (x) = 0.28796 0.20697
# Poissons Ratio (y) = 0.12530 0.54127
# Poissons Ratio (z) = 0.13449 0.80832
#
# Static dielectric constant tensor:
#      x y z
#    x 2.508410 0.000000 0.000000 
#    y 0.000000 3.320610 0.000000 
#    z 0.000000 0.000000 2.596470 
# 
# 
# High freq. dielectric constant tensor:
#      x y z
#    x 1.509190 0.000000 0.000000 
#    y 0.000000 1.511050 0.000000 
#    z 0.000000 0.000000 1.467160 
# 
# From -- ./inp_files/70680.got.cif
#   From: 2010.03.12/outbox.cif.g09.slc.cpg/sg74_36_cif.got.tgz:70680.got - 2010.04.16 15:46:19.
