data_PCOD8297739
_publ_section_title
;
Structure prediction by ZEFSAII (Michael W. Deem and Ramdas Pophale) SiO2 
 PCOD8297739
Probable space group: I M M A
;
_chemical_formula_sum "Si O2"
_cell_formula_units_Z 104
_cell_length_a 27.116515
_cell_length_b 9.060631
_cell_length_c 22.347821
_cell_angle_alpha 90.000000
_cell_angle_beta 90.000000
_cell_angle_gamma 90.000000
_cell_volume 5490.697295
_symmetry_space_group_name_H-M "I M M A"
_symmetry_group_IT_number 74
_symmetry_cell_setting 'orthorhombic'
loop_
_space_group_symop_operation_xyz
x,y,z
-x,1/2-y,z
x,-y,-z
-x,1/2+y,-z
-x,-y,-z
x,1/2+y,-z
-x,y,z
x,1/2-y,z
1/2+x,1/2+y,1/2+z
1/2-x,-y,1/2+z
1/2+x,1/2-y,1/2-z
1/2-x,y,1/2-z
1/2-x,1/2-y,1/2-z
1/2+x,y,1/2-z
1/2-x,1/2+y,1/2+z
1/2+x,-y,1/2+z
loop_
_atom_site_type_symbol
_atom_site_label
_atom_site_fract_x
_atom_site_fract_y
_atom_site_fract_z
Si Si1 0.056402 0.077270 0.896823
Si Si2 0.414923 0.576665 0.848269
Si Si3 0.203960 0.074476 0.174156
Si Si4 0.500000 0.426715 0.064475
Si Si5 0.353258 0.075103 0.441758
Si Si6 0.812813 0.925529 0.693789
Si Si7 0.557039 0.909458 0.265078
O O1 0.062638 0.250000 0.911720
O O2 0.077195 0.042601 0.829941
O O3 0.000000 0.026502 0.906097
O O4 0.090062 0.978443 0.939962
O O5 0.416716 0.750000 0.854156
O O6 0.450847 0.514419 0.900477
O O7 0.357939 0.518132 0.849086
O O8 0.435295 0.535630 0.783393
O O9 0.203902 0.250000 0.173851
O O10 0.175026 0.013524 0.116848
O O11 0.179971 0.018871 0.237143
O O12 0.260576 0.016365 0.169155
O O13 0.500000 0.250000 0.058433
O O14 0.500000 0.500000 0.000000
O O15 0.350134 0.250000 0.447270
O O16 0.328286 0.000000 0.500000
O O17 0.813301 0.750000 0.694359
O O18 0.500000 0.884372 0.276422
O O19 0.579621 0.750000 0.244467
#
# Coordination Sequence:
#
# PCOD8297739 Si02
#       7
#    16  16  16   8  16  16  16
#     4   9  19  35  52  73 103 135 169 207 247 296
#     4  10  18  30  50  76 101 128 169 215 254 299
#     4   8  15  29  49  76 103 128 161 200 253 311
#     4  10  22  36  48  68 100 138 177 216 257 304
#     4  11  22  35  52  73  99 135 175 211 251 298
#     4   8  14  27  51  78 102 124 154 207 261 304
#     4   9  17  29  47  73 104 135 160 192 248 306
#
# _framework density 18.941127999999999
#
# number of rings (size 3 to 8) (size 9 to 14) (size 15 to 20)
#    0.000    2.769    0.769    3.231    0.000    3.077 
#    0.000    2.308    0.000    1.846    0.000    7.538 
#    0.000    0.000    0.000    0.000    0.000    0.000 
#
# Total GULP energy -644224.458975 kJ/mol
# GULP energy per Si atom -12388.931903 kJ/mol
# Density = 1.889802 g / cm^3
# Si number density = 18.941128 Si / 1000 Ang^3
#
#
#
# Elastic Constant Matrix: (Units=GPa)
#
#
# Indices 1 2 3 4 5 6 
#
# 1 114.4506 21.2885 69.2698 0.0000 0.0000 0.0000
# 2 21.2885 19.9115 22.2418 0.0000 0.0000 0.0000
# 3 69.2698 22.2418 109.1243 0.0000 0.0000 0.0000
# 4 0.0000 0.0000 0.0000 25.6358 0.0000 0.0000
# 5 0.0000 0.0000 0.0000 0.0000 24.5612 0.0000
# 6 0.0000 0.0000 0.0000 0.0000 0.0000 8.9828
#
#
#
# Elastic Compliance Matrix: (Units=1/GPa)
#
#
# Indices 1 2 3 4 5 6 
#
# 1 0.014895 -0.006945 -0.008040 0.000000 0.000000 0.000000
# 2 -0.006945 0.068265 -0.009506 0.000000 0.000000 0.000000
# 3 -0.008040 -0.009506 0.016205 0.000000 0.000000 0.000000
# 4 0.000000 0.000000 0.000000 0.039008 0.000000 0.000000
# 5 0.000000 0.000000 0.000000 0.000000 0.040715 0.000000
# 6 0.000000 0.000000 0.000000 0.000000 0.000000 0.111324
#
#
# Mechanical properties :
#
#
# Convention : Reuss Voigt Hill
#
# Bulk Modulus (GPa) = 19.84703 52.12072 35.98387
# Shear Modulus (GPa) = 14.03760 20.54837 17.29299
#
# Velocity S-wave (km/s) = 2.72530 3.29729 3.02484
# Velocity P-wave (km/s) = 4.51708 6.48638 5.58915
#
# Compressibility (1/GPa) = 0.05038538
#
# Stress axis : x y z
#
# Youngs Moduli (GPa) = 67.13666 14.64872 61.71069
#
# Poissons Ratio (x) = 0.10173 0.49613
# Poissons Ratio (y) = 0.46624 0.58660
# Poissons Ratio (z) = 0.53975 0.13924
#
# Static dielectric constant tensor:
#      x y z
#    x 3.849350 0.000000 0.000000 
#    y 0.000000 3.050010 0.000000 
#    z 0.000000 0.000000 3.502590 
# 
# 
# High freq. dielectric constant tensor:
#      x y z
#    x 1.738820 0.000000 0.000000 
#    y 0.000000 1.698130 0.000000 
#    z 0.000000 0.000000 1.724280 
# 
# From -- ./inp_files/62367.got.cif
#   From: 2010.03.12/outbox.cif.g09.slc.cpg/sg74_32_cif.got.tgz:62367.got - 2010.04.16 15:46:19.
