data_PCOD8297091
_publ_section_title
;
Structure prediction by ZEFSAII (Michael W. Deem and Ramdas Pophale) SiO2 
 PCOD8297091
Probable space group: I B C A 
;
_chemical_formula_sum "Si O2"
_cell_formula_units_Z 48
_cell_length_a 21.000000
_cell_length_b 27.000000
_cell_length_c 9.000000
_cell_angle_alpha 90.000000
_cell_angle_beta 90.000000
_cell_angle_gamma 90.000000
_cell_volume 5103.000000
_symmetry_space_group_name_H-M "I B C A "
_symmetry_group_IT_number 73
_symmetry_cell_setting 'orthorhombic'
loop_
_space_group_symop_operation_xyz
x,y,z
-x,1/2-y,z
x,-y,1/2-z
1/2-x,y,-z
-x,-y,-z
x,1/2+y,-z
-x,y,1/2+z
1/2+x,-y,z
1/2+x,1/2+y,1/2+z
1/2-x,-y,1/2+z
1/2+x,1/2-y,-z
-x,1/2+y,1/2-z
1/2-x,1/2-y,1/2-z
1/2+x,y,1/2-z
1/2-x,1/2+y,z
x,1/2-y,1/2+z
loop_
_atom_site_type_symbol
_atom_site_label
_atom_site_fract_x
_atom_site_fract_y
_atom_site_fract_z
Si Si1 0.750000 0.609452 0.000000
Si Si2 0.250000 0.731916 0.000000
Si Si3 0.687488 0.190281 0.206079
Si Si4 0.358627 0.549412 0.658946
Si Si5 0.935239 0.455631 0.364291
Si Si6 0.567705 0.361154 0.801812
Si Si7 0.950663 0.608029 0.635726
O O1 0.784404 0.641919 0.126267
O O2 0.703652 0.573941 0.091355
O O3 0.302770 0.765063 0.912198
O O4 0.219328 0.698939 0.868733
O O5 0.612334 0.183680 0.243550
O O6 0.340665 0.500000 0.750000
O O7 0.403034 0.532996 0.521639
O O8 0.390591 0.590851 0.766093
O O9 0.932799 0.500000 0.250000
O O10 0.902218 0.410383 0.274434
O O11 0.991464 0.558652 0.596197
O O12 0.495093 0.355213 0.738203
O O13 0.569303 0.364867 0.982181
#
# Coordination Sequence:
#
# PCOD8297091 Si02
#       7
#     8   8  16  16  16  16  16
#     4  11  24  44  57  90 130 170 211 270 304 361
#     4   9  22  42  71 100 112 156 201 254 318 407
#     4  10  21  43  69  93 120 150 205 258 319 386
#     4  12  24  38  56  86 130 180 216 260 298 352
#     4  10  19  36  56  86 123 163 213 253 298 347
#     4  10  20  36  63  91 125 156 204 255 307 369
#     4  10  20  36  59  93 116 172 207 257 304 356
#
# _framework density 9.4062319999999993
#
# number of rings (size 3 to 8) (size 9 to 14) (size 15 to 20)
#    1.000    0.667    3.333    1.500    2.333    2.667 
#    3.000    0.000    0.000    3.000    0.000    0.000 
#    0.000    0.000    0.000    0.000    0.000    0.000 
#
# Total GULP energy -594694.556027 kJ/mol
# GULP energy per Si atom -12389.469917 kJ/mol
# Density = 0.938482 g / cm^3
# Si number density = 9.406232 Si / 1000 Ang^3
#
#
#
# Elastic Constant Matrix: (Units=GPa)
#
#
# Indices 1 2 3 4 5 6 
#
# 1 108.7788 45.9646 56.9149 0.0000 0.0000 0.0000
# 2 45.9646 59.0381 40.6325 0.0000 0.0000 0.0000
# 3 56.9149 40.6325 171.9374 0.0000 0.0000 0.0000
# 4 0.0000 0.0000 0.0000 35.2428 0.0000 0.0000
# 5 0.0000 0.0000 0.0000 0.0000 42.2657 0.0000
# 6 0.0000 0.0000 0.0000 0.0000 0.0000 26.7376
#
#
#
# Elastic Compliance Matrix: (Units=1/GPa)
#
#
# Indices 1 2 3 4 5 6 
#
# 1 0.014587 -0.009594 -0.002561 0.000000 0.000000 0.000000
# 2 -0.009594 0.026538 -0.003096 0.000000 0.000000 0.000000
# 3 -0.002561 -0.003096 0.007396 0.000000 0.000000 0.000000
# 4 0.000000 0.000000 0.000000 0.028375 0.000000 0.000000
# 5 0.000000 0.000000 0.000000 0.000000 0.023660 0.000000
# 6 0.000000 0.000000 0.000000 0.000000 0.000000 0.037401
#
#
# Mechanical properties :
#
#
# Convention : Reuss Voigt Hill
#
# Bulk Modulus (GPa) = 55.49800 69.64201 62.57000
# Shear Modulus (GPa) = 28.65911 33.93204 31.29558
#
# Velocity S-wave (km/s) = 3.90732 4.25161 4.08310
# Velocity P-wave (km/s) = 7.06548 7.82311 7.45392
#
# Compressibility (1/GPa) = 0.01801867
#
# Stress axis : x y z
#
# Youngs Moduli (GPa) = 68.55373 37.68125 135.21692
#
# Poissons Ratio (x) = 0.36152 0.34634
# Poissons Ratio (y) = 0.65771 0.41860
# Poissons Ratio (z) = 0.17559 0.11665
#
# Static dielectric constant tensor:
#      x y z
#    x 3.354430 0.000000 0.000000 
#    y 0.000000 3.264140 0.000000 
#    z 0.000000 0.000000 3.843350 
# 
# 
# High freq. dielectric constant tensor:
#      x y z
#    x 1.718590 0.000000 0.000000 
#    y 0.000000 1.708850 0.000000 
#    z 0.000000 0.000000 1.774170 
# 
# From -- ./inp_files/6472.got.cif
#   From: 2010.03.12/outbox.ucp.g09.slc.cvg/sg73_4_cif.got.tgz:6472.got - 2010.05.04 20:06:02.
