data_PCOD8297935
_publ_section_title
;
Structure prediction by ZEFSAII (Michael W. Deem and Ramdas Pophale) SiO2 
 PCOD8297935
Probable space group: I M M A
;
_chemical_formula_sum "Si O2"
_cell_formula_units_Z 72
_cell_length_a 16.428838
_cell_length_b 8.666585
_cell_length_c 27.784133
_cell_angle_alpha 90.000000
_cell_angle_beta 90.000000
_cell_angle_gamma 90.000000
_cell_volume 3955.958229
_symmetry_space_group_name_H-M "I M M A"
_symmetry_group_IT_number 74
_symmetry_cell_setting 'orthorhombic'
loop_
_space_group_symop_operation_xyz
x,y,z
-x,1/2-y,z
x,-y,-z
-x,1/2+y,-z
-x,-y,-z
x,1/2+y,-z
-x,y,z
x,1/2-y,z
1/2+x,1/2+y,1/2+z
1/2-x,-y,1/2+z
1/2+x,1/2-y,1/2-z
1/2-x,y,1/2-z
1/2-x,1/2-y,1/2-z
1/2+x,y,1/2-z
1/2-x,1/2+y,1/2+z
1/2+x,-y,1/2+z
loop_
_atom_site_type_symbol
_atom_site_label
_atom_site_fract_x
_atom_site_fract_y
_atom_site_fract_z
Si Si1 0.257641 0.570997 0.864437
Si Si2 0.408391 0.568641 0.187733
Si Si3 0.000000 0.433372 0.053308
Si Si4 0.335011 0.431692 0.552620
Si Si5 0.329852 0.580929 0.281626
O O1 0.256299 0.750000 0.876674
O O2 0.346991 0.524630 0.846086
O O3 0.240029 0.476304 0.913066
O O4 0.186957 0.536042 0.825188
O O5 0.500000 0.528818 0.171452
O O6 0.388987 0.750000 0.182539
O O7 0.398796 0.520811 0.244309
O O8 0.082857 0.497482 0.077230
O O9 0.000000 0.250000 0.054080
O O10 0.000000 0.500000 0.000000
O O11 0.318253 0.500000 0.500000
O O12 0.344149 0.250000 0.547901
O O13 0.352884 0.750000 0.303063
O O14 0.250000 0.597965 0.250000
#
# Coordination Sequence:
#
# PCOD8297935 Si02
#       5
#    16  16   8  16  16
#     4  11  21  33  51  77 108 141 176 218 263 313
#     4   9  18  34  55  77 103 138 178 220 264 316
#     4  10  18  32  52  76 104 132 166 208 256 306
#     4  11  21  36  56  78 105 140 178 217 261 312
#     4   8  15  30  50  71  98 132 170 212 256 308
#
# _framework density 18.200393999999999
#
# number of rings (size 3 to 8) (size 9 to 14) (size 15 to 20)
#    0.000    2.222    0.000    7.667    0.000    4.444 
#    2.000    0.000    0.000    0.667    0.000    0.000 
#    0.000    0.000    0.000    0.000    0.000    0.000 
#
# Total GULP energy -446213.068246 kJ/mol
# GULP energy per Si atom -12394.807451 kJ/mol
# Density = 1.815897 g / cm^3
# Si number density = 18.200394 Si / 1000 Ang^3
#
#
#
# Elastic Constant Matrix: (Units=GPa)
#
#
# Indices 1 2 3 4 5 6 
#
# 1 83.6730 36.9963 41.3395 0.0000 0.0000 0.0000
# 2 36.9963 129.9716 39.9284 0.0000 0.0000 0.0000
# 3 41.3395 39.9284 81.6317 0.0000 0.0000 0.0000
# 4 0.0000 0.0000 0.0000 28.3099 0.0000 0.0000
# 5 0.0000 0.0000 0.0000 0.0000 22.8040 0.0000
# 6 0.0000 0.0000 0.0000 0.0000 0.0000 23.1892
#
#
#
# Elastic Compliance Matrix: (Units=1/GPa)
#
#
# Indices 1 2 3 4 5 6 
#
# 1 0.016614 -0.002524 -0.007179 0.000000 0.000000 0.000000
# 2 -0.002524 0.009438 -0.003338 0.000000 0.000000 0.000000
# 3 -0.007179 -0.003338 0.017519 0.000000 0.000000 0.000000
# 4 0.000000 0.000000 0.000000 0.035323 0.000000 0.000000
# 5 0.000000 0.000000 0.000000 0.000000 0.043852 0.000000
# 6 0.000000 0.000000 0.000000 0.000000 0.000000 0.043124
#
#
# Mechanical properties :
#
#
# Convention : Reuss Voigt Hill
#
# Bulk Modulus (GPa) = 57.18128 59.08943 58.13535
# Shear Modulus (GPa) = 25.28042 26.66141 25.97091
#
# Velocity S-wave (km/s) = 3.73098 3.83153 3.78159
# Velocity P-wave (km/s) = 7.07432 7.21877 7.14691
#
# Compressibility (1/GPa) = 0.01748824
#
# Stress axis : x y z
#
# Youngs Moduli (GPa) = 60.18977 105.95558 57.08188
#
# Poissons Ratio (x) = 0.26740 0.40980
# Poissons Ratio (y) = 0.15190 0.19056
# Poissons Ratio (z) = 0.43212 0.35372
#
# Static dielectric constant tensor:
#      x y z
#    x 3.617940 0.000000 0.000000 
#    y 0.000000 3.299190 0.000000 
#    z 0.000000 0.000000 3.312720 
# 
# 
# High freq. dielectric constant tensor:
#      x y z
#    x 1.691370 0.000000 0.000000 
#    y 0.000000 1.707890 0.000000 
#    z 0.000000 0.000000 1.685380 
# 
# From -- ./inp_files/67459.got.cif
#   From: 2010.03.12/outbox.cif.g09.slc.cpg/sg74_34_cif.got.tgz:67459.got - 2010.04.16 15:46:19.
