data_PCOD8297606
_publ_section_title
;
Structure prediction by ZEFSAII (Michael W. Deem and Ramdas Pophale) SiO2 
 PCOD8297606
Probable space group: I M M A
;
_chemical_formula_sum "Si O2"
_cell_formula_units_Z 104
_cell_length_a 9.081708
_cell_length_b 26.825926
_cell_length_c 24.143137
_cell_angle_alpha 90.000000
_cell_angle_beta 90.000000
_cell_angle_gamma 90.000000
_cell_volume 5881.877226
_symmetry_space_group_name_H-M "I M M A"
_symmetry_group_IT_number 74
_symmetry_cell_setting 'orthorhombic'
loop_
_space_group_symop_operation_xyz
x,y,z
-x,1/2-y,z
x,-y,-z
-x,1/2+y,-z
-x,-y,-z
x,1/2+y,-z
-x,y,z
x,1/2-y,z
1/2+x,1/2+y,1/2+z
1/2-x,-y,1/2+z
1/2+x,1/2-y,1/2-z
1/2-x,y,1/2-z
1/2-x,1/2-y,1/2-z
1/2+x,y,1/2-z
1/2-x,1/2+y,1/2+z
1/2+x,-y,1/2+z
loop_
_atom_site_type_symbol
_atom_site_label
_atom_site_fract_x
_atom_site_fract_y
_atom_site_fract_z
Si Si1 0.825649 0.537583 0.608062
Si Si2 0.326311 0.620302 0.808611
Si Si3 0.175069 0.389449 0.484661
Si Si4 0.175630 0.924933 0.397008
Si Si5 0.825107 0.805771 0.595563
Si Si6 0.667142 0.250000 0.693551
Si Si7 0.172998 0.142779 0.809220
O O1 0.778907 0.567454 0.663728
O O2 0.763071 0.566439 0.554401
O O3 0.765118 0.481516 0.606821
O O4 0.000000 0.536668 0.604155
O O5 0.500000 0.622266 0.799506
O O6 0.250000 0.626973 0.750000
O O7 0.274478 0.665235 0.848989
O O8 0.233338 0.398738 0.546649
O O9 0.228102 0.336287 0.459226
O O10 0.000000 0.391516 0.484521
O O11 0.250275 0.897866 0.346358
O O12 0.000000 0.922045 0.391975
O O13 0.756579 0.750000 0.594534
O O14 0.000000 0.802837 0.595150
O O15 0.500000 0.250000 0.712346
O O16 0.750000 0.250000 0.750000
O O17 0.700995 0.302273 0.662185
O O18 0.250000 0.140471 0.750000
O O19 0.000000 0.131179 0.803165
#
# Coordination Sequence:
#
# PCOD8297606 Si02
#       7
#    16  16  16  16  16   8  16
#     4   8  15  28  46  66  93 127 161 194 230 275
#     4   9  17  29  45  66  91 123 159 194 233 278
#     4   8  14  26  45  68  92 123 161 196 230 273
#     4  10  18  29  48  75  98 120 154 196 237 279
#     4   8  14  26  44  66  94 123 152 192 239 278
#     4   8  16  32  52  66  82 116 152 180 217 266
#     4  10  20  35  52  70  94 123 155 191 232 280
#
# _framework density 17.681429999999999
#
# number of rings (size 3 to 8) (size 9 to 14) (size 15 to 20)
#    0.000    3.231    0.000    2.769    0.000    3.385 
#    1.385    2.308    0.000    5.538    0.000    0.000 
#    0.000    0.000    0.000    0.000    0.000    0.000 
#
# Total GULP energy -644216.259254 kJ/mol
# GULP energy per Si atom -12388.774216 kJ/mol
# Density = 1.764119 g / cm^3
# Si number density = 17.681430 Si / 1000 Ang^3
#
#
#
# Elastic Constant Matrix: (Units=GPa)
#
#
# Indices 1 2 3 4 5 6 
#
# 1 24.8691 28.1447 23.3008 0.0000 0.0000 0.0000
# 2 28.1447 166.8437 87.0851 0.0000 0.0000 0.0000
# 3 23.3008 87.0851 116.8774 -0.0001 0.0000 0.0000
# 4 0.0000 0.0000 -0.0001 19.7311 0.0000 0.0000
# 5 0.0000 0.0000 0.0000 0.0000 21.9415 0.0000
# 6 0.0000 0.0000 0.0000 0.0000 0.0000 13.1170
#
#
#
# Elastic Compliance Matrix: (Units=1/GPa)
#
#
# Indices 1 2 3 4 5 6 
#
# 1 0.052402 -0.005542 -0.006317 0.000000 0.000000 0.000000
# 2 -0.005542 0.010394 -0.006640 0.000000 0.000000 0.000000
# 3 -0.006317 -0.006640 0.014763 0.000000 0.000000 0.000000
# 4 0.000000 0.000000 0.000000 0.050681 0.000000 0.000000
# 5 0.000000 0.000000 0.000000 0.000000 0.045576 0.000000
# 6 0.000000 0.000000 0.000000 0.000000 0.000000 0.076237
#
#
# Mechanical properties :
#
#
# Convention : Reuss Voigt Hill
#
# Bulk Modulus (GPa) = 24.65492 65.07236 44.86364
# Shear Modulus (GPa) = 16.63497 22.29522 19.46510
#
# Velocity S-wave (km/s) = 3.07060 3.55482 3.32155
# Velocity P-wave (km/s) = 5.15225 7.33018 6.33551
#
# Compressibility (1/GPa) = 0.04055986
#
# Stress axis : x y z
#
# Youngs Moduli (GPa) = 19.08336 96.20718 67.73811
#
# Poissons Ratio (x) = 0.53320 0.42793
# Poissons Ratio (y) = 0.10576 0.44977
# Poissons Ratio (z) = 0.12056 0.63880
#
# Static dielectric constant tensor:
#      x y z
#    x 2.803530 0.000000 0.000000 
#    y 0.000000 3.914270 0.000000 
#    z 0.000000 0.000000 3.256300 
# 
# 
# High freq. dielectric constant tensor:
#      x y z
#    x 1.633380 0.000000 0.000000 
#    y 0.000000 1.699620 0.000000 
#    z 0.000000 0.000000 1.675730 
# 
# From -- ./inp_files/57604.got.cif
#   From: 2010.03.12/outbox.cif.g09.slc.cpg/sg74_29_cif.got.tgz:57604.got - 2010.04.16 15:46:19.
