data_PCOD8297597
_publ_section_title
;
Structure prediction by ZEFSAII (Michael W. Deem and Ramdas Pophale) SiO2 
 PCOD8297597
Probable space group: I M M A
;
_chemical_formula_sum "Si O2"
_cell_formula_units_Z 96
_cell_length_a 25.945551
_cell_length_b 14.627845
_cell_length_c 11.696668
_cell_angle_alpha 90.000000
_cell_angle_beta 90.000000
_cell_angle_gamma 90.000000
_cell_volume 4439.207146
_symmetry_space_group_name_H-M "I M M A"
_symmetry_group_IT_number 74
_symmetry_cell_setting 'orthorhombic'
loop_
_space_group_symop_operation_xyz
x,y,z
-x,1/2-y,z
x,-y,-z
-x,1/2+y,-z
-x,-y,-z
x,1/2+y,-z
-x,y,z
x,1/2-y,z
1/2+x,1/2+y,1/2+z
1/2-x,-y,1/2+z
1/2+x,1/2-y,1/2-z
1/2-x,y,1/2-z
1/2-x,1/2-y,1/2-z
1/2+x,y,1/2-z
1/2-x,1/2+y,1/2+z
1/2+x,-y,1/2+z
loop_
_atom_site_type_symbol
_atom_site_label
_atom_site_fract_x
_atom_site_fract_y
_atom_site_fract_z
Si Si1 0.941665 0.359528 0.268057
Si Si2 0.000000 0.858530 0.323506
Si Si3 0.396776 0.146875 0.461506
Si Si4 0.000000 0.093273 0.930021
Si Si5 0.192985 0.358654 0.628683
Si Si6 0.591927 0.641611 0.012060
Si Si7 0.693340 0.141157 0.614925
O O1 0.940047 0.250000 0.267452
O O2 0.920504 0.399819 0.387350
O O3 0.000000 0.393281 0.250553
O O4 0.907886 0.399807 0.162194
O O5 0.000000 0.916972 0.207099
O O6 0.049813 0.888988 0.395517
O O7 0.000000 0.750000 0.296957
O O8 0.379772 0.250000 0.438129
O O9 0.448471 0.147871 0.537141
O O10 0.349352 0.097781 0.528632
O O11 0.000000 0.000000 0.000000
O O12 0.190080 0.250000 0.634358
O O13 0.147756 0.397131 0.548101
O O14 0.248684 0.387736 0.577166
O O15 0.184482 0.396742 0.756935
O O16 0.591364 0.750000 0.003107
O O17 0.687188 0.250000 0.616014
#
# Coordination Sequence:
#
# PCOD8297597 Si02
#       7
#    16   8  16   8  16  16  16
#     4   9  15  25  41  64  92 123 157 191 225 268
#     4  10  18  29  48  71  96 129 166 199 234 290
#     4  10  18  31  50  67  89 126 164 188 224 291
#     4  12  24  33  44  68 100 119 149 198 247 286
#     4   8  13  22  36  60  98 126 143 188 242 273
#     4   9  15  24  42  69  98 125 156 195 238 277
#     4   8  14  24  40  63  91 123 154 185 229 279
#
# _framework density 21.625482000000002
#
# number of rings (size 3 to 8) (size 9 to 14) (size 15 to 20)
#    0.000    2.833    1.667    2.750    0.000    2.667 
#    0.000    0.833    0.000    7.000    0.000    0.000 
#   20.000    0.000    0.000    0.000    0.000    0.000 
#
# Total GULP energy -594841.614281 kJ/mol
# GULP energy per Si atom -12392.533631 kJ/mol
# Density = 2.157626 g / cm^3
# Si number density = 21.625482 Si / 1000 Ang^3
#
#
#
# Elastic Constant Matrix: (Units=GPa)
#
#
# Indices 1 2 3 4 5 6 
#
# 1 204.9198 3.3541 117.4106 0.0000 0.0000 0.0000
# 2 3.3541 16.1143 5.9432 0.0000 0.0000 0.0000
# 3 117.4106 5.9432 202.7698 0.0000 0.0000 0.0000
# 4 0.0000 0.0000 0.0000 7.5112 0.0000 0.0000
# 5 0.0000 0.0000 0.0000 0.0000 42.1996 0.0000
# 6 0.0000 0.0000 0.0000 0.0000 0.0000 -2.8824
#
#
#
# Elastic Compliance Matrix: (Units=1/GPa)
#
#
# Indices 1 2 3 4 5 6 
#
# 1 0.007303 0.000040 -0.004230 0.000000 0.000000 0.000000
# 2 0.000040 0.062735 -0.001862 0.000000 0.000000 0.000000
# 3 -0.004230 -0.001862 0.007435 0.000000 0.000000 0.000000
# 4 0.000000 0.000000 0.000000 0.133135 0.000000 0.000000
# 5 0.000000 0.000000 0.000000 0.000000 0.023697 0.000000
# 6 0.000000 0.000000 0.000000 0.000000 0.000000 -0.346928
#
#
# Mechanical properties :
#
#
# Convention : Reuss Voigt Hill
#
# Bulk Modulus (GPa) = 15.29757 75.24663 45.27210
# Shear Modulus (GPa) = -63.50860 29.17208 -17.16826
#
# Velocity S-wave (km/s) = -5.42506 3.67681 -2.82066
# Velocity P-wave (km/s) = 5.67031 7.27298 3.22054
#
# Compressibility (1/GPa) = 0.06536985
#
# Stress axis : x y z
#
# Youngs Moduli (GPa) = 136.93464 15.94007 134.49141
#
# Poissons Ratio (x) = -0.00064 0.56886
# Poissons Ratio (y) = -0.00547 0.25041
# Poissons Ratio (z) = 0.57919 0.02968
#
# Static dielectric constant tensor:
#      x y z
#    x 4.240690 0.000000 0.000000 
#    y 0.000000 3.114840 0.000000 
#    z 0.000000 0.000000 4.228800 
# 
# 
# High freq. dielectric constant tensor:
#      x y z
#    x 1.850780 0.000000 0.000000 
#    y 0.000000 1.792520 0.000000 
#    z 0.000000 0.000000 1.853230 
# 
# From -- ./inp_files/26452.got.cif
#   From: 2010.03.12/outbox.cif.g09.slc.cpg/sg74_14_cif.got.tgz:26452.got - 2010.04.16 15:46:19.
