data_PCOD8297831
_publ_section_title
;
Structure prediction by ZEFSAII (Michael W. Deem and Ramdas Pophale) SiO2 
 PCOD8297831
Probable space group: I M M A
;
_chemical_formula_sum "Si O2"
_cell_formula_units_Z 96
_cell_length_a 8.579120
_cell_length_b 31.379720
_cell_length_c 19.422145
_cell_angle_alpha 90.000000
_cell_angle_beta 90.000000
_cell_angle_gamma 90.000000
_cell_volume 5228.643103
_symmetry_space_group_name_H-M "I M M A"
_symmetry_group_IT_number 74
_symmetry_cell_setting 'orthorhombic'
loop_
_space_group_symop_operation_xyz
x,y,z
-x,1/2-y,z
x,-y,-z
-x,1/2+y,-z
-x,-y,-z
x,1/2+y,-z
-x,y,z
x,1/2-y,z
1/2+x,1/2+y,1/2+z
1/2-x,-y,1/2+z
1/2+x,1/2-y,1/2-z
1/2-x,y,1/2-z
1/2-x,1/2-y,1/2-z
1/2+x,y,1/2-z
1/2-x,1/2+y,1/2+z
1/2+x,-y,1/2+z
loop_
_atom_site_type_symbol
_atom_site_label
_atom_site_fract_x
_atom_site_fract_y
_atom_site_fract_z
Si Si1 0.686404 0.841465 0.925759
Si Si2 0.681756 0.910545 0.174803
Si Si3 0.684163 0.503379 0.326533
Si Si4 0.824382 0.250000 0.942529
Si Si5 0.678360 0.156802 0.576728
Si Si6 0.683920 0.916747 0.825951
Si Si7 0.823706 0.250000 0.417190
O O1 0.500000 0.840641 0.936749
O O2 0.739626 0.877884 0.873362
O O3 0.747040 0.795789 0.893179
O O4 0.768934 0.849849 0.998219
O O5 0.500000 0.918410 0.182683
O O6 0.750000 0.901225 0.250000
O O7 0.756831 0.952760 0.138658
O O8 0.713276 0.870500 0.126394
O O9 0.500000 0.501367 0.327559
O O10 0.750000 0.504594 0.250000
O O11 0.751548 0.460327 0.361083
O O12 0.803610 0.206382 0.899189
O O13 0.000000 0.250000 0.975366
O O14 0.691500 0.250000 0.000279
O O15 0.500000 0.141657 0.584137
O O16 0.500000 0.919698 0.821140
O O17 0.750000 0.909421 0.750000
O O18 0.000000 0.250000 0.393009
#
# Coordination Sequence:
#
# PCOD8297831 Si02
#       7
#    16  16  16   8  16  16   8
#     4   9  18  32  51  74 100 132 168 207 249 294
#     4  11  21  35  54  76 102 131 165 203 245 292
#     4  10  18  31  51  73  97 128 166 203 244 295
#     4   8  16  30  49  72  99 130 163 200 241 290
#     4  10  19  33  53  77 103 131 165 204 247 294
#     4  10  19  32  50  73 101 132 168 207 249 295
#     4   8  14  28  49  70  94 128 169 204 240 292
#
# _framework density 18.360403999999999
#
# number of rings (size 3 to 8) (size 9 to 14) (size 15 to 20)
#    0.000    2.333    0.000    6.000    0.000    2.000 
#    0.000    1.667    0.000    5.000    0.000    0.000 
#    0.000    0.000    0.000    0.000    0.000    0.000 
#
# Total GULP energy -594738.341806 kJ/mol
# GULP energy per Si atom -12390.382121 kJ/mol
# Density = 1.831861 g / cm^3
# Si number density = 18.360404 Si / 1000 Ang^3
#
#
#
# Elastic Constant Matrix: (Units=GPa)
#
#
# Indices 1 2 3 4 5 6 
#
# 1 84.3825 40.3548 21.2939 0.0000 0.0000 0.0000
# 2 40.3548 178.8271 58.1031 0.0001 0.0000 0.0000
# 3 21.2939 58.1031 56.0894 0.0003 0.0000 0.0000
# 4 0.0000 0.0001 0.0003 30.4751 0.0000 0.0000
# 5 0.0000 0.0000 0.0000 0.0000 23.0677 0.0000
# 6 0.0000 0.0000 0.0000 0.0000 0.0000 26.2847
#
#
#
# Elastic Compliance Matrix: (Units=1/GPa)
#
#
# Indices 1 2 3 4 5 6 
#
# 1 0.013610 -0.002099 -0.002993 0.000000 0.000000 0.000000
# 2 -0.002099 0.008753 -0.008270 0.000000 0.000000 0.000000
# 3 -0.002993 -0.008270 0.027532 0.000000 0.000000 0.000000
# 4 0.000000 0.000000 0.000000 0.032814 0.000000 0.000000
# 5 0.000000 0.000000 0.000000 0.000000 0.043351 0.000000
# 6 0.000000 0.000000 0.000000 0.000000 0.000000 0.038045
#
#
# Mechanical properties :
#
#
# Convention : Reuss Voigt Hill
#
# Bulk Modulus (GPa) = 43.15726 62.08916 52.62321
# Shear Modulus (GPa) = 25.18252 29.26864 27.22558
#
# Velocity S-wave (km/s) = 3.70748 3.99697 3.85495
# Velocity P-wave (km/s) = 6.47178 7.42909 6.96689
#
# Compressibility (1/GPa) = 0.02317107
#
# Stress axis : x y z
#
# Youngs Moduli (GPa) = 73.47674 114.25055 36.32167
#
# Poissons Ratio (x) = 0.23980 0.10870
# Poissons Ratio (y) = 0.15422 0.30038
# Poissons Ratio (z) = 0.21989 0.94486
#
# Static dielectric constant tensor:
#      x y z
#    x 3.422740 0.000000 0.000000 
#    y 0.000000 4.251500 0.000000 
#    z 0.000000 0.000000 3.039500 
# 
# 
# High freq. dielectric constant tensor:
#      x y z
#    x 1.721640 0.000000 0.000000 
#    y 0.000000 1.742420 0.000000 
#    z 0.000000 0.000000 1.654700 
# 
# From -- ./inp_files/57546.got.cif
#   From: 2010.03.12/outbox.cif.g09.slc.cpg/sg74_29_cif.got.tgz:57546.got - 2010.04.16 15:46:19.
