data_PCOD8297614
_publ_section_title
;
Structure prediction by ZEFSAII (Michael W. Deem and Ramdas Pophale) SiO2 
 PCOD8297614
Probable space group: I M M A
;
_chemical_formula_sum "Si O2"
_cell_formula_units_Z 96
_cell_length_a 19.657016
_cell_length_b 8.993741
_cell_length_c 30.851169
_cell_angle_alpha 90.000000
_cell_angle_beta 90.000000
_cell_angle_gamma 90.000000
_cell_volume 5454.181584
_symmetry_space_group_name_H-M "I M M A"
_symmetry_group_IT_number 74
_symmetry_cell_setting 'orthorhombic'
loop_
_space_group_symop_operation_xyz
x,y,z
-x,1/2-y,z
x,-y,-z
-x,1/2+y,-z
-x,-y,-z
x,1/2+y,-z
-x,y,z
x,1/2-y,z
1/2+x,1/2+y,1/2+z
1/2-x,-y,1/2+z
1/2+x,1/2-y,1/2-z
1/2-x,y,1/2-z
1/2-x,1/2-y,1/2-z
1/2+x,y,1/2-z
1/2-x,1/2+y,1/2+z
1/2+x,-y,1/2+z
loop_
_atom_site_type_symbol
_atom_site_label
_atom_site_fract_x
_atom_site_fract_y
_atom_site_fract_z
Si Si1 0.673284 0.926865 0.135037
Si Si2 0.920276 0.580111 0.702570
Si Si3 0.575048 0.926166 0.700085
Si Si4 0.676868 0.083491 0.541727
Si Si5 0.183773 0.072542 0.130393
Si Si6 0.161997 0.087426 0.540517
O O1 0.685796 0.750000 0.134012
O O2 0.645296 0.981700 0.087861
O O3 0.618648 0.969576 0.170804
O O4 0.744113 0.007373 0.145236
O O5 0.896303 0.750000 0.694931
O O6 0.903072 0.527132 0.751353
O O7 0.000000 0.565606 0.693414
O O8 0.500000 0.991523 0.689139
O O9 0.570902 0.750000 0.698376
O O10 0.629709 0.985346 0.665809
O O11 0.646150 0.250000 0.545154
O O12 0.757244 0.094276 0.535935
O O13 0.644968 0.000000 0.500000
O O14 0.658552 0.989936 0.584404
O O15 0.188418 0.250000 0.127890
O O16 0.129463 0.250000 0.537521
O O17 0.129525 0.000000 0.500000
#
# Coordination Sequence:
#
# PCOD8297614 Si02
#       6
#    16  16  16  16  16  16
#     4  10  20  32  46  70 103 130 155 194 242 288
#     4   9  18  34  54  72  91 121 163 204 240 287
#     4   8  16  32  52  72  94 123 161 202 243 290
#     4   9  16  27  43  66  97 128 159 195 236 283
#     4  10  18  29  49  74  98 126 160 199 243 286
#     4   8  15  26  41  62  89 121 152 185 225 270
#
# _framework density 17.601174
#
# number of rings (size 3 to 8) (size 9 to 14) (size 15 to 20)
#    0.000    3.000    0.000    3.500    0.000    5.667 
#    0.000    5.000    0.000    5.000    0.000    0.000 
#    0.000    0.000    0.000    0.000    0.000    0.000 
#
# Total GULP energy -594930.836610 kJ/mol
# GULP energy per Si atom -12394.392429 kJ/mol
# Density = 1.756111 g / cm^3
# Si number density = 17.601174 Si / 1000 Ang^3
#
#
#
# Elastic Constant Matrix: (Units=GPa)
#
#
# Indices 1 2 3 4 5 6 
#
# 1 52.7852 30.2653 62.7267 0.0000 0.0000 0.0000
# 2 30.2653 78.4932 50.9790 0.0000 0.0000 0.0000
# 3 62.7267 50.9790 152.9616 0.0000 0.0000 0.0000
# 4 0.0000 0.0000 0.0000 28.2728 0.0000 0.0000
# 5 0.0000 0.0000 0.0000 0.0000 1.5300 0.0000
# 6 0.0000 0.0000 0.0000 0.0000 0.0000 9.0816
#
#
#
# Elastic Compliance Matrix: (Units=1/GPa)
#
#
# Indices 1 2 3 4 5 6 
#
# 1 0.039005 -0.005936 -0.014017 0.000000 0.000000 0.000000
# 2 -0.005936 0.017163 -0.003286 0.000000 0.000000 0.000000
# 3 -0.014017 -0.003286 0.013381 0.000000 0.000000 0.000000
# 4 0.000000 0.000000 0.000000 0.035370 0.000000 0.000000
# 5 0.000000 0.000000 0.000000 0.000000 0.653613 0.000000
# 6 0.000000 0.000000 0.000000 0.000000 0.000000 0.110113
#
#
# Mechanical properties :
#
#
# Convention : Reuss Voigt Hill
#
# Bulk Modulus (GPa) = 43.34396 63.57577 53.45987
# Shear Modulus (GPa) = 5.41823 17.12814 11.27318
#
# Velocity S-wave (km/s) = 1.75642 3.12288 2.53351
# Velocity P-wave (km/s) = 5.36586 7.01440 6.24477
#
# Compressibility (1/GPa) = 0.02307126
#
# Stress axis : x y z
#
# Youngs Moduli (GPa) = 25.63778 58.26571 74.73437
#
# Poissons Ratio (x) = 0.34586 1.04754
# Poissons Ratio (y) = 0.15218 0.24556
# Poissons Ratio (z) = 0.35936 0.19145
#
# Static dielectric constant tensor:
#      x y z
#    x 2.990020 0.000000 0.000000 
#    y 0.000000 3.247430 0.000000 
#    z 0.000000 0.000000 3.570710 
# 
# 
# High freq. dielectric constant tensor:
#      x y z
#    x 1.635450 0.000000 0.000000 
#    y 0.000000 1.672150 0.000000 
#    z 0.000000 0.000000 1.696450 
# 
# From -- ./inp_files/64299.got.cif
#   From: 2010.03.12/outbox.cif.g09.slc.cpg/sg74_33_cif.got.tgz:64299.got - 2010.04.16 15:46:19.
