data_PCOD8297965
_publ_section_title
;
Structure prediction by ZEFSAII (Michael W. Deem and Ramdas Pophale) SiO2 
 PCOD8297965
Probable space group: I M M A
;
_chemical_formula_sum "Si O2"
_cell_formula_units_Z 104
_cell_length_a 23.883454
_cell_length_b 8.842651
_cell_length_c 25.539597
_cell_angle_alpha 90.000000
_cell_angle_beta 90.000000
_cell_angle_gamma 90.000000
_cell_volume 5393.785345
_symmetry_space_group_name_H-M "I M M A"
_symmetry_group_IT_number 74
_symmetry_cell_setting 'orthorhombic'
loop_
_space_group_symop_operation_xyz
x,y,z
-x,1/2-y,z
x,-y,-z
-x,1/2+y,-z
-x,-y,-z
x,1/2+y,-z
-x,y,z
x,1/2-y,z
1/2+x,1/2+y,1/2+z
1/2-x,-y,1/2+z
1/2+x,1/2-y,1/2-z
1/2-x,y,1/2-z
1/2-x,1/2-y,1/2-z
1/2+x,y,1/2-z
1/2-x,1/2+y,1/2+z
1/2+x,-y,1/2+z
loop_
_atom_site_type_symbol
_atom_site_label
_atom_site_fract_x
_atom_site_fract_y
_atom_site_fract_z
Si Si1 0.435054 0.071385 0.233498
Si Si2 0.646889 0.080372 0.850614
Si Si3 0.109674 0.426677 0.444549
Si Si4 0.877434 0.928378 0.840946
Si Si5 0.564411 0.928455 0.553678
Si Si6 0.267355 0.080816 0.695395
Si Si7 0.500000 0.929479 0.057552
O O1 0.500000 0.023153 0.224936
O O2 0.427974 0.250000 0.224855
O O3 0.416656 0.023195 0.292138
O O4 0.393933 0.987079 0.193502
O O5 0.625294 0.250000 0.864114
O O6 0.711185 0.088460 0.836784
O O7 0.654406 0.970790 0.901146
O O8 0.124735 0.500000 0.500000
O O9 0.101584 0.250000 0.453011
O O10 0.055229 0.502787 0.416126
O O11 0.874887 0.750000 0.844162
O O12 0.902624 0.992195 0.895491
O O13 0.814556 0.987705 0.834611
O O14 0.500000 0.976579 0.560871
O O15 0.571073 0.750000 0.549279
O O16 0.588856 0.000000 0.500000
O O17 0.291102 0.250000 0.706086
O O18 0.250000 0.001189 0.750000
O O19 0.500000 0.750000 0.056243
O O20 0.500000 0.000000 0.000000
#
# Coordination Sequence:
#
# PCOD8297965 Si02
#       7
#    16  16  16  16  16  16   8
#     4  10  21  36  55  83 117 149 184 231 287 345
#     4  11  23  39  58  81 112 149 190 233 286 340
#     4  11  22  38  58  81 110 143 184 229 279 331
#     4  10  20  35  59  86 114 150 193 239 287 343
#     4   9  18  34  56  85 121 158 195 236 287 345
#     4  10  21  39  59  81 111 149 190 237 287 338
#     4  10  18  32  54  80 108 142 182 220 267 322
#
# _framework density 19.281448999999999
#
# number of rings (size 3 to 8) (size 9 to 14) (size 15 to 20)
#    0.000    1.846    1.538    3.923    1.077    4.308 
#    0.000    0.769    0.000    4.615    0.000    0.000 
#    0.000    0.000    0.000    0.000    0.000    0.000 
#
# Total GULP energy -644487.685104 kJ/mol
# GULP energy per Si atom -12393.993944 kJ/mol
# Density = 1.923756 g / cm^3
# Si number density = 19.281449 Si / 1000 Ang^3
#
#
#
# Elastic Constant Matrix: (Units=GPa)
#
#
# Indices 1 2 3 4 5 6 
#
# 1 92.6095 28.1808 48.7663 0.0000 0.0000 0.0000
# 2 28.1808 87.6379 46.8703 0.0000 0.0000 0.0000
# 3 48.7663 46.8703 143.7781 0.0000 0.0000 0.0000
# 4 0.0000 0.0000 0.0000 31.9621 0.0000 0.0000
# 5 0.0000 0.0000 0.0000 0.0000 27.1906 0.0000
# 6 0.0000 0.0000 0.0000 0.0000 0.0000 20.7508
#
#
#
# Elastic Compliance Matrix: (Units=1/GPa)
#
#
# Indices 1 2 3 4 5 6 
#
# 1 0.013516 -0.002295 -0.003836 0.000000 0.000000 0.000000
# 2 -0.002295 0.014210 -0.003854 0.000000 0.000000 0.000000
# 3 -0.003836 -0.003854 0.009513 0.000000 0.000000 0.000000
# 4 0.000000 0.000000 0.000000 0.031287 0.000000 0.000000
# 5 0.000000 0.000000 0.000000 0.000000 0.036777 0.000000
# 6 0.000000 0.000000 0.000000 0.000000 0.000000 0.048191
#
#
# Mechanical properties :
#
#
# Convention : Reuss Voigt Hill
#
# Bulk Modulus (GPa) = 57.90757 63.51782 60.71269
# Shear Modulus (GPa) = 27.89860 29.32790 28.61325
#
# Velocity S-wave (km/s) = 3.80796 3.90429 3.85642
# Velocity P-wave (km/s) = 7.03079 7.30332 7.16835
#
# Compressibility (1/GPa) = 0.01726890
#
# Stress axis : x y z
#
# Youngs Moduli (GPa) = 73.98391 70.37509 105.12194
#
# Poissons Ratio (x) = 0.16148 0.40330
# Poissons Ratio (y) = 0.16976 0.40513
# Poissons Ratio (z) = 0.28384 0.27122
#
# Static dielectric constant tensor:
#      x y z
#    x 3.929770 0.000000 0.000000 
#    y 0.000000 3.621040 0.000000 
#    z 0.000000 0.000000 3.707830 
# 
# 
# High freq. dielectric constant tensor:
#      x y z
#    x 1.742370 0.000000 0.000000 
#    y 0.000000 1.747320 0.000000 
#    z 0.000000 0.000000 1.758950 
# 
# From -- ./inp_files/68643.got.cif
#   From: 2010.03.12/outbox.cif.g09.slc.cpg/sg74_35_cif.got.tgz:68643.got - 2010.04.16 15:46:19.
