data_PCOD8297457
_publ_section_title
;
Structure prediction by ZEFSAII (Michael W. Deem and Ramdas Pophale) SiO2 
 PCOD8297457
Probable space group: I M M A
;
_chemical_formula_sum "Si O2"
_cell_formula_units_Z 128
_cell_length_a 23.719297
_cell_length_b 19.483813
_cell_length_c 18.509265
_cell_angle_alpha 90.000000
_cell_angle_beta 90.000000
_cell_angle_gamma 90.000000
_cell_volume 8553.915173
_symmetry_space_group_name_H-M "I M M A"
_symmetry_group_IT_number 74
_symmetry_cell_setting 'orthorhombic'
loop_
_space_group_symop_operation_xyz
x,y,z
-x,1/2-y,z
x,-y,-z
-x,1/2+y,-z
-x,-y,-z
x,1/2+y,-z
-x,y,z
x,1/2-y,z
1/2+x,1/2+y,1/2+z
1/2-x,-y,1/2+z
1/2+x,1/2-y,1/2-z
1/2-x,y,1/2-z
1/2-x,1/2-y,1/2-z
1/2+x,y,1/2-z
1/2-x,1/2+y,1/2+z
1/2+x,-y,1/2+z
loop_
_atom_site_type_symbol
_atom_site_label
_atom_site_fract_x
_atom_site_fract_y
_atom_site_fract_z
Si Si1 0.850080 0.829619 0.858091
Si Si2 0.751969 0.927911 0.034744
Si Si3 0.274579 0.671154 0.917625
Si Si4 0.437906 0.169926 0.474964
Si Si5 0.846267 0.672401 0.083530
Si Si6 0.682227 0.823916 0.252355
Si Si7 0.298814 0.544777 0.189828
Si Si8 0.187056 0.603349 0.719777
O O1 0.858792 0.750000 0.840993
O O2 0.790226 0.841681 0.896088
O O3 0.854547 0.869358 0.781863
O O4 0.898541 0.859720 0.910666
O O5 0.806835 0.882568 0.046160
O O6 0.723070 0.946520 0.109475
O O7 0.711335 0.881686 0.983150
O O8 0.769762 0.000000 0.000000
O O9 0.285706 0.750000 0.940536
O O10 0.314887 0.653010 0.849885
O O11 0.500000 0.134931 0.474156
O O12 0.444559 0.250000 0.460843
O O13 0.409019 0.157428 0.553263
O O14 0.827517 0.750000 0.060407
O O15 0.843679 0.664702 0.168886
O O16 0.660659 0.750000 0.222088
O O17 0.750000 0.822543 0.250000
O O18 0.661155 0.888717 0.204927
O O19 0.250000 0.545326 0.250000
O O20 0.332494 0.473367 0.196778
O O21 0.250000 0.601680 0.750000
#
# Coordination Sequence:
#
# PCOD8297457 Si02
#       8
#    16  16  16  16  16  16  16  16
#     4   9  16  26  42  61  81 111 149 182 218 260
#     4  12  20  27  39  61  84 114 146 179 212 264
#     4  10  18  28  41  59  82 111 147 182 215 259
#     4   9  17  29  45  66  89 115 153 197 229 257
#     4  10  18  29  44  61  82 113 152 187 223 261
#     4   9  16  26  41  58  76 103 141 185 219 259
#     4  10  18  28  38  55  83 107 141 176 215 258
#     4   9  17  27  39  57  81 109 141 180 214 262
#
# _framework density 14.963907000000001
#
# number of rings (size 3 to 8) (size 9 to 14) (size 15 to 20)
#    0.000    2.250    5.000    0.750    0.000    2.000 
#    0.000    0.000    0.000    0.375    0.000    0.000 
#    0.000    0.000    0.000    3.375    0.000   18.375 
#
# Total GULP energy -792890.541028 kJ/mol
# GULP energy per Si atom -12388.914704 kJ/mol
# Density = 1.492985 g / cm^3
# Si number density = 14.963907 Si / 1000 Ang^3
#
#
#
# Elastic Constant Matrix: (Units=GPa)
#
#
# Indices 1 2 3 4 5 6 
#
# 1 45.6148 15.1484 36.1496 0.0000 0.0000 0.0000
# 2 15.1484 107.3624 44.3083 0.0000 0.0000 0.0000
# 3 36.1496 44.3083 97.1218 0.0000 0.0000 0.0000
# 4 0.0000 0.0000 0.0000 23.6604 0.0000 0.0000
# 5 0.0000 0.0000 0.0000 0.0000 14.0310 0.0000
# 6 0.0000 0.0000 0.0000 0.0000 0.0000 -8.1484
#
#
#
# Elastic Compliance Matrix: (Units=1/GPa)
#
#
# Indices 1 2 3 4 5 6 
#
# 1 0.031115 0.000480 -0.011800 0.000000 0.000000 0.000000
# 2 0.000480 0.011482 -0.005417 0.000000 0.000000 0.000000
# 3 -0.011800 -0.005417 0.017160 0.000000 0.000000 0.000000
# 4 0.000000 0.000000 0.000000 0.042265 0.000000 0.000000
# 5 0.000000 0.000000 0.000000 0.000000 0.071271 0.000000
# 6 0.000000 0.000000 0.000000 0.000000 0.000000 -0.122724
#
#
# Mechanical properties :
#
#
# Convention : Reuss Voigt Hill
#
# Bulk Modulus (GPa) = 38.04849 49.03462 43.54156
# Shear Modulus (GPa) = 53.87740 16.20813 35.04276
#
# Velocity S-wave (km/s) = 6.00692 3.29469 4.84448
# Velocity P-wave (km/s) = 8.57862 6.87845 7.77515
#
# Compressibility (1/GPa) = 0.02628225
#
# Stress axis : x y z
#
# Youngs Moduli (GPa) = 32.13885 87.09226 58.27614
#
# Poissons Ratio (x) = -0.04178 0.68767
# Poissons Ratio (y) = -0.01542 0.31567
# Poissons Ratio (z) = 0.37924 0.47176
#
# Static dielectric constant tensor:
#      x y z
#    x 1.994770 0.000000 0.000000 
#    y 0.000000 3.388700 0.000000 
#    z 0.000000 0.000000 3.110120 
# 
# 
# High freq. dielectric constant tensor:
#      x y z
#    x 1.487530 0.000000 0.000000 
#    y 0.000000 1.587460 0.000000 
#    z 0.000000 0.000000 1.583070 
# 
# From -- ./inp_files/46345.got.cif
#   From: 2010.03.12/outbox.cif.g09.slc.cpg/sg74_24_cif.got.tgz:46345.got - 2010.04.16 15:46:19.
