data_PCOD8297663
_publ_section_title
;
Structure prediction by ZEFSAII (Michael W. Deem and Ramdas Pophale) SiO2 
 PCOD8297663
Probable space group: I M M A
;
_chemical_formula_sum "Si O2"
_cell_formula_units_Z 88
_cell_length_a 8.417696
_cell_length_b 20.806498
_cell_length_c 25.833615
_cell_angle_alpha 90.000000
_cell_angle_beta 90.000000
_cell_angle_gamma 90.000000
_cell_volume 4524.571019
_symmetry_space_group_name_H-M "I M M A"
_symmetry_group_IT_number 74
_symmetry_cell_setting 'orthorhombic'
loop_
_space_group_symop_operation_xyz
x,y,z
-x,1/2-y,z
x,-y,-z
-x,1/2+y,-z
-x,-y,-z
x,1/2+y,-z
-x,y,z
x,1/2-y,z
1/2+x,1/2+y,1/2+z
1/2-x,-y,1/2+z
1/2+x,1/2-y,1/2-z
1/2-x,y,1/2-z
1/2-x,1/2-y,1/2-z
1/2+x,y,1/2-z
1/2-x,1/2+y,1/2+z
1/2+x,-y,1/2+z
loop_
_atom_site_type_symbol
_atom_site_label
_atom_site_fract_x
_atom_site_fract_y
_atom_site_fract_z
Si Si1 0.310253 0.750000 0.691542
Si Si2 0.682443 0.134285 0.694575
Si Si3 0.182352 0.951498 0.457989
Si Si4 0.812770 0.619989 0.692337
Si Si5 0.319421 0.504424 0.356331
Si Si6 0.812121 0.678866 0.412961
O O1 0.500000 0.750000 0.688871
O O2 0.250000 0.750000 0.750000
O O3 0.235918 0.813174 0.664047
O O4 0.500000 0.153768 0.693364
O O5 0.750000 0.156327 0.750000
O O6 0.708938 0.057678 0.688082
O O7 0.763822 0.170746 0.646852
O O8 0.197159 0.985384 0.402827
O O9 0.257366 0.878775 0.450342
O O10 0.000000 0.943735 0.474277
O O11 0.265392 0.000000 0.500000
O O12 0.750000 0.623831 0.750000
O O13 0.713909 0.564960 0.665423
O O14 0.000000 0.607142 0.689736
O O15 0.500000 0.508785 0.377020
O O16 0.755124 0.750000 0.432000
O O17 0.000000 0.673826 0.415127
#
# Coordination Sequence:
#
# PCOD8297663 Si02
#       6
#     8  16  16  16  16  16
#     4  10  18  30  46  66  94 130 170 208 248 298
#     4  10  20  32  48  72 104 139 175 211 251 299
#     4   9  18  34  56  78 100 129 167 213 265 317
#     4  11  20  31  48  71 100 134 172 210 254 306
#     4  10  20  33  50  74 100 131 170 213 260 307
#     4   9  18  33  53  76 102 134 172 211 255 308
#
# _framework density 19.449358
#
# number of rings (size 3 to 8) (size 9 to 14) (size 15 to 20)
#    0.000    2.182    0.000    5.182    0.000    4.727 
#    0.000    0.000    2.000    0.000    0.000    0.000 
#    0.000    0.000    0.000    0.000    0.000    0.000 
#
# Total GULP energy -545154.681347 kJ/mol
# GULP energy per Si atom -12389.879122 kJ/mol
# Density = 1.940509 g / cm^3
# Si number density = 19.449358 Si / 1000 Ang^3
#
#
#
# Elastic Constant Matrix: (Units=GPa)
#
#
# Indices 1 2 3 4 5 6 
#
# 1 45.6718 12.8935 5.1860 0.0000 0.0000 0.0000
# 2 12.8935 166.4030 45.2568 0.0000 0.0000 0.0000
# 3 5.1860 45.2568 67.3571 0.0000 0.0000 0.0000
# 4 0.0000 0.0000 0.0000 23.2836 0.0000 0.0000
# 5 0.0000 0.0000 0.0000 0.0000 18.8601 0.0000
# 6 0.0000 0.0000 0.0000 0.0000 0.0000 15.5452
#
#
#
# Elastic Compliance Matrix: (Units=1/GPa)
#
#
# Indices 1 2 3 4 5 6 
#
# 1 0.022411 -0.001551 -0.000684 0.000000 0.000000 0.000000
# 2 -0.001551 0.007460 -0.004893 0.000000 0.000000 0.000000
# 3 -0.000684 -0.004893 0.018187 0.000000 0.000000 0.000000
# 4 0.000000 0.000000 0.000000 0.042949 0.000000 0.000000
# 5 0.000000 0.000000 0.000000 0.000000 0.053022 0.000000
# 6 0.000000 0.000000 0.000000 0.000000 0.000000 0.064329
#
#
# Mechanical properties :
#
#
# Convention : Reuss Voigt Hill
#
# Bulk Modulus (GPa) = 29.58327 45.12273 37.35300
# Shear Modulus (GPa) = 21.37849 25.94413 23.66131
#
# Velocity S-wave (km/s) = 3.31900 3.65627 3.49171
# Velocity P-wave (km/s) = 5.47093 6.40897 5.95844
#
# Compressibility (1/GPa) = 0.03380288
#
# Stress axis : x y z
#
# Youngs Moduli (GPa) = 44.62152 134.03975 54.98542
#
# Poissons Ratio (x) = 0.20783 0.03759
# Poissons Ratio (y) = 0.06919 0.26906
# Poissons Ratio (z) = 0.03051 0.65589
#
# Static dielectric constant tensor:
#      x y z
#    x 3.469550 0.000000 0.000000 
#    y 0.000000 4.771530 0.000000 
#    z 0.000000 0.000000 3.292160 
# 
# 
# High freq. dielectric constant tensor:
#      x y z
#    x 1.752820 0.000000 0.000000 
#    y 0.000000 1.780070 0.000000 
#    z 0.000000 0.000000 1.711300 
# 
# From -- ./inp_files/56959.got.cif
#   From: 2010.03.12/outbox.cif.g09.slc.cpg/sg74_29_cif.got.tgz:56959.got - 2010.04.16 15:46:19.
