data_PCOD8297205
_publ_section_title
;
Structure prediction by ZEFSAII (Michael W. Deem and Ramdas Pophale) SiO2 
 PCOD8297205
Probable space group: I M M A
;
_chemical_formula_sum "Si O2"
_cell_formula_units_Z 80
_cell_length_a 8.924932
_cell_length_b 29.356055
_cell_length_c 22.921043
_cell_angle_alpha 90.000000
_cell_angle_beta 90.000000
_cell_angle_gamma 90.000000
_cell_volume 6005.331481
_symmetry_space_group_name_H-M "I M M A"
_symmetry_group_IT_number 74
_symmetry_cell_setting 'orthorhombic'
loop_
_space_group_symop_operation_xyz
x,y,z
-x,1/2-y,z
x,-y,-z
-x,1/2+y,-z
-x,-y,-z
x,1/2+y,-z
-x,y,z
x,1/2-y,z
1/2+x,1/2+y,1/2+z
1/2-x,-y,1/2+z
1/2+x,1/2-y,1/2-z
1/2-x,y,1/2-z
1/2-x,1/2-y,1/2-z
1/2+x,y,1/2-z
1/2-x,1/2+y,1/2+z
1/2+x,-y,1/2+z
loop_
_atom_site_type_symbol
_atom_site_label
_atom_site_fract_x
_atom_site_fract_y
_atom_site_fract_z
Si Si1 0.824483 0.301162 0.690245
Si Si2 0.324911 0.481566 0.077753
Si Si3 0.327907 0.468548 0.810656
Si Si4 0.321941 0.567395 0.485109
Si Si5 0.676772 0.616041 0.112482
O O1 0.771885 0.250000 0.673684
O O2 0.750000 0.317842 0.750000
O O3 0.777848 0.334829 0.638102
O O4 0.000000 0.303334 0.700984
O O5 0.500000 0.482624 0.061539
O O6 0.302934 0.487219 0.147461
O O7 0.241407 0.524113 0.048971
O O8 0.247380 0.435751 0.051194
O O9 0.500000 0.460949 0.796303
O O10 0.250000 0.478557 0.750000
O O11 0.267399 0.422770 0.842170
O O12 0.500000 0.567581 0.488356
O O13 0.262550 0.611443 0.449604
O O14 0.500000 0.611105 0.101098
#
# Coordination Sequence:
#
# PCOD8297205 Si02
#       5
#    16  16  16  16  16
#     4   9  17  28  41  55  71  93 121 152 187 225
#     4   9  16  27  38  49  69  94 114 137 176 217
#     4   9  17  25  35  50  68  92 118 144 175 209
#     4  10  17  24  37  55  68  84 114 149 179 207
#     4   9  17  28  38  50  70  94 118 147 185 222
#
# _framework density 13.321496
#
# number of rings (size 3 to 8) (size 9 to 14) (size 15 to 20)
#    0.000    2.800    0.000    5.400    0.000    4.800 
#    0.000    0.000    0.000    0.000    0.000    0.000 
#    0.000    0.000    0.000    0.000    0.000    1.000 
#
# Total GULP energy -495608.275930 kJ/mol
# GULP energy per Si atom -12390.206898 kJ/mol
# Density = 1.329118 g / cm^3
# Si number density = 13.321496 Si / 1000 Ang^3
#
#
#
# Elastic Constant Matrix: (Units=GPa)
#
#
# Indices 1 2 3 4 5 6 
#
# 1 60.6225 27.6092 38.2839 0.0000 0.0000 0.0000
# 2 27.6092 56.2016 43.9864 0.0000 0.0000 0.0000
# 3 38.2839 43.9864 79.4010 0.0000 0.0000 0.0000
# 4 0.0000 0.0000 0.0000 21.1845 0.0000 0.0000
# 5 0.0000 0.0000 0.0000 0.0000 24.3024 0.0000
# 6 0.0000 0.0000 0.0000 0.0000 0.0000 10.5027
#
#
#
# Elastic Compliance Matrix: (Units=1/GPa)
#
#
# Indices 1 2 3 4 5 6 
#
# 1 0.024464 -0.004919 -0.009071 0.000000 0.000000 0.000000
# 2 -0.004919 0.032402 -0.015578 0.000000 0.000000 0.000000
# 3 -0.009071 -0.015578 0.025598 0.000000 0.000000 0.000000
# 4 0.000000 0.000000 0.000000 0.047204 0.000000 0.000000
# 5 0.000000 0.000000 0.000000 0.000000 0.041148 0.000000
# 6 0.000000 0.000000 0.000000 0.000000 0.000000 0.095214
#
#
# Mechanical properties :
#
#
# Convention : Reuss Voigt Hill
#
# Bulk Modulus (GPa) = 42.86655 46.22046 44.54350
# Shear Modulus (GPa) = 15.01767 16.95428 15.98598
#
# Velocity S-wave (km/s) = 3.36121 3.57136 3.46788
# Velocity P-wave (km/s) = 6.87837 7.19567 7.03881
#
# Compressibility (1/GPa) = 0.02332821
#
# Stress axis : x y z
#
# Youngs Moduli (GPa) = 40.87660 30.86238 39.06590
#
# Poissons Ratio (x) = 0.15181 0.35435
# Poissons Ratio (y) = 0.20107 0.60858
# Poissons Ratio (z) = 0.37077 0.48078
#
# Static dielectric constant tensor:
#      x y z
#    x 2.665860 0.000000 0.000000 
#    y 0.000000 2.694420 0.000000 
#    z 0.000000 0.000000 3.047650 
# 
# 
# High freq. dielectric constant tensor:
#      x y z
#    x 1.514990 0.000000 0.000000 
#    y 0.000000 1.461090 0.000000 
#    z 0.000000 0.000000 1.496680 
# 
# From -- ./inp_files/49410.got.cif
#   From: 2010.03.12/outbox.cif.g09.slc.cpg/sg74_25_cif.got.tgz:49410.got - 2010.04.16 15:46:19.
