data_PCOD8297511
_publ_section_title
;
Structure prediction by ZEFSAII (Michael W. Deem and Ramdas Pophale) SiO2 
 PCOD8297511
Probable space group: I M M A
;
_chemical_formula_sum "Si O2"
_cell_formula_units_Z 88
_cell_length_a 27.813693
_cell_length_b 9.219564
_cell_length_c 17.916670
_cell_angle_alpha 90.000000
_cell_angle_beta 90.000000
_cell_angle_gamma 90.000000
_cell_volume 4594.373886
_symmetry_space_group_name_H-M "I M M A"
_symmetry_group_IT_number 74
_symmetry_cell_setting 'orthorhombic'
loop_
_space_group_symop_operation_xyz
x,y,z
-x,1/2-y,z
x,-y,-z
-x,1/2+y,-z
-x,-y,-z
x,1/2+y,-z
-x,y,z
x,1/2-y,z
1/2+x,1/2+y,1/2+z
1/2-x,-y,1/2+z
1/2+x,1/2-y,1/2-z
1/2-x,y,1/2-z
1/2-x,1/2-y,1/2-z
1/2+x,y,1/2-z
1/2-x,1/2+y,1/2+z
1/2+x,-y,1/2+z
loop_
_atom_site_type_symbol
_atom_site_label
_atom_site_fract_x
_atom_site_fract_y
_atom_site_fract_z
Si Si1 0.500000 0.420834 0.423207
Si Si2 0.587905 0.421526 0.324435
Si Si3 0.734519 0.078950 0.169975
Si Si4 0.945947 0.077850 0.333280
Si Si5 0.855429 0.421387 0.423530
Si Si6 0.175222 0.578851 0.922869
O O1 0.500000 0.250000 0.435933
O O2 0.500000 0.500000 0.500000
O O3 0.546453 0.474469 0.379235
O O4 0.588323 0.250000 0.316630
O O5 0.576621 0.487773 0.242898
O O6 0.638382 0.474670 0.358552
O O7 0.734447 0.250000 0.180754
O O8 0.750000 0.008878 0.250000
O O9 0.681975 0.028172 0.141336
O O10 0.772287 0.033738 0.106060
O O11 0.948966 0.250000 0.326453
O O12 0.909545 0.033376 0.399509
O O13 0.000000 0.015978 0.347999
O O14 0.842153 0.500000 0.500000
O O15 0.850947 0.250000 0.436347
O O16 0.170154 0.750000 0.936605
O O17 0.163639 0.500000 0.000000
#
# Coordination Sequence:
#
# PCOD8297511 Si02
#       6
#     8  16  16  16  16  16
#     4  10  18  28  44  66  93 122 154 196 239 280
#     4   9  16  28  46  69  93 121 161 202 234 270
#     4   9  17  31  51  74  96 122 162 204 236 273
#     4   9  16  29  50  74  95 121 164 209 240 274
#     4  10  20  33  52  76 101 128 158 199 247 290
#     4  10  19  30  47  70  97 127 156 192 237 283
#
# _framework density 19.153860000000002
#
# number of rings (size 3 to 8) (size 9 to 14) (size 15 to 20)
#    0.000    2.545    0.909    2.182    0.000    4.727 
#    0.000    0.000    0.000    6.545    0.000    0.000 
#    0.000    0.000    0.000    0.000    0.000    0.000 
#
# Total GULP energy -545370.809471 kJ/mol
# GULP energy per Si atom -12394.791124 kJ/mol
# Density = 1.911027 g / cm^3
# Si number density = 19.153860 Si / 1000 Ang^3
#
#
#
# Elastic Constant Matrix: (Units=GPa)
#
#
# Indices 1 2 3 4 5 6 
#
# 1 145.7655 17.4063 52.3567 0.0000 0.0000 0.0000
# 2 17.4063 18.0923 23.3127 0.0000 0.0000 0.0000
# 3 52.3567 23.3127 122.2231 0.0000 0.0000 0.0000
# 4 0.0000 0.0000 0.0000 24.5617 0.0000 0.0000
# 5 0.0000 0.0000 0.0000 0.0000 18.3349 0.0000
# 6 0.0000 0.0000 0.0000 0.0000 0.0000 8.2485
#
#
#
# Elastic Compliance Matrix: (Units=1/GPa)
#
#
# Indices 1 2 3 4 5 6 
#
# 1 0.008382 -0.004558 -0.002721 0.000000 0.000000 0.000000
# 2 -0.004558 0.075762 -0.012498 0.000000 0.000000 0.000000
# 3 -0.002721 -0.012498 0.011731 0.000000 0.000000 0.000000
# 4 0.000000 0.000000 0.000000 0.040714 0.000000 0.000000
# 5 0.000000 0.000000 0.000000 0.000000 0.054541 0.000000
# 6 0.000000 0.000000 0.000000 0.000000 0.000000 0.121234
#
#
# Mechanical properties :
#
#
# Convention : Reuss Voigt Hill
#
# Bulk Modulus (GPa) = 17.75550 52.47028 35.11289
# Shear Modulus (GPa) = 13.48829 23.09602 18.29216
#
# Velocity S-wave (km/s) = 2.65657 3.47625 3.09368
# Velocity P-wave (km/s) = 4.32433 6.60046 5.57969
#
# Compressibility (1/GPa) = 0.05632058
#
# Stress axis : x y z
#
# Youngs Moduli (GPa) = 119.30284 13.19924 85.24138
#
# Poissons Ratio (x) = 0.06016 0.23196
# Poissons Ratio (y) = 0.54375 1.06538
# Poissons Ratio (z) = 0.32465 0.16497
#
# Static dielectric constant tensor:
#      x y z
#    x 3.811840 0.000000 0.000000 
#    y 0.000000 2.824950 0.000000 
#    z 0.000000 0.000000 3.555430 
# 
# 
# High freq. dielectric constant tensor:
#      x y z
#    x 1.766930 0.000000 0.000000 
#    y 0.000000 1.667110 0.000000 
#    z 0.000000 0.000000 1.754100 
# 
# From -- ./inp_files/30975.got.cif
#   From: 2010.03.12/outbox.cif.g09.slc.cpg/sg74_16_cif.got.tgz:30975.got - 2010.04.16 15:46:19.
