data_PCOD8297257
_publ_section_title
;
Structure prediction by ZEFSAII (Michael W. Deem and Ramdas Pophale) SiO2 
 PCOD8297257
Probable space group: I M M A
;
_chemical_formula_sum "Si O2"
_cell_formula_units_Z 80
_cell_length_a 9.011084
_cell_length_b 23.647698
_cell_length_c 26.173840
_cell_angle_alpha 90.000000
_cell_angle_beta 90.000000
_cell_angle_gamma 90.000000
_cell_volume 5577.420028
_symmetry_space_group_name_H-M "I M M A"
_symmetry_group_IT_number 74
_symmetry_cell_setting 'orthorhombic'
loop_
_space_group_symop_operation_xyz
x,y,z
-x,1/2-y,z
x,-y,-z
-x,1/2+y,-z
-x,-y,-z
x,1/2+y,-z
-x,y,z
x,1/2-y,z
1/2+x,1/2+y,1/2+z
1/2-x,-y,1/2+z
1/2+x,1/2-y,1/2-z
1/2-x,y,1/2-z
1/2-x,1/2-y,1/2-z
1/2+x,y,1/2-z
1/2-x,1/2+y,1/2+z
1/2+x,-y,1/2+z
loop_
_atom_site_type_symbol
_atom_site_label
_atom_site_fract_x
_atom_site_fract_y
_atom_site_fract_z
Si Si1 0.174612 0.871197 0.491141
Si Si2 0.322144 0.750000 0.151771
Si Si3 0.824837 0.750000 0.464214
Si Si4 0.325748 0.360183 0.698018
Si Si5 0.664319 0.460464 0.450557
Si Si6 0.827867 0.931782 0.100946
O O1 0.227703 0.805791 0.494964
O O2 0.232585 0.905893 0.540406
O O3 0.232377 0.894268 0.437411
O O4 0.000000 0.876575 0.490693
O O5 0.500000 0.750000 0.156007
O O6 0.262462 0.750000 0.093598
O O7 0.257085 0.695726 0.179782
O O8 0.000000 0.750000 0.459007
O O9 0.500000 0.347554 0.705498
O O10 0.250000 0.381198 0.750000
O O11 0.299369 0.411131 0.658207
O O12 0.668462 0.500000 0.500000
O O13 0.500000 0.436898 0.440156
O O14 0.717135 0.501401 0.403948
O O15 0.000000 0.925040 0.084791
#
# Coordination Sequence:
#
# PCOD8297257 Si02
#       6
#    16   8   8  16  16  16
#     4  10  17  27  42  61  81 104 134 166 200 238
#     4  11  20  34  47  57  78 110 142 179 215 245
#     4   9  18  28  40  59  85 110 133 169 208 233
#     4  11  22  34  46  61  78 105 141 179 215 250
#     4   8  15  28  42  58  79 102 127 161 201 243
#     4   9  18  31  44  57  78 104 132 166 207 247
#
# _framework density 14.343548999999999
#
# number of rings (size 3 to 8) (size 9 to 14) (size 15 to 20)
#    0.000    2.400    2.000    3.000    0.000    4.400 
#    0.000    2.000    0.000    0.000    0.000    0.000 
#    0.000    0.000    0.000    0.900    0.000   10.800 
#
# Total GULP energy -495748.385815 kJ/mol
# GULP energy per Si atom -12393.709645 kJ/mol
# Density = 1.431090 g / cm^3
# Si number density = 14.343549 Si / 1000 Ang^3
#
#
#
# Elastic Constant Matrix: (Units=GPa)
#
#
# Indices 1 2 3 4 5 6 
#
# 1 71.9067 51.4541 33.3045 0.0000 0.0000 0.0000
# 2 51.4541 118.7773 61.5962 0.0000 0.0000 0.0000
# 3 33.3045 61.5962 66.4073 0.0000 0.0000 0.0000
# 4 0.0000 0.0000 0.0000 15.0877 0.0000 0.0000
# 5 0.0000 0.0000 0.0000 0.0000 18.4998 0.0000
# 6 0.0000 0.0000 0.0000 0.0000 0.0000 20.0740
#
#
#
# Elastic Compliance Matrix: (Units=1/GPa)
#
#
# Indices 1 2 3 4 5 6 
#
# 1 0.020685 -0.006900 -0.003974 0.000000 0.000000 0.000000
# 2 -0.006900 0.018524 -0.013721 0.000000 0.000000 0.000000
# 3 -0.003974 -0.013721 0.029779 0.000000 0.000000 0.000000
# 4 0.000000 0.000000 0.000000 0.066279 0.000000 0.000000
# 5 0.000000 0.000000 0.000000 0.000000 0.054055 0.000000
# 6 0.000000 0.000000 0.000000 0.000000 0.000000 0.049816
#
#
# Mechanical properties :
#
#
# Convention : Reuss Voigt Hill
#
# Bulk Modulus (GPa) = 50.51204 61.08898 55.80051
# Shear Modulus (GPa) = 16.95338 18.11472 17.53405
#
# Velocity S-wave (km/s) = 3.44168 3.55761 3.50013
# Velocity P-wave (km/s) = 7.14744 7.71737 7.43786
#
# Compressibility (1/GPa) = 0.01979726
#
# Stress axis : x y z
#
# Youngs Moduli (GPa) = 48.34484 53.98455 33.58088
#
# Poissons Ratio (x) = 0.37248 0.13345
# Poissons Ratio (y) = 0.33357 0.46078
# Poissons Ratio (z) = 0.19212 0.74074
#
# Static dielectric constant tensor:
#      x y z
#    x 2.854000 0.000000 0.000000 
#    y 0.000000 3.156260 0.000000 
#    z 0.000000 0.000000 2.751140 
# 
# 
# High freq. dielectric constant tensor:
#      x y z
#    x 1.554110 0.000000 0.000000 
#    y 0.000000 1.542180 0.000000 
#    z 0.000000 0.000000 1.508270 
# 
# From -- ./inp_files/54977.got.cif
#   From: 2010.03.12/outbox.cif.g09.slc.cpg/sg74_28_cif.got.tgz:54977.got - 2010.04.16 15:46:19.
