data_PCOD8297550
_publ_section_title
;
Structure prediction by ZEFSAII (Michael W. Deem and Ramdas Pophale) SiO2 
 PCOD8297550
Probable space group: I M M A
;
_chemical_formula_sum "Si O2"
_cell_formula_units_Z 104
_cell_length_a 12.646817
_cell_length_b 28.974274
_cell_length_c 18.991405
_cell_angle_alpha 90.000000
_cell_angle_beta 90.000000
_cell_angle_gamma 90.000000
_cell_volume 6959.064993
_symmetry_space_group_name_H-M "I M M A"
_symmetry_group_IT_number 74
_symmetry_cell_setting 'orthorhombic'
loop_
_space_group_symop_operation_xyz
x,y,z
-x,1/2-y,z
x,-y,-z
-x,1/2+y,-z
-x,-y,-z
x,1/2+y,-z
-x,y,z
x,1/2-y,z
1/2+x,1/2+y,1/2+z
1/2-x,-y,1/2+z
1/2+x,1/2-y,1/2-z
1/2-x,y,1/2-z
1/2-x,1/2-y,1/2-z
1/2+x,y,1/2-z
1/2-x,1/2+y,1/2+z
1/2+x,-y,1/2+z
loop_
_atom_site_type_symbol
_atom_site_label
_atom_site_fract_x
_atom_site_fract_y
_atom_site_fract_z
Si Si1 0.750000 0.151077 0.750000
Si Si2 0.620727 0.960665 0.556135
Si Si3 0.310035 0.421975 0.853176
Si Si4 0.122234 0.198877 0.870004
Si Si5 0.620213 0.607910 0.440403
Si Si6 0.500000 0.041568 0.101871
Si Si7 0.500000 0.063583 0.947149
Si Si8 0.290840 0.025662 0.175175
O O1 0.672501 0.117596 0.794780
O O2 0.817537 0.183871 0.799871
O O3 0.500000 0.966232 0.581887
O O4 0.639307 0.910623 0.519508
O O5 0.696632 0.965102 0.621617
O O6 0.650560 0.000000 0.500000
O O7 0.192637 0.419309 0.885247
O O8 0.395415 0.413210 0.914581
O O9 0.321744 0.471911 0.817526
O O10 0.160071 0.250000 0.893744
O O11 0.143655 0.162943 0.934292
O O12 0.000000 0.199481 0.849725
O O13 0.500000 0.596622 0.417674
O O14 0.396063 0.052361 0.148746
O O15 0.500000 0.989841 0.073121
O O16 0.500000 0.072818 0.031123
O O17 0.250000 0.044760 0.250000
#
# Coordination Sequence:
#
# PCOD8297550 Si02
#       8
#     8  16  16  16  16   8   8  16
#     4  10  19  28  42  64  92 118 156 186 231 266
#     4  10  19  30  48  66  87 119 153 193 232 272
#     4  10  18  29  41  64  84 117 152 196 221 259
#     4   9  18  31  46  63  88 118 149 188 235 275
#     4   9  17  30  46  67  83 110 152 189 223 267
#     4   9  20  32  42  58  77 120 153 196 229 268
#     4   9  18  30  46  56  81 112 161 194 223 266
#     4  11  21  31  43  61  93 119 154 190 233 276
#
# _framework density 14.944535999999999
#
# number of rings (size 3 to 8) (size 9 to 14) (size 15 to 20)
#    0.000    2.308    2.308    1.154    4.308    0.000 
#    0.000    0.000    0.000    0.000    0.000    0.000 
#    0.000    0.615    0.000    0.000    0.000    0.000 
#
# Total GULP energy -644583.640673 kJ/mol
# GULP energy per Si atom -12395.839244 kJ/mol
# Density = 1.491052 g / cm^3
# Si number density = 14.944536 Si / 1000 Ang^3
#
#
#
# Elastic Constant Matrix: (Units=GPa)
#
#
# Indices 1 2 3 4 5 6 
#
# 1 81.6033 24.4464 56.0122 0.0000 0.0000 0.0000
# 2 24.4464 70.4654 35.7987 0.0000 0.0000 0.0000
# 3 56.0122 35.7987 102.0843 -0.0002 0.0001 0.0000
# 4 0.0000 0.0000 -0.0002 19.3428 0.0000 0.0000
# 5 0.0000 0.0000 0.0001 0.0000 28.2304 0.0000
# 6 0.0000 0.0000 0.0000 0.0000 0.0000 12.8952
#
#
#
# Elastic Compliance Matrix: (Units=1/GPa)
#
#
# Indices 1 2 3 4 5 6 
#
# 1 0.019813 -0.001644 -0.010295 0.000000 0.000000 0.000000
# 2 -0.001644 0.017404 -0.005201 0.000000 0.000000 0.000000
# 3 -0.010295 -0.005201 0.017268 0.000000 0.000000 0.000000
# 4 0.000000 0.000000 0.000000 0.051699 0.000000 0.000000
# 5 0.000000 0.000000 0.000000 0.000000 0.035423 0.000000
# 6 0.000000 0.000000 0.000000 0.000000 0.000000 0.077548
#
#
# Mechanical properties :
#
#
# Convention : Reuss Voigt Hill
#
# Bulk Modulus (GPa) = 49.49026 54.07418 51.78222
# Shear Modulus (GPa) = 19.21819 21.28674 20.25246
#
# Velocity S-wave (km/s) = 3.58993 3.77819 3.68526
# Velocity P-wave (km/s) = 7.09727 7.43605 7.26863
#
# Compressibility (1/GPa) = 0.02020600
#
# Stress axis : x y z
#
# Youngs Moduli (GPa) = 50.47167 57.45790 57.90921
#
# Poissons Ratio (x) = 0.09444 0.59616
# Poissons Ratio (y) = 0.08296 0.30121
# Poissons Ratio (z) = 0.51959 0.29886
#
# Static dielectric constant tensor:
#      x y z
#    x 2.989400 0.000000 0.000000 
#    y 0.000000 2.868000 0.000000 
#    z 0.000000 0.000000 2.890740 
# 
# 
# High freq. dielectric constant tensor:
#      x y z
#    x 1.583450 0.000000 0.000000 
#    y 0.000000 1.533430 0.000000 
#    z 0.000000 0.000000 1.556590 
# 
# From -- ./inp_files/41837.got.cif
#   From: 2010.03.12/outbox.cif.g09.slc.cpg/sg74_21_cif.got.tgz:41837.got - 2010.04.16 15:46:19.
