data_PCOD8297968
_publ_section_title
;
Structure prediction by ZEFSAII (Michael W. Deem and Ramdas Pophale) SiO2 
 PCOD8297968
Probable space group: I M M A
;
_chemical_formula_sum "Si O2"
_cell_formula_units_Z 104
_cell_length_a 8.880970
_cell_length_b 21.606922
_cell_length_c 27.088885
_cell_angle_alpha 90.000000
_cell_angle_beta 90.000000
_cell_angle_gamma 90.000000
_cell_volume 5198.097685
_symmetry_space_group_name_H-M "I M M A"
_symmetry_group_IT_number 74
_symmetry_cell_setting 'orthorhombic'
loop_
_space_group_symop_operation_xyz
x,y,z
-x,1/2-y,z
x,-y,-z
-x,1/2+y,-z
-x,-y,-z
x,1/2+y,-z
-x,y,z
x,1/2-y,z
1/2+x,1/2+y,1/2+z
1/2-x,-y,1/2+z
1/2+x,1/2-y,1/2-z
1/2-x,y,1/2-z
1/2-x,1/2-y,1/2-z
1/2+x,y,1/2-z
1/2-x,1/2+y,1/2+z
1/2+x,-y,1/2+z
loop_
_atom_site_type_symbol
_atom_site_label
_atom_site_fract_x
_atom_site_fract_y
_atom_site_fract_z
Si Si1 0.331800 0.678231 0.133406
Si Si2 0.678850 0.680565 0.023261
Si Si3 0.675507 0.130806 0.197577
Si Si4 0.678821 0.250000 0.304490
Si Si5 0.672161 0.533179 0.635121
Si Si6 0.171696 0.441481 0.464424
Si Si7 0.328145 0.914960 0.300982
O O1 0.500000 0.649893 0.135059
O O2 0.336174 0.750000 0.145729
O O3 0.260406 0.667516 0.078760
O O4 0.234907 0.648267 0.176841
O O5 0.500000 0.681759 0.026143
O O6 0.733821 0.750000 0.005322
O O7 0.731248 0.623478 0.988448
O O8 0.500000 0.143868 0.204709
O O9 0.750000 0.117706 0.250000
O O10 0.755976 0.188679 0.169627
O O11 0.704418 0.072566 0.163925
O O12 0.500000 0.250000 0.303547
O O13 0.750000 0.250000 0.250000
O O14 0.500000 0.555667 0.643652
O O15 0.713370 0.539116 0.578111
O O16 0.693857 0.464396 0.655311
O O17 0.175961 0.500000 0.500000
O O18 0.000000 0.431616 0.445473
O O19 0.500000 0.905151 0.286972
O O20 0.250000 0.935512 0.250000
#
# Coordination Sequence:
#
# PCOD8297968 Si02
#       7
#    16  16  16   8  16  16  16
#     4   9  18  35  61  89 116 149 188 230 280 339
#     4   8  15  31  56  85 115 147 185 232 284 340
#     4  11  21  36  58  83 111 146 188 232 282 337
#     4  10  18  32  54  80 110 144 182 224 270 324
#     4  11  24  40  56  80 112 149 192 239 293 344
#     4  10  20  35  58  85 111 146 191 239 291 350
#     4  11  24  39  57  81 112 151 192 237 289 343
#
# _framework density 20.007318999999999
#
# number of rings (size 3 to 8) (size 9 to 14) (size 15 to 20)
#    0.000    2.000    0.000    6.231    0.000    5.846 
#    1.385    0.769    0.000    0.923    0.000    0.000 
#    0.000    0.000    0.000    0.000    0.000    0.000 
#
# Total GULP energy -644532.615394 kJ/mol
# GULP energy per Si atom -12394.857988 kJ/mol
# Density = 1.996178 g / cm^3
# Si number density = 20.007319 Si / 1000 Ang^3
#
#
#
# Elastic Constant Matrix: (Units=GPa)
#
#
# Indices 1 2 3 4 5 6 
#
# 1 115.6012 38.7038 40.3151 0.0000 0.0000 0.0000
# 2 38.7038 100.3919 44.9488 0.0000 0.0000 0.0000
# 3 40.3151 44.9488 95.2785 0.0000 0.0000 0.0000
# 4 0.0000 0.0000 0.0000 33.9886 0.0000 0.0000
# 5 0.0000 0.0000 0.0000 0.0000 30.8457 0.0000
# 6 0.0000 0.0000 0.0000 0.0000 0.0000 26.0358
#
#
#
# Elastic Compliance Matrix: (Units=1/GPa)
#
#
# Indices 1 2 3 4 5 6 
#
# 1 0.010678 -0.002654 -0.003266 0.000000 0.000000 0.000000
# 2 -0.002654 0.013288 -0.005146 0.000000 0.000000 0.000000
# 3 -0.003266 -0.005146 0.014305 0.000000 0.000000 0.000000
# 4 0.000000 0.000000 0.000000 0.029422 0.000000 0.000000
# 5 0.000000 0.000000 0.000000 0.000000 0.032419 0.000000
# 6 0.000000 0.000000 0.000000 0.000000 0.000000 0.038409
#
#
# Mechanical properties :
#
#
# Convention : Reuss Voigt Hill
#
# Bulk Modulus (GPa) = 61.96109 62.13410 62.04759
# Shear Modulus (GPa) = 30.11448 30.66094 30.38771
#
# Velocity S-wave (km/s) = 3.88387 3.91895 3.90144
# Velocity P-wave (km/s) = 7.15185 7.18336 7.16762
#
# Compressibility (1/GPa) = 0.01613916
#
# Stress axis : x y z
#
# Youngs Moduli (GPa) = 93.64945 75.25463 69.90548
#
# Poissons Ratio (x) = 0.19976 0.22831
# Poissons Ratio (y) = 0.24858 0.35971
# Poissons Ratio (z) = 0.30586 0.38724
#
# Static dielectric constant tensor:
#      x y z
#    x 3.522670 0.000000 0.000000 
#    y 0.000000 4.078560 0.000000 
#    z 0.000000 0.000000 2.488050 
# 
# 
# High freq. dielectric constant tensor:
#      x y z
#    x 1.766580 0.000000 0.000000 
#    y 0.000000 1.794890 0.000000 
#    z 0.000000 0.000000 1.765450 
# 
# From -- ./inp_files/64493.got.cif
#   From: 2010.03.12/outbox.cif.g09.slc.cpg/sg74_33_cif.got.tgz:64493.got - 2010.04.16 15:46:19.
