data_PCOD8297578
_publ_section_title
;
Structure prediction by ZEFSAII (Michael W. Deem and Ramdas Pophale) SiO2 
 PCOD8297578
Probable space group: I M M A
;
_chemical_formula_sum "Si O2"
_cell_formula_units_Z 96
_cell_length_a 13.916476
_cell_length_b 18.470565
_cell_length_c 21.830787
_cell_angle_alpha 90.000000
_cell_angle_beta 90.000000
_cell_angle_gamma 90.000000
_cell_volume 5611.498455
_symmetry_space_group_name_H-M "I M M A"
_symmetry_group_IT_number 74
_symmetry_cell_setting 'orthorhombic'
loop_
_space_group_symop_operation_xyz
x,y,z
-x,1/2-y,z
x,-y,-z
-x,1/2+y,-z
-x,-y,-z
x,1/2+y,-z
-x,y,z
x,1/2-y,z
1/2+x,1/2+y,1/2+z
1/2-x,-y,1/2+z
1/2+x,1/2-y,1/2-z
1/2-x,y,1/2-z
1/2-x,1/2-y,1/2-z
1/2+x,y,1/2-z
1/2-x,1/2+y,1/2+z
1/2+x,-y,1/2+z
loop_
_atom_site_type_symbol
_atom_site_label
_atom_site_fract_x
_atom_site_fract_y
_atom_site_fract_z
Si Si1 0.606498 0.330984 0.278523
Si Si2 0.207086 0.420916 0.127075
Si Si3 0.885748 0.331343 0.883936
Si Si4 0.109815 0.085623 0.005057
Si Si5 0.613269 0.455781 0.699358
Si Si6 0.892283 0.542138 0.685836
O O1 0.500000 0.335280 0.309126
O O2 0.630474 0.250000 0.256865
O O3 0.688315 0.355091 0.326201
O O4 0.606924 0.381253 0.219335
O O5 0.180278 0.391510 0.060128
O O6 0.139029 0.487220 0.146500
O O7 0.317737 0.449355 0.129757
O O8 0.842376 0.250000 0.881322
O O9 0.851198 0.376386 0.823454
O O10 0.000000 0.328216 0.884561
O O11 0.850758 0.373166 0.944918
O O12 0.000000 0.109045 0.018701
O O13 0.117621 0.000000 0.000000
O O14 0.500000 0.457894 0.704551
O O15 0.650151 0.480274 0.767064
O O16 0.000000 0.522771 0.661914
#
# Coordination Sequence:
#
# PCOD8297578 Si02
#       6
#    16  16  16  16  16  16
#     4   9  17  28  42  64  94 123 149 182 226 273
#     4  11  18  27  46  66  90 123 158 188 229 275
#     4   9  17  28  44  69 100 127 149 180 227 284
#     4  10  18  29  45  68  94 121 148 177 221 282
#     4   9  15  27  46  68  92 119 150 184 228 280
#     4   9  19  31  44  64  90 122 161 199 229 267
#
# _framework density 17.107731000000001
#
# number of rings (size 3 to 8) (size 9 to 14) (size 15 to 20)
#    0.000    2.500    1.667    4.500    0.000    2.000 
#    0.000    1.667    0.000    2.500    0.000    0.000 
#    0.000    1.333    0.000    0.000    0.000    0.000 
#
# Total GULP energy -594738.174299 kJ/mol
# GULP energy per Si atom -12390.378631 kJ/mol
# Density = 1.706879 g / cm^3
# Si number density = 17.107731 Si / 1000 Ang^3
#
#
#
# Elastic Constant Matrix: (Units=GPa)
#
#
# Indices 1 2 3 4 5 6 
#
# 1 54.6373 5.8215 30.7280 0.0000 0.0000 0.0000
# 2 5.8215 101.7549 24.5109 0.0000 0.0000 0.0000
# 3 30.7280 24.5109 49.6666 0.0000 0.0000 0.0000
# 4 0.0000 0.0000 0.0000 15.8609 0.0000 0.0000
# 5 0.0000 0.0000 0.0000 0.0000 16.0226 0.0000
# 6 0.0000 0.0000 0.0000 0.0000 0.0000 7.1494
#
#
#
# Elastic Compliance Matrix: (Units=1/GPa)
#
#
# Indices 1 2 3 4 5 6 
#
# 1 0.028858 0.003007 -0.019338 0.000000 0.000000 0.000000
# 2 0.003007 0.011467 -0.007519 0.000000 0.000000 0.000000
# 3 -0.019338 -0.007519 0.035809 0.000000 0.000000 0.000000
# 4 0.000000 0.000000 0.000000 0.063048 0.000000 0.000000
# 5 0.000000 0.000000 0.000000 0.000000 0.062412 0.000000
# 6 0.000000 0.000000 0.000000 0.000000 0.000000 0.139871
#
#
# Mechanical properties :
#
#
# Convention : Reuss Voigt Hill
#
# Bulk Modulus (GPa) = 35.16993 36.46439 35.81716
# Shear Modulus (GPa) = 12.54253 17.47314 15.00783
#
# Velocity S-wave (km/s) = 2.71061 3.19934 2.96506
# Velocity P-wave (km/s) = 5.51354 5.91680 5.71872
#
# Compressibility (1/GPa) = 0.02843338
#
# Stress axis : x y z
#
# Youngs Moduli (GPa) = 34.65265 87.20839 27.92570
#
# Poissons Ratio (x) = -0.26225 0.54003
# Poissons Ratio (y) = -0.10421 0.20999
# Poissons Ratio (z) = 0.67011 0.65576
#
# Static dielectric constant tensor:
#      x y z
#    x 3.124450 0.000000 0.000000 
#    y 0.000000 3.409910 0.000000 
#    z 0.000000 0.000000 3.022720 
# 
# 
# High freq. dielectric constant tensor:
#      x y z
#    x 1.635260 0.000000 0.000000 
#    y 0.000000 1.653490 0.000000 
#    z 0.000000 0.000000 1.624590 
# 
# From -- ./inp_files/52230.got.cif
#   From: 2010.03.12/outbox.cif.g09.slc.cpg/sg74_27_cif.got.tgz:52230.got - 2010.04.16 15:46:19.
