data_PCOD8297526
_publ_section_title
;
Structure prediction by ZEFSAII (Michael W. Deem and Ramdas Pophale) SiO2 
 PCOD8297526
Probable space group: I M M A
;
_chemical_formula_sum "Si O2"
_cell_formula_units_Z 88
_cell_length_a 9.279042
_cell_length_b 29.051307
_cell_length_c 19.749473
_cell_angle_alpha 90.000000
_cell_angle_beta 90.000000
_cell_angle_gamma 90.000000
_cell_volume 5323.831819
_symmetry_space_group_name_H-M "I M M A"
_symmetry_group_IT_number 74
_symmetry_cell_setting 'orthorhombic'
loop_
_space_group_symop_operation_xyz
x,y,z
-x,1/2-y,z
x,-y,-z
-x,1/2+y,-z
-x,-y,-z
x,1/2+y,-z
-x,y,z
x,1/2-y,z
1/2+x,1/2+y,1/2+z
1/2-x,-y,1/2+z
1/2+x,1/2-y,1/2-z
1/2-x,y,1/2-z
1/2-x,1/2-y,1/2-z
1/2+x,y,1/2-z
1/2-x,1/2+y,1/2+z
1/2+x,-y,1/2+z
loop_
_atom_site_type_symbol
_atom_site_label
_atom_site_fract_x
_atom_site_fract_y
_atom_site_fract_z
Si Si1 0.837951 0.198928 0.051878
Si Si2 0.160527 0.534424 0.187704
Si Si3 0.663782 0.856098 0.314987
Si Si4 0.834428 0.250000 0.180257
Si Si5 0.836290 0.034351 0.560338
Si Si6 0.668497 0.859823 0.050693
O O1 0.830327 0.250000 0.018368
O O2 0.801801 0.204900 0.132720
O O3 0.000000 0.178939 0.042724
O O4 0.723366 0.165799 0.016403
O O5 0.250000 0.513858 0.250000
O O6 0.160401 0.589255 0.190325
O O7 0.233432 0.516834 0.119464
O O8 0.000000 0.514430 0.191285
O O9 0.500000 0.836635 0.315842
O O10 0.750000 0.835980 0.250000
O O11 0.746154 0.841242 0.383470
O O12 0.750000 0.250000 0.250000
O O13 0.000000 0.250000 0.201245
O O14 0.800893 0.086366 0.538312
O O15 0.000000 0.031432 0.586499
O O16 0.805654 0.000000 0.500000
O O17 0.500000 0.849704 0.061469
#
# Coordination Sequence:
#
# PCOD8297526 Si02
#       6
#    16  16  16   8  16  16
#     4   8  17  32  48  69  96 124 150 183 233 282
#     4   9  16  26  42  63  85 112 149 191 231 269
#     4   9  16  26  41  62  89 119 152 191 229 267
#     4   8  16  30  50  74  97 120 149 186 230 278
#     4   9  18  31  45  64  93 125 155 192 234 276
#     4  10  18  28  46  70  93 121 157 194 233 276
#
# _framework density 16.529447999999999
#
# number of rings (size 3 to 8) (size 9 to 14) (size 15 to 20)
#    0.545    2.545    0.000    1.636    0.000    6.545 
#    0.000    0.000    0.000    1.636    0.000    2.545 
#    0.000    0.000    0.000    0.000    0.000    0.000 
#
# Total GULP energy -545259.881126 kJ/mol
# GULP energy per Si atom -12392.270026 kJ/mol
# Density = 1.649183 g / cm^3
# Si number density = 16.529448 Si / 1000 Ang^3
#
#
#
# Elastic Constant Matrix: (Units=GPa)
#
#
# Indices 1 2 3 4 5 6 
#
# 1 138.6637 32.2727 88.5927 0.0000 0.0000 0.0000
# 2 32.2727 33.3752 38.6763 0.0000 0.0000 0.0000
# 3 88.5927 38.6763 127.8104 0.0001 0.0000 -0.0002
# 4 0.0000 0.0000 0.0001 16.0210 0.0000 -0.0001
# 5 0.0000 0.0000 0.0000 0.0000 39.1039 0.0000
# 6 0.0000 0.0000 -0.0002 -0.0001 0.0000 10.7226
#
#
#
# Elastic Compliance Matrix: (Units=1/GPa)
#
#
# Indices 1 2 3 4 5 6 
#
# 1 0.013179 -0.003323 -0.008130 0.000000 0.000000 0.000000
# 2 -0.003323 0.046981 -0.011914 0.000000 0.000000 0.000000
# 3 -0.008130 -0.011914 0.017064 0.000000 0.000000 0.000000
# 4 0.000000 0.000000 0.000000 0.062418 0.000000 0.000000
# 5 0.000000 0.000000 0.000000 0.000000 0.025573 0.000000
# 6 0.000000 0.000000 0.000000 0.000000 0.000000 0.093261
#
#
# Mechanical properties :
#
#
# Convention : Reuss Voigt Hill
#
# Bulk Modulus (GPa) = 32.79488 68.77032 50.78260
# Shear Modulus (GPa) = 15.85422 22.52334 19.18878
#
# Velocity S-wave (km/s) = 3.10037 3.69537 3.41087
# Velocity P-wave (km/s) = 5.71837 7.73969 6.80450
#
# Compressibility (1/GPa) = 0.03049256
#
# Stress axis : x y z
#
# Youngs Moduli (GPa) = 75.87738 21.28505 58.60154
#
# Poissons Ratio (x) = 0.07073 0.47641
# Poissons Ratio (y) = 0.25213 0.69816
# Poissons Ratio (z) = 0.61686 0.25358
#
# Static dielectric constant tensor:
#      x y z
#    x 3.254200 0.000000 0.000000 
#    y 0.000000 2.624530 0.000000 
#    z 0.000000 0.000000 3.079640 
# 
# 
# High freq. dielectric constant tensor:
#      x y z
#    x 1.650560 0.000000 0.000000 
#    y 0.000000 1.579560 0.000000 
#    z 0.000000 0.000000 1.637100 
# 
# From -- ./inp_files/49500.got.cif
#   From: 2010.03.12/outbox.cif.g09.slc.cpg/sg74_25_cif.got.tgz:49500.got - 2010.04.16 15:46:19.
