data_PCOD8297196
_publ_section_title
;
Structure prediction by ZEFSAII (Michael W. Deem and Ramdas Pophale) SiO2 
 PCOD8297196
Probable space group: I M M A
;
_chemical_formula_sum "Si O2"
_cell_formula_units_Z 88
_cell_length_a 8.994359
_cell_length_b 25.525510
_cell_length_c 27.779735
_cell_angle_alpha 90.000000
_cell_angle_beta 90.000000
_cell_angle_gamma 90.000000
_cell_volume 6377.827144
_symmetry_space_group_name_H-M "I M M A"
_symmetry_group_IT_number 74
_symmetry_cell_setting 'orthorhombic'
loop_
_space_group_symop_operation_xyz
x,y,z
-x,1/2-y,z
x,-y,-z
-x,1/2+y,-z
-x,-y,-z
x,1/2+y,-z
-x,y,z
x,1/2-y,z
1/2+x,1/2+y,1/2+z
1/2-x,-y,1/2+z
1/2+x,1/2-y,1/2-z
1/2-x,y,1/2-z
1/2-x,1/2-y,1/2-z
1/2+x,y,1/2-z
1/2-x,1/2+y,1/2+z
1/2+x,-y,1/2+z
loop_
_atom_site_type_symbol
_atom_site_label
_atom_site_fract_x
_atom_site_fract_y
_atom_site_fract_z
Si Si1 0.325853 0.750000 0.301426
Si Si2 0.173336 0.542422 0.300840
Si Si3 0.831695 0.654676 0.347693
Si Si4 0.326556 0.498252 0.388122
Si Si5 0.835068 0.447663 0.468012
Si Si6 0.328915 0.092744 0.936230
O O1 0.500000 0.750000 0.293295
O O2 0.250000 0.750000 0.250000
O O3 0.281871 0.801382 0.330978
O O4 0.250000 0.535230 0.250000
O O5 0.204554 0.600853 0.320142
O O6 0.242187 0.499205 0.337005
O O7 0.000000 0.531271 0.295690
O O8 0.809876 0.646104 0.405451
O O9 0.000000 0.672959 0.336388
O O10 0.500000 0.493462 0.378371
O O11 0.274921 0.449547 0.422156
O O12 0.288217 0.551261 0.416093
O O13 0.823774 0.500000 0.500000
O O14 0.798499 0.400311 0.506194
O O15 0.000000 0.440588 0.446811
O O16 0.500000 0.072068 0.928395
#
# Coordination Sequence:
#
# PCOD8297196 Si02
#       6
#     8  16  16  16  16  16
#     4  12  24  34  44  56  70  90 116 150 191 230
#     4  10  19  30  42  54  69  91 119 151 185 218
#     4   9  18  32  46  57  69  87 114 148 186 227
#     4  10  17  23  34  53  74  94 115 139 169 206
#     4   8  13  23  37  52  71  92 112 135 167 206
#     4   8  15  27  41  54  69  90 112 138 175 214
#
# _framework density 13.797802000000001
#
# number of rings (size 3 to 8) (size 9 to 14) (size 15 to 20)
#    0.000    2.727    0.000    5.727    0.000    8.364 
#    0.000    0.000    0.000    0.000    0.000    0.000 
#    0.000    0.000    0.000    0.000    0.000    0.000 
#
# Total GULP energy -545153.044115 kJ/mol
# GULP energy per Si atom -12389.841912 kJ/mol
# Density = 1.376640 g / cm^3
# Si number density = 13.797802 Si / 1000 Ang^3
#
#
#
# Elastic Constant Matrix: (Units=GPa)
#
#
# Indices 1 2 3 4 5 6 
#
# 1 98.7277 24.1672 60.4100 0.0000 0.0000 0.0000
# 2 24.1672 27.7855 41.6697 0.0000 0.0000 0.0000
# 3 60.4100 41.6697 115.2388 0.0000 0.0000 0.0000
# 4 0.0000 0.0000 0.0000 19.0558 0.0000 0.0000
# 5 0.0000 0.0000 0.0000 0.0000 25.0643 0.0000
# 6 0.0000 0.0000 0.0000 0.0000 0.0000 13.3443
#
#
#
# Elastic Compliance Matrix: (Units=1/GPa)
#
#
# Indices 1 2 3 4 5 6 
#
# 1 0.015007 -0.002741 -0.006876 0.000000 0.000000 0.000000
# 2 -0.002741 0.079130 -0.027176 0.000000 0.000000 0.000000
# 3 -0.006876 -0.027176 0.022109 0.000000 0.000000 0.000000
# 4 0.000000 0.000000 0.000000 0.052478 0.000000 0.000000
# 5 0.000000 0.000000 0.000000 0.000000 0.039897 0.000000
# 6 0.000000 0.000000 0.000000 0.000000 0.000000 0.074938
#
#
# Mechanical properties :
#
#
# Convention : Reuss Voigt Hill
#
# Bulk Modulus (GPa) = 23.44137 54.91622 39.17879
# Shear Modulus (GPa) = 13.46387 19.19321 16.32854
#
# Velocity S-wave (km/s) = 3.12717 3.73370 3.44381
# Velocity P-wave (km/s) = 5.48315 7.64686 6.65355
#
# Compressibility (1/GPa) = 0.04265962
#
# Stress axis : x y z
#
# Youngs Moduli (GPa) = 66.63534 12.63747 45.23131
#
# Poissons Ratio (x) = 0.03464 0.31099
# Poissons Ratio (y) = 0.18268 1.22920
# Poissons Ratio (z) = 0.45816 0.34343
#
# Static dielectric constant tensor:
#      x y z
#    x 2.737260 0.000000 0.000000 
#    y 0.000000 2.390320 0.000000 
#    z 0.000000 0.000000 3.126190 
# 
# 
# High freq. dielectric constant tensor:
#      x y z
#    x 1.533770 0.000000 0.000000 
#    y 0.000000 1.453040 0.000000 
#    z 0.000000 0.000000 1.532520 
# 
# From -- ./inp_files/57760.got.cif
#   From: 2010.03.12/outbox.cif.g09.slc.cpg/sg74_29_cif.got.tgz:57760.got - 2010.04.16 15:46:19.
