data_PCOD8297870
_publ_section_title
;
Structure prediction by ZEFSAII (Michael W. Deem and Ramdas Pophale) SiO2 
 PCOD8297870
Probable space group: I M M A
;
_chemical_formula_sum "Si O2"
_cell_formula_units_Z 112
_cell_length_a 18.911035
_cell_length_b 27.664650
_cell_length_c 11.461636
_cell_angle_alpha 90.000000
_cell_angle_beta 90.000000
_cell_angle_gamma 90.000000
_cell_volume 5996.351606
_symmetry_space_group_name_H-M "I M M A"
_symmetry_group_IT_number 74
_symmetry_cell_setting 'orthorhombic'
loop_
_space_group_symop_operation_xyz
x,y,z
-x,1/2-y,z
x,-y,-z
-x,1/2+y,-z
-x,-y,-z
x,1/2+y,-z
-x,y,z
x,1/2-y,z
1/2+x,1/2+y,1/2+z
1/2-x,-y,1/2+z
1/2+x,1/2-y,1/2-z
1/2-x,y,1/2-z
1/2-x,1/2-y,1/2-z
1/2+x,y,1/2-z
1/2-x,1/2+y,1/2+z
1/2+x,-y,1/2+z
loop_
_atom_site_type_symbol
_atom_site_label
_atom_site_fract_x
_atom_site_fract_y
_atom_site_fract_z
Si Si1 0.661991 0.803933 0.459303
Si Si2 0.082299 0.305187 0.720452
Si Si3 0.212414 0.362734 0.630937
Si Si4 0.146386 0.951921 0.782896
Si Si5 0.419642 0.883736 0.556028
Si Si6 0.077043 0.465101 0.890444
Si Si7 0.220856 0.447350 0.445252
O O1 0.667797 0.750000 0.508717
O O2 0.605750 0.807296 0.354687
O O3 0.740313 0.819779 0.422054
O O4 0.631459 0.837427 0.563224
O O5 0.091228 0.250000 0.674784
O O6 0.133203 0.341518 0.648223
O O7 0.000000 0.321574 0.709061
O O8 0.250000 0.380437 0.750000
O O9 0.208742 0.408219 0.545129
O O10 0.084198 0.916375 0.826798
O O11 0.156032 0.944141 0.645598
O O12 0.210863 0.936878 0.866713
O O13 0.128923 0.009348 0.797955
O O14 0.500000 0.867090 0.541213
O O15 0.393937 0.914170 0.440164
O O16 0.000000 0.457366 0.832371
O O17 0.069252 0.500000 0.000000
O O18 0.227387 0.500000 0.500000
#
# Coordination Sequence:
#
# PCOD8297870 Si02
#       7
#    16  16  16  16  16  16  16
#     4  10  19  32  53  84 115 140 178 236 287 324
#     4   9  18  34  56  82 111 145 184 227 275 328
#     4  10  21  36  57  81 113 147 183 225 278 332
#     4  10  20  34  54  74 113 139 182 228 271 326
#     4  10  18  31  54  81 110 148 185 225 280 331
#     4   8  15  29  51  77 103 138 180 221 265 318
#     4  11  23  35  53  81 106 145 185 224 275 321
#
# _framework density 18.678024000000001
#
# number of rings (size 3 to 8) (size 9 to 14) (size 15 to 20)
#    0.000    2.286    1.429    3.429    2.000    3.714 
#    0.000    1.429    0.000    5.571    0.000    0.000 
#    0.000    0.000    0.000    0.000    0.000    0.000 
#
# Total GULP energy -694007.108255 kJ/mol
# GULP energy per Si atom -12392.984076 kJ/mol
# Density = 1.863551 g / cm^3
# Si number density = 18.678024 Si / 1000 Ang^3
#
#
#
# Elastic Constant Matrix: (Units=GPa)
#
#
# Indices 1 2 3 4 5 6 
#
# 1 87.3941 32.2619 25.8453 0.0000 0.0000 0.0000
# 2 32.2619 110.5151 38.8239 0.0000 0.0000 0.0000
# 3 25.8453 38.8239 70.3378 -0.0002 -0.0001 -0.0001
# 4 0.0000 0.0000 -0.0002 20.0417 0.0000 0.0000
# 5 0.0000 0.0000 -0.0001 0.0000 20.8959 0.0000
# 6 0.0000 0.0000 -0.0001 0.0000 0.0000 23.2066
#
#
#
# Elastic Compliance Matrix: (Units=1/GPa)
#
#
# Indices 1 2 3 4 5 6 
#
# 1 0.013466 -0.002720 -0.003447 0.000000 0.000000 0.000000
# 2 -0.002720 0.011775 -0.005500 0.000000 0.000000 0.000000
# 3 -0.003447 -0.005500 0.018519 0.000000 0.000000 0.000000
# 4 0.000000 0.000000 0.000000 0.049896 0.000000 0.000000
# 5 0.000000 0.000000 0.000000 0.000000 0.047856 0.000000
# 6 0.000000 0.000000 0.000000 0.000000 0.000000 0.043091
#
#
# Mechanical properties :
#
#
# Convention : Reuss Voigt Hill
#
# Bulk Modulus (GPa) = 48.95515 51.34547 50.15031
# Shear Modulus (GPa) = 23.28343 24.24988 23.76666
#
# Velocity S-wave (km/s) = 3.53451 3.60712 3.57100
# Velocity P-wave (km/s) = 6.55163 6.70059 6.62653
#
# Compressibility (1/GPa) = 0.02042686
#
# Stress axis : x y z
#
# Youngs Moduli (GPa) = 74.26189 84.92811 53.99825
#
# Poissons Ratio (x) = 0.23102 0.18611
# Poissons Ratio (y) = 0.20201 0.29697
# Poissons Ratio (z) = 0.25594 0.46708
#
# Static dielectric constant tensor:
#      x y z
#    x 3.585720 0.000000 0.000000 
#    y 0.000000 3.619660 0.000000 
#    z 0.000000 0.000000 3.160240 
# 
# 
# High freq. dielectric constant tensor:
#      x y z
#    x 1.728710 0.000000 0.000000 
#    y 0.000000 1.728120 0.000000 
#    z 0.000000 0.000000 1.676010 
# 
# From -- ./inp_files/24326.got.cif
#   From: 2010.03.12/outbox.cif.g09.slc.cpg/sg74_13_cif.got.tgz:24326.got - 2010.04.16 15:46:19.
