data_PCOD8297733
_publ_section_title
;
Structure prediction by ZEFSAII (Michael W. Deem and Ramdas Pophale) SiO2 
 PCOD8297733
Probable space group: I M M A
;
_chemical_formula_sum "Si O2"
_cell_formula_units_Z 80
_cell_length_a 17.849615
_cell_length_b 20.390757
_cell_length_c 12.653687
_cell_angle_alpha 90.000000
_cell_angle_beta 90.000000
_cell_angle_gamma 90.000000
_cell_volume 4605.526546
_symmetry_space_group_name_H-M "I M M A"
_symmetry_group_IT_number 74
_symmetry_cell_setting 'orthorhombic'
loop_
_space_group_symop_operation_xyz
x,y,z
-x,1/2-y,z
x,-y,-z
-x,1/2+y,-z
-x,-y,-z
x,1/2+y,-z
-x,y,z
x,1/2-y,z
1/2+x,1/2+y,1/2+z
1/2-x,-y,1/2+z
1/2+x,1/2-y,1/2-z
1/2-x,y,1/2-z
1/2-x,1/2-y,1/2-z
1/2+x,y,1/2-z
1/2-x,1/2+y,1/2+z
1/2+x,-y,1/2+z
loop_
_atom_site_type_symbol
_atom_site_label
_atom_site_fract_x
_atom_site_fract_y
_atom_site_fract_z
Si Si1 0.911362 0.822607 0.886438
Si Si2 0.911112 0.569023 0.049097
Si Si3 0.588119 0.907289 0.806920
Si Si4 0.583006 0.575132 0.034519
Si Si5 0.161987 0.455269 0.737093
O O1 0.876684 0.750000 0.902911
O O2 0.889071 0.847800 0.769598
O O3 0.000000 0.819420 0.896303
O O4 0.880499 0.872589 0.974622
O O5 0.875089 0.580444 0.163189
O O6 0.000000 0.570219 0.060072
O O7 0.884129 0.500000 0.000000
O O8 0.500000 0.924817 0.797521
O O9 0.633077 0.970780 0.769605
O O10 0.608063 0.886033 0.927817
O O11 0.500000 0.597553 0.070964
O O12 0.639916 0.585766 0.131514
O O13 0.581174 0.500000 0.000000
O O14 0.250000 0.454799 0.750000
#
# Coordination Sequence:
#
# PCOD8297733 Si02
#       5
#    16  16  16  16  16
#     4   9  17  30  52  79 101 125 161 203 250 302
#     4  10  18  30  50  74 102 132 162 202 252 299
#     4   9  16  31  50  69  97 129 161 201 251 296
#     4   8  15  28  46  65  90 125 160 195 242 294
#     4  11  20  28  44  73 102 132 162 207 246 287
#
# _framework density 17.370435000000001
#
# number of rings (size 3 to 8) (size 9 to 14) (size 15 to 20)
#    0.000    2.600    2.000    3.000    0.000    2.400 
#    0.000    0.000    0.000    2.400    0.000    5.600 
#    0.000    0.000    0.000    0.000    0.000    0.000 
#
# Total GULP energy -495784.439571 kJ/mol
# GULP energy per Si atom -12394.610989 kJ/mol
# Density = 1.733090 g / cm^3
# Si number density = 17.370435 Si / 1000 Ang^3
#
#
#
# Elastic Constant Matrix: (Units=GPa)
#
#
# Indices 1 2 3 4 5 6 
#
# 1 61.1536 21.7213 52.5151 0.0000 0.0000 0.0000
# 2 21.7213 95.6514 67.7252 0.0000 0.0000 0.0000
# 3 52.5151 67.7252 175.4080 0.0000 0.0000 0.0000
# 4 0.0000 0.0000 0.0000 21.7638 0.0000 0.0000
# 5 0.0000 0.0000 0.0000 0.0000 9.3277 0.0000
# 6 0.0000 0.0000 0.0000 0.0000 0.0000 5.2624
#
#
#
# Elastic Compliance Matrix: (Units=1/GPa)
#
#
# Indices 1 2 3 4 5 6 
#
# 1 0.022026 -0.000458 -0.006417 0.000000 0.000000 0.000000
# 2 -0.000458 0.014397 -0.005422 0.000000 0.000000 0.000000
# 3 -0.006417 -0.005422 0.009716 0.000000 0.000000 0.000000
# 4 0.000000 0.000000 0.000000 0.045948 0.000000 0.000000
# 5 0.000000 0.000000 0.000000 0.000000 0.107207 0.000000
# 6 0.000000 0.000000 0.000000 0.000000 0.000000 0.190027
#
#
# Mechanical properties :
#
#
# Convention : Reuss Voigt Hill
#
# Bulk Modulus (GPa) = 46.41537 68.45956 57.43746
# Shear Modulus (GPa) = 11.87375 19.95422 15.91399
#
# Velocity S-wave (km/s) = 2.61734 3.39299 3.03009
# Velocity P-wave (km/s) = 5.99273 7.40587 6.73646
#
# Compressibility (1/GPa) = 0.02154459
#
# Stress axis : x y z
#
# Youngs Moduli (GPa) = 45.40119 69.45666 102.92677
#
# Poissons Ratio (x) = 0.03181 0.66053
# Poissons Ratio (y) = 0.02079 0.55804
# Poissons Ratio (z) = 0.29136 0.37658
#
# Static dielectric constant tensor:
#      x y z
#    x 2.924520 0.000000 0.000000 
#    y 0.000000 3.090290 0.000000 
#    z 0.000000 0.000000 3.781550 
# 
# 
# High freq. dielectric constant tensor:
#      x y z
#    x 1.637670 0.000000 0.000000 
#    y 0.000000 1.620880 0.000000 
#    z 0.000000 0.000000 1.693850 
# 
# From -- ./inp_files/20530.got.cif
#   From: 2010.03.12/outbox.cif.g09.slc.cpg/sg74_11_cif.got.tgz:20530.got - 2010.04.16 15:46:19.
