data_PCOD8297303
_publ_section_title
;
Structure prediction by ZEFSAII (Michael W. Deem and Ramdas Pophale) SiO2 
 PCOD8297303
Probable space group: I M M A
;
_chemical_formula_sum "Si O2"
_cell_formula_units_Z 128
_cell_length_a 18.834921
_cell_length_b 27.717675
_cell_length_c 14.663951
_cell_angle_alpha 90.000000
_cell_angle_beta 90.000000
_cell_angle_gamma 90.000000
_cell_volume 7655.465469
_symmetry_space_group_name_H-M "I M M A"
_symmetry_group_IT_number 74
_symmetry_cell_setting 'orthorhombic'
loop_
_space_group_symop_operation_xyz
x,y,z
-x,1/2-y,z
x,-y,-z
-x,1/2+y,-z
-x,-y,-z
x,1/2+y,-z
-x,y,z
x,1/2-y,z
1/2+x,1/2+y,1/2+z
1/2-x,-y,1/2+z
1/2+x,1/2-y,1/2-z
1/2-x,y,1/2-z
1/2-x,1/2-y,1/2-z
1/2+x,y,1/2-z
1/2-x,1/2+y,1/2+z
1/2+x,-y,1/2+z
loop_
_atom_site_type_symbol
_atom_site_label
_atom_site_fract_x
_atom_site_fract_y
_atom_site_fract_z
Si Si1 0.821978 0.194868 0.194465
Si Si2 0.838582 0.571130 0.565503
Si Si3 0.919656 0.622048 0.715301
Si Si4 0.418009 0.453754 0.695339
Si Si5 0.160582 0.535250 0.373681
Si Si6 0.215870 0.393846 0.837473
Si Si7 0.696372 0.877991 0.537200
Si Si8 0.418569 0.943951 0.613931
O O1 0.842693 0.250000 0.176126
O O2 0.750000 0.189997 0.250000
O O3 0.879557 0.170960 0.260037
O O4 0.821897 0.169519 0.095061
O O5 0.899001 0.600270 0.617897
O O6 0.820463 0.519106 0.604324
O O7 0.865320 0.565886 0.461468
O O8 0.765934 0.599481 0.581190
O O9 0.904384 0.580922 0.789328
O O10 0.000000 0.637864 0.710530
O O11 0.500000 0.437644 0.685687
O O12 0.402885 0.466546 0.800676
O O13 0.366058 0.409388 0.673394
O O14 0.402837 0.499139 0.627729
O O15 0.234011 0.558840 0.339911
O O16 0.250000 0.364189 0.750000
O O17 0.215122 0.363763 0.932023
O O18 0.633066 0.918315 0.540170
O O19 0.500000 0.936469 0.581269
#
# Coordination Sequence:
#
# PCOD8297303 Si02
#       8
#    16  16  16  16  16  16  16  16
#     4  10  20  35  55  78  98 121 154 195 247 302
#     4  10  17  28  45  68  91 131 172 206 236 279
#     4  10  19  31  46  69 100 132 162 196 241 291
#     4  10  18  29  42  61  93 130 166 208 246 276
#     4   9  18  28  43  64  95 129 174 209 238 272
#     4   9  19  33  46  66  91 128 167 205 241 287
#     4  10  19  32  51  69  93 125 159 202 249 297
#     4   9  18  28  42  65  95 128 164 201 242 286
#
# _framework density 16.720081
#
# number of rings (size 3 to 8) (size 9 to 14) (size 15 to 20)
#    0.000    2.375    2.500    0.750    0.000    2.750 
#    0.000    2.500    0.000    0.375    0.000    0.000 
#    0.000    0.000    0.000    0.625    0.000    0.000 
#
# Total GULP energy -793164.612618 kJ/mol
# GULP energy per Si atom -12393.197072 kJ/mol
# Density = 1.668203 g / cm^3
# Si number density = 16.720081 Si / 1000 Ang^3
#
#
#
# Elastic Constant Matrix: (Units=GPa)
#
#
# Indices 1 2 3 4 5 6 
#
# 1 68.7740 15.4609 14.0273 0.0000 0.0000 0.0000
# 2 15.4609 56.1688 20.2660 0.0000 0.0000 0.0000
# 3 14.0273 20.2660 89.0025 -0.0001 0.0000 0.0000
# 4 0.0000 0.0000 -0.0001 16.4746 0.0000 0.0000
# 5 0.0000 0.0000 0.0000 0.0000 19.2797 0.0000
# 6 0.0000 0.0000 0.0000 0.0000 0.0000 11.0989
#
#
#
# Elastic Compliance Matrix: (Units=1/GPa)
#
#
# Indices 1 2 3 4 5 6 
#
# 1 0.015712 -0.003739 -0.001625 0.000000 0.000000 0.000000
# 2 -0.003739 0.020287 -0.004030 0.000000 0.000000 0.000000
# 3 -0.001625 -0.004030 0.012409 0.000000 0.000000 0.000000
# 4 0.000000 0.000000 0.000000 0.060699 0.000000 0.000000
# 5 0.000000 0.000000 0.000000 0.000000 0.051868 0.000000
# 6 0.000000 0.000000 0.000000 0.000000 0.000000 0.090099
#
#
# Mechanical properties :
#
#
# Convention : Reuss Voigt Hill
#
# Bulk Modulus (GPa) = 33.75999 34.82819 34.29409
# Shear Modulus (GPa) = 17.87401 20.31672 19.09536
#
# Velocity S-wave (km/s) = 3.27313 3.48962 3.38311
# Velocity P-wave (km/s) = 5.87534 6.09196 5.98463
#
# Compressibility (1/GPa) = 0.02962086
#
# Stress axis : x y z
#
# Youngs Moduli (GPa) = 63.64443 49.29349 80.58394
#
# Poissons Ratio (x) = 0.18429 0.13095
# Poissons Ratio (y) = 0.23794 0.32476
# Poissons Ratio (z) = 0.10343 0.19866
#
# Static dielectric constant tensor:
#      x y z
#    x 3.142860 0.000000 0.000000 
#    y 0.000000 2.750340 0.000000 
#    z 0.000000 0.000000 3.396160 
# 
# 
# High freq. dielectric constant tensor:
#      x y z
#    x 1.648440 0.000000 0.000000 
#    y 0.000000 1.591640 0.000000 
#    z 0.000000 0.000000 1.654350 
# 
# From -- ./inp_files/44641.got.cif
#   From: 2010.03.12/outbox.cif.g09.slc.cpg/sg74_23_cif.got.tgz:44641.got - 2010.04.16 15:46:19.
