data_PCOD8297434
_publ_section_title
;
Structure prediction by ZEFSAII (Michael W. Deem and Ramdas Pophale) SiO2 
 PCOD8297434
Probable space group: I M M A
;
_chemical_formula_sum "Si O2"
_cell_formula_units_Z 96
_cell_length_a 10.423581
_cell_length_b 26.758107
_cell_length_c 26.985684
_cell_angle_alpha 90.000000
_cell_angle_beta 90.000000
_cell_angle_gamma 90.000000
_cell_volume 7526.720033
_symmetry_space_group_name_H-M "I M M A"
_symmetry_group_IT_number 74
_symmetry_cell_setting 'orthorhombic'
loop_
_space_group_symop_operation_xyz
x,y,z
-x,1/2-y,z
x,-y,-z
-x,1/2+y,-z
-x,-y,-z
x,1/2+y,-z
-x,y,z
x,1/2-y,z
1/2+x,1/2+y,1/2+z
1/2-x,-y,1/2+z
1/2+x,1/2-y,1/2-z
1/2-x,y,1/2-z
1/2-x,1/2-y,1/2-z
1/2+x,y,1/2-z
1/2-x,1/2+y,1/2+z
1/2+x,-y,1/2+z
loop_
_atom_site_type_symbol
_atom_site_label
_atom_site_fract_x
_atom_site_fract_y
_atom_site_fract_z
Si Si1 0.000000 0.807167 0.107611
Si Si2 0.246374 0.067648 0.652100
Si Si3 0.000000 0.694109 0.384460
Si Si4 0.000000 0.110072 0.697396
Si Si5 0.645236 0.504246 0.920143
Si Si6 0.645124 0.580600 0.997230
Si Si7 0.000000 0.107906 0.809831
Si Si8 0.753955 0.847839 0.430141
O O1 0.000000 0.843269 0.155310
O O2 0.123579 0.816237 0.072914
O O3 0.000000 0.750000 0.126589
O O4 0.125462 0.076609 0.687803
O O5 0.377966 0.071840 0.682319
O O6 0.248583 0.108801 0.609862
O O7 0.233180 0.012799 0.626379
O O8 0.124145 0.686760 0.418916
O O9 0.000000 0.750000 0.363365
O O10 0.000000 0.658856 0.336718
O O11 0.000000 0.128454 0.754015
O O12 0.500000 0.512602 0.901259
O O13 0.644375 0.460685 0.960307
O O14 0.697584 0.555349 0.946101
O O15 0.500000 0.599691 0.989082
O O16 0.732411 0.627354 0.014977
#
# Coordination Sequence:
#
# PCOD8297434 Si02
#       8
#     8  16   8   8  16  16   8  16
#     4  10  20  31  39  47  67  97 123 151 196 238
#     4   9  16  27  39  53  70  88 111 142 183 225
#     4  10  18  27  41  55  65  83 119 165 200 222
#     4  10  18  29  41  51  65  89 123 159 196 230
#     4   8  12  20  37  57  73  88 104 126 166 221
#     4   8  12  20  37  58  73  85 104 131 167 214
#     4  10  20  29  39  51  67  91 121 161 198 222
#     4   9  16  27  39  53  70  87 110 143 183 225
#
# _framework density 12.754559
#
# number of rings (size 3 to 8) (size 9 to 14) (size 15 to 20)
#    0.000    3.000    1.667    2.000    0.000    0.333 
#    0.000    0.833    0.000   11.000    0.000    0.000 
#    0.000    0.000    0.000    0.000    0.000    0.000 
#
# Total GULP energy -594710.239734 kJ/mol
# GULP energy per Si atom -12389.796661 kJ/mol
# Density = 1.272553 g / cm^3
# Si number density = 12.754559 Si / 1000 Ang^3
#
#
#
# Elastic Constant Matrix: (Units=GPa)
#
#
# Indices 1 2 3 4 5 6 
#
# 1 97.6460 32.5394 33.1428 0.0000 0.0000 0.0000
# 2 32.5394 45.9411 43.9842 0.0000 0.0000 0.0000
# 3 33.1428 43.9842 48.3618 0.0000 0.0000 0.0000
# 4 0.0000 0.0000 0.0000 13.9822 0.0000 0.0000
# 5 0.0000 0.0000 0.0000 0.0000 8.5910 0.0000
# 6 0.0000 0.0000 0.0000 0.0000 0.0000 11.7017
#
#
#
# Elastic Compliance Matrix: (Units=1/GPa)
#
#
# Indices 1 2 3 4 5 6 
#
# 1 0.013520 -0.005456 -0.004303 0.000000 0.000000 0.000000
# 2 -0.005456 0.170601 -0.151420 0.000000 0.000000 0.000000
# 3 -0.004303 -0.151420 0.161340 0.000000 0.000000 0.000000
# 4 0.000000 0.000000 0.000000 0.071520 0.000000 0.000000
# 5 0.000000 0.000000 0.000000 0.000000 0.116401 0.000000
# 6 0.000000 0.000000 0.000000 0.000000 0.000000 0.085458
#
#
# Mechanical properties :
#
#
# Convention : Reuss Voigt Hill
#
# Bulk Modulus (GPa) = 43.28386 45.69797 44.49092
# Shear Modulus (GPa) = 5.26927 12.34046 8.80487
#
# Velocity S-wave (km/s) = 2.03476 3.11389 2.63027
# Velocity P-wave (km/s) = 6.28729 6.98820 6.64699
#
# Compressibility (1/GPa) = 0.02310330
#
# Stress axis : x y z
#
# Youngs Moduli (GPa) = 73.96568 5.86162 6.19810
#
# Poissons Ratio (x) = 0.03198 0.02667
# Poissons Ratio (y) = 0.40358 0.93851
# Poissons Ratio (z) = 0.31826 0.88756
#
# Static dielectric constant tensor:
#      x y z
#    x 2.822210 0.000000 0.000000 
#    y 0.000000 2.489910 0.000000 
#    z 0.000000 0.000000 2.502820 
# 
# 
# High freq. dielectric constant tensor:
#      x y z
#    x 1.487390 0.000000 0.000000 
#    y 0.000000 1.449700 0.000000 
#    z 0.000000 0.000000 1.451210 
# 
# From -- ./inp_files/66452.got.cif
#   From: 2010.03.12/outbox.cif.g09.slc.cpg/sg74_34_cif.got.tgz:66452.got - 2010.04.16 15:46:19.
