data_PCOD8297543
_publ_section_title
;
Structure prediction by ZEFSAII (Michael W. Deem and Ramdas Pophale) SiO2 
 PCOD8297543
Probable space group: I M M A
;
_chemical_formula_sum "Si O2"
_cell_formula_units_Z 80
_cell_length_a 8.768340
_cell_length_b 25.633980
_cell_length_c 19.531380
_cell_angle_alpha 90.000000
_cell_angle_beta 90.000000
_cell_angle_gamma 90.000000
_cell_volume 4390.018520
_symmetry_space_group_name_H-M "I M M A"
_symmetry_group_IT_number 74
_symmetry_cell_setting 'orthorhombic'
loop_
_space_group_symop_operation_xyz
x,y,z
-x,1/2-y,z
x,-y,-z
-x,1/2+y,-z
-x,-y,-z
x,1/2+y,-z
-x,y,z
x,1/2-y,z
1/2+x,1/2+y,1/2+z
1/2-x,-y,1/2+z
1/2+x,1/2-y,1/2-z
1/2-x,y,1/2-z
1/2-x,1/2-y,1/2-z
1/2+x,y,1/2-z
1/2-x,1/2+y,1/2+z
1/2+x,-y,1/2+z
loop_
_atom_site_type_symbol
_atom_site_label
_atom_site_fract_x
_atom_site_fract_y
_atom_site_fract_z
Si Si1 0.175930 0.750000 0.076587
Si Si2 0.827579 0.250000 0.435634
Si Si3 0.673739 0.136772 0.080594
Si Si4 0.818588 0.947103 0.323040
Si Si5 0.178068 0.855663 0.421712
Si Si6 0.679212 0.443459 0.322154
O O1 0.246534 0.802915 0.107969
O O2 0.000000 0.750000 0.093965
O O3 0.204448 0.750000 0.995539
O O4 0.807498 0.196755 0.392091
O O5 0.000000 0.250000 0.468103
O O6 0.500000 0.117452 0.091327
O O7 0.788505 0.100748 0.122091
O O8 0.720333 0.134436 0.000894
O O9 0.750000 0.931272 0.250000
O O10 0.762851 0.904658 0.378024
O O11 0.000000 0.950713 0.317920
O O12 0.753610 0.002662 0.347503
O O13 0.000000 0.848441 0.412527
O O14 0.500000 0.451173 0.313179
O O15 0.750000 0.425764 0.250000
#
# Coordination Sequence:
#
# PCOD8297543 Si02
#       6
#     8   8  16  16  16  16
#     4  10  18  28  49  78 107 134 166 210 254 294
#     4   8  16  32  53  74 103 140 170 200 250 308
#     4   9  17  33  55  78 102 132 171 210 247 297
#     4  10  20  36  56  76 100 135 173 211 255 304
#     4   9  19  35  55  76 103 138 172 205 251 308
#     4  11  22  36  53  74 102 136 170 209 256 306
#
# _framework density 18.223158000000002
#
# number of rings (size 3 to 8) (size 9 to 14) (size 15 to 20)
#    0.000    2.400    0.000    5.700    0.000    5.600 
#    0.000    5.000    0.000    0.000    0.000    0.000 
#    0.000    0.000    0.000    0.000    0.000    0.000 
#
# Total GULP energy -495899.665135 kJ/mol
# GULP energy per Si atom -12397.491628 kJ/mol
# Density = 1.818168 g / cm^3
# Si number density = 18.223158 Si / 1000 Ang^3
#
#
#
# Elastic Constant Matrix: (Units=GPa)
#
#
# Indices 1 2 3 4 5 6 
#
# 1 82.9813 52.9450 33.3147 0.0000 0.0000 0.0000
# 2 52.9450 156.9041 73.2487 0.0000 0.0000 0.0000
# 3 33.3147 73.2487 66.7014 -0.0003 0.0000 0.0000
# 4 0.0000 0.0000 -0.0003 8.9634 0.0000 0.0000
# 5 0.0000 0.0000 0.0000 0.0000 26.0027 0.0000
# 6 0.0000 0.0000 0.0000 0.0000 0.0000 30.1498
#
#
#
# Elastic Compliance Matrix: (Units=1/GPa)
#
#
# Indices 1 2 3 4 5 6 
#
# 1 0.015913 -0.003405 -0.004209 0.000000 0.000000 0.000000
# 2 -0.003405 0.013806 -0.013461 -0.000001 0.000000 0.000000
# 3 -0.004209 -0.013461 0.031877 0.000001 0.000000 0.000000
# 4 0.000000 -0.000001 0.000001 0.111565 0.000000 0.000000
# 5 0.000000 0.000000 0.000000 0.000000 0.038457 0.000000
# 6 0.000000 0.000000 0.000000 0.000000 0.000000 0.033168
#
#
# Mechanical properties :
#
#
# Convention : Reuss Voigt Hill
#
# Bulk Modulus (GPa) = 51.42285 69.51152 60.46718
# Shear Modulus (GPa) = 17.04053 22.82840 19.93447
#
# Velocity S-wave (km/s) = 3.06126 3.54321 3.31102
# Velocity P-wave (km/s) = 6.38551 7.41394 6.91886
#
# Compressibility (1/GPa) = 0.01944661
#
# Stress axis : x y z
#
# Youngs Moduli (GPa) = 62.84159 72.43105 31.37091
#
# Poissons Ratio (x) = 0.24660 0.13204
# Poissons Ratio (y) = 0.21395 0.42228
# Poissons Ratio (z) = 0.26450 0.97499
#
# Static dielectric constant tensor:
#      x y z
#    x 3.273310 0.000000 0.000000 
#    y 0.000000 3.696100 0.000000 
#    z 0.000000 0.000000 3.124200 
# 
# 
# High freq. dielectric constant tensor:
#      x y z
#    x 1.706790 0.000000 0.000000 
#    y 0.000000 1.723490 0.000000 
#    z 0.000000 0.000000 1.672180 
# 
# From -- ./inp_files/46525.got.cif
#   From: 2010.03.12/outbox.cif.g09.slc.cpg/sg74_24_cif.got.tgz:46525.got - 2010.04.16 15:46:19.
