data_PCOD8297245
_publ_section_title
;
Structure prediction by ZEFSAII (Michael W. Deem and Ramdas Pophale) SiO2 
 PCOD8297245
Probable space group: I M M A
;
_chemical_formula_sum "Si O2"
_cell_formula_units_Z 88
_cell_length_a 28.673311
_cell_length_b 9.692793
_cell_length_c 19.993464
_cell_angle_alpha 90.000000
_cell_angle_beta 90.000000
_cell_angle_gamma 90.000000
_cell_volume 5556.672849
_symmetry_space_group_name_H-M "I M M A"
_symmetry_group_IT_number 74
_symmetry_cell_setting 'orthorhombic'
loop_
_space_group_symop_operation_xyz
x,y,z
-x,1/2-y,z
x,-y,-z
-x,1/2+y,-z
-x,-y,-z
x,1/2+y,-z
-x,y,z
x,1/2-y,z
1/2+x,1/2+y,1/2+z
1/2-x,-y,1/2+z
1/2+x,1/2-y,1/2-z
1/2-x,y,1/2-z
1/2-x,1/2-y,1/2-z
1/2+x,y,1/2-z
1/2-x,1/2+y,1/2+z
1/2+x,-y,1/2+z
loop_
_atom_site_type_symbol
_atom_site_label
_atom_site_fract_x
_atom_site_fract_y
_atom_site_fract_z
Si Si1 0.296927 0.411046 0.208676
Si Si2 0.449293 0.409410 0.631217
Si Si3 0.823847 0.101506 0.087408
Si Si4 0.098903 0.000000 0.000000
Si Si5 0.220807 0.096155 0.442996
Si Si6 0.643095 0.084799 0.699385
O O1 0.309943 0.250000 0.215535
O O2 0.250000 0.444269 0.250000
O O3 0.290662 0.454778 0.131766
O O4 0.339224 0.507701 0.234293
O O5 0.500000 0.482184 0.643127
O O6 0.455557 0.250000 0.644315
O O7 0.433724 0.428434 0.554647
O O8 0.410429 0.461918 0.684179
O O9 0.823650 0.250000 0.126721
O O10 0.867034 0.109266 0.036023
O O11 0.776318 0.090745 0.046179
O O12 0.826405 0.972526 0.137641
O O13 0.201272 0.250000 0.454007
O O14 0.197425 0.000000 0.500000
O O15 0.649141 0.250000 0.704708
#
# Coordination Sequence:
#
# PCOD8297245 Si02
#       6
#    16  16  16   8  16  16
#     4  10  19  34  51  67  92 127 161 194 241 292
#     4   9  18  31  44  62  91 123 157 199 246 286
#     4  10  18  29  43  62  91 124 158 196 235 277
#     4  10  17  26  44  66  86 122 170 206 231 266
#     4  10  20  32  46  66  94 128 158 193 235 280
#     4  10  20  31  47  69  88 116 159 203 238 273
#
# _framework density 15.836816000000001
#
# number of rings (size 3 to 8) (size 9 to 14) (size 15 to 20)
#    0.000    2.182    2.727    1.364    0.000    2.545 
#    0.000    0.000    0.000   10.909    0.000    0.000 
#    0.000    0.727    0.000    1.636    0.000    2.545 
#
# Total GULP energy -545152.612735 kJ/mol
# GULP energy per Si atom -12389.832108 kJ/mol
# Density = 1.580077 g / cm^3
# Si number density = 15.836816 Si / 1000 Ang^3
#
#
#
# Elastic Constant Matrix: (Units=GPa)
#
#
# Indices 1 2 3 4 5 6 
#
# 1 71.6601 29.0218 41.3341 0.0000 0.0000 0.0000
# 2 29.0218 72.2497 48.1222 0.0000 0.0000 0.0000
# 3 41.3341 48.1222 112.4935 0.0000 0.0000 0.0000
# 4 0.0000 0.0000 0.0000 27.8229 0.0000 0.0000
# 5 0.0000 0.0000 0.0000 0.0000 2043.3857 0.0000
# 6 0.0000 0.0000 0.0000 0.0000 0.0000 14.9833
#
#
#
# Elastic Compliance Matrix: (Units=1/GPa)
#
#
# Indices 1 2 3 4 5 6 
#
# 1 0.018524 -0.004066 -0.005067 0.000000 0.000000 0.000000
# 2 -0.004066 0.020248 -0.007168 0.000000 0.000000 0.000000
# 3 -0.005067 -0.007168 0.013817 0.000000 0.000000 0.000000
# 4 0.000000 0.000000 0.000000 0.035942 0.000000 0.000000
# 5 0.000000 0.000000 0.000000 0.000000 0.000489 0.000000
# 6 0.000000 0.000000 0.000000 0.000000 0.000000 0.066741
#
#
# Mechanical properties :
#
#
# Convention : Reuss Voigt Hill
#
# Bulk Modulus (GPa) = 50.02951 54.81772 52.42362
# Shear Modulus (GPa) = 25.63758 426.43340 226.03549
#
# Velocity S-wave (km/s) = 4.02787 16.42716 11.95984
# Velocity P-wave (km/s) = 7.30006 19.86181 14.96299
#
# Compressibility (1/GPa) = 0.01998820
#
# Stress axis : x y z
#
# Youngs Moduli (GPa) = 53.98341 49.38694 72.37231
#
# Poissons Ratio (x) = 0.20081 0.36672
# Poissons Ratio (y) = 0.21950 0.51875
# Poissons Ratio (z) = 0.27354 0.35399
#
# Static dielectric constant tensor:
#      x y z
#    x 3.247160 0.000000 0.000000 
#    y 0.000000 3.049860 0.000000 
#    z 0.000000 0.000000 2.970120 
# 
# 
# High freq. dielectric constant tensor:
#      x y z
#    x 1.579590 0.000000 0.000000 
#    y 0.000000 1.607230 0.000000 
#    z 0.000000 0.000000 1.590310 
# 
# From -- ./inp_files/55544.got.cif
#   From: 2010.03.12/outbox.cif.g09.slc.cpg/sg74_28_cif.got.tgz:55544.got - 2010.04.16 15:46:19.
