data_PCOD8297741
_publ_section_title
;
Structure prediction by ZEFSAII (Michael W. Deem and Ramdas Pophale) SiO2 
 PCOD8297741
Probable space group: I M M A
;
_chemical_formula_sum "Si O2"
_cell_formula_units_Z 56
_cell_length_a 17.328313
_cell_length_b 8.903219
_cell_length_c 18.241234
_cell_angle_alpha 90.000000
_cell_angle_beta 90.000000
_cell_angle_gamma 90.000000
_cell_volume 2814.216822
_symmetry_space_group_name_H-M "I M M A"
_symmetry_group_IT_number 74
_symmetry_cell_setting 'orthorhombic'
loop_
_space_group_symop_operation_xyz
x,y,z
-x,1/2-y,z
x,-y,-z
-x,1/2+y,-z
-x,-y,-z
x,1/2+y,-z
-x,y,z
x,1/2-y,z
1/2+x,1/2+y,1/2+z
1/2-x,-y,1/2+z
1/2+x,1/2-y,1/2-z
1/2-x,y,1/2-z
1/2-x,1/2-y,1/2-z
1/2+x,y,1/2-z
1/2-x,1/2+y,1/2+z
1/2+x,-y,1/2+z
loop_
_atom_site_type_symbol
_atom_site_label
_atom_site_fract_x
_atom_site_fract_y
_atom_site_fract_z
Si Si1 0.910490 0.425766 0.923046
Si Si2 0.000000 0.928049 0.418537
Si Si3 0.289644 0.580183 0.677329
Si Si4 0.854416 0.581212 0.575035
O O1 0.894972 0.250000 0.930647
O O2 0.862132 0.487120 0.853615
O O3 0.000000 0.461814 0.906952
O O4 0.884653 0.500000 0.000000
O O5 0.000000 0.750000 0.417598
O O6 0.000000 0.000000 0.500000
O O7 0.077918 0.991648 0.380500
O O8 0.317946 0.750000 0.694860
O O9 0.250000 0.508373 0.750000
O O10 0.224640 0.580256 0.616903
O O11 0.835607 0.500000 0.500000
O O12 0.883555 0.750000 0.559991
#
# Coordination Sequence:
#
# PCOD8297741 Si02
#       4
#    16   8  16  16
#     4  10  21  38  62  90 118 151 195 245 295 346
#     4  10  18  30  50  76 104 134 173 216 263 316
#     4  10  22  39  57  82 115 152 192 233 286 347
#     4  10  19  33  54  78 107 140 182 228 273 325
#
# _framework density 19.898965
#
# number of rings (size 3 to 8) (size 9 to 14) (size 15 to 20)
#    0.000    2.000    0.000    5.571    0.000    6.857 
#    2.571    0.000    0.000    0.000    0.000    0.000 
#    0.000    0.000    0.000    0.000    0.000    0.000 
#
# Total GULP energy -347056.542267 kJ/mol
# GULP energy per Si atom -12394.876510 kJ/mol
# Density = 1.985367 g / cm^3
# Si number density = 19.898965 Si / 1000 Ang^3
#
#
#
# Elastic Constant Matrix: (Units=GPa)
#
#
# Indices 1 2 3 4 5 6 
#
# 1 95.9871 55.8803 45.5678 0.0000 0.0000 0.0000
# 2 55.8803 145.0389 44.7815 0.0000 0.0000 0.0000
# 3 45.5678 44.7815 98.2531 0.0000 0.0000 0.0000
# 4 0.0000 0.0000 0.0000 24.9999 0.0000 0.0000
# 5 0.0000 0.0000 0.0000 0.0000 26.4459 0.0000
# 6 0.0000 0.0000 0.0000 0.0000 0.0000 45.6345
#
#
#
# Elastic Compliance Matrix: (Units=1/GPa)
#
#
# Indices 1 2 3 4 5 6 
#
# 1 0.015394 -0.004337 -0.005163 0.000000 0.000000 0.000000
# 2 -0.004337 0.009246 -0.002203 0.000000 0.000000 0.000000
# 3 -0.005163 -0.002203 0.013576 0.000000 0.000000 0.000000
# 4 0.000000 0.000000 0.000000 0.040000 0.000000 0.000000
# 5 0.000000 0.000000 0.000000 0.000000 0.037813 0.000000
# 6 0.000000 0.000000 0.000000 0.000000 0.000000 0.021913
#
#
# Mechanical properties :
#
#
# Convention : Reuss Voigt Hill
#
# Bulk Modulus (GPa) = 67.51671 70.19315 68.85493
# Shear Modulus (GPa) = 30.06922 32.28603 31.17763
#
# Velocity S-wave (km/s) = 3.89150 4.03239 3.96257
# Velocity P-wave (km/s) = 7.36173 7.55193 7.45744
#
# Compressibility (1/GPa) = 0.01481115
#
# Stress axis : x y z
#
# Youngs Moduli (GPa) = 64.96176 108.15879 73.65929
#
# Poissons Ratio (x) = 0.46907 0.38028
# Poissons Ratio (y) = 0.28173 0.16224
# Poissons Ratio (z) = 0.33537 0.23823
#
# Static dielectric constant tensor:
#      x y z
#    x 4.160430 0.000000 0.000000 
#    y 0.000000 3.876890 0.000000 
#    z 0.000000 0.000000 3.497120 
# 
# 
# High freq. dielectric constant tensor:
#      x y z
#    x 1.794180 0.000000 0.000000 
#    y 0.000000 1.783580 0.000000 
#    z 0.000000 0.000000 1.745070 
# 
# From -- ./inp_files/38836.got.cif
#   From: 2010.03.12/outbox.cif.g09.slc.cpg/sg74_20_cif.got.tgz:38836.got - 2010.04.16 15:46:19.
