data_PCOD8297009
_publ_section_title
;
Structure prediction by ZEFSAII (Michael W. Deem and Ramdas Pophale) SiO2 
 PCOD8297009
Probable space group: I B C A 
;
_chemical_formula_sum "Si O2"
_cell_formula_units_Z 64
_cell_length_a 9.070361
_cell_length_b 18.031104
_cell_length_c 17.788993
_cell_angle_alpha 90.000000
_cell_angle_beta 90.000000
_cell_angle_gamma 90.000000
_cell_volume 2909.365301
_symmetry_space_group_name_H-M "I B C A "
_symmetry_group_IT_number 73
_symmetry_cell_setting 'orthorhombic'
loop_
_space_group_symop_operation_xyz
x,y,z
-x,1/2-y,z
x,-y,1/2-z
1/2-x,y,-z
-x,-y,-z
x,1/2+y,-z
-x,y,1/2+z
1/2+x,-y,z
1/2+x,1/2+y,1/2+z
1/2-x,-y,1/2+z
1/2+x,1/2-y,-z
-x,1/2+y,1/2-z
1/2-x,1/2-y,1/2-z
1/2+x,y,1/2-z
1/2-x,1/2+y,z
x,1/2-y,1/2+z
loop_
_atom_site_type_symbol
_atom_site_label
_atom_site_fract_x
_atom_site_fract_y
_atom_site_fract_z
Si Si1 0.292659 0.572569 0.203656
Si Si2 0.402567 0.060067 0.957772
Si Si3 0.087231 0.823235 0.027350
Si Si4 0.995783 0.661236 0.186563
O O1 0.241019 0.500000 0.250000
O O2 0.372429 0.541424 0.128807
O O3 0.158556 0.626424 0.182868
O O4 0.410047 0.623028 0.246020
O O5 0.250000 0.070953 0.000000
O O6 0.499880 0.134229 0.962138
O O7 0.500000 0.000000 0.000000
O O8 0.000000 0.750000 0.044905
O O9 0.086856 0.862907 0.109002
O O10 0.250000 0.806572 0.000000
O O11 0.000000 0.750000 0.200390
#
# Coordination Sequence:
#
# PCOD8297009 Si02
#       4
#    16  16  16  16
#     4  12  27  46  73 106 148 192 245 305 368 444
#     4  12  26  46  72 103 143 191 244 300 363 437
#     4  11  25  46  74 106 146 192 244 302 365 436
#     4  11  26  47  72 107 146 191 246 298 372 444
#
# _framework density 21.997924999999999
#
# number of rings (size 3 to 8) (size 9 to 14) (size 15 to 20)
#    0.000    0.500    2.500    4.500   10.500    1.000 
#    0.000    0.000    0.000    0.000    0.000    0.000 
#    0.000    0.000    0.000    0.000    0.000    0.000 
#
# Total GULP energy -396810.362922 kJ/mol
# GULP energy per Si atom -12400.323841 kJ/mol
# Density = 2.194786 g / cm^3
# Si number density = 21.997925 Si / 1000 Ang^3
#
#
#
# Elastic Constant Matrix: (Units=GPa)
#
#
# Indices 1 2 3 4 5 6 
#
# 1 159.9709 38.6948 62.4859 0.0000 0.0000 0.0000
# 2 38.6948 109.4751 43.8774 0.0000 0.0000 0.0000
# 3 62.4859 43.8774 161.6888 0.0000 0.0000 0.0000
# 4 0.0000 0.0000 0.0000 30.7692 0.0000 0.0000
# 5 0.0000 0.0000 0.0000 0.0000 11.6163 0.0000
# 6 0.0000 0.0000 0.0000 0.0000 0.0000 37.3011
#
#
#
# Elastic Compliance Matrix: (Units=1/GPa)
#
#
# Indices 1 2 3 4 5 6 
#
# 1 0.007635 -0.001701 -0.002489 0.000000 0.000000 0.000000
# 2 -0.001701 0.010628 -0.002227 0.000000 0.000000 0.000000
# 3 -0.002489 -0.002227 0.007751 0.000000 0.000000 0.000000
# 4 0.000000 0.000000 0.000000 0.032500 0.000000 0.000000
# 5 0.000000 0.000000 0.000000 0.000000 0.086086 0.000000
# 6 0.000000 0.000000 0.000000 0.000000 0.000000 0.026809
#
#
# Mechanical properties :
#
#
# Convention : Reuss Voigt Hill
#
# Bulk Modulus (GPa) = 75.87020 80.13900 78.00460
# Shear Modulus (GPa) = 26.50608 35.00909 30.75759
#
# Velocity S-wave (km/s) = 3.47498 3.99365 3.74331
# Velocity P-wave (km/s) = 7.11795 7.60099 7.36343
#
# Compressibility (1/GPa) = 0.01318040
#
# Stress axis : x y z
#
# Youngs Moduli (GPa) = 130.97956 94.08897 129.01776
#
# Poissons Ratio (x) = 0.16005 0.32111
# Poissons Ratio (y) = 0.22280 0.28730
# Poissons Ratio (z) = 0.32600 0.20952
#
# Static dielectric constant tensor:
#      x y z
#    x 4.217100 0.000000 0.000000 
#    y 0.000000 4.105870 0.000000 
#    z 0.000000 0.000000 5.432890 
# 
# 
# High freq. dielectric constant tensor:
#      x y z
#    x 1.876060 0.000000 0.000000 
#    y 0.000000 1.877060 0.000000 
#    z 0.000000 0.000000 1.880750 
# 
# From -- ./inp_files/5957.got.cif
#   From: 2010.03.12/outbox.cif.g09.slc.cpg/sg73_3_cif.got.tgz:5957.got - 2010.04.16 15:25:48.
