data_PCOD8297300
_publ_section_title
;
Structure prediction by ZEFSAII (Michael W. Deem and Ramdas Pophale) SiO2 
 PCOD8297300
Probable space group: I M M A
;
_chemical_formula_sum "Si O2"
_cell_formula_units_Z 96
_cell_length_a 9.170115
_cell_length_b 28.084267
_cell_length_c 26.593826
_cell_angle_alpha 90.000000
_cell_angle_beta 90.000000
_cell_angle_gamma 90.000000
_cell_volume 6848.866458
_symmetry_space_group_name_H-M "I M M A"
_symmetry_group_IT_number 74
_symmetry_cell_setting 'orthorhombic'
loop_
_space_group_symop_operation_xyz
x,y,z
-x,1/2-y,z
x,-y,-z
-x,1/2+y,-z
-x,-y,-z
x,1/2+y,-z
-x,y,z
x,1/2-y,z
1/2+x,1/2+y,1/2+z
1/2-x,-y,1/2+z
1/2+x,1/2-y,1/2-z
1/2-x,y,1/2-z
1/2-x,1/2-y,1/2-z
1/2+x,y,1/2-z
1/2-x,1/2+y,1/2+z
1/2+x,-y,1/2+z
loop_
_atom_site_type_symbol
_atom_site_label
_atom_site_fract_x
_atom_site_fract_y
_atom_site_fract_z
Si Si1 0.831046 0.804099 0.541178
Si Si2 0.166402 0.303204 0.143972
Si Si3 0.330928 0.047465 0.398249
Si Si4 0.830564 0.895767 0.800187
Si Si5 0.664625 0.968911 0.049961
Si Si6 0.330051 0.390603 0.496172
O O1 0.808085 0.750000 0.522446
O O2 0.772925 0.810175 0.597450
O O3 0.742721 0.838467 0.503779
O O4 0.000000 0.818643 0.540911
O O5 0.181853 0.250000 0.166540
O O6 0.208694 0.340879 0.187008
O O7 0.000000 0.312891 0.125409
O O8 0.500000 0.033223 0.397928
O O9 0.280073 0.070825 0.346086
O O10 0.300358 0.085397 0.442223
O O11 0.238651 0.999337 0.405618
O O12 0.750000 0.912063 0.750000
O O13 0.000000 0.902003 0.790099
O O14 0.500000 0.955725 0.065587
O O15 0.755999 0.920923 0.040704
O O16 0.667567 0.000000 0.000000
O O17 0.500000 0.386018 0.508227
#
# Coordination Sequence:
#
# PCOD8297300 Si02
#       6
#    16  16  16  16  16  16
#     4  10  19  28  40  60  83 105 132 168 206 241
#     4   9  17  31  46  56  71  99 134 170 211 257
#     4   9  17  30  43  57  78 102 130 163 201 246
#     4  10  20  32  43  59  77 101 134 171 212 252
#     4   9  17  27  41  63  83  99 123 157 199 240
#     4  10  17  28  45  61  79 105 132 160 197 241
#
# _framework density 14.016918
#
# number of rings (size 3 to 8) (size 9 to 14) (size 15 to 20)
#    0.000    2.500    1.667    1.500    0.000    5.333 
#    0.000    0.000    0.000    0.000    0.000    0.000 
#    0.000    0.000    0.000    0.000    0.000    0.833 
#
# Total GULP energy -595187.472899 kJ/mol
# GULP energy per Si atom -12399.739019 kJ/mol
# Density = 1.398501 g / cm^3
# Si number density = 14.016918 Si / 1000 Ang^3
#
#
#
# Elastic Constant Matrix: (Units=GPa)
#
#
# Indices 1 2 3 4 5 6 
#
# 1 89.8977 55.0342 33.9708 0.0000 0.0000 0.0000
# 2 55.0342 82.3482 47.9711 0.0000 0.0000 0.0000
# 3 33.9708 47.9711 55.5503 0.0000 0.0000 0.0000
# 4 0.0000 0.0000 0.0000 18.1860 0.0000 0.0000
# 5 0.0000 0.0000 0.0000 0.0000 20.1595 0.0000
# 6 0.0000 0.0000 0.0000 0.0000 0.0000 25.1249
#
#
#
# Elastic Compliance Matrix: (Units=1/GPa)
#
#
# Indices 1 2 3 4 5 6 
#
# 1 0.018873 -0.011852 -0.001307 0.000000 0.000000 0.000000
# 2 -0.011852 0.031879 -0.020282 0.000000 0.000000 0.000000
# 3 -0.001307 -0.020282 0.036316 0.000000 0.000000 0.000000
# 4 0.000000 0.000000 0.000000 0.054987 0.000000 0.000000
# 5 0.000000 0.000000 0.000000 0.000000 0.049604 0.000000
# 6 0.000000 0.000000 0.000000 0.000000 0.000000 0.039801
#
#
# Mechanical properties :
#
#
# Convention : Reuss Voigt Hill
#
# Bulk Modulus (GPa) = 49.53709 55.74982 52.64345
# Shear Modulus (GPa) = 16.38963 18.74876 17.56919
#
# Velocity S-wave (km/s) = 3.42318 3.66126 3.54422
# Velocity P-wave (km/s) = 7.14436 7.59820 7.37477
#
# Compressibility (1/GPa) = 0.02018690
#
# Stress axis : x y z
#
# Youngs Moduli (GPa) = 52.98547 31.36824 27.53641
#
# Poissons Ratio (x) = 0.37177 0.03598
# Poissons Ratio (y) = 0.62798 0.55849
# Poissons Ratio (z) = 0.06923 0.63621
#
# Static dielectric constant tensor:
#      x y z
#    x 2.861640 0.000000 0.000000 
#    y 0.000000 2.857820 0.000000 
#    z 0.000000 0.000000 2.390910 
# 
# 
# High freq. dielectric constant tensor:
#      x y z
#    x 1.548030 0.000000 0.000000 
#    y 0.000000 1.528900 0.000000 
#    z 0.000000 0.000000 1.480130 
# 
# From -- ./inp_files/57500.got.cif
#   From: 2010.03.12/outbox.cif.g09.slc.cpg/sg74_29_cif.got.tgz:57500.got - 2010.04.16 15:46:19.
