data_PCOD8297358
_publ_section_title
;
Structure prediction by ZEFSAII (Michael W. Deem and Ramdas Pophale) SiO2 
 PCOD8297358
Probable space group: I M M A
;
_chemical_formula_sum "Si O2"
_cell_formula_units_Z 96
_cell_length_a 19.489831
_cell_length_b 17.930013
_cell_length_c 17.494934
_cell_angle_alpha 90.000000
_cell_angle_beta 90.000000
_cell_angle_gamma 90.000000
_cell_volume 6113.655827
_symmetry_space_group_name_H-M "I M M A"
_symmetry_group_IT_number 74
_symmetry_cell_setting 'orthorhombic'
loop_
_space_group_symop_operation_xyz
x,y,z
-x,1/2-y,z
x,-y,-z
-x,1/2+y,-z
-x,-y,-z
x,1/2+y,-z
-x,y,z
x,1/2-y,z
1/2+x,1/2+y,1/2+z
1/2-x,-y,1/2+z
1/2+x,1/2-y,1/2-z
1/2-x,y,1/2-z
1/2-x,1/2-y,1/2-z
1/2+x,y,1/2-z
1/2-x,1/2+y,1/2+z
1/2+x,-y,1/2+z
loop_
_atom_site_type_symbol
_atom_site_label
_atom_site_fract_x
_atom_site_fract_y
_atom_site_fract_z
Si Si1 0.756585 0.543228 0.428571
Si Si2 0.574277 0.336908 0.690970
Si Si3 0.813218 0.557137 0.801552
Si Si4 0.921022 0.163405 0.122694
Si Si5 0.352911 0.337027 0.538230
Si Si6 0.824068 0.583011 0.285630
O O1 0.789772 0.500000 0.500000
O O2 0.713072 0.484410 0.378013
O O3 0.713595 0.611113 0.465022
O O4 0.817518 0.578160 0.377293
O O5 0.500000 0.374914 0.702362
O O6 0.565184 0.250000 0.684475
O O7 0.606191 0.366220 0.612160
O O8 0.621750 0.353949 0.763852
O O9 0.750000 0.590398 0.750000
O O10 0.868898 0.619864 0.821601
O O11 0.850672 0.495257 0.749094
O O12 0.913630 0.250000 0.143701
O O13 0.000000 0.137055 0.134344
O O14 0.900798 0.149314 0.034883
O O15 0.331089 0.250000 0.544528
O O16 0.750000 0.603469 0.250000
#
# Coordination Sequence:
#
# PCOD8297358 Si02
#       6
#    16  16  16  16  16  16
#     4  10  17  31  49  67  93 123 155 196 232 272
#     4  10  19  30  45  68 100 131 156 186 226 273
#     4   9  18  32  47  67  92 121 159 197 232 267
#     4  10  20  32  46  68  98 128 157 189 227 276
#     4  10  18  29  45  69 100 131 155 178 218 279
#     4   9  18  31  46  69  91 121 159 197 228 270
#
# _framework density 15.702552000000001
#
# number of rings (size 3 to 8) (size 9 to 14) (size 15 to 20)
#    0.000    2.667    5.000    0.500    0.000    4.000 
#    0.000    0.833    0.000    0.500    0.000    0.000 
#    0.000   10.667    0.000    0.000    0.000    0.000 
#
# Total GULP energy -594803.061102 kJ/mol
# GULP energy per Si atom -12391.730440 kJ/mol
# Density = 1.566681 g / cm^3
# Si number density = 15.702552 Si / 1000 Ang^3
#
#
#
# Elastic Constant Matrix: (Units=GPa)
#
#
# Indices 1 2 3 4 5 6 
#
# 1 61.9085 24.3203 31.8471 0.0000 0.0000 0.0000
# 2 24.3203 27.2318 14.9427 0.0000 0.0000 0.0000
# 3 31.8471 14.9427 68.4672 0.0000 0.0000 0.0000
# 4 0.0000 0.0000 0.0000 29.1361 0.0000 0.0000
# 5 0.0000 0.0000 0.0000 0.0000 19.5854 0.0000
# 6 0.0000 0.0000 0.0000 0.0000 0.0000 23.3998
#
#
#
# Elastic Compliance Matrix: (Units=1/GPa)
#
#
# Indices 1 2 3 4 5 6 
#
# 1 0.028978 -0.020999 -0.008896 0.000000 0.000000 0.000000
# 2 -0.020999 0.056934 -0.002658 0.000000 0.000000 0.000000
# 3 -0.008896 -0.002658 0.019324 0.000000 0.000000 0.000000
# 4 0.000000 0.000000 0.000000 0.034322 0.000000 0.000000
# 5 0.000000 0.000000 0.000000 0.000000 0.051058 0.000000
# 6 0.000000 0.000000 0.000000 0.000000 0.000000 0.042735
#
#
# Mechanical properties :
#
#
# Convention : Reuss Voigt Hill
#
# Bulk Modulus (GPa) = 24.91910 33.31418 29.11664
# Shear Modulus (GPa) = 16.03415 20.19077 18.11246
#
# Velocity S-wave (km/s) = 3.19896 3.58973 3.39997
# Velocity P-wave (km/s) = 5.43584 6.20028 5.83060
#
# Compressibility (1/GPa) = 0.04012985
#
# Stress axis : x y z
#
# Youngs Moduli (GPa) = 34.50837 17.56420 51.74984
#
# Poissons Ratio (x) = 0.36882 0.46038
# Poissons Ratio (y) = 0.72463 0.13756
# Poissons Ratio (z) = 0.30700 0.04669
#
# Static dielectric constant tensor:
#      x y z
#    x 2.956540 0.000000 0.000000 
#    y 0.000000 2.941360 0.000000 
#    z 0.000000 0.000000 3.047780 
# 
# 
# High freq. dielectric constant tensor:
#      x y z
#    x 1.576770 0.000000 0.000000 
#    y 0.000000 1.597400 0.000000 
#    z 0.000000 0.000000 1.595310 
# 
# From -- ./inp_files/44096.got.cif
#   From: 2010.03.12/outbox.cif.g09.slc.cpg/sg74_23_cif.got.tgz:44096.got - 2010.04.16 15:46:19.
