data_PCOD8297686
_publ_section_title
;
Structure prediction by ZEFSAII (Michael W. Deem and Ramdas Pophale) SiO2 
 PCOD8297686
Probable space group: I M M A
;
_chemical_formula_sum "Si O2"
_cell_formula_units_Z 88
_cell_length_a 20.127359
_cell_length_b 8.807354
_cell_length_c 29.694852
_cell_angle_alpha 90.000000
_cell_angle_beta 90.000000
_cell_angle_gamma 90.000000
_cell_volume 5263.970062
_symmetry_space_group_name_H-M "I M M A"
_symmetry_group_IT_number 74
_symmetry_cell_setting 'orthorhombic'
loop_
_space_group_symop_operation_xyz
x,y,z
-x,1/2-y,z
x,-y,-z
-x,1/2+y,-z
-x,-y,-z
x,1/2+y,-z
-x,y,z
x,1/2-y,z
1/2+x,1/2+y,1/2+z
1/2-x,-y,1/2+z
1/2+x,1/2-y,1/2-z
1/2-x,y,1/2-z
1/2-x,1/2-y,1/2-z
1/2+x,y,1/2-z
1/2-x,1/2+y,1/2+z
1/2+x,-y,1/2+z
loop_
_atom_site_type_symbol
_atom_site_label
_atom_site_fract_x
_atom_site_fract_y
_atom_site_fract_z
Si Si1 0.290772 0.427912 0.793570
Si Si2 0.703446 0.573661 0.634962
Si Si3 0.865852 0.573764 0.952485
Si Si4 0.070121 0.077854 0.172248
Si Si5 0.073226 0.079217 0.278564
Si Si6 0.000000 0.931910 0.049974
O O1 0.283024 0.250000 0.792634
O O2 0.250000 0.495774 0.750000
O O3 0.263727 0.487539 0.841489
O O4 0.368363 0.469155 0.794567
O O5 0.709865 0.750000 0.648213
O O6 0.697772 0.552301 0.580821
O O7 0.635820 0.496349 0.654253
O O8 0.881655 0.750000 0.960406
O O9 0.931198 0.496782 0.928827
O O10 0.846671 0.500000 0.000000
O O11 0.070981 0.250000 0.153744
O O12 0.071821 0.076947 0.225408
O O13 0.000000 0.000106 0.156128
O O14 0.088013 0.250000 0.295774
O O15 0.000000 0.026274 0.296551
O O16 0.000000 0.750000 0.050768
O O17 0.000000 0.000000 0.000000
#
# Coordination Sequence:
#
# PCOD8297686 Si02
#       6
#    16  16  16  16  16   8
#     4  11  22  33  46  69 103 133 157 193 244 293
#     4  10  20  32  51  70  88 124 168 206 239 284
#     4  10  20  33  49  68  91 121 161 207 251 292
#     4   8  14  25  43  66  88 115 158 205 239 268
#     4   9  17  31  52  71  90 122 165 204 236 276
#     4  10  18  30  48  66  90 124 160 202 250 294
#
# _framework density 16.717420000000001
#
# number of rings (size 3 to 8) (size 9 to 14) (size 15 to 20)
#    0.000    2.364    1.818    4.091    1.273    2.545 
#    0.000    0.000    0.000    0.000    0.000    0.000 
#    0.000    0.727    0.000    2.364    0.000    2.909 
#
# Total GULP energy -545076.024857 kJ/mol
# GULP energy per Si atom -12388.091474 kJ/mol
# Density = 1.667937 g / cm^3
# Si number density = 16.717420 Si / 1000 Ang^3
#
#
#
# Elastic Constant Matrix: (Units=GPa)
#
#
# Indices 1 2 3 4 5 6 
#
# 1 99.9782 31.3129 36.5916 0.0000 0.0000 0.0000
# 2 31.3129 75.0463 28.6103 0.0000 0.0000 0.0000
# 3 36.5916 28.6103 53.9232 0.0000 0.0000 0.0000
# 4 0.0000 0.0000 0.0000 18.0673 0.0000 0.0000
# 5 0.0000 0.0000 0.0000 0.0000 58.8703 0.0000
# 6 0.0000 0.0000 0.0000 0.0000 0.0000 21.7967
#
#
#
# Elastic Compliance Matrix: (Units=1/GPa)
#
#
# Indices 1 2 3 4 5 6 
#
# 1 0.013739 -0.002731 -0.007875 0.000000 0.000000 0.000000
# 2 -0.002731 0.017247 -0.007298 0.000000 0.000000 0.000000
# 3 -0.007875 -0.007298 0.027760 0.000000 0.000000 0.000000
# 4 0.000000 0.000000 0.000000 0.055348 0.000000 0.000000
# 5 0.000000 0.000000 0.000000 0.000000 0.016986 0.000000
# 6 0.000000 0.000000 0.000000 0.000000 0.000000 0.045879
#
#
# Mechanical properties :
#
#
# Convention : Reuss Voigt Hill
#
# Bulk Modulus (GPa) = 43.59061 46.88636 45.23848
# Shear Modulus (GPa) = 22.68471 28.57573 25.63022
#
# Velocity S-wave (km/s) = 3.68768 4.13890 3.91979
# Velocity P-wave (km/s) = 6.65308 7.13778 6.89969
#
# Compressibility (1/GPa) = 0.02294072
#
# Stress axis : x y z
#
# Youngs Moduli (GPa) = 72.78289 57.98247 36.02248
#
# Poissons Ratio (x) = 0.15833 0.28366
# Poissons Ratio (y) = 0.19875 0.26288
# Poissons Ratio (z) = 0.57314 0.42313
#
# Static dielectric constant tensor:
#      x y z
#    x 3.185300 0.000000 0.000000 
#    y 0.000000 2.998190 0.000000 
#    z 0.000000 0.000000 2.962460 
# 
# 
# High freq. dielectric constant tensor:
#      x y z
#    x 1.628480 0.000000 0.000000 
#    y 0.000000 1.628260 0.000000 
#    z 0.000000 0.000000 1.619650 
# 
# From -- ./inp_files/73298.got.cif
#   From: 2010.03.12/outbox.cif.g09.slc.cpg/sg74_37_cif.got.tgz:73298.got - 2010.04.16 15:46:19.
