data_PCOD8297521
_publ_section_title
;
Structure prediction by ZEFSAII (Michael W. Deem and Ramdas Pophale) SiO2 
 PCOD8297521
Probable space group: I M M A
;
_chemical_formula_sum "Si O2"
_cell_formula_units_Z 80
_cell_length_a 8.935699
_cell_length_b 25.565705
_cell_length_c 20.175305
_cell_angle_alpha 90.000000
_cell_angle_beta 90.000000
_cell_angle_gamma 90.000000
_cell_volume 4608.996871
_symmetry_space_group_name_H-M "I M M A"
_symmetry_group_IT_number 74
_symmetry_cell_setting 'orthorhombic'
loop_
_space_group_symop_operation_xyz
x,y,z
-x,1/2-y,z
x,-y,-z
-x,1/2+y,-z
-x,-y,-z
x,1/2+y,-z
-x,y,z
x,1/2-y,z
1/2+x,1/2+y,1/2+z
1/2-x,-y,1/2+z
1/2+x,1/2-y,1/2-z
1/2-x,y,1/2-z
1/2-x,1/2-y,1/2-z
1/2+x,y,1/2-z
1/2-x,1/2+y,1/2+z
1/2+x,-y,1/2+z
loop_
_atom_site_type_symbol
_atom_site_label
_atom_site_fract_x
_atom_site_fract_y
_atom_site_fract_z
Si Si1 0.324477 0.250000 0.575383
Si Si2 0.324503 0.559986 0.182184
Si Si3 0.672372 0.136742 0.072822
Si Si4 0.322311 0.144603 0.923222
Si Si5 0.177225 0.941105 0.681497
Si Si6 0.829247 0.250000 0.439001
O O1 0.500000 0.250000 0.589312
O O2 0.251802 0.197437 0.606226
O O3 0.289873 0.250000 0.497598
O O4 0.500000 0.564425 0.192460
O O5 0.250000 0.579328 0.250000
O O6 0.269730 0.596425 0.122150
O O7 0.276910 0.500668 0.164987
O O8 0.500000 0.121267 0.068591
O O9 0.746933 0.095397 0.123222
O O10 0.694500 0.196130 0.101947
O O11 0.737545 0.133254 0.998047
O O12 0.500000 0.152065 0.922891
O O13 0.250000 0.922601 0.750000
O O14 0.000000 0.934420 0.688065
O O15 0.000000 0.250000 0.468389
#
# Coordination Sequence:
#
# PCOD8297521 Si02
#       6
#     8  16  16  16  16   8
#     4  10  18  28  45  70  95 118 143 180 227 272
#     4   9  18  31  48  67  90 119 151 185 226 270
#     4   8  14  26  47  69  89 115 152 190 222 258
#     4   9  17  31  49  68  89 118 152 186 221 264
#     4   9  17  30  46  66  91 121 152 186 226 268
#     4   8  14  28  47  66  90 122 153 184 222 264
#
# _framework density 17.357355999999999
#
# number of rings (size 3 to 8) (size 9 to 14) (size 15 to 20)
#    0.000    3.200    0.000    2.100    0.000    1.600 
#    0.000    9.000    0.000    0.000    0.000   11.200 
#    0.000    0.000    0.000    0.000    0.000    0.000 
#
# Total GULP energy -495657.667054 kJ/mol
# GULP energy per Si atom -12391.441676 kJ/mol
# Density = 1.731785 g / cm^3
# Si number density = 17.357356 Si / 1000 Ang^3
#
#
#
# Elastic Constant Matrix: (Units=GPa)
#
#
# Indices 1 2 3 4 5 6 
#
# 1 28.6414 27.2076 21.5709 0.0000 0.0000 0.0000
# 2 27.2076 144.2061 91.2168 0.0000 0.0000 0.0000
# 3 21.5709 91.2168 108.9327 -0.0001 0.0000 0.0000
# 4 0.0000 0.0000 -0.0001 18.7780 0.0000 0.0000
# 5 0.0000 0.0000 0.0000 0.0000 21.2562 0.0000
# 6 0.0000 0.0000 0.0000 0.0000 0.0000 16.1351
#
#
#
# Elastic Compliance Matrix: (Units=1/GPa)
#
#
# Indices 1 2 3 4 5 6 
#
# 1 0.043221 -0.005828 -0.003679 0.000000 0.000000 0.000000
# 2 -0.005828 0.015530 -0.011850 0.000000 0.000000 0.000000
# 3 -0.003679 -0.011850 0.019831 0.000000 0.000000 0.000000
# 4 0.000000 0.000000 0.000000 0.053254 0.000000 0.000000
# 5 0.000000 0.000000 0.000000 0.000000 0.047045 0.000000
# 6 0.000000 0.000000 0.000000 0.000000 0.000000 0.061977
#
#
# Mechanical properties :
#
#
# Convention : Reuss Voigt Hill
#
# Bulk Modulus (GPa) = 27.87912 62.41897 45.14905
# Shear Modulus (GPa) = 16.91891 20.68619 18.80255
#
# Velocity S-wave (km/s) = 3.12547 3.45597 3.29486
# Velocity P-wave (km/s) = 5.39643 7.20861 6.36732
#
# Compressibility (1/GPa) = 0.03586913
#
# Stress axis : x y z
#
# Youngs Moduli (GPa) = 23.13686 64.39246 50.42506
#
# Poissons Ratio (x) = 0.37525 0.18551
# Poissons Ratio (y) = 0.13483 0.59754
# Poissons Ratio (z) = 0.08512 0.76306
#
# Static dielectric constant tensor:
#      x y z
#    x 2.911180 0.000000 0.000000 
#    y 0.000000 3.636190 0.000000 
#    z 0.000000 0.000000 3.194210 
# 
# 
# High freq. dielectric constant tensor:
#      x y z
#    x 1.639130 0.000000 0.000000 
#    y 0.000000 1.685610 0.000000 
#    z 0.000000 0.000000 1.643300 
# 
# From -- ./inp_files/39834.got.cif
#   From: 2010.03.12/outbox.cif.g09.slc.cpg/sg74_20_cif.got.tgz:39834.got - 2010.04.16 15:46:19.
