data_PCOD8297818
_publ_section_title
;
Structure prediction by ZEFSAII (Michael W. Deem and Ramdas Pophale) SiO2 
 PCOD8297818
Probable space group: I M M A
;
_chemical_formula_sum "Si O2"
_cell_formula_units_Z 104
_cell_length_a 17.757990
_cell_length_b 13.184542
_cell_length_c 27.228943
_cell_angle_alpha 90.000000
_cell_angle_beta 90.000000
_cell_angle_gamma 90.000000
_cell_volume 6375.138700
_symmetry_space_group_name_H-M "I M M A"
_symmetry_group_IT_number 74
_symmetry_cell_setting 'orthorhombic'
loop_
_space_group_symop_operation_xyz
x,y,z
-x,1/2-y,z
x,-y,-z
-x,1/2+y,-z
-x,-y,-z
x,1/2+y,-z
-x,y,z
x,1/2-y,z
1/2+x,1/2+y,1/2+z
1/2-x,-y,1/2+z
1/2+x,1/2-y,1/2-z
1/2-x,y,1/2-z
1/2-x,1/2-y,1/2-z
1/2+x,y,1/2-z
1/2-x,1/2+y,1/2+z
1/2+x,-y,1/2+z
loop_
_atom_site_type_symbol
_atom_site_label
_atom_site_fract_x
_atom_site_fract_y
_atom_site_fract_z
Si Si1 0.836017 0.132961 0.735185
Si Si2 0.500000 0.386183 0.016769
Si Si3 0.156023 0.363929 0.432349
Si Si4 0.849616 0.951302 0.369094
Si Si5 0.084240 0.370387 0.832681
Si Si6 0.701149 0.868039 0.413818
Si Si7 0.000000 0.858158 0.408557
Si Si8 0.756542 0.000000 0.000000
O O1 0.854166 0.250000 0.722051
O O2 0.750000 0.120866 0.750000
O O3 0.855623 0.061955 0.689181
O O4 0.886711 0.091541 0.779840
O O5 0.429275 0.357205 0.049781
O O6 0.500000 0.500000 0.000000
O O7 0.500000 0.326690 0.965666
O O8 0.185654 0.250000 0.421485
O O9 0.164864 0.430817 0.382668
O O10 0.204818 0.415316 0.474978
O O11 0.783604 0.879847 0.390073
O O12 0.926907 0.922110 0.395222
O O13 0.086442 0.250000 0.832243
O O14 0.138708 0.409191 0.875735
O O15 0.000000 0.411928 0.841798
O O16 0.688718 0.750000 0.427285
O O17 0.691451 0.939107 0.461532
O O18 0.000000 0.750000 0.379801
#
# Coordination Sequence:
#
# PCOD8297818 Si02
#       8
#    16   8  16  16  16  16   8   8
#     4  10  18  31  50  73 100 130 159 197 250 300
#     4  12  18  35  45  64  95 135 176 203 241 284
#     4  11  21  33  49  67  97 133 170 211 247 292
#     4  11  21  32  46  71 102 131 170 201 248 298
#     4   9  18  31  49  73  99 128 161 196 246 303
#     4  10  18  32  50  70  99 130 158 196 248 301
#     4  12  22  29  46  73 104 135 169 209 241 286
#     4  10  20  31  49  74  94 120 166 202 248 295
#
# _framework density 16.313371
#
# number of rings (size 3 to 8) (size 9 to 14) (size 15 to 20)
#    0.000    1.538    3.846    3.462    1.077    0.000 
#    0.000    0.385    0.000    0.462    0.000    0.000 
#    0.000   11.692    0.000    0.000    0.000    0.000 
#
# Total GULP energy -644706.647080 kJ/mol
# GULP energy per Si atom -12398.204752 kJ/mol
# Density = 1.627624 g / cm^3
# Si number density = 16.313371 Si / 1000 Ang^3
#
#
#
# Elastic Constant Matrix: (Units=GPa)
#
#
# Indices 1 2 3 4 5 6 
#
# 1 86.1400 19.3170 48.7246 0.0000 0.0000 0.0000
# 2 19.3170 102.5980 46.0130 0.0000 0.0000 0.0000
# 3 48.7246 46.0130 135.1165 0.0000 0.0000 0.0000
# 4 0.0000 0.0000 0.0000 21.6122 0.0000 0.0000
# 5 0.0000 0.0000 0.0000 0.0000 20.2020 0.0000
# 6 0.0000 0.0000 0.0000 0.0000 0.0000 22.6437
#
#
#
# Elastic Compliance Matrix: (Units=1/GPa)
#
#
# Indices 1 2 3 4 5 6 
#
# 1 0.014602 -0.000458 -0.005110 0.000000 0.000000 0.000000
# 2 -0.000458 0.011518 -0.003757 0.000000 0.000000 0.000000
# 3 -0.005110 -0.003757 0.010523 0.000000 0.000000 0.000000
# 4 0.000000 0.000000 0.000000 0.046270 0.000000 0.000000
# 5 0.000000 0.000000 0.000000 0.000000 0.049500 0.000000
# 6 0.000000 0.000000 0.000000 0.000000 0.000000 0.044162
#
#
# Mechanical properties :
#
#
# Convention : Reuss Voigt Hill
#
# Bulk Modulus (GPa) = 55.57513 61.32930 58.45221
# Shear Modulus (GPa) = 24.84803 26.87824 25.86314
#
# Velocity S-wave (km/s) = 3.90701 4.06349 3.98602
# Velocity P-wave (km/s) = 7.38202 7.72606 7.55600
#
# Compressibility (1/GPa) = 0.01799366
#
# Stress axis : x y z
#
# Youngs Moduli (GPa) = 68.48394 86.82035 95.02788
#
# Poissons Ratio (x) = 0.03973 0.48557
# Poissons Ratio (y) = 0.03134 0.35705
# Poissons Ratio (z) = 0.34994 0.32622
#
# Static dielectric constant tensor:
#      x y z
#    x 3.012540 0.000000 0.000000 
#    y 0.000000 3.005420 0.000000 
#    z 0.000000 0.000000 3.303600 
# 
# 
# High freq. dielectric constant tensor:
#      x y z
#    x 1.618830 0.000000 0.000000 
#    y 0.000000 1.604250 0.000000 
#    z 0.000000 0.000000 1.625280 
# 
# From -- ./inp_files/67901.got.cif
#   From: 2010.03.12/outbox.cif.g09.slc.cpg/sg74_34_cif.got.tgz:67901.got - 2010.04.16 15:46:19.
