data_PCOD8297580
_publ_section_title
;
Structure prediction by ZEFSAII (Michael W. Deem and Ramdas Pophale) SiO2 
 PCOD8297580
Probable space group: I M M A
;
_chemical_formula_sum "Si O2"
_cell_formula_units_Z 96
_cell_length_a 25.704475
_cell_length_b 8.864116
_cell_length_c 28.817701
_cell_angle_alpha 90.000000
_cell_angle_beta 90.000000
_cell_angle_gamma 90.000000
_cell_volume 6566.039634
_symmetry_space_group_name_H-M "I M M A"
_symmetry_group_IT_number 74
_symmetry_cell_setting 'orthorhombic'
loop_
_space_group_symop_operation_xyz
x,y,z
-x,1/2-y,z
x,-y,-z
-x,1/2+y,-z
-x,-y,-z
x,1/2+y,-z
-x,y,z
x,1/2-y,z
1/2+x,1/2+y,1/2+z
1/2-x,-y,1/2+z
1/2+x,1/2-y,1/2-z
1/2-x,y,1/2-z
1/2-x,1/2-y,1/2-z
1/2+x,y,1/2-z
1/2-x,1/2+y,1/2+z
1/2+x,-y,1/2+z
loop_
_atom_site_type_symbol
_atom_site_label
_atom_site_fract_x
_atom_site_fract_y
_atom_site_fract_z
Si Si1 0.647185 0.427568 0.806023
Si Si2 0.221901 0.425521 0.547640
Si Si3 0.694926 0.583375 0.724854
Si Si4 0.100149 0.574108 0.452254
Si Si5 0.940015 0.076880 0.361261
Si Si6 0.757703 0.428564 0.359872
O O1 0.648191 0.250000 0.812563
O O2 0.656999 0.468849 0.751872
O O3 0.591496 0.491037 0.821148
O O4 0.690498 0.497688 0.839275
O O5 0.241244 0.500000 0.500000
O O6 0.235278 0.250000 0.546392
O O7 0.161045 0.456250 0.555416
O O8 0.253274 0.504307 0.589399
O O9 0.669314 0.750000 0.725657
O O10 0.750000 0.589914 0.750000
O O11 0.707208 0.531553 0.672010
O O12 0.080936 0.500000 0.500000
O O13 0.087252 0.750000 0.453764
O O14 0.068537 0.498590 0.411002
O O15 0.921739 0.250000 0.363885
O O16 0.000000 0.063370 0.347380
O O17 0.766557 0.250000 0.362081
#
# Coordination Sequence:
#
# PCOD8297580 Si02
#       6
#    16  16  16  16  16  16
#     4  11  20  30  45  64  84 106 131 169 212 250
#     4  10  19  29  43  63  85 111 140 171 210 251
#     4   8  16  29  44  63  84 108 133 161 201 245
#     4  10  20  33  48  63  79 103 134 173 218 259
#     4  11  23  36  49  62  78 105 138 174 217 261
#     4  10  18  29  46  64  85 110 136 168 204 245
#
# _framework density 14.620685999999999
#
# number of rings (size 3 to 8) (size 9 to 14) (size 15 to 20)
#    0.000    2.000    1.667    4.500    0.000    6.667 
#    0.000    0.000    0.000    0.000    0.000    0.000 
#    0.000    0.000    0.000    0.000    0.000    0.833 
#
# Total GULP energy -595198.124777 kJ/mol
# GULP energy per Si atom -12399.960933 kJ/mol
# Density = 1.458741 g / cm^3
# Si number density = 14.620686 Si / 1000 Ang^3
#
#
#
# Elastic Constant Matrix: (Units=GPa)
#
#
# Indices 1 2 3 4 5 6 
#
# 1 37.9610 33.8389 42.2740 0.0000 0.0000 0.0000
# 2 33.8389 113.1834 60.8267 0.0000 0.0000 0.0000
# 3 42.2740 60.8267 113.5017 0.0000 0.0000 0.0000
# 4 0.0000 0.0000 0.0000 28.2377 0.0000 0.0000
# 5 0.0000 0.0000 0.0000 0.0000 20.1367 0.0000
# 6 0.0000 0.0000 0.0000 0.0000 0.0000 13.4320
#
#
#
# Elastic Compliance Matrix: (Units=1/GPa)
#
#
# Indices 1 2 3 4 5 6 
#
# 1 0.048394 -0.006716 -0.014425 0.000000 0.000000 0.000000
# 2 -0.006716 0.013341 -0.004648 0.000000 0.000000 0.000000
# 3 -0.014425 -0.004648 0.016674 0.000000 0.000000 0.000000
# 4 0.000000 0.000000 0.000000 0.035414 0.000000 0.000000
# 5 0.000000 0.000000 0.000000 0.000000 0.049661 0.000000
# 6 0.000000 0.000000 0.000000 0.000000 0.000000 0.074449
#
#
# Mechanical properties :
#
#
# Convention : Reuss Voigt Hill
#
# Bulk Modulus (GPa) = 37.27159 59.83613 48.55386
# Shear Modulus (GPa) = 16.75295 20.87504 18.81399
#
# Velocity S-wave (km/s) = 3.38870 3.78269 3.59110
# Velocity P-wave (km/s) = 6.39208 7.75196 7.10463
#
# Compressibility (1/GPa) = 0.02683009
#
# Stress axis : x y z
#
# Youngs Moduli (GPa) = 20.66383 74.95562 59.97308
#
# Poissons Ratio (x) = 0.50341 0.86512
# Poissons Ratio (y) = 0.13878 0.27877
# Poissons Ratio (z) = 0.29808 0.34841
#
# Static dielectric constant tensor:
#      x y z
#    x 2.513340 0.000000 0.000000 
#    y 0.000000 2.980990 0.000000 
#    z 0.000000 0.000000 3.117230 
# 
# 
# High freq. dielectric constant tensor:
#      x y z
#    x 1.498760 0.000000 0.000000 
#    y 0.000000 1.578310 0.000000 
#    z 0.000000 0.000000 1.559610 
# 
# From -- ./inp_files/64679.got.cif
#   From: 2010.03.12/outbox.cif.g09.slc.cpg/sg74_33_cif.got.tgz:64679.got - 2010.04.16 15:46:19.
