data_PCOD8297714
_publ_section_title
;
Structure prediction by ZEFSAII (Michael W. Deem and Ramdas Pophale) SiO2 
 PCOD8297714
Probable space group: I M M A
;
_chemical_formula_sum "Si O2"
_cell_formula_units_Z 64
_cell_length_a 12.996915
_cell_length_b 9.068354
_cell_length_c 33.162617
_cell_angle_alpha 90.000000
_cell_angle_beta 90.000000
_cell_angle_gamma 90.000000
_cell_volume 3908.566804
_symmetry_space_group_name_H-M "I M M A"
_symmetry_group_IT_number 74
_symmetry_cell_setting 'orthorhombic'
loop_
_space_group_symop_operation_xyz
x,y,z
-x,1/2-y,z
x,-y,-z
-x,1/2+y,-z
-x,-y,-z
x,1/2+y,-z
-x,y,z
x,1/2-y,z
1/2+x,1/2+y,1/2+z
1/2-x,-y,1/2+z
1/2+x,1/2-y,1/2-z
1/2-x,y,1/2-z
1/2-x,1/2-y,1/2-z
1/2+x,y,1/2-z
1/2-x,1/2+y,1/2+z
1/2+x,-y,1/2+z
loop_
_atom_site_type_symbol
_atom_site_label
_atom_site_fract_x
_atom_site_fract_y
_atom_site_fract_z
Si Si1 0.887955 0.917807 0.172065
Si Si2 0.000000 0.575132 0.322428
Si Si3 0.619833 0.922098 0.039862
Si Si4 0.000000 0.924867 0.763347
Si Si5 0.692636 0.924925 0.124635
O O1 0.859224 0.750000 0.184440
O O2 0.800396 0.984063 0.142860
O O3 0.000000 0.921255 0.149666
O O4 0.898011 0.015319 0.212962
O O5 0.900221 0.522513 0.347061
O O6 0.000000 0.750000 0.314481
O O7 0.000000 0.488742 0.280983
O O8 0.500000 0.958051 0.045791
O O9 0.639124 0.750000 0.034608
O O10 0.678527 0.986190 0.079217
O O11 0.664253 0.000000 0.000000
O O12 0.000000 0.750000 0.762286
O O13 0.691283 0.750000 0.122001
#
# Coordination Sequence:
#
# PCOD8297714 Si02
#       5
#    16   8  16   8  16
#     4   8  16  32  51  68  86 118 163 198 225 264
#     4  10  18  30  49  71  93 119 157 196 230 270
#     4   9  16  28  46  70  98 124 149 181 225 276
#     4  10  20  34  46  65  96 125 153 190 239 282
#     4   9  16  29  51  73  92 119 157 197 228 262
#
# _framework density 16.374289999999998
#
# number of rings (size 3 to 8) (size 9 to 14) (size 15 to 20)
#    0.750    2.250    1.250    0.750    0.000    1.000 
#    0.000    8.750    0.000    0.750    0.000    0.000 
#    0.000    0.000    0.000    0.000    0.000    0.000 
#
# Total GULP energy -396497.610176 kJ/mol
# GULP energy per Si atom -12390.550318 kJ/mol
# Density = 1.633702 g / cm^3
# Si number density = 16.374290 Si / 1000 Ang^3
#
#
#
# Elastic Constant Matrix: (Units=GPa)
#
#
# Indices 1 2 3 4 5 6 
#
# 1 101.6368 26.6520 75.0710 0.0000 0.0000 0.0000
# 2 26.6520 47.6149 48.5471 0.0000 0.0000 0.0000
# 3 75.0710 48.5471 178.3364 0.0000 0.0000 0.0000
# 4 0.0000 0.0000 0.0000 23.5938 0.0000 0.0000
# 5 0.0000 0.0000 0.0000 0.0000 1.6106 0.0000
# 6 0.0000 0.0000 0.0000 0.0000 0.0000 9.5006
#
#
#
# Elastic Compliance Matrix: (Units=1/GPa)
#
#
# Indices 1 2 3 4 5 6 
#
# 1 0.014511 -0.002622 -0.005395 0.000000 0.000000 0.000000
# 2 -0.002622 0.029544 -0.006939 0.000000 0.000000 0.000000
# 3 -0.005395 -0.006939 0.009767 0.000000 0.000000 0.000000
# 4 0.000000 0.000000 0.000000 0.042384 0.000000 0.000000
# 5 0.000000 0.000000 0.000000 0.000000 0.620906 0.000000
# 6 0.000000 0.000000 0.000000 0.000000 0.000000 0.105257
#
#
# Mechanical properties :
#
#
# Convention : Reuss Voigt Hill
#
# Bulk Modulus (GPa) = 41.82131 69.79204 55.80668
# Shear Modulus (GPa) = 5.81226 18.76219 12.28723
#
# Velocity S-wave (km/s) = 1.88609 3.38869 2.74231
# Velocity P-wave (km/s) = 5.50812 7.61751 6.64702
#
# Compressibility (1/GPa) = 0.02391125
#
# Stress axis : x y z
#
# Youngs Moduli (GPa) = 68.91233 33.84762 102.38378
#
# Poissons Ratio (x) = 0.08875 0.55233
# Poissons Ratio (y) = 0.18070 0.71042
# Poissons Ratio (z) = 0.37176 0.23486
#
# Static dielectric constant tensor:
#      x y z
#    x 3.141190 0.000000 0.000000 
#    y 0.000000 2.768270 0.000000 
#    z 0.000000 0.000000 3.213320 
# 
# 
# High freq. dielectric constant tensor:
#      x y z
#    x 1.612130 0.000000 0.000000 
#    y 0.000000 1.598420 0.000000 
#    z 0.000000 0.000000 1.629970 
# 
# From -- ./inp_files/66664.got.cif
#   From: 2010.03.12/outbox.cif.g09.slc.cpg/sg74_34_cif.got.tgz:66664.got - 2010.04.16 15:46:19.
