data_PCOD8297756
_publ_section_title
;
Structure prediction by ZEFSAII (Michael W. Deem and Ramdas Pophale) SiO2 
 PCOD8297756
Probable space group: I M M A
;
_chemical_formula_sum "Si O2"
_cell_formula_units_Z 80
_cell_length_a 15.703530
_cell_length_b 8.833936
_cell_length_c 29.175630
_cell_angle_alpha 90.000000
_cell_angle_beta 90.000000
_cell_angle_gamma 90.000000
_cell_volume 4047.359483
_symmetry_space_group_name_H-M "I M M A"
_symmetry_group_IT_number 74
_symmetry_cell_setting 'orthorhombic'
loop_
_space_group_symop_operation_xyz
x,y,z
-x,1/2-y,z
x,-y,-z
-x,1/2+y,-z
-x,-y,-z
x,1/2+y,-z
-x,y,z
x,1/2-y,z
1/2+x,1/2+y,1/2+z
1/2-x,-y,1/2+z
1/2+x,1/2-y,1/2-z
1/2-x,y,1/2-z
1/2-x,1/2-y,1/2-z
1/2+x,y,1/2-z
1/2-x,1/2+y,1/2+z
1/2+x,-y,1/2+z
loop_
_atom_site_type_symbol
_atom_site_label
_atom_site_fract_x
_atom_site_fract_y
_atom_site_fract_z
Si Si1 0.092872 0.570825 0.642335
Si Si2 0.157144 0.572489 0.045438
Si Si3 0.252428 0.929657 0.698265
Si Si4 0.659227 0.428742 0.045639
Si Si5 0.595770 0.924902 0.355863
O O1 0.096411 0.750000 0.647372
O O2 0.169508 0.500762 0.672527
O O3 0.102806 0.525183 0.589227
O O4 0.000000 0.510602 0.659002
O O5 0.168974 0.750000 0.037309
O O6 0.247863 0.496244 0.053526
O O7 0.100862 0.537230 0.090074
O O8 0.113511 0.500000 0.000000
O O9 0.249365 0.750000 0.697425
O O10 0.250000 0.992056 0.750000
O O11 0.339114 0.977719 0.673719
O O12 0.666435 0.250000 0.039801
O O13 0.616902 0.500000 0.000000
O O14 0.500000 0.963626 0.339598
O O15 0.617823 0.750000 0.347570
#
# Coordination Sequence:
#
# PCOD8297756 Si02
#       5
#    16  16  16  16  16
#     4   9  18  33  53  78 110 144 177 219 275 330
#     4  10  19  32  53  79 110 147 186 226 272 323
#     4  10  21  38  61  86 110 141 184 234 283 331
#     4  10  18  30  51  76 106 144 182 220 269 323
#     4  10  22  39  58  82 115 152 187 226 278 336
#
# _framework density 19.765972999999999
#
# number of rings (size 3 to 8) (size 9 to 14) (size 15 to 20)
#    0.000    2.200    2.000    2.400    0.000    3.200 
#    0.000    2.000    0.000    4.800    0.000    0.000 
#    0.000    0.000    0.000    0.000    0.000    0.000 
#
# Total GULP energy -495861.570341 kJ/mol
# GULP energy per Si atom -12396.539259 kJ/mol
# Density = 1.972098 g / cm^3
# Si number density = 19.765973 Si / 1000 Ang^3
#
#
#
# Elastic Constant Matrix: (Units=GPa)
#
#
# Indices 1 2 3 4 5 6 
#
# 1 123.2958 18.1789 69.3186 0.0000 0.0000 0.0000
# 2 18.1789 51.0304 36.5245 0.0000 0.0000 0.0000
# 3 69.3186 36.5245 140.1098 0.0000 0.0000 0.0000
# 4 0.0000 0.0000 0.0000 25.0859 0.0000 0.0000
# 5 0.0000 0.0000 0.0000 0.0000 12.0803 0.0000
# 6 0.0000 0.0000 0.0000 0.0000 0.0000 17.3203
#
#
#
# Elastic Compliance Matrix: (Units=1/GPa)
#
#
# Indices 1 2 3 4 5 6 
#
# 1 0.011236 -0.000029 -0.005551 0.000000 0.000000 0.000000
# 2 -0.000029 0.024091 -0.006266 0.000000 0.000000 0.000000
# 3 -0.005551 -0.006266 0.011517 0.000000 0.000000 0.000000
# 4 0.000000 0.000000 0.000000 0.039863 0.000000 0.000000
# 5 0.000000 0.000000 0.000000 0.000000 0.082779 0.000000
# 6 0.000000 0.000000 0.000000 0.000000 0.000000 0.057736
#
#
# Mechanical properties :
#
#
# Convention : Reuss Voigt Hill
#
# Bulk Modulus (GPa) = 43.19360 62.49777 52.84569
# Shear Modulus (GPa) = 19.33249 23.59157 21.46203
#
# Velocity S-wave (km/s) = 3.13080 3.45852 3.29873
# Velocity P-wave (km/s) = 5.91347 6.90188 6.42671
#
# Compressibility (1/GPa) = 0.02315158
#
# Stress axis : x y z
#
# Youngs Moduli (GPa) = 89.00045 41.50893 86.82761
#
# Poissons Ratio (x) = 0.00122 0.48200
# Poissons Ratio (y) = 0.00262 0.54403
# Poissons Ratio (z) = 0.49406 0.26008
#
# Static dielectric constant tensor:
#      x y z
#    x 3.622400 0.000000 0.000000 
#    y 0.000000 3.364950 0.000000 
#    z 0.000000 0.000000 3.925650 
# 
# 
# High freq. dielectric constant tensor:
#      x y z
#    x 1.768150 0.000000 0.000000 
#    y 0.000000 1.746630 0.000000 
#    z 0.000000 0.000000 1.776430 
# 
# From -- ./inp_files/72857.got.cif
#   From: 2010.03.12/outbox.cif.g09.slc.cpg/sg74_37_cif.got.tgz:72857.got - 2010.04.16 15:46:19.
