data_PCOD8297064
_publ_section_title
;
Structure prediction by ZEFSAII (Michael W. Deem and Ramdas Pophale) SiO2 
 PCOD8297064
Probable space group: I B C A 
;
_chemical_formula_sum "Si O2"
_cell_formula_units_Z 64
_cell_length_a 11.300141
_cell_length_b 17.583629
_cell_length_c 13.915375
_cell_angle_alpha 90.000000
_cell_angle_beta 90.000000
_cell_angle_gamma 90.000000
_cell_volume 2764.950043
_symmetry_space_group_name_H-M "I B C A "
_symmetry_group_IT_number 73
_symmetry_cell_setting 'orthorhombic'
loop_
_space_group_symop_operation_xyz
x,y,z
-x,1/2-y,z
x,-y,1/2-z
1/2-x,y,-z
-x,-y,-z
x,1/2+y,-z
-x,y,1/2+z
1/2+x,-y,z
1/2+x,1/2+y,1/2+z
1/2-x,-y,1/2+z
1/2+x,1/2-y,-z
-x,1/2+y,1/2-z
1/2-x,1/2-y,1/2-z
1/2+x,y,1/2-z
1/2-x,1/2+y,z
x,1/2-y,1/2+z
loop_
_atom_site_type_symbol
_atom_site_label
_atom_site_fract_x
_atom_site_fract_y
_atom_site_fract_z
Si Si1 0.750000 0.514282 0.000000
Si Si2 0.500000 0.250000 0.958732
Si Si3 0.412454 0.390229 0.572676
Si Si4 0.128526 0.568580 0.683203
Si Si5 0.698549 0.193968 0.324096
O O1 0.635057 0.458787 0.005959
O O2 0.777932 0.567513 0.093062
O O3 0.382888 0.243800 0.894560
O O4 0.501131 0.328271 0.020898
O O5 0.492589 0.433344 0.650035
O O6 0.299258 0.348020 0.615663
O O7 0.165217 0.500000 0.750000
O O8 0.127215 0.638638 0.755511
O O9 0.750000 0.250000 0.250000
#
# Coordination Sequence:
#
# PCOD8297064 Si02
#       5
#     8   8  16  16  16
#     4  12  26  48  74 116 156 204 264 318 396 466
#     4  12  24  48  74 108 152 196 256 316 384 464
#     4  12  25  47  74 112 151 202 257 316 392 461
#     4  12  27  46  76 112 154 206 256 324 384 466
#     4  12  26  46  73 110 152 199 256 321 381 461
#
# _framework density 23.146891
#
# number of rings (size 3 to 8) (size 9 to 14) (size 15 to 20)
#    0.000    0.000    5.000    3.750    7.000    0.000 
#    0.000    0.000    0.000    0.000    0.000    0.000 
#    0.000    0.000    0.000    0.000    0.000    0.000 
#
# Total GULP energy -396507.946185 kJ/mol
# GULP energy per Si atom -12390.873318 kJ/mol
# Density = 2.309421 g / cm^3
# Si number density = 23.146891 Si / 1000 Ang^3
#
#
#
# Elastic Constant Matrix: (Units=GPa)
#
#
# Indices 1 2 3 4 5 6 
#
# 1 113.4938 17.1194 47.7626 -0.0002 0.0000 0.0000
# 2 17.1194 42.8830 13.4958 0.0017 0.0003 0.0001
# 3 47.7626 13.4958 122.4989 0.0022 0.0005 0.0001
# 4 -0.0002 0.0017 0.0022 -50.7080 0.0007 0.0001
# 5 0.0000 0.0003 0.0005 0.0007 29.1353 0.0000
# 6 0.0000 0.0001 0.0001 0.0001 0.0000 52.4955
#
#
#
# Elastic Compliance Matrix: (Units=1/GPa)
#
#
# Indices 1 2 3 4 5 6 
#
# 1 0.010932 -0.003131 -0.003917 0.000000 0.000000 0.000000
# 2 -0.003131 0.025054 -0.001539 0.000001 0.000000 0.000000
# 3 -0.003917 -0.001539 0.009860 0.000000 0.000000 0.000000
# 4 0.000000 0.000001 0.000000 -0.019721 0.000000 0.000000
# 5 0.000000 0.000000 0.000000 0.000000 0.034323 0.000000
# 6 0.000000 0.000000 0.000000 0.000000 0.000000 0.019049
#
#
# Mechanical properties :
#
#
# Convention : Reuss Voigt Hill
#
# Bulk Modulus (GPa) = 34.87967 48.40349 41.64158
# Shear Modulus (GPa) = 47.06774 19.55110 33.30942
#
# Velocity S-wave (km/s) = 4.51426 2.90944 3.79759
# Velocity P-wave (km/s) = 6.50176 5.67832 6.10394
#
# Compressibility (1/GPa) = 0.02867000
#
# Stress axis : x y z
#
# Youngs Moduli (GPa) = 91.47472 39.91420 101.41643
#
# Poissons Ratio (x) = 0.12498 0.39729
# Poissons Ratio (y) = 0.28644 0.15611
# Poissons Ratio (z) = 0.35834 0.06144
#
# Static dielectric constant tensor:
#      x y z
#    x 4.063230 0.000000 0.000000 
#    y 0.000000 4.220460 0.000000 
#    z 0.000000 0.000000 4.526660 
# 
# 
# High freq. dielectric constant tensor:
#      x y z
#    x 1.915170 0.000000 0.000000 
#    y 0.000000 1.922340 0.000000 
#    z 0.000000 0.000000 1.934880 
# 
# From -- ./inp_files/9472.got.cif
#   From: 2010.03.12/outbox.cif.g09.slc.cpg/sg73_5_cif.got.tgz:9472.got - 2010.04.16 15:25:48.
