data_PCOD8297310
_publ_section_title
;
Structure prediction by ZEFSAII (Michael W. Deem and Ramdas Pophale) SiO2 
 PCOD8297310
Probable space group: I M M A
;
_chemical_formula_sum "Si O2"
_cell_formula_units_Z 112
_cell_length_a 24.882004
_cell_length_b 19.306098
_cell_length_c 12.767482
_cell_angle_alpha 90.000000
_cell_angle_beta 90.000000
_cell_angle_gamma 90.000000
_cell_volume 6133.171603
_symmetry_space_group_name_H-M "I M M A"
_symmetry_group_IT_number 74
_symmetry_cell_setting 'orthorhombic'
loop_
_space_group_symop_operation_xyz
x,y,z
-x,1/2-y,z
x,-y,-z
-x,1/2+y,-z
-x,-y,-z
x,1/2+y,-z
-x,y,z
x,1/2-y,z
1/2+x,1/2+y,1/2+z
1/2-x,-y,1/2+z
1/2+x,1/2-y,1/2-z
1/2-x,y,1/2-z
1/2-x,1/2-y,1/2-z
1/2+x,y,1/2-z
1/2-x,1/2+y,1/2+z
1/2+x,-y,1/2+z
loop_
_atom_site_type_symbol
_atom_site_label
_atom_site_fract_x
_atom_site_fract_y
_atom_site_fract_z
Si Si1 0.061163 0.947653 0.910521
Si Si2 0.939982 0.079067 0.536199
Si Si3 0.213047 0.048987 0.845404
Si Si4 0.610154 0.473828 0.768254
Si Si5 0.644221 0.608966 0.871559
Si Si6 0.764011 0.601934 0.932229
Si Si7 0.136227 0.828288 0.848537
O O1 0.097877 0.879416 0.914432
O O2 0.000000 0.925220 0.930947
O O3 0.064973 0.985306 0.797864
O O4 0.081930 0.000000 0.000000
O O5 0.918132 0.081919 0.655816
O O6 0.900450 0.122706 0.461274
O O7 0.000000 0.111329 0.531607
O O8 0.942062 0.000000 0.500000
O O9 0.250000 0.073064 0.750000
O O10 0.151335 0.062443 0.811822
O O11 0.221893 0.968634 0.872153
O O12 0.226338 0.096564 0.944111
O O13 0.644213 0.528343 0.837954
O O14 0.702989 0.625740 0.915706
O O15 0.630114 0.658743 0.775255
O O16 0.802273 0.660437 0.883508
O O17 0.118896 0.750000 0.873183
#
# Coordination Sequence:
#
# PCOD8297310 Si02
#       7
#    16  16  16  16  16  16  16
#     4  10  20  35  55  80 110 145 187 241 292 333
#     4   9  18  30  46  71 104 140 177 226 286 343
#     4  11  18  28  50  78 110 141 185 235 288 332
#     4  10  17  28  47  74 107 140 177 225 285 342
#     4  10  19  31  48  72 105 143 184 229 277 341
#     4  11  20  31  49  77 111 147 185 232 285 342
#     4  11  23  37  54  78 111 152 189 227 285 356
#
# _framework density 18.261351999999999
#
# number of rings (size 3 to 8) (size 9 to 14) (size 15 to 20)
#    0.000    1.714    4.286    2.571    4.000    4.857 
#    0.000    0.000    0.000    0.429    0.000    6.000 
#    0.000    4.571    0.000    0.000    0.000    0.000 
#
# Total GULP energy -694489.280017 kJ/mol
# GULP energy per Si atom -12401.594286 kJ/mol
# Density = 1.821979 g / cm^3
# Si number density = 18.261352 Si / 1000 Ang^3
#
#
#
# Elastic Constant Matrix: (Units=GPa)
#
#
# Indices 1 2 3 4 5 6 
#
# 1 139.5192 40.2850 51.6445 0.0000 0.0000 0.0000
# 2 40.2850 68.8387 36.6358 0.0000 0.0000 0.0000
# 3 51.6445 36.6358 111.9439 0.0000 0.0000 0.0000
# 4 0.0000 0.0000 0.0000 13.3808 0.0000 0.0000
# 5 0.0000 0.0000 0.0000 0.0000 35.4064 0.0000
# 6 0.0000 0.0000 0.0000 0.0000 0.0000 10.5505
#
#
#
# Elastic Compliance Matrix: (Units=1/GPa)
#
#
# Indices 1 2 3 4 5 6 
#
# 1 0.009427 -0.003878 -0.003080 0.000000 0.000000 0.000000
# 2 -0.003878 0.019185 -0.004490 0.000000 0.000000 0.000000
# 3 -0.003080 -0.004490 0.011823 0.000000 0.000000 0.000000
# 4 0.000000 0.000000 0.000000 0.074734 0.000000 0.000000
# 5 0.000000 0.000000 0.000000 0.000000 0.028243 0.000000
# 6 0.000000 0.000000 0.000000 0.000000 0.000000 0.094782
#
#
# Mechanical properties :
#
#
# Convention : Reuss Voigt Hill
#
# Bulk Modulus (GPa) = 57.01003 64.15915 60.58459
# Shear Modulus (GPa) = 18.73093 24.64998 21.69046
#
# Velocity S-wave (km/s) = 3.20615 3.67801 3.45016
# Velocity P-wave (km/s) = 6.70765 7.29706 7.00856
#
# Compressibility (1/GPa) = 0.01754077
#
# Stress axis : x y z
#
# Youngs Moduli (GPa) = 106.07526 52.12282 84.57761
#
# Poissons Ratio (x) = 0.20211 0.26051
# Poissons Ratio (y) = 0.41132 0.37974
# Poissons Ratio (z) = 0.32673 0.23403
#
# Static dielectric constant tensor:
#      x y z
#    x 3.510920 0.000000 0.000000 
#    y 0.000000 2.716780 0.000000 
#    z 0.000000 0.000000 3.571660 
# 
# 
# High freq. dielectric constant tensor:
#      x y z
#    x 1.722570 0.000000 0.000000 
#    y 0.000000 1.628830 0.000000 
#    z 0.000000 0.000000 1.721420 
# 
# From -- ./inp_files/25361.got.cif
#   From: 2010.03.12/outbox.cif.g09.slc.cpg/sg74_13_cif.got.tgz:25361.got - 2010.04.16 15:46:19.
