data_PCOD8297643
_publ_section_title
;
Structure prediction by ZEFSAII (Michael W. Deem and Ramdas Pophale) SiO2 
 PCOD8297643
Probable space group: I M M A
;
_chemical_formula_sum "Si O2"
_cell_formula_units_Z 72
_cell_length_a 31.378331
_cell_length_b 8.682363
_cell_length_c 18.321418
_cell_angle_alpha 90.000000
_cell_angle_beta 90.000000
_cell_angle_gamma 90.000000
_cell_volume 4991.451578
_symmetry_space_group_name_H-M "I M M A"
_symmetry_group_IT_number 74
_symmetry_cell_setting 'orthorhombic'
loop_
_space_group_symop_operation_xyz
x,y,z
-x,1/2-y,z
x,-y,-z
-x,1/2+y,-z
-x,-y,-z
x,1/2+y,-z
-x,y,z
x,1/2-y,z
1/2+x,1/2+y,1/2+z
1/2-x,-y,1/2+z
1/2+x,1/2-y,1/2-z
1/2-x,y,1/2-z
1/2-x,1/2-y,1/2-z
1/2+x,y,1/2-z
1/2-x,1/2+y,1/2+z
1/2+x,-y,1/2+z
loop_
_atom_site_type_symbol
_atom_site_label
_atom_site_fract_x
_atom_site_fract_y
_atom_site_fract_z
Si Si1 0.000000 0.067083 0.919158
Si Si2 0.748892 0.569548 0.079388
Si Si3 0.085943 0.568753 0.920162
Si Si4 0.163976 0.070626 0.839820
Si Si5 0.705437 0.423075 0.209002
O O1 0.000000 0.250000 0.918444
O O2 0.956632 0.003295 0.882572
O O3 0.000000 0.000000 0.000000
O O4 0.741571 0.750000 0.076528
O O5 0.795346 0.528610 0.110736
O O6 0.711754 0.497755 0.129572
O O7 0.744358 0.500000 0.000000
O O8 0.080267 0.750000 0.928045
O O9 0.125055 0.530558 0.868006
O O10 0.094783 0.500000 0.000000
O O11 0.152604 0.250000 0.844605
O O12 0.172315 0.024558 0.755771
O O13 0.687696 0.250000 0.200411
O O14 0.750000 0.423167 0.250000
#
# Coordination Sequence:
#
# PCOD8297643 Si02
#       5
#     8  16  16  16  16
#     4  10  18  30  44  58  78 104 133 166 205 244
#     4  10  19  29  42  59  80 106 137 172 206 242
#     4  11  20  30  43  60  81 106 137 171 206 242
#     4  10  19  30  43  60  81 106 137 171 206 242
#     4   9  17  29  43  58  78 104 133 166 205 245
#
# _framework density 14.424661
#
# number of rings (size 3 to 8) (size 9 to 14) (size 15 to 20)
#    0.000    2.000    0.000    7.000    0.000    7.111 
#    0.000    0.000    0.000    0.000    0.000    0.000 
#    0.000    0.000    0.000    1.000    0.000   14.000 
#
# Total GULP energy -446394.006848 kJ/mol
# GULP energy per Si atom -12399.833524 kJ/mol
# Density = 1.439183 g / cm^3
# Si number density = 14.424661 Si / 1000 Ang^3
#
#
#
# Elastic Constant Matrix: (Units=GPa)
#
#
# Indices 1 2 3 4 5 6 
#
# 1 64.5311 37.1984 37.5021 0.0000 0.0000 0.0000
# 2 37.1984 103.4429 37.6889 0.0000 0.0000 0.0000
# 3 37.5021 37.6889 90.3706 0.0000 0.0000 0.0000
# 4 0.0000 0.0000 0.0000 25.7452 0.0000 0.0000
# 5 0.0000 0.0000 0.0000 0.0000 13.8543 0.0000
# 6 0.0000 0.0000 0.0000 0.0000 0.0000 23.8320
#
#
#
# Elastic Compliance Matrix: (Units=1/GPa)
#
#
# Indices 1 2 3 4 5 6 
#
# 1 0.022899 -0.005627 -0.007156 0.000000 0.000000 0.000000
# 2 -0.005627 0.012782 -0.002996 0.000000 0.000000 0.000000
# 3 -0.007156 -0.002996 0.015284 0.000000 0.000000 0.000000
# 4 0.000000 0.000000 0.000000 0.038842 0.000000 0.000000
# 5 0.000000 0.000000 0.000000 0.000000 0.072180 0.000000
# 6 0.000000 0.000000 0.000000 0.000000 0.000000 0.041960
#
#
# Mechanical properties :
#
#
# Convention : Reuss Voigt Hill
#
# Bulk Modulus (GPa) = 51.52484 53.68037 52.60260
# Shear Modulus (GPa) = 20.66337 22.41664 21.54001
#
# Velocity S-wave (km/s) = 3.78895 3.94642 3.86849
# Velocity P-wave (km/s) = 7.41209 7.61976 7.51664
#
# Compressibility (1/GPa) = 0.01940812
#
# Stress axis : x y z
#
# Youngs Moduli (GPa) = 43.67053 78.23386 65.42657
#
# Poissons Ratio (x) = 0.44025 0.46817
# Poissons Ratio (y) = 0.24575 0.19599
# Poissons Ratio (z) = 0.31249 0.23435
#
# Static dielectric constant tensor:
#      x y z
#    x 2.954970 0.000000 0.000000 
#    y 0.000000 2.998280 0.000000 
#    z 0.000000 0.000000 2.676950 
# 
# 
# High freq. dielectric constant tensor:
#      x y z
#    x 1.525650 0.000000 0.000000 
#    y 0.000000 1.576270 0.000000 
#    z 0.000000 0.000000 1.522760 
# 
# From -- ./inp_files/29392.got.cif
#   From: 2010.03.12/outbox.cif.g09.slc.cpg/sg74_15_cif.got.tgz:29392.got - 2010.04.16 15:46:19.
