data_PCOD8297889
_publ_section_title
;
Structure prediction by ZEFSAII (Michael W. Deem and Ramdas Pophale) SiO2 
 PCOD8297889
Probable space group: I M M A
;
_chemical_formula_sum "Si O2"
_cell_formula_units_Z 96
_cell_length_a 17.594830
_cell_length_b 15.615158
_cell_length_c 19.597989
_cell_angle_alpha 90.000000
_cell_angle_beta 90.000000
_cell_angle_gamma 90.000000
_cell_volume 5384.470074
_symmetry_space_group_name_H-M "I M M A"
_symmetry_group_IT_number 74
_symmetry_cell_setting 'orthorhombic'
loop_
_space_group_symop_operation_xyz
x,y,z
-x,1/2-y,z
x,-y,-z
-x,1/2+y,-z
-x,-y,-z
x,1/2+y,-z
-x,y,z
x,1/2-y,z
1/2+x,1/2+y,1/2+z
1/2-x,-y,1/2+z
1/2+x,1/2-y,1/2-z
1/2-x,y,1/2-z
1/2-x,1/2-y,1/2-z
1/2+x,y,1/2-z
1/2-x,1/2+y,1/2+z
1/2+x,-y,1/2+z
loop_
_atom_site_type_symbol
_atom_site_label
_atom_site_fract_x
_atom_site_fract_y
_atom_site_fract_z
Si Si1 0.087797 0.346707 0.241363
Si Si2 0.334251 0.657872 0.222659
Si Si3 0.809127 0.475138 0.312350
Si Si4 0.331856 0.074146 0.378132
Si Si5 0.913159 0.847063 0.998819
Si Si6 0.087800 0.598858 0.147753
O O1 0.095467 0.250000 0.269231
O O2 0.120847 0.411438 0.298326
O O3 0.135662 0.351289 0.170840
O O4 0.000000 0.370284 0.227314
O O5 0.351238 0.750000 0.184769
O O6 0.250000 0.660732 0.250000
O O7 0.341720 0.572301 0.175239
O O8 0.391098 0.655402 0.287049
O O9 0.750000 0.474408 0.250000
O O10 0.760112 0.437986 0.376381
O O11 0.357920 0.091441 0.455539
O O12 0.366499 0.988369 0.346536
O O13 0.902564 0.750000 0.974179
O O14 0.890407 0.852379 0.078055
O O15 0.000000 0.877507 0.987360
O O16 0.000000 0.576368 0.149364
#
# Coordination Sequence:
#
# PCOD8297889 Si02
#       6
#    16  16  16  16  16  16
#     4  10  19  30  47  70  96 128 164 205 252 296
#     4  10  18  32  50  67  92 127 163 206 252 292
#     4   9  18  32  46  68  93 125 167 207 245 294
#     4  11  19  31  47  67  95 135 170 200 245 293
#     4  10  21  33  45  68 101 136 173 206 240 289
#     4  11  20  32  49  71  99 132 169 208 244 291
#
# _framework density 17.829052000000001
#
# number of rings (size 3 to 8) (size 9 to 14) (size 15 to 20)
#    0.000    1.833    5.000    3.000    0.000    7.333 
#    0.000    0.000    0.000    0.000    0.000    0.000 
#    0.000    4.000    0.000    2.500    0.000    0.000 
#
# Total GULP energy -594870.070567 kJ/mol
# GULP energy per Si atom -12393.126470 kJ/mol
# Density = 1.778847 g / cm^3
# Si number density = 17.829052 Si / 1000 Ang^3
#
#
#
# Elastic Constant Matrix: (Units=GPa)
#
#
# Indices 1 2 3 4 5 6 
#
# 1 69.0514 38.9262 36.0977 0.0000 0.0000 0.0000
# 2 38.9262 116.7977 15.7950 0.0000 0.0000 0.0000
# 3 36.0977 15.7950 43.5069 0.0000 0.0000 0.0000
# 4 0.0000 0.0000 0.0000 19.3064 0.0000 0.0000
# 5 0.0000 0.0000 0.0000 0.0000 22.8663 0.0000
# 6 0.0000 0.0000 0.0000 0.0000 0.0000 32.3702
#
#
#
# Elastic Compliance Matrix: (Units=1/GPa)
#
#
# Indices 1 2 3 4 5 6 
#
# 1 0.030213 -0.007024 -0.022518 0.000000 0.000000 0.000000
# 2 -0.007024 0.010637 0.001966 0.000000 0.000000 0.000000
# 3 -0.022518 0.001966 0.040954 0.000000 0.000000 0.000000
# 4 0.000000 0.000000 0.000000 0.051796 0.000000 0.000000
# 5 0.000000 0.000000 0.000000 0.000000 0.043732 0.000000
# 6 0.000000 0.000000 0.000000 0.000000 0.000000 0.030893
#
#
# Mechanical properties :
#
#
# Convention : Reuss Voigt Hill
#
# Bulk Modulus (GPa) = 37.51959 45.66597 41.59278
# Shear Modulus (GPa) = 18.36468 24.14439 21.25453
#
# Velocity S-wave (km/s) = 3.21291 3.68396 3.45647
# Velocity P-wave (km/s) = 5.90368 6.61546 6.26968
#
# Compressibility (1/GPa) = 0.02665274
#
# Stress axis : x y z
#
# Youngs Moduli (GPa) = 33.09793 94.01198 24.41755
#
# Poissons Ratio (x) = 0.66037 0.54983
# Poissons Ratio (y) = 0.23249 -0.04801
# Poissons Ratio (z) = 0.74530 -0.18486
#
# Static dielectric constant tensor:
#      x y z
#    x 3.454280 0.000000 0.000000 
#    y 0.000000 3.787590 0.000000 
#    z 0.000000 0.000000 2.976360 
# 
# 
# High freq. dielectric constant tensor:
#      x y z
#    x 1.672900 0.000000 0.000000 
#    y 0.000000 1.712360 0.000000 
#    z 0.000000 0.000000 1.630030 
# 
# From -- ./inp_files/51918.got.cif
#   From: 2010.03.12/outbox.cif.g09.slc.cpg/sg74_26_cif.got.tgz:51918.got - 2010.04.16 15:46:19.
