data_PCOD8297159
_publ_section_title
;
Structure prediction by ZEFSAII (Michael W. Deem and Ramdas Pophale) SiO2 
 PCOD8297159
Probable space group: I M M A
;
_chemical_formula_sum "Si O2"
_cell_formula_units_Z 72
_cell_length_a 18.747327
_cell_length_b 9.486962
_cell_length_c 22.788549
_cell_angle_alpha 90.000000
_cell_angle_beta 90.000000
_cell_angle_gamma 90.000000
_cell_volume 4053.061458
_symmetry_space_group_name_H-M "I M M A"
_symmetry_group_IT_number 74
_symmetry_cell_setting 'orthorhombic'
loop_
_space_group_symop_operation_xyz
x,y,z
-x,1/2-y,z
x,-y,-z
-x,1/2+y,-z
-x,-y,-z
x,1/2+y,-z
-x,y,z
x,1/2-y,z
1/2+x,1/2+y,1/2+z
1/2-x,-y,1/2+z
1/2+x,1/2-y,1/2-z
1/2-x,y,1/2-z
1/2-x,1/2-y,1/2-z
1/2+x,y,1/2-z
1/2-x,1/2+y,1/2+z
1/2+x,-y,1/2+z
loop_
_atom_site_type_symbol
_atom_site_label
_atom_site_fract_x
_atom_site_fract_y
_atom_site_fract_z
Si Si1 0.652727 0.594630 0.853018
Si Si2 0.149136 0.090641 0.849130
Si Si3 0.737827 0.419157 0.939251
Si Si4 0.500000 0.408271 0.197230
Si Si5 0.250000 0.494735 0.250000
Si Si6 0.000000 0.081122 0.811118
O O1 0.664134 0.750000 0.881046
O O2 0.672914 0.472228 0.898834
O O3 0.569717 0.568797 0.841831
O O4 0.699427 0.595226 0.793045
O O5 0.132955 0.250000 0.864044
O O6 0.190669 0.028411 0.905317
O O7 0.071382 0.018004 0.842066
O O8 0.196833 0.086436 0.790187
O O9 0.733057 0.250000 0.946908
O O10 0.735967 0.500000 0.000000
O O11 0.500000 0.250000 0.224571
O O12 0.500000 0.528228 0.245343
O O13 0.000000 0.250000 0.808883
#
# Coordination Sequence:
#
# PCOD8297159 Si02
#       6
#    16  16  16   8   8   8
#     4  10  20  33  52  78 108 141 173 212 259 310
#     4   9  18  30  50  77 107 138 173 216 260 307
#     4  10  21  38  57  77 101 134 178 225 264 307
#     4  10  20  34  49  76 115 144 170 207 256 309
#     4  10  16  28  50  76 109 138 175 210 257 306
#     4  10  18  32  51  76 108 144 176 207 253 311
#
# _framework density 17.76435
#
# number of rings (size 3 to 8) (size 9 to 14) (size 15 to 20)
#    0.000    2.222    2.222    1.333    0.000    1.778 
#    0.000    2.222    0.000    0.000    0.000    0.000 
#    0.000    0.000    0.000    0.000    0.000    0.000 
#
# Total GULP energy -446025.139741 kJ/mol
# GULP energy per Si atom -12389.587215 kJ/mol
# Density = 1.772392 g / cm^3
# Si number density = 17.764350 Si / 1000 Ang^3
#
#
#
# Elastic Constant Matrix: (Units=GPa)
#
#
# Indices 1 2 3 4 5 6 
#
# 1 155.3343 37.9707 58.0650 0.0000 0.0000 0.0000
# 2 37.9707 76.5043 45.0554 0.0000 0.0000 0.0000
# 3 58.0650 45.0554 112.1307 0.0000 0.0000 0.0000
# 4 0.0000 0.0000 0.0000 27.0037 0.0000 0.0000
# 5 0.0000 0.0000 0.0000 0.0000 11.6215 0.0000
# 6 0.0000 0.0000 0.0000 0.0000 0.0000 5.6942
#
#
#
# Elastic Compliance Matrix: (Units=1/GPa)
#
#
# Indices 1 2 3 4 5 6 
#
# 1 0.008224 -0.002062 -0.003430 0.000000 0.000000 0.000000
# 2 -0.002062 0.017640 -0.006020 0.000000 0.000000 0.000000
# 3 -0.003430 -0.006020 0.013114 0.000000 0.000000 0.000000
# 4 0.000000 0.000000 0.000000 0.037032 0.000000 0.000000
# 5 0.000000 0.000000 0.000000 0.000000 0.086048 0.000000
# 6 0.000000 0.000000 0.000000 0.000000 0.000000 0.175617
#
#
# Mechanical properties :
#
#
# Convention : Reuss Voigt Hill
#
# Bulk Modulus (GPa) = 62.68422 69.57239 66.12831
# Shear Modulus (GPa) = 13.66059 22.38909 18.02484
#
# Velocity S-wave (km/s) = 2.77607 3.55398 3.18883
# Velocity P-wave (km/s) = 6.75563 7.48933 7.13192
#
# Compressibility (1/GPa) = 0.01595298
#
# Stress axis : x y z
#
# Youngs Moduli (GPa) = 121.59662 56.68964 76.25701
#
# Poissons Ratio (x) = 0.11687 0.26158
# Poissons Ratio (y) = 0.25067 0.45910
# Poissons Ratio (z) = 0.41711 0.34129
#
# Static dielectric constant tensor:
#      x y z
#    x 4.295770 0.000000 0.000000 
#    y 0.000000 3.204210 0.000000 
#    z 0.000000 0.000000 3.125740 
# 
# 
# High freq. dielectric constant tensor:
#      x y z
#    x 1.701570 0.000000 0.000000 
#    y 0.000000 1.676950 0.000000 
#    z 0.000000 0.000000 1.665880 
# 
# From -- ./inp_files/48406.got.cif
#   From: 2010.03.12/outbox.cif.g09.slc.cpg/sg74_25_cif.got.tgz:48406.got - 2010.04.16 15:46:19.
