data_PCOD8297944
_publ_section_title
;
Structure prediction by ZEFSAII (Michael W. Deem and Ramdas Pophale) SiO2 
 PCOD8297944
Probable space group: I M M A
;
_chemical_formula_sum "Si O2"
_cell_formula_units_Z 72
_cell_length_a 10.901403
_cell_length_b 10.310775
_cell_length_c 35.367138
_cell_angle_alpha 90.000000
_cell_angle_beta 90.000000
_cell_angle_gamma 90.000000
_cell_volume 3975.333987
_symmetry_space_group_name_H-M "I M M A"
_symmetry_group_IT_number 74
_symmetry_cell_setting 'orthorhombic'
loop_
_space_group_symop_operation_xyz
x,y,z
-x,1/2-y,z
x,-y,-z
-x,1/2+y,-z
-x,-y,-z
x,1/2+y,-z
-x,y,z
x,1/2-y,z
1/2+x,1/2+y,1/2+z
1/2-x,-y,1/2+z
1/2+x,1/2-y,1/2-z
1/2-x,y,1/2-z
1/2-x,1/2-y,1/2-z
1/2+x,y,1/2-z
1/2-x,1/2+y,1/2+z
1/2+x,-y,1/2+z
loop_
_atom_site_type_symbol
_atom_site_label
_atom_site_fract_x
_atom_site_fract_y
_atom_site_fract_z
Si Si1 0.860076 0.501217 0.669215
Si Si2 0.853936 0.250000 0.717566
Si Si3 0.857723 0.250000 0.280408
Si Si4 0.286097 0.897140 0.906398
Si Si5 0.641574 0.891051 0.526232
Si Si6 0.000000 0.401415 0.464811
O O1 0.824242 0.373913 0.692159
O O2 0.833148 0.623398 0.695223
O O3 0.784809 0.509486 0.630060
O O4 0.000000 0.498506 0.656303
O O5 0.750000 0.250000 0.750000
O O6 0.000000 0.250000 0.731086
O O7 0.750000 0.250000 0.250000
O O8 0.000000 0.250000 0.264555
O O9 0.306414 0.750000 0.891674
O O10 0.158185 0.917635 0.928801
O O11 0.384198 0.932978 0.938465
O O12 0.500000 0.886027 0.516500
O O13 0.701711 0.750000 0.516710
O O14 0.705694 0.000000 0.500000
O O15 0.000000 0.500000 0.500000
O O16 0.000000 0.250000 0.478028
#
# Coordination Sequence:
#
# PCOD8297944 Si02
#       6
#    16   8   8  16  16   8
#     4  10  19  35  57  80 107 143 177 213 272 336
#     4  10  22  40  60  82 112 145 180 222 279 336
#     4  10  20  34  58  84 108 137 180 220 267 330
#     4  10  18  32  53  74 104 137 174 215 266 312
#     4   9  18  33  51  70  98 138 180 220 265 314
#     4  10  20  32  48  74 108 138 170 214 262 302
#
# _framework density 18.111684
#
# number of rings (size 3 to 8) (size 9 to 14) (size 15 to 20)
#    0.000    2.222    2.222    1.333    0.000    0.000 
#    4.000    2.222    0.000    0.000    0.000    0.000 
#    0.000    0.000    0.000    0.000    0.000    0.000 
#
# Total GULP energy -445999.831122 kJ/mol
# GULP energy per Si atom -12388.884198 kJ/mol
# Density = 1.807046 g / cm^3
# Si number density = 18.111684 Si / 1000 Ang^3
#
#
#
# Elastic Constant Matrix: (Units=GPa)
#
#
# Indices 1 2 3 4 5 6 
#
# 1 47.3040 33.1642 43.3221 0.0000 0.0000 0.0000
# 2 33.1642 145.3089 87.7292 0.0000 0.0000 0.0000
# 3 43.3221 87.7292 138.2462 0.0000 0.0000 0.0000
# 4 0.0000 0.0000 0.0000 33.8292 0.0000 0.0000
# 5 0.0000 0.0000 0.0000 0.0000 27.9220 0.0000
# 6 0.0000 0.0000 0.0000 0.0000 0.0000 24.1904
#
#
#
# Elastic Compliance Matrix: (Units=1/GPa)
#
#
# Indices 1 2 3 4 5 6 
#
# 1 0.029968 -0.001896 -0.008187 0.000000 0.000000 0.000000
# 2 -0.001896 0.011276 -0.006561 0.000000 0.000000 0.000000
# 3 -0.008187 -0.006561 0.013963 0.000000 0.000000 0.000000
# 4 0.000000 0.000000 0.000000 0.029560 0.000000 0.000000
# 5 0.000000 0.000000 0.000000 0.000000 0.035814 0.000000
# 6 0.000000 0.000000 0.000000 0.000000 0.000000 0.041339
#
#
# Mechanical properties :
#
#
# Convention : Reuss Voigt Hill
#
# Bulk Modulus (GPa) = 45.62853 73.25446 59.44149
# Shear Modulus (GPa) = 24.68944 28.29791 26.49368
#
# Velocity S-wave (km/s) = 3.69613 3.95702 3.82880
# Velocity P-wave (km/s) = 6.59263 7.83653 7.24134
#
# Compressibility (1/GPa) = 0.02191611
#
# Stress axis : x y z
#
# Youngs Moduli (GPa) = 33.36923 88.68314 71.61821
#
# Poissons Ratio (x) = 0.16819 0.58637
# Poissons Ratio (y) = 0.06328 0.46991
# Poissons Ratio (z) = 0.27321 0.58188
#
# Static dielectric constant tensor:
#      x y z
#    x 3.483160 0.000000 0.000000 
#    y 0.000000 3.713130 0.000000 
#    z 0.000000 0.000000 3.266100 
# 
# 
# High freq. dielectric constant tensor:
#      x y z
#    x 1.690800 0.000000 0.000000 
#    y 0.000000 1.704960 0.000000 
#    z 0.000000 0.000000 1.695650 
# 
# From -- ./inp_files/65721.got.cif
#   From: 2010.03.12/outbox.cif.g09.slc.cpg/sg74_33_cif.got.tgz:65721.got - 2010.04.16 15:46:19.
