data_PCOD8297464
_publ_section_title
;
Structure prediction by ZEFSAII (Michael W. Deem and Ramdas Pophale) SiO2 
 PCOD8297464
Probable space group: I M M A
;
_chemical_formula_sum "Si O2"
_cell_formula_units_Z 72
_cell_length_a 8.842033
_cell_length_b 31.693784
_cell_length_c 18.278013
_cell_angle_alpha 90.000000
_cell_angle_beta 90.000000
_cell_angle_gamma 90.000000
_cell_volume 5122.184376
_symmetry_space_group_name_H-M "I M M A"
_symmetry_group_IT_number 74
_symmetry_cell_setting 'orthorhombic'
loop_
_space_group_symop_operation_xyz
x,y,z
-x,1/2-y,z
x,-y,-z
-x,1/2+y,-z
-x,-y,-z
x,1/2+y,-z
-x,y,z
x,1/2-y,z
1/2+x,1/2+y,1/2+z
1/2-x,-y,1/2+z
1/2+x,1/2-y,1/2-z
1/2-x,y,1/2-z
1/2-x,1/2-y,1/2-z
1/2+x,y,1/2-z
1/2-x,1/2+y,1/2+z
1/2+x,-y,1/2+z
loop_
_atom_site_type_symbol
_atom_site_label
_atom_site_fract_x
_atom_site_fract_y
_atom_site_fract_z
Si Si1 0.319259 0.750000 0.330714
Si Si2 0.829705 0.043016 0.044637
Si Si3 0.823461 0.417586 0.584529
Si Si4 0.821943 0.999767 0.328453
Si Si5 0.821182 0.833954 0.329112
O O1 0.500000 0.750000 0.330574
O O2 0.250000 0.750000 0.250000
O O3 0.254397 0.707292 0.367631
O O4 0.000000 0.055615 0.065331
O O5 0.734714 0.037473 0.118972
O O6 0.759314 0.079516 0.993741
O O7 0.822297 0.000000 0.000000
O O8 0.769565 0.454489 0.639591
O O9 0.780449 0.373029 0.619469
O O10 0.000000 0.422276 0.569412
O O11 0.750000 0.006333 0.250000
O O12 0.000000 0.002614 0.320929
O O13 0.750000 0.842719 0.250000
O O14 0.000000 0.827412 0.320250
#
# Coordination Sequence:
#
# PCOD8297464 Si02
#       5
#     8  16  16  16  16
#     4  10  18  28  40  54  74 100 129 160 197 234
#     4   9  17  28  41  56  75 100 129 160 195 233
#     4   9  18  29  41  57  77 102 130 163 199 233
#     4  10  18  28  41  57  78 102 131 164 197 232
#     4  10  18  28  41  57  77 101 131 164 198 233
#
# _framework density 14.056502
#
# number of rings (size 3 to 8) (size 9 to 14) (size 15 to 20)
#    0.000    2.444    0.000    5.000    0.000    5.333 
#    0.000    0.000    0.000    0.000    0.000    0.000 
#    0.000    0.000    0.000    1.000    0.000   13.111 
#
# Total GULP energy -446325.878667 kJ/mol
# GULP energy per Si atom -12397.941074 kJ/mol
# Density = 1.402451 g / cm^3
# Si number density = 14.056502 Si / 1000 Ang^3
#
#
#
# Elastic Constant Matrix: (Units=GPa)
#
#
# Indices 1 2 3 4 5 6 
#
# 1 84.7459 44.1067 46.8625 0.0000 0.0000 0.0000
# 2 44.1067 87.4463 50.0696 -0.0001 0.0000 0.0000
# 3 46.8625 50.0696 92.1947 -0.0006 -0.0001 -0.0001
# 4 0.0000 -0.0001 -0.0006 17.4905 -0.0001 0.0000
# 5 0.0000 0.0000 -0.0001 -0.0001 25.8974 -0.0001
# 6 0.0000 0.0000 -0.0001 0.0000 -0.0001 20.2319
#
#
#
# Elastic Compliance Matrix: (Units=1/GPa)
#
#
# Indices 1 2 3 4 5 6 
#
# 1 0.018133 -0.005614 -0.006168 0.000000 0.000000 0.000000
# 2 -0.005614 0.018335 -0.007104 0.000000 0.000000 0.000000
# 3 -0.006168 -0.007104 0.017839 0.000001 0.000000 0.000000
# 4 0.000000 0.000000 0.000001 0.057174 0.000000 0.000000
# 5 0.000000 0.000000 0.000000 0.000000 0.038614 0.000000
# 6 0.000000 0.000000 0.000000 0.000000 0.000000 0.049427
#
#
# Mechanical properties :
#
#
# Convention : Reuss Voigt Hill
#
# Bulk Modulus (GPa) = 60.47566 60.71829 60.59697
# Shear Modulus (GPa) = 20.59269 20.94716 20.76993
#
# Velocity S-wave (km/s) = 3.83168 3.86451 3.84813
# Velocity P-wave (km/s) = 7.91785 7.94999 7.93393
#
# Compressibility (1/GPa) = 0.01653558
#
# Stress axis : x y z
#
# Youngs Moduli (GPa) = 55.14917 54.54135 56.05543
#
# Poissons Ratio (x) = 0.30622 0.34573
# Poissons Ratio (y) = 0.30963 0.39819
# Poissons Ratio (z) = 0.34014 0.38744
#
# Static dielectric constant tensor:
#      x y z
#    x 2.897700 0.000000 0.000000 
#    y 0.000000 2.944910 0.000000 
#    z 0.000000 0.000000 2.627530 
# 
# 
# High freq. dielectric constant tensor:
#      x y z
#    x 1.555080 0.000000 0.000000 
#    y 0.000000 1.512590 0.000000 
#    z 0.000000 0.000000 1.508190 
# 
# From -- ./inp_files/48926.got.cif
#   From: 2010.03.12/outbox.cif.g09.slc.cpg/sg74_25_cif.got.tgz:48926.got - 2010.04.16 15:46:19.
