data_PCOD8297609
_publ_section_title
;
Structure prediction by ZEFSAII (Michael W. Deem and Ramdas Pophale) SiO2 
 PCOD8297609
Probable space group: I M M A
;
_chemical_formula_sum "Si O2"
_cell_formula_units_Z 112
_cell_length_a 21.365565
_cell_length_b 23.707033
_cell_length_c 12.306261
_cell_angle_alpha 90.000000
_cell_angle_beta 90.000000
_cell_angle_gamma 90.000000
_cell_volume 6233.295386
_symmetry_space_group_name_H-M "I M M A"
_symmetry_group_IT_number 74
_symmetry_cell_setting 'orthorhombic'
loop_
_space_group_symop_operation_xyz
x,y,z
-x,1/2-y,z
x,-y,-z
-x,1/2+y,-z
-x,-y,-z
x,1/2+y,-z
-x,y,z
x,1/2-y,z
1/2+x,1/2+y,1/2+z
1/2-x,-y,1/2+z
1/2+x,1/2-y,1/2-z
1/2-x,y,1/2-z
1/2-x,1/2-y,1/2-z
1/2+x,y,1/2-z
1/2-x,1/2+y,1/2+z
1/2+x,-y,1/2+z
loop_
_atom_site_type_symbol
_atom_site_label
_atom_site_fract_x
_atom_site_fract_y
_atom_site_fract_z
Si Si1 0.363115 0.687564 0.410387
Si Si2 0.570541 0.503155 0.332438
Si Si3 0.723287 0.811007 0.006082
Si Si4 0.681674 0.371030 0.796168
Si Si5 0.141073 0.009035 0.617808
Si Si6 0.880728 0.919965 0.986315
Si Si7 0.254308 0.917478 0.875963
O O1 0.394502 0.750000 0.402765
O O2 0.294373 0.693338 0.456795
O O3 0.363271 0.655121 0.295306
O O4 0.399017 0.645613 0.493705
O O5 0.500000 0.526685 0.323193
O O6 0.596418 0.487090 0.213810
O O7 0.615242 0.547234 0.397053
O O8 0.569492 0.445253 0.401988
O O9 0.702919 0.750000 0.956593
O O10 0.711816 0.861648 0.922198
O O11 0.683494 0.822175 0.114125
O O12 0.750000 0.386644 0.750000
O O13 0.654425 0.426080 0.854865
O O14 0.204879 0.973455 0.608585
O O15 0.107527 0.000000 0.500000
O O16 0.811167 0.927765 0.937264
O O17 0.250000 0.904598 0.750000
#
# Coordination Sequence:
#
# PCOD8297609 Si02
#       7
#    16  16  16  16  16  16  16
#     4   9  17  30  51  81 113 143 177 223 282 339
#     4  11  24  40  58  79 110 152 195 233 279 336
#     4   9  18  30  45  71 111 153 185 215 269 343
#     4  10  18  29  48  76 112 148 179 224 276 339
#     4  12  23  34  55  84 115 146 187 233 290 334
#     4  10  20  35  58  83 111 145 181 229 284 332
#     4  11  21  31  51  83 119 144 181 230 282 342
#
# _framework density 17.968024
#
# number of rings (size 3 to 8) (size 9 to 14) (size 15 to 20)
#    0.000    1.714    4.286    1.714    2.000    2.286 
#    0.000    0.000    0.000    1.714    0.000    0.000 
#    0.000    1.143    0.000    0.000    0.000    0.000 
#
# Total GULP energy -693841.378826 kJ/mol
# GULP energy per Si atom -12390.024622 kJ/mol
# Density = 1.792713 g / cm^3
# Si number density = 17.968024 Si / 1000 Ang^3
#
#
#
# Elastic Constant Matrix: (Units=GPa)
#
#
# Indices 1 2 3 4 5 6 
#
# 1 49.0660 20.0585 25.9268 0.0000 0.0000 0.0000
# 2 20.0585 139.7152 43.8425 0.0000 0.0000 0.0000
# 3 25.9268 43.8425 123.8769 0.0000 0.0000 0.0000
# 4 0.0000 0.0000 0.0000 26.3416 0.0000 0.0000
# 5 0.0000 0.0000 0.0000 0.0000 7.9753 0.0000
# 6 0.0000 0.0000 0.0000 0.0000 0.0000 -8.7433
#
#
#
# Elastic Compliance Matrix: (Units=1/GPa)
#
#
# Indices 1 2 3 4 5 6 
#
# 1 0.023427 -0.002053 -0.004177 0.000000 0.000000 0.000000
# 2 -0.002053 0.008231 -0.002484 0.000000 0.000000 0.000000
# 3 -0.004177 -0.002484 0.009826 0.000000 0.000000 0.000000
# 4 0.000000 0.000000 0.000000 0.037963 0.000000 0.000000
# 5 0.000000 0.000000 0.000000 0.000000 0.125387 0.000000
# 6 0.000000 0.000000 0.000000 0.000000 0.000000 -0.114373
#
#
# Mechanical properties :
#
#
# Convention : Reuss Voigt Hill
#
# Bulk Modulus (GPa) = 41.56617 54.70153 48.13385
# Shear Modulus (GPa) = 43.13835 19.97007 31.55421
#
# Velocity S-wave (km/s) = 4.90515 3.33742 4.19517
# Velocity P-wave (km/s) = 7.43400 6.73506 7.09314
#
# Compressibility (1/GPa) = 0.02405803
#
# Stress axis : x y z
#
# Youngs Moduli (GPa) = 42.68610 121.48469 101.77394
#
# Poissons Ratio (x) = 0.24937 0.42507
# Poissons Ratio (y) = 0.08762 0.25277
# Poissons Ratio (z) = 0.17828 0.30173
#
# Static dielectric constant tensor:
#      x y z
#    x 2.840290 0.000000 0.000000 
#    y 0.000000 3.771710 0.000000 
#    z 0.000000 0.000000 3.640170 
# 
# 
# High freq. dielectric constant tensor:
#      x y z
#    x 1.634430 0.000000 0.000000 
#    y 0.000000 1.705160 0.000000 
#    z 0.000000 0.000000 1.705410 
# 
# From -- ./inp_files/25531.got.cif
#   From: 2010.03.12/outbox.cif.g09.slc.cpg/sg74_13_cif.got.tgz:25531.got - 2010.04.16 15:46:19.
