data_PCOD8297890
_publ_section_title
;
Structure prediction by ZEFSAII (Michael W. Deem and Ramdas Pophale) SiO2 
 PCOD8297890
Probable space group: I M M A
;
_chemical_formula_sum "Si O2"
_cell_formula_units_Z 120
_cell_length_a 16.838298
_cell_length_b 19.321841
_cell_length_c 22.377173
_cell_angle_alpha 90.000000
_cell_angle_beta 90.000000
_cell_angle_gamma 90.000000
_cell_volume 7280.344239
_symmetry_space_group_name_H-M "I M M A"
_symmetry_group_IT_number 74
_symmetry_cell_setting 'orthorhombic'
loop_
_space_group_symop_operation_xyz
x,y,z
-x,1/2-y,z
x,-y,-z
-x,1/2+y,-z
-x,-y,-z
x,1/2+y,-z
-x,y,z
x,1/2-y,z
1/2+x,1/2+y,1/2+z
1/2-x,-y,1/2+z
1/2+x,1/2-y,1/2-z
1/2-x,y,1/2-z
1/2-x,1/2-y,1/2-z
1/2+x,y,1/2-z
1/2-x,1/2+y,1/2+z
1/2+x,-y,1/2+z
loop_
_atom_site_type_symbol
_atom_site_label
_atom_site_fract_x
_atom_site_fract_y
_atom_site_fract_z
Si Si1 0.908179 0.828428 0.135447
Si Si2 0.701453 0.500000 0.500000
Si Si3 0.183978 0.824922 0.892477
Si Si4 0.768577 0.463526 0.382386
Si Si5 0.158175 0.828320 0.760508
Si Si6 0.907385 0.368474 0.998283
Si Si7 0.409718 0.540584 0.799251
Si Si8 0.822951 0.052917 0.790502
O O1 0.889341 0.750000 0.156266
O O2 0.888411 0.833005 0.065082
O O3 0.855793 0.881421 0.173560
O O4 0.000000 0.846842 0.146553
O O5 0.758797 0.507629 0.442833
O O6 0.642425 0.562952 0.505735
O O7 0.227700 0.750000 0.890716
O O8 0.251101 0.883492 0.898143
O O9 0.136503 0.835118 0.830399
O O10 0.120675 0.821382 0.946521
O O11 0.857511 0.472050 0.358464
O O12 0.705650 0.492035 0.334362
O O13 0.142376 0.750000 0.737368
O O14 0.250000 0.849542 0.750000
O O15 0.103952 0.881816 0.724619
O O16 0.000000 0.385163 0.004522
O O17 0.500000 0.531826 0.818951
O O18 0.390522 0.482142 0.749948
O O19 0.750000 0.079694 0.750000
#
# Coordination Sequence:
#
# PCOD8297890 Si02
#       8
#    16   8  16  16  16  16  16  16
#     4  10  20  34  51  73 103 131 156 195 248 296
#     4  10  19  34  55  72  94 128 170 206 239 294
#     4  10  19  31  49  69 100 141 172 199 233 280
#     4  10  19  35  53  74  94 130 171 206 243 295
#     4  10  18  32  50  69 100 140 177 205 234 280
#     4  10  20  32  48  74 104 132 162 200 240 286
#     4  11  21  33  50  74 102 130 164 210 258 292
#     4  10  19  35  53  72 100 129 166 203 241 298
#
# _framework density 16.482737
#
# number of rings (size 3 to 8) (size 9 to 14) (size 15 to 20)
#    0.000    1.867    4.000    1.400    0.000    1.867 
#    0.000    1.667    0.000    0.000    0.000    0.000 
#    0.000    0.000    0.000    0.000    0.000    0.000 
#
# Total GULP energy -743836.731090 kJ/mol
# GULP energy per Si atom -12397.278852 kJ/mol
# Density = 1.644522 g / cm^3
# Si number density = 16.482737 Si / 1000 Ang^3
#
#
#
# Elastic Constant Matrix: (Units=GPa)
#
#
# Indices 1 2 3 4 5 6 
#
# 1 97.7785 35.6444 49.0413 0.0000 0.0000 0.0000
# 2 35.6444 75.0613 29.2873 0.0000 0.0000 0.0000
# 3 49.0413 29.2873 100.1534 0.0000 0.0000 0.0000
# 4 0.0000 0.0000 0.0000 22.1095 0.0000 0.0000
# 5 0.0000 0.0000 0.0000 0.0000 24.9224 0.0000
# 6 0.0000 0.0000 0.0000 0.0000 0.0000 15.9325
#
#
#
# Elastic Compliance Matrix: (Units=1/GPa)
#
#
# Indices 1 2 3 4 5 6 
#
# 1 0.014939 -0.004786 -0.005915 0.000000 0.000000 0.000000
# 2 -0.004786 0.016572 -0.002502 0.000000 0.000000 0.000000
# 3 -0.005915 -0.002502 0.013613 0.000000 0.000000 0.000000
# 4 0.000000 0.000000 0.000000 0.045229 0.000000 0.000000
# 5 0.000000 0.000000 0.000000 0.000000 0.040125 0.000000
# 6 0.000000 0.000000 0.000000 0.000000 0.000000 0.062765
#
#
# Mechanical properties :
#
#
# Convention : Reuss Voigt Hill
#
# Bulk Modulus (GPa) = 53.43092 55.65991 54.54541
# Shear Modulus (GPa) = 22.13482 23.19421 22.66452
#
# Velocity S-wave (km/s) = 3.66855 3.75531 3.71218
# Velocity P-wave (km/s) = 7.10148 7.25569 7.17900
#
# Compressibility (1/GPa) = 0.01871576
#
# Stress axis : x y z
#
# Youngs Moduli (GPa) = 66.93987 60.34439 73.45915
#
# Poissons Ratio (x) = 0.28880 0.43454
# Poissons Ratio (y) = 0.32037 0.18383
# Poissons Ratio (z) = 0.39598 0.15101
#
# Static dielectric constant tensor:
#      x y z
#    x 2.888700 0.000000 0.000000 
#    y 0.000000 3.213270 0.000000 
#    z 0.000000 0.000000 3.348790 
# 
# 
# High freq. dielectric constant tensor:
#      x y z
#    x 1.603560 0.000000 0.000000 
#    y 0.000000 1.642030 0.000000 
#    z 0.000000 0.000000 1.636410 
# 
# From -- ./inp_files/52354.got.cif
#   From: 2010.03.12/outbox.cif.g09.slc.cpg/sg74_27_cif.got.tgz:52354.got - 2010.04.16 15:46:19.
