data_PCOD8297721
_publ_section_title
;
Structure prediction by ZEFSAII (Michael W. Deem and Ramdas Pophale) SiO2 
 PCOD8297721
Probable space group: I M M A
;
_chemical_formula_sum "Si O2"
_cell_formula_units_Z 128
_cell_length_a 19.576183
_cell_length_b 18.049963
_cell_length_c 20.425704
_cell_angle_alpha 90.000000
_cell_angle_beta 90.000000
_cell_angle_gamma 90.000000
_cell_volume 7217.409821
_symmetry_space_group_name_H-M "I M M A"
_symmetry_group_IT_number 74
_symmetry_cell_setting 'orthorhombic'
loop_
_space_group_symop_operation_xyz
x,y,z
-x,1/2-y,z
x,-y,-z
-x,1/2+y,-z
-x,-y,-z
x,1/2+y,-z
-x,y,z
x,1/2-y,z
1/2+x,1/2+y,1/2+z
1/2-x,-y,1/2+z
1/2+x,1/2-y,1/2-z
1/2-x,y,1/2-z
1/2-x,1/2-y,1/2-z
1/2+x,y,1/2-z
1/2-x,1/2+y,1/2+z
1/2+x,-y,1/2+z
loop_
_atom_site_type_symbol
_atom_site_label
_atom_site_fract_x
_atom_site_fract_y
_atom_site_fract_z
Si Si1 0.425511 0.387835 0.145012
Si Si2 0.142132 0.165839 0.740511
Si Si3 0.574550 0.083328 0.995002
Si Si4 0.764156 0.123979 0.853683
Si Si5 0.792976 0.029935 0.187057
Si Si6 0.924192 0.013832 0.743029
Si Si7 0.280849 0.334797 0.128314
Si Si8 0.798756 0.666070 0.480671
O O1 0.500000 0.355943 0.170999
O O2 0.430400 0.385139 0.067566
O O3 0.415652 0.470821 0.173659
O O4 0.356534 0.341616 0.161827
O O5 0.113022 0.250000 0.732997
O O6 0.171756 0.157142 0.814189
O O7 0.197876 0.151193 0.685064
O O8 0.085670 0.101826 0.731371
O O9 0.500000 0.090774 0.960398
O O10 0.632653 0.125775 0.954252
O O11 0.598994 0.000000 0.000000
O O12 0.761514 0.155157 0.927857
O O13 0.771309 0.035009 0.863156
O O14 0.750000 0.006636 0.250000
O O15 0.773954 0.112379 0.163964
O O16 0.873128 0.023553 0.204266
O O17 0.000000 0.002205 0.771477
O O18 0.256248 0.250000 0.136265
O O19 0.278258 0.362457 0.052933
O O20 0.819727 0.750000 0.488737
#
# Coordination Sequence:
#
# PCOD8297721 Si02
#       8
#    16  16  16  16  16  16  16  16
#     4   9  17  32  49  67  98 136 172 208 246 291
#     4  10  18  30  49  74 102 135 168 204 258 302
#     4   9  19  30  44  64  92 136 178 207 239 283
#     4  10  18  32  52  74 102 136 170 208 246 302
#     4  11  19  35  55  76  98 134 172 207 257 304
#     4  10  20  34  51  72 100 132 169 213 250 298
#     4  10  21  34  50  77 105 131 169 215 259 301
#     4  10  21  32  48  74 102 130 167 214 253 293
#
# _framework density 17.734894000000001
#
# number of rings (size 3 to 8) (size 9 to 14) (size 15 to 20)
#    0.000    2.125    3.750    1.500    5.250    1.000 
#    0.000    2.500    0.000    1.875    0.000    7.000 
#    0.000    4.000    0.000    0.000    0.000    0.000 
#
# Total GULP energy -792874.387076 kJ/mol
# GULP energy per Si atom -12388.662298 kJ/mol
# Density = 1.769453 g / cm^3
# Si number density = 17.734894 Si / 1000 Ang^3
#
#
#
# Elastic Constant Matrix: (Units=GPa)
#
#
# Indices 1 2 3 4 5 6 
#
# 1 69.0619 22.7917 20.9869 0.0000 0.0000 0.0000
# 2 22.7917 84.7322 14.7352 0.0000 0.0000 0.0000
# 3 20.9869 14.7352 43.8792 0.0000 0.0000 0.0000
# 4 0.0000 0.0000 0.0000 24.7009 0.0000 0.0000
# 5 0.0000 0.0000 0.0000 0.0000 -12.0815 0.0000
# 6 0.0000 0.0000 0.0000 0.0000 0.0000 19.6041
#
#
#
# Elastic Compliance Matrix: (Units=1/GPa)
#
#
# Indices 1 2 3 4 5 6 
#
# 1 0.017884 -0.003529 -0.007368 0.000000 0.000000 0.000000
# 2 -0.003529 0.013230 -0.002755 0.000000 0.000000 0.000000
# 3 -0.007368 -0.002755 0.027239 0.000000 0.000000 0.000000
# 4 0.000000 0.000000 0.000000 0.040484 0.000000 0.000000
# 5 0.000000 0.000000 0.000000 0.000000 -0.082771 0.000000
# 6 0.000000 0.000000 0.000000 0.000000 0.000000 0.051010
#
#
# Mechanical properties :
#
#
# Convention : Reuss Voigt Hill
#
# Bulk Modulus (GPa) = 32.20802 34.96678 33.58740
# Shear Modulus (GPa) = 47.74176 15.72199 31.73188
#
# Velocity S-wave (km/s) = 5.19405 2.98065 4.23452
# Velocity P-wave (km/s) = 7.36010 5.62182 6.54889
#
# Compressibility (1/GPa) = 0.03104817
#
# Stress axis : x y z
#
# Youngs Moduli (GPa) = 55.91725 75.58433 36.71177
#
# Poissons Ratio (x) = 0.26674 0.27051
# Poissons Ratio (y) = 0.19733 0.10114
# Poissons Ratio (z) = 0.41202 0.20823
#
# Static dielectric constant tensor:
#      x y z
#    x 3.400940 0.000000 0.000000 
#    y 0.000000 3.323950 0.000000 
#    z 0.000000 0.000000 3.210570 
# 
# 
# High freq. dielectric constant tensor:
#      x y z
#    x 1.661890 0.000000 0.000000 
#    y 0.000000 1.691940 0.000000 
#    z 0.000000 0.000000 1.657320 
# 
# From -- ./inp_files/54187.got.cif
#   From: 2010.03.12/outbox.cif.g09.slc.cpg/sg74_28_cif.got.tgz:54187.got - 2010.04.16 15:46:19.
