data_PCOD8297797
_publ_section_title
;
Structure prediction by ZEFSAII (Michael W. Deem and Ramdas Pophale) SiO2 
 PCOD8297797
Probable space group: I M M A
;
_chemical_formula_sum "Si O2"
_cell_formula_units_Z 128
_cell_length_a 23.879568
_cell_length_b 15.759490
_cell_length_c 21.281663
_cell_angle_alpha 90.000000
_cell_angle_beta 90.000000
_cell_angle_gamma 90.000000
_cell_volume 8008.924259
_symmetry_space_group_name_H-M "I M M A"
_symmetry_group_IT_number 74
_symmetry_cell_setting 'orthorhombic'
loop_
_space_group_symop_operation_xyz
x,y,z
-x,1/2-y,z
x,-y,-z
-x,1/2+y,-z
-x,-y,-z
x,1/2+y,-z
-x,y,z
x,1/2-y,z
1/2+x,1/2+y,1/2+z
1/2-x,-y,1/2+z
1/2+x,1/2-y,1/2-z
1/2-x,y,1/2-z
1/2-x,1/2-y,1/2-z
1/2+x,y,1/2-z
1/2-x,1/2+y,1/2+z
1/2+x,-y,1/2+z
loop_
_atom_site_type_symbol
_atom_site_label
_atom_site_fract_x
_atom_site_fract_y
_atom_site_fract_z
Si Si1 0.223673 0.479446 0.650601
Si Si2 0.121133 0.345336 0.958248
Si Si3 0.259786 0.654928 0.906697
Si Si4 0.663221 0.513543 0.275426
Si Si5 0.563136 0.077923 0.649393
Si Si6 0.252178 0.152599 0.551932
Si Si7 0.851120 0.658424 0.833669
Si Si8 0.937397 0.595507 0.922700
O O1 0.210266 0.575959 0.628007
O O2 0.286162 0.465536 0.677272
O O3 0.178426 0.460082 0.704747
O O4 0.215390 0.410828 0.595062
O O5 0.123276 0.250000 0.984822
O O6 0.084806 0.345164 0.893926
O O7 0.183551 0.377351 0.943020
O O8 0.094536 0.404256 0.011389
O O9 0.282052 0.750000 0.886828
O O10 0.194586 0.647586 0.888897
O O11 0.268478 0.642955 0.980711
O O12 0.606309 0.563401 0.293185
O O13 0.653836 0.411946 0.279417
O O14 0.500000 0.094499 0.675273
O O15 0.564488 0.999695 0.601912
O O16 0.244818 0.250000 0.575085
O O17 0.845320 0.750000 0.800142
O O18 0.910049 0.654448 0.869520
O O19 0.000000 0.628717 0.933662
#
# Coordination Sequence:
#
# PCOD8297797 Si02
#       8
#    16  16  16  16  16  16  16  16
#     4  10  18  31  48  62  87 119 146 186 221 261
#     4  11  20  29  42  61  85 115 152 191 223 253
#     4   9  17  28  45  68  89 111 140 173 223 276
#     4   9  19  31  44  63  82 113 157 182 216 263
#     4  10  20  33  45  59  84 116 151 190 223 256
#     4  10  19  30  45  67  91 117 149 183 224 269
#     4   9  16  27  41  59  86 115 142 180 220 256
#     4  10  19  28  41  61  85 117 155 187 216 254
#
# _framework density 15.982172
#
# number of rings (size 3 to 8) (size 9 to 14) (size 15 to 20)
#    0.000    2.250    2.500    1.500    0.000    4.250 
#    0.000    4.375    0.000    0.000    0.000    0.000 
#    0.000    2.000    0.000    2.750    0.000    0.000 
#
# Total GULP energy -793232.493807 kJ/mol
# GULP energy per Si atom -12394.257716 kJ/mol
# Density = 1.594580 g / cm^3
# Si number density = 15.982172 Si / 1000 Ang^3
#
#
#
# Elastic Constant Matrix: (Units=GPa)
#
#
# Indices 1 2 3 4 5 6 
#
# 1 50.6153 11.6371 32.0368 0.0000 0.0000 0.0000
# 2 11.6371 45.3940 24.4441 0.0000 0.0000 0.0000
# 3 32.0368 24.4441 70.9970 0.0000 0.0000 0.0000
# 4 0.0000 0.0000 0.0000 17.1458 0.0000 0.0000
# 5 0.0000 0.0000 0.0000 0.0000 20.1617 0.0000
# 6 0.0000 0.0000 0.0000 0.0000 0.0000 10.8157
#
#
#
# Elastic Compliance Matrix: (Units=1/GPa)
#
#
# Indices 1 2 3 4 5 6 
#
# 1 0.027663 -0.000454 -0.012327 0.000000 0.000000 0.000000
# 2 -0.000454 0.027051 -0.009109 0.000000 0.000000 0.000000
# 3 -0.012327 -0.009109 0.022783 0.000000 0.000000 0.000000
# 4 0.000000 0.000000 0.000000 0.058323 0.000000 0.000000
# 5 0.000000 0.000000 0.000000 0.000000 0.049599 0.000000
# 6 0.000000 0.000000 0.000000 0.000000 0.000000 0.092458
#
#
# Mechanical properties :
#
#
# Convention : Reuss Voigt Hill
#
# Bulk Modulus (GPa) = 29.65681 33.69358 31.67520
# Shear Modulus (GPa) = 15.01970 16.21717 15.61844
#
# Velocity S-wave (km/s) = 3.06891 3.18890 3.12948
# Velocity P-wave (km/s) = 5.58158 5.88952 5.73762
#
# Compressibility (1/GPa) = 0.03371907
#
# Stress axis : x y z
#
# Youngs Moduli (GPa) = 36.14892 36.96782 43.89156
#
# Poissons Ratio (x) = 0.01678 0.54103
# Poissons Ratio (y) = 0.01641 0.39979
# Poissons Ratio (z) = 0.44559 0.33672
#
# Static dielectric constant tensor:
#      x y z
#    x 2.809460 0.000000 0.000000 
#    y 0.000000 3.081420 0.000000 
#    z 0.000000 0.000000 2.780010 
# 
# 
# High freq. dielectric constant tensor:
#      x y z
#    x 1.569530 0.000000 0.000000 
#    y 0.000000 1.621540 0.000000 
#    z 0.000000 0.000000 1.589460 
# 
# From -- ./inp_files/46324.got.cif
#   From: 2010.03.12/outbox.cif.g09.slc.cpg/sg74_24_cif.got.tgz:46324.got - 2010.04.16 15:46:19.
