data_PCOD8297635
_publ_section_title
;
Structure prediction by ZEFSAII (Michael W. Deem and Ramdas Pophale) SiO2 
 PCOD8297635
Probable space group: I M M A
;
_chemical_formula_sum "Si O2"
_cell_formula_units_Z 104
_cell_length_a 24.943756
_cell_length_b 23.681629
_cell_length_c 9.007882
_cell_angle_alpha 90.000000
_cell_angle_beta 90.000000
_cell_angle_gamma 90.000000
_cell_volume 5321.034946
_symmetry_space_group_name_H-M "I M M A"
_symmetry_group_IT_number 74
_symmetry_cell_setting 'orthorhombic'
loop_
_space_group_symop_operation_xyz
x,y,z
-x,1/2-y,z
x,-y,-z
-x,1/2+y,-z
-x,-y,-z
x,1/2+y,-z
-x,y,z
x,1/2-y,z
1/2+x,1/2+y,1/2+z
1/2-x,-y,1/2+z
1/2+x,1/2-y,1/2-z
1/2-x,y,1/2-z
1/2-x,1/2-y,1/2-z
1/2+x,y,1/2-z
1/2-x,1/2+y,1/2+z
1/2+x,-y,1/2+z
loop_
_atom_site_type_symbol
_atom_site_label
_atom_site_fract_x
_atom_site_fract_y
_atom_site_fract_z
Si Si1 0.108455 0.632416 0.024177
Si Si2 0.369289 0.750000 0.803838
Si Si3 0.187303 0.635664 0.774100
Si Si4 0.062005 0.375107 0.672674
Si Si5 0.062981 0.750000 0.968032
Si Si6 0.939387 0.536099 0.868325
Si Si7 0.380751 0.945616 0.918795
Si Si8 0.940997 0.750000 0.425685
O O1 0.099944 0.605116 0.188308
O O2 0.167843 0.625923 0.947097
O O3 0.090876 0.696631 0.043169
O O4 0.068145 0.602224 0.907780
O O5 0.332904 0.696249 0.775856
O O6 0.423291 0.750000 0.705954
O O7 0.389976 0.750000 0.969266
O O8 0.250000 0.633498 0.750000
O O9 0.165666 0.588114 0.663518
O O10 0.085309 0.403464 0.523791
O O11 0.064005 0.307000 0.669785
O O12 0.000000 0.394581 0.696197
O O13 0.000000 0.750000 0.997174
O O14 0.918519 0.524910 0.703651
O O15 0.000000 0.516956 0.864314
O O16 0.909798 0.500000 0.000000
O O17 0.355120 0.000000 0.000000
O O18 0.000000 0.750000 0.503906
#
# Coordination Sequence:
#
# PCOD8297635 Si02
#       8
#    16   8  16  16   8  16  16   8
#     4  10  21  35  55  83 115 151 192 238 285 343
#     4  10  18  36  61  87 113 149 190 248 294 352
#     4  10  22  42  64  84 109 150 206 257 304 344
#     4  11  21  35  57  87 127 160 188 230 293 372
#     4  10  18  29  52  83 118 150 183 220 276 353
#     4  10  20  35  55  80 113 152 194 236 285 351
#     4  11  23  38  57  83 115 152 196 246 300 362
#     4  10  20  33  55  90 130 165 188 226 295 369
#
# _framework density 19.545069000000002
#
# number of rings (size 3 to 8) (size 9 to 14) (size 15 to 20)
#    0.000    1.692    1.538    3.692    0.000    3.077 
#    0.000    5.385    0.000    0.923    0.000    0.000 
#    0.000    0.000    0.000    0.000    0.000    0.000 
#
# Total GULP energy -644314.702946 kJ/mol
# GULP energy per Si atom -12390.667364 kJ/mol
# Density = 1.950058 g / cm^3
# Si number density = 19.545069 Si / 1000 Ang^3
#
#
#
# Elastic Constant Matrix: (Units=GPa)
#
#
# Indices 1 2 3 4 5 6 
#
# 1 120.2251 16.5408 64.2790 0.0000 0.0000 0.0000
# 2 16.5408 82.4059 29.8394 0.0000 0.0000 0.0000
# 3 64.2790 29.8394 133.3867 0.0000 0.0000 0.0000
# 4 0.0000 0.0000 0.0000 49.9894 0.0000 0.0000
# 5 0.0000 0.0000 0.0000 0.0000 23.1661 0.0000
# 6 0.0000 0.0000 0.0000 0.0000 0.0000 16.0038
#
#
#
# Elastic Compliance Matrix: (Units=1/GPa)
#
#
# Indices 1 2 3 4 5 6 
#
# 1 0.011212 -0.000320 -0.005332 0.000000 0.000000 0.000000
# 2 -0.000320 0.013214 -0.002802 0.000000 0.000000 0.000000
# 3 -0.005332 -0.002802 0.010693 0.000000 0.000000 0.000000
# 4 0.000000 0.000000 0.000000 0.020004 0.000000 0.000000
# 5 0.000000 0.000000 0.000000 0.000000 0.043167 0.000000
# 6 0.000000 0.000000 0.000000 0.000000 0.000000 0.062485
#
#
# Mechanical properties :
#
#
# Convention : Reuss Voigt Hill
#
# Bulk Modulus (GPa) = 54.90767 61.92625 58.41696
# Shear Modulus (GPa) = 27.21045 32.85576 30.03310
#
# Velocity S-wave (km/s) = 3.73525 4.10448 3.92421
# Velocity P-wave (km/s) = 6.83788 7.36308 7.10534
#
# Compressibility (1/GPa) = 0.01821239
#
# Stress axis : x y z
#
# Youngs Moduli (GPa) = 89.18736 75.67831 93.51824
#
# Poissons Ratio (x) = 0.02422 0.49861
# Poissons Ratio (y) = 0.02854 0.26202
# Poissons Ratio (z) = 0.47552 0.21204
#
# Static dielectric constant tensor:
#      x y z
#    x 3.191910 0.000000 0.000000 
#    y 0.000000 3.755790 0.000000 
#    z 0.000000 0.000000 3.732580 
# 
# 
# High freq. dielectric constant tensor:
#      x y z
#    x 1.715180 0.000000 0.000000 
#    y 0.000000 1.784270 0.000000 
#    z 0.000000 0.000000 1.771810 
# 
# From -- ./inp_files/15425.got.cif
#   From: 2010.03.12/outbox.cif.g09.slc.cpg/sg74_8_cif.got.tgz:15425.got - 2010.04.16 15:46:19.
