data_PCOD8297427
_publ_section_title
;
Structure prediction by ZEFSAII (Michael W. Deem and Ramdas Pophale) SiO2 
 PCOD8297427
Probable space group: I M M A
;
_chemical_formula_sum "Si O2"
_cell_formula_units_Z 80
_cell_length_a 9.209466
_cell_length_b 22.977135
_cell_length_c 28.446453
_cell_angle_alpha 90.000000
_cell_angle_beta 90.000000
_cell_angle_gamma 90.000000
_cell_volume 6019.472664
_symmetry_space_group_name_H-M "I M M A"
_symmetry_group_IT_number 74
_symmetry_cell_setting 'orthorhombic'
loop_
_space_group_symop_operation_xyz
x,y,z
-x,1/2-y,z
x,-y,-z
-x,1/2+y,-z
-x,-y,-z
x,1/2+y,-z
-x,y,z
x,1/2-y,z
1/2+x,1/2+y,1/2+z
1/2-x,-y,1/2+z
1/2+x,1/2-y,1/2-z
1/2-x,y,1/2-z
1/2-x,1/2-y,1/2-z
1/2+x,y,1/2-z
1/2-x,1/2+y,1/2+z
1/2+x,-y,1/2+z
loop_
_atom_site_type_symbol
_atom_site_label
_atom_site_fract_x
_atom_site_fract_y
_atom_site_fract_z
Si Si1 0.835846 0.978121 0.925869
Si Si2 0.669651 0.817512 0.702145
Si Si3 0.837416 0.910687 0.023348
Si Si4 0.669517 0.184642 0.022509
Si Si5 0.829586 0.619414 0.618481
O O1 0.000000 0.977091 0.905487
O O2 0.832529 0.944553 0.974683
O O3 0.725499 0.946728 0.890035
O O4 0.784923 0.044959 0.935404
O O5 0.500000 0.832548 0.706798
O O6 0.694110 0.750000 0.690131
O O7 0.750000 0.834524 0.750000
O O8 0.741051 0.855217 0.661587
O O9 0.738029 0.853502 0.019585
O O10 0.000000 0.889763 0.034463
O O11 0.500000 0.184117 0.013672
O O12 0.732311 0.250000 0.020028
O O13 0.707400 0.159087 0.073565
O O14 0.000000 0.618725 0.629839
#
# Coordination Sequence:
#
# PCOD8297427 Si02
#       5
#    16  16  16  16  16
#     4   8  14  25  38  52  70  90 115 148 184 217
#     4  10  20  32  44  56  71  93 120 151 188 226
#     4   8  14  24  37  51  68  91 118 149 181 214
#     4   9  17  26  35  50  73  98 122 151 185 218
#     4  10  18  27  40  56  73  93 120 153 186 221
#
# _framework density 13.2902
#
# number of rings (size 3 to 8) (size 9 to 14) (size 15 to 20)
#    0.000    3.000    0.000    3.000    0.000    4.000 
#    0.000    4.000    0.000    0.000    0.000    0.000 
#    0.000    0.000    0.000    0.000    0.000    1.000 
#
# Total GULP energy -495755.161765 kJ/mol
# GULP energy per Si atom -12393.879044 kJ/mol
# Density = 1.325995 g / cm^3
# Si number density = 13.290200 Si / 1000 Ang^3
#
#
#
# Elastic Constant Matrix: (Units=GPa)
#
#
# Indices 1 2 3 4 5 6 
#
# 1 72.6828 49.9224 41.7607 0.0000 0.0000 0.0000
# 2 49.9224 94.5457 47.5799 0.0000 0.0000 0.0000
# 3 41.7607 47.5799 50.8245 0.0000 0.0000 0.0000
# 4 0.0000 0.0000 0.0000 20.5519 0.0000 0.0000
# 5 0.0000 0.0000 0.0000 0.0000 20.5877 0.0000
# 6 0.0000 0.0000 0.0000 0.0000 0.0000 24.0044
#
#
#
# Elastic Compliance Matrix: (Units=1/GPa)
#
#
# Indices 1 2 3 4 5 6 
#
# 1 0.027759 -0.006011 -0.017181 0.000000 0.000000 0.000000
# 2 -0.006011 0.021300 -0.015002 0.000000 0.000000 0.000000
# 3 -0.017181 -0.015002 0.047837 0.000000 0.000000 0.000000
# 4 0.000000 0.000000 0.000000 0.048657 0.000000 0.000000
# 5 0.000000 0.000000 0.000000 0.000000 0.048573 0.000000
# 6 0.000000 0.000000 0.000000 0.000000 0.000000 0.041659
#
#
# Mechanical properties :
#
#
# Convention : Reuss Voigt Hill
#
# Bulk Modulus (GPa) = 48.76071 55.17545 51.96808
# Shear Modulus (GPa) = 15.67360 18.28148 16.97754
#
# Velocity S-wave (km/s) = 3.43787 3.71288 3.57802
# Velocity P-wave (km/s) = 7.24758 7.74510 7.50047
#
# Compressibility (1/GPa) = 0.02050832
#
# Stress axis : x y z
#
# Youngs Moduli (GPa) = 36.02484 46.94766 20.90445
#
# Poissons Ratio (x) = 0.28219 0.35916
# Poissons Ratio (y) = 0.21654 0.31360
# Poissons Ratio (z) = 0.61895 0.70429
#
# Static dielectric constant tensor:
#      x y z
#    x 2.775720 0.000000 0.000000 
#    y 0.000000 2.918780 0.000000 
#    z 0.000000 0.000000 2.410940 
# 
# 
# High freq. dielectric constant tensor:
#      x y z
#    x 1.515480 0.000000 0.000000 
#    y 0.000000 1.496050 0.000000 
#    z 0.000000 0.000000 1.458630 
# 
# From -- ./inp_files/70375.got.cif
#   From: 2010.03.12/outbox.cif.g09.slc.cpg/sg74_36_cif.got.tgz:70375.got - 2010.04.16 15:46:19.
