data_PCOD8297085
_publ_section_title
;
Structure prediction by ZEFSAII (Michael W. Deem and Ramdas Pophale) SiO2 
 PCOD8297085
Probable space group: I B C A 
;
_chemical_formula_sum "Si O2"
_cell_formula_units_Z 56
_cell_length_a 9.964021
_cell_length_b 15.107813
_cell_length_c 13.430540
_cell_angle_alpha 90.000000
_cell_angle_beta 90.000000
_cell_angle_gamma 90.000000
_cell_volume 2021.760510
_symmetry_space_group_name_H-M "I B C A "
_symmetry_group_IT_number 73
_symmetry_cell_setting 'orthorhombic'
loop_
_space_group_symop_operation_xyz
x,y,z
-x,1/2-y,z
x,-y,1/2-z
1/2-x,y,-z
-x,-y,-z
x,1/2+y,-z
-x,y,1/2+z
1/2+x,-y,z
1/2+x,1/2+y,1/2+z
1/2-x,-y,1/2+z
1/2+x,1/2-y,-z
-x,1/2+y,1/2-z
1/2-x,1/2-y,1/2-z
1/2+x,y,1/2-z
1/2-x,1/2+y,z
x,1/2-y,1/2+z
loop_
_atom_site_type_symbol
_atom_site_label
_atom_site_fract_x
_atom_site_fract_y
_atom_site_fract_z
Si Si1 0.461819 0.598427 0.841832
Si Si2 0.719950 0.986020 0.386888
Si Si3 0.160727 0.307652 0.177458
Si Si4 0.000000 0.250000 0.501329
O O1 0.311006 0.557071 0.828422
O O2 0.561363 0.512674 0.854536
O O3 0.471126 0.656229 0.739419
O O4 0.479051 0.661688 0.937155
O O5 0.750000 0.009102 0.500000
O O6 0.747355 0.884891 0.363483
O O7 0.250000 0.250000 0.250000
O O8 0.125049 0.255074 0.077143
#
# Coordination Sequence:
#
# PCOD8297085 Si02
#       4
#    16  16  16   8
#     4  12  29  52  84 118 165 217 280 343 427 500
#     4  12  27  53  77 120 161 216 275 340 422 505
#     4  12  28  47  82 120 164 216 279 342 420 500
#     4  12  26  52  80 114 166 212 274 344 412 506
#
# _framework density 27.698630999999999
#
# number of rings (size 3 to 8) (size 9 to 14) (size 15 to 20)
#    0.000    0.000    2.857    6.000    4.000    4.571 
#    0.000    0.000    0.000    0.000    0.000    0.000 
#    0.000    0.000    0.000    0.000    0.000    0.000 
#
# Total GULP energy -347000.285918 kJ/mol
# GULP energy per Si atom -12392.867354 kJ/mol
# Density = 2.763559 g / cm^3
# Si number density = 27.698631 Si / 1000 Ang^3
#
#
#
# Elastic Constant Matrix: (Units=GPa)
#
#
# Indices 1 2 3 4 5 6 
#
# 1 133.8152 44.7178 34.5671 0.0000 0.0000 0.0000
# 2 44.7178 83.1232 12.8919 0.0000 0.0000 0.0000
# 3 34.5671 12.8919 125.0878 0.0000 0.0000 0.0000
# 4 0.0000 0.0000 0.0000 50.9070 0.0000 0.0000
# 5 0.0000 0.0000 0.0000 0.0000 46.1106 0.0000
# 6 0.0000 0.0000 0.0000 0.0000 0.0000 45.4519
#
#
#
# Elastic Compliance Matrix: (Units=1/GPa)
#
#
# Indices 1 2 3 4 5 6 
#
# 1 0.009657 -0.004859 -0.002168 0.000000 0.000000 0.000000
# 2 -0.004859 0.014670 -0.000169 0.000000 0.000000 0.000000
# 3 -0.002168 -0.000169 0.008611 0.000000 0.000000 0.000000
# 4 0.000000 0.000000 0.000000 0.019644 0.000000 0.000000
# 5 0.000000 0.000000 0.000000 0.000000 0.021687 0.000000
# 6 0.000000 0.000000 0.000000 0.000000 0.000000 0.022001
#
#
# Mechanical properties :
#
#
# Convention : Reuss Voigt Hill
#
# Bulk Modulus (GPa) = 53.91913 58.48664 56.20289
# Shear Modulus (GPa) = 42.79217 45.15051 43.97134
#
# Velocity S-wave (km/s) = 3.93481 4.04178 3.98866
# Velocity P-wave (km/s) = 6.33658 6.55306 6.44573
#
# Compressibility (1/GPa) = 0.01854629
#
# Stress axis : x y z
#
# Youngs Moduli (GPa) = 103.55538 68.16412 116.13203
#
# Poissons Ratio (x) = 0.33119 0.25175
# Poissons Ratio (y) = 0.50315 0.01966
# Poissons Ratio (z) = 0.22449 0.01154
#
# Static dielectric constant tensor:
#      x y z
#    x 5.414160 0.000000 0.000000 
#    y 0.000000 5.096680 0.000000 
#    z 0.000000 0.000000 5.729730 
# 
# 
# High freq. dielectric constant tensor:
#      x y z
#    x 2.114940 0.000000 0.000000 
#    y 0.000000 2.123790 0.000000 
#    z 0.000000 0.000000 2.148900 
# 
# From -- ./inp_files/11441.got.cif
#   From: 2010.03.12/outbox.cif.g09.slc.cpg/sg73_6_cif.got.tgz:11441.got - 2010.04.16 15:25:48.
