data_PCOD8297256
_publ_section_title
;
Structure prediction by ZEFSAII (Michael W. Deem and Ramdas Pophale) SiO2 
 PCOD8297256
Probable space group: I M M A
;
_chemical_formula_sum "Si O2"
_cell_formula_units_Z 96
_cell_length_a 8.999014
_cell_length_b 26.321168
_cell_length_c 28.858781
_cell_angle_alpha 90.000000
_cell_angle_beta 90.000000
_cell_angle_gamma 90.000000
_cell_volume 6835.622444
_symmetry_space_group_name_H-M "I M M A"
_symmetry_group_IT_number 74
_symmetry_cell_setting 'orthorhombic'
loop_
_space_group_symop_operation_xyz
x,y,z
-x,1/2-y,z
x,-y,-z
-x,1/2+y,-z
-x,-y,-z
x,1/2+y,-z
-x,y,z
x,1/2-y,z
1/2+x,1/2+y,1/2+z
1/2-x,-y,1/2+z
1/2+x,1/2-y,1/2-z
1/2-x,y,1/2-z
1/2-x,1/2-y,1/2-z
1/2+x,y,1/2-z
1/2-x,1/2+y,1/2+z
1/2+x,-y,1/2+z
loop_
_atom_site_type_symbol
_atom_site_label
_atom_site_fract_x
_atom_site_fract_y
_atom_site_fract_z
Si Si1 0.676055 0.193834 0.610079
Si Si2 0.825224 0.597981 0.054276
Si Si3 0.325969 0.473332 0.703061
Si Si4 0.176109 0.008504 0.610615
Si Si5 0.163927 0.446643 0.474131
Si Si6 0.827010 0.854769 0.203813
O O1 0.500000 0.195485 0.614022
O O2 0.739924 0.250000 0.598724
O O3 0.721670 0.154856 0.569430
O O4 0.739195 0.174892 0.659563
O O5 0.743029 0.559144 0.088054
O O6 0.000000 0.588621 0.059556
O O7 0.777677 0.590734 0.000536
O O8 0.500000 0.485445 0.704639
O O9 0.250000 0.493592 0.750000
O O10 0.250897 0.502459 0.660059
O O11 0.292407 0.413954 0.696579
O O12 0.000000 0.016161 0.615662
O O13 0.212943 0.959091 0.578626
O O14 0.158954 0.500000 0.500000
O O15 0.000000 0.421614 0.475167
O O16 0.750000 0.833575 0.250000
O O17 0.000000 0.844827 0.209650
#
# Coordination Sequence:
#
# PCOD8297256 Si02
#       6
#    16  16  16  16  16  16
#     4   9  17  29  42  55  74  99 126 161 204 243
#     4  10  17  27  42  59  75  96 127 161 196 235
#     4  10  18  28  41  59  79 101 131 161 195 233
#     4  10  18  28  42  58  78 102 125 154 194 235
#     4   8  16  28  40  57  78  99 120 148 194 238
#     4   9  17  29  41  54  70  92 124 161 201 238
#
# _framework density 14.044076
#
# number of rings (size 3 to 8) (size 9 to 14) (size 15 to 20)
#    0.000    2.667    1.667    2.500    0.000    4.667 
#    0.000    0.000    0.000    4.000    0.000    0.000 
#    0.000    0.000    0.000    0.000    0.000    0.833 
#
# Total GULP energy -594964.022779 kJ/mol
# GULP energy per Si atom -12395.083808 kJ/mol
# Density = 1.401211 g / cm^3
# Si number density = 14.044076 Si / 1000 Ang^3
#
#
#
# Elastic Constant Matrix: (Units=GPa)
#
#
# Indices 1 2 3 4 5 6 
#
# 1 60.7752 24.6622 49.6325 0.0000 0.0000 0.0000
# 2 24.6622 46.8885 50.6819 0.0000 0.0000 0.0000
# 3 49.6325 50.6819 121.6347 0.0000 0.0000 0.0000
# 4 0.0000 0.0000 0.0000 19.1936 0.0000 0.0000
# 5 0.0000 0.0000 0.0000 0.0000 27.1080 0.0000
# 6 0.0000 0.0000 0.0000 0.0000 0.0000 7.6602
#
#
#
# Elastic Compliance Matrix: (Units=1/GPa)
#
#
# Indices 1 2 3 4 5 6 
#
# 1 0.025058 -0.003871 -0.008612 0.000000 0.000000 0.000000
# 2 -0.003871 0.039402 -0.014838 0.000000 0.000000 0.000000
# 3 -0.008612 -0.014838 0.017918 0.000000 0.000000 0.000000
# 4 0.000000 0.000000 0.000000 0.052101 0.000000 0.000000
# 5 0.000000 0.000000 0.000000 0.000000 0.036890 0.000000
# 6 0.000000 0.000000 0.000000 0.000000 0.000000 0.130545
#
#
# Mechanical properties :
#
#
# Convention : Reuss Voigt Hill
#
# Bulk Modulus (GPa) = 36.05489 53.25017 44.65253
# Shear Modulus (GPa) = 13.66867 17.74714 15.70791
#
# Velocity S-wave (km/s) = 3.12311 3.55868 3.34798
# Velocity P-wave (km/s) = 6.22362 7.40840 6.84170
#
# Compressibility (1/GPa) = 0.02773549
#
# Stress axis : x y z
#
# Youngs Moduli (GPa) = 39.90773 25.37944 55.81021
#
# Poissons Ratio (x) = 0.09826 0.48061
# Poissons Ratio (y) = 0.15450 0.82811
# Poissons Ratio (z) = 0.34367 0.37658
#
# Static dielectric constant tensor:
#      x y z
#    x 2.749100 0.000000 0.000000 
#    y 0.000000 2.583410 0.000000 
#    z 0.000000 0.000000 3.062920 
# 
# 
# High freq. dielectric constant tensor:
#      x y z
#    x 1.536360 0.000000 0.000000 
#    y 0.000000 1.479980 0.000000 
#    z 0.000000 0.000000 1.536880 
# 
# From -- ./inp_files/64918.got.cif
#   From: 2010.03.12/outbox.cif.g09.slc.cpg/sg74_33_cif.got.tgz:64918.got - 2010.04.16 15:46:19.
