data_PCOD8297105
_publ_section_title
;
Structure prediction by ZEFSAII (Michael W. Deem and Ramdas Pophale) SiO2 
 PCOD8297105
Probable space group: I M M A
;
_chemical_formula_sum "Si O2"
_cell_formula_units_Z 88
_cell_length_a 18.686396
_cell_length_b 26.406286
_cell_length_c 9.564079
_cell_angle_alpha 90.000000
_cell_angle_beta 90.000000
_cell_angle_gamma 90.000000
_cell_volume 4719.283046
_symmetry_space_group_name_H-M "I M M A"
_symmetry_group_IT_number 74
_symmetry_cell_setting 'orthorhombic'
loop_
_space_group_symop_operation_xyz
x,y,z
-x,1/2-y,z
x,-y,-z
-x,1/2+y,-z
-x,-y,-z
x,1/2+y,-z
-x,y,z
x,1/2-y,z
1/2+x,1/2+y,1/2+z
1/2-x,-y,1/2+z
1/2+x,1/2-y,1/2-z
1/2-x,y,1/2-z
1/2-x,1/2-y,1/2-z
1/2+x,y,1/2-z
1/2-x,1/2+y,1/2+z
1/2+x,-y,1/2+z
loop_
_atom_site_type_symbol
_atom_site_label
_atom_site_fract_x
_atom_site_fract_y
_atom_site_fract_z
Si Si1 0.500000 0.058395 0.034190
Si Si2 0.750000 0.346451 0.750000
Si Si3 0.750000 0.477674 0.250000
Si Si4 0.351007 0.805834 0.024893
Si Si5 0.500000 0.907933 0.275384
Si Si6 0.152457 0.066528 0.773465
Si Si7 0.500000 0.305395 0.819970
Si Si8 0.150824 0.586811 0.558112
O O1 0.572669 0.071192 0.120433
O O2 0.500000 0.090969 0.893015
O O3 0.500000 0.000000 0.000000
O O4 0.707997 0.309767 0.853525
O O5 0.804883 0.384499 0.832702
O O6 0.810095 0.514203 0.180502
O O7 0.785280 0.442478 0.366773
O O8 0.342396 0.750000 0.954149
O O9 0.430271 0.812041 0.084882
O O10 0.338335 0.852642 0.918510
O O11 0.428369 0.934196 0.335207
O O12 0.500000 0.847278 0.304200
O O13 0.152665 0.071569 0.604841
O O14 0.500000 0.250000 0.748291
#
# Coordination Sequence:
#
# PCOD8297105 Si02
#       8
#     8   8   8  16   8  16   8  16
#     4  10  16  26  46  66  85 114 141 183 230 277
#     4   9  15  26  43  70  97 120 145 169 224 286
#     4  11  20  28  42  68  90 122 152 181 226 274
#     4  10  18  29  45  68  96 123 147 184 226 271
#     4  10  14  30  44  66  93 114 142 179 236 277
#     4   9  18  29  46  68  94 119 143 186 230 270
#     4  10  16  26  46  70  96 119 142 181 236 280
#     4  10  18  31  45  67  93 116 150 187 226 271
#
# _framework density 18.646899000000001
#
# number of rings (size 3 to 8) (size 9 to 14) (size 15 to 20)
#    0.000    2.182    5.455    3.000    0.000    0.000 
#    0.000    0.455    0.000    0.000    0.000   56.000 
#    0.000    0.000    0.000    0.000    0.000    0.000 
#
# Total GULP energy -545091.634164 kJ/mol
# GULP energy per Si atom -12388.446231 kJ/mol
# Density = 1.860446 g / cm^3
# Si number density = 18.646899 Si / 1000 Ang^3
#
#
#
# Elastic Constant Matrix: (Units=GPa)
#
#
# Indices 1 2 3 4 5 6 
#
# 1 151.0412 59.0644 13.2062 0.0000 0.0000 0.0000
# 2 59.0644 171.0137 15.1022 0.0000 0.0000 0.0000
# 3 13.2062 15.1022 12.9264 0.0000 0.0000 0.0000
# 4 0.0000 0.0000 0.0000 19.5799 0.0000 0.0000
# 5 0.0000 0.0000 0.0000 0.0000 18.2046 0.0000
# 6 0.0000 0.0000 0.0000 0.0000 0.0000 38.9528
#
#
#
# Elastic Compliance Matrix: (Units=1/GPa)
#
#
# Indices 1 2 3 4 5 6 
#
# 1 0.007991 -0.002274 -0.005508 0.000000 0.000000 0.000000
# 2 -0.002274 0.007167 -0.006051 0.000000 0.000000 0.000000
# 3 -0.005508 -0.006051 0.090057 0.000000 0.000000 0.000000
# 4 0.000000 0.000000 0.000000 0.051073 0.000000 0.000000
# 5 0.000000 0.000000 0.000000 0.000000 0.054931 0.000000
# 6 0.000000 0.000000 0.000000 0.000000 0.000000 0.025672
#
#
# Mechanical properties :
#
#
# Convention : Reuss Voigt Hill
#
# Bulk Modulus (GPa) = 12.89471 56.63631 34.76551
# Shear Modulus (GPa) = 17.21723 31.85470 24.53596
#
# Velocity S-wave (km/s) = 3.04193 4.13766 3.63136
# Velocity P-wave (km/s) = 4.38953 7.29835 6.02220
#
# Compressibility (1/GPa) = 0.07755121
#
# Stress axis : x y z
#
# Youngs Moduli (GPa) = 125.13449 139.52682 11.10405
#
# Poissons Ratio (x) = 0.31723 0.06116
# Poissons Ratio (y) = 0.28451 0.06719
# Poissons Ratio (z) = 0.68924 0.84422
#
# Static dielectric constant tensor:
#      x y z
#    x 4.131750 0.000000 0.000000 
#    y 0.000000 4.111350 0.000000 
#    z 0.000000 0.000000 2.612380 
# 
# 
# High freq. dielectric constant tensor:
#      x y z
#    x 1.755770 0.000000 0.000000 
#    y 0.000000 1.746500 0.000000 
#    z 0.000000 0.000000 1.611820 
# 
# From -- ./inp_files/32838.got.cif
#   From: 2010.03.12/outbox.cif.g09.slc.cpg/sg74_17_cif.got.tgz:32838.got - 2010.04.16 15:46:19.
