data_PCOD8297332
_publ_section_title
;
Structure prediction by ZEFSAII (Michael W. Deem and Ramdas Pophale) SiO2 
 PCOD8297332
Probable space group: I M M A
;
_chemical_formula_sum "Si O2"
_cell_formula_units_Z 80
_cell_length_a 8.901793
_cell_length_b 22.508986
_cell_length_c 20.014418
_cell_angle_alpha 90.000000
_cell_angle_beta 90.000000
_cell_angle_gamma 90.000000
_cell_volume 4010.295620
_symmetry_space_group_name_H-M "I M M A"
_symmetry_group_IT_number 74
_symmetry_cell_setting 'orthorhombic'
loop_
_space_group_symop_operation_xyz
x,y,z
-x,1/2-y,z
x,-y,-z
-x,1/2+y,-z
-x,-y,-z
x,1/2+y,-z
-x,y,z
x,1/2-y,z
1/2+x,1/2+y,1/2+z
1/2-x,-y,1/2+z
1/2+x,1/2-y,1/2-z
1/2-x,y,1/2-z
1/2-x,1/2-y,1/2-z
1/2+x,y,1/2-z
1/2-x,1/2+y,1/2+z
1/2+x,-y,1/2+z
loop_
_atom_site_type_symbol
_atom_site_label
_atom_site_fract_x
_atom_site_fract_y
_atom_site_fract_z
Si Si1 0.175984 0.580608 0.177813
Si Si2 0.177740 0.857688 0.815162
Si Si3 0.673657 0.817412 0.421148
Si Si4 0.828068 0.466863 0.365392
Si Si5 0.670050 0.858677 0.945876
O O1 0.250000 0.578951 0.250000
O O2 0.211352 0.643983 0.144189
O O3 0.247496 0.530417 0.129840
O O4 0.000000 0.569038 0.184779
O O5 0.250000 0.825488 0.750000
O O6 0.236709 0.926105 0.812567
O O7 0.237294 0.827964 0.884539
O O8 0.000000 0.853258 0.811925
O O9 0.500000 0.822692 0.440426
O O10 0.720079 0.750000 0.404529
O O11 0.765418 0.841476 0.483320
O O12 0.823377 0.430955 0.436425
O O13 0.000000 0.474918 0.341222
O O14 0.500000 0.835494 0.941499
#
# Coordination Sequence:
#
# PCOD8297332 Si02
#       5
#    16  16  16  16  16
#     4  11  23  38  59  87 119 155 196 242 296 355
#     4  10  17  29  51  81 118 155 189 227 277 339
#     4  10  23  43  63  83 112 154 202 250 298 348
#     4   9  19  34  54  84 120 152 186 231 286 348
#     4   9  20  36  57  87 118 153 195 240 291 350
#
# _framework density 19.948654000000001
#
# number of rings (size 3 to 8) (size 9 to 14) (size 15 to 20)
#    1.200    1.000    0.000    3.600    0.000    3.200 
#    0.000    4.000    0.000    0.600    0.000    0.000 
#    0.000    0.000    0.000    0.000    0.000    0.000 
#
# Total GULP energy -495616.842281 kJ/mol
# GULP energy per Si atom -12390.421057 kJ/mol
# Density = 1.990325 g / cm^3
# Si number density = 19.948654 Si / 1000 Ang^3
#
#
#
# Elastic Constant Matrix: (Units=GPa)
#
#
# Indices 1 2 3 4 5 6 
#
# 1 120.2705 16.6712 23.1739 -0.0001 0.0000 0.0000
# 2 16.6712 53.8402 3.7499 0.0000 0.0000 0.0000
# 3 23.1739 3.7499 22.7772 0.0001 0.0000 0.0000
# 4 -0.0001 0.0000 0.0001 -45.9492 0.0000 0.0000
# 5 0.0000 0.0000 0.0000 0.0000 35.3639 0.0000
# 6 0.0000 0.0000 0.0000 0.0000 0.0000 14.0546
#
#
#
# Elastic Compliance Matrix: (Units=1/GPa)
#
#
# Indices 1 2 3 4 5 6 
#
# 1 0.010685 -0.002581 -0.010446 0.000000 0.000000 0.000000
# 2 -0.002581 0.019412 -0.000570 0.000000 0.000000 0.000000
# 3 -0.010446 -0.000570 0.054626 0.000000 0.000000 0.000000
# 4 0.000000 0.000000 0.000000 -0.021763 0.000000 0.000000
# 5 0.000000 0.000000 0.000000 0.000000 0.028277 0.000000
# 6 0.000000 0.000000 0.000000 0.000000 0.000000 0.071151
#
#
# Mechanical properties :
#
#
# Convention : Reuss Voigt Hill
#
# Bulk Modulus (GPa) = 17.38263 31.56419 24.47341
# Shear Modulus (GPa) = 23.95102 10.91338 17.43220
#
# Velocity S-wave (km/s) = 3.46877 2.34150 2.95931
# Velocity P-wave (km/s) = 4.97753 4.81323 4.89607
#
# Compressibility (1/GPa) = 0.05752870
#
# Stress axis : x y z
#
# Youngs Moduli (GPa) = 93.58758 51.51352 18.30638
#
# Poissons Ratio (x) = 0.13296 0.19124
# Poissons Ratio (y) = 0.24155 0.01043
# Poissons Ratio (z) = 0.97765 0.02936
#
# Static dielectric constant tensor:
#      x y z
#    x 3.632230 0.000000 0.000000 
#    y 0.000000 3.525920 0.000000 
#    z 0.000000 0.000000 3.392930 
# 
# 
# High freq. dielectric constant tensor:
#      x y z
#    x 1.790760 0.000000 0.000000 
#    y 0.000000 1.754010 0.000000 
#    z 0.000000 0.000000 1.768020 
# 
# From -- ./inp_files/39735.got.cif
#   From: 2010.03.12/outbox.cif.g09.slc.cpg/sg74_20_cif.got.tgz:39735.got - 2010.04.16 15:46:19.
