data_PCOD8297972
_publ_section_title
;
Structure prediction by ZEFSAII (Michael W. Deem and Ramdas Pophale) SiO2 
 PCOD8297972
Probable space group: I M M A
;
_chemical_formula_sum "Si O2"
_cell_formula_units_Z 72
_cell_length_a 8.416592
_cell_length_b 28.800591
_cell_length_c 13.887792
_cell_angle_alpha 90.000000
_cell_angle_beta 90.000000
_cell_angle_gamma 90.000000
_cell_volume 3366.439997
_symmetry_space_group_name_H-M "I M M A"
_symmetry_group_IT_number 74
_symmetry_cell_setting 'orthorhombic'
loop_
_space_group_symop_operation_xyz
x,y,z
-x,1/2-y,z
x,-y,-z
-x,1/2+y,-z
-x,-y,-z
x,1/2+y,-z
-x,y,z
x,1/2-y,z
1/2+x,1/2+y,1/2+z
1/2-x,-y,1/2+z
1/2+x,1/2-y,1/2-z
1/2-x,y,1/2-z
1/2-x,1/2-y,1/2-z
1/2+x,y,1/2-z
1/2-x,1/2+y,1/2+z
1/2+x,-y,1/2+z
loop_
_atom_site_type_symbol
_atom_site_label
_atom_site_fract_x
_atom_site_fract_y
_atom_site_fract_z
Si Si1 0.686546 0.975976 0.857166
Si Si2 0.814026 0.342759 0.538884
Si Si3 0.312499 0.250000 0.857496
Si Si4 0.685748 0.120535 0.357434
Si Si5 0.815169 0.930310 0.144117
O O1 0.500000 0.965869 0.859865
O O2 0.750000 0.984174 0.750000
O O3 0.776135 0.931015 0.899693
O O4 0.728779 0.025189 0.908258
O O5 0.750881 0.295298 0.586189
O O6 0.774497 0.341858 0.424867
O O7 0.713769 0.384703 0.582338
O O8 0.000000 0.350161 0.557739
O O9 0.500000 0.250000 0.855256
O O10 0.250000 0.250000 0.750000
O O11 0.500000 0.129914 0.358976
O O12 0.750000 0.125888 0.250000
O O13 0.750000 0.919841 0.250000
O O14 0.000000 0.941698 0.150511
#
# Coordination Sequence:
#
# PCOD8297972 Si02
#       5
#    16  16   8  16  16
#     4  10  18  32  54  82 117 160 200 243 292 347
#     4  11  23  41  62  89 118 153 198 247 298 355
#     4  10  24  44  69  94 123 154 189 238 296 354
#     4  11  22  39  61  88 120 159 199 244 293 348
#     4  11  21  35  55  85 121 160 201 247 296 353
#
# _framework density 21.387578999999999
#
# number of rings (size 3 to 8) (size 9 to 14) (size 15 to 20)
#    0.000    1.333    0.000   10.000    0.000    4.444 
#    0.000    5.000    0.000    0.000    0.000    0.000 
#    0.000    0.000    0.000    0.000    0.000    0.000 
#
# Total GULP energy -446453.023863 kJ/mol
# GULP energy per Si atom -12401.472885 kJ/mol
# Density = 2.133890 g / cm^3
# Si number density = 21.387579 Si / 1000 Ang^3
#
#
#
# Elastic Constant Matrix: (Units=GPa)
#
#
# Indices 1 2 3 4 5 6 
#
# 1 93.3172 17.9619 10.0768 -0.0001 0.0000 0.0000
# 2 17.9619 135.6840 68.8836 0.0000 0.0001 0.0000
# 3 10.0768 68.8836 89.5024 -0.0004 0.0001 0.0000
# 4 -0.0001 0.0000 -0.0004 37.7402 0.0001 0.0000
# 5 0.0000 0.0001 0.0001 0.0001 32.6619 0.0000
# 6 0.0000 0.0000 0.0000 0.0000 0.0000 24.0637
#
#
#
# Elastic Compliance Matrix: (Units=1/GPa)
#
#
# Indices 1 2 3 4 5 6 
#
# 1 0.010998 -0.001358 -0.000193 0.000000 0.000000 0.000000
# 2 -0.001358 0.012264 -0.009286 0.000000 0.000000 0.000000
# 3 -0.000193 -0.009286 0.018341 0.000000 0.000000 0.000000
# 4 0.000000 0.000000 0.000000 0.026497 0.000000 0.000000
# 5 0.000000 0.000000 0.000000 0.000000 0.030617 0.000000
# 6 0.000000 0.000000 0.000000 0.000000 0.000000 0.041556
#
#
# Mechanical properties :
#
#
# Convention : Reuss Voigt Hill
#
# Bulk Modulus (GPa) = 50.17613 56.92756 53.55185
# Shear Modulus (GPa) = 29.65757 33.66524 31.66140
#
# Velocity S-wave (km/s) = 3.72785 3.97174 3.85172
# Velocity P-wave (km/s) = 6.48386 6.90709 6.69882
#
# Compressibility (1/GPa) = 0.01992980
#
# Stress axis : x y z
#
# Youngs Moduli (GPa) = 90.92254 81.53911 54.52167
#
# Poissons Ratio (x) = 0.11072 0.01053
# Poissons Ratio (y) = 0.12346 0.50628
# Poissons Ratio (z) = 0.01757 0.75716
#
# Static dielectric constant tensor:
#      x y z
#    x 3.771840 0.000000 0.000000 
#    y 0.000000 4.153550 0.000000 
#    z 0.000000 0.000000 3.926930 
# 
# 
# High freq. dielectric constant tensor:
#      x y z
#    x 1.846580 0.000000 0.000000 
#    y 0.000000 1.829170 0.000000 
#    z 0.000000 0.000000 1.843490 
# 
# From -- ./inp_files/29203.got.cif
#   From: 2010.03.12/outbox.cif.g09.slc.cpg/sg74_15_cif.got.tgz:29203.got - 2010.04.16 15:46:19.
