data_PCOD8297709
_publ_section_title
;
Structure prediction by ZEFSAII (Michael W. Deem and Ramdas Pophale) SiO2 
 PCOD8297709
Probable space group: I M M A
;
_chemical_formula_sum "Si O2"
_cell_formula_units_Z 72
_cell_length_a 8.608010
_cell_length_b 29.114479
_cell_length_c 14.048065
_cell_angle_alpha 90.000000
_cell_angle_beta 90.000000
_cell_angle_gamma 90.000000
_cell_volume 3520.694110
_symmetry_space_group_name_H-M "I M M A"
_symmetry_group_IT_number 74
_symmetry_cell_setting 'orthorhombic'
loop_
_space_group_symop_operation_xyz
x,y,z
-x,1/2-y,z
x,-y,-z
-x,1/2+y,-z
-x,-y,-z
x,1/2+y,-z
-x,y,z
x,1/2-y,z
1/2+x,1/2+y,1/2+z
1/2-x,-y,1/2+z
1/2+x,1/2-y,1/2-z
1/2-x,y,1/2-z
1/2-x,1/2-y,1/2-z
1/2+x,y,1/2-z
1/2-x,1/2+y,1/2+z
1/2+x,-y,1/2+z
loop_
_atom_site_type_symbol
_atom_site_label
_atom_site_fract_x
_atom_site_fract_y
_atom_site_fract_z
Si Si1 0.181768 0.840156 0.458661
Si Si2 0.184933 0.569486 0.355634
Si Si3 0.318841 0.383139 0.148004
Si Si4 0.185736 0.750000 0.355932
Si Si5 0.184175 0.476999 0.143900
O O1 0.250332 0.885740 0.409371
O O2 0.215536 0.842361 0.572323
O O3 0.253532 0.794290 0.412163
O O4 0.000000 0.839468 0.439175
O O5 0.250000 0.572411 0.250000
O O6 0.251818 0.523245 0.407428
O O7 0.000000 0.566827 0.355307
O O8 0.500000 0.391940 0.161705
O O9 0.250000 0.369046 0.250000
O O10 0.246663 0.429254 0.100409
O O11 0.250000 0.750000 0.250000
O O12 0.000000 0.750000 0.353625
O O13 0.250000 0.477427 0.250000
O O14 0.000000 0.477594 0.142041
#
# Coordination Sequence:
#
# PCOD8297709 Si02
#       5
#    16  16  16   8  16
#     4   9  20  35  56  79 105 139 177 213 263 321
#     4  10  18  31  49  75 106 141 177 216 259 312
#     4  10  19  35  54  76 104 141 179 218 259 307
#     4  10  20  40  63  86 110 138 171 212 261 316
#     4  10  18  30  48  74 105 142 177 216 261 308
#
# _framework density 20.450513999999998
#
# number of rings (size 3 to 8) (size 9 to 14) (size 15 to 20)
#    0.000    2.222    0.000    6.667    0.000    0.889 
#    0.000   12.778    0.000    0.000    0.000    0.000 
#    0.000    0.000    0.000    0.000    0.000    0.000 
#
# Total GULP energy -446179.984421 kJ/mol
# GULP energy per Si atom -12393.888456 kJ/mol
# Density = 2.040397 g / cm^3
# Si number density = 20.450514 Si / 1000 Ang^3
#
#
#
# Elastic Constant Matrix: (Units=GPa)
#
#
# Indices 1 2 3 4 5 6 
#
# 1 103.3303 39.5350 28.2730 -0.0001 0.0000 0.0000
# 2 39.5350 154.0108 78.7477 -0.0002 0.0000 0.0000
# 3 28.2730 78.7477 95.0698 -0.0012 0.0001 0.0001
# 4 -0.0001 -0.0002 -0.0012 36.6719 0.0001 0.0000
# 5 0.0000 0.0000 0.0001 0.0001 23.3507 -0.0001
# 6 0.0000 0.0000 0.0001 0.0000 -0.0001 19.1221
#
#
#
# Elastic Compliance Matrix: (Units=1/GPa)
#
#
# Indices 1 2 3 4 5 6 
#
# 1 0.010870 -0.001973 -0.001598 0.000000 0.000000 0.000000
# 2 -0.001973 0.011622 -0.009040 0.000000 0.000000 0.000000
# 3 -0.001598 -0.009040 0.018481 0.000001 0.000000 0.000000
# 4 0.000000 0.000000 0.000001 0.027269 0.000000 0.000000
# 5 0.000000 0.000000 0.000000 0.000000 0.042825 0.000000
# 6 0.000000 0.000000 0.000000 0.000000 0.000000 0.052296
#
#
# Mechanical properties :
#
#
# Convention : Reuss Voigt Hill
#
# Bulk Modulus (GPa) = 63.48740 71.72470 67.60605
# Shear Modulus (GPa) = 25.79513 29.55261 27.67387
#
# Velocity S-wave (km/s) = 3.55539 3.80554 3.68259
# Velocity P-wave (km/s) = 6.92577 7.37957 7.15626
#
# Compressibility (1/GPa) = 0.01575116
#
# Stress axis : x y z
#
# Youngs Moduli (GPa) = 91.99675 86.04669 54.10825
#
# Poissons Ratio (x) = 0.16978 0.08648
# Poissons Ratio (y) = 0.18152 0.48911
# Poissons Ratio (z) = 0.14703 0.77782
#
# Static dielectric constant tensor:
#      x y z
#    x 3.502840 0.000000 0.000000 
#    y 0.000000 4.432460 0.000000 
#    z 0.000000 0.000000 5.178230 
# 
# 
# High freq. dielectric constant tensor:
#      x y z
#    x 1.783380 0.000000 0.000000 
#    y 0.000000 1.795740 0.000000 
#    z 0.000000 0.000000 1.799560 
# 
# From -- ./inp_files/29400.got.cif
#   From: 2010.03.12/outbox.cif.g09.slc.cpg/sg74_15_cif.got.tgz:29400.got - 2010.04.16 15:46:19.
