data_PCOD8297357
_publ_section_title
;
Structure prediction by ZEFSAII (Michael W. Deem and Ramdas Pophale) SiO2 
 PCOD8297357
Probable space group: I M M A
;
_chemical_formula_sum "Si O2"
_cell_formula_units_Z 88
_cell_length_a 14.098360
_cell_length_b 11.705439
_cell_length_c 27.676595
_cell_angle_alpha 90.000000
_cell_angle_beta 90.000000
_cell_angle_gamma 90.000000
_cell_volume 4567.399087
_symmetry_space_group_name_H-M "I M M A"
_symmetry_group_IT_number 74
_symmetry_cell_setting 'orthorhombic'
loop_
_space_group_symop_operation_xyz
x,y,z
-x,1/2-y,z
x,-y,-z
-x,1/2+y,-z
-x,-y,-z
x,1/2+y,-z
-x,y,z
x,1/2-y,z
1/2+x,1/2+y,1/2+z
1/2-x,-y,1/2+z
1/2+x,1/2-y,1/2-z
1/2-x,y,1/2-z
1/2-x,1/2-y,1/2-z
1/2+x,y,1/2-z
1/2-x,1/2+y,1/2+z
1/2+x,-y,1/2+z
loop_
_atom_site_type_symbol
_atom_site_label
_atom_site_fract_x
_atom_site_fract_y
_atom_site_fract_z
Si Si1 0.607925 0.002784 0.668701
Si Si2 0.108190 0.750000 0.312536
Si Si3 0.394335 0.750000 0.370026
Si Si4 0.795011 0.750000 0.412934
Si Si5 0.215049 0.114559 0.365058
Si Si6 0.608688 0.997224 0.221893
Si Si7 0.108136 0.524373 0.443839
O O1 0.500000 0.966850 0.656392
O O2 0.620796 0.138747 0.663226
O O3 0.634143 0.967237 0.723549
O O4 0.677726 0.934534 0.632689
O O5 0.178735 0.750000 0.357056
O O6 0.129380 0.637801 0.281408
O O7 0.000000 0.750000 0.331708
O O8 0.500000 0.750000 0.392791
O O9 0.319786 0.750000 0.414524
O O10 0.835537 0.859262 0.439080
O O11 0.216360 0.250000 0.365136
O O12 0.169449 0.069090 0.315743
O O13 0.157334 0.073843 0.412095
O O14 0.500000 0.024346 0.210055
O O15 0.111149 0.500000 0.500000
O O16 0.000000 0.537588 0.425491
#
# Coordination Sequence:
#
# PCOD8297357 Si02
#       7
#    16   8   8   8  16  16  16
#     4  10  21  38  60  87 120 160 204 246 292 347
#     4  10  17  30  56  89 123 152 192 245 302 358
#     4  10  19  36  64  94 123 153 194 247 298 345
#     4  12  20  38  67  93 120 156 192 244 305 357
#     4  12  25  40  57  82 120 163 203 248 295 349
#     4  10  20  34  56  87 122 159 198 244 296 354
#     4  11  25  43  65  93 120 151 192 243 304 369
#
# _framework density 19.266983
#
# number of rings (size 3 to 8) (size 9 to 14) (size 15 to 20)
#    0.000    1.273    3.636    2.455    1.273    5.455 
#    0.000    4.545    0.000    2.182    0.000    0.000 
#    0.000    0.000    0.000    0.000    0.000    0.000 
#
# Total GULP energy -545633.177431 kJ/mol
# GULP energy per Si atom -12400.754033 kJ/mol
# Density = 1.922313 g / cm^3
# Si number density = 19.266983 Si / 1000 Ang^3
#
#
#
# Elastic Constant Matrix: (Units=GPa)
#
#
# Indices 1 2 3 4 5 6 
#
# 1 135.5886 58.2417 56.0519 0.0000 0.0000 0.0000
# 2 58.2417 135.0694 28.3683 0.0000 0.0000 0.0000
# 3 56.0519 28.3683 66.2885 0.0000 0.0000 0.0000
# 4 0.0000 0.0000 0.0000 24.9609 0.0000 0.0000
# 5 0.0000 0.0000 0.0000 0.0000 24.2169 0.0000
# 6 0.0000 0.0000 0.0000 0.0000 0.0000 24.3955
#
#
#
# Elastic Compliance Matrix: (Units=1/GPa)
#
#
# Indices 1 2 3 4 5 6 
#
# 1 0.012715 -0.003543 -0.009235 0.000000 0.000000 0.000000
# 2 -0.003543 0.009122 -0.000908 0.000000 0.000000 0.000000
# 3 -0.009235 -0.000908 0.023283 0.000000 0.000000 0.000000
# 4 0.000000 0.000000 0.000000 0.040063 0.000000 0.000000
# 5 0.000000 0.000000 0.000000 0.000000 0.041293 0.000000
# 6 0.000000 0.000000 0.000000 0.000000 0.000000 0.040991
#
#
# Mechanical properties :
#
#
# Convention : Reuss Voigt Hill
#
# Bulk Modulus (GPa) = 56.34469 69.14113 62.74291
# Shear Modulus (GPa) = 24.90589 27.66696 26.28643
#
# Velocity S-wave (km/s) = 3.59928 3.79354 3.69768
# Velocity P-wave (km/s) = 6.82501 7.42642 7.13205
#
# Compressibility (1/GPa) = 0.01774790
#
# Stress axis : x y z
#
# Youngs Moduli (GPa) = 78.64755 109.62470 42.94948
#
# Poissons Ratio (x) = 0.38840 0.39665
# Poissons Ratio (y) = 0.27865 0.03899
# Poissons Ratio (z) = 0.72633 0.09953
#
# Static dielectric constant tensor:
#      x y z
#    x 3.952750 0.000000 0.000000 
#    y 0.000000 3.477030 0.000000 
#    z 0.000000 0.000000 3.421810 
# 
# 
# High freq. dielectric constant tensor:
#      x y z
#    x 1.769810 0.000000 0.000000 
#    y 0.000000 1.744900 0.000000 
#    z 0.000000 0.000000 1.723460 
# 
# From -- ./inp_files/72421.got.cif
#   From: 2010.03.12/outbox.cif.g09.slc.cpg/sg74_37_cif.got.tgz:72421.got - 2010.04.16 15:46:19.
