data_PCOD8297146
_publ_section_title
;
Structure prediction by ZEFSAII (Michael W. Deem and Ramdas Pophale) SiO2 
 PCOD8297146
Probable space group: I M M A
;
_chemical_formula_sum "Si O2"
_cell_formula_units_Z 96
_cell_length_a 18.338613
_cell_length_b 26.136579
_cell_length_c 12.113723
_cell_angle_alpha 90.000000
_cell_angle_beta 90.000000
_cell_angle_gamma 90.000000
_cell_volume 5806.211702
_symmetry_space_group_name_H-M "I M M A"
_symmetry_group_IT_number 74
_symmetry_cell_setting 'orthorhombic'
loop_
_space_group_symop_operation_xyz
x,y,z
-x,1/2-y,z
x,-y,-z
-x,1/2+y,-z
-x,-y,-z
x,1/2+y,-z
-x,y,z
x,1/2-y,z
1/2+x,1/2+y,1/2+z
1/2-x,-y,1/2+z
1/2+x,1/2-y,1/2-z
1/2-x,y,1/2-z
1/2-x,1/2-y,1/2-z
1/2+x,y,1/2-z
1/2-x,1/2+y,1/2+z
1/2+x,-y,1/2+z
loop_
_atom_site_type_symbol
_atom_site_label
_atom_site_fract_x
_atom_site_fract_y
_atom_site_fract_z
Si Si1 0.668736 0.055439 0.799881
Si Si2 0.365147 0.443025 0.456070
Si Si3 0.918280 0.622732 0.135192
Si Si4 0.287126 0.606748 0.993153
Si Si5 0.332121 0.442425 0.214813
Si Si6 0.783559 0.690326 0.131029
O O1 0.750000 0.059768 0.750000
O O2 0.611574 0.078350 0.714166
O O3 0.644813 0.997844 0.831456
O O4 0.660039 0.087690 0.910875
O O5 0.382620 0.500000 0.500000
O O6 0.418564 0.402551 0.513884
O O7 0.281194 0.431704 0.486775
O O8 0.379548 0.432895 0.325430
O O9 0.867663 0.673007 0.136095
O O10 0.000000 0.639334 0.168108
O O11 0.334491 0.602877 0.878653
O O12 0.259152 0.663282 0.028594
O O13 0.250000 0.447877 0.250000
O O14 0.778829 0.750000 0.106914
O O15 0.750000 0.675496 0.250000
#
# Coordination Sequence:
#
# PCOD8297146 Si02
#       6
#    16  16  16  16  16  16
#     4  11  15  29  47  71  99 135 162 202 249 301
#     4  10  16  29  44  70 100 133 170 201 240 292
#     4  11  21  31  48  71 104 137 164 204 254 303
#     4  10  16  27  49  74  96 127 160 211 260 297
#     4   9  17  24  45  72 100 129 168 198 239 298
#     4  10  19  34  55  77  99 126 168 219 265 301
#
# _framework density 16.534016000000001
#
# number of rings (size 3 to 8) (size 9 to 14) (size 15 to 20)
#    0.000    1.833    6.667    2.500    0.000    0.667 
#    0.000    0.000    0.000   15.500    0.000    0.000 
#    0.000    0.000    0.000    0.000    0.000    0.000 
#
# Total GULP energy -594678.589676 kJ/mol
# GULP energy per Si atom -12389.137285 kJ/mol
# Density = 1.649638 g / cm^3
# Si number density = 16.534016 Si / 1000 Ang^3
#
#
#
# Elastic Constant Matrix: (Units=GPa)
#
#
# Indices 1 2 3 4 5 6 
#
# 1 57.9127 24.4054 35.1496 0.0000 0.0000 0.0000
# 2 24.4054 93.8373 51.3054 0.0000 0.0000 0.0000
# 3 35.1496 51.3054 114.7546 0.0000 0.0000 0.0000
# 4 0.0000 0.0000 0.0000 23.8727 0.0000 0.0000
# 5 0.0000 0.0000 0.0000 0.0000 10.5926 0.0000
# 6 0.0000 0.0000 0.0000 0.0000 0.0000 5.1596
#
#
#
# Elastic Compliance Matrix: (Units=1/GPa)
#
#
# Indices 1 2 3 4 5 6 
#
# 1 0.021701 -0.002660 -0.005458 0.000000 0.000000 0.000000
# 2 -0.002660 0.014431 -0.005637 0.000000 0.000000 0.000000
# 3 -0.005458 -0.005637 0.012906 0.000000 0.000000 0.000000
# 4 0.000000 0.000000 0.000000 0.041889 0.000000 0.000000
# 5 0.000000 0.000000 0.000000 0.000000 0.094406 0.000000
# 6 0.000000 0.000000 0.000000 0.000000 0.000000 0.193812
#
#
# Mechanical properties :
#
#
# Convention : Reuss Voigt Hill
#
# Bulk Modulus (GPa) = 46.45077 54.24727 50.34902
# Shear Modulus (GPa) = 12.08225 18.30127 15.19176
#
# Velocity S-wave (km/s) = 2.70617 3.33060 3.03449
# Velocity P-wave (km/s) = 6.15789 6.90444 6.54182
#
# Compressibility (1/GPa) = 0.02152817
#
# Stress axis : x y z
#
# Youngs Moduli (GPa) = 46.08109 69.29739 77.48223
#
# Poissons Ratio (x) = 0.18433 0.42288
# Poissons Ratio (y) = 0.12258 0.43676
# Poissons Ratio (z) = 0.25150 0.39063
#
# Static dielectric constant tensor:
#      x y z
#    x 2.766100 0.000000 0.000000 
#    y 0.000000 2.961270 0.000000 
#    z 0.000000 0.000000 3.918620 
# 
# 
# High freq. dielectric constant tensor:
#      x y z
#    x 1.588090 0.000000 0.000000 
#    y 0.000000 1.614140 0.000000 
#    z 0.000000 0.000000 1.644670 
# 
# From -- ./inp_files/22634.got.cif
#   From: 2010.03.12/outbox.cif.g09.slc.cpg/sg74_12_cif.got.tgz:22634.got - 2010.04.16 15:46:19.
