data_PCOD8297836
_publ_section_title
;
Structure prediction by ZEFSAII (Michael W. Deem and Ramdas Pophale) SiO2 
 PCOD8297836
Probable space group: I M M A
;
_chemical_formula_sum "Si O2"
_cell_formula_units_Z 80
_cell_length_a 25.356364
_cell_length_b 8.653325
_cell_length_c 19.682934
_cell_angle_alpha 90.000000
_cell_angle_beta 90.000000
_cell_angle_gamma 90.000000
_cell_volume 4318.767545
_symmetry_space_group_name_H-M "I M M A"
_symmetry_group_IT_number 74
_symmetry_cell_setting 'orthorhombic'
loop_
_space_group_symop_operation_xyz
x,y,z
-x,1/2-y,z
x,-y,-z
-x,1/2+y,-z
-x,-y,-z
x,1/2+y,-z
-x,y,z
x,1/2-y,z
1/2+x,1/2+y,1/2+z
1/2-x,-y,1/2+z
1/2+x,1/2-y,1/2-z
1/2-x,y,1/2-z
1/2-x,1/2-y,1/2-z
1/2+x,y,1/2-z
1/2-x,1/2+y,1/2+z
1/2+x,-y,1/2+z
loop_
_atom_site_type_symbol
_atom_site_label
_atom_site_fract_x
_atom_site_fract_y
_atom_site_fract_z
Si Si1 0.560189 0.570908 0.815619
Si Si2 0.357904 0.931132 0.574180
Si Si3 0.748342 0.433175 0.575340
Si Si4 0.645068 0.567977 0.925743
Si Si5 0.438662 0.928165 0.325908
O O1 0.500000 0.535500 0.836374
O O2 0.568203 0.750000 0.797195
O O3 0.596074 0.520706 0.878790
O O4 0.577500 0.471811 0.750593
O O5 0.349623 0.750000 0.566720
O O6 0.368715 0.000000 0.500000
O O7 0.305459 0.004503 0.609733
O O8 0.407521 0.966552 0.621266
O O9 0.747866 0.500000 0.500000
O O10 0.748847 0.250000 0.576160
O O11 0.801979 0.497608 0.609301
O O12 0.652032 0.750000 0.932341
O O13 0.634240 0.500000 0.000000
O O14 0.500000 0.963425 0.337662
O O15 0.424861 0.750000 0.338838
#
# Coordination Sequence:
#
# PCOD8297836 Si02
#       5
#    16  16  16  16  16
#     4   9  19  36  55  75 103 140 177 214 260 311
#     4  11  21  35  56  80 107 137 172 213 256 305
#     4  10  18  31  51  75 105 137 171 211 258 309
#     4  10  19  32  52  78 107 138 175 216 258 307
#     4  10  21  37  56  78 105 137 173 213 259 310
#
# _framework density 18.523802
#
# number of rings (size 3 to 8) (size 9 to 14) (size 15 to 20)
#    0.000    2.000    0.000    7.200    0.000    3.600 
#    0.000    1.000    0.000    6.000    0.000    0.000 
#    0.000    0.000    0.000    0.000    0.000    0.000 
#
# Total GULP energy -495996.791220 kJ/mol
# GULP energy per Si atom -12399.919781 kJ/mol
# Density = 1.848164 g / cm^3
# Si number density = 18.523802 Si / 1000 Ang^3
#
#
#
# Elastic Constant Matrix: (Units=GPa)
#
#
# Indices 1 2 3 4 5 6 
#
# 1 120.6761 55.6583 67.4483 0.0000 0.0000 0.0000
# 2 55.6583 126.2026 41.7319 0.0000 0.0000 0.0000
# 3 67.4483 41.7319 79.5695 0.0000 0.0000 0.0000
# 4 0.0000 0.0000 0.0000 29.1459 0.0000 0.0000
# 5 0.0000 0.0000 0.0000 0.0000 5.9059 0.0000
# 6 0.0000 0.0000 0.0000 0.0000 0.0000 31.2516
#
#
#
# Elastic Compliance Matrix: (Units=1/GPa)
#
#
# Indices 1 2 3 4 5 6 
#
# 1 0.016790 -0.003265 -0.012520 0.000000 0.000000 0.000000
# 2 -0.003265 0.010221 -0.002593 0.000000 0.000000 0.000000
# 3 -0.012520 -0.002593 0.024541 0.000000 0.000000 0.000000
# 4 0.000000 0.000000 0.000000 0.034310 0.000000 0.000000
# 5 0.000000 0.000000 0.000000 0.000000 0.169321 0.000000
# 6 0.000000 0.000000 0.000000 0.000000 0.000000 0.031998
#
#
# Mechanical properties :
#
#
# Convention : Reuss Voigt Hill
#
# Bulk Modulus (GPa) = 67.58793 72.90280 70.24536
# Shear Modulus (GPa) = 15.20358 24.03467 19.61913
#
# Velocity S-wave (km/s) = 2.86800 3.60599 3.25796
# Velocity P-wave (km/s) = 6.89445 7.53520 7.22194
#
# Compressibility (1/GPa) = 0.01479554
#
# Stress axis : x y z
#
# Youngs Moduli (GPa) = 59.55852 97.83660 40.74876
#
# Poissons Ratio (x) = 0.31941 0.51018
# Poissons Ratio (y) = 0.19445 0.10567
# Poissons Ratio (z) = 0.74568 0.25371
#
# Static dielectric constant tensor:
#      x y z
#    x 4.055390 0.000000 0.000000 
#    y 0.000000 3.492060 0.000000 
#    z 0.000000 0.000000 3.147640 
# 
# 
# High freq. dielectric constant tensor:
#      x y z
#    x 1.734610 0.000000 0.000000 
#    y 0.000000 1.734610 0.000000 
#    z 0.000000 0.000000 1.686730 
# 
# From -- ./inp_files/39730.got.cif
#   From: 2010.03.12/outbox.cif.g09.slc.cpg/sg74_20_cif.got.tgz:39730.got - 2010.04.16 15:46:19.
