data_PCOD8297568
_publ_section_title
;
Structure prediction by ZEFSAII (Michael W. Deem and Ramdas Pophale) SiO2 
 PCOD8297568
Probable space group: I M M A
;
_chemical_formula_sum "Si O2"
_cell_formula_units_Z 80
_cell_length_a 26.037806
_cell_length_b 7.792296
_cell_length_c 28.232503
_cell_angle_alpha 90.000000
_cell_angle_beta 90.000000
_cell_angle_gamma 90.000000
_cell_volume 5728.213695
_symmetry_space_group_name_H-M "I M M A"
_symmetry_group_IT_number 74
_symmetry_cell_setting 'orthorhombic'
loop_
_space_group_symop_operation_xyz
x,y,z
-x,1/2-y,z
x,-y,-z
-x,1/2+y,-z
-x,-y,-z
x,1/2+y,-z
-x,y,z
x,1/2-y,z
1/2+x,1/2+y,1/2+z
1/2-x,-y,1/2+z
1/2+x,1/2-y,1/2-z
1/2-x,y,1/2-z
1/2-x,1/2-y,1/2-z
1/2+x,y,1/2-z
1/2-x,1/2+y,1/2+z
1/2+x,-y,1/2+z
loop_
_atom_site_type_symbol
_atom_site_label
_atom_site_fract_x
_atom_site_fract_y
_atom_site_fract_z
Si Si1 0.604592 0.949191 0.447839
Si Si2 0.668450 0.750000 0.767377
Si Si3 0.500000 0.942098 0.594963
Si Si4 0.390659 0.443294 0.730047
Si Si5 0.000000 0.045215 0.199277
Si Si6 0.674990 0.052063 0.637205
Si Si7 0.763715 0.250000 0.174041
O O1 0.596834 0.750000 0.442421
O O2 0.648027 0.010257 0.411187
O O3 0.623314 0.000000 0.500000
O O4 0.549475 0.028808 0.437212
O O5 0.633835 0.578124 0.766989
O O6 0.702890 0.750000 0.814967
O O7 0.705088 0.750000 0.722376
O O8 0.500000 0.750000 0.612201
O O9 0.500000 0.038199 0.645920
O O10 0.379206 0.250000 0.748105
O O11 0.451109 0.474099 0.727204
O O12 0.367079 0.472352 0.678084
O O13 0.000000 0.250000 0.200512
O O14 0.694474 0.250000 0.634848
O O15 0.722864 0.924038 0.645231
#
# Coordination Sequence:
#
# PCOD8297568 Si02
#       7
#    16   8   8  16   8  16   8
#     4  11  22  33  43  57  81 105 140 185 222 267
#     4   9  18  31  42  68  80 101 130 173 218 260
#     4  11  22  30  45  59  75 109 143 178 226 264
#     4  10  18  29  45  61  84 108 136 169 211 252
#     4  11  19  28  44  62  83 112 145 176 206 264
#     4   9  19  31  45  62  77 105 138 171 217 266
#     4   9  18  30  50  58  84 100 128 174 220 269
#
# _framework density 13.965960000000001
#
# number of rings (size 3 to 8) (size 9 to 14) (size 15 to 20)
#    0.000    2.000    3.000    1.500    2.800    1.600 
#    0.000    4.000    0.000    0.000    0.000    0.000 
#    0.000    0.000    0.000    0.000    0.000    0.000 
#
# Total GULP energy -495910.979053 kJ/mol
# GULP energy per Si atom -12397.774476 kJ/mol
# Density = 1.393417 g / cm^3
# Si number density = 13.965960 Si / 1000 Ang^3
#
#
#
# Elastic Constant Matrix: (Units=GPa)
#
#
# Indices 1 2 3 4 5 6 
#
# 1 81.0775 43.3704 47.5902 0.0000 0.0000 0.0000
# 2 43.3704 90.5482 33.7319 0.0000 0.0000 0.0000
# 3 47.5902 33.7319 51.5036 0.0000 0.0000 0.0000
# 4 0.0000 0.0000 0.0000 15.4560 0.0000 0.0000
# 5 0.0000 0.0000 0.0000 0.0000 26.4923 0.0000
# 6 0.0000 0.0000 0.0000 0.0000 0.0000 18.7466
#
#
#
# Elastic Compliance Matrix: (Units=1/GPa)
#
#
# Indices 1 2 3 4 5 6 
#
# 1 0.028630 -0.005103 -0.023112 0.000000 0.000000 0.000000
# 2 -0.005103 0.015518 -0.005448 0.000000 0.000000 0.000000
# 3 -0.023112 -0.005448 0.044340 0.000000 0.000000 0.000000
# 4 0.000000 0.000000 0.000000 0.064700 0.000000 0.000000
# 5 0.000000 0.000000 0.000000 0.000000 0.037747 0.000000
# 6 0.000000 0.000000 0.000000 0.000000 0.000000 0.053343
#
#
# Mechanical properties :
#
#
# Convention : Reuss Voigt Hill
#
# Bulk Modulus (GPa) = 47.25583 52.50158 49.87870
# Shear Modulus (GPa) = 15.69084 18.70145 17.19614
#
# Velocity S-wave (km/s) = 3.35551 3.66331 3.51278
# Velocity P-wave (km/s) = 6.99446 7.45434 7.22806
#
# Compressibility (1/GPa) = 0.02116141
#
# Stress axis : x y z
#
# Youngs Moduli (GPa) = 34.92851 64.44318 22.55284
#
# Poissons Ratio (x) = 0.32885 0.52125
# Poissons Ratio (y) = 0.17824 0.12286
# Poissons Ratio (z) = 0.80728 0.35108
#
# Static dielectric constant tensor:
#      x y z
#    x 2.654020 0.000000 0.000000 
#    y 0.000000 2.970500 0.000000 
#    z 0.000000 0.000000 2.439370 
# 
# 
# High freq. dielectric constant tensor:
#      x y z
#    x 1.505730 0.000000 0.000000 
#    y 0.000000 1.554350 0.000000 
#    z 0.000000 0.000000 1.486050 
# 
# From -- ./inp_files/56907.got.cif
#   From: 2010.03.12/outbox.cif.g09.slc.cpg/sg74_29_cif.got.tgz:56907.got - 2010.04.16 15:46:19.
