data_PCOD8297471
_publ_section_title
;
Structure prediction by ZEFSAII (Michael W. Deem and Ramdas Pophale) SiO2 
 PCOD8297471
Probable space group: I M M A
;
_chemical_formula_sum "Si O2"
_cell_formula_units_Z 88
_cell_length_a 18.122981
_cell_length_b 7.713110
_cell_length_c 34.982251
_cell_angle_alpha 90.000000
_cell_angle_beta 90.000000
_cell_angle_gamma 90.000000
_cell_volume 4889.978073
_symmetry_space_group_name_H-M "I M M A"
_symmetry_group_IT_number 74
_symmetry_cell_setting 'orthorhombic'
loop_
_space_group_symop_operation_xyz
x,y,z
-x,1/2-y,z
x,-y,-z
-x,1/2+y,-z
-x,-y,-z
x,1/2+y,-z
-x,y,z
x,1/2-y,z
1/2+x,1/2+y,1/2+z
1/2-x,-y,1/2+z
1/2+x,1/2-y,1/2-z
1/2-x,y,1/2-z
1/2-x,1/2-y,1/2-z
1/2+x,y,1/2-z
1/2-x,1/2+y,1/2+z
1/2+x,-y,1/2+z
loop_
_atom_site_type_symbol
_atom_site_label
_atom_site_fract_x
_atom_site_fract_y
_atom_site_fract_z
Si Si1 0.626824 0.942557 0.384211
Si Si2 0.000000 0.545893 0.456037
Si Si3 0.703766 0.047274 0.542682
Si Si4 0.236809 0.750000 0.794570
Si Si5 0.351050 0.955373 0.079087
Si Si6 0.716717 0.558647 0.155853
Si Si7 0.919821 0.750000 0.834087
O O1 0.589612 0.750000 0.382971
O O2 0.638949 0.010911 0.427868
O O3 0.707048 0.929481 0.366170
O O4 0.579173 0.080008 0.360790
O O5 0.000000 0.500000 0.500000
O O6 0.927301 0.463312 0.436379
O O7 0.000000 0.750000 0.449834
O O8 0.712305 0.250000 0.547464
O O9 0.782998 0.963514 0.554392
O O10 0.679913 0.000000 0.500000
O O11 0.250000 0.750000 0.750000
O O12 0.278207 0.580222 0.810337
O O13 0.149128 0.750000 0.804737
O O14 0.351514 0.750000 0.073822
O O15 0.343318 0.001182 0.124195
O O16 0.697100 0.750000 0.172822
O O17 0.000000 0.750000 0.812587
#
# Coordination Sequence:
#
# PCOD8297471 Si02
#       7
#    16   8  16   8  16  16   8
#     4   8  16  30  47  71  97 124 164 207 235 280
#     4  10  18  28  40  60  94 136 174 222 264 300
#     4   9  16  25  40  65  91 121 161 213 257 286
#     4  10  20  34  56  84 106 124 156 200 248 300
#     4   8  15  28  43  60  91 129 171 210 253 296
#     4   8  15  31  51  71  97 128 164 203 242 291
#     4  10  20  34  56  78  98 130 162 190 244 296
#
# _framework density 17.995989999999999
#
# number of rings (size 3 to 8) (size 9 to 14) (size 15 to 20)
#    0.000    3.273    0.000    2.727    1.273    0.727 
#    3.273    0.000    2.000    0.545    0.000    0.000 
#    0.000    0.000    0.000    0.000    0.000    0.000 
#
# Total GULP energy -545128.238693 kJ/mol
# GULP energy per Si atom -12389.278152 kJ/mol
# Density = 1.795503 g / cm^3
# Si number density = 17.995990 Si / 1000 Ang^3
#
#
#
# Elastic Constant Matrix: (Units=GPa)
#
#
# Indices 1 2 3 4 5 6 
#
# 1 76.1940 20.8252 38.1019 0.0000 0.0000 0.0000
# 2 20.8252 70.1805 42.5535 0.0000 0.0000 0.0000
# 3 38.1019 42.5535 130.3646 0.0000 0.0000 0.0000
# 4 0.0000 0.0000 0.0000 23.2326 0.0000 0.0000
# 5 0.0000 0.0000 0.0000 0.0000 18.0812 0.0000
# 6 0.0000 0.0000 0.0000 0.0000 0.0000 6.0196
#
#
#
# Elastic Compliance Matrix: (Units=1/GPa)
#
#
# Indices 1 2 3 4 5 6 
#
# 1 0.015672 -0.002335 -0.003818 0.000000 0.000000 0.000000
# 2 -0.002335 0.018113 -0.005230 0.000000 0.000000 0.000000
# 3 -0.003818 -0.005230 0.010494 0.000000 0.000000 0.000000
# 4 0.000000 0.000000 0.000000 0.043043 0.000000 0.000000
# 5 0.000000 0.000000 0.000000 0.000000 0.055306 0.000000
# 6 0.000000 0.000000 0.000000 0.000000 0.000000 0.166123
#
#
# Mechanical properties :
#
#
# Convention : Reuss Voigt Hill
#
# Bulk Modulus (GPa) = 46.48545 53.30005 49.89275
# Shear Modulus (GPa) = 14.76281 21.15057 17.95669
#
# Velocity S-wave (km/s) = 2.86726 3.43197 3.16225
# Velocity P-wave (km/s) = 6.07031 6.73696 6.41230
#
# Compressibility (1/GPa) = 0.02151211
#
# Stress axis : x y z
#
# Youngs Moduli (GPa) = 63.80794 55.20871 95.29364
#
# Poissons Ratio (x) = 0.12893 0.36385
# Poissons Ratio (y) = 0.14901 0.49838
# Poissons Ratio (z) = 0.24363 0.28874
#
# Static dielectric constant tensor:
#      x y z
#    x 3.349570 0.000000 0.000000 
#    y 0.000000 3.614440 0.000000 
#    z 0.000000 0.000000 2.344380 
# 
# 
# High freq. dielectric constant tensor:
#      x y z
#    x 1.668540 0.000000 0.000000 
#    y 0.000000 1.695070 0.000000 
#    z 0.000000 0.000000 1.669610 
# 
# From -- ./inp_files/73026.got.cif
#   From: 2010.03.12/outbox.cif.g09.slc.cpg/sg74_37_cif.got.tgz:73026.got - 2010.04.16 15:46:19.
