data_PCOD8297749
_publ_section_title
;
Structure prediction by ZEFSAII (Michael W. Deem and Ramdas Pophale) SiO2 
 PCOD8297749
Probable space group: I M M A
;
_chemical_formula_sum "Si O2"
_cell_formula_units_Z 128
_cell_length_a 17.051843
_cell_length_b 17.691590
_cell_length_c 24.761482
_cell_angle_alpha 90.000000
_cell_angle_beta 90.000000
_cell_angle_gamma 90.000000
_cell_volume 7469.900647
_symmetry_space_group_name_H-M "I M M A"
_symmetry_group_IT_number 74
_symmetry_cell_setting 'orthorhombic'
loop_
_space_group_symop_operation_xyz
x,y,z
-x,1/2-y,z
x,-y,-z
-x,1/2+y,-z
-x,-y,-z
x,1/2+y,-z
-x,y,z
x,1/2-y,z
1/2+x,1/2+y,1/2+z
1/2-x,-y,1/2+z
1/2+x,1/2-y,1/2-z
1/2-x,y,1/2-z
1/2-x,1/2-y,1/2-z
1/2+x,y,1/2-z
1/2-x,1/2+y,1/2+z
1/2+x,-y,1/2+z
loop_
_atom_site_type_symbol
_atom_site_label
_atom_site_fract_x
_atom_site_fract_y
_atom_site_fract_z
Si Si1 0.267976 0.661737 0.061131
Si Si2 0.908049 0.336288 0.386872
Si Si3 0.302172 0.931379 0.963236
Si Si4 0.093157 0.666998 0.734205
Si Si5 0.820827 0.074961 0.713677
Si Si6 0.283969 0.024087 0.622544
Si Si7 0.413957 0.162845 0.870026
Si Si8 0.092222 0.023657 0.202688
O O1 0.244326 0.750000 0.066747
O O2 0.211993 0.610382 0.099378
O O3 0.358495 0.645888 0.078613
O O4 0.261501 0.633780 0.999515
O O5 0.887075 0.250000 0.403146
O O6 0.870945 0.395058 0.428404
O O7 0.876543 0.352802 0.326184
O O8 0.000000 0.349688 0.390107
O O9 0.235287 0.965156 0.924573
O O10 0.336073 0.000000 0.000000
O O11 0.124235 0.750000 0.751616
O O12 0.121740 0.606944 0.778815
O O13 0.000000 0.667326 0.731391
O O14 0.750000 0.109465 0.750000
O O15 0.782103 0.018988 0.669363
O O16 0.869630 0.140073 0.684677
O O17 0.884161 0.031861 0.749362
O O18 0.367799 0.000323 0.646574
O O19 0.500000 0.122918 0.876925
O O20 0.429452 0.250000 0.864508
O O21 0.000000 0.020343 0.193183
#
# Coordination Sequence:
#
# PCOD8297749 Si02
#       8
#    16  16  16  16  16  16  16  16
#     4   9  18  33  51  67  89 127 162 190 237 290
#     4   9  17  29  45  67  98 132 161 190 227 275
#     4  10  19  31  47  66  91 121 158 203 242 279
#     4   8  15  28  45  66  93 124 151 175 215 272
#     4   9  17  29  46  68  97 130 156 181 221 277
#     4   9  19  33  48  71  99 123 154 195 233 277
#     4   9  17  29  45  67  95 124 158 199 234 269
#     4  10  18  30  51  73  95 124 155 190 232 275
#
# _framework density 17.135435000000001
#
# number of rings (size 3 to 8) (size 9 to 14) (size 15 to 20)
#    0.000    2.875    0.000    2.250    0.000    1.000 
#    0.000   10.625    0.000    9.375    0.000    0.000 
#    0.000    0.000    0.000    0.000    0.000    0.000 
#
# Total GULP energy -793156.528109 kJ/mol
# GULP energy per Si atom -12393.070752 kJ/mol
# Density = 1.709643 g / cm^3
# Si number density = 17.135435 Si / 1000 Ang^3
#
#
#
# Elastic Constant Matrix: (Units=GPa)
#
#
# Indices 1 2 3 4 5 6 
#
# 1 64.7128 37.0999 46.0692 0.0000 0.0000 0.0000
# 2 37.0999 88.0153 58.1343 0.0000 0.0000 0.0000
# 3 46.0692 58.1343 102.0627 0.0000 0.0000 0.0000
# 4 0.0000 0.0000 0.0000 30.5371 0.0000 0.0000
# 5 0.0000 0.0000 0.0000 0.0000 21.3315 0.0000
# 6 0.0000 0.0000 0.0000 0.0000 0.0000 18.7801
#
#
#
# Elastic Compliance Matrix: (Units=1/GPa)
#
#
# Indices 1 2 3 4 5 6 
#
# 1 0.023941 -0.004735 -0.008109 0.000000 0.000000 0.000000
# 2 -0.004735 0.019151 -0.008771 0.000000 0.000000 0.000000
# 3 -0.008109 -0.008771 0.018454 0.000000 0.000000 0.000000
# 4 0.000000 0.000000 0.000000 0.032747 0.000000 0.000000
# 5 0.000000 0.000000 0.000000 0.000000 0.046879 0.000000
# 6 0.000000 0.000000 0.000000 0.000000 0.000000 0.053248
#
#
# Mechanical properties :
#
#
# Convention : Reuss Voigt Hill
#
# Bulk Modulus (GPa) = 54.60007 59.71085 57.15546
# Shear Modulus (GPa) = 20.51245 21.69556 21.10401
#
# Velocity S-wave (km/s) = 3.46363 3.56212 3.51322
# Velocity P-wave (km/s) = 6.92306 7.20002 7.06290
#
# Compressibility (1/GPa) = 0.01831499
#
# Stress axis : x y z
#
# Youngs Moduli (GPa) = 41.77022 52.21741 54.18891
#
# Poissons Ratio (x) = 0.24726 0.43943
# Poissons Ratio (y) = 0.19779 0.47528
# Poissons Ratio (z) = 0.33872 0.45798
#
# Static dielectric constant tensor:
#      x y z
#    x 2.940110 0.000000 0.000000 
#    y 0.000000 3.345350 0.000000 
#    z 0.000000 0.000000 3.315450 
# 
# 
# High freq. dielectric constant tensor:
#      x y z
#    x 1.625840 0.000000 0.000000 
#    y 0.000000 1.663660 0.000000 
#    z 0.000000 0.000000 1.661240 
# 
# From -- ./inp_files/61158.got.cif
#   From: 2010.03.12/outbox.cif.g09.slc.cpg/sg74_31_cif.got.tgz:61158.got - 2010.04.16 15:46:19.
