data_PCOD8297871
_publ_section_title
;
Structure prediction by ZEFSAII (Michael W. Deem and Ramdas Pophale) SiO2 
 PCOD8297871
Probable space group: I M M A
;
_chemical_formula_sum "Si O2"
_cell_formula_units_Z 72
_cell_length_a 8.843747
_cell_length_b 14.282460
_cell_length_c 29.984139
_cell_angle_alpha 90.000000
_cell_angle_beta 90.000000
_cell_angle_gamma 90.000000
_cell_volume 3787.310473
_symmetry_space_group_name_H-M "I M M A"
_symmetry_group_IT_number 74
_symmetry_cell_setting 'orthorhombic'
loop_
_space_group_symop_operation_xyz
x,y,z
-x,1/2-y,z
x,-y,-z
-x,1/2+y,-z
-x,-y,-z
x,1/2+y,-z
-x,y,z
x,1/2-y,z
1/2+x,1/2+y,1/2+z
1/2-x,-y,1/2+z
1/2+x,1/2-y,1/2-z
1/2-x,y,1/2-z
1/2-x,1/2-y,1/2-z
1/2+x,y,1/2-z
1/2-x,1/2+y,1/2+z
1/2+x,-y,1/2+z
loop_
_atom_site_type_symbol
_atom_site_label
_atom_site_fract_x
_atom_site_fract_y
_atom_site_fract_z
Si Si1 0.178171 0.250000 0.589693
Si Si2 0.825567 0.934704 0.121583
Si Si3 0.823573 0.435802 0.202499
Si Si4 0.676621 0.564503 0.541253
Si Si5 0.680327 0.250000 0.200860
Si Si6 0.678303 0.250000 0.011253
O O1 0.230896 0.340646 0.616676
O O2 0.245181 0.250000 0.539276
O O3 0.000000 0.250000 0.587862
O O4 0.000000 0.909871 0.113030
O O5 0.798294 0.975022 0.170912
O O6 0.772046 0.012027 0.086016
O O7 0.750000 0.460149 0.250000
O O8 0.744216 0.345437 0.178833
O O9 0.000000 0.413405 0.209157
O O10 0.723212 0.500000 0.500000
O O11 0.500000 0.588195 0.541112
O O12 0.767004 0.660520 0.538546
O O13 0.500000 0.250000 0.200519
O O14 0.750000 0.250000 0.250000
O O15 0.500000 0.250000 0.009554
#
# Coordination Sequence:
#
# PCOD8297871 Si02
#       6
#     8  16  16  16   8   8
#     4  11  23  37  57  83 113 149 186 229 282 340
#     4  10  22  39  60  84 110 146 192 236 276 327
#     4  10  20  36  58  84 115 148 187 234 281 330
#     4  10  20  36  59  82 107 145 190 230 269 325
#     4  10  18  31  54  81 111 147 183 220 273 334
#     4  11  23  36  54  84 120 152 181 227 286 336
#
# _framework density 19.010853000000001
#
# number of rings (size 3 to 8) (size 9 to 14) (size 15 to 20)
#    0.000    1.778    2.222    3.667    0.000    4.889 
#    0.000    5.000    0.000    0.000    0.000    0.000 
#    0.000    0.000    0.000    0.000    0.000    0.000 
#
# Total GULP energy -446472.627617 kJ/mol
# GULP energy per Si atom -12402.017434 kJ/mol
# Density = 1.896758 g / cm^3
# Si number density = 19.010853 Si / 1000 Ang^3
#
#
#
# Elastic Constant Matrix: (Units=GPa)
#
#
# Indices 1 2 3 4 5 6 
#
# 1 100.1993 64.2988 41.0161 0.0000 0.0000 0.0000
# 2 64.2988 150.5269 54.5144 0.0000 0.0000 0.0000
# 3 41.0161 54.5144 94.3883 0.0000 0.0000 0.0000
# 4 0.0000 0.0000 0.0000 24.3340 0.0000 0.0000
# 5 0.0000 0.0000 0.0000 0.0000 25.2400 0.0000
# 6 0.0000 0.0000 0.0000 0.0000 0.0000 7.3503
#
#
#
# Elastic Compliance Matrix: (Units=1/GPa)
#
#
# Indices 1 2 3 4 5 6 
#
# 1 0.014594 -0.004978 -0.003466 0.000000 0.000000 0.000000
# 2 -0.004978 0.010099 -0.003669 0.000000 0.000000 0.000000
# 3 -0.003466 -0.003669 0.014220 0.000000 0.000000 0.000000
# 4 0.000000 0.000000 0.000000 0.041095 0.000000 0.000000
# 5 0.000000 0.000000 0.000000 0.000000 0.039620 0.000000
# 6 0.000000 0.000000 0.000000 0.000000 0.000000 0.136049
#
#
# Mechanical properties :
#
#
# Convention : Reuss Voigt Hill
#
# Bulk Modulus (GPa) = 68.09912 73.86369 70.98141
# Shear Modulus (GPa) = 17.55623 23.73721 20.64672
#
# Velocity S-wave (km/s) = 3.04219 3.53741 3.29910
# Velocity P-wave (km/s) = 6.94542 7.45802 7.20628
#
# Compressibility (1/GPa) = 0.01468448
#
# Stress axis : x y z
#
# Youngs Moduli (GPa) = 68.52234 99.02203 70.32362
#
# Poissons Ratio (x) = 0.49298 0.24376
# Poissons Ratio (y) = 0.34114 0.25803
# Poissons Ratio (z) = 0.23752 0.36333
#
# Static dielectric constant tensor:
#      x y z
#    x 3.441330 0.000000 0.000000 
#    y 0.000000 3.652620 0.000000 
#    z 0.000000 0.000000 3.400450 
# 
# 
# High freq. dielectric constant tensor:
#      x y z
#    x 1.740660 0.000000 0.000000 
#    y 0.000000 1.745270 0.000000 
#    z 0.000000 0.000000 1.726430 
# 
# From -- ./inp_files/63717.got.cif
#   From: 2010.03.12/outbox.cif.g09.slc.cpg/sg74_32_cif.got.tgz:63717.got - 2010.04.16 15:46:19.
