data_PCOD8297277
_publ_section_title
;
Structure prediction by ZEFSAII (Michael W. Deem and Ramdas Pophale) SiO2 
 PCOD8297277
Probable space group: I M M A
;
_chemical_formula_sum "Si O2"
_cell_formula_units_Z 64
_cell_length_a 9.379457
_cell_length_b 19.262120
_cell_length_c 21.415366
_cell_angle_alpha 90.000000
_cell_angle_beta 90.000000
_cell_angle_gamma 90.000000
_cell_volume 3869.076190
_symmetry_space_group_name_H-M "I M M A"
_symmetry_group_IT_number 74
_symmetry_cell_setting 'orthorhombic'
loop_
_space_group_symop_operation_xyz
x,y,z
-x,1/2-y,z
x,-y,-z
-x,1/2+y,-z
-x,-y,-z
x,1/2+y,-z
-x,y,z
x,1/2-y,z
1/2+x,1/2+y,1/2+z
1/2-x,-y,1/2+z
1/2+x,1/2-y,1/2-z
1/2-x,y,1/2-z
1/2-x,1/2-y,1/2-z
1/2+x,y,1/2-z
1/2-x,1/2+y,1/2+z
1/2+x,-y,1/2+z
loop_
_atom_site_type_symbol
_atom_site_label
_atom_site_fract_x
_atom_site_fract_y
_atom_site_fract_z
Si Si1 0.500000 0.920822 0.712079
Si Si2 0.500000 0.921751 0.025741
Si Si3 0.250000 0.515940 0.250000
Si Si4 0.000000 0.955140 0.335027
Si Si5 0.000000 0.172502 0.093465
Si Si6 0.302837 0.670620 0.948532
Si Si7 0.500000 0.118499 0.153945
O O1 0.500000 0.878681 0.650094
O O2 0.500000 0.867835 0.771647
O O3 0.642339 0.967719 0.710645
O O4 0.500000 0.913521 0.100456
O O5 0.637635 0.881264 0.000533
O O6 0.500000 0.000000 0.000000
O O7 0.353642 0.561651 0.204223
O O8 0.000000 0.035717 0.353331
O O9 0.134607 0.159945 0.049381
O O10 0.000000 0.250000 0.121241
O O11 0.345733 0.750000 0.963727
O O12 0.361379 0.650891 0.879534
#
# Coordination Sequence:
#
# PCOD8297277 Si02
#       7
#     8   8   8   8   8  16   8
#     4  10  17  27  45  63  94 134 171 200 236 268
#     4  11  20  32  55  73  97 127 172 200 234 289
#     4   8  18  30  47  68  95 126 156 202 246 290
#     4  10  17  32  50  73  97 125 159 197 246 284
#     4  10  20  31  44  64  99 135 171 202 238 277
#     4  10  20  34  48  69  99 133 164 205 245 286
#     4   9  16  29  46  67  96 129 173 204 232 274
#
# _framework density 16.541415000000001
#
# number of rings (size 3 to 8) (size 9 to 14) (size 15 to 20)
#    0.000    2.500    2.500    4.500    0.000    1.000 
#    0.000    6.250    0.000    0.000    0.000    3.500 
#    0.000    0.000    0.000    0.000    0.000    0.000 
#
# Total GULP energy -396481.575002 kJ/mol
# GULP energy per Si atom -12390.049219 kJ/mol
# Density = 1.650377 g / cm^3
# Si number density = 16.541415 Si / 1000 Ang^3
#
#
#
# Elastic Constant Matrix: (Units=GPa)
#
#
# Indices 1 2 3 4 5 6 
#
# 1 134.4548 21.1708 40.6350 0.0000 0.0000 0.0000
# 2 21.1708 54.7400 35.0304 0.0000 0.0000 0.0000
# 3 40.6350 35.0304 104.6853 0.0000 0.0000 0.0000
# 4 0.0000 0.0000 0.0000 25.5308 0.0000 0.0000
# 5 0.0000 0.0000 0.0000 0.0000 17.7946 0.0000
# 6 0.0000 0.0000 0.0000 0.0000 0.0000 -0.6472
#
#
#
# Elastic Compliance Matrix: (Units=1/GPa)
#
#
# Indices 1 2 3 4 5 6 
#
# 1 0.008522 -0.001500 -0.002806 0.000000 0.000000 0.000000
# 2 -0.001500 0.023510 -0.007285 0.000000 0.000000 0.000000
# 3 -0.002806 -0.007285 0.013079 0.000000 0.000000 0.000000
# 4 0.000000 0.000000 0.000000 0.039168 0.000000 0.000000
# 5 0.000000 0.000000 0.000000 0.000000 0.056197 0.000000
# 6 0.000000 0.000000 0.000000 0.000000 0.000000 -1.545078
#
#
# Mechanical properties :
#
#
# Convention : Reuss Voigt Hill
#
# Bulk Modulus (GPa) = 45.60070 54.17251 49.88661
# Shear Modulus (GPa) = -3.63872 21.67189 9.01658
#
# Velocity S-wave (km/s) = -1.48477 3.62354 2.33725
# Velocity P-wave (km/s) = 4.96871 7.09418 6.12436
#
# Compressibility (1/GPa) = 0.02192949
#
# Stress axis : x y z
#
# Youngs Moduli (GPa) = 117.34848 42.53464 76.45710
#
# Poissons Ratio (x) = 0.06381 0.21452
# Poissons Ratio (y) = 0.17605 0.55698
# Poissons Ratio (z) = 0.32925 0.30986
#
# Static dielectric constant tensor:
#      x y z
#    x 3.325860 0.000000 0.000000 
#    y 0.000000 2.852040 0.000000 
#    z 0.000000 0.000000 3.113710 
# 
# 
# High freq. dielectric constant tensor:
#      x y z
#    x 1.656510 0.000000 0.000000 
#    y 0.000000 1.602020 0.000000 
#    z 0.000000 0.000000 1.616860 
# 
# From -- ./inp_files/56621.got.cif
#   From: 2010.03.12/outbox.cif.g09.slc.cpg/sg74_29_cif.got.tgz:56621.got - 2010.04.16 15:46:19.
