data_PCOD8297092
_publ_section_title
;
Structure prediction by ZEFSAII (Michael W. Deem and Ramdas Pophale) SiO2 
 PCOD8297092
Probable space group: I B C A 
;
_chemical_formula_sum "Si O2"
_cell_formula_units_Z 56
_cell_length_a 15.000000
_cell_length_b 30.000000
_cell_length_c 12.000000
_cell_angle_alpha 90.000000
_cell_angle_beta 90.000000
_cell_angle_gamma 90.000000
_cell_volume 5400.000000
_symmetry_space_group_name_H-M "I B C A "
_symmetry_group_IT_number 73
_symmetry_cell_setting 'orthorhombic'
loop_
_space_group_symop_operation_xyz
x,y,z
-x,1/2-y,z
x,-y,1/2-z
1/2-x,y,-z
-x,-y,-z
x,1/2+y,-z
-x,y,1/2+z
1/2+x,-y,z
1/2+x,1/2+y,1/2+z
1/2-x,-y,1/2+z
1/2+x,1/2-y,-z
-x,1/2+y,1/2-z
1/2-x,1/2-y,1/2-z
1/2+x,y,1/2-z
1/2-x,1/2+y,z
x,1/2-y,1/2+z
loop_
_atom_site_type_symbol
_atom_site_label
_atom_site_fract_x
_atom_site_fract_y
_atom_site_fract_z
Si Si1 0.636376 0.142535 0.783674
Si Si2 0.665188 0.521124 0.932437
Si Si3 0.126459 0.560743 0.804429
Si Si4 0.050063 0.429496 0.086632
Si Si5 0.492901 0.141067 0.086955
Si Si6 0.019299 0.699501 0.890820
Si Si7 0.158000 0.846263 0.249042
O O1 0.632960 0.096735 0.855529
O O2 0.593813 0.132496 0.663090
O O3 0.567246 0.176248 0.839119
O O4 0.737895 0.162703 0.783972
O O5 0.675362 0.470067 0.895011
O O6 0.650798 0.550163 0.822485
O O7 0.750000 0.537794 0.000000
O O8 0.584050 0.527619 0.018968
O O9 0.160062 0.610274 0.827885
O O10 0.019484 0.555406 0.817943
O O11 0.995582 0.398430 0.001973
O O12 0.590188 0.144558 0.146161
O O13 0.472515 0.186605 0.020361
O O14 0.112516 0.691737 0.824345
O O15 0.000000 0.750000 0.880319
#
# Coordination Sequence:
#
# PCOD8297092 Si02
#       7
#    16  16  16  16  16  16  16
#     4  10  22  37  66  96 122 173 215 266 326 392
#     4  11  24  39  62  95 132 174 216 274 322 375
#     4  11  22  41  60  94 131 168 222 269 317 389
#     4  11  19  39  64  91 126 176 218 263 325 389
#     4  10  20  39  62  90 127 168 211 265 335 375
#     4  10  23  42  63  93 129 163 213 271 334 397
#     4  11  21  41  64  93 126 168 219 264 318 406
#
# _framework density 10.370369999999999
#
# number of rings (size 3 to 8) (size 9 to 14) (size 15 to 20)
#    0.000    1.429    5.714    1.286    0.000    6.286 
#    0.000   10.000    0.000    0.000    0.000    0.000 
#    0.000    0.000    0.000    0.000    0.000    0.000 
#
# Total GULP energy -693819.932759 kJ/mol
# GULP energy per Si atom -12389.641656 kJ/mol
# Density = 1.034677 g / cm^3
# Si number density = 10.370370 Si / 1000 Ang^3
#
#
#
# Elastic Constant Matrix: (Units=GPa)
#
#
# Indices 1 2 3 4 5 6 
#
# 1 128.3226 2.9923 48.8123 -0.0004 -0.0001 0.0003
# 2 2.9923 64.2299 42.7023 -0.0005 0.0001 0.0002
# 3 48.8123 42.7023 109.5131 -0.0030 0.0000 0.0008
# 4 -0.0004 -0.0005 -0.0030 11.1978 0.0001 0.0002
# 5 -0.0001 0.0001 0.0000 0.0001 23.0342 -0.0001
# 6 0.0003 0.0002 0.0008 0.0002 -0.0001 21.3663
#
#
#
# Elastic Compliance Matrix: (Units=1/GPa)
#
#
# Indices 1 2 3 4 5 6 
#
# 1 0.009886 0.003333 -0.005706 -0.000001 0.000000 0.000000
# 2 0.003333 0.022141 -0.010119 -0.000002 0.000000 0.000000
# 3 -0.005706 -0.010119 0.015620 0.000003 0.000000 0.000000
# 4 -0.000001 -0.000002 0.000003 0.089303 0.000000 -0.000001
# 5 0.000000 0.000000 0.000000 0.000000 0.043414 0.000000
# 6 0.000000 0.000000 0.000000 -0.000001 0.000000 0.046803
#
#
# Mechanical properties :
#
#
# Convention : Reuss Voigt Hill
#
# Bulk Modulus (GPa) = 44.12453 54.56437 49.34445
# Shear Modulus (GPa) = 19.25262 24.95692 22.10477
#
# Velocity S-wave (km/s) = 3.05003 3.47260 3.26815
# Velocity P-wave (km/s) = 5.80724 6.51487 6.17121
#
# Compressibility (1/GPa) = 0.02266313
#
# Stress axis : x y z
#
# Youngs Moduli (GPa) = 101.15777 45.16444 64.01954
#
# Poissons Ratio (x) = -0.15053 0.36528
# Poissons Ratio (y) = -0.33714 0.64782
# Poissons Ratio (z) = 0.57718 0.45702
#
# Static dielectric constant tensor:
#      x y z
#    x 3.811450 0.000000 0.000000 
#    y 0.000000 3.661790 0.000000 
#    z 0.000000 0.000000 4.113020 
# 
# 
# High freq. dielectric constant tensor:
#      x y z
#    x 1.809650 0.000000 0.000000 
#    y 0.000000 1.786260 0.000000 
#    z 0.000000 0.000000 1.820210 
# 
# From -- ./inp_files/11235.got.cif
#   From: 2010.03.12/outbox.ucp.g09.slc.cvg/sg73_6_cif.got.tgz:11235.got - 2010.05.04 20:06:02.
