data_PCOD8297574
_publ_section_title
;
Structure prediction by ZEFSAII (Michael W. Deem and Ramdas Pophale) SiO2 
 PCOD8297574
Probable space group: I M M A
;
_chemical_formula_sum "Si O2"
_cell_formula_units_Z 72
_cell_length_a 8.671750
_cell_length_b 33.240448
_cell_length_c 14.856151
_cell_angle_alpha 90.000000
_cell_angle_beta 90.000000
_cell_angle_gamma 90.000000
_cell_volume 4282.327939
_symmetry_space_group_name_H-M "I M M A"
_symmetry_group_IT_number 74
_symmetry_cell_setting 'orthorhombic'
loop_
_space_group_symop_operation_xyz
x,y,z
-x,1/2-y,z
x,-y,-z
-x,1/2+y,-z
-x,-y,-z
x,1/2+y,-z
-x,y,z
x,1/2-y,z
1/2+x,1/2+y,1/2+z
1/2-x,-y,1/2+z
1/2+x,1/2-y,1/2-z
1/2-x,y,1/2-z
1/2-x,1/2-y,1/2-z
1/2+x,y,1/2-z
1/2-x,1/2+y,1/2+z
1/2+x,-y,1/2+z
loop_
_atom_site_type_symbol
_atom_site_label
_atom_site_fract_x
_atom_site_fract_y
_atom_site_fract_z
Si Si1 0.816259 0.250000 0.349704
Si Si2 0.316973 0.093988 0.468197
Si Si3 0.183907 0.668201 0.849649
Si Si4 0.682539 0.523912 0.657297
Si Si5 0.182242 0.067153 0.842824
O O1 0.750000 0.250000 0.250000
O O2 0.750264 0.209275 0.394640
O O3 0.000000 0.250000 0.350769
O O4 0.500000 0.094148 0.465573
O O5 0.255373 0.132882 0.415074
O O6 0.256313 0.053047 0.421517
O O7 0.260192 0.093850 0.572247
O O8 0.250000 0.660727 0.750000
O O9 0.000000 0.670296 0.843818
O O10 0.500000 0.525072 0.662625
O O11 0.750000 0.541051 0.750000
O O12 0.741365 0.478476 0.640708
O O13 0.250000 0.084970 0.750000
O O14 0.000000 0.068025 0.835000
#
# Coordination Sequence:
#
# PCOD8297574 Si02
#       5
#     8  16  16  16  16
#     4  10  18  30  46  64  89 118 143 168 205 254
#     4   9  17  28  44  64  86 115 148 179 213 256
#     4  10  18  29  45  66  91 117 144 173 208 252
#     4   9  16  27  43  62  86 116 147 179 214 253
#     4   9  17  30  45  61  83 114 151 185 217 252
#
# _framework density 16.813286000000002
#
# number of rings (size 3 to 8) (size 9 to 14) (size 15 to 20)
#    0.000    2.667    0.000    4.333    0.000    2.667 
#    0.000    4.444    0.000    5.333    0.000    0.778 
#    0.000    0.000    0.000    0.000    0.000    0.000 
#
# Total GULP energy -446170.720412 kJ/mol
# GULP energy per Si atom -12393.631123 kJ/mol
# Density = 1.677502 g / cm^3
# Si number density = 16.813286 Si / 1000 Ang^3
#
#
#
# Elastic Constant Matrix: (Units=GPa)
#
#
# Indices 1 2 3 4 5 6 
#
# 1 42.5323 23.4846 20.7826 0.0000 0.0000 0.0000
# 2 23.4846 101.7002 67.6485 -0.0003 0.0000 -0.0001
# 3 20.7826 67.6485 132.8031 -0.0002 -0.0001 -0.0002
# 4 0.0000 -0.0003 -0.0002 19.2659 -0.0001 -0.0001
# 5 0.0000 0.0000 -0.0001 -0.0001 21.7539 0.0000
# 6 0.0000 -0.0001 -0.0002 -0.0001 0.0000 17.4844
#
#
#
# Elastic Compliance Matrix: (Units=1/GPa)
#
#
# Indices 1 2 3 4 5 6 
#
# 1 0.027170 -0.005212 -0.001597 0.000000 0.000000 0.000000
# 2 -0.005212 0.015872 -0.007269 0.000000 0.000000 0.000000
# 3 -0.001597 -0.007269 0.011483 0.000000 0.000000 0.000000
# 4 0.000000 0.000000 0.000000 0.051905 0.000000 0.000000
# 5 0.000000 0.000000 0.000000 0.000000 0.045969 0.000000
# 6 0.000000 0.000000 0.000000 0.000000 0.000000 0.057194
#
#
# Mechanical properties :
#
#
# Convention : Reuss Voigt Hill
#
# Bulk Modulus (GPa) = 37.92477 55.65188 46.78832
# Shear Modulus (GPa) = 20.28093 22.70884 21.49488
#
# Velocity S-wave (km/s) = 3.47687 3.67910 3.57942
# Velocity P-wave (km/s) = 6.22283 7.15678 6.70608
#
# Compressibility (1/GPa) = 0.02636799
#
# Stress axis : x y z
#
# Youngs Moduli (GPa) = 36.80591 63.00548 87.08719
#
# Poissons Ratio (x) = 0.32836 0.13908
# Poissons Ratio (y) = 0.19182 0.63306
# Poissons Ratio (z) = 0.05878 0.45800
#
# Static dielectric constant tensor:
#      x y z
#    x 2.966810 0.000000 0.000000 
#    y 0.000000 3.583610 0.000000 
#    z 0.000000 0.000000 3.210490 
# 
# 
# High freq. dielectric constant tensor:
#      x y z
#    x 1.631550 0.000000 0.000000 
#    y 0.000000 1.635820 0.000000 
#    z 0.000000 0.000000 1.630940 
# 
# From -- ./inp_files/29433.got.cif
#   From: 2010.03.12/outbox.cif.g09.slc.cpg/sg74_15_cif.got.tgz:29433.got - 2010.04.16 15:46:19.
