data_PCOD8297623
_publ_section_title
;
Structure prediction by ZEFSAII (Michael W. Deem and Ramdas Pophale) SiO2 
 PCOD8297623
Probable space group: I M M A
;
_chemical_formula_sum "Si O2"
_cell_formula_units_Z 128
_cell_length_a 17.373582
_cell_length_b 17.948049
_cell_length_c 24.572998
_cell_angle_alpha 90.000000
_cell_angle_beta 90.000000
_cell_angle_gamma 90.000000
_cell_volume 7662.398951
_symmetry_space_group_name_H-M "I M M A"
_symmetry_group_IT_number 74
_symmetry_cell_setting 'orthorhombic'
loop_
_space_group_symop_operation_xyz
x,y,z
-x,1/2-y,z
x,-y,-z
-x,1/2+y,-z
-x,-y,-z
x,1/2+y,-z
-x,y,z
x,1/2-y,z
1/2+x,1/2+y,1/2+z
1/2-x,-y,1/2+z
1/2+x,1/2-y,1/2-z
1/2-x,y,1/2-z
1/2-x,1/2-y,1/2-z
1/2+x,y,1/2-z
1/2-x,1/2+y,1/2+z
1/2+x,-y,1/2+z
loop_
_atom_site_type_symbol
_atom_site_label
_atom_site_fract_x
_atom_site_fract_y
_atom_site_fract_z
Si Si1 0.259495 0.663041 0.055155
Si Si2 0.086506 0.399851 0.374568
Si Si3 0.293614 0.934268 0.960881
Si Si4 0.091469 0.667769 0.736081
Si Si5 0.867210 0.041346 0.684816
Si Si6 0.286454 0.032512 0.625794
Si Si7 0.415077 0.165642 0.887962
Si Si8 0.090373 0.022385 0.203800
O O1 0.235248 0.750000 0.057950
O O2 0.209540 0.615258 0.098720
O O3 0.350488 0.649571 0.066569
O O4 0.247898 0.629222 0.994858
O O5 0.137704 0.393209 0.428624
O O6 0.121113 0.349396 0.325242
O O7 0.085545 0.484174 0.352848
O O8 0.000000 0.375243 0.390007
O O9 0.233790 0.971162 0.919377
O O10 0.326395 0.000000 0.000000
O O11 0.120521 0.750000 0.753992
O O12 0.120088 0.605651 0.779316
O O13 0.000000 0.663505 0.733859
O O14 0.776004 0.031529 0.674414
O O15 0.896161 0.122085 0.667184
O O16 0.888075 0.033240 0.747610
O O17 0.368303 0.007881 0.649889
O O18 0.500000 0.145772 0.911543
O O19 0.411156 0.250000 0.868780
O O20 0.000000 0.022005 0.191784
#
# Coordination Sequence:
#
# PCOD8297623 Si02
#       8
#    16  16  16  16  16  16  16  16
#     4   9  18  32  48  64  86 122 158 188 232 279
#     4   9  16  25  41  65  91 122 155 182 213 258
#     4   9  18  30  44  61  85 118 153 194 234 265
#     4   8  15  28  44  65  95 124 144 168 212 269
#     4   9  16  28  45  65  94 126 150 175 215 270
#     4   9  18  32  48  67  92 119 149 187 226 268
#     4   9  16  26  42  66  95 123 152 186 220 260
#     4  10  18  29  50  73  90 116 152 186 222 265
#
# _framework density 16.704951000000001
#
# number of rings (size 3 to 8) (size 9 to 14) (size 15 to 20)
#    0.000    3.000    0.000    3.000    0.000    1.250 
#    0.000    1.250    0.000   17.250    0.000    0.000 
#    0.000    0.000    0.000    0.000    0.000    0.000 
#
# Total GULP energy -793220.213301 kJ/mol
# GULP energy per Si atom -12394.065833 kJ/mol
# Density = 1.666693 g / cm^3
# Si number density = 16.704951 Si / 1000 Ang^3
#
#
#
# Elastic Constant Matrix: (Units=GPa)
#
#
# Indices 1 2 3 4 5 6 
#
# 1 58.9082 29.8590 41.1624 0.0000 0.0000 0.0000
# 2 29.8590 97.2705 43.9819 0.0000 0.0000 0.0000
# 3 41.1624 43.9819 86.5333 0.0000 0.0000 0.0000
# 4 0.0000 0.0000 0.0000 17.9110 0.0000 0.0000
# 5 0.0000 0.0000 0.0000 0.0000 18.2019 0.0000
# 6 0.0000 0.0000 0.0000 0.0000 0.0000 15.2339
#
#
#
# Elastic Compliance Matrix: (Units=1/GPa)
#
#
# Indices 1 2 3 4 5 6 
#
# 1 0.026136 -0.003118 -0.010848 0.000000 0.000000 0.000000
# 2 -0.003118 0.013720 -0.005490 0.000000 0.000000 0.000000
# 3 -0.010848 -0.005490 0.019507 0.000000 0.000000 0.000000
# 4 0.000000 0.000000 0.000000 0.055832 0.000000 0.000000
# 5 0.000000 0.000000 0.000000 0.000000 0.054939 0.000000
# 6 0.000000 0.000000 0.000000 0.000000 0.000000 0.065643
#
#
# Mechanical properties :
#
#
# Convention : Reuss Voigt Hill
#
# Bulk Modulus (GPa) = 48.89742 52.52429 50.71086
# Shear Modulus (GPa) = 17.76164 18.78329 18.27247
#
# Velocity S-wave (km/s) = 3.26430 3.35687 3.31091
# Velocity P-wave (km/s) = 6.59866 6.82168 6.71110
#
# Compressibility (1/GPa) = 0.02045098
#
# Stress axis : x y z
#
# Youngs Moduli (GPa) = 38.26170 72.88496 51.26415
#
# Poissons Ratio (x) = 0.22726 0.55609
# Poissons Ratio (y) = 0.11930 0.28146
# Poissons Ratio (z) = 0.41505 0.40016
#
# Static dielectric constant tensor:
#      x y z
#    x 2.837860 0.000000 0.000000 
#    y 0.000000 3.281060 0.000000 
#    z 0.000000 0.000000 3.002300 
# 
# 
# High freq. dielectric constant tensor:
#      x y z
#    x 1.606830 0.000000 0.000000 
#    y 0.000000 1.645670 0.000000 
#    z 0.000000 0.000000 1.626570 
# 
# From -- ./inp_files/61149.got.cif
#   From: 2010.03.12/outbox.cif.g09.slc.cpg/sg74_31_cif.got.tgz:61149.got - 2010.04.16 15:46:19.
