data_PCOD8297541
_publ_section_title
;
Structure prediction by ZEFSAII (Michael W. Deem and Ramdas Pophale) SiO2 
 PCOD8297541
Probable space group: I M M A
;
_chemical_formula_sum "Si O2"
_cell_formula_units_Z 128
_cell_length_a 18.157564
_cell_length_b 22.085146
_cell_length_c 19.180021
_cell_angle_alpha 90.000000
_cell_angle_beta 90.000000
_cell_angle_gamma 90.000000
_cell_volume 7691.427250
_symmetry_space_group_name_H-M "I M M A"
_symmetry_group_IT_number 74
_symmetry_cell_setting 'orthorhombic'
loop_
_space_group_symop_operation_xyz
x,y,z
-x,1/2-y,z
x,-y,-z
-x,1/2+y,-z
-x,-y,-z
x,1/2+y,-z
-x,y,z
x,1/2-y,z
1/2+x,1/2+y,1/2+z
1/2-x,-y,1/2+z
1/2+x,1/2-y,1/2-z
1/2-x,y,1/2-z
1/2-x,1/2-y,1/2-z
1/2+x,y,1/2-z
1/2-x,1/2+y,1/2+z
1/2+x,-y,1/2+z
loop_
_atom_site_type_symbol
_atom_site_label
_atom_site_fract_x
_atom_site_fract_y
_atom_site_fract_z
Si Si1 0.845120 0.561136 0.955911
Si Si2 0.914772 0.479874 0.337177
Si Si3 0.586736 0.622025 0.334938
Si Si4 0.584201 0.101867 0.920078
Si Si5 0.828221 0.938851 0.539589
Si Si6 0.586778 0.680791 0.476499
Si Si7 0.912968 0.815547 0.298816
Si Si8 0.412854 0.488531 0.323641
O O1 0.758147 0.568829 0.954837
O O2 0.873280 0.557204 0.876470
O O3 0.868342 0.500000 0.000000
O O4 0.876705 0.625242 0.982109
O O5 0.900511 0.546622 0.367030
O O6 0.864947 0.434534 0.383721
O O7 0.889724 0.475816 0.256477
O O8 0.000000 0.461276 0.344380
O O9 0.500000 0.615560 0.325958
O O10 0.606990 0.668872 0.395880
O O11 0.622751 0.645083 0.263123
O O12 0.616786 0.554457 0.348057
O O13 0.500000 0.099904 0.945935
O O14 0.604343 0.160279 0.875263
O O15 0.635948 0.110172 0.987721
O O16 0.851761 0.000000 0.500000
O O17 0.500000 0.676322 0.489325
O O18 0.613437 0.750000 0.495972
O O19 0.876677 0.750000 0.294101
O O20 0.000000 0.813170 0.286498
O O21 0.500000 0.481786 0.332319
#
# Coordination Sequence:
#
# PCOD8297541 Si02
#       8
#    16  16  16  16  16  16  16  16
#     4  11  21  33  48  70 102 134 164 204 249 297
#     4   9  16  29  48  71  96 120 155 203 251 298
#     4   9  15  26  44  68  99 131 163 199 238 286
#     4   9  15  27  46  67  93 125 161 203 244 284
#     4   9  19  31  45  67  93 127 164 198 244 293
#     4  10  20  33  51  73  97 132 175 211 244 288
#     4   9  15  23  40  69 100 128 161 199 236 279
#     4  10  18  28  48  75  99 128 162 200 253 299
#
# _framework density 16.641904
#
# number of rings (size 3 to 8) (size 9 to 14) (size 15 to 20)
#    0.000    2.500    2.500    1.125    0.000    4.000 
#    0.000    0.625    0.000    0.750    0.000    4.375 
#    0.000    4.000    0.000    0.000    0.000    0.000 
#
# Total GULP energy -792917.302977 kJ/mol
# GULP energy per Si atom -12389.332859 kJ/mol
# Density = 1.660403 g / cm^3
# Si number density = 16.641904 Si / 1000 Ang^3
#
#
#
# Elastic Constant Matrix: (Units=GPa)
#
#
# Indices 1 2 3 4 5 6 
#
# 1 49.7347 29.3406 51.4460 0.0000 0.0000 0.0000
# 2 29.3406 90.5115 51.9861 0.0000 0.0000 0.0000
# 3 51.4460 51.9861 119.2811 -0.0001 0.0000 0.0000
# 4 0.0000 0.0000 -0.0001 4.5991 0.0000 0.0000
# 5 0.0000 0.0000 0.0000 0.0000 13.8555 0.0000
# 6 0.0000 0.0000 0.0000 0.0000 0.0000 9.2694
#
#
#
# Elastic Compliance Matrix: (Units=1/GPa)
#
#
# Indices 1 2 3 4 5 6 
#
# 1 0.037257 -0.003799 -0.014413 0.000000 0.000000 0.000000
# 2 -0.003799 0.015125 -0.004953 0.000000 0.000000 0.000000
# 3 -0.014413 -0.004953 0.016759 0.000000 0.000000 0.000000
# 4 0.000000 0.000000 0.000000 0.217432 0.000000 0.000000
# 5 0.000000 0.000000 0.000000 0.000000 0.072173 0.000000
# 6 0.000000 0.000000 0.000000 0.000000 0.000000 0.107881
#
#
# Mechanical properties :
#
#
# Convention : Reuss Voigt Hill
#
# Bulk Modulus (GPa) = 43.84133 58.34138 51.09136
# Shear Modulus (GPa) = 9.60500 13.99513 11.80007
#
# Velocity S-wave (km/s) = 2.40502 2.90307 2.66570
# Velocity P-wave (km/s) = 5.84066 6.80956 6.34363
#
# Compressibility (1/GPa) = 0.02280953
#
# Stress axis : x y z
#
# Youngs Moduli (GPa) = 26.84046 66.11659 59.67007
#
# Poissons Ratio (x) = 0.25118 0.86004
# Poissons Ratio (y) = 0.10197 0.29556
# Poissons Ratio (z) = 0.38686 0.32750
#
# Static dielectric constant tensor:
#      x y z
#    x 2.835130 0.000000 0.000000 
#    y 0.000000 3.083870 0.000000 
#    z 0.000000 0.000000 3.247690 
# 
# 
# High freq. dielectric constant tensor:
#      x y z
#    x 1.611560 0.000000 0.000000 
#    y 0.000000 1.611280 0.000000 
#    z 0.000000 0.000000 1.646020 
# 
# From -- ./inp_files/45601.got.cif
#   From: 2010.03.12/outbox.cif.g09.slc.cpg/sg74_23_cif.got.tgz:45601.got - 2010.04.16 15:46:19.
