data_PCOD8297694
_publ_section_title
;
Structure prediction by ZEFSAII (Michael W. Deem and Ramdas Pophale) SiO2 
 PCOD8297694
Probable space group: I M M A
;
_chemical_formula_sum "Si O2"
_cell_formula_units_Z 72
_cell_length_a 16.196827
_cell_length_b 8.945218
_cell_length_c 27.411656
_cell_angle_alpha 90.000000
_cell_angle_beta 90.000000
_cell_angle_gamma 90.000000
_cell_volume 3971.514436
_symmetry_space_group_name_H-M "I M M A"
_symmetry_group_IT_number 74
_symmetry_cell_setting 'orthorhombic'
loop_
_space_group_symop_operation_xyz
x,y,z
-x,1/2-y,z
x,-y,-z
-x,1/2+y,-z
-x,-y,-z
x,1/2+y,-z
-x,y,z
x,1/2-y,z
1/2+x,1/2+y,1/2+z
1/2-x,-y,1/2+z
1/2+x,1/2-y,1/2-z
1/2-x,y,1/2-z
1/2-x,1/2-y,1/2-z
1/2+x,y,1/2-z
1/2-x,1/2+y,1/2+z
1/2+x,-y,1/2+z
loop_
_atom_site_type_symbol
_atom_site_label
_atom_site_fract_x
_atom_site_fract_y
_atom_site_fract_z
Si Si1 0.233416 0.926171 0.694728
Si Si2 0.169662 0.926456 0.550751
Si Si3 0.334156 0.574402 0.603567
Si Si4 0.093642 0.578928 0.360993
Si Si5 0.000000 0.929543 0.946326
O O1 0.218190 0.750000 0.688604
O O2 0.250000 0.972362 0.750000
O O3 0.308844 0.976792 0.658713
O O4 0.149881 0.010615 0.681276
O O5 0.161616 0.750000 0.546742
O O6 0.261523 0.976213 0.567045
O O7 0.147223 0.000000 0.500000
O O8 0.103757 0.985974 0.589443
O O9 0.343746 0.750000 0.603206
O O10 0.420794 0.508362 0.584073
O O11 0.118904 0.750000 0.370741
O O12 0.000000 0.565358 0.342825
O O13 0.000000 0.750000 0.951367
O O14 0.000000 0.000000 0.000000
#
# Coordination Sequence:
#
# PCOD8297694 Si02
#       5
#    16  16  16  16   8
#     4   9  18  35  56  78 103 132 171 214 261 315
#     4  10  19  32  51  74 102 136 174 212 256 308
#     4   8  16  30  48  72 101 133 167 208 251 303
#     4  10  21  36  53  75 103 135 172 212 256 308
#     4  10  18  30  48  70 102 136 168 206 253 300
#
# _framework density 18.129104999999999
#
# number of rings (size 3 to 8) (size 9 to 14) (size 15 to 20)
#    0.000    2.667    0.000    3.333    0.000    2.667 
#    2.000    4.444    0.000    0.000    0.000    0.000 
#    0.000    0.000    0.000    0.000    0.000    0.000 
#
# Total GULP energy -446273.892151 kJ/mol
# GULP energy per Si atom -12396.497004 kJ/mol
# Density = 1.808784 g / cm^3
# Si number density = 18.129105 Si / 1000 Ang^3
#
#
#
# Elastic Constant Matrix: (Units=GPa)
#
#
# Indices 1 2 3 4 5 6 
#
# 1 115.4274 35.9898 62.3595 0.0000 0.0000 0.0000
# 2 35.9898 61.5495 44.9747 0.0000 0.0000 0.0000
# 3 62.3595 44.9747 148.1178 0.0000 0.0000 0.0000
# 4 0.0000 0.0000 0.0000 27.3847 0.0000 0.0000
# 5 0.0000 0.0000 0.0000 0.0000 18.4564 0.0000
# 6 0.0000 0.0000 0.0000 0.0000 0.0000 22.8065
#
#
#
# Elastic Compliance Matrix: (Units=1/GPa)
#
#
# Indices 1 2 3 4 5 6 
#
# 1 0.012034 -0.004285 -0.003765 0.000000 0.000000 0.000000
# 2 -0.004285 0.022406 -0.004999 0.000000 0.000000 0.000000
# 3 -0.003765 -0.004999 0.009855 0.000000 0.000000 0.000000
# 4 0.000000 0.000000 0.000000 0.036517 0.000000 0.000000
# 5 0.000000 0.000000 0.000000 0.000000 0.054182 0.000000
# 6 0.000000 0.000000 0.000000 0.000000 0.000000 0.043847
#
#
# Mechanical properties :
#
#
# Convention : Reuss Voigt Hill
#
# Bulk Modulus (GPa) = 54.96072 67.97142 61.46607
# Shear Modulus (GPa) = 23.69627 25.84757 24.77192
#
# Velocity S-wave (km/s) = 3.61928 3.78001 3.70052
# Velocity P-wave (km/s) = 6.91721 7.52500 7.22750
#
# Compressibility (1/GPa) = 0.01819481
#
# Stress axis : x y z
#
# Youngs Moduli (GPa) = 83.10005 44.63151 101.47623
#
# Poissons Ratio (x) = 0.19125 0.38208
# Poissons Ratio (y) = 0.35610 0.50730
# Poissons Ratio (z) = 0.31289 0.22312
#
# Static dielectric constant tensor:
#      x y z
#    x 3.502190 0.000000 0.000000 
#    y 0.000000 3.199750 0.000000 
#    z 0.000000 0.000000 3.432190 
# 
# 
# High freq. dielectric constant tensor:
#      x y z
#    x 1.700500 0.000000 0.000000 
#    y 0.000000 1.687190 0.000000 
#    z 0.000000 0.000000 1.702430 
# 
# From -- ./inp_files/63615.got.cif
#   From: 2010.03.12/outbox.cif.g09.slc.cpg/sg74_32_cif.got.tgz:63615.got - 2010.04.16 15:46:19.
