data_PCOD8297442
_publ_section_title
;
Structure prediction by ZEFSAII (Michael W. Deem and Ramdas Pophale) SiO2 
 PCOD8297442
Probable space group: I M M A
;
_chemical_formula_sum "Si O2"
_cell_formula_units_Z 80
_cell_length_a 13.609592
_cell_length_b 14.512143
_cell_length_c 26.220515
_cell_angle_alpha 90.000000
_cell_angle_beta 90.000000
_cell_angle_gamma 90.000000
_cell_volume 5178.665648
_symmetry_space_group_name_H-M "I M M A"
_symmetry_group_IT_number 74
_symmetry_cell_setting 'orthorhombic'
loop_
_space_group_symop_operation_xyz
x,y,z
-x,1/2-y,z
x,-y,-z
-x,1/2+y,-z
-x,-y,-z
x,1/2+y,-z
-x,y,z
x,1/2-y,z
1/2+x,1/2+y,1/2+z
1/2-x,-y,1/2+z
1/2+x,1/2-y,1/2-z
1/2-x,y,1/2-z
1/2-x,1/2-y,1/2-z
1/2+x,y,1/2-z
1/2-x,1/2+y,1/2+z
1/2+x,-y,1/2+z
loop_
_atom_site_type_symbol
_atom_site_label
_atom_site_fract_x
_atom_site_fract_y
_atom_site_fract_z
Si Si1 0.610825 0.529590 0.123397
Si Si2 0.891959 0.143291 0.896500
Si Si3 0.613769 0.645599 0.935196
Si Si4 0.707652 0.357682 0.959121
Si Si5 0.753323 0.855092 0.309670
O O1 0.500000 0.534144 0.141692
O O2 0.640516 0.423573 0.110744
O O3 0.624252 0.590366 0.072713
O O4 0.671382 0.569412 0.170194
O O5 0.906840 0.250000 0.906993
O O6 0.814879 0.105961 0.939426
O O7 0.849767 0.127475 0.839123
O O8 0.000000 0.095004 0.901119
O O9 0.500000 0.632054 0.952554
O O10 0.631308 0.750000 0.916234
O O11 0.687872 0.621879 0.981640
O O12 0.697029 0.250000 0.946976
O O13 0.788456 0.750000 0.320878
O O14 0.750000 0.872957 0.250000
#
# Coordination Sequence:
#
# PCOD8297442 Si02
#       5
#    16  16  16  16  16
#     4  10  18  27  42  63  86 111 138 170 207 248
#     4   8  14  25  40  57  80 111 141 167 198 238
#     4   9  17  28  42  61  85 112 139 168 206 249
#     4   9  16  25  39  61  88 114 139 168 203 248
#     4   9  18  30  43  62  86 109 135 169 209 252
#
# _framework density 15.447995000000001
#
# number of rings (size 3 to 8) (size 9 to 14) (size 15 to 20)
#    0.000    3.000    0.000    3.000    0.000    4.800 
#    0.000    2.000    0.000   10.200    0.000    0.000 
#    0.000    0.000    0.000    0.000    0.000    0.000 
#
# Total GULP energy -495602.192835 kJ/mol
# GULP energy per Si atom -12390.054821 kJ/mol
# Density = 1.541283 g / cm^3
# Si number density = 15.447995 Si / 1000 Ang^3
#
#
#
# Elastic Constant Matrix: (Units=GPa)
#
#
# Indices 1 2 3 4 5 6 
#
# 1 89.3094 41.1401 53.0109 0.0000 0.0000 0.0000
# 2 41.1401 66.1533 49.8915 0.0000 0.0000 0.0000
# 3 53.0109 49.8915 84.2440 0.0000 0.0000 0.0000
# 4 0.0000 0.0000 0.0000 22.0186 0.0000 0.0000
# 5 0.0000 0.0000 0.0000 0.0000 15.2514 0.0000
# 6 0.0000 0.0000 0.0000 0.0000 0.0000 14.6331
#
#
#
# Elastic Compliance Matrix: (Units=1/GPa)
#
#
# Indices 1 2 3 4 5 6 
#
# 1 0.018742 -0.004990 -0.008838 0.000000 0.000000 0.000000
# 2 -0.004990 0.028646 -0.013825 0.000000 0.000000 0.000000
# 3 -0.008838 -0.013825 0.025619 0.000000 0.000000 0.000000
# 4 0.000000 0.000000 0.000000 0.045416 0.000000 0.000000
# 5 0.000000 0.000000 0.000000 0.000000 0.065568 0.000000
# 6 0.000000 0.000000 0.000000 0.000000 0.000000 0.068338
#
#
# Mechanical properties :
#
#
# Convention : Reuss Voigt Hill
#
# Bulk Modulus (GPa) = 56.49410 58.64354 57.56882
# Shear Modulus (GPa) = 15.94714 16.75823 16.35268
#
# Velocity S-wave (km/s) = 3.21645 3.29723 3.25709
# Velocity P-wave (km/s) = 7.10239 7.24844 7.17579
#
# Compressibility (1/GPa) = 0.01770096
#
# Stress axis : x y z
#
# Youngs Moduli (GPa) = 53.35741 34.90872 39.03280
#
# Poissons Ratio (x) = 0.17418 0.34498
# Poissons Ratio (y) = 0.26623 0.53964
# Poissons Ratio (z) = 0.47159 0.48262
#
# Static dielectric constant tensor:
#      x y z
#    x 3.156170 0.000000 0.000000 
#    y 0.000000 2.917140 0.000000 
#    z 0.000000 0.000000 2.770210 
# 
# 
# High freq. dielectric constant tensor:
#      x y z
#    x 1.585360 0.000000 0.000000 
#    y 0.000000 1.575000 0.000000 
#    z 0.000000 0.000000 1.568840 
# 
# From -- ./inp_files/51653.got.cif
#   From: 2010.03.12/outbox.cif.g09.slc.cpg/sg74_26_cif.got.tgz:51653.got - 2010.04.16 15:46:19.
