data_PCOD8297801
_publ_section_title
;
Structure prediction by ZEFSAII (Michael W. Deem and Ramdas Pophale) SiO2 
 PCOD8297801
Probable space group: I M M A
;
_chemical_formula_sum "Si O2"
_cell_formula_units_Z 68
_cell_length_a 18.771591
_cell_length_b 10.832318
_cell_length_c 18.362502
_cell_angle_alpha 90.000000
_cell_angle_beta 90.000000
_cell_angle_gamma 90.000000
_cell_volume 3733.828275
_symmetry_space_group_name_H-M "I M M A"
_symmetry_group_IT_number 74
_symmetry_cell_setting 'orthorhombic'
loop_
_space_group_symop_operation_xyz
x,y,z
-x,1/2-y,z
x,-y,-z
-x,1/2+y,-z
-x,-y,-z
x,1/2+y,-z
-x,y,z
x,1/2-y,z
1/2+x,1/2+y,1/2+z
1/2-x,-y,1/2+z
1/2+x,1/2-y,1/2-z
1/2-x,y,1/2-z
1/2-x,1/2-y,1/2-z
1/2+x,y,1/2-z
1/2-x,1/2+y,1/2+z
1/2+x,-y,1/2+z
loop_
_atom_site_type_symbol
_atom_site_label
_atom_site_fract_x
_atom_site_fract_y
_atom_site_fract_z
Si Si1 0.916965 0.750000 0.753228
Si Si2 0.144581 0.500633 0.709115
Si Si3 0.500000 0.250000 0.656064
Si Si4 0.642973 0.750000 0.434837
Si Si5 0.709167 0.482245 0.638258
Si Si6 0.652033 0.750000 0.600622
Si Si7 0.000000 0.881945 0.297461
O O1 0.871174 0.856905 0.717995
O O2 0.912777 0.750000 0.841339
O O3 0.000000 0.750000 0.730854
O O4 0.206205 0.473862 0.651067
O O5 0.167050 0.447355 0.787826
O O6 0.072003 0.445711 0.677045
O O7 0.569137 0.250000 0.606941
O O8 0.500000 0.371027 0.708522
O O9 0.687502 0.624667 0.418721
O O10 0.621742 0.750000 0.519426
O O11 0.695924 0.622608 0.611663
O O12 0.000000 0.750000 0.336291
#
# Coordination Sequence:
#
# PCOD8297801 Si02
#       7
#     8  16   4   8  16   8   8
#     4  10  19  33  52  80 113 145 172 215 269 326
#     4  10  19  33  55  78 110 139 176 227 278 317
#     4  10  22  34  48  82 118 142 172 218 258 322
#     4  12  22  37  57  77 111 152 186 211 259 318
#     4  10  21  36  55  78 107 144 186 225 266 312
#     4  10  23  38  51  78 110 151 187 214 252 318
#     4  10  18  31  48  82 116 135 164 225 278 327
#
# _framework density 18.211870000000001
#
# number of rings (size 3 to 8) (size 9 to 14) (size 15 to 20)
#    0.353    1.412    3.529    1.412    2.471    3.765 
#    0.000    1.176    0.000    0.000    0.000    4.941 
#    0.000    0.000    0.000    0.000    0.000    0.000 
#
# Total GULP energy -421265.502898 kJ/mol
# GULP energy per Si atom -12390.161850 kJ/mol
# Density = 1.817042 g / cm^3
# Si number density = 18.211870 Si / 1000 Ang^3
#
#
#
# Elastic Constant Matrix: (Units=GPa)
#
#
# Indices 1 2 3 4 5 6 
#
# 1 131.3561 33.0919 12.3534 0.0000 0.0000 0.0000
# 2 33.0919 115.8854 12.2216 0.0000 0.0000 0.0000
# 3 12.3534 12.2216 35.0522 0.0000 0.0000 0.0000
# 4 0.0000 0.0000 0.0000 18.4835 0.0000 0.0000
# 5 0.0000 0.0000 0.0000 0.0000 11.1268 0.0000
# 6 0.0000 0.0000 0.0000 0.0000 0.0000 26.2375
#
#
#
# Elastic Compliance Matrix: (Units=1/GPa)
#
#
# Indices 1 2 3 4 5 6 
#
# 1 0.008363 -0.002156 -0.002195 0.000000 0.000000 0.000000
# 2 -0.002156 0.009515 -0.002557 0.000000 0.000000 0.000000
# 3 -0.002195 -0.002557 0.030194 0.000000 0.000000 0.000000
# 4 0.000000 0.000000 0.000000 0.054102 0.000000 0.000000
# 5 0.000000 0.000000 0.000000 0.000000 0.089873 0.000000
# 6 0.000000 0.000000 0.000000 0.000000 0.000000 0.038113
#
#
# Mechanical properties :
#
#
# Convention : Reuss Voigt Hill
#
# Bulk Modulus (GPa) = 29.19445 44.18084 36.68765
# Shear Modulus (GPa) = 19.57736 26.14467 22.86102
#
# Velocity S-wave (km/s) = 3.28224 3.79302 3.54684
# Velocity P-wave (km/s) = 5.51629 6.59505 6.07964
#
# Compressibility (1/GPa) = 0.03425308
#
# Stress axis : x y z
#
# Youngs Moduli (GPa) = 119.57963 105.10015 33.11880
#
# Poissons Ratio (x) = 0.22665 0.07271
# Poissons Ratio (y) = 0.25787 0.08470
# Poissons Ratio (z) = 0.26252 0.26879
#
# Static dielectric constant tensor:
#      x y z
#    x 3.330540 0.000000 0.000000 
#    y 0.000000 3.462000 0.000000 
#    z 0.000000 0.000000 3.008750 
# 
# 
# High freq. dielectric constant tensor:
#      x y z
#    x 1.711020 0.000000 0.000000 
#    y 0.000000 1.721670 0.000000 
#    z 0.000000 0.000000 1.658600 
# 
# From -- ./inp_files/41034.got.cif
#   From: 2010.03.12/outbox.cif.g09.slc.cpg/sg74_21_cif.got.tgz:41034.got - 2010.04.16 15:46:19.
