data_PCOD8297539
_publ_section_title
;
Structure prediction by ZEFSAII (Michael W. Deem and Ramdas Pophale) SiO2 
 PCOD8297539
Probable space group: I M M A
;
_chemical_formula_sum "Si O2"
_cell_formula_units_Z 96
_cell_length_a 30.696038
_cell_length_b 15.763656
_cell_length_c 11.969498
_cell_angle_alpha 90.000000
_cell_angle_beta 90.000000
_cell_angle_gamma 90.000000
_cell_volume 5791.822041
_symmetry_space_group_name_H-M "I M M A"
_symmetry_group_IT_number 74
_symmetry_cell_setting 'orthorhombic'
loop_
_space_group_symop_operation_xyz
x,y,z
-x,1/2-y,z
x,-y,-z
-x,1/2+y,-z
-x,-y,-z
x,1/2+y,-z
-x,y,z
x,1/2-y,z
1/2+x,1/2+y,1/2+z
1/2-x,-y,1/2+z
1/2+x,1/2-y,1/2-z
1/2-x,y,1/2-z
1/2-x,1/2-y,1/2-z
1/2+x,y,1/2-z
1/2-x,1/2+y,1/2+z
1/2+x,-y,1/2+z
loop_
_atom_site_type_symbol
_atom_site_label
_atom_site_fract_x
_atom_site_fract_y
_atom_site_fract_z
Si Si1 0.232384 0.583909 0.572509
Si Si2 0.317656 0.574184 0.711402
Si Si3 0.608663 0.346194 0.400354
Si Si4 0.736628 0.250000 0.928493
Si Si5 0.178366 0.750000 0.210131
Si Si6 0.547699 0.488799 0.369213
Si Si7 0.369719 0.087969 0.640893
O O1 0.237339 0.500000 0.500000
O O2 0.275201 0.600422 0.643898
O O3 0.191814 0.570369 0.656404
O O4 0.224775 0.665972 0.496613
O O5 0.353496 0.647606 0.692329
O O6 0.334487 0.484223 0.665632
O O7 0.596110 0.250000 0.428113
O O8 0.566153 0.393622 0.351649
O O9 0.627769 0.394045 0.508907
O O10 0.787807 0.250000 0.894070
O O11 0.705766 0.250000 0.821954
O O12 0.146035 0.829874 0.207382
O O13 0.542082 0.500000 0.500000
O O14 0.500000 0.498511 0.311272
O O15 0.581964 0.557584 0.318833
#
# Coordination Sequence:
#
# PCOD8297539 Si02
#       7
#    16  16  16   8   8  16  16
#     4  11  22  35  48  69  96 133 171 210 252 285
#     4  10  21  32  50  65  98 130 169 205 244 287
#     4  10  18  28  48  74  97 131 166 196 238 292
#     4  11  24  33  50  72 100 132 166 219 250 285
#     4  11  20  34  51  70  98 127 175 206 244 286
#     4   8  16  30  45  68 103 131 157 190 237 289
#     4  10  18  32  51  72  94 136 166 204 235 294
#
# _framework density 16.575095000000001
#
# number of rings (size 3 to 8) (size 9 to 14) (size 15 to 20)
#    0.000    2.000    0.833    5.500    2.333    3.667 
#    0.000    0.417    0.000    0.000    0.000    0.000 
#    0.000   48.000    0.000    0.000    0.000    0.000 
#
# Total GULP energy -594996.809903 kJ/mol
# GULP energy per Si atom -12395.766873 kJ/mol
# Density = 1.653737 g / cm^3
# Si number density = 16.575095 Si / 1000 Ang^3
#
#
#
# Elastic Constant Matrix: (Units=GPa)
#
#
# Indices 1 2 3 4 5 6 
#
# 1 114.0896 44.4747 30.3756 0.0000 0.0000 0.0000
# 2 44.4747 121.9576 26.2293 0.0000 0.0000 0.0000
# 3 30.3756 26.2293 54.6048 0.0000 0.0000 0.0000
# 4 0.0000 0.0000 0.0000 10.2360 0.0000 0.0000
# 5 0.0000 0.0000 0.0000 0.0000 12.6716 0.0000
# 6 0.0000 0.0000 0.0000 0.0000 0.0000 18.9309
#
#
#
# Elastic Compliance Matrix: (Units=1/GPa)
#
#
# Indices 1 2 3 4 5 6 
#
# 1 0.011233 -0.003070 -0.004774 0.000000 0.000000 0.000000
# 2 -0.003070 0.009983 -0.003088 0.000000 0.000000 0.000000
# 3 -0.004774 -0.003088 0.022452 0.000000 0.000000 0.000000
# 4 0.000000 0.000000 0.000000 0.097694 0.000000 0.000000
# 5 0.000000 0.000000 0.000000 0.000000 0.078917 0.000000
# 6 0.000000 0.000000 0.000000 0.000000 0.000000 0.052824
#
#
# Mechanical properties :
#
#
# Convention : Reuss Voigt Hill
#
# Bulk Modulus (GPa) = 45.86050 54.75679 50.30864
# Shear Modulus (GPa) = 16.54349 21.00587 18.77468
#
# Velocity S-wave (km/s) = 3.16269 3.56380 3.36922
# Velocity P-wave (km/s) = 6.40821 7.07400 6.74932
#
# Compressibility (1/GPa) = 0.02180526
#
# Stress axis : x y z
#
# Youngs Moduli (GPa) = 89.02599 100.17000 44.53869
#
# Poissons Ratio (x) = 0.30747 0.21263
# Poissons Ratio (y) = 0.27327 0.13753
# Poissons Ratio (z) = 0.42502 0.30931
#
# Static dielectric constant tensor:
#      x y z
#    x 3.403030 0.000000 0.000000 
#    y 0.000000 3.199820 0.000000 
#    z 0.000000 0.000000 2.946700 
# 
# 
# High freq. dielectric constant tensor:
#      x y z
#    x 1.632600 0.000000 0.000000 
#    y 0.000000 1.649550 0.000000 
#    z 0.000000 0.000000 1.601340 
# 
# From -- ./inp_files/27139.got.cif
#   From: 2010.03.12/outbox.cif.g09.slc.cpg/sg74_14_cif.got.tgz:27139.got - 2010.04.16 15:46:19.
