data_PCOD8297473
_publ_section_title
;
Structure prediction by ZEFSAII (Michael W. Deem and Ramdas Pophale) SiO2 
 PCOD8297473
Probable space group: I M M A
;
_chemical_formula_sum "Si O2"
_cell_formula_units_Z 80
_cell_length_a 18.256679
_cell_length_b 8.990871
_cell_length_c 36.574833
_cell_angle_alpha 90.000000
_cell_angle_beta 90.000000
_cell_angle_gamma 90.000000
_cell_volume 6003.519117
_symmetry_space_group_name_H-M "I M M A"
_symmetry_group_IT_number 74
_symmetry_cell_setting 'orthorhombic'
loop_
_space_group_symop_operation_xyz
x,y,z
-x,1/2-y,z
x,-y,-z
-x,1/2+y,-z
-x,-y,-z
x,1/2+y,-z
-x,y,z
x,1/2-y,z
1/2+x,1/2+y,1/2+z
1/2-x,-y,1/2+z
1/2+x,1/2-y,1/2-z
1/2-x,y,1/2-z
1/2-x,1/2-y,1/2-z
1/2+x,y,1/2-z
1/2-x,1/2+y,1/2+z
1/2+x,-y,1/2+z
loop_
_atom_site_type_symbol
_atom_site_label
_atom_site_fract_x
_atom_site_fract_y
_atom_site_fract_z
Si Si1 0.915182 0.924956 0.109340
Si Si2 0.912884 0.582345 0.964279
Si Si3 0.208201 0.082378 0.711890
Si Si4 0.164210 0.575402 0.823709
Si Si5 0.083872 0.076480 0.250916
O O1 0.902539 0.750000 0.107750
O O2 0.000000 0.965259 0.115890
O O3 0.886408 0.994468 0.071516
O O4 0.868352 0.993852 0.141574
O O5 0.881998 0.750000 0.963019
O O6 0.000000 0.583708 0.966192
O O7 0.880773 0.500000 0.000000
O O8 0.199583 0.250000 0.697108
O O9 0.250000 0.079126 0.750000
O O10 0.253769 0.985449 0.682813
O O11 0.128201 0.011275 0.717819
O O12 0.167798 0.750000 0.831194
O O13 0.112704 0.536411 0.789384
O O14 0.094130 0.250000 0.258632
O O15 0.000000 0.025898 0.253452
#
# Coordination Sequence:
#
# PCOD8297473 Si02
#       5
#    16  16  16  16  16
#     4  10  19  28  38  54  75  97 123 156 191 224
#     4   9  16  26  39  53  70  93 121 152 185 220
#     4   9  17  28  40  54  72  94 120 150 186 226
#     4  10  18  28  41  55  73  97 124 154 189 226
#     4   9  17  28  41  56  73  94 122 155 189 225
#
# _framework density 13.325518000000001
#
# number of rings (size 3 to 8) (size 9 to 14) (size 15 to 20)
#    0.000    2.600    0.000    3.000    0.000    8.000 
#    0.000    0.000    0.000    0.000    0.000    0.000 
#    0.000    0.000    0.000    0.000    0.000    1.000 
#
# Total GULP energy -496006.348721 kJ/mol
# GULP energy per Si atom -12400.158718 kJ/mol
# Density = 1.329519 g / cm^3
# Si number density = 13.325518 Si / 1000 Ang^3
#
#
#
# Elastic Constant Matrix: (Units=GPa)
#
#
# Indices 1 2 3 4 5 6 
#
# 1 71.3207 36.0877 38.9441 0.0000 0.0000 0.0000
# 2 36.0877 83.8227 48.0259 0.0000 0.0000 0.0000
# 3 38.9441 48.0259 81.3286 0.0000 0.0000 0.0000
# 4 0.0000 0.0000 0.0000 26.3381 0.0000 0.0000
# 5 0.0000 0.0000 0.0000 0.0000 12.7113 0.0000
# 6 0.0000 0.0000 0.0000 0.0000 0.0000 20.0355
#
#
#
# Elastic Compliance Matrix: (Units=1/GPa)
#
#
# Indices 1 2 3 4 5 6 
#
# 1 0.020168 -0.004760 -0.006847 0.000000 0.000000 0.000000
# 2 -0.004760 0.019154 -0.009031 0.000000 0.000000 0.000000
# 3 -0.006847 -0.009031 0.020907 0.000000 0.000000 0.000000
# 4 0.000000 0.000000 0.000000 0.037968 0.000000 0.000000
# 5 0.000000 0.000000 0.000000 0.000000 0.078670 0.000000
# 6 0.000000 0.000000 0.000000 0.000000 0.000000 0.049912
#
#
# Mechanical properties :
#
#
# Convention : Reuss Voigt Hill
#
# Bulk Modulus (GPa) = 52.76092 53.62083 53.19087
# Shear Modulus (GPa) = 18.22340 19.37793 18.80067
#
# Velocity S-wave (km/s) = 3.70206 3.81753 3.76024
# Velocity P-wave (km/s) = 7.61272 7.73033 7.67175
#
# Compressibility (1/GPa) = 0.01895342
#
# Stress axis : x y z
#
# Youngs Moduli (GPa) = 49.58269 52.20922 47.83014
#
# Poissons Ratio (x) = 0.24853 0.32747
# Poissons Ratio (y) = 0.23603 0.43196
# Poissons Ratio (z) = 0.33947 0.47151
#
# Static dielectric constant tensor:
#      x y z
#    x 2.498480 0.000000 0.000000 
#    y 0.000000 2.853820 0.000000 
#    z 0.000000 0.000000 2.566060 
# 
# 
# High freq. dielectric constant tensor:
#      x y z
#    x 1.468140 0.000000 0.000000 
#    y 0.000000 1.527370 0.000000 
#    z 0.000000 0.000000 1.485960 
# 
# From -- ./inp_files/70119.got.cif
#   From: 2010.03.12/outbox.cif.g09.slc.cpg/sg74_36_cif.got.tgz:70119.got - 2010.04.16 15:46:19.
