data_PCOD8297243
_publ_section_title
;
Structure prediction by ZEFSAII (Michael W. Deem and Ramdas Pophale) SiO2 
 PCOD8297243
Probable space group: I M M A
;
_chemical_formula_sum "Si O2"
_cell_formula_units_Z 88
_cell_length_a 12.052807
_cell_length_b 13.841160
_cell_length_c 34.016810
_cell_angle_alpha 90.000000
_cell_angle_beta 90.000000
_cell_angle_gamma 90.000000
_cell_volume 5674.848550
_symmetry_space_group_name_H-M "I M M A"
_symmetry_group_IT_number 74
_symmetry_cell_setting 'orthorhombic'
loop_
_space_group_symop_operation_xyz
x,y,z
-x,1/2-y,z
x,-y,-z
-x,1/2+y,-z
-x,-y,-z
x,1/2+y,-z
-x,y,z
x,1/2-y,z
1/2+x,1/2+y,1/2+z
1/2-x,-y,1/2+z
1/2+x,1/2-y,1/2-z
1/2-x,y,1/2-z
1/2-x,1/2-y,1/2-z
1/2+x,y,1/2-z
1/2-x,1/2+y,1/2+z
1/2+x,-y,1/2+z
loop_
_atom_site_type_symbol
_atom_site_label
_atom_site_fract_x
_atom_site_fract_y
_atom_site_fract_z
Si Si1 0.129463 0.863395 0.134170
Si Si2 0.237099 0.641113 0.520339
Si Si3 0.255619 0.053186 0.939364
Si Si4 0.731314 0.637385 0.207214
Si Si5 0.000000 0.854007 0.546876
Si Si6 0.500000 0.957772 0.087471
Si Si7 0.000000 0.139260 0.669409
O O1 0.153914 0.750000 0.129166
O O2 0.181863 0.918018 0.097431
O O3 0.186180 0.904707 0.173931
O O4 0.000000 0.886369 0.136403
O O5 0.277106 0.750000 0.532125
O O6 0.271609 0.560531 0.552633
O O7 0.283474 0.614559 0.477294
O O8 0.103972 0.634077 0.517885
O O9 0.385636 0.079323 0.932294
O O10 0.757822 0.750000 0.210569
O O11 0.750000 0.588454 0.250000
O O12 0.605260 0.616551 0.195971
O O13 0.000000 0.750000 0.567792
O O14 0.000000 0.926572 0.583543
O O15 0.500000 0.931471 0.132801
O O16 0.000000 0.250000 0.654198
#
# Coordination Sequence:
#
# PCOD8297243 Si02
#       7
#    16  16  16  16   8   8   8
#     4  10  20  32  45  62  87 119 151 182 219 263
#     4   9  17  28  43  63  89 119 151 184 220 261
#     4  10  18  29  45  65  89 117 149 185 222 261
#     4   9  18  30  44  63  89 121 150 175 211 259
#     4   8  15  27  41  62  90 120 148 178 222 267
#     4  10  17  26  43  67  94 114 142 184 223 261
#     4  10  18  27  42  67  94 117 144 181 217 256
#
# _framework density 15.507021
#
# number of rings (size 3 to 8) (size 9 to 14) (size 15 to 20)
#    0.000    2.545    1.818    1.091    1.273    2.909 
#    0.000    1.818    0.000    1.636    0.000    0.000 
#    0.000    2.909    0.000    0.000    0.000    0.000 
#
# Total GULP energy -545248.212484 kJ/mol
# GULP energy per Si atom -12392.004829 kJ/mol
# Density = 1.547173 g / cm^3
# Si number density = 15.507021 Si / 1000 Ang^3
#
#
#
# Elastic Constant Matrix: (Units=GPa)
#
#
# Indices 1 2 3 4 5 6 
#
# 1 84.4422 29.1625 53.6877 0.0000 0.0000 0.0000
# 2 29.1625 67.2748 46.2935 0.0000 0.0000 0.0000
# 3 53.6877 46.2935 138.6359 0.0000 0.0000 0.0000
# 4 0.0000 0.0000 0.0000 17.8395 0.0000 0.0000
# 5 0.0000 0.0000 0.0000 0.0000 20.0987 0.0000
# 6 0.0000 0.0000 0.0000 0.0000 0.0000 11.8184
#
#
#
# Elastic Compliance Matrix: (Units=1/GPa)
#
#
# Indices 1 2 3 4 5 6 
#
# 1 0.016336 -0.003542 -0.005143 0.000000 0.000000 0.000000
# 2 -0.003542 0.020067 -0.005329 0.000000 0.000000 0.000000
# 3 -0.005143 -0.005329 0.010984 0.000000 0.000000 0.000000
# 4 0.000000 0.000000 0.000000 0.056055 0.000000 0.000000
# 5 0.000000 0.000000 0.000000 0.000000 0.049754 0.000000
# 6 0.000000 0.000000 0.000000 0.000000 0.000000 0.084614
#
#
# Mechanical properties :
#
#
# Convention : Reuss Voigt Hill
#
# Bulk Modulus (GPa) = 51.65781 60.96002 56.30892
# Shear Modulus (GPa) = 18.36261 20.69860 19.53061
#
# Velocity S-wave (km/s) = 3.44488 3.65744 3.55275
# Velocity P-wave (km/s) = 7.01483 7.56521 7.29521
#
# Compressibility (1/GPa) = 0.01935816
#
# Stress axis : x y z
#
# Youngs Moduli (GPa) = 61.21526 49.83334 91.03769
#
# Poissons Ratio (x) = 0.17651 0.46824
# Poissons Ratio (y) = 0.21682 0.48515
# Poissons Ratio (z) = 0.31485 0.26557
#
# Static dielectric constant tensor:
#      x y z
#    x 2.886090 0.000000 0.000000 
#    y 0.000000 2.878330 0.000000 
#    z 0.000000 0.000000 3.003900 
# 
# 
# High freq. dielectric constant tensor:
#      x y z
#    x 1.587210 0.000000 0.000000 
#    y 0.000000 1.561370 0.000000 
#    z 0.000000 0.000000 1.590620 
# 
# From -- ./inp_files/71767.got.cif
#   From: 2010.03.12/outbox.cif.g09.slc.cpg/sg74_36_cif.got.tgz:71767.got - 2010.04.16 15:46:19.
