data_PCOD8297465
_publ_section_title
;
Structure prediction by ZEFSAII (Michael W. Deem and Ramdas Pophale) SiO2 
 PCOD8297465
Probable space group: I M M A
;
_chemical_formula_sum "Si O2"
_cell_formula_units_Z 120
_cell_length_a 23.056692
_cell_length_b 9.018364
_cell_length_c 32.397001
_cell_angle_alpha 90.000000
_cell_angle_beta 90.000000
_cell_angle_gamma 90.000000
_cell_volume 6736.426378
_symmetry_space_group_name_H-M "I M M A"
_symmetry_group_IT_number 74
_symmetry_cell_setting 'orthorhombic'
loop_
_space_group_symop_operation_xyz
x,y,z
-x,1/2-y,z
x,-y,-z
-x,1/2+y,-z
-x,-y,-z
x,1/2+y,-z
-x,y,z
x,1/2-y,z
1/2+x,1/2+y,1/2+z
1/2-x,-y,1/2+z
1/2+x,1/2-y,1/2-z
1/2-x,y,1/2-z
1/2-x,1/2-y,1/2-z
1/2+x,y,1/2-z
1/2-x,1/2+y,1/2+z
1/2+x,-y,1/2+z
loop_
_atom_site_type_symbol
_atom_site_label
_atom_site_fract_x
_atom_site_fract_y
_atom_site_fract_z
Si Si1 0.779076 0.574333 0.955974
Si Si2 0.889976 0.425903 0.092709
Si Si3 0.716557 0.926412 0.814524
Si Si4 0.433908 0.924729 0.956736
Si Si5 0.064617 0.073463 0.178443
Si Si6 0.828408 0.425359 0.401940
Si Si7 0.169217 0.574162 0.770921
Si Si8 0.000000 0.074715 0.042998
O O1 0.783016 0.750000 0.961712
O O2 0.830000 0.513941 0.926080
O O3 0.718983 0.524413 0.935416
O O4 0.785722 0.500000 0.000000
O O5 0.887726 0.250000 0.094024
O O6 0.901977 0.488265 0.138341
O O7 0.943103 0.483705 0.065672
O O8 0.715038 0.750000 0.818304
O O9 0.689171 0.993957 0.856966
O O10 0.782602 0.980173 0.804625
O O11 0.679285 0.985027 0.775447
O O12 0.500000 0.966821 0.944267
O O13 0.427006 0.750000 0.963423
O O14 0.391009 0.979500 0.919722
O O15 0.416454 0.000000 0.000000
O O16 0.059525 0.250000 0.175819
O O17 0.104662 0.022251 0.216604
O O18 0.000000 0.005218 0.182894
O O19 0.828790 0.250000 0.397342
O O20 0.174296 0.750000 0.770127
O O21 0.000000 0.250000 0.039077
O O22 0.000000 0.000000 0.000000
#
# Coordination Sequence:
#
# PCOD8297465 Si02
#       8
#    16  16  16  16  16  16  16   8
#     4  10  19  29  42  60  81 107 139 172 206 241
#     4   9  16  26  38  53  74 103 137 168 200 239
#     4   8  13  22  34  50  72 100 133 163 193 236
#     4   9  17  29  44  61  81 108 139 167 198 238
#     4   9  14  21  33  50  72  99 133 167 196 235
#     4   9  16  26  40  57  78 105 137 168 198 240
#     4   8  13  20  32  49  71 100 132 163 195 234
#     4  10  18  28  40  54  74 104 136 168 204 238
#
# _framework density 17.813599
#
# number of rings (size 3 to 8) (size 9 to 14) (size 15 to 20)
#    0.000    3.067    0.667    2.400    0.000    3.200 
#    0.000    0.667    0.000    4.000    0.000    0.000 
#    0.000    0.000    0.000   25.200    1.600   30.533 
#
# Total GULP energy -743361.771341 kJ/mol
# GULP energy per Si atom -12389.362856 kJ/mol
# Density = 1.777305 g / cm^3
# Si number density = 17.813599 Si / 1000 Ang^3
#
#
#
# Elastic Constant Matrix: (Units=GPa)
#
#
# Indices 1 2 3 4 5 6 
#
# 1 156.2736 9.8565 83.5180 0.0000 0.0000 0.0000
# 2 9.8565 6.2125 10.1698 0.0000 0.0000 0.0000
# 3 83.5180 10.1698 123.6513 0.0000 0.0000 0.0000
# 4 0.0000 0.0000 0.0000 13.4173 0.0000 0.0000
# 5 0.0000 0.0000 0.0000 0.0000 19.3047 0.0000
# 6 0.0000 0.0000 0.0000 0.0000 0.0000 6.0911
#
#
#
# Elastic Compliance Matrix: (Units=1/GPa)
#
#
# Indices 1 2 3 4 5 6 
#
# 1 0.010183 -0.005659 -0.006413 0.000000 0.000000 0.000000
# 2 -0.005659 0.189154 -0.011735 0.000000 0.000000 0.000000
# 3 -0.006413 -0.011735 0.013384 0.000000 0.000000 0.000000
# 4 0.000000 0.000000 0.000000 0.074531 0.000000 0.000000
# 5 0.000000 0.000000 0.000000 0.000000 0.051801 0.000000
# 6 0.000000 0.000000 0.000000 0.000000 0.000000 0.164175
#
#
# Mechanical properties :
#
#
# Convention : Reuss Voigt Hill
#
# Bulk Modulus (GPa) = 6.05664 54.80289 30.42977
# Shear Modulus (GPa) = 8.25252 19.93549 14.09401
#
# Velocity S-wave (km/s) = 2.15471 3.34895 2.81587
# Velocity P-wave (km/s) = 3.09802 6.76649 5.26228
#
# Compressibility (1/GPa) = 0.16510796
#
# Stress axis : x y z
#
# Youngs Moduli (GPa) = 98.20275 5.28670 74.71814
#
# Poissons Ratio (x) = 0.02992 0.47913
# Poissons Ratio (y) = 0.55571 0.87682
# Poissons Ratio (z) = 0.62973 0.06204
#
# Static dielectric constant tensor:
#      x y z
#    x 3.616880 0.000000 0.000000 
#    y 0.000000 2.531910 0.000000 
#    z 0.000000 0.000000 3.533620 
# 
# 
# High freq. dielectric constant tensor:
#      x y z
#    x 1.702360 0.000000 0.000000 
#    y 0.000000 1.606640 0.000000 
#    z 0.000000 0.000000 1.694400 
# 
# From -- ./inp_files/73525.got.cif
#   From: 2010.03.12/outbox.cif.g09.slc.cpg/sg74_37_cif.got.tgz:73525.got - 2010.04.16 15:46:19.
