data_PCOD8297911
_publ_section_title
;
Structure prediction by ZEFSAII (Michael W. Deem and Ramdas Pophale) SiO2 
 PCOD8297911
Probable space group: I M M A
;
_chemical_formula_sum "Si O2"
_cell_formula_units_Z 88
_cell_length_a 19.924238
_cell_length_b 8.576355
_cell_length_c 30.045078
_cell_angle_alpha 90.000000
_cell_angle_beta 90.000000
_cell_angle_gamma 90.000000
_cell_volume 5134.022954
_symmetry_space_group_name_H-M "I M M A"
_symmetry_group_IT_number 74
_symmetry_cell_setting 'orthorhombic'
loop_
_space_group_symop_operation_xyz
x,y,z
-x,1/2-y,z
x,-y,-z
-x,1/2+y,-z
-x,-y,-z
x,1/2+y,-z
-x,y,z
x,1/2-y,z
1/2+x,1/2+y,1/2+z
1/2-x,-y,1/2+z
1/2+x,1/2-y,1/2-z
1/2-x,y,1/2-z
1/2-x,1/2-y,1/2-z
1/2+x,y,1/2-z
1/2-x,1/2+y,1/2+z
1/2+x,-y,1/2+z
loop_
_atom_site_type_symbol
_atom_site_label
_atom_site_fract_x
_atom_site_fract_y
_atom_site_fract_z
Si Si1 0.211755 0.068027 0.294741
Si Si2 0.639057 0.434053 0.451006
Si Si3 0.571594 0.565929 0.328545
Si Si4 0.296149 0.065101 0.627960
Si Si5 0.925884 0.431829 0.726884
Si Si6 0.000000 0.435516 0.950310
O O1 0.225175 0.250000 0.298608
O O2 0.250000 0.003417 0.250000
O O3 0.236560 0.986360 0.339870
O O4 0.132482 0.032974 0.295460
O O5 0.651078 0.500000 0.500000
O O6 0.633754 0.250000 0.453592
O O7 0.703357 0.488347 0.421271
O O8 0.569886 0.503016 0.428841
O O9 0.500000 0.514461 0.350720
O O10 0.578175 0.750000 0.331746
O O11 0.635797 0.490883 0.351457
O O12 0.571393 0.513757 0.277631
O O13 0.294884 0.250000 0.623320
O O14 0.907467 0.250000 0.722492
O O15 0.000000 0.464235 0.705499
O O16 0.000000 0.250000 0.948569
O O17 0.000000 0.500000 0.000000
#
# Coordination Sequence:
#
# PCOD8297911 Si02
#       6
#    16  16  16  16  16   8
#     4  11  22  34  48  71 106 139 169 209 254 303
#     4  11  22  37  52  71  98 128 167 214 263 309
#     4   8  15  27  44  68  94 124 166 211 251 295
#     4  11  21  33  53  74  96 132 173 214 259 306
#     4   9  17  32  53  73  94 128 172 214 252 298
#     4  10  18  32  52  72  94 128 170 212 260 304
#
# _framework density 17.140556
#
# number of rings (size 3 to 8) (size 9 to 14) (size 15 to 20)
#    0.000    2.000    1.818    5.727    1.273    1.091 
#    0.000    0.000    0.000    0.000    0.000    0.000 
#    0.000    0.727    0.000    2.727    0.000    4.182 
#
# Total GULP energy -545252.428708 kJ/mol
# GULP energy per Si atom -12392.100652 kJ/mol
# Density = 1.710154 g / cm^3
# Si number density = 17.140556 Si / 1000 Ang^3
#
#
#
# Elastic Constant Matrix: (Units=GPa)
#
#
# Indices 1 2 3 4 5 6 
#
# 1 86.8619 24.1484 33.4144 0.0000 0.0000 0.0000
# 2 24.1484 95.5335 31.2335 0.0000 0.0000 0.0000
# 3 33.4144 31.2335 62.9250 0.0000 0.0000 0.0000
# 4 0.0000 0.0000 0.0000 21.4057 0.0000 0.0000
# 5 0.0000 0.0000 0.0000 0.0000 78.5854 0.0000
# 6 0.0000 0.0000 0.0000 0.0000 0.0000 24.6040
#
#
#
# Elastic Compliance Matrix: (Units=1/GPa)
#
#
# Indices 1 2 3 4 5 6 
#
# 1 0.014619 -0.001381 -0.007077 0.000000 0.000000 0.000000
# 2 -0.001381 0.012626 -0.005533 0.000000 0.000000 0.000000
# 3 -0.007077 -0.005533 0.022397 0.000000 0.000000 0.000000
# 4 0.000000 0.000000 0.000000 0.046716 0.000000 0.000000
# 5 0.000000 0.000000 0.000000 0.000000 0.012725 0.000000
# 6 0.000000 0.000000 0.000000 0.000000 0.000000 0.040644
#
#
# Mechanical properties :
#
#
# Convention : Reuss Voigt Hill
#
# Bulk Modulus (GPa) = 46.17390 46.99035 46.58213
# Shear Modulus (GPa) = 27.03722 35.35397 31.19559
#
# Velocity S-wave (km/s) = 3.97594 4.54650 4.27076
# Velocity P-wave (km/s) = 6.93356 7.41857 7.18016
#
# Compressibility (1/GPa) = 0.02165725
#
# Stress axis : x y z
#
# Youngs Moduli (GPa) = 68.40356 79.20293 44.64948
#
# Poissons Ratio (x) = 0.10942 0.31600
# Poissons Ratio (y) = 0.09450 0.24706
# Poissons Ratio (z) = 0.48411 0.43826
#
# Static dielectric constant tensor:
#      x y z
#    x 3.271040 0.000000 0.000000 
#    y 0.000000 3.028480 0.000000 
#    z 0.000000 0.000000 3.174120 
# 
# 
# High freq. dielectric constant tensor:
#      x y z
#    x 1.640900 0.000000 0.000000 
#    y 0.000000 1.656080 0.000000 
#    z 0.000000 0.000000 1.642780 
# 
# From -- ./inp_files/73285.got.cif
#   From: 2010.03.12/outbox.cif.g09.slc.cpg/sg74_37_cif.got.tgz:73285.got - 2010.04.16 15:46:19.
