data_PCOD8297771
_publ_section_title
;
Structure prediction by ZEFSAII (Michael W. Deem and Ramdas Pophale) SiO2 
 PCOD8297771
Probable space group: I M M A
;
_chemical_formula_sum "Si O2"
_cell_formula_units_Z 72
_cell_length_a 19.999623
_cell_length_b 8.903837
_cell_length_c 19.694419
_cell_angle_alpha 90.000000
_cell_angle_beta 90.000000
_cell_angle_gamma 90.000000
_cell_volume 3507.051823
_symmetry_space_group_name_H-M "I M M A"
_symmetry_group_IT_number 74
_symmetry_cell_setting 'orthorhombic'
loop_
_space_group_symop_operation_xyz
x,y,z
-x,1/2-y,z
x,-y,-z
-x,1/2+y,-z
-x,-y,-z
x,1/2+y,-z
-x,y,z
x,1/2-y,z
1/2+x,1/2+y,1/2+z
1/2-x,-y,1/2+z
1/2+x,1/2-y,1/2-z
1/2-x,y,1/2-z
1/2-x,1/2-y,1/2-z
1/2+x,y,1/2-z
1/2-x,1/2+y,1/2+z
1/2+x,-y,1/2+z
loop_
_atom_site_type_symbol
_atom_site_label
_atom_site_fract_x
_atom_site_fract_y
_atom_site_fract_z
Si Si1 0.815676 0.077043 0.788184
Si Si2 0.366818 0.075866 0.571119
Si Si3 0.920389 0.581948 0.433876
Si Si4 0.500000 0.929977 0.574105
Si Si5 0.923760 0.426513 0.297363
O O1 0.827563 0.250000 0.768250
O O2 0.750000 0.014839 0.750000
O O3 0.809810 0.059775 0.870489
O O4 0.879099 0.982097 0.764390
O O5 0.382962 0.250000 0.555819
O O6 0.343920 0.000000 0.500000
O O7 0.431641 0.995184 0.605538
O O8 0.890447 0.500000 0.500000
O O9 0.891627 0.750000 0.432147
O O10 0.895746 0.497140 0.366876
O O11 0.000000 0.581809 0.437432
O O12 0.500000 0.750000 0.577285
O O13 0.500000 0.000000 0.500000
O O14 0.918852 0.250000 0.304853
O O15 0.000000 0.476859 0.282855
#
# Coordination Sequence:
#
# PCOD8297771 Si02
#       5
#    16  16  16   8  16
#     4  10  23  42  61  82 114 156 198 241 294 357
#     4  10  20  36  59  86 116 151 193 241 295 354
#     4   9  16  28  49  77 110 147 186 233 285 335
#     4  10  18  30  52  84 120 150 185 232 287 344
#     4  10  21  36  56  85 116 148 191 241 295 353
#
# _framework density 20.530062999999998
#
# number of rings (size 3 to 8) (size 9 to 14) (size 15 to 20)
#    0.000    2.222    0.000    4.333    1.556    6.222 
#    0.000    1.111    0.000    2.667    0.000    0.000 
#    0.000    0.000    0.000    0.000    0.000    0.000 
#
# Total GULP energy -446243.770417 kJ/mol
# GULP energy per Si atom -12395.660289 kJ/mol
# Density = 2.048334 g / cm^3
# Si number density = 20.530063 Si / 1000 Ang^3
#
#
#
# Elastic Constant Matrix: (Units=GPa)
#
#
# Indices 1 2 3 4 5 6 
#
# 1 67.8031 35.5109 51.0050 0.0000 0.0000 0.0000
# 2 35.5109 124.1994 51.6705 0.0000 0.0000 0.0000
# 3 51.0050 51.6705 135.7551 0.0000 0.0000 0.0000
# 4 0.0000 0.0000 0.0000 35.9683 0.0000 0.0000
# 5 0.0000 0.0000 0.0000 0.0000 29.5884 0.0000
# 6 0.0000 0.0000 0.0000 0.0000 0.0000 16.1520
#
#
#
# Elastic Compliance Matrix: (Units=1/GPa)
#
#
# Indices 1 2 3 4 5 6 
#
# 1 0.021663 -0.003336 -0.006869 0.000000 0.000000 0.000000
# 2 -0.003336 0.010080 -0.002583 0.000000 0.000000 0.000000
# 3 -0.006869 -0.002583 0.010930 0.000000 0.000000 0.000000
# 4 0.000000 0.000000 0.000000 0.027802 0.000000 0.000000
# 5 0.000000 0.000000 0.000000 0.000000 0.033797 0.000000
# 6 0.000000 0.000000 0.000000 0.000000 0.000000 0.061912
#
#
# Mechanical properties :
#
#
# Convention : Reuss Voigt Hill
#
# Bulk Modulus (GPa) = 58.49212 67.12558 62.80885
# Shear Modulus (GPa) = 25.32143 28.97981 27.15062
#
# Velocity S-wave (km/s) = 3.51576 3.76118 3.64054
# Velocity P-wave (km/s) = 6.71071 7.18534 6.95208
#
# Compressibility (1/GPa) = 0.01709632
#
# Stress axis : x y z
#
# Youngs Moduli (GPa) = 46.16093 99.20526 91.48823
#
# Poissons Ratio (x) = 0.33096 0.62847
# Poissons Ratio (y) = 0.15400 0.23634
# Poissons Ratio (z) = 0.31710 0.25627
#
# Static dielectric constant tensor:
#      x y z
#    x 4.182890 0.000000 0.000000 
#    y 0.000000 3.777080 0.000000 
#    z 0.000000 0.000000 3.777790 
# 
# 
# High freq. dielectric constant tensor:
#      x y z
#    x 1.759440 0.000000 0.000000 
#    y 0.000000 1.810530 0.000000 
#    z 0.000000 0.000000 1.813190 
# 
# From -- ./inp_files/45792.got.cif
#   From: 2010.03.12/outbox.cif.g09.slc.cpg/sg74_23_cif.got.tgz:45792.got - 2010.04.16 15:46:19.
