data_PCOD8297057
_publ_section_title
;
Structure prediction by ZEFSAII (Michael W. Deem and Ramdas Pophale) SiO2 
 PCOD8297057
Probable space group: I B C A 
;
_chemical_formula_sum "Si O2"
_cell_formula_units_Z 64
_cell_length_a 5.031776
_cell_length_b 25.092810
_cell_length_c 20.976573
_cell_angle_alpha 90.000000
_cell_angle_beta 90.000000
_cell_angle_gamma 90.000000
_cell_volume 2648.531456
_symmetry_space_group_name_H-M "I B C A "
_symmetry_group_IT_number 73
_symmetry_cell_setting 'orthorhombic'
loop_
_space_group_symop_operation_xyz
x,y,z
-x,1/2-y,z
x,-y,1/2-z
1/2-x,y,-z
-x,-y,-z
x,1/2+y,-z
-x,y,1/2+z
1/2+x,-y,z
1/2+x,1/2+y,1/2+z
1/2-x,-y,1/2+z
1/2+x,1/2-y,-z
-x,1/2+y,1/2-z
1/2-x,1/2-y,1/2-z
1/2+x,y,1/2-z
1/2-x,1/2+y,z
x,1/2-y,1/2+z
loop_
_atom_site_type_symbol
_atom_site_label
_atom_site_fract_x
_atom_site_fract_y
_atom_site_fract_z
Si Si1 0.765345 0.714892 0.388837
Si Si2 0.397257 0.528750 0.635553
Si Si3 0.750000 0.867683 0.000000
Si Si4 0.750000 0.558777 0.000000
Si Si5 0.438179 0.630424 0.205831
O O1 0.500000 0.750000 0.375380
O O2 0.721282 0.668288 0.437932
O O3 0.884763 0.688593 0.324179
O O4 0.000000 0.750000 0.418477
O O5 0.606809 0.485292 0.664285
O O6 0.337691 0.522066 0.559734
O O7 0.521061 0.586784 0.649709
O O8 0.495740 0.903121 0.987557
O O9 0.699684 0.621666 0.246475
#
# Coordination Sequence:
#
# PCOD8297057 Si02
#       5
#    16  16   8   8  16
#     4  12  26  46  74 107 144 189 241 301 370 438
#     4  12  26  46  74 107 142 188 239 300 367 433
#     4  12  24  44  76 106 148 188 230 304 378 436
#     4  12  24  44  76 106 148 186 234 300 378 438
#     4  12  28  48  72 103 145 194 247 298 354 429
#
# _framework density 24.164332999999999
#
# number of rings (size 3 to 8) (size 9 to 14) (size 15 to 20)
#    0.000    0.000    2.500    7.500    3.500    6.000 
#    0.000    0.000    0.000    0.000    0.000    0.000 
#    0.000    0.000    0.000    0.000    0.000    0.000 
#
# Total GULP energy -396467.093815 kJ/mol
# GULP energy per Si atom -12389.596682 kJ/mol
# Density = 2.410933 g / cm^3
# Si number density = 24.164333 Si / 1000 Ang^3
#
#
#
# Elastic Constant Matrix: (Units=GPa)
#
#
# Indices 1 2 3 4 5 6 
#
# 1 229.5974 68.1735 33.9615 0.0000 0.0000 0.0000
# 2 68.1735 101.2069 8.2862 0.0000 0.0000 0.0000
# 3 33.9615 8.2862 63.4795 0.0000 0.0000 0.0000
# 4 0.0000 0.0000 0.0000 20.6601 0.0000 0.0000
# 5 0.0000 0.0000 0.0000 0.0000 36.6371 0.0000
# 6 0.0000 0.0000 0.0000 0.0000 0.0000 58.6931
#
#
#
# Elastic Compliance Matrix: (Units=1/GPa)
#
#
# Indices 1 2 3 4 5 6 
#
# 1 0.005853 -0.003726 -0.002645 0.000000 0.000000 0.000000
# 2 -0.003726 0.012360 0.000380 0.000000 0.000000 0.000000
# 3 -0.002645 0.000380 0.017119 0.000000 0.000000 0.000000
# 4 0.000000 0.000000 0.000000 0.048403 0.000000 0.000000
# 5 0.000000 0.000000 0.000000 0.000000 0.027295 0.000000
# 6 0.000000 0.000000 0.000000 0.000000 0.000000 0.017038
#
#
# Mechanical properties :
#
#
# Convention : Reuss Voigt Hill
#
# Bulk Modulus (GPa) = 42.82796 68.34735 55.58766
# Shear Modulus (GPa) = 33.82233 42.12224 37.97229
#
# Velocity S-wave (km/s) = 3.74529 4.17964 3.96841
# Velocity P-wave (km/s) = 6.03863 7.18598 6.63714
#
# Compressibility (1/GPa) = 0.02334923
#
# Stress axis : x y z
#
# Youngs Moduli (GPa) = 170.85045 80.90911 58.41608
#
# Poissons Ratio (x) = 0.30148 0.15451
# Poissons Ratio (y) = 0.63661 -0.02221
# Poissons Ratio (z) = 0.45190 -0.03076
#
# Static dielectric constant tensor:
#      x y z
#    x 4.696850 0.000000 0.000000 
#    y 0.000000 4.447010 0.000000 
#    z 0.000000 0.000000 4.360770 
# 
# 
# High freq. dielectric constant tensor:
#      x y z
#    x 1.989890 0.000000 0.000000 
#    y 0.000000 1.968570 0.000000 
#    z 0.000000 0.000000 1.955000 
# 
# From -- ./inp_files/2031.got.cif
#   From: 2010.03.12/outbox.cif.g09.slc.cpg/sg73_2_cif.got.tgz:2031.got - 2010.04.16 15:25:48.
