data_PCOD8297610
_publ_section_title
;
Structure prediction by ZEFSAII (Michael W. Deem and Ramdas Pophale) SiO2 
 PCOD8297610
Probable space group: I M M A
;
_chemical_formula_sum "Si O2"
_cell_formula_units_Z 88
_cell_length_a 16.690275
_cell_length_b 19.554714
_cell_length_c 14.007332
_cell_angle_alpha 90.000000
_cell_angle_beta 90.000000
_cell_angle_gamma 90.000000
_cell_volume 4571.622730
_symmetry_space_group_name_H-M "I M M A"
_symmetry_group_IT_number 74
_symmetry_cell_setting 'orthorhombic'
loop_
_space_group_symop_operation_xyz
x,y,z
-x,1/2-y,z
x,-y,-z
-x,1/2+y,-z
-x,-y,-z
x,1/2+y,-z
-x,y,z
x,1/2-y,z
1/2+x,1/2+y,1/2+z
1/2-x,-y,1/2+z
1/2+x,1/2-y,1/2-z
1/2-x,y,1/2-z
1/2-x,1/2-y,1/2-z
1/2+x,y,1/2-z
1/2-x,1/2+y,1/2+z
1/2+x,-y,1/2+z
loop_
_atom_site_type_symbol
_atom_site_label
_atom_site_fract_x
_atom_site_fract_y
_atom_site_fract_z
Si Si1 0.755231 0.608211 0.541765
Si Si2 0.668740 0.527922 0.692005
Si Si3 0.310199 0.250000 0.409479
Si Si4 0.911058 0.896482 0.646560
Si Si5 0.307640 0.878053 0.336465
Si Si6 0.094740 0.750000 0.098007
Si Si7 0.412105 0.750000 0.775482
O O1 0.684411 0.561577 0.587892
O O2 0.746498 0.684852 0.580340
O O3 0.843459 0.579742 0.570475
O O4 0.748338 0.607561 0.427994
O O5 0.750000 0.536872 0.750000
O O6 0.599855 0.567624 0.749758
O O7 0.644342 0.448224 0.684361
O O8 0.381364 0.250000 0.487169
O O9 0.345107 0.250000 0.304508
O O10 0.902497 0.815485 0.657611
O O11 0.000000 0.915671 0.608549
O O12 0.250000 0.856845 0.250000
O O13 0.370803 0.817623 0.351562
O O14 0.000000 0.750000 0.109052
O O15 0.500000 0.750000 0.726743
#
# Coordination Sequence:
#
# PCOD8297610 Si02
#       7
#    16  16   8  16  16   8   8
#     4  10  19  33  55  80 108 148 185 219 261 317
#     4   9  18  33  55  80 107 139 178 216 262 321
#     4  10  18  31  55  77 107 148 184 213 256 320
#     4  10  20  32  51  84 121 146 171 213 267 329
#     4  10  21  38  59  78 102 140 189 234 268 317
#     4  10  22  38  56  78 104 134 180 237 283 318
#     4  10  18  29  48  79 120 148 167 206 264 324
#
# _framework density 19.249182000000001
#
# number of rings (size 3 to 8) (size 9 to 14) (size 15 to 20)
#    0.000    2.182    1.818    1.636    0.000    1.455 
#    0.000    0.909    0.000   18.545    0.000    0.000 
#    0.000    0.000    0.000    0.000    0.000    0.000 
#
# Total GULP energy -545547.000853 kJ/mol
# GULP energy per Si atom -12398.795474 kJ/mol
# Density = 1.920537 g / cm^3
# Si number density = 19.249182 Si / 1000 Ang^3
#
#
#
# Elastic Constant Matrix: (Units=GPa)
#
#
# Indices 1 2 3 4 5 6 
#
# 1 110.8090 33.3830 45.4770 0.0000 0.0000 0.0000
# 2 33.3830 102.8024 4.1827 0.0000 0.0000 0.0000
# 3 45.4770 4.1827 87.8642 0.0000 0.0000 0.0000
# 4 0.0000 0.0000 0.0000 26.7246 0.0000 0.0000
# 5 0.0000 0.0000 0.0000 0.0000 18.3319 0.0000
# 6 0.0000 0.0000 0.0000 0.0000 0.0000 -16.7240
#
#
#
# Elastic Compliance Matrix: (Units=1/GPa)
#
#
# Indices 1 2 3 4 5 6 
#
# 1 0.012858 -0.003912 -0.006469 0.000000 0.000000 0.000000
# 2 -0.003912 0.010937 0.001504 0.000000 0.000000 0.000000
# 3 -0.006469 0.001504 0.014658 0.000000 0.000000 0.000000
# 4 0.000000 0.000000 0.000000 0.037419 0.000000 0.000000
# 5 0.000000 0.000000 0.000000 0.000000 0.054550 0.000000
# 6 0.000000 0.000000 0.000000 0.000000 0.000000 -0.059794
#
#
# Mechanical properties :
#
#
# Convention : Reuss Voigt Hill
#
# Bulk Modulus (GPa) = 48.31195 51.95122 50.13158
# Shear Modulus (GPa) = 52.47703 20.22868 36.35286
#
# Velocity S-wave (km/s) = 5.22696 3.24525 4.35045
# Velocity P-wave (km/s) = 7.84735 6.41012 7.16486
#
# Compressibility (1/GPa) = 0.02069881
#
# Stress axis : x y z
#
# Youngs Moduli (GPa) = 77.77243 91.43611 68.22316
#
# Poissons Ratio (x) = 0.35772 0.44133
# Poissons Ratio (y) = 0.30426 -0.10263
# Poissons Ratio (z) = 0.50310 -0.13754
#
# Static dielectric constant tensor:
#      x y z
#    x 3.324380 0.000000 0.000000 
#    y 0.000000 4.654870 0.000000 
#    z 0.000000 0.000000 3.422540 
# 
# 
# High freq. dielectric constant tensor:
#      x y z
#    x 1.726760 0.000000 0.000000 
#    y 0.000000 1.763160 0.000000 
#    z 0.000000 0.000000 1.737200 
# 
# From -- ./inp_files/23732.got.cif
#   From: 2010.03.12/outbox.cif.g09.slc.cpg/sg74_12_cif.got.tgz:23732.got - 2010.04.16 15:46:19.
