data_PCOD8297701
_publ_section_title
;
Structure prediction by ZEFSAII (Michael W. Deem and Ramdas Pophale) SiO2 
 PCOD8297701
Probable space group: I M M A
;
_chemical_formula_sum "Si O2"
_cell_formula_units_Z 104
_cell_length_a 24.463059
_cell_length_b 8.904098
_cell_length_c 25.213772
_cell_angle_alpha 90.000000
_cell_angle_beta 90.000000
_cell_angle_gamma 90.000000
_cell_volume 5492.101000
_symmetry_space_group_name_H-M "I M M A"
_symmetry_group_IT_number 74
_symmetry_cell_setting 'orthorhombic'
loop_
_space_group_symop_operation_xyz
x,y,z
-x,1/2-y,z
x,-y,-z
-x,1/2+y,-z
-x,-y,-z
x,1/2+y,-z
-x,y,z
x,1/2-y,z
1/2+x,1/2+y,1/2+z
1/2-x,-y,1/2+z
1/2+x,1/2-y,1/2-z
1/2-x,y,1/2-z
1/2-x,1/2-y,1/2-z
1/2+x,y,1/2-z
1/2-x,1/2+y,1/2+z
1/2+x,-y,1/2+z
loop_
_atom_site_type_symbol
_atom_site_label
_atom_site_fract_x
_atom_site_fract_y
_atom_site_fract_z
Si Si1 0.437849 0.928637 0.236936
Si Si2 0.655973 0.080370 0.841063
Si Si3 0.102786 0.581792 0.447003
Si Si4 0.882363 0.928059 0.835830
Si Si5 0.562710 0.926582 0.554642
Si Si6 0.268638 0.079565 0.689990
Si Si7 0.500000 0.427009 0.058415
O O1 0.500000 0.976673 0.221061
O O2 0.434197 0.750000 0.241087
O O3 0.394315 0.991198 0.192826
O O4 0.423615 0.998433 0.293781
O O5 0.661763 0.250000 0.819140
O O6 0.649817 0.081295 0.904202
O O7 0.715086 0.002132 0.836550
O O8 0.123157 0.500000 0.500000
O O9 0.083816 0.750000 0.462299
O O10 0.054510 0.493212 0.415702
O O11 0.886213 0.750000 0.829928
O O12 0.900809 0.978913 0.894972
O O13 0.820842 0.979514 0.823517
O O14 0.500000 0.976183 0.565009
O O15 0.567177 0.750000 0.547146
O O16 0.584903 0.000000 0.500000
O O17 0.281007 0.250000 0.670657
O O18 0.250000 0.078756 0.750000
O O19 0.500000 0.250000 0.059173
O O20 0.500000 0.500000 0.000000
#
# Coordination Sequence:
#
# PCOD8297701 Si02
#       7
#    16  16  16  16  16  16   8
#     4  10  20  35  57  83 109 142 186 226 267 328
#     4   9  19  35  56  80 103 137 180 227 273 313
#     4  10  19  33  53  74 101 135 174 217 268 318
#     4  11  22  36  56  84 119 149 179 226 288 338
#     4   9  19  36  57  82 115 153 188 226 274 331
#     4  10  19  37  61  79 104 143 192 235 267 318
#     4  10  18  30  48  72 100 132 172 210 255 308
#
# _framework density 18.936287
#
# number of rings (size 3 to 8) (size 9 to 14) (size 15 to 20)
#    0.000    2.154    1.538    3.000    1.077    2.462 
#    0.000    5.385    0.000    3.692    0.000    0.000 
#    0.000    0.000    0.000    0.000    0.000    0.000 
#
# Total GULP energy -644240.830055 kJ/mol
# GULP energy per Si atom -12389.246732 kJ/mol
# Density = 1.889319 g / cm^3
# Si number density = 18.936287 Si / 1000 Ang^3
#
#
#
# Elastic Constant Matrix: (Units=GPa)
#
#
# Indices 1 2 3 4 5 6 
#
# 1 122.0522 26.9676 42.4958 0.0000 0.0000 0.0000
# 2 26.9676 64.3453 25.7345 0.0000 0.0000 0.0000
# 3 42.4958 25.7345 101.4860 0.0000 0.0000 0.0000
# 4 0.0000 0.0000 0.0000 21.3924 0.0000 0.0000
# 5 0.0000 0.0000 0.0000 0.0000 30.3628 0.0000
# 6 0.0000 0.0000 0.0000 0.0000 0.0000 12.1007
#
#
#
# Elastic Compliance Matrix: (Units=1/GPa)
#
#
# Indices 1 2 3 4 5 6 
#
# 1 0.010028 -0.002808 -0.003487 0.000000 0.000000 0.000000
# 2 -0.002808 0.018082 -0.003409 0.000000 0.000000 0.000000
# 3 -0.003487 -0.003409 0.012178 0.000000 0.000000 0.000000
# 4 0.000000 0.000000 0.000000 0.046746 0.000000 0.000000
# 5 0.000000 0.000000 0.000000 0.000000 0.032935 0.000000
# 6 0.000000 0.000000 0.000000 0.000000 0.000000 0.082640
#
#
# Mechanical properties :
#
#
# Convention : Reuss Voigt Hill
#
# Bulk Modulus (GPa) = 47.89502 53.14213 50.51857
# Shear Modulus (GPa) = 21.83638 25.61691 23.72664
#
# Velocity S-wave (km/s) = 3.39949 3.68203 3.54358
# Velocity P-wave (km/s) = 6.38407 6.79713 6.59384
#
# Compressibility (1/GPa) = 0.02087900
#
# Stress axis : x y z
#
# Youngs Moduli (GPa) = 99.72344 55.30496 82.11431
#
# Poissons Ratio (x) = 0.15530 0.28632
# Poissons Ratio (y) = 0.28004 0.27994
# Poissons Ratio (z) = 0.34772 0.18855
#
# Static dielectric constant tensor:
#      x y z
#    x 3.812960 0.000000 0.000000 
#    y 0.000000 3.356910 0.000000 
#    z 0.000000 0.000000 3.508820 
# 
# 
# High freq. dielectric constant tensor:
#      x y z
#    x 1.737720 0.000000 0.000000 
#    y 0.000000 1.716380 0.000000 
#    z 0.000000 0.000000 1.734610 
# 
# From -- ./inp_files/68644.got.cif
#   From: 2010.03.12/outbox.cif.g09.slc.cpg/sg74_35_cif.got.tgz:68644.got - 2010.04.16 15:46:19.
