data_PCOD8297122
_publ_section_title
;
Structure prediction by ZEFSAII (Michael W. Deem and Ramdas Pophale) SiO2 
 PCOD8297122
Probable space group: I M M A
;
_chemical_formula_sum "Si O2"
_cell_formula_units_Z 80
_cell_length_a 20.925781
_cell_length_b 17.937889
_cell_length_c 13.731166
_cell_angle_alpha 90.000000
_cell_angle_beta 90.000000
_cell_angle_gamma 90.000000
_cell_volume 5154.190019
_symmetry_space_group_name_H-M "I M M A"
_symmetry_group_IT_number 74
_symmetry_cell_setting 'orthorhombic'
loop_
_space_group_symop_operation_xyz
x,y,z
-x,1/2-y,z
x,-y,-z
-x,1/2+y,-z
-x,-y,-z
x,1/2+y,-z
-x,y,z
x,1/2-y,z
1/2+x,1/2+y,1/2+z
1/2-x,-y,1/2+z
1/2+x,1/2-y,1/2-z
1/2-x,y,1/2-z
1/2-x,1/2-y,1/2-z
1/2+x,y,1/2-z
1/2-x,1/2+y,1/2+z
1/2+x,-y,1/2+z
loop_
_atom_site_type_symbol
_atom_site_label
_atom_site_fract_x
_atom_site_fract_y
_atom_site_fract_z
Si Si1 0.316767 0.831638 0.303268
Si Si2 0.651359 0.487447 0.727862
Si Si3 0.812931 0.165609 0.031819
Si Si4 0.927186 0.436830 0.079877
Si Si5 0.266768 0.964374 0.898320
O O1 0.348086 0.750000 0.281756
O O2 0.250000 0.838817 0.250000
O O3 0.361818 0.898234 0.260995
O O4 0.303379 0.839803 0.417169
O O5 0.588797 0.528292 0.686077
O O6 0.672103 0.529404 0.826962
O O7 0.707848 0.490387 0.647530
O O8 0.809236 0.250000 0.069895
O O9 0.882586 0.133635 0.058811
O O10 0.756027 0.120826 0.086237
O O11 0.000000 0.409098 0.079082
O O12 0.914292 0.500000 0.000000
O O13 0.287141 0.000000 0.000000
#
# Coordination Sequence:
#
# PCOD8297122 Si02
#       5
#    16  16  16  16  16
#     4  10  16  24  41  67  94 116 139 178 228 273
#     4  10  16  28  45  64  89 119 151 184 217 271
#     4  10  18  29  44  66  95 118 148 185 226 273
#     4  10  19  32  47  62  85 120 161 191 223 264
#     4  10  16  27  44  66  90 119 148 174 225 276
#
# _framework density 15.521352
#
# number of rings (size 3 to 8) (size 9 to 14) (size 15 to 20)
#    0.000    2.000    6.000    1.200    0.000    0.400 
#    0.000    8.000    0.000    1.200    0.000    0.000 
#    0.000    0.000    0.000    0.400    0.000    0.000 
#
# Total GULP energy -495775.199853 kJ/mol
# GULP energy per Si atom -12394.379996 kJ/mol
# Density = 1.548602 g / cm^3
# Si number density = 15.521352 Si / 1000 Ang^3
#
#
#
# Elastic Constant Matrix: (Units=GPa)
#
#
# Indices 1 2 3 4 5 6 
#
# 1 46.0943 38.1198 40.3135 0.0000 0.0000 0.0000
# 2 38.1198 140.4655 42.9669 0.0000 0.0000 0.0000
# 3 40.3135 42.9669 85.3490 0.0000 0.0000 0.0000
# 4 0.0000 0.0000 0.0000 19.5924 0.0000 0.0000
# 5 0.0000 0.0000 0.0000 0.0000 17.0234 0.0000
# 6 0.0000 0.0000 0.0000 0.0000 0.0000 15.2742
#
#
#
# Elastic Compliance Matrix: (Units=1/GPa)
#
#
# Indices 1 2 3 4 5 6 
#
# 1 0.041019 -0.006153 -0.016277 0.000000 0.000000 0.000000
# 2 -0.006153 0.009338 -0.001795 0.000000 0.000000 0.000000
# 3 -0.016277 -0.001795 0.020309 0.000000 0.000000 0.000000
# 4 0.000000 0.000000 0.000000 0.051040 0.000000 0.000000
# 5 0.000000 0.000000 0.000000 0.000000 0.058743 0.000000
# 6 0.000000 0.000000 0.000000 0.000000 0.000000 0.065470
#
#
# Mechanical properties :
#
#
# Convention : Reuss Voigt Hill
#
# Bulk Modulus (GPa) = 45.01324 57.18991 51.10157
# Shear Modulus (GPa) = 16.56877 20.41192 18.49034
#
# Velocity S-wave (km/s) = 3.27078 3.63035 3.45524
# Velocity P-wave (km/s) = 6.58239 7.38231 6.99379
#
# Compressibility (1/GPa) = 0.02221569
#
# Stress axis : x y z
#
# Youngs Moduli (GPa) = 24.37903 107.09004 49.24046
#
# Poissons Ratio (x) = 0.65890 0.80150
# Poissons Ratio (y) = 0.15000 0.08838
# Poissons Ratio (z) = 0.39682 0.19220
#
# Static dielectric constant tensor:
#      x y z
#    x 2.625540 0.000000 0.000000 
#    y 0.000000 3.312150 0.000000 
#    z 0.000000 0.000000 3.046910 
# 
# 
# High freq. dielectric constant tensor:
#      x y z
#    x 1.543810 0.000000 0.000000 
#    y 0.000000 1.607580 0.000000 
#    z 0.000000 0.000000 1.590210 
# 
# From -- ./inp_files/34164.got.cif
#   From: 2010.03.12/outbox.cif.g09.slc.cpg/sg74_18_cif.got.tgz:34164.got - 2010.04.16 15:46:19.
