data_PCOD8297524
_publ_section_title
;
Structure prediction by ZEFSAII (Michael W. Deem and Ramdas Pophale) SiO2 
 PCOD8297524
Probable space group: I M M A
;
_chemical_formula_sum "Si O2"
_cell_formula_units_Z 80
_cell_length_a 8.511775
_cell_length_b 25.413759
_cell_length_c 20.479689
_cell_angle_alpha 90.000000
_cell_angle_beta 90.000000
_cell_angle_gamma 90.000000
_cell_volume 4430.088471
_symmetry_space_group_name_H-M "I M M A"
_symmetry_group_IT_number 74
_symmetry_cell_setting 'orthorhombic'
loop_
_space_group_symop_operation_xyz
x,y,z
-x,1/2-y,z
x,-y,-z
-x,1/2+y,-z
-x,-y,-z
x,1/2+y,-z
-x,y,z
x,1/2-y,z
1/2+x,1/2+y,1/2+z
1/2-x,-y,1/2+z
1/2+x,1/2-y,1/2-z
1/2-x,y,1/2-z
1/2-x,1/2-y,1/2-z
1/2+x,y,1/2-z
1/2-x,1/2+y,1/2+z
1/2+x,-y,1/2+z
loop_
_atom_site_type_symbol
_atom_site_label
_atom_site_fract_x
_atom_site_fract_y
_atom_site_fract_z
Si Si1 0.815151 0.143926 0.628284
Si Si2 0.316155 0.972064 0.931711
Si Si3 0.316477 0.539395 0.317289
Si Si4 0.682867 0.250000 0.617113
Si Si5 0.817649 0.250000 0.476065
Si Si6 0.187025 0.362075 0.479886
O O1 0.768777 0.094928 0.672546
O O2 0.728771 0.196593 0.655822
O O3 0.755139 0.131824 0.554528
O O4 0.000000 0.152648 0.631668
O O5 0.500000 0.976296 0.914733
O O6 0.256301 0.911490 0.936963
O O7 0.217701 0.998503 0.874810
O O8 0.280286 0.000000 0.000000
O O9 0.500000 0.549044 0.312334
O O10 0.250000 0.515138 0.250000
O O11 0.500000 0.250000 0.599001
O O12 0.793156 0.250000 0.553466
O O13 0.747986 0.193960 0.449493
O O14 0.000000 0.250000 0.460001
O O15 0.000000 0.361703 0.481106
#
# Coordination Sequence:
#
# PCOD8297524 Si02
#       6
#    16  16  16   8   8  16
#     4  10  18  34  54  74 101 140 180 218 262 315
#     4  10  18  33  55  79 107 141 178 217 264 317
#     4  12  25  39  54  76 105 140 178 223 271 321
#     4  10  18  28  45  75 106 137 175 221 263 303
#     4   8  14  26  44  71 104 141 178 211 255 313
#     4   8  14  26  49  76 103 136 174 213 255 307
#
# _framework density 18.058330000000002
#
# number of rings (size 3 to 8) (size 9 to 14) (size 15 to 20)
#    0.000    2.200    2.000    4.500    0.000    0.400 
#    0.000    1.500    0.000    0.000    0.000    0.700 
#    0.000    0.000    0.000    0.000    0.000    0.000 
#
# Total GULP energy -495674.030374 kJ/mol
# GULP energy per Si atom -12391.850759 kJ/mol
# Density = 1.801723 g / cm^3
# Si number density = 18.058330 Si / 1000 Ang^3
#
#
#
# Elastic Constant Matrix: (Units=GPa)
#
#
# Indices 1 2 3 4 5 6 
#
# 1 58.4533 24.5817 22.8001 0.0000 0.0000 0.0000
# 2 24.5817 148.1791 35.3316 -0.0001 0.0000 0.0000
# 3 22.8001 35.3316 59.4355 -0.0004 -0.0001 -0.0001
# 4 0.0000 -0.0001 -0.0004 8.0206 0.0000 0.0000
# 5 0.0000 0.0000 -0.0001 0.0000 20.1871 0.0000
# 6 0.0000 0.0000 -0.0001 0.0000 0.0000 23.3147
#
#
#
# Elastic Compliance Matrix: (Units=1/GPa)
#
#
# Indices 1 2 3 4 5 6 
#
# 1 0.020513 -0.001779 -0.006811 0.000000 0.000000 0.000000
# 2 -0.001779 0.008017 -0.004084 0.000000 0.000000 0.000000
# 3 -0.006811 -0.004084 0.021865 0.000001 0.000000 0.000000
# 4 0.000000 0.000000 0.000001 0.124679 0.000000 0.000000
# 5 0.000000 0.000000 0.000000 0.000000 0.049537 0.000000
# 6 0.000000 0.000000 0.000000 0.000000 0.000000 0.042891
#
#
# Mechanical properties :
#
#
# Convention : Reuss Voigt Hill
#
# Bulk Modulus (GPa) = 39.92379 47.94387 43.93383
# Shear Modulus (GPa) = 16.60033 22.52811 19.56422
#
# Velocity S-wave (km/s) = 3.03522 3.53586 3.29506
# Velocity P-wave (km/s) = 5.86853 6.57851 6.23364
#
# Compressibility (1/GPa) = 0.02504772
#
# Stress axis : x y z
#
# Youngs Moduli (GPa) = 48.75067 124.72934 45.73438
#
# Poissons Ratio (x) = 0.22186 0.31152
# Poissons Ratio (y) = 0.08672 0.18676
# Poissons Ratio (z) = 0.33206 0.50934
#
# Static dielectric constant tensor:
#      x y z
#    x 3.086170 0.000000 0.000000 
#    y 0.000000 4.083160 0.000000 
#    z 0.000000 0.000000 3.029550 
# 
# 
# High freq. dielectric constant tensor:
#      x y z
#    x 1.683110 0.000000 0.000000 
#    y 0.000000 1.723180 0.000000 
#    z 0.000000 0.000000 1.642300 
# 
# From -- ./inp_files/39797.got.cif
#   From: 2010.03.12/outbox.cif.g09.slc.cpg/sg74_20_cif.got.tgz:39797.got - 2010.04.16 15:46:19.
