data_PCOD8297261
_publ_section_title
;
Structure prediction by ZEFSAII (Michael W. Deem and Ramdas Pophale) SiO2 
 PCOD8297261
Probable space group: I M M A
;
_chemical_formula_sum "Si O2"
_cell_formula_units_Z 80
_cell_length_a 17.824723
_cell_length_b 11.933364
_cell_length_c 26.236616
_cell_angle_alpha 90.000000
_cell_angle_beta 90.000000
_cell_angle_gamma 90.000000
_cell_volume 5580.761933
_symmetry_space_group_name_H-M "I M M A"
_symmetry_group_IT_number 74
_symmetry_cell_setting 'orthorhombic'
loop_
_space_group_symop_operation_xyz
x,y,z
-x,1/2-y,z
x,-y,-z
-x,1/2+y,-z
-x,-y,-z
x,1/2+y,-z
-x,y,z
x,1/2-y,z
1/2+x,1/2+y,1/2+z
1/2-x,-y,1/2+z
1/2+x,1/2-y,1/2-z
1/2-x,y,1/2-z
1/2-x,1/2-y,1/2-z
1/2+x,y,1/2-z
1/2-x,1/2+y,1/2+z
1/2+x,-y,1/2+z
loop_
_atom_site_type_symbol
_atom_site_label
_atom_site_fract_x
_atom_site_fract_y
_atom_site_fract_z
Si Si1 0.149811 0.382682 0.850750
Si Si2 0.411313 0.250000 0.285444
Si Si3 0.911073 0.483008 0.057599
Si Si4 0.587375 0.491359 0.253860
Si Si5 0.410816 0.250000 0.398400
Si Si6 0.797612 0.872963 0.301260
O O1 0.135163 0.250000 0.844729
O O2 0.125142 0.422686 0.906453
O O3 0.101918 0.446321 0.807426
O O4 0.238866 0.410427 0.845054
O O5 0.500000 0.250000 0.291498
O O6 0.385338 0.362188 0.256599
O O7 0.376089 0.250000 0.341888
O O8 0.881678 0.360469 0.073189
O O9 0.000000 0.494450 0.062656
O O10 0.883856 0.500000 0.000000
O O11 0.500000 0.500312 0.240895
O O12 0.632827 0.543189 0.206183
O O13 0.500000 0.250000 0.397290
O O14 0.830774 0.750000 0.313501
O O15 0.750000 0.868505 0.250000
#
# Coordination Sequence:
#
# PCOD8297261 Si02
#       6
#    16   8  16  16   8  16
#     4  10  19  30  42  58  83 111 138 169 208 246
#     4   9  16  26  40  58  82 110 134 163 205 240
#     4  10  20  30  43  61  80 106 142 178 205 237
#     4  10  17  27  43  61  81 108 140 168 199 243
#     4   9  16  30  41  53  83 109 129 173 217 230
#     4   8  16  29  41  56  81 107 132 169 208 239
#
# _framework density 14.334961
#
# number of rings (size 3 to 8) (size 9 to 14) (size 15 to 20)
#    0.000    2.600    2.000    2.400    1.400    2.800 
#    0.000    5.500    0.000    0.000    0.000    0.000 
#    0.000    0.800    0.000    0.000    0.000    0.000 
#
# Total GULP energy -495793.697059 kJ/mol
# GULP energy per Si atom -12394.842426 kJ/mol
# Density = 1.430233 g / cm^3
# Si number density = 14.334961 Si / 1000 Ang^3
#
#
#
# Elastic Constant Matrix: (Units=GPa)
#
#
# Indices 1 2 3 4 5 6 
#
# 1 57.6110 42.4227 30.0442 0.0000 0.0000 0.0000
# 2 42.4227 109.1417 28.2064 0.0000 0.0000 0.0000
# 3 30.0442 28.2064 50.7130 0.0000 0.0000 0.0000
# 4 0.0000 0.0000 0.0000 15.8903 0.0000 0.0000
# 5 0.0000 0.0000 0.0000 0.0000 19.2222 0.0000
# 6 0.0000 0.0000 0.0000 0.0000 0.0000 15.9542
#
#
#
# Elastic Compliance Matrix: (Units=1/GPa)
#
#
# Indices 1 2 3 4 5 6 
#
# 1 0.030546 -0.008404 -0.013422 0.000000 0.000000 0.000000
# 2 -0.008404 0.013013 -0.002259 0.000000 0.000000 0.000000
# 3 -0.013422 -0.002259 0.028927 0.000000 0.000000 0.000000
# 4 0.000000 0.000000 0.000000 0.062931 0.000000 0.000000
# 5 0.000000 0.000000 0.000000 0.000000 0.052023 0.000000
# 6 0.000000 0.000000 0.000000 0.000000 0.000000 0.062679
#
#
# Mechanical properties :
#
#
# Convention : Reuss Voigt Hill
#
# Bulk Modulus (GPa) = 41.12605 46.53471 43.83038
# Shear Modulus (GPa) = 16.31879 17.99950 17.15915
#
# Velocity S-wave (km/s) = 3.37767 3.54734 3.46354
# Velocity P-wave (km/s) = 6.63047 7.02218 6.82913
#
# Compressibility (1/GPa) = 0.02431549
#
# Stress axis : x y z
#
# Youngs Moduli (GPa) = 32.73743 76.84730 34.56992
#
# Poissons Ratio (x) = 0.64584 0.46400
# Poissons Ratio (y) = 0.27513 0.07808
# Poissons Ratio (z) = 0.43941 0.17357
#
# Static dielectric constant tensor:
#      x y z
#    x 2.708620 0.000000 0.000000 
#    y 0.000000 3.068890 0.000000 
#    z 0.000000 0.000000 2.677810 
# 
# 
# High freq. dielectric constant tensor:
#      x y z
#    x 1.514360 0.000000 0.000000 
#    y 0.000000 1.566610 0.000000 
#    z 0.000000 0.000000 1.512050 
# 
# From -- ./inp_files/58764.got.cif
#   From: 2010.03.12/outbox.cif.g09.slc.cpg/sg74_30_cif.got.tgz:58764.got - 2010.04.16 15:46:19.
