data_PCOD8297096
_publ_section_title
;
Structure prediction by ZEFSAII (Michael W. Deem and Ramdas Pophale) SiO2 
 PCOD8297096
Probable space group: I M M A
;
_chemical_formula_sum "Si O2"
_cell_formula_units_Z 88
_cell_length_a 27.342740
_cell_length_b 11.730115
_cell_length_c 14.327951
_cell_angle_alpha 90.000000
_cell_angle_beta 90.000000
_cell_angle_gamma 90.000000
_cell_volume 4595.453652
_symmetry_space_group_name_H-M "I M M A"
_symmetry_group_IT_number 74
_symmetry_cell_setting 'orthorhombic'
loop_
_space_group_symop_operation_xyz
x,y,z
-x,1/2-y,z
x,-y,-z
-x,1/2+y,-z
-x,-y,-z
x,1/2+y,-z
-x,y,z
x,1/2-y,z
1/2+x,1/2+y,1/2+z
1/2-x,-y,1/2+z
1/2+x,1/2-y,1/2-z
1/2-x,y,1/2-z
1/2-x,1/2-y,1/2-z
1/2+x,y,1/2-z
1/2-x,1/2+y,1/2+z
1/2+x,-y,1/2+z
loop_
_atom_site_type_symbol
_atom_site_label
_atom_site_fract_x
_atom_site_fract_y
_atom_site_fract_z
Si Si1 0.711925 0.250000 0.165514
Si Si2 0.142021 0.750000 0.819830
Si Si3 0.665064 0.491174 0.398061
Si Si4 0.556568 0.988211 0.891991
Si Si5 0.268844 0.490207 0.146629
Si Si6 0.443971 0.250000 0.202044
Si Si7 0.861290 0.615421 0.286271
O O1 0.750000 0.250000 0.250000
O O2 0.658443 0.250000 0.211691
O O3 0.716170 0.134117 0.104049
O O4 0.163349 0.858435 0.872806
O O5 0.083554 0.750000 0.803204
O O6 0.639669 0.500000 0.500000
O O7 0.721493 0.536685 0.408915
O O8 0.638192 0.564500 0.318699
O O9 0.500000 0.019534 0.874371
O O10 0.588559 0.078411 0.834376
O O11 0.568948 0.860579 0.859476
O O12 0.570241 0.000000 0.000000
O O13 0.250000 0.467123 0.250000
O O14 0.315166 0.574399 0.150321
O O15 0.500000 0.250000 0.231667
O O16 0.858531 0.750000 0.278226
#
# Coordination Sequence:
#
# PCOD8297096 Si02
#       7
#     8   8  16  16  16   8  16
#     4  10  12  28  58  80  94 140 193 243 287 332
#     4  12  18  38  62  83 114 157 197 255 291 340
#     4  11  23  36  57  86 116 160 207 247 285 343
#     4  10  22  40  66  94 118 147 189 240 297 361
#     4   9  17  33  54  77 111 147 197 239 289 332
#     4  10  20  38  66  93 113 145 191 242 302 348
#     4  11  23  39  58  83 124 164 192 238 302 352
#
# _framework density 19.149360000000001
#
# number of rings (size 3 to 8) (size 9 to 14) (size 15 to 20)
#    0.000    1.636    7.273    0.000    2.545    4.364 
#    0.000    0.000    4.000    2.182    0.000    0.000 
#    0.000    0.000    0.000    0.000    0.000    0.000 
#
# Total GULP energy -545226.999416 kJ/mol
# GULP energy per Si atom -12391.522714 kJ/mol
# Density = 1.910578 g / cm^3
# Si number density = 19.149360 Si / 1000 Ang^3
#
#
#
# Elastic Constant Matrix: (Units=GPa)
#
#
# Indices 1 2 3 4 5 6 
#
# 1 90.5547 42.1045 47.9105 0.0000 0.0000 0.0000
# 2 42.1045 137.3912 32.8601 0.0000 0.0000 0.0000
# 3 47.9105 32.8601 94.4263 0.0000 0.0000 0.0000
# 4 0.0000 0.0000 0.0000 3.4973 0.0000 0.0000
# 5 0.0000 0.0000 0.0000 0.0000 19.2359 0.0000
# 6 0.0000 0.0000 0.0000 0.0000 0.0000 24.0288
#
#
#
# Elastic Compliance Matrix: (Units=1/GPa)
#
#
# Indices 1 2 3 4 5 6 
#
# 1 0.016364 -0.003304 -0.007153 0.000000 0.000000 0.000000
# 2 -0.003304 0.008606 -0.001319 0.000000 0.000000 0.000000
# 3 -0.007153 -0.001319 0.014678 0.000000 0.000000 0.000000
# 4 0.000000 0.000000 0.000000 0.285937 0.000000 0.000000
# 5 0.000000 0.000000 0.000000 0.000000 0.051986 0.000000
# 6 0.000000 0.000000 0.000000 0.000000 0.000000 0.041617
#
#
# Mechanical properties :
#
#
# Convention : Reuss Voigt Hill
#
# Bulk Modulus (GPa) = 62.12150 63.12473 62.62311
# Shear Modulus (GPa) = 11.15808 22.65220 16.90514
#
# Velocity S-wave (km/s) = 2.41651 3.44309 2.97443
# Velocity P-wave (km/s) = 6.34799 6.98874 6.67606
#
# Compressibility (1/GPa) = 0.01609749
#
# Stress axis : x y z
#
# Youngs Moduli (GPa) = 61.11066 116.19271 68.12709
#
# Poissons Ratio (x) = 0.38390 0.48731
# Poissons Ratio (y) = 0.20191 0.08983
# Poissons Ratio (z) = 0.43712 0.15321
#
# Static dielectric constant tensor:
#      x y z
#    x 3.695260 0.000000 0.000000 
#    y 0.000000 3.567700 0.000000 
#    z 0.000000 0.000000 4.213320 
# 
# 
# High freq. dielectric constant tensor:
#      x y z
#    x 1.741910 0.000000 0.000000 
#    y 0.000000 1.750110 0.000000 
#    z 0.000000 0.000000 1.716240 
# 
# From -- ./inp_files/31003.got.cif
#   From: 2010.03.12/outbox.cif.g09.slc.cpg/sg74_16_cif.got.tgz:31003.got - 2010.04.16 15:46:19.
