data_PCOD8297125
_publ_section_title
;
Structure prediction by ZEFSAII (Michael W. Deem and Ramdas Pophale) SiO2 
 PCOD8297125
Probable space group: I M M A
;
_chemical_formula_sum "Si O2"
_cell_formula_units_Z 96
_cell_length_a 28.523882
_cell_length_b 14.072244
_cell_length_c 15.975641
_cell_angle_alpha 90.000000
_cell_angle_beta 90.000000
_cell_angle_gamma 90.000000
_cell_volume 6412.542856
_symmetry_space_group_name_H-M "I M M A"
_symmetry_group_IT_number 74
_symmetry_cell_setting 'orthorhombic'
loop_
_space_group_symop_operation_xyz
x,y,z
-x,1/2-y,z
x,-y,-z
-x,1/2+y,-z
-x,-y,-z
x,1/2+y,-z
-x,y,z
x,1/2-y,z
1/2+x,1/2+y,1/2+z
1/2-x,-y,1/2+z
1/2+x,1/2-y,1/2-z
1/2-x,y,1/2-z
1/2-x,1/2-y,1/2-z
1/2+x,y,1/2-z
1/2-x,1/2+y,1/2+z
1/2+x,-y,1/2+z
loop_
_atom_site_type_symbol
_atom_site_label
_atom_site_fract_x
_atom_site_fract_y
_atom_site_fract_z
Si Si1 0.550968 0.965193 0.633739
Si Si2 0.827910 0.355893 0.897293
Si Si3 0.713677 0.137842 0.436128
Si Si4 0.651007 0.965813 0.695802
Si Si5 0.209063 0.355150 0.317396
Si Si6 0.929356 0.143822 0.968180
O O1 0.500000 0.944847 0.676804
O O2 0.594345 0.958534 0.698451
O O3 0.559278 0.887589 0.562048
O O4 0.547146 0.071265 0.596383
O O5 0.817676 0.250000 0.862524
O O6 0.831802 0.425158 0.817504
O O7 0.873975 0.358090 0.954409
O O8 0.788596 0.389828 0.965109
O O9 0.706537 0.250000 0.424717
O O10 0.671768 0.091325 0.382741
O O11 0.765665 0.108554 0.402578
O O12 0.669269 0.928035 0.785489
O O13 0.186665 0.250000 0.329045
O O14 0.250000 0.349866 0.250000
O O15 0.949358 0.250000 0.953409
#
# Coordination Sequence:
#
# PCOD8297125 Si02
#       6
#    16  16  16  16  16  16
#     4  10  19  25  31  47  67  91 122 150 176 209
#     4   9  16  24  37  54  70  91 120 151 183 212
#     4   9  15  25  40  55  68  84 115 154 186 219
#     4  10  16  25  37  50  71  93 116 151 185 211
#     4   8  15  25  39  55  67  85 115 151 187 219
#     4   9  16  26  35  44  64  92 117 149 183 206
#
# _framework density 14.970660000000001
#
# number of rings (size 3 to 8) (size 9 to 14) (size 15 to 20)
#    0.000    2.833    1.667    3.000    0.000    2.000 
#    0.000    0.000    0.000    4.500    0.000    0.000 
#    0.000    0.000    0.000    0.000    0.000   30.000 
#
# Total GULP energy -594652.116901 kJ/mol
# GULP energy per Si atom -12388.585769 kJ/mol
# Density = 1.493659 g / cm^3
# Si number density = 14.970660 Si / 1000 Ang^3
#
#
#
# Elastic Constant Matrix: (Units=GPa)
#
#
# Indices 1 2 3 4 5 6 
#
# 1 86.5529 33.8298 34.0362 0.0000 0.0000 0.0000
# 2 33.8298 71.5911 17.5761 0.0000 0.0000 0.0000
# 3 34.0362 17.5761 26.9312 0.0000 0.0000 0.0000
# 4 0.0000 0.0000 0.0000 12.5774 0.0000 0.0000
# 5 0.0000 0.0000 0.0000 0.0000 12.8829 0.0000
# 6 0.0000 0.0000 0.0000 0.0000 0.0000 9.6318
#
#
#
# Elastic Compliance Matrix: (Units=1/GPa)
#
#
# Indices 1 2 3 4 5 6 
#
# 1 0.024217 -0.004679 -0.027552 0.000000 0.000000 0.000000
# 2 -0.004679 0.017537 -0.005531 0.000000 0.000000 0.000000
# 3 -0.027552 -0.005531 0.075563 0.000000 0.000000 0.000000
# 4 0.000000 0.000000 0.000000 0.079507 0.000000 0.000000
# 5 0.000000 0.000000 0.000000 0.000000 0.077622 0.000000
# 6 0.000000 0.000000 0.000000 0.000000 0.000000 0.103823
#
#
# Mechanical properties :
#
#
# Convention : Reuss Voigt Hill
#
# Bulk Modulus (GPa) = 23.92859 39.55105 31.73982
# Shear Modulus (GPa) = 10.68998 13.66063 12.17530
#
# Velocity S-wave (km/s) = 2.67509 3.02403 2.85490
# Velocity P-wave (km/s) = 5.05568 6.21847 5.66698
#
# Compressibility (1/GPa) = 0.04179101
#
# Stress axis : x y z
#
# Youngs Moduli (GPa) = 41.29265 57.02077 13.23401
#
# Poissons Ratio (x) = 0.26683 0.36463
# Poissons Ratio (y) = 0.19323 0.07320
# Poissons Ratio (z) = 1.13771 0.31541
#
# Static dielectric constant tensor:
#      x y z
#    x 3.014550 0.000000 0.000000 
#    y 0.000000 3.163670 0.000000 
#    z 0.000000 0.000000 2.605860 
# 
# 
# High freq. dielectric constant tensor:
#      x y z
#    x 1.555800 0.000000 0.000000 
#    y 0.000000 1.587630 0.000000 
#    z 0.000000 0.000000 1.499910 
# 
# From -- ./inp_files/37882.got.cif
#   From: 2010.03.12/outbox.cif.g09.slc.cpg/sg74_19_cif.got.tgz:37882.got - 2010.04.16 15:46:19.
