data_PCOD8297766
_publ_section_title
;
Structure prediction by ZEFSAII (Michael W. Deem and Ramdas Pophale) SiO2 
 PCOD8297766
Probable space group: I M M A
;
_chemical_formula_sum "Si O2"
_cell_formula_units_Z 104
_cell_length_a 9.849857
_cell_length_b 26.183314
_cell_length_c 23.000277
_cell_angle_alpha 90.000000
_cell_angle_beta 90.000000
_cell_angle_gamma 90.000000
_cell_volume 5931.815109
_symmetry_space_group_name_H-M "I M M A"
_symmetry_group_IT_number 74
_symmetry_cell_setting 'orthorhombic'
loop_
_space_group_symop_operation_xyz
x,y,z
-x,1/2-y,z
x,-y,-z
-x,1/2+y,-z
-x,-y,-z
x,1/2+y,-z
-x,y,z
x,1/2-y,z
1/2+x,1/2+y,1/2+z
1/2-x,-y,1/2+z
1/2+x,1/2-y,1/2-z
1/2-x,y,1/2-z
1/2-x,1/2-y,1/2-z
1/2+x,y,1/2-z
1/2-x,1/2+y,1/2+z
1/2+x,-y,1/2+z
loop_
_atom_site_type_symbol
_atom_site_label
_atom_site_fract_x
_atom_site_fract_y
_atom_site_fract_z
Si Si1 0.659237 0.750000 0.806427
Si Si2 0.340553 0.655613 0.886080
Si Si3 0.500000 0.810935 0.336403
Si Si4 0.500000 0.309759 0.795108
Si Si5 0.158233 0.449591 0.694284
Si Si6 0.342407 0.066750 0.194891
Si Si7 0.842203 0.807049 0.493020
Si Si8 0.224950 0.355953 0.625764
O O1 0.500000 0.750000 0.790135
O O2 0.750000 0.750000 0.750000
O O3 0.701247 0.799407 0.842891
O O4 0.500000 0.653321 0.893880
O O5 0.291435 0.601750 0.858779
O O6 0.274998 0.666716 0.949647
O O7 0.500000 0.750000 0.341017
O O8 0.500000 0.830751 0.270291
O O9 0.625163 0.834770 0.370057
O O10 0.500000 0.250000 0.794427
O O11 0.364798 0.327147 0.826772
O O12 0.250000 0.436038 0.750000
O O13 0.177238 0.508212 0.675843
O O14 0.211274 0.416256 0.639648
O O15 0.000000 0.436871 0.708063
O O16 0.500000 0.077916 0.210937
O O17 0.250000 0.080183 0.250000
O O18 0.779757 0.750000 0.482016
O O19 0.823382 0.845027 0.439247
O O20 0.000000 0.799597 0.504736
#
# Coordination Sequence:
#
# PCOD8297766 Si02
#       8
#     8  16   8   8  16  16  16  16
#     4  10  18  30  52  82 112 138 171 215 266 322
#     4   9  17  31  52  80 107 140 177 220 260 312
#     4  11  24  36  50  74 109 136 168 223 286 323
#     4  11  20  34  52  76  99 130 174 223 264 313
#     4  10  20  34  53  79 106 137 178 222 268 318
#     4   9  18  33  54  80 110 138 171 219 272 319
#     4  10  18  32  54  76 103 140 188 221 254 311
#     4  12  22  34  53  76 103 140 179 216 262 317
#
# _framework density 17.532575000000001
#
# number of rings (size 3 to 8) (size 9 to 14) (size 15 to 20)
#    0.000    1.846    2.308    3.231    1.077    1.231 
#    0.000    0.769    3.385    3.692    0.000    1.077 
#    0.000    0.000    0.000    0.000    0.000    0.000 
#
# Total GULP energy -644682.793969 kJ/mol
# GULP energy per Si atom -12397.746038 kJ/mol
# Density = 1.749267 g / cm^3
# Si number density = 17.532575 Si / 1000 Ang^3
#
#
#
# Elastic Constant Matrix: (Units=GPa)
#
#
# Indices 1 2 3 4 5 6 
#
# 1 60.8829 27.3337 13.2551 0.0000 0.0000 0.0000
# 2 27.3337 119.0482 75.3342 0.0000 0.0000 0.0000
# 3 13.2551 75.3342 112.4861 -0.0001 0.0000 0.0000
# 4 0.0000 0.0000 -0.0001 22.8343 0.0000 0.0000
# 5 0.0000 0.0000 0.0000 0.0000 22.2402 0.0000
# 6 0.0000 0.0000 0.0000 0.0000 0.0000 10.9115
#
#
#
# Elastic Compliance Matrix: (Units=1/GPa)
#
#
# Indices 1 2 3 4 5 6 
#
# 1 0.018398 -0.004950 0.001147 0.000000 0.000000 0.000000
# 2 -0.004950 0.015910 -0.010072 0.000000 0.000000 0.000000
# 3 0.001147 -0.010072 0.015500 0.000000 0.000000 0.000000
# 4 0.000000 0.000000 0.000000 0.043794 0.000000 0.000000
# 5 0.000000 0.000000 0.000000 0.000000 0.044964 0.000000
# 6 0.000000 0.000000 0.000000 0.000000 0.000000 0.091646
#
#
# Mechanical properties :
#
#
# Convention : Reuss Voigt Hill
#
# Bulk Modulus (GPa) = 45.33467 58.25149 51.79308
# Shear Modulus (GPa) = 18.84559 22.96349 20.90454
#
# Velocity S-wave (km/s) = 3.28211 3.62299 3.45675
# Velocity P-wave (km/s) = 6.34638 7.12729 6.74814
#
# Compressibility (1/GPa) = 0.02205817
#
# Stress axis : x y z
#
# Youngs Moduli (GPa) = 54.35502 62.85294 64.51509
#
# Poissons Ratio (x) = 0.31113 -0.07402
# Poissons Ratio (y) = 0.26906 0.64980
# Poissons Ratio (z) = -0.06236 0.63306
#
# Static dielectric constant tensor:
#      x y z
#    x 3.100950 0.000000 0.000000 
#    y 0.000000 3.286480 0.000000 
#    z 0.000000 0.000000 3.282920 
# 
# 
# High freq. dielectric constant tensor:
#      x y z
#    x 1.656140 0.000000 0.000000 
#    y 0.000000 1.687550 0.000000 
#    z 0.000000 0.000000 1.668760 
# 
# From -- ./inp_files/57657.got.cif
#   From: 2010.03.12/outbox.cif.g09.slc.cpg/sg74_29_cif.got.tgz:57657.got - 2010.04.16 15:46:19.
