data_PCOD8297715
_publ_section_title
;
Structure prediction by ZEFSAII (Michael W. Deem and Ramdas Pophale) SiO2 
 PCOD8297715
Probable space group: I M M A
;
_chemical_formula_sum "Si O2"
_cell_formula_units_Z 104
_cell_length_a 20.763356
_cell_length_b 9.214311
_cell_length_c 30.016286
_cell_angle_alpha 90.000000
_cell_angle_beta 90.000000
_cell_angle_gamma 90.000000
_cell_volume 5742.716425
_symmetry_space_group_name_H-M "I M M A"
_symmetry_group_IT_number 74
_symmetry_cell_setting 'orthorhombic'
loop_
_space_group_symop_operation_xyz
x,y,z
-x,1/2-y,z
x,-y,-z
-x,1/2+y,-z
-x,-y,-z
x,1/2+y,-z
-x,y,z
x,1/2-y,z
1/2+x,1/2+y,1/2+z
1/2-x,-y,1/2+z
1/2+x,1/2-y,1/2-z
1/2-x,y,1/2-z
1/2-x,1/2-y,1/2-z
1/2+x,y,1/2-z
1/2-x,1/2+y,1/2+z
1/2+x,-y,1/2+z
loop_
_atom_site_type_symbol
_atom_site_label
_atom_site_fract_x
_atom_site_fract_y
_atom_site_fract_z
Si Si1 0.773075 0.077825 0.126173
Si Si2 0.075516 0.588253 0.458552
Si Si3 0.639632 0.420315 0.452984
Si Si4 0.000000 0.585168 0.955374
Si Si5 0.311049 0.076816 0.277955
Si Si6 0.071859 0.577582 0.719967
Si Si7 0.874268 0.078226 0.374971
O O1 0.777637 0.250000 0.126557
O O2 0.810295 0.015859 0.083020
O O3 0.805697 0.018210 0.171523
O O4 0.699563 0.027023 0.124145
O O5 0.106569 0.500000 0.500000
O O6 0.106107 0.750000 0.456898
O O7 0.087908 0.502668 0.413434
O O8 0.000000 0.601867 0.465888
O O9 0.649459 0.500000 0.500000
O O10 0.651132 0.250000 0.461293
O O11 0.568066 0.449058 0.431032
O O12 0.000000 0.750000 0.970312
O O13 0.000000 0.500000 0.000000
O O14 0.310374 0.250000 0.276657
O O15 0.250000 0.018237 0.250000
O O16 0.377574 0.017195 0.256516
O O17 0.071432 0.750000 0.721592
O O18 0.094365 0.527051 0.671241
O O19 0.000000 0.516745 0.729966
O O20 0.880986 0.250000 0.382007
#
# Coordination Sequence:
#
# PCOD8297715 Si02
#       7
#    16  16  16   8  16  16  16
#     4   9  17  28  44  67  95 127 160 195 238 288
#     4  10  21  36  52  71  97 128 162 200 243 287
#     4   9  17  30  46  66  92 121 155 194 237 283
#     4   8  14  26  44  62  84 116 152 188 230 278
#     4   9  14  25  42  62  93 130 160 190 237 291
#     4   9  16  25  41  68  97 124 159 202 243 285
#     4  10  18  30  49  71  97 129 163 198 240 289
#
# _framework density 18.109895999999999
#
# number of rings (size 3 to 8) (size 9 to 14) (size 15 to 20)
#    0.000    2.769    1.538    0.923    0.000    2.154 
#    1.385    2.308    0.000    0.000    0.000    3.231 
#    0.000    0.000    0.000    0.000    0.000    0.000 
#
# Total GULP energy -644391.960838 kJ/mol
# GULP energy per Si atom -12392.153093 kJ/mol
# Density = 1.806868 g / cm^3
# Si number density = 18.109896 Si / 1000 Ang^3
#
#
#
# Elastic Constant Matrix: (Units=GPa)
#
#
# Indices 1 2 3 4 5 6 
#
# 1 120.0499 12.8387 48.2480 0.0000 0.0000 0.0000
# 2 12.8387 30.9888 20.8230 0.0000 0.0000 0.0000
# 3 48.2480 20.8230 115.4628 0.0000 0.0000 0.0000
# 4 0.0000 0.0000 0.0000 14.1511 0.0000 0.0000
# 5 0.0000 0.0000 0.0000 0.0000 33.0687 0.0000
# 6 0.0000 0.0000 0.0000 0.0000 0.0000 11.4734
#
#
#
# Elastic Compliance Matrix: (Units=1/GPa)
#
#
# Indices 1 2 3 4 5 6 
#
# 1 0.010075 -0.001531 -0.003934 0.000000 0.000000 0.000000
# 2 -0.001531 0.036952 -0.006024 0.000000 0.000000 0.000000
# 3 -0.003934 -0.006024 0.011391 0.000000 0.000000 0.000000
# 4 0.000000 0.000000 0.000000 0.070666 0.000000 0.000000
# 5 0.000000 0.000000 0.000000 0.000000 0.030240 0.000000
# 6 0.000000 0.000000 0.000000 0.000000 0.000000 0.087158
#
#
# Mechanical properties :
#
#
# Convention : Reuss Voigt Hill
#
# Bulk Modulus (GPa) = 28.21673 47.81341 38.01507
# Shear Modulus (GPa) = 17.77634 24.04476 20.91055
#
# Velocity S-wave (km/s) = 3.13642 3.64773 3.40170
# Velocity P-wave (km/s) = 5.36011 6.64834 6.03868
#
# Compressibility (1/GPa) = 0.03543997
#
# Stress axis : x y z
#
# Youngs Moduli (GPa) = 99.26012 27.06209 87.78814
#
# Poissons Ratio (x) = 0.04142 0.34534
# Poissons Ratio (y) = 0.15193 0.52888
# Poissons Ratio (z) = 0.39047 0.16304
#
# Static dielectric constant tensor:
#      x y z
#    x 6.883440 0.000000 0.000000 
#    y 0.000000 2.907720 0.000000 
#    z 0.000000 0.000000 3.390060 
# 
# 
# High freq. dielectric constant tensor:
#      x y z
#    x 1.710990 0.000000 0.000000 
#    y 0.000000 1.645420 0.000000 
#    z 0.000000 0.000000 1.699650 
# 
# From -- ./inp_files/73352.got.cif
#   From: 2010.03.12/outbox.cif.g09.slc.cpg/sg74_37_cif.got.tgz:73352.got - 2010.04.16 15:46:19.
