data_PCOD8297337
_publ_section_title
;
Structure prediction by ZEFSAII (Michael W. Deem and Ramdas Pophale) SiO2 
 PCOD8297337
Probable space group: I M M A
;
_chemical_formula_sum "Si O2"
_cell_formula_units_Z 104
_cell_length_a 15.180165
_cell_length_b 20.178872
_cell_length_c 19.162444
_cell_angle_alpha 90.000000
_cell_angle_beta 90.000000
_cell_angle_gamma 90.000000
_cell_volume 5869.813143
_symmetry_space_group_name_H-M "I M M A"
_symmetry_group_IT_number 74
_symmetry_cell_setting 'orthorhombic'
loop_
_space_group_symop_operation_xyz
x,y,z
-x,1/2-y,z
x,-y,-z
-x,1/2+y,-z
-x,-y,-z
x,1/2+y,-z
-x,y,z
x,1/2-y,z
1/2+x,1/2+y,1/2+z
1/2-x,-y,1/2+z
1/2+x,1/2-y,1/2-z
1/2-x,y,1/2-z
1/2-x,1/2-y,1/2-z
1/2+x,y,1/2-z
1/2-x,1/2+y,1/2+z
1/2+x,-y,1/2+z
loop_
_atom_site_type_symbol
_atom_site_label
_atom_site_fract_x
_atom_site_fract_y
_atom_site_fract_z
Si Si1 0.500000 0.585341 0.219310
Si Si2 0.401834 0.098543 0.545485
Si Si3 0.332006 0.173629 0.796121
Si Si4 0.269424 0.174528 0.951261
Si Si5 0.140674 0.040020 0.100956
Si Si6 0.500000 0.955141 0.709776
Si Si7 0.674764 0.438252 0.051820
Si Si8 0.000000 0.460388 0.363714
O O1 0.585111 0.630488 0.225201
O O2 0.500000 0.535351 0.284737
O O3 0.500000 0.540371 0.147963
O O4 0.500000 0.122701 0.565200
O O5 0.334374 0.158882 0.555602
O O6 0.401713 0.074987 0.465742
O O7 0.371500 0.038816 0.595272
O O8 0.352715 0.250000 0.779173
O O9 0.250000 0.148814 0.750000
O O10 0.314644 0.162596 0.877300
O O11 0.280098 0.250000 0.976021
O O12 0.318547 0.129016 0.007678
O O13 0.088485 0.066788 0.168782
O O14 0.244390 0.057163 0.106771
O O15 0.500000 0.923749 0.787823
O O16 0.584554 0.437629 0.093502
O O17 0.682264 0.500000 0.000000
#
# Coordination Sequence:
#
# PCOD8297337 Si02
#       8
#     8  16  16  16  16   8  16   8
#     4  10  23  33  54  78 107 142 189 231 274 319
#     4  10  17  29  55  80 114 146 179 221 280 333
#     4  10  22  39  53  72 112 156 190 224 267 329
#     4  10  22  36  55  83 108 146 194 228 273 330
#     4  10  17  32  54  83 111 150 175 221 288 342
#     4  10  22  31  52  87 117 134 186 230 278 349
#     4  11  20  37  59  77 110 149 182 236 286 328
#     4  10  25  35  49  87 106 136 187 243 287 323
#
# _framework density 17.717770000000002
#
# number of rings (size 3 to 8) (size 9 to 14) (size 15 to 20)
#    0.462    1.385    4.615    1.846    2.154    1.538 
#    0.000    1.154    0.000    0.000    0.000   12.923 
#    0.000    0.000    0.000    0.000    0.000    0.000 
#
# Total GULP energy -644661.129206 kJ/mol
# GULP energy per Si atom -12397.329408 kJ/mol
# Density = 1.767744 g / cm^3
# Si number density = 17.717770 Si / 1000 Ang^3
#
#
#
# Elastic Constant Matrix: (Units=GPa)
#
#
# Indices 1 2 3 4 5 6 
#
# 1 133.5216 24.0875 34.5162 0.0000 0.0000 0.0000
# 2 24.0875 62.0166 16.9351 0.0000 0.0000 0.0000
# 3 34.5162 16.9351 51.7945 0.0000 0.0000 0.0000
# 4 0.0000 0.0000 0.0000 19.9373 0.0000 0.0000
# 5 0.0000 0.0000 0.0000 0.0000 26.2496 0.0000
# 6 0.0000 0.0000 0.0000 0.0000 0.0000 23.3853
#
#
#
# Elastic Compliance Matrix: (Units=1/GPa)
#
#
# Indices 1 2 3 4 5 6 
#
# 1 0.009292 -0.002106 -0.005504 0.000000 0.000000 0.000000
# 2 -0.002106 0.018183 -0.004542 0.000000 0.000000 0.000000
# 3 -0.005504 -0.004542 0.024460 0.000000 0.000000 0.000000
# 4 0.000000 0.000000 0.000000 0.050157 0.000000 0.000000
# 5 0.000000 0.000000 0.000000 0.000000 0.038096 0.000000
# 6 0.000000 0.000000 0.000000 0.000000 0.000000 0.042762
#
#
# Mechanical properties :
#
#
# Convention : Reuss Voigt Hill
#
# Bulk Modulus (GPa) = 36.19024 44.26783 40.22903
# Shear Modulus (GPa) = 23.09859 25.36737 24.23298
#
# Velocity S-wave (km/s) = 3.61459 3.78795 3.70228
# Velocity P-wave (km/s) = 6.15554 6.64610 6.40552
#
# Compressibility (1/GPa) = 0.02763176
#
# Stress axis : x y z
#
# Youngs Moduli (GPa) = 107.61805 54.99649 40.88353
#
# Poissons Ratio (x) = 0.11583 0.22501
# Poissons Ratio (y) = 0.22666 0.18568
# Poissons Ratio (z) = 0.59230 0.24978
#
# Static dielectric constant tensor:
#      x y z
#    x 3.467930 0.000000 0.000000 
#    y 0.000000 3.056800 0.000000 
#    z 0.000000 0.000000 3.200710 
# 
# 
# High freq. dielectric constant tensor:
#      x y z
#    x 1.698940 0.000000 0.000000 
#    y 0.000000 1.652880 0.000000 
#    z 0.000000 0.000000 1.677170 
# 
# From -- ./inp_files/52166.got.cif
#   From: 2010.03.12/outbox.cif.g09.slc.cpg/sg74_27_cif.got.tgz:52166.got - 2010.04.16 15:46:19.
