data_PCOD8297474
_publ_section_title
;
Structure prediction by ZEFSAII (Michael W. Deem and Ramdas Pophale) SiO2 
 PCOD8297474
Probable space group: I M M A
;
_chemical_formula_sum "Si O2"
_cell_formula_units_Z 72
_cell_length_a 8.818252
_cell_length_b 32.251637
_cell_length_c 18.094298
_cell_angle_alpha 90.000000
_cell_angle_beta 90.000000
_cell_angle_gamma 90.000000
_cell_volume 5146.073765
_symmetry_space_group_name_H-M "I M M A"
_symmetry_group_IT_number 74
_symmetry_cell_setting 'orthorhombic'
loop_
_space_group_symop_operation_xyz
x,y,z
-x,1/2-y,z
x,-y,-z
-x,1/2+y,-z
-x,-y,-z
x,1/2+y,-z
-x,y,z
x,1/2-y,z
1/2+x,1/2+y,1/2+z
1/2-x,-y,1/2+z
1/2+x,1/2-y,1/2-z
1/2-x,y,1/2-z
1/2-x,1/2-y,1/2-z
1/2+x,y,1/2-z
1/2-x,1/2+y,1/2+z
1/2+x,-y,1/2+z
loop_
_atom_site_type_symbol
_atom_site_label
_atom_site_fract_x
_atom_site_fract_y
_atom_site_fract_z
Si Si1 0.320908 0.660100 0.831203
Si Si2 0.325670 0.250000 0.172326
Si Si3 0.333362 0.040351 0.549795
Si Si4 0.821706 0.494204 0.327864
Si Si5 0.320291 0.083674 0.407345
O O1 0.500000 0.651483 0.825886
O O2 0.250000 0.655110 0.750000
O O3 0.284862 0.706040 0.866684
O O4 0.243457 0.628391 0.886956
O O5 0.500000 0.250000 0.190948
O O6 0.250000 0.250000 0.250000
O O7 0.500000 0.050769 0.582958
O O8 0.216305 0.032067 0.616135
O O9 0.277740 0.076580 0.493985
O O10 0.347487 0.000000 0.500000
O O11 0.750000 0.506223 0.250000
O O12 0.754162 0.450746 0.354996
O O13 0.000000 0.489497 0.320277
O O14 0.500000 0.081364 0.395428
#
# Coordination Sequence:
#
# PCOD8297474 Si02
#       5
#    16   8  16  16  16
#     4  10  18  28  41  57  77 101 132 165 197 231
#     4   8  16  28  40  54  74 100 127 160 197 230
#     4   8  16  30  43  55  75 100 125 157 196 232
#     4  11  20  29  42  58  77 101 131 163 194 229
#     4  10  19  30  42  57  78 102 129 162 198 231
#
# _framework density 13.991249
#
# number of rings (size 3 to 8) (size 9 to 14) (size 15 to 20)
#    0.000    2.444    0.000    5.333    0.000    5.778 
#    0.000    0.000    0.000    0.000    0.000    0.000 
#    0.000    0.000    0.000    1.000    0.000   12.889 
#
# Total GULP energy -446047.621016 kJ/mol
# GULP energy per Si atom -12390.211695 kJ/mol
# Density = 1.395940 g / cm^3
# Si number density = 13.991249 Si / 1000 Ang^3
#
#
#
# Elastic Constant Matrix: (Units=GPa)
#
#
# Indices 1 2 3 4 5 6 
#
# 1 93.1697 43.6742 46.0955 0.0000 0.0000 0.0000
# 2 43.6742 98.9004 51.1620 0.0001 0.0000 0.0000
# 3 46.0955 51.1620 77.0932 0.0000 0.0000 -0.0001
# 4 0.0000 0.0001 0.0000 18.4541 0.0000 0.0000
# 5 0.0000 0.0000 0.0000 0.0000 20.3774 0.0000
# 6 0.0000 0.0000 -0.0001 0.0000 0.0000 12.5420
#
#
#
# Elastic Compliance Matrix: (Units=1/GPa)
#
#
# Indices 1 2 3 4 5 6 
#
# 1 0.015880 -0.003199 -0.007372 0.000000 0.000000 0.000000
# 2 -0.003199 0.016042 -0.008733 0.000000 0.000000 0.000000
# 3 -0.007372 -0.008733 0.023175 0.000000 0.000000 0.000000
# 4 0.000000 0.000000 0.000000 0.054188 0.000000 0.000000
# 5 0.000000 0.000000 0.000000 0.000000 0.049074 0.000000
# 6 0.000000 0.000000 0.000000 0.000000 0.000000 0.079732
#
#
# Mechanical properties :
#
#
# Convention : Reuss Voigt Hill
#
# Bulk Modulus (GPa) = 60.64928 61.22518 60.93723
# Shear Modulus (GPa) = 17.71825 18.82346 18.27086
#
# Velocity S-wave (km/s) = 3.56249 3.67191 3.61761
# Velocity P-wave (km/s) = 7.76942 7.86333 7.81651
#
# Compressibility (1/GPa) = 0.01648824
#
# Stress axis : x y z
#
# Youngs Moduli (GPa) = 62.97262 62.33822 43.15043
#
# Poissons Ratio (x) = 0.19942 0.31810
# Poissons Ratio (y) = 0.20145 0.37683
# Poissons Ratio (z) = 0.46423 0.54440
#
# Static dielectric constant tensor:
#      x y z
#    x 2.852960 -0.000100 0.000000 
#    y -0.000100 -84.123520 -0.000010 
#    z 0.000000 -0.000010 2.751640 
# 
# 
# High freq. dielectric constant tensor:
#      x y z
#    x 1.550590 0.000000 0.000000 
#    y 0.000000 1.514170 0.000000 
#    z 0.000000 0.000000 1.503840 
# 
# From -- ./inp_files/48921.got.cif
#   From: 2010.03.12/outbox.cif.g09.slc.cpg/sg74_25_cif.got.tgz:48921.got - 2010.04.16 15:46:19.
