data_PCOD8297970
_publ_section_title
;
Structure prediction by ZEFSAII (Michael W. Deem and Ramdas Pophale) SiO2 
 PCOD8297970
Probable space group: I M M A
;
_chemical_formula_sum "Si O2"
_cell_formula_units_Z 72
_cell_length_a 17.979211
_cell_length_b 7.793952
_cell_length_c 28.196922
_cell_angle_alpha 90.000000
_cell_angle_beta 90.000000
_cell_angle_gamma 90.000000
_cell_volume 3951.209515
_symmetry_space_group_name_H-M "I M M A"
_symmetry_group_IT_number 74
_symmetry_cell_setting 'orthorhombic'
loop_
_space_group_symop_operation_xyz
x,y,z
-x,1/2-y,z
x,-y,-z
-x,1/2+y,-z
-x,-y,-z
x,1/2+y,-z
-x,y,z
x,1/2-y,z
1/2+x,1/2+y,1/2+z
1/2-x,-y,1/2+z
1/2+x,1/2-y,1/2-z
1/2-x,y,1/2-z
1/2-x,1/2-y,1/2-z
1/2+x,y,1/2-z
1/2-x,1/2+y,1/2+z
1/2+x,-y,1/2+z
loop_
_atom_site_type_symbol
_atom_site_label
_atom_site_fract_x
_atom_site_fract_y
_atom_site_fract_z
Si Si1 0.416291 0.750000 0.760290
Si Si2 0.287562 0.750000 0.698666
Si Si3 0.262581 0.559219 0.133866
Si Si4 0.416906 0.055150 0.831118
Si Si5 0.340414 0.445873 0.445536
Si Si6 0.500000 0.049340 0.554437
O O1 0.500000 0.750000 0.744334
O O2 0.374774 0.750000 0.710025
O O3 0.396483 0.578782 0.789860
O O4 0.250000 0.750000 0.750000
O O5 0.269612 0.579515 0.669808
O O6 0.247261 0.750000 0.154386
O O7 0.352580 0.533257 0.128785
O O8 0.222767 0.548286 0.082919
O O9 0.500000 0.014530 0.851815
O O10 0.415461 0.250000 0.810770
O O11 0.338060 0.500000 0.500000
O O12 0.319027 0.250000 0.440117
O O13 0.423240 0.476247 0.423409
O O14 0.500000 0.250000 0.561703
O O15 0.500000 0.000000 0.500000
#
# Coordination Sequence:
#
# PCOD8297970 Si02
#       6
#     8   8  16  16  16   8
#     4  10  20  36  56  76 110 150 192 232 280 332
#     4  12  22  38  56  84 118 150 192 238 283 339
#     4  11  22  37  57  84 115 149 191 232 288 341
#     4   9  18  33  56  82 107 143 190 233 275 335
#     4  11  21  37  59  83 113 147 190 238 283 336
#     4  10  18  32  54  82 110 146 194 229 279 336
#
# _framework density 18.222269000000001
#
# number of rings (size 3 to 8) (size 9 to 14) (size 15 to 20)
#    0.000    1.556    3.333    4.333    0.000    1.333 
#    2.000    0.000    0.000    0.667    0.000    0.000 
#    0.000    0.000    0.000    0.000    0.000    0.000 
#
# Total GULP energy -446057.308172 kJ/mol
# GULP energy per Si atom -12390.480783 kJ/mol
# Density = 1.818079 g / cm^3
# Si number density = 18.222269 Si / 1000 Ang^3
#
#
#
# Elastic Constant Matrix: (Units=GPa)
#
#
# Indices 1 2 3 4 5 6 
#
# 1 161.3272 49.6064 61.6359 0.0000 0.0000 0.0000
# 2 49.6064 123.4074 31.2219 0.0000 0.0000 0.0000
# 3 61.6359 31.2219 69.3358 0.0000 0.0000 0.0000
# 4 0.0000 0.0000 0.0000 20.0685 0.0000 0.0000
# 5 0.0000 0.0000 0.0000 0.0000 33.2335 0.0000
# 6 0.0000 0.0000 0.0000 0.0000 0.0000 25.9642
#
#
#
# Elastic Compliance Matrix: (Units=1/GPa)
#
#
# Indices 1 2 3 4 5 6 
#
# 1 0.009788 -0.001956 -0.007820 0.000000 0.000000 0.000000
# 2 -0.001956 0.009536 -0.002555 0.000000 0.000000 0.000000
# 3 -0.007820 -0.002555 0.022525 0.000000 0.000000 0.000000
# 4 0.000000 0.000000 0.000000 0.049829 0.000000 0.000000
# 5 0.000000 0.000000 0.000000 0.000000 0.030090 0.000000
# 6 0.000000 0.000000 0.000000 0.000000 0.000000 0.038515
#
#
# Mechanical properties :
#
#
# Convention : Reuss Voigt Hill
#
# Bulk Modulus (GPa) = 58.18704 70.99986 64.59345
# Shear Modulus (GPa) = 26.22284 29.96032 28.09158
#
# Velocity S-wave (km/s) = 3.79760 4.05922 3.93059
# Velocity P-wave (km/s) = 7.15753 7.81137 7.49159
#
# Compressibility (1/GPa) = 0.01718596
#
# Stress axis : x y z
#
# Youngs Moduli (GPa) = 102.16929 104.86613 44.39550
#
# Poissons Ratio (x) = 0.20511 0.34717
# Poissons Ratio (y) = 0.19984 0.11345
# Poissons Ratio (z) = 0.79896 0.26797
#
# Static dielectric constant tensor:
#      x y z
#    x 4.122870 0.000000 0.000000 
#    y 0.000000 3.673420 0.000000 
#    z 0.000000 0.000000 4.382640 
# 
# 
# High freq. dielectric constant tensor:
#      x y z
#    x 1.728090 0.000000 0.000000 
#    y 0.000000 1.733390 0.000000 
#    z 0.000000 0.000000 1.650440 
# 
# From -- ./inp_files/67488.got.cif
#   From: 2010.03.12/outbox.cif.g09.slc.cpg/sg74_34_cif.got.tgz:67488.got - 2010.04.16 15:46:19.
