data_PCOD8297498
_publ_section_title
;
Structure prediction by ZEFSAII (Michael W. Deem and Ramdas Pophale) SiO2 
 PCOD8297498
Probable space group: I M M A
;
_chemical_formula_sum "Si O2"
_cell_formula_units_Z 80
_cell_length_a 19.219364
_cell_length_b 10.221127
_cell_length_c 25.592164
_cell_angle_alpha 90.000000
_cell_angle_beta 90.000000
_cell_angle_gamma 90.000000
_cell_volume 5027.415812
_symmetry_space_group_name_H-M "I M M A"
_symmetry_group_IT_number 74
_symmetry_cell_setting 'orthorhombic'
loop_
_space_group_symop_operation_xyz
x,y,z
-x,1/2-y,z
x,-y,-z
-x,1/2+y,-z
-x,-y,-z
x,1/2+y,-z
-x,y,z
x,1/2-y,z
1/2+x,1/2+y,1/2+z
1/2-x,-y,1/2+z
1/2+x,1/2-y,1/2-z
1/2-x,y,1/2-z
1/2-x,1/2-y,1/2-z
1/2+x,y,1/2-z
1/2-x,1/2+y,1/2+z
1/2+x,-y,1/2+z
loop_
_atom_site_type_symbol
_atom_site_label
_atom_site_fract_x
_atom_site_fract_y
_atom_site_fract_z
Si Si1 0.423674 0.250000 0.202199
Si Si2 0.726865 0.750000 0.338825
Si Si3 0.852871 0.250000 0.728785
Si Si4 0.733121 0.250000 0.187239
Si Si5 0.923774 0.510554 0.233374
Si Si6 0.078943 0.898968 0.954032
Si Si7 0.822667 0.978158 0.861076
O O1 0.500000 0.250000 0.171178
O O2 0.349623 0.250000 0.171755
O O3 0.422222 0.373120 0.239111
O O4 0.807505 0.750000 0.323487
O O5 0.687261 0.750000 0.283732
O O6 0.711305 0.620199 0.373268
O O7 0.898536 0.380667 0.725649
O O8 0.750000 0.250000 0.250000
O O9 0.764667 0.121175 0.160497
O O10 0.878574 0.504217 0.182501
O O11 0.000000 0.549214 0.214058
O O12 0.085844 0.750000 0.974815
O O13 0.137523 0.920230 0.910534
O O14 0.000000 0.921832 0.932523
O O15 0.094984 0.000000 0.000000
#
# Coordination Sequence:
#
# PCOD8297498 Si02
#       7
#     8   8   8   8  16  16  16
#     4  10  20  30  44  68  99 135 167 205 256 304
#     4   9  20  28  45  62  93 122 164 210 252 293
#     4   9  17  30  40  60  89 131 164 202 245 294
#     4  12  20  32  51  74 104 137 177 223 266 314
#     4  10  18  28  43  65  95 129 173 213 243 294
#     4  10  22  39  56  75 102 137 177 226 276 314
#     4  11  20  33  50  74  96 134 179 219 260 319
#
# _framework density 15.912747
#
# number of rings (size 3 to 8) (size 9 to 14) (size 15 to 20)
#    0.000    1.800    3.000    2.100    4.200    0.000 
#    0.000    1.000    0.000    0.000    0.000    0.000 
#    0.000    0.800    0.000    0.800    0.000    0.000 
#
# Total GULP energy -495611.355612 kJ/mol
# GULP energy per Si atom -12390.283890 kJ/mol
# Density = 1.587653 g / cm^3
# Si number density = 15.912747 Si / 1000 Ang^3
#
#
#
# Elastic Constant Matrix: (Units=GPa)
#
#
# Indices 1 2 3 4 5 6 
#
# 1 118.8904 48.4602 37.0026 0.0000 0.0000 0.0000
# 2 48.4602 140.1332 34.6316 0.0000 0.0000 0.0000
# 3 37.0026 34.6316 45.9888 0.0000 0.0000 0.0000
# 4 0.0000 0.0000 0.0000 3.4016 0.0000 0.0000
# 5 0.0000 0.0000 0.0000 0.0000 22.2851 0.0000
# 6 0.0000 0.0000 0.0000 0.0000 0.0000 30.1981
#
#
#
# Elastic Compliance Matrix: (Units=1/GPa)
#
#
# Indices 1 2 3 4 5 6 
#
# 1 0.011710 -0.002115 -0.007829 0.000000 0.000000 0.000000
# 2 -0.002115 0.009150 -0.005189 0.000000 0.000000 0.000000
# 3 -0.007829 -0.005189 0.031951 0.000000 0.000000 0.000000
# 4 0.000000 0.000000 0.000000 0.293978 0.000000 0.000000
# 5 0.000000 0.000000 0.000000 0.000000 0.044873 0.000000
# 6 0.000000 0.000000 0.000000 0.000000 0.000000 0.033115
#
#
# Mechanical properties :
#
#
# Convention : Reuss Voigt Hill
#
# Bulk Modulus (GPa) = 44.35483 60.57790 52.46636
# Shear Modulus (GPa) = 10.80948 23.50484 17.15716
#
# Velocity S-wave (km/s) = 2.60916 3.84749 3.28716
# Velocity P-wave (km/s) = 6.08369 7.60848 6.88840
#
# Compressibility (1/GPa) = 0.02254546
#
# Stress axis : x y z
#
# Youngs Moduli (GPa) = 85.39905 109.29432 31.29767
#
# Poissons Ratio (x) = 0.23110 0.24504
# Poissons Ratio (y) = 0.18058 0.16240
# Poissons Ratio (z) = 0.66862 0.56710
#
# Static dielectric constant tensor:
#      x y z
#    x 3.611450 0.000000 0.000000 
#    y 0.000000 3.617500 0.000000 
#    z 0.000000 0.000000 2.499880 
# 
# 
# High freq. dielectric constant tensor:
#      x y z
#    x 1.618540 0.000000 0.000000 
#    y 0.000000 1.642740 0.000000 
#    z 0.000000 0.000000 1.545030 
# 
# From -- ./inp_files/68075.got.cif
#   From: 2010.03.12/outbox.cif.g09.slc.cpg/sg74_35_cif.got.tgz:68075.got - 2010.04.16 15:46:19.
