data_PCOD8297910
_publ_section_title
;
Structure prediction by ZEFSAII (Michael W. Deem and Ramdas Pophale) SiO2 
 PCOD8297910
Probable space group: I M M A
;
_chemical_formula_sum "Si O2"
_cell_formula_units_Z 88
_cell_length_a 21.822057
_cell_length_b 8.821040
_cell_length_c 25.074794
_cell_angle_alpha 90.000000
_cell_angle_beta 90.000000
_cell_angle_gamma 90.000000
_cell_volume 4826.728281
_symmetry_space_group_name_H-M "I M M A"
_symmetry_group_IT_number 74
_symmetry_cell_setting 'orthorhombic'
loop_
_space_group_symop_operation_xyz
x,y,z
-x,1/2-y,z
x,-y,-z
-x,1/2+y,-z
-x,-y,-z
x,1/2+y,-z
-x,y,z
x,1/2-y,z
1/2+x,1/2+y,1/2+z
1/2-x,-y,1/2+z
1/2+x,1/2-y,1/2-z
1/2-x,y,1/2-z
1/2-x,1/2-y,1/2-z
1/2+x,y,1/2-z
1/2-x,1/2+y,1/2+z
1/2+x,-y,1/2+z
loop_
_atom_site_type_symbol
_atom_site_label
_atom_site_fract_x
_atom_site_fract_y
_atom_site_fract_z
Si Si1 0.154638 0.575599 0.652695
Si Si2 0.879600 0.927753 0.057157
Si Si3 0.177853 0.918814 0.241697
Si Si4 0.797935 0.577183 0.862531
Si Si5 0.929706 0.928570 0.555786
Si Si6 0.500000 0.069537 0.440993
O O1 0.138124 0.750000 0.663974
O O2 0.141759 0.482319 0.706764
O O3 0.225364 0.556341 0.638111
O O4 0.112649 0.511478 0.604447
O O5 0.890016 0.750000 0.051234
O O6 0.820036 0.964347 0.091578
O O7 0.938507 0.004902 0.086574
O O8 0.868423 0.000000 0.000000
O O9 0.152604 0.750000 0.229454
O O10 0.250000 0.911758 0.250000
O O11 0.167627 0.030462 0.191991
O O12 0.815893 0.750000 0.875172
O O13 0.922335 0.750000 0.549945
O O14 0.000000 0.975405 0.567729
O O15 0.907201 0.000000 0.500000
O O16 0.500000 0.250000 0.441498
O O17 0.500000 0.000000 0.500000
#
# Coordination Sequence:
#
# PCOD8297910 Si02
#       6
#    16  16  16  16  16   8
#     4   9  18  32  51  74 100 132 168 209 258 309
#     4  11  21  34  51  73 101 133 169 208 250 298
#     4   9  17  30  49  73  98 127 164 204 249 304
#     4  10  19  32  50  74 103 133 167 210 258 308
#     4   9  18  33  52  74 101 134 172 212 255 308
#     4  10  18  32  52  72  94 126 166 200 237 286
#
# _framework density 18.231811
#
# number of rings (size 3 to 8) (size 9 to 14) (size 15 to 20)
#    0.000    2.364    0.000    4.636    0.000    4.364 
#    0.000    1.818    2.000    0.000    0.000    0.000 
#    0.000    0.000    0.000    0.000    0.000    0.000 
#
# Total GULP energy -545470.887384 kJ/mol
# GULP energy per Si atom -12397.065622 kJ/mol
# Density = 1.819031 g / cm^3
# Si number density = 18.231811 Si / 1000 Ang^3
#
#
#
# Elastic Constant Matrix: (Units=GPa)
#
#
# Indices 1 2 3 4 5 6 
#
# 1 52.8040 32.3166 49.9634 0.0000 0.0000 0.0000
# 2 32.3166 112.0237 41.2063 0.0000 0.0000 0.0000
# 3 49.9634 41.2063 117.8182 0.0000 0.0000 0.0000
# 4 0.0000 0.0000 0.0000 33.7865 0.0000 0.0000
# 5 0.0000 0.0000 0.0000 0.0000 24.5450 0.0000
# 6 0.0000 0.0000 0.0000 0.0000 0.0000 23.5315
#
#
#
# Elastic Compliance Matrix: (Units=1/GPa)
#
#
# Indices 1 2 3 4 5 6 
#
# 1 0.034061 -0.005179 -0.012633 0.000000 0.000000 0.000000
# 2 -0.005179 0.011032 -0.001662 0.000000 0.000000 0.000000
# 3 -0.012633 -0.001662 0.014426 0.000000 0.000000 0.000000
# 4 0.000000 0.000000 0.000000 0.029598 0.000000 0.000000
# 5 0.000000 0.000000 0.000000 0.000000 0.040741 0.000000
# 6 0.000000 0.000000 0.000000 0.000000 0.000000 0.042496
#
#
# Mechanical properties :
#
#
# Convention : Reuss Voigt Hill
#
# Bulk Modulus (GPa) = 48.61201 58.84651 53.72926
# Shear Modulus (GPa) = 22.91897 26.98324 24.95111
#
# Velocity S-wave (km/s) = 3.54939 3.85126 3.70340
# Velocity P-wave (km/s) = 6.59687 7.21964 6.91527
#
# Compressibility (1/GPa) = 0.02057105
#
# Stress axis : x y z
#
# Youngs Moduli (GPa) = 29.35914 90.64432 69.31808
#
# Poissons Ratio (x) = 0.46945 0.87569
# Poissons Ratio (y) = 0.15205 0.11522
# Poissons Ratio (z) = 0.37089 0.15066
#
# Static dielectric constant tensor:
#      x y z
#    x 3.522820 0.000000 0.000000 
#    y 0.000000 3.457920 0.000000 
#    z 0.000000 0.000000 3.361400 
# 
# 
# High freq. dielectric constant tensor:
#      x y z
#    x 1.684340 0.000000 0.000000 
#    y 0.000000 1.715640 0.000000 
#    z 0.000000 0.000000 1.698900 
# 
# From -- ./inp_files/61455.got.cif
#   From: 2010.03.12/outbox.cif.g09.slc.cpg/sg74_31_cif.got.tgz:61455.got - 2010.04.16 15:46:19.
