data_PCOD8297123
_publ_section_title
;
Structure prediction by ZEFSAII (Michael W. Deem and Ramdas Pophale) SiO2 
 PCOD8297123
Probable space group: I M M A
;
_chemical_formula_sum "Si O2"
_cell_formula_units_Z 80
_cell_length_a 7.828283
_cell_length_b 20.511062
_cell_length_c 28.085987
_cell_angle_alpha 90.000000
_cell_angle_beta 90.000000
_cell_angle_gamma 90.000000
_cell_volume 4509.665766
_symmetry_space_group_name_H-M "I M M A"
_symmetry_group_IT_number 74
_symmetry_cell_setting 'orthorhombic'
loop_
_space_group_symop_operation_xyz
x,y,z
-x,1/2-y,z
x,-y,-z
-x,1/2+y,-z
-x,-y,-z
x,1/2+y,-z
-x,y,z
x,1/2-y,z
1/2+x,1/2+y,1/2+z
1/2-x,-y,1/2+z
1/2+x,1/2-y,1/2-z
1/2-x,y,1/2-z
1/2-x,1/2-y,1/2-z
1/2+x,y,1/2-z
1/2-x,1/2+y,1/2+z
1/2+x,-y,1/2+z
loop_
_atom_site_type_symbol
_atom_site_label
_atom_site_fract_x
_atom_site_fract_y
_atom_site_fract_z
Si Si1 0.805267 0.367868 0.598503
Si Si2 0.310360 0.474901 0.300257
Si Si3 0.803332 0.882629 0.297917
Si Si4 0.310283 0.522077 0.900781
Si Si5 0.500000 0.676791 0.465516
Si Si6 0.500000 0.440182 0.463820
O O1 0.770073 0.343551 0.652963
O O2 0.773929 0.445156 0.596120
O O3 0.671591 0.332053 0.565102
O O4 0.000000 0.350564 0.583152
O O5 0.500000 0.450005 0.310639
O O6 0.250000 0.443547 0.250000
O O7 0.312315 0.552988 0.296147
O O8 0.197501 0.453830 0.345830
O O9 0.750000 0.841650 0.250000
O O10 0.000000 0.904597 0.297162
O O11 0.500000 0.538345 0.920302
O O12 0.170704 0.558790 0.932294
O O13 0.500000 0.750000 0.485688
O O14 0.500000 0.628221 0.509529
O O15 0.500000 0.500000 0.500000
#
# Coordination Sequence:
#
# PCOD8297123 Si02
#       6
#    16  16  16  16   8   8
#     4   9  19  34  53  78 106 137 181 226 270 322
#     4  10  16  24  41  71 114 150 171 206 261 322
#     4   9  16  24  41  72 100 134 177 219 268 318
#     4  10  19  33  54  82 112 141 180 225 271 322
#     4  12  26  40  58  78 104 142 184 228 281 328
#     4  12  22  38  58  82 106 140 186 234 274 323
#
# _framework density 17.739673
#
# number of rings (size 3 to 8) (size 9 to 14) (size 15 to 20)
#    0.000    2.000    3.000    4.800    5.600    1.600 
#    0.000    0.000    0.000    0.600    0.000    0.000 
#    0.000    0.800    0.000    0.000    0.000    0.000 
#
# Total GULP energy -495692.678053 kJ/mol
# GULP energy per Si atom -12392.316951 kJ/mol
# Density = 1.769930 g / cm^3
# Si number density = 17.739673 Si / 1000 Ang^3
#
#
#
# Elastic Constant Matrix: (Units=GPa)
#
#
# Indices 1 2 3 4 5 6 
#
# 1 119.3573 31.1035 51.5065 0.0000 0.0000 0.0000
# 2 31.1035 55.3469 43.7690 0.0000 0.0000 0.0000
# 3 51.5065 43.7690 117.9726 0.0000 0.0000 0.0000
# 4 0.0000 0.0000 0.0000 8.1592 0.0000 0.0000
# 5 0.0000 0.0000 0.0000 0.0000 31.5503 0.0000
# 6 0.0000 0.0000 0.0000 0.0000 0.0000 6.5238
#
#
#
# Elastic Compliance Matrix: (Units=1/GPa)
#
#
# Indices 1 2 3 4 5 6 
#
# 1 0.010731 -0.003291 -0.003464 0.000000 0.000000 0.000000
# 2 -0.003291 0.026579 -0.008424 0.000000 0.000000 0.000000
# 3 -0.003464 -0.008424 0.013114 0.000000 0.000000 0.000000
# 4 0.000000 0.000000 0.000000 0.122561 0.000000 0.000000
# 5 0.000000 0.000000 0.000000 0.000000 0.031695 0.000000
# 6 0.000000 0.000000 0.000000 0.000000 0.000000 0.153285
#
#
# Mechanical properties :
#
#
# Convention : Reuss Voigt Hill
#
# Bulk Modulus (GPa) = 49.83605 60.60385 55.21995
# Shear Modulus (GPa) = 12.65781 20.33318 16.49550
#
# Velocity S-wave (km/s) = 2.67410 3.38923 3.05268
# Velocity P-wave (km/s) = 6.13909 7.03938 6.60459
#
# Compressibility (1/GPa) = 0.02006580
#
# Stress axis : x y z
#
# Youngs Moduli (GPa) = 93.19125 37.62309 76.25183
#
# Poissons Ratio (x) = 0.12382 0.26413
# Poissons Ratio (y) = 0.30669 0.64238
# Poissons Ratio (z) = 0.32281 0.31695
#
# Static dielectric constant tensor:
#      x y z
#    x 3.419350 0.000000 0.000000 
#    y 0.000000 2.550570 0.000000 
#    z 0.000000 0.000000 3.647410 
# 
# 
# High freq. dielectric constant tensor:
#      x y z
#    x 1.708860 0.000000 0.000000 
#    y 0.000000 1.586650 0.000000 
#    z 0.000000 0.000000 1.700480 
# 
# From -- ./inp_files/56864.got.cif
#   From: 2010.03.12/outbox.cif.g09.slc.cpg/sg74_29_cif.got.tgz:56864.got - 2010.04.16 15:46:19.
