data_PCOD8298619
_publ_section_title
;
Structure prediction by ZEFSAII (Michael W. Deem and Ramdas Pophale) SiO2 
 PCOD8298619
Probable space group: I M M A
;
_chemical_formula_sum "Si O2"
_cell_formula_units_Z 96
_cell_length_a 18.313354
_cell_length_b 26.089132
_cell_length_c 11.403570
_cell_angle_alpha 90.000000
_cell_angle_beta 90.000000
_cell_angle_gamma 90.000000
_cell_volume 5448.392085
_symmetry_space_group_name_H-M "I M M A"
_symmetry_group_IT_number 74
_symmetry_cell_setting 'orthorhombic'
loop_
_space_group_symop_operation_xyz
x,y,z
-x,1/2-y,z
x,-y,-z
-x,1/2+y,-z
-x,-y,-z
x,1/2+y,-z
-x,y,z
x,1/2-y,z
1/2+x,1/2+y,1/2+z
1/2-x,-y,1/2+z
1/2+x,1/2-y,1/2-z
1/2-x,y,1/2-z
1/2-x,1/2-y,1/2-z
1/2+x,y,1/2-z
1/2-x,1/2+y,1/2+z
1/2+x,-y,1/2+z
loop_
_atom_site_type_symbol
_atom_site_label
_atom_site_fract_x
_atom_site_fract_y
_atom_site_fract_z
Si Si1 0.679386 0.378994 0.189511
Si Si2 0.211325 0.692537 0.481202
Si Si3 0.583495 0.647662 0.152845
Si Si4 0.635908 0.309202 0.615114
Si Si5 0.415487 0.942129 0.981390
Si Si6 0.584191 0.691454 0.643515
O O1 0.750000 0.405435 0.250000
O O2 0.630942 0.347123 0.279620
O O3 0.715137 0.341629 0.095245
O O4 0.629939 0.421677 0.128748
O O5 0.221811 0.750000 0.525891
O O6 0.134623 0.687804 0.414471
O O7 0.277897 0.678406 0.394288
O O8 0.500000 0.663512 0.129298
O O9 0.601440 0.651453 0.290675
O O10 0.598808 0.590760 0.100324
O O11 0.622909 0.250000 0.653891
O O12 0.596075 0.320622 0.493046
O O13 0.500000 0.939937 0.945597
O O14 0.389159 0.000000 0.000000
O O15 0.500000 0.682910 0.675632
O O16 0.607790 0.750000 0.670705
#
# Coordination Sequence:
#
# PCOD8298619 Si02
#       6
#    16  16  16  16  16  16
#     4  11  20  34  55  78 106 136 175 218 263 309
#     4  10  20  32  49  74 108 146 178 207 249 304
#     4  10  20  33  52  76 101 134 176 221 262 304
#     4  10  19  32  49  74 110 147 175 203 247 306
#     4   9  20  40  61  78  98 130 174 224 276 319
#     4  10  20  32  50  78 111 148 182 208 244 302
#
# _framework density 17.619876999999999
#
# number of rings (size 3 to 8) (size 9 to 14) (size 15 to 20)
#    0.000    2.000    1.667    2.500    0.000    4.667 
#    0.000    3.333    0.000    0.000    0.000    4.667 
#    0.000    0.000    0.000    0.000    0.000    0.000 
#
# Total GULP energy -595146.872442 kJ/mol
# GULP energy per Si atom -12398.893176 kJ/mol
# Density = 1.757977 g / cm^3
# Si number density = 17.619877 Si / 1000 Ang^3
#
#
#
# Elastic Constant Matrix: (Units=GPa)
#
#
# Indices 1 2 3 4 5 6 
#
# 1 104.8653 47.5674 44.3300 0.0000 0.0000 0.0000
# 2 47.5674 85.8770 52.0032 0.0000 0.0000 0.0000
# 3 44.3300 52.0032 103.4905 0.0000 0.0000 0.0000
# 4 0.0000 0.0000 0.0000 19.4142 0.0000 0.0000
# 5 0.0000 0.0000 0.0000 0.0000 31.3107 0.0000
# 6 0.0000 0.0000 0.0000 0.0000 0.0000 19.7564
#
#
#
# Elastic Compliance Matrix: (Units=1/GPa)
#
#
# Indices 1 2 3 4 5 6 
#
# 1 0.013303 -0.005632 -0.002869 0.000000 0.000000 0.000000
# 2 -0.005632 0.019122 -0.007196 0.000000 0.000000 0.000000
# 3 -0.002869 -0.007196 0.014507 0.000000 0.000000 0.000000
# 4 0.000000 0.000000 0.000000 0.051509 0.000000 0.000000
# 5 0.000000 0.000000 0.000000 0.000000 0.031938 0.000000
# 6 0.000000 0.000000 0.000000 0.000000 0.000000 0.050617
#
#
# Mechanical properties :
#
#
# Convention : Reuss Voigt Hill
#
# Bulk Modulus (GPa) = 64.35167 64.67044 64.51106
# Shear Modulus (GPa) = 22.98131 24.11840 23.54985
#
# Velocity S-wave (km/s) = 3.61540 3.70377 3.65985
# Velocity P-wave (km/s) = 7.35049 7.42114 7.38590
#
# Compressibility (1/GPa) = 0.01553961
#
# Stress axis : x y z
#
# Youngs Moduli (GPa) = 75.16989 52.29695 68.92991
#
# Poissons Ratio (x) = 0.29451 0.19773
# Poissons Ratio (y) = 0.42333 0.49603
# Poissons Ratio (z) = 0.21563 0.37634
#
# Static dielectric constant tensor:
#      x y z
#    x 3.500880 0.000000 0.000000 
#    y 0.000000 3.032000 0.000000 
#    z 0.000000 0.000000 3.354160 
# 
# 
# High freq. dielectric constant tensor:
#      x y z
#    x 1.702170 0.000000 0.000000 
#    y 0.000000 1.644100 0.000000 
#    z 0.000000 0.000000 1.685060 
# 
# From -- ./inp_files/22461.got.cif
#   From: 2010.03.12/outbox.cif.g09.slc.cpg/sg74_12_cif.got.tgz:22461.got - 2010.04.16 15:46:19.
