data_PCOD8298642
_publ_section_title
;
Structure prediction by ZEFSAII (Michael W. Deem and Ramdas Pophale) SiO2 
 PCOD8298642
Probable space group: I M M A
;
_chemical_formula_sum "Si O2"
_cell_formula_units_Z 72
_cell_length_a 33.532416
_cell_length_b 8.693266
_cell_length_c 14.484441
_cell_angle_alpha 90.000000
_cell_angle_beta 90.000000
_cell_angle_gamma 90.000000
_cell_volume 4222.304528
_symmetry_space_group_name_H-M "I M M A"
_symmetry_group_IT_number 74
_symmetry_cell_setting 'orthorhombic'
loop_
_space_group_symop_operation_xyz
x,y,z
-x,1/2-y,z
x,-y,-z
-x,1/2+y,-z
-x,-y,-z
x,1/2+y,-z
-x,y,z
x,1/2-y,z
1/2+x,1/2+y,1/2+z
1/2-x,-y,1/2+z
1/2+x,1/2-y,1/2-z
1/2-x,y,1/2-z
1/2-x,1/2-y,1/2-z
1/2+x,y,1/2-z
1/2-x,1/2+y,1/2+z
1/2+x,-y,1/2+z
loop_
_atom_site_type_symbol
_atom_site_label
_atom_site_fract_x
_atom_site_fract_y
_atom_site_fract_z
Si Si1 0.312313 0.431777 0.402001
Si Si2 0.772648 0.430943 0.596486
Si Si3 0.086557 0.931837 0.602461
Si Si4 0.500000 0.927455 0.901872
Si Si5 0.654582 0.069762 0.772952
O O1 0.325892 0.500000 0.500000
O O2 0.310974 0.250000 0.409453
O O3 0.268907 0.494161 0.373118
O O4 0.344103 0.484376 0.325344
O O5 0.787899 0.500000 0.500000
O O6 0.766085 0.250000 0.585282
O O7 0.805261 0.471836 0.672460
O O8 0.094668 0.750000 0.597869
O O9 0.042320 0.970904 0.645838
O O10 0.091744 0.000000 0.500000
O O11 0.116822 0.011289 0.671295
O O12 0.500000 0.750000 0.921806
O O13 0.500000 0.000000 0.000000
O O14 0.650563 0.250000 0.756184
#
# Coordination Sequence:
#
# PCOD8298642 Si02
#       5
#    16  16  16   8  16
#     4  11  22  36  53  70  92 125 165 207 249 292
#     4  10  20  33  49  69  97 130 163 201 243 288
#     4  10  19  32  50  74 103 134 165 198 239 286
#     4   8  16  30  48  70  99 132 163 194 232 284
#     4  11  22  34  49  72 100 129 164 205 245 287
#
# _framework density 17.052299000000001
#
# number of rings (size 3 to 8) (size 9 to 14) (size 15 to 20)
#    0.000    1.778    0.000    6.667    0.000    8.889 
#    0.000    0.000    0.000    0.000    0.000    0.778 
#    0.000    0.000    0.000    0.000    0.000    0.000 
#
# Total GULP energy -446276.316121 kJ/mol
# GULP energy per Si atom -12396.564337 kJ/mol
# Density = 1.701349 g / cm^3
# Si number density = 17.052299 Si / 1000 Ang^3
#
#
#
# Elastic Constant Matrix: (Units=GPa)
#
#
# Indices 1 2 3 4 5 6 
#
# 1 92.4158 43.3730 64.1914 0.0000 0.0000 0.0000
# 2 43.3730 84.2156 41.8932 0.0000 0.0000 0.0000
# 3 64.1914 41.8932 101.2421 0.0000 0.0000 0.0000
# 4 0.0000 0.0000 0.0000 28.1628 0.0000 0.0000
# 5 0.0000 0.0000 0.0000 0.0000 18.1347 0.0000
# 6 0.0000 0.0000 0.0000 0.0000 0.0000 21.9581
#
#
#
# Elastic Compliance Matrix: (Units=1/GPa)
#
#
# Indices 1 2 3 4 5 6 
#
# 1 0.021057 -0.005293 -0.011161 0.000000 0.000000 0.000000
# 2 -0.005293 0.016282 -0.003382 0.000000 0.000000 0.000000
# 3 -0.011161 -0.003382 0.018353 0.000000 0.000000 0.000000
# 4 0.000000 0.000000 0.000000 0.035508 0.000000 0.000000
# 5 0.000000 0.000000 0.000000 0.000000 0.055143 0.000000
# 6 0.000000 0.000000 0.000000 0.000000 0.000000 0.045541
#
#
# Mechanical properties :
#
#
# Convention : Reuss Voigt Hill
#
# Bulk Modulus (GPa) = 62.41508 64.08761 63.25134
# Shear Modulus (GPa) = 21.10634 22.21217 21.65926
#
# Velocity S-wave (km/s) = 3.52197 3.61306 3.56781
# Velocity P-wave (km/s) = 7.29525 7.42093 7.35836
#
# Compressibility (1/GPa) = 0.01602177
#
# Stress axis : x y z
#
# Youngs Moduli (GPa) = 47.49027 61.41582 54.48702
#
# Poissons Ratio (x) = 0.32507 0.60812
# Poissons Ratio (y) = 0.25136 0.18426
# Poissons Ratio (z) = 0.53003 0.20769
#
# Static dielectric constant tensor:
#      x y z
#    x 3.414860 0.000000 0.000000 
#    y 0.000000 3.350870 0.000000 
#    z 0.000000 0.000000 3.085810 
# 
# 
# High freq. dielectric constant tensor:
#      x y z
#    x 1.647760 0.000000 0.000000 
#    y 0.000000 1.679090 0.000000 
#    z 0.000000 0.000000 1.640080 
# 
# From -- ./inp_files/29374.got.cif
#   From: 2010.03.12/outbox.cif.g09.slc.cpg/sg74_15_cif.got.tgz:29374.got - 2010.04.16 15:46:19.
