data_PCOD8298965
_publ_section_title
;
Structure prediction by ZEFSAII (Michael W. Deem and Ramdas Pophale) SiO2 
 PCOD8298965
Probable space group: I M M A
;
_chemical_formula_sum "Si O2"
_cell_formula_units_Z 104
_cell_length_a 29.238098
_cell_length_b 8.979628
_cell_length_c 21.293728
_cell_angle_alpha 90.000000
_cell_angle_beta 90.000000
_cell_angle_gamma 90.000000
_cell_volume 5590.609590
_symmetry_space_group_name_H-M "I M M A"
_symmetry_group_IT_number 74
_symmetry_cell_setting 'orthorhombic'
loop_
_space_group_symop_operation_xyz
x,y,z
-x,1/2-y,z
x,-y,-z
-x,1/2+y,-z
-x,-y,-z
x,1/2+y,-z
-x,y,z
x,1/2-y,z
1/2+x,1/2+y,1/2+z
1/2-x,-y,1/2+z
1/2+x,1/2-y,1/2-z
1/2-x,y,1/2-z
1/2-x,1/2-y,1/2-z
1/2+x,y,1/2-z
1/2-x,1/2+y,1/2+z
1/2+x,-y,1/2+z
loop_
_atom_site_type_symbol
_atom_site_label
_atom_site_fract_x
_atom_site_fract_y
_atom_site_fract_z
Si Si1 0.407717 0.084763 0.595258
Si Si2 0.551744 0.924168 0.817385
Si Si3 0.793072 0.577730 0.795042
Si Si4 0.054566 0.416063 0.559825
Si Si5 0.816463 0.073303 0.062961
Si Si6 0.380392 0.411748 0.735199
Si Si7 0.500000 0.428779 0.432435
O O1 0.414802 0.250000 0.563217
O O2 0.390943 0.116584 0.663966
O O3 0.368401 0.988782 0.561520
O O4 0.454265 0.989997 0.600122
O O5 0.500000 0.977106 0.804953
O O6 0.554404 0.750000 0.827168
O O7 0.572613 0.999824 0.879121
O O8 0.581661 0.975081 0.759549
O O9 0.806813 0.750000 0.793026
O O10 0.750000 0.545999 0.750000
O O11 0.790232 0.532798 0.870280
O O12 0.830990 0.484662 0.758194
O O13 0.075276 0.500000 0.500000
O O14 0.074091 0.250000 0.560155
O O15 0.000000 0.417759 0.557526
O O16 0.817235 0.250000 0.053869
O O17 0.792611 0.000000 0.000000
O O18 0.381317 0.250000 0.769863
O O19 0.500000 0.250000 0.431928
O O20 0.500000 0.500000 0.500000
#
# Coordination Sequence:
#
# PCOD8298965 Si02
#       7
#    16  16  16  16  16  16   8
#     4  10  21  36  51  71 101 138 179 222 267 312
#     4  10  20  32  48  72 102 138 177 216 259 312
#     4   9  19  37  60  83 107 138 176 219 268 323
#     4   9  16  27  44  66  93 126 166 212 258 306
#     4  10  19  33  55  82 110 139 174 218 266 319
#     4  10  21  35  53  77 105 136 172 217 266 316
#     4  12  24  36  50  68  96 136 181 222 263 306
#
# _framework density 18.602623000000001
#
# number of rings (size 3 to 8) (size 9 to 14) (size 15 to 20)
#    0.000    2.154    0.000    3.462    1.077    5.538 
#    0.000    0.000    0.000    0.923    0.000    4.308 
#    0.000    0.000    0.000    0.000    0.000    0.000 
#
# Total GULP energy -644282.630326 kJ/mol
# GULP energy per Si atom -12390.050583 kJ/mol
# Density = 1.856028 g / cm^3
# Si number density = 18.602623 Si / 1000 Ang^3
#
#
#
# Elastic Constant Matrix: (Units=GPa)
#
#
# Indices 1 2 3 4 5 6 
#
# 1 75.0035 43.5862 38.7158 0.0000 0.0000 0.0000
# 2 43.5862 115.6228 38.4998 0.0000 0.0000 0.0000
# 3 38.7158 38.4998 84.8092 0.0000 0.0000 0.0000
# 4 0.0000 0.0000 0.0000 33.7832 0.0000 0.0000
# 5 0.0000 0.0000 0.0000 0.0000 22.4599 0.0000
# 6 0.0000 0.0000 0.0000 0.0000 0.0000 24.6540
#
#
#
# Elastic Compliance Matrix: (Units=1/GPa)
#
#
# Indices 1 2 3 4 5 6 
#
# 1 0.019827 -0.005255 -0.006666 0.000000 0.000000 0.000000
# 2 -0.005255 0.011582 -0.002859 0.000000 0.000000 0.000000
# 3 -0.006666 -0.002859 0.016132 0.000000 0.000000 0.000000
# 4 0.000000 0.000000 0.000000 0.029600 0.000000 0.000000
# 5 0.000000 0.000000 0.000000 0.000000 0.044524 0.000000
# 6 0.000000 0.000000 0.000000 0.000000 0.000000 0.040561
#
#
# Mechanical properties :
#
#
# Convention : Reuss Voigt Hill
#
# Bulk Modulus (GPa) = 55.61069 57.44882 56.52975
# Shear Modulus (GPa) = 25.28079 26.48834 25.88457
#
# Velocity S-wave (km/s) = 3.69045 3.77756 3.73426
# Velocity P-wave (km/s) = 6.93672 7.06935 7.00335
#
# Compressibility (1/GPa) = 0.01798216
#
# Stress axis : x y z
#
# Youngs Moduli (GPa) = 50.43607 86.34417 61.98898
#
# Poissons Ratio (x) = 0.45371 0.41320
# Poissons Ratio (y) = 0.26502 0.17721
# Poissons Ratio (z) = 0.33620 0.24684
#
# Static dielectric constant tensor:
#      x y z
#    x 2.952790 0.000000 0.000000 
#    y 0.000000 3.830890 0.000000 
#    z 0.000000 0.000000 3.425570 
# 
# 
# High freq. dielectric constant tensor:
#      x y z
#    x 1.675270 0.000000 0.000000 
#    y 0.000000 1.743110 0.000000 
#    z 0.000000 0.000000 1.727380 
# 
# From -- ./inp_files/49630.got.cif
#   From: 2010.03.12/outbox.cif.g09.slc.cpg/sg74_25_cif.got.tgz:49630.got - 2010.04.16 15:46:19.
