data_PCOD8298115
_publ_section_title
;
Structure prediction by ZEFSAII (Michael W. Deem and Ramdas Pophale) SiO2 
 PCOD8298115
Probable space group: I M M A
;
_chemical_formula_sum "Si O2"
_cell_formula_units_Z 48
_cell_length_a 33.533015
_cell_length_b 8.979870
_cell_length_c 8.632964
_cell_angle_alpha 90.000000
_cell_angle_beta 90.000000
_cell_angle_gamma 90.000000
_cell_volume 2599.576382
_symmetry_space_group_name_H-M "I M M A"
_symmetry_group_IT_number 74
_symmetry_cell_setting 'orthorhombic'
loop_
_space_group_symop_operation_xyz
x,y,z
-x,1/2-y,z
x,-y,-z
-x,1/2+y,-z
-x,-y,-z
x,1/2+y,-z
-x,y,z
x,1/2-y,z
1/2+x,1/2+y,1/2+z
1/2-x,-y,1/2+z
1/2+x,1/2-y,1/2-z
1/2-x,y,1/2-z
1/2-x,1/2-y,1/2-z
1/2+x,y,1/2-z
1/2-x,1/2+y,1/2+z
1/2+x,-y,1/2+z
loop_
_atom_site_type_symbol
_atom_site_label
_atom_site_fract_x
_atom_site_fract_y
_atom_site_fract_z
Si Si1 0.877079 0.750000 0.685711
Si Si2 0.920770 0.000000 0.500000
Si Si3 0.704951 0.750000 0.699240
Si Si4 0.545102 0.750000 0.209595
Si Si5 0.115295 0.750000 0.054291
Si Si6 0.669866 0.000000 0.500000
O O1 0.893219 0.601954 0.606681
O O2 0.828787 0.750000 0.666296
O O3 0.889190 0.750000 0.867271
O O4 0.948392 0.102486 0.607654
O O5 0.750000 0.750000 0.750000
O O6 0.698770 0.599843 0.602486
O O7 0.500000 0.750000 0.271402
O O8 0.572999 0.750000 0.361129
O O9 0.140708 0.604449 0.104425
#
# Coordination Sequence:
#
# PCOD8298115 Si02
#       6
#     8   8   8   8   8   8
#     4   9  20  37  56  77 104 144 178 211 260 325
#     4  10  21  37  54  76 111 142 171 212 272 325
#     4  10  19  33  52  78 107 134 176 224 263 303
#     4  11  21  35  55  81 106 136 176 225 267 307
#     4  10  18  37  59  76 102 144 186 212 254 323
#     4   8  18  35  53  74 103 138 173 220 263 305
#
# _framework density 18.464547
#
# number of rings (size 3 to 8) (size 9 to 14) (size 15 to 20)
#    0.000    2.667    0.000    4.500    0.000    1.333 
#    0.000   14.167    0.000    0.000    0.000    0.000 
#    0.000    0.000    0.000    0.000    0.000    0.000 
#
# Total GULP energy -297422.313629 kJ/mol
# GULP energy per Si atom -12392.596401 kJ/mol
# Density = 1.842252 g / cm^3
# Si number density = 18.464547 Si / 1000 Ang^3
#
#
#
# Elastic Constant Matrix: (Units=GPa)
#
#
# Indices 1 2 3 4 5 6 
#
# 1 193.8291 71.7260 66.1072 0.0000 0.0000 0.0000
# 2 71.7260 151.2643 47.0067 0.0000 0.0000 0.0000
# 3 66.1072 47.0067 91.5388 0.0000 0.0000 0.0000
# 4 0.0000 0.0000 0.0000 23.5707 0.0000 0.0000
# 5 0.0000 0.0000 0.0000 0.0000 34.0458 0.0000
# 6 0.0000 0.0000 0.0000 0.0000 0.0000 22.0655
#
#
#
# Elastic Compliance Matrix: (Units=1/GPa)
#
#
# Indices 1 2 3 4 5 6 
#
# 1 0.007415 -0.002204 -0.004223 0.000000 0.000000 0.000000
# 2 -0.002204 0.008521 -0.002784 0.000000 0.000000 0.000000
# 3 -0.004223 -0.002784 0.015404 0.000000 0.000000 0.000000
# 4 0.000000 0.000000 0.000000 0.042426 0.000000 0.000000
# 5 0.000000 0.000000 0.000000 0.000000 0.029372 0.000000
# 6 0.000000 0.000000 0.000000 0.000000 0.000000 0.045320
#
#
# Mechanical properties :
#
#
# Convention : Reuss Voigt Hill
#
# Bulk Modulus (GPa) = 77.41338 89.59023 83.50180
# Shear Modulus (GPa) = 29.20797 32.72256 30.96527
#
# Velocity S-wave (km/s) = 3.98155 4.21430 4.09958
# Velocity P-wave (km/s) = 7.94691 8.50329 8.22980
#
# Compressibility (1/GPa) = 0.01291766
#
# Stress axis : x y z
#
# Youngs Moduli (GPa) = 134.86103 117.35588 64.91746
#
# Poissons Ratio (x) = 0.25860 0.27417
# Poissons Ratio (y) = 0.29718 0.18075
# Poissons Ratio (z) = 0.56957 0.32676
#
# Static dielectric constant tensor:
#      x y z
#    x 3.268510 0.000000 0.000000 
#    y 0.000000 3.745810 0.000000 
#    z 0.000000 0.000000 3.207640 
# 
# 
# High freq. dielectric constant tensor:
#      x y z
#    x 1.707350 0.000000 0.000000 
#    y 0.000000 1.747820 0.000000 
#    z 0.000000 0.000000 1.696730 
# 
# From -- ./inp_files/6190.got.cif
#   From: 2010.03.12/outbox.cif.g09.slc.cpg/sg74_4_cif.got.tgz:6190.got - 2010.04.16 15:46:19.
