data_PCOD8298536
_publ_section_title
;
Structure prediction by ZEFSAII (Michael W. Deem and Ramdas Pophale) SiO2 
 PCOD8298536
Probable space group: I M M A
;
_chemical_formula_sum "Si O2"
_cell_formula_units_Z 104
_cell_length_a 9.066755
_cell_length_b 19.607596
_cell_length_c 32.833923
_cell_angle_alpha 90.000000
_cell_angle_beta 90.000000
_cell_angle_gamma 90.000000
_cell_volume 5837.125164
_symmetry_space_group_name_H-M "I M M A"
_symmetry_group_IT_number 74
_symmetry_cell_setting 'orthorhombic'
loop_
_space_group_symop_operation_xyz
x,y,z
-x,1/2-y,z
x,-y,-z
-x,1/2+y,-z
-x,-y,-z
x,1/2+y,-z
-x,y,z
x,1/2-y,z
1/2+x,1/2+y,1/2+z
1/2-x,-y,1/2+z
1/2+x,1/2-y,1/2-z
1/2-x,y,1/2-z
1/2-x,1/2-y,1/2-z
1/2+x,y,1/2-z
1/2-x,1/2+y,1/2+z
1/2+x,-y,1/2+z
loop_
_atom_site_type_symbol
_atom_site_label
_atom_site_fract_x
_atom_site_fract_y
_atom_site_fract_z
Si Si1 0.670294 0.424637 0.629379
Si Si2 0.171711 0.064797 0.089224
Si Si3 0.828240 0.328642 0.941839
Si Si4 0.170104 0.750000 0.708373
Si Si5 0.174287 0.577387 0.507746
Si Si6 0.329681 0.111973 0.165517
Si Si7 0.671675 0.471925 0.792360
O O1 0.500000 0.431038 0.642462
O O2 0.713067 0.486132 0.598655
O O3 0.702848 0.355801 0.604032
O O4 0.765728 0.425708 0.670657
O O5 0.219888 0.108156 0.127896
O O6 0.000000 0.074108 0.080258
O O7 0.261433 0.096095 0.051674
O O8 0.778898 0.250000 0.943518
O O9 0.736352 0.371187 0.974365
O O10 0.000000 0.337608 0.952429
O O11 0.250000 0.750000 0.750000
O O12 0.216989 0.817025 0.684572
O O13 0.000000 0.750000 0.718168
O O14 0.225637 0.500000 0.500000
O O15 0.000000 0.584851 0.508065
O O16 0.500000 0.109844 0.151128
O O17 0.299424 0.051265 0.197571
O O18 0.500000 0.455273 0.787736
O O19 0.750000 0.452963 0.750000
#
# Coordination Sequence:
#
# PCOD8298536 Si02
#       7
#    16  16  16   8  16  16  16
#     4   9  18  33  54  79 106 136 170 213 266 318
#     4  10  19  33  55  78 102 136 178 224 269 315
#     4  10  21  38  59  83 111 143 181 225 273 326
#     4  10  20  34  52  72 100 140 180 222 270 322
#     4  11  22  35  56  83 112 146 183 224 268 320
#     4   9  19  34  50  72 103 138 176 220 271 324
#     4  10  19  31  51  78 106 134 170 218 266 317
#
# _framework density 17.816991000000002
#
# number of rings (size 3 to 8) (size 9 to 14) (size 15 to 20)
#    0.000    2.154    1.538    1.846    0.000    3.385 
#    1.385    0.000    0.000    0.462    0.000    0.000 
#    0.000    0.000    0.000    0.000    0.000    0.000 
#
# Total GULP energy -644838.852396 kJ/mol
# GULP energy per Si atom -12400.747161 kJ/mol
# Density = 1.777644 g / cm^3
# Si number density = 17.816991 Si / 1000 Ang^3
#
#
#
# Elastic Constant Matrix: (Units=GPa)
#
#
# Indices 1 2 3 4 5 6 
#
# 1 74.0139 48.6391 64.8035 0.0000 0.0000 0.0000
# 2 48.6391 108.3582 59.1256 0.0000 0.0000 0.0000
# 3 64.8035 59.1256 126.9030 0.0000 0.0000 0.0000
# 4 0.0000 0.0000 0.0000 -6.7836 0.0000 0.0000
# 5 0.0000 0.0000 0.0000 0.0000 37.8880 0.0000
# 6 0.0000 0.0000 0.0000 0.0000 0.0000 20.1187
#
#
#
# Elastic Compliance Matrix: (Units=1/GPa)
#
#
# Indices 1 2 3 4 5 6 
#
# 1 0.027240 -0.006218 -0.011013 0.000000 0.000000 0.000000
# 2 -0.006218 0.013794 -0.003252 0.000000 0.000000 0.000000
# 3 -0.011013 -0.003252 0.015019 0.000000 0.000000 0.000000
# 4 0.000000 0.000000 0.000000 -0.147414 0.000000 0.000000
# 5 0.000000 0.000000 0.000000 0.000000 0.026394 0.000000
# 6 0.000000 0.000000 0.000000 0.000000 0.000000 0.049705
#
#
# Mechanical properties :
#
#
# Convention : Reuss Voigt Hill
#
# Bulk Modulus (GPa) = 66.28038 72.71238 69.49638
# Shear Modulus (GPa) = 162.70245 19.35841 91.03043
#
# Velocity S-wave (km/s) = 9.56645 3.29981 7.15562
# Velocity P-wave (km/s) = 12.62157 7.44430 10.36151
#
# Compressibility (1/GPa) = 0.01508742
#
# Stress axis : x y z
#
# Youngs Moduli (GPa) = 36.71107 72.49580 66.58308
#
# Poissons Ratio (x) = 0.45077 0.73328
# Poissons Ratio (y) = 0.22827 0.21650
# Poissons Ratio (z) = 0.40430 0.23572
#
# Static dielectric constant tensor:
#      x y z
#    x 3.415420 0.000000 0.000000 
#    y 0.000000 3.269160 0.000000 
#    z 0.000000 0.000000 3.247650 
# 
# 
# High freq. dielectric constant tensor:
#      x y z
#    x 1.694550 0.000000 0.000000 
#    y 0.000000 1.667650 0.000000 
#    z 0.000000 0.000000 1.694600 
# 
# From -- ./inp_files/70551.got.cif
#   From: 2010.03.12/outbox.cif.g09.slc.cpg/sg74_36_cif.got.tgz:70551.got - 2010.04.16 15:46:19.
