data_PCOD8298584
_publ_section_title
;
Structure prediction by ZEFSAII (Michael W. Deem and Ramdas Pophale) SiO2 
 PCOD8298584
Probable space group: I M M A
;
_chemical_formula_sum "Si O2"
_cell_formula_units_Z 112
_cell_length_a 13.703625
_cell_length_b 28.132637
_cell_length_c 15.182657
_cell_angle_alpha 90.000000
_cell_angle_beta 90.000000
_cell_angle_gamma 90.000000
_cell_volume 5853.204379
_symmetry_space_group_name_H-M "I M M A"
_symmetry_group_IT_number 74
_symmetry_cell_setting 'orthorhombic'
loop_
_space_group_symop_operation_xyz
x,y,z
-x,1/2-y,z
x,-y,-z
-x,1/2+y,-z
-x,-y,-z
x,1/2+y,-z
-x,y,z
x,1/2-y,z
1/2+x,1/2+y,1/2+z
1/2-x,-y,1/2+z
1/2+x,1/2-y,1/2-z
1/2-x,y,1/2-z
1/2-x,1/2-y,1/2-z
1/2+x,y,1/2-z
1/2-x,1/2+y,1/2+z
1/2+x,-y,1/2+z
loop_
_atom_site_type_symbol
_atom_site_label
_atom_site_fract_x
_atom_site_fract_y
_atom_site_fract_z
Si Si1 0.385807 0.476194 0.269446
Si Si2 0.115619 0.463543 0.424827
Si Si3 0.613602 0.959360 0.427324
Si Si4 0.141130 0.302466 0.284138
Si Si5 0.249079 0.383326 0.492281
Si Si6 0.606015 0.379487 0.347134
Si Si7 0.112141 0.804382 0.510581
O O1 0.500000 0.468691 0.265101
O O2 0.347314 0.484277 0.169772
O O3 0.358318 0.520541 0.331094
O O4 0.343048 0.427392 0.309782
O O5 0.148834 0.500000 0.500000
O O6 0.167200 0.414002 0.443078
O O7 0.000000 0.455033 0.426182
O O8 0.500000 0.943741 0.430798
O O9 0.684475 0.914252 0.441272
O O10 0.633781 0.000000 0.500000
O O11 0.097522 0.250000 0.266027
O O12 0.250000 0.305432 0.250000
O O13 0.083524 0.341651 0.229179
O O14 0.129065 0.314123 0.386389
O O15 0.322192 0.359380 0.421641
O O16 0.188086 0.340221 0.539264
O O17 0.500000 0.391759 0.389582
O O18 0.137894 0.750000 0.485743
O O19 0.000000 0.815531 0.484579
#
# Coordination Sequence:
#
# PCOD8298584 Si02
#       7
#    16  16  16  16  16  16  16
#     4   9  19  35  53  71 100 140 182 223 265 319
#     4  10  22  37  51  75 108 140 176 221 272 323
#     4  10  19  35  54  76 104 138 182 228 271 317
#     4  10  19  32  47  69  98 133 181 234 276 318
#     4  12  21  33  51  77 103 137 181 233 268 316
#     4  11  21  31  48  72  97 134 181 224 266 312
#     4  10  21  36  52  69  98 142 186 226 274 333
#
# _framework density 19.134817999999999
#
# number of rings (size 3 to 8) (size 9 to 14) (size 15 to 20)
#    0.000    1.714    2.857    2.571    0.000    2.000 
#    0.000    0.000    0.000    1.286    0.000    0.000 
#    0.000    2.286    0.000    7.429    0.000    5.143 
#
# Total GULP energy -694014.766703 kJ/mol
# GULP energy per Si atom -12393.120834 kJ/mol
# Density = 1.909127 g / cm^3
# Si number density = 19.134818 Si / 1000 Ang^3
#
#
#
# Elastic Constant Matrix: (Units=GPa)
#
#
# Indices 1 2 3 4 5 6 
#
# 1 100.4114 53.2707 16.4262 -0.0001 0.0000 0.0000
# 2 53.2707 117.7973 34.2914 0.0001 0.0000 0.0000
# 3 16.4262 34.2914 58.3260 -0.0002 0.0004 -0.0002
# 4 -0.0001 0.0001 -0.0002 23.7699 0.0001 0.0000
# 5 0.0000 0.0000 0.0004 0.0001 11.1031 0.0000
# 6 0.0000 0.0000 -0.0002 0.0000 0.0000 11.1654
#
#
#
# Elastic Compliance Matrix: (Units=1/GPa)
#
#
# Indices 1 2 3 4 5 6 
#
# 1 0.013106 -0.005854 -0.000249 0.000000 0.000000 0.000000
# 2 -0.005854 0.012857 -0.005910 0.000000 0.000000 0.000000
# 3 -0.000249 -0.005910 0.020690 0.000000 -0.000001 0.000000
# 4 0.000000 0.000000 0.000000 0.042070 0.000000 0.000000
# 5 0.000000 0.000000 -0.000001 0.000000 0.090065 0.000000
# 6 0.000000 0.000000 0.000000 0.000000 0.000000 0.089562
#
#
# Mechanical properties :
#
#
# Convention : Reuss Voigt Hill
#
# Bulk Modulus (GPa) = 44.19784 53.83459 49.01622
# Shear Modulus (GPa) = 16.67117 20.71077 18.69097
#
# Velocity S-wave (km/s) = 2.95489 3.29349 3.12878
# Velocity P-wave (km/s) = 5.89832 6.53133 6.22288
#
# Compressibility (1/GPa) = 0.02262554
#
# Stress axis : x y z
#
# Youngs Moduli (GPa) = 76.30368 77.77828 48.33250
#
# Poissons Ratio (x) = 0.45532 0.01204
# Poissons Ratio (y) = 0.44669 0.28566
# Poissons Ratio (z) = 0.01901 0.45969
#
# Static dielectric constant tensor:
#      x y z
#    x 3.742910 0.000000 0.000000 
#    y 0.000000 3.564250 0.000000 
#    z 0.000000 0.000000 3.280670 
# 
# 
# High freq. dielectric constant tensor:
#      x y z
#    x 1.773620 0.000000 0.000000 
#    y 0.000000 1.729400 0.000000 
#    z 0.000000 0.000000 1.690940 
# 
# From -- ./inp_files/33125.got.cif
#   From: 2010.03.12/outbox.cif.g09.slc.cpg/sg74_17_cif.got.tgz:33125.got - 2010.04.16 15:46:19.
