data_PCOD8298884
_publ_section_title
;
Structure prediction by ZEFSAII (Michael W. Deem and Ramdas Pophale) SiO2 
 PCOD8298884
Probable space group: I M M A
;
_chemical_formula_sum "Si O2"
_cell_formula_units_Z 88
_cell_length_a 8.829227
_cell_length_b 25.132291
_cell_length_c 20.034515
_cell_angle_alpha 90.000000
_cell_angle_beta 90.000000
_cell_angle_gamma 90.000000
_cell_volume 4445.632879
_symmetry_space_group_name_H-M "I M M A"
_symmetry_group_IT_number 74
_symmetry_cell_setting 'orthorhombic'
loop_
_space_group_symop_operation_xyz
x,y,z
-x,1/2-y,z
x,-y,-z
-x,1/2+y,-z
-x,-y,-z
x,1/2+y,-z
-x,y,z
x,1/2-y,z
1/2+x,1/2+y,1/2+z
1/2-x,-y,1/2+z
1/2+x,1/2-y,1/2-z
1/2-x,y,1/2-z
1/2-x,1/2-y,1/2-z
1/2+x,y,1/2-z
1/2-x,1/2+y,1/2+z
1/2+x,-y,1/2+z
loop_
_atom_site_type_symbol
_atom_site_label
_atom_site_fract_x
_atom_site_fract_y
_atom_site_fract_z
Si Si1 0.178516 0.337927 0.569829
Si Si2 0.671481 0.456040 0.949493
Si Si3 0.828189 0.486026 0.312601
Si Si4 0.819357 0.250000 0.675503
Si Si5 0.678762 0.625673 0.682612
Si Si6 0.330916 0.691323 0.559960
O O1 0.249727 0.397599 0.557491
O O2 0.234586 0.303520 0.634644
O O3 0.224032 0.305904 0.504312
O O4 0.000000 0.343579 0.576330
O O5 0.500000 0.448611 0.975879
O O6 0.676482 0.475934 0.874719
O O7 0.749538 0.500000 0.000000
O O8 0.750000 0.516454 0.250000
O O9 0.726502 0.434931 0.326533
O O10 0.000000 0.468863 0.295314
O O11 0.750000 0.250000 0.750000
O O12 0.000000 0.250000 0.681718
O O13 0.500000 0.632177 0.686578
O O14 0.750000 0.650222 0.750000
O O15 0.743027 0.655089 0.617369
O O16 0.500000 0.671263 0.540109
O O17 0.340221 0.750000 0.590498
#
# Coordination Sequence:
#
# PCOD8298884 Si02
#       6
#    16  16  16   8  16  16
#     4  10  20  37  58  82 109 140 185 229 273 331
#     4   9  18  32  53  80 108 139 177 222 269 321
#     4  10  19  33  53  76 104 140 176 216 265 316
#     4  10  22  38  58  84 111 144 185 234 279 330
#     4  10  20  34  52  76 107 143 180 220 263 314
#     4  10  21  36  54  77 107 140 175 219 273 324
#
# _framework density 19.794706999999999
#
# number of rings (size 3 to 8) (size 9 to 14) (size 15 to 20)
#    0.000    2.182    0.909    3.273    0.000    4.727 
#    0.000    1.818    0.000    4.909    0.000    0.000 
#    0.000    0.000    0.000    0.000    0.000    0.000 
#
# Total GULP energy -545113.475272 kJ/mol
# GULP energy per Si atom -12388.942620 kJ/mol
# Density = 1.974965 g / cm^3
# Si number density = 19.794707 Si / 1000 Ang^3
#
#
#
# Elastic Constant Matrix: (Units=GPa)
#
#
# Indices 1 2 3 4 5 6 
#
# 1 32.7645 16.1475 24.9554 0.0000 0.0000 0.0000
# 2 16.1475 112.7156 56.7021 0.0000 0.0000 0.0000
# 3 24.9554 56.7021 116.4471 0.0000 0.0000 0.0000
# 4 0.0000 0.0000 0.0000 30.1657 0.0000 0.0000
# 5 0.0000 0.0000 0.0000 0.0000 29.3687 0.0000
# 6 0.0000 0.0000 0.0000 0.0000 0.0000 11.1311
#
#
#
# Elastic Compliance Matrix: (Units=1/GPa)
#
#
# Indices 1 2 3 4 5 6 
#
# 1 0.036726 -0.001724 -0.007031 0.000000 0.000000 0.000000
# 2 -0.001724 0.011831 -0.005391 0.000000 0.000000 0.000000
# 3 -0.007031 -0.005391 0.012720 0.000000 0.000000 0.000000
# 4 0.000000 0.000000 0.000000 0.033150 0.000000 0.000000
# 5 0.000000 0.000000 0.000000 0.000000 0.034050 0.000000
# 6 0.000000 0.000000 0.000000 0.000000 0.000000 0.089838
#
#
# Mechanical properties :
#
#
# Convention : Reuss Voigt Hill
#
# Bulk Modulus (GPa) = 30.31853 50.83747 40.57800
# Shear Modulus (GPa) = 19.40975 25.07460 22.24217
#
# Velocity S-wave (km/s) = 3.13477 3.56298 3.35571
# Velocity P-wave (km/s) = 5.33406 6.53181 5.96308
#
# Compressibility (1/GPa) = 0.03298313
#
# Stress axis : x y z
#
# Youngs Moduli (GPa) = 27.22878 84.52298 78.61849
#
# Poissons Ratio (x) = 0.14575 0.55276
# Poissons Ratio (y) = 0.04695 0.42387
# Poissons Ratio (z) = 0.19144 0.45570
#
# Static dielectric constant tensor:
#      x y z
#    x 3.445340 0.000000 0.000000 
#    y 0.000000 3.821940 0.000000 
#    z 0.000000 0.000000 3.938880 
# 
# 
# High freq. dielectric constant tensor:
#      x y z
#    x 1.744140 0.000000 0.000000 
#    y 0.000000 1.773460 0.000000 
#    z 0.000000 0.000000 1.781310 
# 
# From -- ./inp_files/48724.got.cif
#   From: 2010.03.12/outbox.cif.g09.slc.cpg/sg74_25_cif.got.tgz:48724.got - 2010.04.16 15:46:19.
