data_PCOD8298841
_publ_section_title
;
Structure prediction by ZEFSAII (Michael W. Deem and Ramdas Pophale) SiO2 
 PCOD8298841
Probable space group: I M M A
;
_chemical_formula_sum "Si O2"
_cell_formula_units_Z 72
_cell_length_a 32.837815
_cell_length_b 8.737999
_cell_length_c 14.626798
_cell_angle_alpha 90.000000
_cell_angle_beta 90.000000
_cell_angle_gamma 90.000000
_cell_volume 4196.966534
_symmetry_space_group_name_H-M "I M M A"
_symmetry_group_IT_number 74
_symmetry_cell_setting 'orthorhombic'
loop_
_space_group_symop_operation_xyz
x,y,z
-x,1/2-y,z
x,-y,-z
-x,1/2+y,-z
-x,-y,-z
x,1/2+y,-z
-x,y,z
x,1/2-y,z
1/2+x,1/2+y,1/2+z
1/2-x,-y,1/2+z
1/2+x,1/2-y,1/2-z
1/2-x,y,1/2-z
1/2-x,1/2-y,1/2-z
1/2+x,y,1/2-z
1/2-x,1/2+y,1/2+z
1/2+x,-y,1/2+z
loop_
_atom_site_type_symbol
_atom_site_label
_atom_site_fract_x
_atom_site_fract_y
_atom_site_fract_z
Si Si1 0.158875 0.931004 0.778785
Si Si2 0.088280 0.569022 0.101090
Si Si3 0.724273 0.570885 0.405117
Si Si4 0.000000 0.926283 0.096847
Si Si5 0.181000 0.070641 0.595156
O O1 0.160139 0.750000 0.780103
O O2 0.119916 0.989475 0.832745
O O3 0.200267 0.995502 0.822054
O O4 0.155560 0.990868 0.675323
O O5 0.096885 0.750000 0.096541
O O6 0.043164 0.531648 0.144894
O O7 0.092739 0.500000 0.000000
O O8 0.708312 0.500000 0.500000
O O9 0.715201 0.750000 0.406561
O O10 0.771485 0.533723 0.390407
O O11 0.000000 0.750000 0.075537
O O12 0.000000 0.000000 0.000000
O O13 0.172275 0.250000 0.595447
O O14 0.165632 0.000000 0.500000
#
# Coordination Sequence:
#
# PCOD8298841 Si02
#       5
#    16  16  16   8  16
#     4  12  23  33  48  72 100 131 166 203 243 286
#     4  10  19  33  51  74 103 132 163 198 239 288
#     4  10  20  34  51  71  97 129 164 203 247 292
#     4   8  16  30  50  72  97 130 161 192 234 286
#     4  10  21  37  54  71  93 125 165 208 251 292
#
# _framework density 17.155248
#
# number of rings (size 3 to 8) (size 9 to 14) (size 15 to 20)
#    0.000    1.778    0.000    5.333    0.000    6.222 
#    0.000    0.000    0.000    0.000    0.000    0.778 
#    0.000    0.000    0.000    0.000    0.000    0.000 
#
# Total GULP energy -446319.246843 kJ/mol
# GULP energy per Si atom -12397.756857 kJ/mol
# Density = 1.711620 g / cm^3
# Si number density = 17.155248 Si / 1000 Ang^3
#
#
#
# Elastic Constant Matrix: (Units=GPa)
#
#
# Indices 1 2 3 4 5 6 
#
# 1 76.0977 42.0097 49.4769 0.0000 0.0000 0.0000
# 2 42.0097 108.2198 53.0211 0.0000 0.0000 0.0000
# 3 49.4769 53.0211 122.2727 0.0000 0.0000 0.0000
# 4 0.0000 0.0000 0.0000 31.7536 0.0000 0.0000
# 5 0.0000 0.0000 0.0000 0.0000 16.0769 0.0000
# 6 0.0000 0.0000 0.0000 0.0000 0.0000 13.8588
#
#
#
# Elastic Compliance Matrix: (Units=1/GPa)
#
#
# Indices 1 2 3 4 5 6 
#
# 1 0.019562 -0.004718 -0.005870 0.000000 0.000000 0.000000
# 2 -0.004718 0.012871 -0.003672 0.000000 0.000000 0.000000
# 3 -0.005870 -0.003672 0.012146 0.000000 0.000000 0.000000
# 4 0.000000 0.000000 0.000000 0.031493 0.000000 0.000000
# 5 0.000000 0.000000 0.000000 0.000000 0.062201 0.000000
# 6 0.000000 0.000000 0.000000 0.000000 0.000000 0.072156
#
#
# Mechanical properties :
#
#
# Convention : Reuss Voigt Hill
#
# Bulk Modulus (GPa) = 62.26964 66.17840 64.22402
# Shear Modulus (GPa) = 20.46651 23.14335 21.80493
#
# Velocity S-wave (km/s) = 3.45776 3.67693 3.56903
# Velocity P-wave (km/s) = 7.23312 7.52903 7.38256
#
# Compressibility (1/GPa) = 0.01605919
#
# Stress axis : x y z
#
# Youngs Moduli (GPa) = 51.11972 77.69378 82.33166
#
# Poissons Ratio (x) = 0.36655 0.48327
# Poissons Ratio (y) = 0.24118 0.30234
# Poissons Ratio (z) = 0.30006 0.28531
#
# Static dielectric constant tensor:
#      x y z
#    x 3.175060 0.000000 0.000000 
#    y 0.000000 3.350820 0.000000 
#    z 0.000000 0.000000 3.138290 
# 
# 
# High freq. dielectric constant tensor:
#      x y z
#    x 1.649510 0.000000 0.000000 
#    y 0.000000 1.682800 0.000000 
#    z 0.000000 0.000000 1.645220 
# 
# From -- ./inp_files/29193.got.cif
#   From: 2010.03.12/outbox.cif.g09.slc.cpg/sg74_15_cif.got.tgz:29193.got - 2010.04.16 15:46:19.
