data_PCOD8298443
_publ_section_title
;
Structure prediction by ZEFSAII (Michael W. Deem and Ramdas Pophale) SiO2 
 PCOD8298443
Probable space group: I M M A
;
_chemical_formula_sum "Si O2"
_cell_formula_units_Z 96
_cell_length_a 23.292927
_cell_length_b 8.794891
_cell_length_c 28.934814
_cell_angle_alpha 90.000000
_cell_angle_beta 90.000000
_cell_angle_gamma 90.000000
_cell_volume 5927.549944
_symmetry_space_group_name_H-M "I M M A"
_symmetry_group_IT_number 74
_symmetry_cell_setting 'orthorhombic'
loop_
_space_group_symop_operation_xyz
x,y,z
-x,1/2-y,z
x,-y,-z
-x,1/2+y,-z
-x,-y,-z
x,1/2+y,-z
-x,y,z
x,1/2-y,z
1/2+x,1/2+y,1/2+z
1/2-x,-y,1/2+z
1/2+x,1/2-y,1/2-z
1/2-x,y,1/2-z
1/2-x,1/2-y,1/2-z
1/2+x,y,1/2-z
1/2-x,1/2+y,1/2+z
1/2+x,-y,1/2+z
loop_
_atom_site_type_symbol
_atom_site_label
_atom_site_fract_x
_atom_site_fract_y
_atom_site_fract_z
Si Si1 0.077922 0.084699 0.956677
Si Si2 0.500000 0.929638 0.296725
Si Si3 0.713821 0.429727 0.354191
Si Si4 0.298281 0.918775 0.212254
Si Si5 0.381526 0.070660 0.279030
Si Si6 0.711208 0.580413 0.453911
Si Si7 0.500000 0.075415 0.392181
O O1 0.049794 0.250000 0.953327
O O2 0.144777 0.098961 0.963342
O O3 0.059190 0.993824 0.911341
O O4 0.049782 0.000000 0.000000
O O5 0.500000 0.750000 0.308022
O O6 0.440261 0.974503 0.272155
O O7 0.500000 0.043551 0.339038
O O8 0.720030 0.250000 0.352368
O O9 0.770793 0.503612 0.332649
O O10 0.655961 0.476543 0.325098
O O11 0.715451 0.482536 0.407303
O O12 0.322434 0.750000 0.199714
O O13 0.250000 0.898869 0.250000
O O14 0.347084 0.028930 0.232571
O O15 0.394575 0.250000 0.280030
O O16 0.738557 0.500000 0.500000
O O17 0.738460 0.750000 0.447937
O O18 0.500000 0.250000 0.403309
#
# Coordination Sequence:
#
# PCOD8298443 Si02
#       7
#    16   8  16  16  16  16   8
#     4  10  20  33  46  59  77 104 140 183 228 270
#     4  12  24  35  47  64  88 118 150 185 228 274
#     4  10  19  31  49  70  92 119 152 190 230 273
#     4   9  17  30  49  71  93 117 148 186 226 269
#     4  10  20  34  50  69  93 120 152 189 231 276
#     4  10  20  32  46  63  85 113 145 182 225 272
#     4  12  23  33  44  58  77 104 142 185 227 268
#
# _framework density 16.195561999999999
#
# number of rings (size 3 to 8) (size 9 to 14) (size 15 to 20)
#    0.000    1.833    0.000    5.250    0.000    8.667 
#    0.000    0.000    0.000    0.000    0.000    0.000 
#    0.000    0.000    0.000    0.750    0.000   10.500 
#
# Total GULP energy -594673.794974 kJ/mol
# GULP energy per Si atom -12389.037395 kJ/mol
# Density = 1.615870 g / cm^3
# Si number density = 16.195562 Si / 1000 Ang^3
#
#
#
# Elastic Constant Matrix: (Units=GPa)
#
#
# Indices 1 2 3 4 5 6 
#
# 1 48.8353 20.6371 31.1640 0.0000 0.0000 0.0000
# 2 20.6371 114.0013 28.9031 0.0000 0.0000 0.0000
# 3 31.1640 28.9031 72.1164 0.0000 0.0000 0.0000
# 4 0.0000 0.0000 0.0000 27.6747 0.0000 0.0000
# 5 0.0000 0.0000 0.0000 0.0000 23.3215 0.0000
# 6 0.0000 0.0000 0.0000 0.0000 0.0000 24.8660
#
#
#
# Elastic Compliance Matrix: (Units=1/GPa)
#
#
# Indices 1 2 3 4 5 6 
#
# 1 0.028802 -0.002291 -0.011528 0.000000 0.000000 0.000000
# 2 -0.002291 0.009946 -0.002996 0.000000 0.000000 0.000000
# 3 -0.011528 -0.002996 0.020049 0.000000 0.000000 0.000000
# 4 0.000000 0.000000 0.000000 0.036134 0.000000 0.000000
# 5 0.000000 0.000000 0.000000 0.000000 0.042879 0.000000
# 6 0.000000 0.000000 0.000000 0.000000 0.000000 0.040216
#
#
# Mechanical properties :
#
#
# Convention : Reuss Voigt Hill
#
# Bulk Modulus (GPa) = 39.73573 44.04015 41.88794
# Shear Modulus (GPa) = 22.72268 25.45572 24.08920
#
# Velocity S-wave (km/s) = 3.74975 3.96886 3.86086
# Velocity P-wave (km/s) = 6.58299 6.94652 6.76720
#
# Compressibility (1/GPa) = 0.02516626
#
# Stress axis : x y z
#
# Youngs Moduli (GPa) = 34.72022 100.54075 49.87803
#
# Poissons Ratio (x) = 0.23035 0.57499
# Poissons Ratio (y) = 0.07955 0.14945
# Poissons Ratio (z) = 0.40025 0.30124
#
# Static dielectric constant tensor:
#      x y z
#    x 3.033230 0.000000 0.000000 
#    y 0.000000 3.494470 0.000000 
#    z 0.000000 0.000000 3.018670 
# 
# 
# High freq. dielectric constant tensor:
#      x y z
#    x 1.580310 0.000000 0.000000 
#    y 0.000000 1.648250 0.000000 
#    z 0.000000 0.000000 1.602670 
# 
# From -- ./inp_files/68591.got.cif
#   From: 2010.03.12/outbox.cif.g09.slc.cpg/sg74_35_cif.got.tgz:68591.got - 2010.04.16 15:46:19.
