data_PCOD8298008
_publ_section_title
;
Structure prediction by ZEFSAII (Michael W. Deem and Ramdas Pophale) SiO2 
 PCOD8298008
Probable space group: I M M A
;
_chemical_formula_sum "Si O2"
_cell_formula_units_Z 88
_cell_length_a 18.021706
_cell_length_b 8.794874
_cell_length_c 29.738871
_cell_angle_alpha 90.000000
_cell_angle_beta 90.000000
_cell_angle_gamma 90.000000
_cell_volume 4713.570416
_symmetry_space_group_name_H-M "I M M A"
_symmetry_group_IT_number 74
_symmetry_cell_setting 'orthorhombic'
loop_
_space_group_symop_operation_xyz
x,y,z
-x,1/2-y,z
x,-y,-z
-x,1/2+y,-z
-x,-y,-z
x,1/2+y,-z
-x,y,z
x,1/2-y,z
1/2+x,1/2+y,1/2+z
1/2-x,-y,1/2+z
1/2+x,1/2-y,1/2-z
1/2-x,y,1/2-z
1/2-x,1/2-y,1/2-z
1/2+x,y,1/2-z
1/2-x,1/2+y,1/2+z
1/2+x,-y,1/2+z
loop_
_atom_site_type_symbol
_atom_site_label
_atom_site_fract_x
_atom_site_fract_y
_atom_site_fract_z
Si Si1 0.700218 0.077661 0.206104
Si Si2 0.649359 0.570168 0.048764
Si Si3 0.727161 0.428269 0.620187
Si Si4 0.585368 0.579154 0.261037
Si Si5 0.416281 0.070946 0.355351
Si Si6 0.500000 0.931739 0.950260
O O1 0.681054 0.250000 0.193157
O O2 0.750000 0.066897 0.250000
O O3 0.741450 0.000849 0.165103
O O4 0.624960 0.987620 0.216977
O O5 0.637268 0.750000 0.044689
O O6 0.720695 0.527717 0.078485
O O7 0.575858 0.495659 0.072191
O O8 0.664084 0.500000 0.000000
O O9 0.722787 0.250000 0.626755
O O10 0.643717 0.492192 0.611665
O O11 0.500000 0.578675 0.248232
O O12 0.613381 0.750000 0.271498
O O13 0.601744 0.475727 0.304313
O O14 0.500000 0.019365 0.368744
O O15 0.407295 0.250000 0.359280
O O16 0.500000 0.750000 0.950014
O O17 0.500000 0.000000 0.000000
#
# Coordination Sequence:
#
# PCOD8298008 Si02
#       6
#    16  16  16  16  16   8
#     4  11  22  35  53  78 108 145 183 224 271 319
#     4  10  21  38  60  86 113 144 181 225 273 323
#     4  11  23  37  57  83 110 144 183 225 275 327
#     4  10  20  34  53  75 102 141 184 225 270 318
#     4  10  20  34  54  80 109 142 182 227 271 321
#     4  10  18  32  58  86 112 146 182 220 268 320
#
# _framework density 18.669498999999998
#
# number of rings (size 3 to 8) (size 9 to 14) (size 15 to 20)
#    0.000    1.636    1.818    4.636    0.000    5.818 
#    1.636    0.000    0.000    0.545    0.000    0.000 
#    0.000    0.000    0.000    0.000    0.000    0.000 
#
# Total GULP energy -545580.060855 kJ/mol
# GULP energy per Si atom -12399.546838 kJ/mol
# Density = 1.862701 g / cm^3
# Si number density = 18.669499 Si / 1000 Ang^3
#
#
#
# Elastic Constant Matrix: (Units=GPa)
#
#
# Indices 1 2 3 4 5 6 
#
# 1 124.7878 68.5263 54.7847 0.0000 0.0000 0.0000
# 2 68.5263 115.4685 38.6151 0.0000 0.0000 0.0000
# 3 54.7847 38.6151 59.9000 0.0000 0.0000 0.0000
# 4 0.0000 0.0000 0.0000 24.4202 0.0000 0.0000
# 5 0.0000 0.0000 0.0000 0.0000 44.1980 0.0000
# 6 0.0000 0.0000 0.0000 0.0000 0.0000 36.1962
#
#
#
# Elastic Compliance Matrix: (Units=1/GPa)
#
#
# Indices 1 2 3 4 5 6 
#
# 1 0.015999 -0.005866 -0.010851 0.000000 0.000000 0.000000
# 2 -0.005866 0.013191 -0.003139 0.000000 0.000000 0.000000
# 3 -0.010851 -0.003139 0.028642 0.000000 0.000000 0.000000
# 4 0.000000 0.000000 0.000000 0.040950 0.000000 0.000000
# 5 0.000000 0.000000 0.000000 0.000000 0.022625 0.000000
# 6 0.000000 0.000000 0.000000 0.000000 0.000000 0.027627
#
#
# Mechanical properties :
#
#
# Convention : Reuss Voigt Hill
#
# Bulk Modulus (GPa) = 55.18523 69.33426 62.25975
# Shear Modulus (GPa) = 25.66919 30.17823 27.92371
#
# Velocity S-wave (km/s) = 3.71202 4.02487 3.87161
# Velocity P-wave (km/s) = 6.92787 7.66927 7.30798
#
# Compressibility (1/GPa) = 0.01812079
#
# Stress axis : x y z
#
# Youngs Moduli (GPa) = 62.50578 75.80790 34.91337
#
# Poissons Ratio (x) = 0.44467 0.37884
# Poissons Ratio (y) = 0.36664 0.10959
# Poissons Ratio (z) = 0.67824 0.23796
#
# Static dielectric constant tensor:
#      x y z
#    x 4.090740 0.000000 0.000000 
#    y 0.000000 3.651560 0.000000 
#    z 0.000000 0.000000 3.266030 
# 
# 
# High freq. dielectric constant tensor:
#      x y z
#    x 1.744260 0.000000 0.000000 
#    y 0.000000 1.744910 0.000000 
#    z 0.000000 0.000000 1.677950 
# 
# From -- ./inp_files/72965.got.cif
#   From: 2010.03.12/outbox.cif.g09.slc.cpg/sg74_37_cif.got.tgz:72965.got - 2010.04.16 15:46:19.
