data_PCOD8298605
_publ_section_title
;
Structure prediction by ZEFSAII (Michael W. Deem and Ramdas Pophale) SiO2 
 PCOD8298605
Probable space group: I M M A
;
_chemical_formula_sum "Si O2"
_cell_formula_units_Z 112
_cell_length_a 34.736606
_cell_length_b 34.722530
_cell_length_c 5.101555
_cell_angle_alpha 90.000000
_cell_angle_beta 90.000000
_cell_angle_gamma 90.000000
_cell_volume 6153.204056
_symmetry_space_group_name_H-M "I M M A"
_symmetry_group_IT_number 74
_symmetry_cell_setting 'orthorhombic'
loop_
_space_group_symop_operation_xyz
x,y,z
-x,1/2-y,z
x,-y,-z
-x,1/2+y,-z
-x,-y,-z
x,1/2+y,-z
-x,y,z
x,1/2-y,z
1/2+x,1/2+y,1/2+z
1/2-x,-y,1/2+z
1/2+x,1/2-y,1/2-z
1/2-x,y,1/2-z
1/2-x,1/2-y,1/2-z
1/2+x,y,1/2-z
1/2-x,1/2+y,1/2+z
1/2+x,-y,1/2+z
loop_
_atom_site_type_symbol
_atom_site_label
_atom_site_fract_x
_atom_site_fract_y
_atom_site_fract_z
Si Si1 0.880841 0.129959 0.738814
Si Si2 0.956107 0.791910 0.643334
Si Si3 0.794414 0.525312 0.749171
Si Si4 0.338322 0.604474 0.745599
Si Si5 0.956064 0.160762 0.872142
Si Si6 0.794756 0.180690 0.291896
Si Si7 0.662464 0.206658 0.716423
O O1 0.871619 0.110056 0.462291
O O2 0.926751 0.126239 0.794656
O O3 0.871530 0.175885 0.731731
O O4 0.856084 0.108735 0.958477
O O5 0.935545 0.750000 0.659349
O O6 0.953542 0.806703 0.348794
O O7 0.000000 0.786970 0.731866
O O8 0.938922 0.821704 0.856020
O O9 0.804467 0.500000 0.500000
O O10 0.750000 0.538365 0.750000
O O11 0.820802 0.562491 0.736298
O O12 0.804810 0.500000 0.000000
O O13 0.304543 0.635313 0.794958
O O14 0.000000 0.144837 0.898288
O O15 0.750000 0.186596 0.250000
O O16 0.804314 0.199761 0.569901
O O17 0.819327 0.201811 0.069568
O O18 0.645812 0.250000 0.740899
#
# Coordination Sequence:
#
# PCOD8298605 Si02
#       7
#    16  16  16  16  16  16  16
#     4  10  21  35  50  70  98 136 170 204 255 303
#     4   9  17  28  43  65  91 120 157 207 268 320
#     4  10  20  34  56  86 114 138 164 196 235 284
#     4  10  20  36  53  73 106 135 162 195 239 302
#     4  10  19  32  49  69  94 123 166 218 257 302
#     4  10  20  33  50  68  89 126 168 204 246 288
#     4  10  21  33  45  65  92 124 166 215 257 288
#
# _framework density 18.201900999999999
#
# number of rings (size 3 to 8) (size 9 to 14) (size 15 to 20)
#    0.000    2.143    0.000    3.429    0.000    4.571 
#    0.000    4.286    0.000    0.000    0.000    0.000 
#    0.000   11.429    0.000    0.000    0.000    0.000 
#
# Total GULP energy -694370.926652 kJ/mol
# GULP energy per Si atom -12399.480833 kJ/mol
# Density = 1.816047 g / cm^3
# Si number density = 18.201901 Si / 1000 Ang^3
#
#
#
# Elastic Constant Matrix: (Units=GPa)
#
#
# Indices 1 2 3 4 5 6 
#
# 1 59.7681 28.2335 -6.0344 0.0000 0.0000 0.0000
# 2 28.2335 100.1827 19.3219 0.0000 0.0000 0.0000
# 3 -6.0344 19.3219 76.9458 0.0000 0.0000 0.0000
# 4 0.0000 0.0000 0.0000 37.2688 0.0000 0.0000
# 5 0.0000 0.0000 0.0000 0.0000 18.5963 0.0000
# 6 0.0000 0.0000 0.0000 0.0000 0.0000 13.4778
#
#
#
# Elastic Compliance Matrix: (Units=1/GPa)
#
#
# Indices 1 2 3 4 5 6 
#
# 1 0.019995 -0.006240 0.003135 0.000000 0.000000 0.000000
# 2 -0.006240 0.012437 -0.003612 0.000000 0.000000 0.000000
# 3 0.003135 -0.003612 0.014149 0.000000 0.000000 0.000000
# 4 0.000000 0.000000 0.000000 0.026832 0.000000 0.000000
# 5 0.000000 0.000000 0.000000 0.000000 0.053774 0.000000
# 6 0.000000 0.000000 0.000000 0.000000 0.000000 0.074196
#
#
# Mechanical properties :
#
#
# Convention : Reuss Voigt Hill
#
# Bulk Modulus (GPa) = 30.16847 35.54873 32.85860
# Shear Modulus (GPa) = 22.13692 26.89363 24.51528
#
# Velocity S-wave (km/s) = 3.49117 3.84802 3.67393
# Velocity P-wave (km/s) = 5.73248 6.27022 6.00737
#
# Compressibility (1/GPa) = 0.03314719
#
# Stress axis : x y z
#
# Youngs Moduli (GPa) = 50.01146 80.40544 70.67572
#
# Poissons Ratio (x) = 0.50171 -0.22157
# Poissons Ratio (y) = 0.31206 0.25531
# Poissons Ratio (z) = -0.15679 0.29046
#
# Static dielectric constant tensor:
#      x y z
#    x 3.268310 0.000000 0.000000 
#    y 0.000000 3.069820 0.000000 
#    z 0.000000 0.000000 3.576310 
# 
# 
# High freq. dielectric constant tensor:
#      x y z
#    x 1.693050 0.000000 0.000000 
#    y 0.000000 1.666050 0.000000 
#    z 0.000000 0.000000 1.732000 
# 
# From -- ./inp_files/5328.got.cif
#   From: 2010.03.12/outbox.cif.g09.slc.cpg/sg74_3_cif.got.tgz:5328.got - 2010.04.16 15:46:19.
