data_PCOD8298998
_publ_section_title
;
Structure prediction by ZEFSAII (Michael W. Deem and Ramdas Pophale) SiO2 
 PCOD8298998
Probable space group: I M M A
;
_chemical_formula_sum "Si O2"
_cell_formula_units_Z 104
_cell_length_a 21.162259
_cell_length_b 8.683954
_cell_length_c 28.291641
_cell_angle_alpha 90.000000
_cell_angle_beta 90.000000
_cell_angle_gamma 90.000000
_cell_volume 5199.213818
_symmetry_space_group_name_H-M "I M M A"
_symmetry_group_IT_number 74
_symmetry_cell_setting 'orthorhombic'
loop_
_space_group_symop_operation_xyz
x,y,z
-x,1/2-y,z
x,-y,-z
-x,1/2+y,-z
-x,-y,-z
x,1/2+y,-z
-x,y,z
x,1/2-y,z
1/2+x,1/2+y,1/2+z
1/2-x,-y,1/2+z
1/2+x,1/2-y,1/2-z
1/2-x,y,1/2-z
1/2-x,1/2-y,1/2-z
1/2+x,y,1/2-z
1/2-x,1/2+y,1/2+z
1/2+x,-y,1/2+z
loop_
_atom_site_type_symbol
_atom_site_label
_atom_site_fract_x
_atom_site_fract_y
_atom_site_fract_z
Si Si1 0.263306 0.067903 0.866306
Si Si2 0.323740 0.424124 0.549023
Si Si3 0.100047 0.568037 0.623543
Si Si4 0.068751 0.567357 0.727546
Si Si5 0.571957 0.427445 0.616785
Si Si6 0.000000 0.067143 0.552960
Si Si7 0.659143 0.069703 0.307569
O O1 0.275208 0.250000 0.864311
O O2 0.220159 0.010711 0.909505
O O3 0.327142 0.977192 0.875288
O O4 0.225393 0.016824 0.818665
O O5 0.308314 0.500000 0.500000
O O6 0.305281 0.250000 0.541364
O O7 0.396481 0.446937 0.565000
O O8 0.092288 0.750000 0.616861
O O9 0.072725 0.510329 0.673613
O O10 0.062773 0.486831 0.580838
O O11 0.072278 0.750000 0.729203
O O12 0.127496 0.504691 0.758876
O O13 0.000000 0.511758 0.747354
O O14 0.500000 0.478352 0.612074
O O15 0.579997 0.250000 0.633741
O O16 0.606077 0.539860 0.653105
O O17 0.000000 0.250000 0.549376
O O18 0.000000 0.000000 0.500000
O O19 0.674073 0.250000 0.304311
#
# Coordination Sequence:
#
# PCOD8298998 Si02
#       7
#    16  16  16  16  16   8  16
#     4  10  22  40  57  80 119 157 193 243 301 359
#     4   9  19  34  52  73 102 141 183 233 288 343
#     4  11  22  41  67  92 120 155 195 241 298 357
#     4   9  18  34  58  87 121 156 193 241 297 353
#     4   9  18  33  50  72 109 150 185 231 293 348
#     4  12  26  46  70  98 128 160 200 248 303 364
#     4  10  19  33  56  85 114 153 203 244 284 343
#
# _framework density 20.003024
#
# number of rings (size 3 to 8) (size 9 to 14) (size 15 to 20)
#    0.000    2.154    0.769    3.462    0.000    5.538 
#    0.000    7.692    0.000    0.000    0.000    0.000 
#    0.000    0.000    0.000    0.000    0.000    0.000 
#
# Total GULP energy -644507.967399 kJ/mol
# GULP energy per Si atom -12394.383988 kJ/mol
# Density = 1.995750 g / cm^3
# Si number density = 20.003024 Si / 1000 Ang^3
#
#
#
# Elastic Constant Matrix: (Units=GPa)
#
#
# Indices 1 2 3 4 5 6 
#
# 1 135.3356 27.5079 49.2370 0.0000 0.0000 0.0000
# 2 27.5079 60.8253 35.4890 0.0000 0.0000 0.0000
# 3 49.2370 35.4890 123.4593 0.0000 0.0000 0.0000
# 4 0.0000 0.0000 0.0000 26.4405 0.0000 0.0000
# 5 0.0000 0.0000 0.0000 0.0000 23.9826 0.0000
# 6 0.0000 0.0000 0.0000 0.0000 0.0000 31.7894
#
#
#
# Elastic Compliance Matrix: (Units=1/GPa)
#
#
# Indices 1 2 3 4 5 6 
#
# 1 0.008915 -0.002352 -0.002879 0.000000 0.000000 0.000000
# 2 -0.002352 0.020374 -0.004919 0.000000 0.000000 0.000000
# 3 -0.002879 -0.004919 0.010662 0.000000 0.000000 0.000000
# 4 0.000000 0.000000 0.000000 0.037821 0.000000 0.000000
# 5 0.000000 0.000000 0.000000 0.000000 0.041697 0.000000
# 6 0.000000 0.000000 0.000000 0.000000 0.000000 0.031457
#
#
# Mechanical properties :
#
#
# Convention : Reuss Voigt Hill
#
# Bulk Modulus (GPa) = 50.88731 60.45425 55.67078
# Shear Modulus (GPa) = 28.12550 30.26827 29.19688
#
# Velocity S-wave (km/s) = 3.75382 3.89419 3.82465
# Velocity P-wave (km/s) = 6.65456 7.10688 6.88444
#
# Compressibility (1/GPa) = 0.01965126
#
# Stress axis : x y z
#
# Youngs Moduli (GPa) = 112.17640 49.08240 93.79088
#
# Poissons Ratio (x) = 0.11542 0.27005
# Poissons Ratio (y) = 0.26380 0.46133
# Poissons Ratio (z) = 0.32298 0.24142
#
# Static dielectric constant tensor:
#      x y z
#    x 3.795420 0.000000 0.000000 
#    y 0.000000 3.523310 0.000000 
#    z 0.000000 0.000000 3.581350 
# 
# 
# High freq. dielectric constant tensor:
#      x y z
#    x 1.791590 0.000000 0.000000 
#    y 0.000000 1.765910 0.000000 
#    z 0.000000 0.000000 1.776540 
# 
# From -- ./inp_files/68271.got.cif
#   From: 2010.03.12/outbox.cif.g09.slc.cpg/sg74_35_cif.got.tgz:68271.got - 2010.04.16 15:46:19.
