data_PCOD8298952
_publ_section_title
;
Structure prediction by ZEFSAII (Michael W. Deem and Ramdas Pophale) SiO2 
 PCOD8298952
Probable space group: I M M A
;
_chemical_formula_sum "Si O2"
_cell_formula_units_Z 96
_cell_length_a 17.529539
_cell_length_b 25.364997
_cell_length_c 11.793343
_cell_angle_alpha 90.000000
_cell_angle_beta 90.000000
_cell_angle_gamma 90.000000
_cell_volume 5243.753162
_symmetry_space_group_name_H-M "I M M A"
_symmetry_group_IT_number 74
_symmetry_cell_setting 'orthorhombic'
loop_
_space_group_symop_operation_xyz
x,y,z
-x,1/2-y,z
x,-y,-z
-x,1/2+y,-z
-x,-y,-z
x,1/2+y,-z
-x,y,z
x,1/2-y,z
1/2+x,1/2+y,1/2+z
1/2-x,-y,1/2+z
1/2+x,1/2-y,1/2-z
1/2-x,y,1/2-z
1/2-x,1/2-y,1/2-z
1/2+x,y,1/2-z
1/2-x,1/2+y,1/2+z
1/2+x,-y,1/2+z
loop_
_atom_site_type_symbol
_atom_site_label
_atom_site_fract_x
_atom_site_fract_y
_atom_site_fract_z
Si Si1 0.161117 0.097604 0.238214
Si Si2 0.909456 0.503897 0.627151
Si Si3 0.590353 0.404637 0.735310
Si Si4 0.090764 0.308186 0.620545
Si Si5 0.912110 0.188819 0.364029
Si Si6 0.410565 0.938712 0.510847
O O1 0.250000 0.087617 0.250000
O O2 0.116453 0.058332 0.319715
O O3 0.139726 0.156564 0.276362
O O4 0.137299 0.088984 0.108667
O O5 0.877398 0.500000 0.500000
O O6 0.875583 0.455125 0.698944
O O7 0.000000 0.502596 0.628348
O O8 0.500000 0.405290 0.749069
O O9 0.624086 0.351173 0.791158
O O10 0.612929 0.408174 0.603778
O O11 0.122446 0.250000 0.653112
O O12 0.115192 0.323182 0.492635
O O13 0.000000 0.306834 0.625566
O O14 0.901008 0.250000 0.335255
O O15 0.000000 0.172079 0.348612
O O16 0.500000 0.933192 0.538071
O O17 0.388572 0.000000 0.500000
#
# Coordination Sequence:
#
# PCOD8298952 Si02
#       6
#    16  16  16  16  16  16
#     4  12  24  35  51  77 112 146 177 221 274 337
#     4  10  19  33  55  79 102 132 180 235 274 314
#     4   9  16  28  51  79 102 133 172 214 266 318
#     4   8  14  27  51  83 111 130 160 217 278 318
#     4   9  18  35  59  81 102 135 182 230 270 314
#     4  10  19  35  56  74 103 146 186 221 263 322
#
# _framework density 18.307497000000001
#
# number of rings (size 3 to 8) (size 9 to 14) (size 15 to 20)
#    0.000    2.333    1.667    3.500    0.000    3.667 
#    0.000    0.833    0.000    3.000    0.000    2.333 
#    0.000    0.000    0.000    0.000    0.000    0.000 
#
# Total GULP energy -595179.398991 kJ/mol
# GULP energy per Si atom -12399.570812 kJ/mol
# Density = 1.826583 g / cm^3
# Si number density = 18.307497 Si / 1000 Ang^3
#
#
#
# Elastic Constant Matrix: (Units=GPa)
#
#
# Indices 1 2 3 4 5 6 
#
# 1 19.4916 17.9039 35.6594 0.0000 0.0000 0.0000
# 2 17.9039 109.8173 70.3257 0.0000 0.0000 0.0000
# 3 35.6594 70.3257 149.9278 0.0000 0.0000 0.0000
# 4 0.0000 0.0000 0.0000 33.6217 0.0000 0.0000
# 5 0.0000 0.0000 0.0000 0.0000 6.8452 0.0000
# 6 0.0000 0.0000 0.0000 0.0000 0.0000 6.2216
#
#
#
# Elastic Compliance Matrix: (Units=1/GPa)
#
#
# Indices 1 2 3 4 5 6 
#
# 1 0.090974 -0.001394 -0.020984 0.000000 0.000000 0.000000
# 2 -0.001394 0.013037 -0.005784 0.000000 0.000000 0.000000
# 3 -0.020984 -0.005784 0.014374 0.000000 0.000000 0.000000
# 4 0.000000 0.000000 0.000000 0.029743 0.000000 0.000000
# 5 0.000000 0.000000 0.000000 0.000000 0.146089 0.000000
# 6 0.000000 0.000000 0.000000 0.000000 0.000000 0.160731
#
#
# Mechanical properties :
#
#
# Convention : Reuss Voigt Hill
#
# Bulk Modulus (GPa) = 16.11300 58.55720 37.33510
# Shear Modulus (GPa) = 9.39926 19.69418 14.54672
#
# Velocity S-wave (km/s) = 2.26831 3.28341 2.82188
# Velocity P-wave (km/s) = 3.95989 6.81390 5.57270
#
# Compressibility (1/GPa) = 0.06206168
#
# Stress axis : x y z
#
# Youngs Moduli (GPa) = 10.99218 76.70406 69.57184
#
# Poissons Ratio (x) = 0.10693 1.45987
# Poissons Ratio (y) = 0.01532 0.40238
# Poissons Ratio (z) = 0.23066 0.44363
#
# Static dielectric constant tensor:
#      x y z
#    x 2.877000 0.000000 0.000000 
#    y 0.000000 3.602530 0.000000 
#    z 0.000000 0.000000 3.539510 
# 
# 
# High freq. dielectric constant tensor:
#      x y z
#    x 1.657580 0.000000 0.000000 
#    y 0.000000 1.716270 0.000000 
#    z 0.000000 0.000000 1.717260 
# 
# From -- ./inp_files/22435.got.cif
#   From: 2010.03.12/outbox.cif.g09.slc.cpg/sg74_12_cif.got.tgz:22435.got - 2010.04.16 15:46:19.
