data_PCOD8298992
_publ_section_title
;
Structure prediction by ZEFSAII (Michael W. Deem and Ramdas Pophale) SiO2 
 PCOD8298992
Probable space group: I M M A
;
_chemical_formula_sum "Si O2"
_cell_formula_units_Z 112
_cell_length_a 15.788979
_cell_length_b 29.916876
_cell_length_c 11.807004
_cell_angle_alpha 90.000000
_cell_angle_beta 90.000000
_cell_angle_gamma 90.000000
_cell_volume 5577.120125
_symmetry_space_group_name_H-M "I M M A"
_symmetry_group_IT_number 74
_symmetry_cell_setting 'orthorhombic'
loop_
_space_group_symop_operation_xyz
x,y,z
-x,1/2-y,z
x,-y,-z
-x,1/2+y,-z
-x,-y,-z
x,1/2+y,-z
-x,y,z
x,1/2-y,z
1/2+x,1/2+y,1/2+z
1/2-x,-y,1/2+z
1/2+x,1/2-y,1/2-z
1/2-x,y,1/2-z
1/2-x,1/2-y,1/2-z
1/2+x,y,1/2-z
1/2-x,1/2+y,1/2+z
1/2+x,-y,1/2+z
loop_
_atom_site_type_symbol
_atom_site_label
_atom_site_fract_x
_atom_site_fract_y
_atom_site_fract_z
Si Si1 0.100739 0.201327 0.758670
Si Si2 0.297844 0.933755 0.985721
Si Si3 0.095307 0.800560 0.989659
Si Si4 0.899674 0.894286 0.310777
Si Si5 0.191101 0.370264 0.153736
Si Si6 0.598658 0.452123 0.232328
Si Si7 0.677873 0.533444 0.336083
O O1 0.132504 0.250000 0.709524
O O2 0.130356 0.157929 0.687151
O O3 0.000000 0.202902 0.764508
O O4 0.136993 0.195416 0.885760
O O5 0.253193 0.889702 0.940585
O O6 0.346680 0.959743 0.883964
O O7 0.366010 0.919483 0.079163
O O8 0.221559 0.963517 0.039930
O O9 0.099414 0.750000 0.945919
O O10 0.140218 0.829811 0.896603
O O11 0.000000 0.818224 0.997683
O O12 0.863898 0.918806 0.198134
O O13 0.000000 0.897875 0.309812
O O14 0.250000 0.349312 0.250000
O O15 0.128429 0.407516 0.204915
O O16 0.500000 0.448313 0.200010
O O17 0.610424 0.493130 0.321306
O O18 0.750000 0.519565 0.250000
#
# Coordination Sequence:
#
# PCOD8298992 Si02
#       7
#    16  16  16  16  16  16  16
#     4   8  15  29  51  79 109 139 175 223 274 321
#     4  10  22  39  57  79 112 149 179 221 282 335
#     4   9  17  32  55  80 107 144 188 233 282 335
#     4  10  19  33  56  84 111 145 189 229 268 327
#     4  10  21  36  55  79 110 145 182 231 286 333
#     4  11  23  40  60  83 109 144 191 231 270 329
#     4  10  21  36  55  80 111 142 177 222 274 325
#
# _framework density 20.082049999999999
#
# number of rings (size 3 to 8) (size 9 to 14) (size 15 to 20)
#    0.000    2.286    0.000    4.286    0.000    5.429 
#    0.000    7.143    0.000    6.429    0.000    8.000 
#    0.000    0.000    0.000    0.000    0.000    0.000 
#
# Total GULP energy -693935.219267 kJ/mol
# GULP energy per Si atom -12391.700344 kJ/mol
# Density = 2.003634 g / cm^3
# Si number density = 20.082050 Si / 1000 Ang^3
#
#
#
# Elastic Constant Matrix: (Units=GPa)
#
#
# Indices 1 2 3 4 5 6 
#
# 1 80.9311 29.2985 26.7636 0.0006 -0.0001 0.0000
# 2 29.2985 103.8449 22.3092 0.0013 -0.0004 0.0001
# 3 26.7636 22.3092 56.8574 -0.0043 -0.0018 0.0003
# 4 0.0006 0.0013 -0.0043 21.5252 -0.0004 0.0000
# 5 -0.0001 -0.0004 -0.0018 -0.0004 29.1969 0.0000
# 6 0.0000 0.0001 0.0003 0.0000 0.0000 29.8949
#
#
#
# Elastic Compliance Matrix: (Units=1/GPa)
#
#
# Indices 1 2 3 4 5 6 
#
# 1 0.015476 -0.003059 -0.006084 -0.000002 0.000000 0.000000
# 2 -0.003059 0.011121 -0.002924 -0.000001 0.000000 0.000000
# 3 -0.006084 -0.002924 0.021599 0.000005 0.000001 0.000000
# 4 -0.000002 -0.000001 0.000005 0.046457 0.000001 0.000000
# 5 0.000000 0.000000 0.000001 0.000001 0.034250 0.000000
# 6 0.000000 0.000000 0.000000 0.000000 0.000000 0.033450
#
#
# Mechanical properties :
#
#
# Convention : Reuss Voigt Hill
#
# Bulk Modulus (GPa) = 41.56008 44.26400 42.91204
# Shear Modulus (GPa) = 25.70587 27.00754 26.35670
#
# Velocity S-wave (km/s) = 3.58165 3.67121 3.62671
# Velocity P-wave (km/s) = 6.15178 6.32928 6.24116
#
# Compressibility (1/GPa) = 0.02406155
#
# Stress axis : x y z
#
# Youngs Moduli (GPa) = 64.61736 89.92060 46.29852
#
# Poissons Ratio (x) = 0.27508 0.28169
# Poissons Ratio (y) = 0.19768 0.13536
# Poissons Ratio (z) = 0.39315 0.26289
#
# Static dielectric constant tensor:
#      x y z
#    x 3.627300 0.000000 0.000000 
#    y 0.000000 3.770220 0.000000 
#    z 0.000000 0.000000 3.718650 
# 
# 
# High freq. dielectric constant tensor:
#      x y z
#    x 1.776180 0.000000 0.000000 
#    y 0.000000 1.789920 0.000000 
#    z 0.000000 0.000000 1.771450 
# 
# From -- ./inp_files/21165.got.cif
#   From: 2010.03.12/outbox.cif.g09.slc.cpg/sg74_11_cif.got.tgz:21165.got - 2010.04.16 15:46:19.
