data_PCOD8298770
_publ_section_title
;
Structure prediction by ZEFSAII (Michael W. Deem and Ramdas Pophale) SiO2 
 PCOD8298770
Probable space group: I M M A
;
_chemical_formula_sum "Si O2"
_cell_formula_units_Z 96
_cell_length_a 25.439682
_cell_length_b 8.718844
_cell_length_c 20.413403
_cell_angle_alpha 90.000000
_cell_angle_beta 90.000000
_cell_angle_gamma 90.000000
_cell_volume 4527.787070
_symmetry_space_group_name_H-M "I M M A"
_symmetry_group_IT_number 74
_symmetry_cell_setting 'orthorhombic'
loop_
_space_group_symop_operation_xyz
x,y,z
-x,1/2-y,z
x,-y,-z
-x,1/2+y,-z
-x,-y,-z
x,1/2+y,-z
-x,y,z
x,1/2-y,z
1/2+x,1/2+y,1/2+z
1/2-x,-y,1/2+z
1/2+x,1/2-y,1/2-z
1/2-x,y,1/2-z
1/2-x,1/2-y,1/2-z
1/2+x,y,1/2-z
1/2-x,1/2+y,1/2+z
1/2+x,-y,1/2+z
loop_
_atom_site_type_symbol
_atom_site_label
_atom_site_fract_x
_atom_site_fract_y
_atom_site_fract_z
Si Si1 0.559323 0.072473 0.184615
Si Si2 0.699197 0.586284 0.213328
Si Si3 0.379081 0.572642 0.064307
Si Si4 0.153687 0.431905 0.068405
Si Si5 0.893779 0.570115 0.194864
Si Si6 0.273781 0.426010 0.090666
O O1 0.500000 0.048946 0.158802
O O2 0.574663 0.250000 0.187905
O O3 0.599363 0.992101 0.133597
O O4 0.561266 0.002355 0.258514
O O5 0.679540 0.750000 0.179023
O O6 0.750000 0.638662 0.250000
O O7 0.658471 0.527372 0.266241
O O8 0.712808 0.444393 0.166934
O O9 0.391037 0.750000 0.061392
O O10 0.316814 0.534733 0.055878
O O11 0.407510 0.500000 0.000000
O O12 0.150583 0.250000 0.068140
O O13 0.113572 0.493978 0.123648
O O14 0.214512 0.486063 0.077480
O O15 0.133045 0.500000 0.000000
O O16 0.904171 0.750000 0.185207
O O17 0.280991 0.250000 0.069170
#
# Coordination Sequence:
#
# PCOD8298770 Si02
#       6
#    16  16  16  16  16  16
#     4  11  25  45  68  93 120 152 197 253 309 366
#     4  10  19  32  53  83 118 158 200 243 292 348
#     4  12  25  41  62  88 123 165 207 252 301 356
#     4  11  24  39  58  88 126 168 209 251 299 359
#     4  11  22  38  63  91 121 159 201 251 306 363
#     4  11  22  35  56  86 123 166 208 248 290 346
#
# _framework density 21.202408999999999
#
# number of rings (size 3 to 8) (size 9 to 14) (size 15 to 20)
#    0.000    1.000    3.333    4.000    0.000    6.000 
#    0.000    0.000    0.000    0.500    0.000    0.000 
#    0.000    0.000    0.000    0.000    0.000    0.000 
#
# Total GULP energy -594762.257709 kJ/mol
# GULP energy per Si atom -12390.880369 kJ/mol
# Density = 2.115415 g / cm^3
# Si number density = 21.202409 Si / 1000 Ang^3
#
#
#
# Elastic Constant Matrix: (Units=GPa)
#
#
# Indices 1 2 3 4 5 6 
#
# 1 50.2489 27.0469 17.9494 0.0000 0.0000 0.0000
# 2 27.0469 135.7857 58.8825 0.0000 0.0000 0.0000
# 3 17.9494 58.8825 151.4821 0.0000 0.0000 0.0000
# 4 0.0000 0.0000 0.0000 40.1758 0.0000 0.0000
# 5 0.0000 0.0000 0.0000 0.0000 10.5902 0.0000
# 6 0.0000 0.0000 0.0000 0.0000 0.0000 16.4558
#
#
#
# Elastic Compliance Matrix: (Units=1/GPa)
#
#
# Indices 1 2 3 4 5 6 
#
# 1 0.022445 -0.003990 -0.001109 0.000000 0.000000 0.000000
# 2 -0.003990 0.009567 -0.003246 0.000000 0.000000 0.000000
# 3 -0.001109 -0.003246 0.007995 0.000000 0.000000 0.000000
# 4 0.000000 0.000000 0.000000 0.024891 0.000000 0.000000
# 5 0.000000 0.000000 0.000000 0.000000 0.094427 0.000000
# 6 0.000000 0.000000 0.000000 0.000000 0.000000 0.060769
#
#
# Mechanical properties :
#
#
# Convention : Reuss Voigt Hill
#
# Bulk Modulus (GPa) = 42.88719 60.58603 51.73661
# Shear Modulus (GPa) = 20.44544 29.02022 24.73283
#
# Velocity S-wave (km/s) = 3.10868 3.70364 3.41913
# Velocity P-wave (km/s) = 5.75818 6.85028 6.32784
#
# Compressibility (1/GPa) = 0.02331699
#
# Stress axis : x y z
#
# Youngs Moduli (GPa) = 44.55427 104.52718 125.08555
#
# Poissons Ratio (x) = 0.41706 0.13866
# Poissons Ratio (y) = 0.17777 0.40602
# Poissons Ratio (z) = 0.04939 0.33929
#
# Static dielectric constant tensor:
#      x y z
#    x 3.561360 0.000000 0.000000 
#    y 0.000000 3.789240 0.000000 
#    z 0.000000 0.000000 4.071850 
# 
# 
# High freq. dielectric constant tensor:
#      x y z
#    x 1.797720 0.000000 0.000000 
#    y 0.000000 1.841070 0.000000 
#    z 0.000000 0.000000 1.840750 
# 
# From -- ./inp_files/55102.got.cif
#   From: 2010.03.12/outbox.cif.g09.slc.cpg/sg74_28_cif.got.tgz:55102.got - 2010.04.16 15:46:19.
