data_PCOD8298424
_publ_section_title
;
Structure prediction by ZEFSAII (Michael W. Deem and Ramdas Pophale) SiO2 
 PCOD8298424
Probable space group: I M M A
;
_chemical_formula_sum "Si O2"
_cell_formula_units_Z 64
_cell_length_a 27.843307
_cell_length_b 8.742602
_cell_length_c 14.583367
_cell_angle_alpha 90.000000
_cell_angle_beta 90.000000
_cell_angle_gamma 90.000000
_cell_volume 3549.926237
_symmetry_space_group_name_H-M "I M M A"
_symmetry_group_IT_number 74
_symmetry_cell_setting 'orthorhombic'
loop_
_space_group_symop_operation_xyz
x,y,z
-x,1/2-y,z
x,-y,-z
-x,1/2+y,-z
-x,-y,-z
x,1/2+y,-z
-x,y,z
x,1/2-y,z
1/2+x,1/2+y,1/2+z
1/2-x,-y,1/2+z
1/2+x,1/2-y,1/2-z
1/2-x,y,1/2-z
1/2-x,1/2-y,1/2-z
1/2+x,y,1/2-z
1/2-x,1/2+y,1/2+z
1/2+x,-y,1/2+z
loop_
_atom_site_type_symbol
_atom_site_label
_atom_site_fract_x
_atom_site_fract_y
_atom_site_fract_z
Si Si1 0.823657 0.930594 0.403329
Si Si2 0.945743 0.569784 0.904241
Si Si3 0.278291 0.429972 0.404377
Si Si4 0.636014 0.570828 0.731198
O O1 0.820724 0.750000 0.412439
O O2 0.840590 0.000000 0.500000
O O3 0.771919 0.996245 0.374121
O O4 0.862049 0.978748 0.326258
O O5 0.941839 0.750000 0.915043
O O6 0.911164 0.513192 0.822859
O O7 0.000000 0.516881 0.881162
O O8 0.928056 0.500000 0.000000
O O9 0.296437 0.500000 0.500000
O O10 0.270723 0.250000 0.416481
O O11 0.317198 0.469289 0.327974
O O12 0.633196 0.750000 0.752853
#
# Coordination Sequence:
#
# PCOD8298424 Si02
#       4
#    16  16  16  16
#     4  11  22  35  51  70  96 130 167 207 247 290
#     4   9  18  33  53  77 105 134 162 197 242 290
#     4  10  19  31  48  71 102 135 165 201 242 287
#     4  10  20  33  50  73 101 132 166 203 244 289
#
# _framework density 18.028544
#
# number of rings (size 3 to 8) (size 9 to 14) (size 15 to 20)
#    0.000    2.000    0.000    6.000    0.000    6.000 
#    0.000    0.000    0.000    0.750    0.000    0.000 
#    0.000    0.000    0.000    0.000    0.000    0.000 
#
# Total GULP energy -396880.732958 kJ/mol
# GULP energy per Si atom -12402.522905 kJ/mol
# Density = 1.798751 g / cm^3
# Si number density = 18.028544 Si / 1000 Ang^3
#
#
#
# Elastic Constant Matrix: (Units=GPa)
#
#
# Indices 1 2 3 4 5 6 
#
# 1 88.7021 39.2257 77.2234 0.0000 0.0000 0.0000
# 2 39.2257 83.7637 53.4657 0.0000 0.0000 0.0000
# 3 77.2234 53.4657 140.1383 0.0000 0.0000 0.0000
# 4 0.0000 0.0000 0.0000 34.5093 0.0000 0.0000
# 5 0.0000 0.0000 0.0000 0.0000 28.0186 0.0000
# 6 0.0000 0.0000 0.0000 0.0000 0.0000 19.0313
#
#
#
# Elastic Compliance Matrix: (Units=1/GPa)
#
#
# Indices 1 2 3 4 5 6 
#
# 1 0.022400 -0.003451 -0.011027 0.000000 0.000000 0.000000
# 2 -0.003451 0.016313 -0.004322 0.000000 0.000000 0.000000
# 3 -0.011027 -0.004322 0.014861 0.000000 0.000000 0.000000
# 4 0.000000 0.000000 0.000000 0.028978 0.000000 0.000000
# 5 0.000000 0.000000 0.000000 0.000000 0.035691 0.000000
# 6 0.000000 0.000000 0.000000 0.000000 0.000000 0.052545
#
#
# Mechanical properties :
#
#
# Convention : Reuss Voigt Hill
#
# Bulk Modulus (GPa) = 62.60170 72.49265 67.54718
# Shear Modulus (GPa) = 23.39603 25.82445 24.61024
#
# Velocity S-wave (km/s) = 3.60630 3.78884 3.69869
# Velocity P-wave (km/s) = 7.22077 7.70958 7.46918
#
# Compressibility (1/GPa) = 0.01597401
#
# Stress axis : x y z
#
# Youngs Moduli (GPa) = 44.64372 61.29983 67.29047
#
# Poissons Ratio (x) = 0.21157 0.74198
# Poissons Ratio (y) = 0.15408 0.29083
# Poissons Ratio (z) = 0.49227 0.26494
#
# Static dielectric constant tensor:
#      x y z
#    x 3.372650 0.000000 0.000000 
#    y 0.000000 3.310280 0.000000 
#    z 0.000000 0.000000 3.386600 
# 
# 
# High freq. dielectric constant tensor:
#      x y z
#    x 1.677530 0.000000 0.000000 
#    y 0.000000 1.701220 0.000000 
#    z 0.000000 0.000000 1.701600 
# 
# From -- ./inp_files/17587.got.cif
#   From: 2010.03.12/outbox.cif.g09.slc.cpg/sg74_9_cif.got.tgz:17587.got - 2010.04.16 15:46:19.
