data_PCOD8298804
_publ_section_title
;
Structure prediction by ZEFSAII (Michael W. Deem and Ramdas Pophale) SiO2 
 PCOD8298804
Probable space group: I M M A
;
_chemical_formula_sum "Si O2"
_cell_formula_units_Z 96
_cell_length_a 15.506714
_cell_length_b 14.583302
_cell_length_c 19.628466
_cell_angle_alpha 90.000000
_cell_angle_beta 90.000000
_cell_angle_gamma 90.000000
_cell_volume 4438.763504
_symmetry_space_group_name_H-M "I M M A"
_symmetry_group_IT_number 74
_symmetry_cell_setting 'orthorhombic'
loop_
_space_group_symop_operation_xyz
x,y,z
-x,1/2-y,z
x,-y,-z
-x,1/2+y,-z
-x,-y,-z
x,1/2+y,-z
-x,y,z
x,1/2-y,z
1/2+x,1/2+y,1/2+z
1/2-x,-y,1/2+z
1/2+x,1/2-y,1/2-z
1/2-x,y,1/2-z
1/2-x,1/2-y,1/2-z
1/2+x,y,1/2-z
1/2-x,1/2+y,1/2+z
1/2+x,-y,1/2+z
loop_
_atom_site_type_symbol
_atom_site_label
_atom_site_fract_x
_atom_site_fract_y
_atom_site_fract_z
Si Si1 0.402469 0.141447 0.928118
Si Si2 0.732850 0.644420 0.965226
Si Si3 0.654681 0.144529 0.778436
Si Si4 0.901373 0.357502 0.961439
Si Si5 0.095140 0.525121 0.163673
Si Si6 0.789089 0.853851 0.823513
O O1 0.500000 0.100303 0.931847
O O2 0.409542 0.250000 0.935207
O O3 0.355546 0.115398 0.857159
O O4 0.342672 0.097885 0.988877
O O5 0.727756 0.750000 0.985264
O O6 0.718527 0.628687 0.884090
O O7 0.831603 0.611668 0.981387
O O8 0.626945 0.250000 0.768211
O O9 0.750000 0.125779 0.750000
O O10 0.593411 0.078651 0.735286
O O11 0.897245 0.250000 0.945651
O O12 0.866025 0.408025 0.893852
O O13 0.000000 0.384639 0.982783
O O14 0.136380 0.426084 0.168436
O O15 0.000000 0.501886 0.140844
O O16 0.825624 0.750000 0.830717
O O17 0.750000 0.869737 0.750000
#
# Coordination Sequence:
#
# PCOD8298804 Si02
#       6
#    16  16  16  16  16  16
#     4   9  17  30  52  85 121 153 185 224 279 351
#     4   9  18  35  58  81 109 146 186 234 291 344
#     4  10  19  32  55  88 125 161 192 222 267 338
#     4   9  18  33  56  89 124 151 176 213 272 350
#     4  11  22  35  55  84 118 152 185 227 282 343
#     4  10  23  43  61  76 100 141 197 254 298 335
#
# _framework density 21.627645999999999
#
# number of rings (size 3 to 8) (size 9 to 14) (size 15 to 20)
#    0.000    2.333    0.000    2.500    0.000    6.000 
#    0.000    4.167    0.000    3.000    0.000    8.167 
#    0.000    0.000    0.000    0.000    0.000    0.000 
#
# Total GULP energy -594780.560073 kJ/mol
# GULP energy per Si atom -12391.261668 kJ/mol
# Density = 2.157842 g / cm^3
# Si number density = 21.627646 Si / 1000 Ang^3
#
#
#
# Elastic Constant Matrix: (Units=GPa)
#
#
# Indices 1 2 3 4 5 6 
#
# 1 126.7949 24.9623 72.7129 0.0000 0.0000 0.0000
# 2 24.9623 60.1433 31.3856 0.0000 0.0000 0.0000
# 3 72.7129 31.3856 175.9223 0.0000 0.0000 0.0000
# 4 0.0000 0.0000 0.0000 5.9803 0.0000 0.0000
# 5 0.0000 0.0000 0.0000 0.0000 5.6506 0.0000
# 6 0.0000 0.0000 0.0000 0.0000 0.0000 -14.0433
#
#
#
# Elastic Compliance Matrix: (Units=1/GPa)
#
#
# Indices 1 2 3 4 5 6 
#
# 1 0.010626 -0.002336 -0.003975 0.000000 0.000000 0.000000
# 2 -0.002336 0.018847 -0.002397 0.000000 0.000000 0.000000
# 3 -0.003975 -0.002397 0.007755 0.000000 0.000000 0.000000
# 4 0.000000 0.000000 0.000000 0.167216 0.000000 0.000000
# 5 0.000000 0.000000 0.000000 0.000000 0.176973 0.000000
# 6 0.000000 0.000000 0.000000 0.000000 0.000000 -0.071208
#
#
# Mechanical properties :
#
#
# Convention : Reuss Voigt Hill
#
# Bulk Modulus (GPa) = 50.47388 68.99800 59.73594
# Shear Modulus (GPa) = 14.95974 15.10416 15.03195
#
# Velocity S-wave (km/s) = 2.63286 2.64554 2.63921
# Velocity P-wave (km/s) = 5.71235 6.42680 6.08008
#
# Compressibility (1/GPa) = 0.01981223
#
# Stress axis : x y z
#
# Youngs Moduli (GPa) = 94.10528 53.05790 128.94742
#
# Poissons Ratio (x) = 0.12394 0.51262
# Poissons Ratio (y) = 0.21982 0.30909
# Poissons Ratio (z) = 0.37411 0.12718
#
# Static dielectric constant tensor:
#      x y z
#    x 3.924240 0.000000 0.000000 
#    y 0.000000 3.714120 0.000000 
#    z 0.000000 0.000000 4.161750 
# 
# 
# High freq. dielectric constant tensor:
#      x y z
#    x 1.833280 0.000000 0.000000 
#    y 0.000000 1.835150 0.000000 
#    z 0.000000 0.000000 1.857680 
# 
# From -- ./inp_files/51854.got.cif
#   From: 2010.03.12/outbox.cif.g09.slc.cpg/sg74_26_cif.got.tgz:51854.got - 2010.04.16 15:46:19.
