data_PCOD8298228
_publ_section_title
;
Structure prediction by ZEFSAII (Michael W. Deem and Ramdas Pophale) SiO2 
 PCOD8298228
Probable space group: I M M A
;
_chemical_formula_sum "Si O2"
_cell_formula_units_Z 96
_cell_length_a 15.080301
_cell_length_b 14.195427
_cell_length_c 27.740433
_cell_angle_alpha 90.000000
_cell_angle_beta 90.000000
_cell_angle_gamma 90.000000
_cell_volume 5938.430887
_symmetry_space_group_name_H-M "I M M A"
_symmetry_group_IT_number 74
_symmetry_cell_setting 'orthorhombic'
loop_
_space_group_symop_operation_xyz
x,y,z
-x,1/2-y,z
x,-y,-z
-x,1/2+y,-z
-x,-y,-z
x,1/2+y,-z
-x,y,z
x,1/2-y,z
1/2+x,1/2+y,1/2+z
1/2-x,-y,1/2+z
1/2+x,1/2-y,1/2-z
1/2-x,y,1/2-z
1/2-x,1/2-y,1/2-z
1/2+x,y,1/2-z
1/2-x,1/2+y,1/2+z
1/2+x,-y,1/2+z
loop_
_atom_site_type_symbol
_atom_site_label
_atom_site_fract_x
_atom_site_fract_y
_atom_site_fract_z
Si Si1 0.898323 0.859816 0.703171
Si Si2 0.146303 0.499667 0.556018
Si Si3 0.097311 0.491683 0.210059
Si Si4 0.772713 0.501064 0.651443
Si Si5 0.840645 0.854194 0.277921
Si Si6 0.000000 0.647649 0.444129
Si Si7 0.000000 0.647243 0.556881
O O1 0.876953 0.750000 0.705459
O O2 0.828460 0.907508 0.667234
O O3 0.000000 0.878737 0.685788
O O4 0.883464 0.901221 0.756673
O O5 0.177451 0.500000 0.500000
O O6 0.229231 0.497122 0.592867
O O7 0.088813 0.591193 0.570080
O O8 0.088176 0.408714 0.569422
O O9 0.171177 0.494650 0.168625
O O10 0.095293 0.584421 0.243976
O O11 0.000000 0.484229 0.185677
O O12 0.822365 0.408580 0.672082
O O13 0.881306 0.750000 0.288251
O O14 0.750000 0.842798 0.250000
O O15 0.000000 0.750000 0.418276
O O16 0.000000 0.661741 0.500558
O O17 0.000000 0.750000 0.583074
#
# Coordination Sequence:
#
# PCOD8298228 Si02
#       7
#    16  16  16  16  16   8   8
#     4   9  18  31  48  70  94 117 143 182 229 276
#     4   9  18  30  44  64  91 119 150 186 223 265
#     4   9  18  32  47  64  90 122 155 187 222 266
#     4  10  19  29  46  68  92 120 153 188 221 267
#     4   8  15  29  47  66  87 111 141 182 229 272
#     4   8  15  29  46  61  83 118 149 175 218 271
#     4   8  15  29  46  61  83 116 147 179 220 269
#
# _framework density 16.165887000000001
#
# number of rings (size 3 to 8) (size 9 to 14) (size 15 to 20)
#    0.000    3.167    0.000    2.500    2.333    3.000 
#    0.000    0.000    0.000    0.500    0.000    0.000 
#    0.000    0.000    0.000   16.833    0.000    0.000 
#
# Total GULP energy -594746.998062 kJ/mol
# GULP energy per Si atom -12390.562460 kJ/mol
# Density = 1.612909 g / cm^3
# Si number density = 16.165887 Si / 1000 Ang^3
#
#
#
# Elastic Constant Matrix: (Units=GPa)
#
#
# Indices 1 2 3 4 5 6 
#
# 1 83.6297 28.4561 54.4480 0.0000 0.0000 0.0000
# 2 28.4561 129.1906 29.5233 0.0000 0.0000 0.0000
# 3 54.4480 29.5233 100.8570 0.0000 0.0000 0.0000
# 4 0.0000 0.0000 0.0000 8.0819 0.0000 0.0000
# 5 0.0000 0.0000 0.0000 0.0000 25.6248 0.0000
# 6 0.0000 0.0000 0.0000 0.0000 0.0000 15.2249
#
#
#
# Elastic Compliance Matrix: (Units=1/GPa)
#
#
# Indices 1 2 3 4 5 6 
#
# 1 0.018891 -0.001962 -0.009624 0.000000 0.000000 0.000000
# 2 -0.001962 0.008499 -0.001429 0.000000 0.000000 0.000000
# 3 -0.009624 -0.001429 0.015529 0.000000 0.000000 0.000000
# 4 0.000000 0.000000 0.000000 0.123733 0.000000 0.000000
# 5 0.000000 0.000000 0.000000 0.000000 0.039025 0.000000
# 6 0.000000 0.000000 0.000000 0.000000 0.000000 0.065682
#
#
# Mechanical properties :
#
#
# Convention : Reuss Voigt Hill
#
# Bulk Modulus (GPa) = 59.20797 59.83692 59.52245
# Shear Modulus (GPa) = 16.50073 23.20297 19.85185
#
# Velocity S-wave (km/s) = 3.19833 3.79265 3.50810
# Velocity P-wave (km/s) = 7.09534 7.50157 7.30128
#
# Compressibility (1/GPa) = 0.01688962
#
# Stress axis : x y z
#
# Youngs Moduli (GPa) = 52.93586 117.65917 64.39610
#
# Poissons Ratio (x) = 0.23080 0.61975
# Poissons Ratio (y) = 0.10384 0.09202
# Poissons Ratio (z) = 0.50946 0.16812
#
# Static dielectric constant tensor:
#      x y z
#    x 2.946830 0.000000 0.000000 
#    y 0.000000 5.205370 0.000000 
#    z 0.000000 0.000000 2.808830 
# 
# 
# High freq. dielectric constant tensor:
#      x y z
#    x 1.590450 0.000000 0.000000 
#    y 0.000000 1.634200 0.000000 
#    z 0.000000 0.000000 1.597560 
# 
# From -- ./inp_files/67119.got.cif
#   From: 2010.03.12/outbox.cif.g09.slc.cpg/sg74_34_cif.got.tgz:67119.got - 2010.04.16 15:46:19.
