data_PCOD8298646
_publ_section_title
;
Structure prediction by ZEFSAII (Michael W. Deem and Ramdas Pophale) SiO2 
 PCOD8298646
Probable space group: I M M A
;
_chemical_formula_sum "Si O2"
_cell_formula_units_Z 96
_cell_length_a 8.760637
_cell_length_b 22.748846
_cell_length_c 27.005571
_cell_angle_alpha 90.000000
_cell_angle_beta 90.000000
_cell_angle_gamma 90.000000
_cell_volume 5382.058582
_symmetry_space_group_name_H-M "I M M A"
_symmetry_group_IT_number 74
_symmetry_cell_setting 'orthorhombic'
loop_
_space_group_symop_operation_xyz
x,y,z
-x,1/2-y,z
x,-y,-z
-x,1/2+y,-z
-x,-y,-z
x,1/2+y,-z
-x,y,z
x,1/2-y,z
1/2+x,1/2+y,1/2+z
1/2-x,-y,1/2+z
1/2+x,1/2-y,1/2-z
1/2-x,y,1/2-z
1/2-x,1/2-y,1/2-z
1/2+x,y,1/2-z
1/2-x,1/2+y,1/2+z
1/2+x,-y,1/2+z
loop_
_atom_site_type_symbol
_atom_site_label
_atom_site_fract_x
_atom_site_fract_y
_atom_site_fract_z
Si Si1 0.179248 0.750000 0.503047
Si Si2 0.181670 0.526160 0.698809
Si Si3 0.676950 0.866640 0.462089
Si Si4 0.673561 0.451775 0.895207
Si Si5 0.322236 0.876284 0.640562
Si Si6 0.826003 0.567109 0.547146
Si Si7 0.826692 0.750000 0.890151
O O1 0.236879 0.693248 0.473795
O O2 0.226610 0.750000 0.560380
O O3 0.000000 0.750000 0.501127
O O4 0.250000 0.501714 0.750000
O O5 0.233419 0.480955 0.655707
O O6 0.256870 0.590179 0.688688
O O7 0.000000 0.532386 0.700939
O O8 0.500000 0.852451 0.460752
O O9 0.728289 0.894135 0.409165
O O10 0.713652 0.915750 0.503082
O O11 0.500000 0.431545 0.888205
O O12 0.686653 0.498163 0.940484
O O13 0.500000 0.892202 0.632875
O O14 0.221249 0.895823 0.594561
O O15 0.296818 0.806242 0.644989
O O16 0.000000 0.583608 0.532872
O O17 0.000000 0.750000 0.909932
#
# Coordination Sequence:
#
# PCOD8298646 Si02
#       7
#     8  16  16  16  16  16   8
#     4  12  24  36  54  73 104 151 188 220 261 310
#     4  10  21  38  59  81 106 134 173 223 275 330
#     4  12  23  34  50  76 109 141 180 221 260 311
#     4   9  20  36  53  76 106 138 174 217 265 320
#     4  10  19  32  52  76 106 140 179 226 271 315
#     4  10  19  32  50  74 106 143 180 217 260 313
#     4  10  20  34  51  75 106 141 184 228 264 310
#
# _framework density 17.837043000000001
#
# number of rings (size 3 to 8) (size 9 to 14) (size 15 to 20)
#    0.000    1.667    1.667    5.250    0.000    6.667 
#    0.000    0.417    0.000    0.000    0.000    0.583 
#    0.000    0.000    0.000    0.000    0.000    0.000 
#
# Total GULP energy -595162.913004 kJ/mol
# GULP energy per Si atom -12399.227354 kJ/mol
# Density = 1.779644 g / cm^3
# Si number density = 17.837043 Si / 1000 Ang^3
#
#
#
# Elastic Constant Matrix: (Units=GPa)
#
#
# Indices 1 2 3 4 5 6 
#
# 1 103.5678 45.3569 29.9197 0.0000 0.0000 0.0000
# 2 45.3569 69.5608 53.6201 0.0000 0.0000 0.0000
# 3 29.9197 53.6201 78.3895 0.0000 0.0000 0.0000
# 4 0.0000 0.0000 0.0000 11.4278 0.0000 0.0000
# 5 0.0000 0.0000 0.0000 0.0000 28.3047 0.0000
# 6 0.0000 0.0000 0.0000 0.0000 0.0000 23.3962
#
#
#
# Elastic Compliance Matrix: (Units=1/GPa)
#
#
# Indices 1 2 3 4 5 6 
#
# 1 0.013641 -0.010326 0.001856 0.000000 0.000000 0.000000
# 2 -0.010326 0.038226 -0.022207 0.000000 0.000000 0.000000
# 3 0.001856 -0.022207 0.027238 0.000000 0.000000 0.000000
# 4 0.000000 0.000000 0.000000 0.087506 0.000000 0.000000
# 5 0.000000 0.000000 0.000000 0.000000 0.035330 0.000000
# 6 0.000000 0.000000 0.000000 0.000000 0.000000 0.042742
#
#
# Mechanical properties :
#
#
# Convention : Reuss Voigt Hill
#
# Bulk Modulus (GPa) = 56.32545 56.59015 56.45780
# Shear Modulus (GPa) = 16.02801 20.80049 18.41425
#
# Velocity S-wave (km/s) = 3.00088 3.41858 3.21652
# Velocity P-wave (km/s) = 6.60707 6.88312 6.74651
#
# Compressibility (1/GPa) = 0.01775396
#
# Stress axis : x y z
#
# Youngs Moduli (GPa) = 73.30666 26.15987 36.71338
#
# Poissons Ratio (x) = 0.27012 -0.06816
# Poissons Ratio (y) = 0.75695 0.81528
# Poissons Ratio (z) = -0.13609 0.58092
#
# Static dielectric constant tensor:
#      x y z
#    x 3.368720 0.000000 0.000000 
#    y 0.000000 3.377600 0.000000 
#    z 0.000000 0.000000 3.213110 
# 
# 
# High freq. dielectric constant tensor:
#      x y z
#    x 1.702280 0.000000 0.000000 
#    y 0.000000 1.680510 0.000000 
#    z 0.000000 0.000000 1.662430 
# 
# From -- ./inp_files/64728.got.cif
#   From: 2010.03.12/outbox.cif.g09.slc.cpg/sg74_33_cif.got.tgz:64728.got - 2010.04.16 15:46:19.
