data_PCOD8298176
_publ_section_title
;
Structure prediction by ZEFSAII (Michael W. Deem and Ramdas Pophale) SiO2 
 PCOD8298176
Probable space group: I M M A
;
_chemical_formula_sum "Si O2"
_cell_formula_units_Z 80
_cell_length_a 9.387784
_cell_length_b 23.326286
_cell_length_c 25.997579
_cell_angle_alpha 90.000000
_cell_angle_beta 90.000000
_cell_angle_gamma 90.000000
_cell_volume 5693.005341
_symmetry_space_group_name_H-M "I M M A"
_symmetry_group_IT_number 74
_symmetry_cell_setting 'orthorhombic'
loop_
_space_group_symop_operation_xyz
x,y,z
-x,1/2-y,z
x,-y,-z
-x,1/2+y,-z
-x,-y,-z
x,1/2+y,-z
-x,y,z
x,1/2-y,z
1/2+x,1/2+y,1/2+z
1/2-x,-y,1/2+z
1/2+x,1/2-y,1/2-z
1/2-x,y,1/2-z
1/2-x,1/2-y,1/2-z
1/2+x,y,1/2-z
1/2-x,1/2+y,1/2+z
1/2+x,-y,1/2+z
loop_
_atom_site_type_symbol
_atom_site_label
_atom_site_fract_x
_atom_site_fract_y
_atom_site_fract_z
Si Si1 0.838974 0.536721 0.948400
Si Si2 0.830552 0.250000 0.650762
Si Si3 0.664746 0.127810 0.998239
Si Si4 0.832789 0.131829 0.699197
Si Si5 0.836891 0.555096 0.397207
Si Si6 0.168827 0.750000 0.464198
O O1 0.761114 0.501003 0.903595
O O2 0.000000 0.549828 0.931164
O O3 0.833617 0.500000 0.000000
O O4 0.757653 0.596440 0.958177
O O5 0.776402 0.193874 0.680763
O O6 0.765034 0.250000 0.593224
O O7 0.000000 0.250000 0.647018
O O8 0.500000 0.122848 0.014362
O O9 0.689945 0.100851 0.942203
O O10 0.717283 0.193653 0.995448
O O11 0.750000 0.113003 0.750000
O O12 0.796553 0.084865 0.656163
O O13 0.000000 0.133962 0.710744
O O14 0.000000 0.534464 0.398063
O O15 0.000000 0.750000 0.457995
#
# Coordination Sequence:
#
# PCOD8298176 Si02
#       6
#    16   8  16  16  16   8
#     4   9  17  27  39  56  78 100 123 159 205 247
#     4   9  15  27  42  56  76 104 140 177 207 235
#     4   9  15  25  42  60  76  99 133 166 196 235
#     4  10  19  29  42  58  78 104 137 176 212 243
#     4   9  16  27  42  57  73  99 135 170 200 236
#     4   9  14  23  42  62  78 102 137 173 200 227
#
# _framework density 14.052331000000001
#
# number of rings (size 3 to 8) (size 9 to 14) (size 15 to 20)
#    0.000    2.800    2.000    0.900    0.000    3.200 
#    0.000    0.500    0.000    1.200    0.000    0.000 
#    0.000    0.000    0.000    0.900    0.000   10.600 
#
# Total GULP energy -495942.364534 kJ/mol
# GULP energy per Si atom -12398.559113 kJ/mol
# Density = 1.402035 g / cm^3
# Si number density = 14.052331 Si / 1000 Ang^3
#
#
#
# Elastic Constant Matrix: (Units=GPa)
#
#
# Indices 1 2 3 4 5 6 
#
# 1 67.6318 52.7934 40.9036 0.0000 0.0000 0.0000
# 2 52.7934 103.9733 55.3831 0.0000 0.0000 0.0000
# 3 40.9036 55.3831 64.3981 0.0000 0.0000 0.0000
# 4 0.0000 0.0000 0.0000 17.7686 0.0000 0.0000
# 5 0.0000 0.0000 0.0000 0.0000 19.4719 0.0000
# 6 0.0000 0.0000 0.0000 0.0000 0.0000 13.5874
#
#
#
# Elastic Compliance Matrix: (Units=1/GPa)
#
#
# Indices 1 2 3 4 5 6 
#
# 1 0.027667 -0.008650 -0.010134 0.000000 0.000000 0.000000
# 2 -0.008650 0.020453 -0.012095 0.000000 0.000000 0.000000
# 3 -0.010134 -0.012095 0.032367 0.000000 0.000000 0.000000
# 4 0.000000 0.000000 0.000000 0.056279 0.000000 0.000000
# 5 0.000000 0.000000 0.000000 0.000000 0.051356 0.000000
# 6 0.000000 0.000000 0.000000 0.000000 0.000000 0.073598
#
#
# Mechanical properties :
#
#
# Convention : Reuss Voigt Hill
#
# Bulk Modulus (GPa) = 53.39528 59.35149 56.37339
# Shear Modulus (GPa) = 15.16426 15.96046 15.56236
#
# Velocity S-wave (km/s) = 3.28857 3.37380 3.33146
# Velocity P-wave (km/s) = 7.24566 7.58317 7.41633
#
# Compressibility (1/GPa) = 0.01872825
#
# Stress axis : x y z
#
# Youngs Moduli (GPa) = 36.14363 48.89282 30.89530
#
# Poissons Ratio (x) = 0.42294 0.31310
# Poissons Ratio (y) = 0.31265 0.37369
# Poissons Ratio (z) = 0.36628 0.59138
#
# Static dielectric constant tensor:
#      x y z
#    x 2.665200 0.000000 0.000000 
#    y 0.000000 2.830000 0.000000 
#    z 0.000000 0.000000 2.492520 
# 
# 
# High freq. dielectric constant tensor:
#      x y z
#    x 1.523790 0.000000 0.000000 
#    y 0.000000 1.528290 0.000000 
#    z 0.000000 0.000000 1.497710 
# 
# From -- ./inp_files/57169.got.cif
#   From: 2010.03.12/outbox.cif.g09.slc.cpg/sg74_29_cif.got.tgz:57169.got - 2010.04.16 15:46:19.
