data_PCOD8298027
_publ_section_title
;
Structure prediction by ZEFSAII (Michael W. Deem and Ramdas Pophale) SiO2 
 PCOD8298027
Probable space group: I M M A
;
_chemical_formula_sum "Si O2"
_cell_formula_units_Z 80
_cell_length_a 17.989881
_cell_length_b 16.543500
_cell_length_c 14.027530
_cell_angle_alpha 90.000000
_cell_angle_beta 90.000000
_cell_angle_gamma 90.000000
_cell_volume 4174.811706
_symmetry_space_group_name_H-M "I M M A"
_symmetry_group_IT_number 74
_symmetry_cell_setting 'orthorhombic'
loop_
_space_group_symop_operation_xyz
x,y,z
-x,1/2-y,z
x,-y,-z
-x,1/2+y,-z
-x,-y,-z
x,1/2+y,-z
-x,y,z
x,1/2-y,z
1/2+x,1/2+y,1/2+z
1/2-x,-y,1/2+z
1/2+x,1/2-y,1/2-z
1/2-x,y,1/2-z
1/2-x,1/2-y,1/2-z
1/2+x,y,1/2-z
1/2-x,1/2+y,1/2+z
1/2+x,-y,1/2+z
loop_
_atom_site_type_symbol
_atom_site_label
_atom_site_fract_x
_atom_site_fract_y
_atom_site_fract_z
Si Si1 0.411993 0.436642 0.232123
Si Si2 0.588189 0.419613 0.444659
Si Si3 0.087044 0.606659 0.353362
Si Si4 0.337567 0.250000 0.745954
Si Si5 0.912004 0.160574 0.443499
Si Si6 0.911938 0.750000 0.042906
O O1 0.500000 0.427604 0.236420
O O2 0.378704 0.421441 0.337220
O O3 0.389064 0.523945 0.194847
O O4 0.378052 0.374273 0.154788
O O5 0.618778 0.500000 0.500000
O O6 0.500000 0.425602 0.442393
O O7 0.611783 0.332869 0.488685
O O8 0.133633 0.672345 0.299310
O O9 0.108768 0.605456 0.465394
O O10 0.000000 0.625639 0.340629
O O11 0.250000 0.250000 0.750000
O O12 0.366519 0.250000 0.639126
O O13 0.879335 0.250000 0.459857
O O14 0.000000 0.163433 0.432910
O O15 0.000000 0.750000 0.062951
#
# Coordination Sequence:
#
# PCOD8298027 Si02
#       6
#    16  16  16   8  16   8
#     4   9  17  27  48  79 113 141 169 213 261 307
#     4   9  17  29  46  75 108 139 176 217 257 304
#     4  10  18  33  54  78 105 138 175 214 263 314
#     4  12  24  36  53  76 102 134 177 224 271 312
#     4   9  16  26  45  78 115 140 166 209 260 310
#     4  10  20  34  55  78 105 140 177 216 265 314
#
# _framework density 19.162541000000001
#
# number of rings (size 3 to 8) (size 9 to 14) (size 15 to 20)
#    0.000    2.400    1.000    2.700    1.400    5.600 
#    0.000    0.000    0.000    7.200    0.000    1.400 
#    0.000    0.000    0.000    0.000    0.000    0.000 
#
# Total GULP energy -495736.481590 kJ/mol
# GULP energy per Si atom -12393.412040 kJ/mol
# Density = 1.911893 g / cm^3
# Si number density = 19.162541 Si / 1000 Ang^3
#
#
#
# Elastic Constant Matrix: (Units=GPa)
#
#
# Indices 1 2 3 4 5 6 
#
# 1 21.7204 28.2722 24.5488 0.0000 0.0000 0.0000
# 2 28.2722 130.9227 84.5432 0.0000 0.0000 0.0000
# 3 24.5488 84.5432 190.4661 0.0000 0.0000 0.0000
# 4 0.0000 0.0000 0.0000 49.0717 0.0000 0.0000
# 5 0.0000 0.0000 0.0000 0.0000 0.8839 0.0000
# 6 0.0000 0.0000 0.0000 0.0000 0.0000 -3.6596
#
#
#
# Elastic Compliance Matrix: (Units=1/GPa)
#
#
# Indices 1 2 3 4 5 6 
#
# 1 0.065258 -0.012141 -0.003022 0.000000 0.000000 0.000000
# 2 -0.012141 0.012966 -0.004190 0.000000 0.000000 0.000000
# 3 -0.003022 -0.004190 0.007500 0.000000 0.000000 0.000000
# 4 0.000000 0.000000 0.000000 0.020378 0.000000 0.000000
# 5 0.000000 0.000000 0.000000 0.000000 1.131327 0.000000
# 6 0.000000 0.000000 0.000000 0.000000 0.000000 -0.273255
#
#
# Mechanical properties :
#
#
# Convention : Reuss Voigt Hill
#
# Bulk Modulus (GPa) = 21.26870 68.64863 44.95866
# Shear Modulus (GPa) = 4.90892 22.97555 13.94223
#
# Velocity S-wave (km/s) = 1.60228 3.46639 2.70029
# Velocity P-wave (km/s) = 3.81395 7.20578 5.76496
#
# Compressibility (1/GPa) = 0.04701745
#
# Stress axis : x y z
#
# Youngs Moduli (GPa) = 15.32373 77.12599 133.33704
#
# Poissons Ratio (x) = 0.93637 0.40294
# Poissons Ratio (y) = 0.18604 0.55874
# Poissons Ratio (z) = 0.04631 0.32319
#
# Static dielectric constant tensor:
#      x y z
#    x 2.748270 0.000000 0.000000 
#    y 0.000000 3.734020 0.000000 
#    z 0.000000 0.000000 4.350830 
# 
# 
# High freq. dielectric constant tensor:
#      x y z
#    x 1.659030 0.000000 0.000000 
#    y 0.000000 1.762160 0.000000 
#    z 0.000000 0.000000 1.769090 
# 
# From -- ./inp_files/23634.got.cif
#   From: 2010.03.12/outbox.cif.g09.slc.cpg/sg74_12_cif.got.tgz:23634.got - 2010.04.16 15:46:19.
