data_PCOD8298300
_publ_section_title
;
Structure prediction by ZEFSAII (Michael W. Deem and Ramdas Pophale) SiO2 
 PCOD8298300
Probable space group: I M M A
;
_chemical_formula_sum "Si O2"
_cell_formula_units_Z 88
_cell_length_a 10.344721
_cell_length_b 18.934368
_cell_length_c 26.223965
_cell_angle_alpha 90.000000
_cell_angle_beta 90.000000
_cell_angle_gamma 90.000000
_cell_volume 5136.507805
_symmetry_space_group_name_H-M "I M M A"
_symmetry_group_IT_number 74
_symmetry_cell_setting 'orthorhombic'
loop_
_space_group_symop_operation_xyz
x,y,z
-x,1/2-y,z
x,-y,-z
-x,1/2+y,-z
-x,-y,-z
x,1/2+y,-z
-x,y,z
x,1/2-y,z
1/2+x,1/2+y,1/2+z
1/2-x,-y,1/2+z
1/2+x,1/2-y,1/2-z
1/2-x,y,1/2-z
1/2-x,1/2-y,1/2-z
1/2+x,y,1/2-z
1/2-x,1/2+y,1/2+z
1/2+x,-y,1/2+z
loop_
_atom_site_type_symbol
_atom_site_label
_atom_site_fract_x
_atom_site_fract_y
_atom_site_fract_z
Si Si1 0.141124 0.170464 0.316924
Si Si2 0.351053 0.029460 0.656230
Si Si3 0.146609 0.171153 0.793834
Si Si4 0.147284 0.828862 0.900799
Si Si5 0.250000 0.939539 0.750000
Si Si6 0.850371 0.970356 0.948332
O O1 0.162218 0.250000 0.295820
O O2 0.255897 0.150804 0.355556
O O3 0.140136 0.114084 0.270786
O O4 0.000000 0.165397 0.343839
O O5 0.500000 0.008177 0.654824
O O6 0.329737 0.113777 0.661840
O O7 0.292578 0.989702 0.704394
O O8 0.286996 0.005342 0.602532
O O9 0.165184 0.250000 0.816719
O O10 0.250000 0.156947 0.750000
O O11 0.000000 0.162447 0.771914
O O12 0.175895 0.750000 0.921846
O O13 0.167806 0.885306 0.946198
O O14 0.000000 0.834440 0.879928
O O15 0.000000 0.992328 0.949775
O O16 0.783018 0.000000 0.000000
#
# Coordination Sequence:
#
# PCOD8298300 Si02
#       6
#    16  16  16  16   8  16
#     4  10  21  33  46  70 103 137 168 199 242 293
#     4  10  19  30  46  72 100 128 161 202 248 291
#     4   9  17  30  47  69  98 129 159 194 241 294
#     4   9  17  31  51  73  97 129 167 204 244 291
#     4  12  19  30  47  70 100 134 162 206 239 298
#     4   9  17  31  50  71  96 126 162 206 249 285
#
# _framework density 17.132262000000001
#
# number of rings (size 3 to 8) (size 9 to 14) (size 15 to 20)
#    0.000    2.364    2.727    0.818    0.000    0.727 
#    0.000    2.727    0.000    6.000    0.000    0.000 
#    0.000    5.818    0.000    0.000    0.000    0.000 
#
# Total GULP energy -545123.180473 kJ/mol
# GULP energy per Si atom -12389.163193 kJ/mol
# Density = 1.709327 g / cm^3
# Si number density = 17.132262 Si / 1000 Ang^3
#
#
#
# Elastic Constant Matrix: (Units=GPa)
#
#
# Indices 1 2 3 4 5 6 
#
# 1 60.7064 28.3849 30.0285 0.0000 0.0000 0.0000
# 2 28.3849 130.1240 72.5527 0.0000 0.0000 0.0000
# 3 30.0285 72.5527 123.5939 0.0000 0.0000 0.0000
# 4 0.0000 0.0000 0.0000 24.4133 0.0000 0.0000
# 5 0.0000 0.0000 0.0000 0.0000 13.6650 0.0000
# 6 0.0000 0.0000 0.0000 0.0000 0.0000 7.2478
#
#
#
# Elastic Compliance Matrix: (Units=1/GPa)
#
#
# Indices 1 2 3 4 5 6 
#
# 1 0.019198 -0.002359 -0.003279 0.000000 0.000000 0.000000
# 2 -0.002359 0.011714 -0.006303 0.000000 0.000000 0.000000
# 3 -0.003279 -0.006303 0.012588 0.000000 0.000000 0.000000
# 4 0.000000 0.000000 0.000000 0.040961 0.000000 0.000000
# 5 0.000000 0.000000 0.000000 0.000000 0.073180 0.000000
# 6 0.000000 0.000000 0.000000 0.000000 0.000000 0.137972
#
#
# Mechanical properties :
#
#
# Convention : Reuss Voigt Hill
#
# Bulk Modulus (GPa) = 50.97841 64.03963 57.50902
# Shear Modulus (GPa) = 15.33573 21.29577 18.31575
#
# Velocity S-wave (km/s) = 2.99513 3.52948 3.27322
# Velocity P-wave (km/s) = 6.46386 7.35325 6.92285
#
# Compressibility (1/GPa) = 0.01961615
#
# Stress axis : x y z
#
# Youngs Moduli (GPa) = 52.08865 85.36710 79.44104
#
# Poissons Ratio (x) = 0.20141 0.26052
# Poissons Ratio (y) = 0.12289 0.50074
# Poissons Ratio (z) = 0.17082 0.53809
#
# Static dielectric constant tensor:
#      x y z
#    x 3.058010 0.000000 0.000000 
#    y 0.000000 3.544340 0.000000 
#    z 0.000000 0.000000 3.128250 
# 
# 
# High freq. dielectric constant tensor:
#      x y z
#    x 1.635760 0.000000 0.000000 
#    y 0.000000 1.685770 0.000000 
#    z 0.000000 0.000000 1.621820 
# 
# From -- ./inp_files/57038.got.cif
#   From: 2010.03.12/outbox.cif.g09.slc.cpg/sg74_29_cif.got.tgz:57038.got - 2010.04.16 15:46:19.
