data_PCOD8298716
_publ_section_title
;
Structure prediction by ZEFSAII (Michael W. Deem and Ramdas Pophale) SiO2 
 PCOD8298716
Probable space group: I M M A
;
_chemical_formula_sum "Si O2"
_cell_formula_units_Z 88
_cell_length_a 9.015382
_cell_length_b 30.524101
_cell_length_c 17.750499
_cell_angle_alpha 90.000000
_cell_angle_beta 90.000000
_cell_angle_gamma 90.000000
_cell_volume 4884.696463
_symmetry_space_group_name_H-M "I M M A"
_symmetry_group_IT_number 74
_symmetry_cell_setting 'orthorhombic'
loop_
_space_group_symop_operation_xyz
x,y,z
-x,1/2-y,z
x,-y,-z
-x,1/2+y,-z
-x,-y,-z
x,1/2+y,-z
-x,y,z
x,1/2-y,z
1/2+x,1/2+y,1/2+z
1/2-x,-y,1/2+z
1/2+x,1/2-y,1/2-z
1/2-x,y,1/2-z
1/2-x,1/2-y,1/2-z
1/2+x,y,1/2-z
1/2-x,1/2+y,1/2+z
1/2+x,-y,1/2+z
loop_
_atom_site_type_symbol
_atom_site_label
_atom_site_fract_x
_atom_site_fract_y
_atom_site_fract_z
Si Si1 0.667998 0.423203 0.173656
Si Si2 0.828462 0.451251 0.024688
Si Si3 0.668494 0.663273 0.907203
Si Si4 0.327460 0.864316 0.447847
Si Si5 0.674942 0.800049 0.169788
Si Si6 0.671715 0.250000 0.172288
O O1 0.500000 0.439484 0.181720
O O2 0.750000 0.437061 0.250000
O O3 0.735881 0.445542 0.100280
O O4 0.677951 0.371112 0.161234
O O5 0.000000 0.444715 0.045373
O O6 0.791060 0.500000 0.000000
O O7 0.787429 0.416493 0.957171
O O8 0.500000 0.664299 0.940233
O O9 0.721638 0.708902 0.875548
O O10 0.788366 0.654648 0.971013
O O11 0.500000 0.857364 0.429213
O O12 0.234232 0.837963 0.385575
O O13 0.500000 0.806468 0.178437
O O14 0.710076 0.750000 0.141291
O O15 0.750000 0.807910 0.250000
O O16 0.500000 0.250000 0.189589
O O17 0.750000 0.250000 0.250000
#
# Coordination Sequence:
#
# PCOD8298716 Si02
#       6
#    16  16  16  16  16   8
#     4  10  19  32  52  76 103 135 174 217 260 309
#     4   9  19  37  58  79 106 139 175 219 271 323
#     4   9  19  33  48  70 101 138 175 211 252 300
#     4  10  20  34  55  81 106 135 174 218 263 316
#     4  10  21  37  57  80 109 144 180 222 270 323
#     4  10  20  32  46  66  97 134 171 208 248 290
#
# _framework density 18.015450000000001
#
# number of rings (size 3 to 8) (size 9 to 14) (size 15 to 20)
#    0.000    2.364    0.000    2.182    1.273    3.636 
#    0.000    0.909    0.000    0.000    0.000    0.000 
#    0.000    0.000    0.000    0.000    0.000    0.000 
#
# Total GULP energy -545335.055304 kJ/mol
# GULP energy per Si atom -12393.978530 kJ/mol
# Density = 1.797445 g / cm^3
# Si number density = 18.015450 Si / 1000 Ang^3
#
#
#
# Elastic Constant Matrix: (Units=GPa)
#
#
# Indices 1 2 3 4 5 6 
#
# 1 91.0495 57.8000 57.9946 0.0001 0.0000 0.0000
# 2 57.8000 139.6455 55.4662 0.0001 0.0000 0.0000
# 3 57.9946 55.4662 89.7336 0.0001 -0.0001 -0.0001
# 4 0.0001 0.0001 0.0001 3.8200 0.0000 0.0000
# 5 0.0000 0.0000 -0.0001 0.0000 39.0471 0.0000
# 6 0.0000 0.0000 -0.0001 0.0000 0.0000 21.7144
#
#
#
# Elastic Compliance Matrix: (Units=1/GPa)
#
#
# Indices 1 2 3 4 5 6 
#
# 1 0.020411 -0.004253 -0.010563 0.000000 0.000000 0.000000
# 2 -0.004253 0.010377 -0.003666 0.000000 0.000000 0.000000
# 3 -0.010563 -0.003666 0.020237 0.000000 0.000000 0.000000
# 4 0.000000 0.000000 0.000000 0.261783 0.000000 0.000001
# 5 0.000000 0.000000 0.000000 0.000000 0.025610 0.000000
# 6 0.000000 0.000000 0.000000 0.000001 0.000000 0.046052
#
#
# Mechanical properties :
#
#
# Convention : Reuss Voigt Hill
#
# Bulk Modulus (GPa) = 71.11314 73.66112 72.38713
# Shear Modulus (GPa) = 11.73377 22.86081 17.29729
#
# Velocity S-wave (km/s) = 2.55486 3.56610 3.10197
# Velocity P-wave (km/s) = 6.94710 7.61135 7.28680
#
# Compressibility (1/GPa) = 0.01406210
#
# Stress axis : x y z
#
# Youngs Moduli (GPa) = 48.99386 96.36449 49.41504
#
# Poissons Ratio (x) = 0.40981 0.52196
# Poissons Ratio (y) = 0.20835 0.18115
# Poissons Ratio (z) = 0.51751 0.35326
#
# Static dielectric constant tensor:
#      x y z
#    x 3.396670 0.000000 0.000000 
#    y 0.000000 3.652130 0.000000 
#    z 0.000000 0.000000 3.133510 
# 
# 
# High freq. dielectric constant tensor:
#      x y z
#    x 1.706650 0.000000 0.000000 
#    y 0.000000 1.697810 0.000000 
#    z 0.000000 0.000000 1.687320 
# 
# From -- ./inp_files/40109.got.cif
#   From: 2010.03.12/outbox.cif.g09.slc.cpg/sg74_21_cif.got.tgz:40109.got - 2010.04.16 15:46:19.
