data_PCOD8298631
_publ_section_title
;
Structure prediction by ZEFSAII (Michael W. Deem and Ramdas Pophale) SiO2 
 PCOD8298631
Probable space group: I M M A
;
_chemical_formula_sum "Si O2"
_cell_formula_units_Z 104
_cell_length_a 8.993048
_cell_length_b 31.639717
_cell_length_c 20.477799
_cell_angle_alpha 90.000000
_cell_angle_beta 90.000000
_cell_angle_gamma 90.000000
_cell_volume 5826.701604
_symmetry_space_group_name_H-M "I M M A"
_symmetry_group_IT_number 74
_symmetry_cell_setting 'orthorhombic'
loop_
_space_group_symop_operation_xyz
x,y,z
-x,1/2-y,z
x,-y,-z
-x,1/2+y,-z
-x,-y,-z
x,1/2+y,-z
-x,y,z
x,1/2-y,z
1/2+x,1/2+y,1/2+z
1/2-x,-y,1/2+z
1/2+x,1/2-y,1/2-z
1/2-x,y,1/2-z
1/2-x,1/2-y,1/2-z
1/2+x,y,1/2-z
1/2-x,1/2+y,1/2+z
1/2+x,-y,1/2+z
loop_
_atom_site_type_symbol
_atom_site_label
_atom_site_fract_x
_atom_site_fract_y
_atom_site_fract_z
Si Si1 0.325594 0.062720 0.683839
Si Si2 0.674331 0.465277 0.316737
Si Si3 0.327704 0.111607 0.931501
Si Si4 0.168210 0.703887 0.465794
Si Si5 0.669987 0.592978 0.565675
Si Si6 0.673049 0.750000 0.817869
Si Si7 0.332747 0.187502 0.405403
O O1 0.500000 0.069521 0.690487
O O2 0.250000 0.079311 0.750000
O O3 0.266750 0.089744 0.624076
O O4 0.283767 0.013999 0.671618
O O5 0.500000 0.458005 0.308044
O O6 0.750000 0.448463 0.250000
O O7 0.731284 0.440771 0.381461
O O8 0.500000 0.099414 0.924619
O O9 0.303312 0.162353 0.921548
O O10 0.272015 0.094194 0.001412
O O11 0.186935 0.750000 0.429511
O O12 0.286979 0.702841 0.523149
O O13 0.000000 0.700565 0.494105
O O14 0.500000 0.582419 0.544699
O O15 0.677936 0.637474 0.602392
O O16 0.500000 0.750000 0.807743
O O17 0.750000 0.750000 0.750000
O O18 0.720493 0.707577 0.854444
O O19 0.500000 0.203443 0.392419
#
# Coordination Sequence:
#
# PCOD8298631 Si02
#       7
#    16  16  16  16  16   8  16
#     4  10  20  36  57  78 104 138 174 213 260 315
#     4   9  19  35  54  75 101 138 179 217 262 315
#     4  10  20  33  52  81 110 137 174 215 260 310
#     4   9  17  31  52  75 101 134 167 204 251 303
#     4   9  19  35  53  76 107 138 172 216 263 311
#     4  12  24  36  48  64  92 130 173 216 259 308
#     4  10  19  32  50  72  97 127 165 210 258 304
#
# _framework density 17.848863000000001
#
# number of rings (size 3 to 8) (size 9 to 14) (size 15 to 20)
#    0.000    2.308    0.769    2.077    0.000    3.692 
#    0.000    4.615    0.000    0.462    0.000    0.000 
#    0.000    0.000    0.000    0.000    0.000    0.000 
#
# Total GULP energy -644598.964561 kJ/mol
# GULP energy per Si atom -12396.133934 kJ/mol
# Density = 1.780824 g / cm^3
# Si number density = 17.848863 Si / 1000 Ang^3
#
#
#
# Elastic Constant Matrix: (Units=GPa)
#
#
# Indices 1 2 3 4 5 6 
#
# 1 92.6089 37.0483 41.6016 0.0015 0.0000 0.0000
# 2 37.0483 96.8501 57.8798 0.0019 0.0000 0.0000
# 3 41.6016 57.8798 97.5561 0.0150 0.0001 0.0002
# 4 0.0015 0.0019 0.0150 147.2447 0.0004 0.0007
# 5 0.0000 0.0000 0.0001 0.0004 34.7171 0.0000
# 6 0.0000 0.0000 0.0002 0.0007 0.0000 21.2763
#
#
#
# Elastic Compliance Matrix: (Units=1/GPa)
#
#
# Indices 1 2 3 4 5 6 
#
# 1 0.013808 -0.002732 -0.004268 0.000000 0.000000 0.000000
# 2 -0.002732 0.016538 -0.008647 0.000001 0.000000 0.000000
# 3 -0.004268 -0.008647 0.017201 -0.000002 0.000000 0.000000
# 4 0.000000 0.000001 -0.000002 0.006791 0.000000 0.000000
# 5 0.000000 0.000000 0.000000 0.000000 0.028804 0.000000
# 6 0.000000 0.000000 0.000000 0.000000 0.000000 0.047001
#
#
# Mechanical properties :
#
#
# Convention : Reuss Voigt Hill
#
# Bulk Modulus (GPa) = 61.52318 62.23051 61.87684
# Shear Modulus (GPa) = 29.96651 50.68000 40.32325
#
# Velocity S-wave (km/s) = 4.10189 5.33438 4.75821
# Velocity P-wave (km/s) = 7.54836 8.53708 8.05790
#
# Compressibility (1/GPa) = 0.01625404
#
# Stress axis : x y z
#
# Youngs Moduli (GPa) = 72.42210 60.46760 58.13747
#
# Poissons Ratio (x) = 0.16517 0.24811
# Poissons Ratio (y) = 0.19783 0.50271
# Poissons Ratio (z) = 0.30907 0.52286
#
# Static dielectric constant tensor:
#      x y z
#    x 3.383640 0.000000 0.000000 
#    y 0.000000 3.471310 0.000000 
#    z 0.000000 0.000000 3.068670 
# 
# 
# High freq. dielectric constant tensor:
#      x y z
#    x 1.700200 0.000000 0.000000 
#    y 0.000000 1.697330 0.000000 
#    z 0.000000 0.000000 1.665380 
# 
# From -- ./inp_files/49618.got.cif
#   From: 2010.03.12/outbox.cif.g09.slc.cpg/sg74_25_cif.got.tgz:49618.got - 2010.04.16 15:46:19.
