data_PCOD8298429
_publ_section_title
;
Structure prediction by ZEFSAII (Michael W. Deem and Ramdas Pophale) SiO2 
 PCOD8298429
Probable space group: I M M A
;
_chemical_formula_sum "Si O2"
_cell_formula_units_Z 80
_cell_length_a 9.003782
_cell_length_b 27.367028
_cell_length_c 18.019480
_cell_angle_alpha 90.000000
_cell_angle_beta 90.000000
_cell_angle_gamma 90.000000
_cell_volume 4440.121577
_symmetry_space_group_name_H-M "I M M A"
_symmetry_group_IT_number 74
_symmetry_cell_setting 'orthorhombic'
loop_
_space_group_symop_operation_xyz
x,y,z
-x,1/2-y,z
x,-y,-z
-x,1/2+y,-z
-x,-y,-z
x,1/2+y,-z
-x,y,z
x,1/2-y,z
1/2+x,1/2+y,1/2+z
1/2-x,-y,1/2+z
1/2+x,1/2-y,1/2-z
1/2-x,y,1/2-z
1/2-x,1/2-y,1/2-z
1/2+x,y,1/2-z
1/2-x,1/2+y,1/2+z
1/2+x,-y,1/2+z
loop_
_atom_site_type_symbol
_atom_site_label
_atom_site_fract_x
_atom_site_fract_y
_atom_site_fract_z
Si Si1 0.327960 0.943666 0.905883
Si Si2 0.830096 0.695732 0.963203
Si Si3 0.675370 0.544672 0.170668
Si Si4 0.674290 0.099083 0.544247
Si Si5 0.328119 0.844551 0.826328
O O1 0.500000 0.944332 0.930368
O O2 0.295074 0.900605 0.847740
O O3 0.279799 0.993388 0.866398
O O4 0.230177 0.937015 0.979435
O O5 0.806121 0.750000 0.997067
O O6 0.731051 0.691007 0.890108
O O7 0.000000 0.687225 0.939030
O O8 0.785738 0.655251 0.024200
O O9 0.500000 0.550340 0.179247
O O10 0.750000 0.548634 0.250000
O O11 0.739239 0.588015 0.119949
O O12 0.500000 0.090890 0.555877
O O13 0.500000 0.834234 0.815933
O O14 0.250000 0.831334 0.750000
#
# Coordination Sequence:
#
# PCOD8298429 Si02
#       5
#    16  16  16  16  16
#     4   9  19  34  51  73 103 139 173 203 239 286
#     4   9  19  36  55  73  95 127 167 209 253 300
#     4  11  22  35  52  75 105 137 168 204 246 293
#     4  10  20  34  54  78 102 130 166 207 249 296
#     4  10  19  31  48  72 103 136 170 207 245 288
#
# _framework density 18.017524999999999
#
# number of rings (size 3 to 8) (size 9 to 14) (size 15 to 20)
#    0.000    2.200    0.000    3.000    0.000    6.400 
#    0.000    0.000    0.000    0.600    0.000    0.000 
#    0.000    0.000    0.000    0.000    0.000    0.000 
#
# Total GULP energy -496134.768405 kJ/mol
# GULP energy per Si atom -12403.369210 kJ/mol
# Density = 1.797652 g / cm^3
# Si number density = 18.017525 Si / 1000 Ang^3
#
#
#
# Elastic Constant Matrix: (Units=GPa)
#
#
# Indices 1 2 3 4 5 6 
#
# 1 88.7781 45.9770 65.0868 0.0001 0.0000 0.0000
# 2 45.9770 110.6786 68.5057 0.0000 0.0000 0.0000
# 3 65.0868 68.5057 124.6312 0.0007 -0.0001 -0.0001
# 4 0.0001 0.0000 0.0007 11.0709 0.0000 0.0000
# 5 0.0000 0.0000 -0.0001 0.0000 36.6714 0.0000
# 6 0.0000 0.0000 -0.0001 0.0000 0.0000 22.7009
#
#
#
# Elastic Compliance Matrix: (Units=1/GPa)
#
#
# Indices 1 2 3 4 5 6 
#
# 1 0.018740 -0.002618 -0.008348 0.000000 0.000000 0.000000
# 2 -0.002618 0.014060 -0.006361 0.000000 0.000000 0.000000
# 3 -0.008348 -0.006361 0.015880 -0.000001 0.000000 0.000000
# 4 0.000000 0.000000 -0.000001 0.090327 0.000000 0.000000
# 5 0.000000 0.000000 0.000000 0.000000 0.027269 0.000000
# 6 0.000000 0.000000 0.000000 0.000000 0.000000 0.044051
#
#
# Mechanical properties :
#
#
# Convention : Reuss Voigt Hill
#
# Bulk Modulus (GPa) = 71.29576 75.91410 73.60493
# Shear Modulus (GPa) = 20.02762 23.72319 21.87541
#
# Velocity S-wave (km/s) = 3.33763 3.63254 3.48820
# Velocity P-wave (km/s) = 7.38303 7.73426 7.56068
#
# Compressibility (1/GPa) = 0.01402608
#
# Stress axis : x y z
#
# Youngs Moduli (GPa) = 53.36239 71.12392 62.97374
#
# Poissons Ratio (x) = 0.18619 0.52568
# Poissons Ratio (y) = 0.13969 0.40059
# Poissons Ratio (z) = 0.44545 0.45243
#
# Static dielectric constant tensor:
#      x y z
#    x 3.394670 0.000000 0.000000 
#    y 0.000000 3.381670 0.000000 
#    z 0.000000 0.000000 3.202000 
# 
# 
# High freq. dielectric constant tensor:
#      x y z
#    x 1.707860 0.000000 0.000000 
#    y 0.000000 1.693120 0.000000 
#    z 0.000000 0.000000 1.682850 
# 
# From -- ./inp_files/39676.got.cif
#   From: 2010.03.12/outbox.cif.g09.slc.cpg/sg74_20_cif.got.tgz:39676.got - 2010.04.16 15:46:19.
