data_PCOD8298920
_publ_section_title
;
Structure prediction by ZEFSAII (Michael W. Deem and Ramdas Pophale) SiO2 
 PCOD8298920
Probable space group: I M M A
;
_chemical_formula_sum "Si O2"
_cell_formula_units_Z 88
_cell_length_a 17.905172
_cell_length_b 16.528603
_cell_length_c 16.778735
_cell_angle_alpha 90.000000
_cell_angle_beta 90.000000
_cell_angle_gamma 90.000000
_cell_volume 4965.624335
_symmetry_space_group_name_H-M "I M M A"
_symmetry_group_IT_number 74
_symmetry_cell_setting 'orthorhombic'
loop_
_space_group_symop_operation_xyz
x,y,z
-x,1/2-y,z
x,-y,-z
-x,1/2+y,-z
-x,-y,-z
x,1/2+y,-z
-x,y,z
x,1/2-y,z
1/2+x,1/2+y,1/2+z
1/2-x,-y,1/2+z
1/2+x,1/2-y,1/2-z
1/2-x,y,1/2-z
1/2-x,1/2-y,1/2-z
1/2+x,y,1/2-z
1/2-x,1/2+y,1/2+z
1/2+x,-y,1/2+z
loop_
_atom_site_type_symbol
_atom_site_label
_atom_site_fract_x
_atom_site_fract_y
_atom_site_fract_z
Si Si1 0.768518 0.845410 0.578798
Si Si2 0.717407 0.345051 0.597419
Si Si3 0.583272 0.543786 0.422954
Si Si4 0.250000 0.060320 0.750000
Si Si5 0.853491 0.070695 0.192478
Si Si6 0.582697 0.844680 0.838419
O O1 0.757641 0.750000 0.593455
O O2 0.756515 0.867663 0.486240
O O3 0.710326 0.890685 0.636302
O O4 0.852941 0.874293 0.600298
O O5 0.713676 0.250000 0.610951
O O6 0.633431 0.379299 0.599018
O O7 0.761938 0.384980 0.670960
O O8 0.616945 0.500000 0.500000
O O9 0.500000 0.576919 0.436774
O O10 0.582024 0.472276 0.358106
O O11 0.178794 0.002169 0.754347
O O12 0.891204 0.137087 0.248347
O O13 0.500000 0.883184 0.856455
O O14 0.574633 0.750000 0.845913
#
# Coordination Sequence:
#
# PCOD8298920 Si02
#       6
#    16  16  16   8  16  16
#     4  10  19  33  54  78 106 141 183 221 259 315
#     4  10  21  37  56  78 105 141 183 222 261 314
#     4  10  20  33  51  78 108 139 174 217 266 316
#     4  10  21  32  57  80 100 138 178 228 265 304
#     4  11  18  33  52  80 106 143 175 219 264 315
#     4  10  20  33  51  78 113 145 173 213 267 322
#
# _framework density 17.721838999999999
#
# number of rings (size 3 to 8) (size 9 to 14) (size 15 to 20)
#    0.000    1.818    3.636    1.364    0.000    1.818 
#    0.000    0.000    0.000    6.545    0.000    5.091 
#    0.000    0.000    0.000    0.000    0.000    0.000 
#
# Total GULP energy -545280.911294 kJ/mol
# GULP energy per Si atom -12392.747984 kJ/mol
# Density = 1.768150 g / cm^3
# Si number density = 17.721839 Si / 1000 Ang^3
#
#
#
# Elastic Constant Matrix: (Units=GPa)
#
#
# Indices 1 2 3 4 5 6 
#
# 1 97.5427 28.1434 46.9280 0.0000 0.0000 0.0000
# 2 28.1434 55.1304 36.5170 0.0000 0.0000 0.0000
# 3 46.9280 36.5170 110.6961 0.0000 0.0000 0.0000
# 4 0.0000 0.0000 0.0000 28.5932 0.0000 0.0000
# 5 0.0000 0.0000 0.0000 0.0000 19.4169 0.0000
# 6 0.0000 0.0000 0.0000 0.0000 0.0000 7.4938
#
#
#
# Elastic Compliance Matrix: (Units=1/GPa)
#
#
# Indices 1 2 3 4 5 6 
#
# 1 0.013527 -0.003976 -0.004423 0.000000 0.000000 0.000000
# 2 -0.003976 0.024379 -0.006357 0.000000 0.000000 0.000000
# 3 -0.004423 -0.006357 0.013006 0.000000 0.000000 0.000000
# 4 0.000000 0.000000 0.000000 0.034973 0.000000 0.000000
# 5 0.000000 0.000000 0.000000 0.000000 0.051501 0.000000
# 6 0.000000 0.000000 0.000000 0.000000 0.000000 0.133444
#
#
# Mechanical properties :
#
#
# Convention : Reuss Voigt Hill
#
# Bulk Modulus (GPa) = 46.72745 54.06067 50.39406
# Shear Modulus (GPa) = 16.26150 21.21951 18.74050
#
# Velocity S-wave (km/s) = 3.03247 3.46405 3.25542
# Velocity P-wave (km/s) = 6.21977 6.82428 6.52903
#
# Compressibility (1/GPa) = 0.02140070
#
# Stress axis : x y z
#
# Youngs Moduli (GPa) = 73.92669 41.01900 76.88847
#
# Poissons Ratio (x) = 0.16308 0.34008
# Poissons Ratio (y) = 0.29390 0.48877
# Poissons Ratio (z) = 0.32698 0.26075
#
# Static dielectric constant tensor:
#      x y z
#    x 3.407220 0.000000 0.000000 
#    y 0.000000 3.243600 0.000000 
#    z 0.000000 0.000000 3.522170 
# 
# 
# High freq. dielectric constant tensor:
#      x y z
#    x 1.677570 0.000000 0.000000 
#    y 0.000000 1.680100 0.000000 
#    z 0.000000 0.000000 1.688840 
# 
# From -- ./inp_files/34102.got.cif
#   From: 2010.03.12/outbox.cif.g09.slc.cpg/sg74_18_cif.got.tgz:34102.got - 2010.04.16 15:46:19.
