data_PCOD8298597
_publ_section_title
;
Structure prediction by ZEFSAII (Michael W. Deem and Ramdas Pophale) SiO2 
 PCOD8298597
Probable space group: I M M A
;
_chemical_formula_sum "Si O2"
_cell_formula_units_Z 120
_cell_length_a 9.347473
_cell_length_b 28.013912
_cell_length_c 27.977860
_cell_angle_alpha 90.000000
_cell_angle_beta 90.000000
_cell_angle_gamma 90.000000
_cell_volume 7326.262445
_symmetry_space_group_name_H-M "I M M A"
_symmetry_group_IT_number 74
_symmetry_cell_setting 'orthorhombic'
loop_
_space_group_symop_operation_xyz
x,y,z
-x,1/2-y,z
x,-y,-z
-x,1/2+y,-z
-x,-y,-z
x,1/2+y,-z
-x,y,z
x,1/2-y,z
1/2+x,1/2+y,1/2+z
1/2-x,-y,1/2+z
1/2+x,1/2-y,1/2-z
1/2-x,y,1/2-z
1/2-x,1/2-y,1/2-z
1/2+x,y,1/2-z
1/2-x,1/2+y,1/2+z
1/2+x,-y,1/2+z
loop_
_atom_site_type_symbol
_atom_site_label
_atom_site_fract_x
_atom_site_fract_y
_atom_site_fract_z
Si Si1 0.666317 0.647920 0.200686
Si Si2 0.333036 0.304500 0.298282
Si Si3 0.339980 0.750000 0.203200
Si Si4 0.164673 0.572987 0.141300
Si Si5 0.331733 0.107578 0.362197
Si Si6 0.164136 0.020531 0.202139
Si Si7 0.837071 0.561763 0.553724
Si Si8 0.664502 0.450278 0.946055
O O1 0.500000 0.635715 0.209689
O O2 0.750000 0.646661 0.250000
O O3 0.686431 0.700229 0.175010
O O4 0.734089 0.609553 0.167138
O O5 0.500000 0.310615 0.286748
O O6 0.297044 0.250000 0.313894
O O7 0.250000 0.318399 0.250000
O O8 0.288691 0.340125 0.341588
O O9 0.500000 0.750000 0.222903
O O10 0.250000 0.750000 0.250000
O O11 0.188431 0.521320 0.164231
O O12 0.219707 0.574853 0.087271
O O13 0.000000 0.588952 0.143452
O O14 0.500000 0.103639 0.371416
O O15 0.281726 0.069064 0.322687
O O16 0.257652 0.096219 0.412853
O O17 0.250000 0.009631 0.250000
O O18 0.000000 0.024846 0.217388
O O19 0.811079 0.573255 0.497969
O O20 0.799929 0.506189 0.558114
O O21 0.000000 0.571604 0.568404
O O22 0.500000 0.441674 0.930053
#
# Coordination Sequence:
#
# PCOD8298597 Si02
#       8
#    16  16   8  16  16  16  16  16
#     4  10  19  32  49  70  96 127 161 198 237 279
#     4   9  18  32  50  72  99 131 167 206 247 291
#     4   8  16  30  48  68  90 118 156 196 234 272
#     4  11  21  32  46  69  98 129 163 194 236 288
#     4  10  19  32  48  70  98 127 161 201 244 287
#     4  10  21  32  42  62  94 130 162 191 225 274
#     4   9  18  32  51  73  95 121 158 197 241 288
#     4   9  18  33  50  70  96 125 157 199 241 284
#
# _framework density 16.379428000000001
#
# number of rings (size 3 to 8) (size 9 to 14) (size 15 to 20)
#    0.000    2.400    1.333    2.400    0.000    4.267 
#    0.000    1.333    0.000    0.000    1.733    0.000 
#    0.000    0.000    0.000    0.000    0.000    0.000 
#
# Total GULP energy -743597.880465 kJ/mol
# GULP energy per Si atom -12393.298008 kJ/mol
# Density = 1.634215 g / cm^3
# Si number density = 16.379428 Si / 1000 Ang^3
#
#
#
# Elastic Constant Matrix: (Units=GPa)
#
#
# Indices 1 2 3 4 5 6 
#
# 1 76.3652 42.3931 46.2382 0.0000 0.0000 0.0000
# 2 42.3931 86.1298 37.0690 0.0000 0.0000 0.0000
# 3 46.2382 37.0690 88.4786 0.0000 0.0000 0.0000
# 4 0.0000 0.0000 0.0000 25.9774 0.0000 0.0000
# 5 0.0000 0.0000 0.0000 0.0000 32.2698 0.0000
# 6 0.0000 0.0000 0.0000 0.0000 0.0000 22.5176
#
#
#
# Elastic Compliance Matrix: (Units=1/GPa)
#
#
# Indices 1 2 3 4 5 6 
#
# 1 0.022374 -0.007296 -0.008636 0.000000 0.000000 0.000000
# 2 -0.007296 0.016543 -0.003118 0.000000 0.000000 0.000000
# 3 -0.008636 -0.003118 0.017122 0.000000 0.000000 0.000000
# 4 0.000000 0.000000 0.000000 0.038495 0.000000 0.000000
# 5 0.000000 0.000000 0.000000 0.000000 0.030989 0.000000
# 6 0.000000 0.000000 0.000000 0.000000 0.000000 0.044410
#
#
# Mechanical properties :
#
#
# Convention : Reuss Voigt Hill
#
# Bulk Modulus (GPa) = 55.74380 55.81938 55.78159
# Shear Modulus (GPa) = 23.36315 24.50449 23.93382
#
# Velocity S-wave (km/s) = 3.78083 3.87208 3.82673
# Velocity P-wave (km/s) = 7.29152 7.35823 7.32495
#
# Compressibility (1/GPa) = 0.01793922
#
# Stress axis : x y z
#
# Youngs Moduli (GPa) = 44.69476 60.44687 58.40561
#
# Poissons Ratio (x) = 0.44101 0.50438
# Poissons Ratio (y) = 0.32608 0.18213
# Poissons Ratio (z) = 0.38598 0.18849
#
# Static dielectric constant tensor:
#      x y z
#    x 3.167930 0.000000 0.000000 
#    y 0.000000 3.395560 0.000000 
#    z 0.000000 0.000000 2.382440 
# 
# 
# High freq. dielectric constant tensor:
#      x y z
#    x 1.637640 0.000000 0.000000 
#    y 0.000000 1.622070 0.000000 
#    z 0.000000 0.000000 1.612170 
# 
# From -- ./inp_files/65153.got.cif
#   From: 2010.03.12/outbox.cif.g09.slc.cpg/sg74_33_cif.got.tgz:65153.got - 2010.04.16 15:46:19.
