data_PCOD8298273
_publ_section_title
;
Structure prediction by ZEFSAII (Michael W. Deem and Ramdas Pophale) SiO2 
 PCOD8298273
Probable space group: I M M A
;
_chemical_formula_sum "Si O2"
_cell_formula_units_Z 64
_cell_length_a 5.246662
_cell_length_b 18.459188
_cell_length_c 33.079248
_cell_angle_alpha 90.000000
_cell_angle_beta 90.000000
_cell_angle_gamma 90.000000
_cell_volume 3203.696067
_symmetry_space_group_name_H-M "I M M A"
_symmetry_group_IT_number 74
_symmetry_cell_setting 'orthorhombic'
loop_
_space_group_symop_operation_xyz
x,y,z
-x,1/2-y,z
x,-y,-z
-x,1/2+y,-z
-x,-y,-z
x,1/2+y,-z
-x,y,z
x,1/2-y,z
1/2+x,1/2+y,1/2+z
1/2-x,-y,1/2+z
1/2+x,1/2-y,1/2-z
1/2-x,y,1/2-z
1/2-x,1/2-y,1/2-z
1/2+x,y,1/2-z
1/2-x,1/2+y,1/2+z
1/2+x,-y,1/2+z
loop_
_atom_site_type_symbol
_atom_site_label
_atom_site_fract_x
_atom_site_fract_y
_atom_site_fract_z
Si Si1 0.000000 0.018777 0.546643
Si Si2 0.500000 0.035265 0.263139
Si Si3 0.500000 0.475948 0.408746
Si Si4 0.500000 0.329091 0.201984
Si Si5 0.000000 0.332946 0.775240
Si Si6 0.000000 0.122972 0.162513
Si Si7 0.500000 0.877577 0.364261
Si Si8 0.500000 0.668389 0.090821
O O1 0.000000 0.105801 0.555987
O O2 0.000000 0.000000 0.500000
O O3 0.751075 0.980256 0.564217
O O4 0.750000 0.989948 0.250000
O O5 0.500000 0.111486 0.237583
O O6 0.500000 0.049856 0.310392
O O7 0.500000 0.400221 0.384397
O O8 0.500000 0.539327 0.376287
O O9 0.500000 0.250000 0.222991
O O10 0.744732 0.333362 0.172740
O O11 0.750000 0.352225 0.750000
O O12 0.000000 0.250000 0.789025
O O13 0.000000 0.379976 0.815851
O O14 0.248814 0.838202 0.381207
O O15 0.500000 0.750000 0.071555
#
# Coordination Sequence:
#
# PCOD8298273 Si02
#       8
#     8   8   8   8   8   8   8   8
#     4  10  21  38  61  86 110 138 171 210 263 331
#     4   8  16  27  42  66  94 127 172 219 271 305
#     4  10  21  37  57  80 107 139 175 212 259 319
#     4  10  19  31  50  74 100 136 187 238 274 303
#     4  10  19  30  45  68 101 142 181 214 255 303
#     4  10  19  32  49  72 102 135 170 219 272 315
#     4  10  20  34  52  78 108 140 180 224 263 303
#     4  10  19  33  58  86 108 135 175 224 270 307
#
# _framework density 19.976927
#
# number of rings (size 3 to 8) (size 9 to 14) (size 15 to 20)
#    0.000    2.250    0.000    3.375    0.000    5.500 
#    0.000    3.750    0.000    4.500    0.000    0.000 
#    0.000    0.000    0.000    0.000    0.000    0.000 
#
# Total GULP energy -396609.426764 kJ/mol
# GULP energy per Si atom -12394.044586 kJ/mol
# Density = 1.993146 g / cm^3
# Si number density = 19.976927 Si / 1000 Ang^3
#
#
#
# Elastic Constant Matrix: (Units=GPa)
#
#
# Indices 1 2 3 4 5 6 
#
# 1 194.5001 11.4550 53.3049 0.0000 0.0000 0.0000
# 2 11.4550 61.3999 31.7803 0.0000 0.0000 0.0000
# 3 53.3049 31.7803 136.4507 0.0000 0.0000 0.0000
# 4 0.0000 0.0000 0.0000 22.2222 0.0000 0.0000
# 5 0.0000 0.0000 0.0000 0.0000 15.9854 0.0000
# 6 0.0000 0.0000 0.0000 0.0000 0.0000 138.7636
#
#
#
# Elastic Compliance Matrix: (Units=1/GPa)
#
#
# Indices 1 2 3 4 5 6 
#
# 1 0.005758 0.000102 -0.002273 0.000000 0.000000 0.000000
# 2 0.000102 0.018521 -0.004354 0.000000 0.000000 0.000000
# 3 -0.002273 -0.004354 0.009231 0.000000 0.000000 0.000000
# 4 0.000000 0.000000 0.000000 0.045000 0.000000 0.000000
# 5 0.000000 0.000000 0.000000 0.000000 0.062557 0.000000
# 6 0.000000 0.000000 0.000000 0.000000 0.000000 0.007206
#
#
# Mechanical properties :
#
#
# Convention : Reuss Voigt Hill
#
# Bulk Modulus (GPa) = 48.87388 65.04789 56.96089
# Shear Modulus (GPa) = 29.73651 55.11495 42.42573
#
# Velocity S-wave (km/s) = 3.86235 5.25825 4.61340
# Velocity P-wave (km/s) = 6.66398 8.33653 7.54673
#
# Compressibility (1/GPa) = 0.02046083
#
# Stress axis : x y z
#
# Youngs Moduli (GPa) = 173.65932 53.99281 108.33353
#
# Poissons Ratio (x) = -0.00553 0.24628
# Poissons Ratio (y) = -0.01778 0.47165
# Poissons Ratio (z) = 0.39479 0.23507
#
# Static dielectric constant tensor:
#      x y z
#    x 4.846760 0.000000 0.000000 
#    y 0.000000 3.471750 0.000000 
#    z 0.000000 0.000000 3.276910 
# 
# 
# High freq. dielectric constant tensor:
#      x y z
#    x 1.814840 0.000000 0.000000 
#    y 0.000000 1.768350 0.000000 
#    z 0.000000 0.000000 1.746370 
# 
# From -- ./inp_files/69371.got.cif
#   From: 2010.03.12/outbox.cif.g09.slc.cpg/sg74_35_cif.got.tgz:69371.got - 2010.04.16 15:46:19.
