data_PCOD8298803
_publ_section_title
;
Structure prediction by ZEFSAII (Michael W. Deem and Ramdas Pophale) SiO2 
 PCOD8298803
Probable space group: I M M A
;
_chemical_formula_sum "Si O2"
_cell_formula_units_Z 112
_cell_length_a 29.233961
_cell_length_b 15.718873
_cell_length_c 12.211877
_cell_angle_alpha 90.000000
_cell_angle_beta 90.000000
_cell_angle_gamma 90.000000
_cell_volume 5611.661804
_symmetry_space_group_name_H-M "I M M A"
_symmetry_group_IT_number 74
_symmetry_cell_setting 'orthorhombic'
loop_
_space_group_symop_operation_xyz
x,y,z
-x,1/2-y,z
x,-y,-z
-x,1/2+y,-z
-x,-y,-z
x,1/2+y,-z
-x,y,z
x,1/2-y,z
1/2+x,1/2+y,1/2+z
1/2-x,-y,1/2+z
1/2+x,1/2-y,1/2-z
1/2-x,y,1/2-z
1/2-x,1/2-y,1/2-z
1/2+x,y,1/2-z
1/2-x,1/2+y,1/2+z
1/2+x,-y,1/2+z
loop_
_atom_site_type_symbol
_atom_site_label
_atom_site_fract_x
_atom_site_fract_y
_atom_site_fract_z
Si Si1 0.361039 0.538478 0.880281
Si Si2 0.322816 0.889257 0.250633
Si Si3 0.749000 0.653996 0.414644
Si Si4 0.447869 0.521649 0.756515
Si Si5 0.552788 0.345892 0.430814
Si Si6 0.917622 0.343708 0.830865
Si Si7 0.721288 0.149730 0.147464
O O1 0.340969 0.480173 0.784896
O O2 0.415251 0.549216 0.857708
O O3 0.332049 0.624005 0.861466
O O4 0.353384 0.500000 0.000000
O O5 0.287543 0.903482 0.350638
O O6 0.297690 0.844826 0.148114
O O7 0.365724 0.834157 0.289901
O O8 0.730140 0.750000 0.417337
O O9 0.754132 0.617011 0.536767
O O10 0.500000 0.540526 0.791503
O O11 0.433031 0.582049 0.655837
O O12 0.443605 0.421087 0.729445
O O13 0.500000 0.357337 0.464176
O O14 0.561445 0.250000 0.384203
O O15 0.582525 0.361815 0.539311
O O16 0.940638 0.250000 0.808166
O O17 0.721481 0.250000 0.153934
O O18 0.750000 0.111364 0.250000
#
# Coordination Sequence:
#
# PCOD8298803 Si02
#       7
#    16  16  16  16  16  16  16
#     4  11  23  40  59  83 112 152 197 245 301 347
#     4  10  20  34  56  86 111 148 190 237 285 340
#     4  10  19  35  58  83 113 148 188 233 286 343
#     4  10  22  38  57  83 115 153 203 252 296 352
#     4   9  18  34  57  82 112 151 188 233 294 352
#     4  10  19  32  55  87 121 151 187 236 297 356
#     4  10  23  40  60  87 121 159 193 235 292 355
#
# _framework density 19.958438000000001
#
# number of rings (size 3 to 8) (size 9 to 14) (size 15 to 20)
#    0.000    2.000    1.429    2.571    2.000    4.000 
#    0.000    4.286    0.000    0.000    0.000    2.000 
#    0.000    0.000    0.000    0.000    0.000    0.000 
#
# Total GULP energy -694076.145036 kJ/mol
# GULP energy per Si atom -12394.216876 kJ/mol
# Density = 1.991301 g / cm^3
# Si number density = 19.958438 Si / 1000 Ang^3
#
#
#
# Elastic Constant Matrix: (Units=GPa)
#
#
# Indices 1 2 3 4 5 6 
#
# 1 106.3297 23.2633 59.3369 0.0000 0.0000 0.0000
# 2 23.2633 55.6840 29.0352 0.0000 0.0000 0.0000
# 3 59.3369 29.0352 122.9849 0.0000 0.0000 0.0000
# 4 0.0000 0.0000 0.0000 23.1169 0.0000 0.0000
# 5 0.0000 0.0000 0.0000 0.0000 25.9800 0.0000
# 6 0.0000 0.0000 0.0000 0.0000 0.0000 24.6792
#
#
#
# Elastic Compliance Matrix: (Units=1/GPa)
#
#
# Indices 1 2 3 4 5 6 
#
# 1 0.013167 -0.002496 -0.005764 0.000000 0.000000 0.000000
# 2 -0.002496 0.020953 -0.003743 0.000000 0.000000 0.000000
# 3 -0.005764 -0.003743 0.011795 0.000000 0.000000 0.000000
# 4 0.000000 0.000000 0.000000 0.043258 0.000000 0.000000
# 5 0.000000 0.000000 0.000000 0.000000 0.038491 0.000000
# 6 0.000000 0.000000 0.000000 0.000000 0.000000 0.040520
#
#
# Mechanical properties :
#
#
# Convention : Reuss Voigt Hill
#
# Bulk Modulus (GPa) = 45.63798 56.47436 51.05617
# Shear Modulus (GPa) = 25.06368 26.31276 25.68822
#
# Velocity S-wave (km/s) = 3.54756 3.63489 3.59149
# Velocity P-wave (km/s) = 6.30051 6.78041 6.54486
#
# Compressibility (1/GPa) = 0.02191158
#
# Stress axis : x y z
#
# Youngs Moduli (GPa) = 75.94717 47.72689 84.77855
#
# Poissons Ratio (x) = 0.11910 0.48863
# Poissons Ratio (y) = 0.18953 0.31729
# Poissons Ratio (z) = 0.43773 0.17862
#
# Static dielectric constant tensor:
#      x y z
#    x 3.744840 0.000000 0.000000 
#    y 0.000000 3.592490 0.000000 
#    z 0.000000 0.000000 3.698740 
# 
# 
# High freq. dielectric constant tensor:
#      x y z
#    x 1.772720 0.000000 0.000000 
#    y 0.000000 1.778400 0.000000 
#    z 0.000000 0.000000 1.768780 
# 
# From -- ./inp_files/27233.got.cif
#   From: 2010.03.12/outbox.cif.g09.slc.cpg/sg74_14_cif.got.tgz:27233.got - 2010.04.16 15:46:19.
