data_PCOD8298179
_publ_section_title
;
Structure prediction by ZEFSAII (Michael W. Deem and Ramdas Pophale) SiO2 
 PCOD8298179
Probable space group: I M M A
;
_chemical_formula_sum "Si O2"
_cell_formula_units_Z 112
_cell_length_a 28.457543
_cell_length_b 15.437177
_cell_length_c 13.239972
_cell_angle_alpha 90.000000
_cell_angle_beta 90.000000
_cell_angle_gamma 90.000000
_cell_volume 5816.374358
_symmetry_space_group_name_H-M "I M M A"
_symmetry_group_IT_number 74
_symmetry_cell_setting 'orthorhombic'
loop_
_space_group_symop_operation_xyz
x,y,z
-x,1/2-y,z
x,-y,-z
-x,1/2+y,-z
-x,-y,-z
x,1/2+y,-z
-x,y,z
x,1/2-y,z
1/2+x,1/2+y,1/2+z
1/2-x,-y,1/2+z
1/2+x,1/2-y,1/2-z
1/2-x,y,1/2-z
1/2-x,1/2-y,1/2-z
1/2+x,y,1/2-z
1/2-x,1/2+y,1/2+z
1/2+x,-y,1/2+z
loop_
_atom_site_type_symbol
_atom_site_label
_atom_site_fract_x
_atom_site_fract_y
_atom_site_fract_z
Si Si1 0.353755 0.096991 0.359423
Si Si2 0.948396 0.647477 0.176962
Si Si3 0.795640 0.343504 0.317609
Si Si4 0.648501 0.412070 0.721264
Si Si5 0.794019 0.153752 0.948495
Si Si6 0.052075 0.148128 0.052593
Si Si7 0.722706 0.471695 0.855414
O O1 0.340530 0.145754 0.255896
O O2 0.324079 0.132954 0.452641
O O3 0.409490 0.104945 0.375856
O O4 0.342239 0.996744 0.346884
O O5 0.945322 0.750000 0.183093
O O6 0.906449 0.606380 0.243196
O O7 0.000000 0.617154 0.216478
O O8 0.941534 0.615299 0.062044
O O9 0.801518 0.250000 0.375559
O O10 0.750000 0.337285 0.250000
O O11 0.789285 0.428474 0.391140
O O12 0.672397 0.339497 0.650263
O O13 0.673901 0.421153 0.830254
O O14 0.772134 0.250000 0.962172
O O15 0.752322 0.082756 0.936737
O O16 0.059368 0.250000 0.055477
O O17 0.000000 0.122577 0.091832
O O18 0.750000 0.478211 0.750000
#
# Coordination Sequence:
#
# PCOD8298179 Si02
#       7
#    16  16  16  16  16  16  16
#     4  11  20  30  46  68  89 116 154 194 230 273
#     4   9  17  28  41  58  82 115 156 194 227 268
#     4   9  17  31  48  63  84 113 145 185 231 274
#     4  10  19  29  42  60  85 114 148 189 228 267
#     4  11  20  30  45  63  85 115 150 187 227 270
#     4   9  17  28  41  60  86 114 149 189 224 263
#     4   8  18  31  41  61  85 106 145 186 221 271
#
# _framework density 19.255981999999999
#
# number of rings (size 3 to 8) (size 9 to 14) (size 15 to 20)
#    0.000    2.429    1.429    3.857    0.000    3.714 
#    0.000    1.429    0.000    0.000    0.000    0.000 
#    0.000    0.000    0.000    1.286    0.000  115.429 
#
# Total GULP energy -693819.872013 kJ/mol
# GULP energy per Si atom -12389.640572 kJ/mol
# Density = 1.921215 g / cm^3
# Si number density = 19.255982 Si / 1000 Ang^3
#
#
#
# Elastic Constant Matrix: (Units=GPa)
#
#
# Indices 1 2 3 4 5 6 
#
# 1 137.6723 35.9416 28.9350 0.0000 0.0000 0.0000
# 2 35.9416 98.9497 14.5619 0.0000 0.0000 0.0000
# 3 28.9350 14.5619 24.9970 0.0000 0.0000 0.0000
# 4 0.0000 0.0000 0.0000 -6.8144 0.0000 0.0000
# 5 0.0000 0.0000 0.0000 0.0000 27.2429 0.0000
# 6 0.0000 0.0000 0.0000 0.0000 0.0000 29.3026
#
#
#
# Elastic Compliance Matrix: (Units=1/GPa)
#
#
# Indices 1 2 3 4 5 6 
#
# 1 0.009985 -0.002106 -0.010331 0.000000 0.000000 0.000000
# 2 -0.002106 0.011498 -0.004260 0.000000 0.000000 0.000000
# 3 -0.010331 -0.004260 0.054444 0.000000 0.000000 0.000000
# 4 0.000000 0.000000 0.000000 -0.146749 0.000000 0.000000
# 5 0.000000 0.000000 0.000000 0.000000 0.036707 0.000000
# 6 0.000000 0.000000 0.000000 0.000000 0.000000 0.034127
#
#
# Mechanical properties :
#
#
# Convention : Reuss Voigt Hill
#
# Bulk Modulus (GPa) = 23.51093 46.72177 35.11635
# Shear Modulus (GPa) = 105.07701 22.09158 63.58430
#
# Velocity S-wave (km/s) = 7.39506 3.39079 5.75258
# Velocity P-wave (km/s) = 9.22779 6.29652 7.89931
#
# Compressibility (1/GPa) = 0.04253341
#
# Stress axis : x y z
#
# Youngs Moduli (GPa) = 100.15244 86.97024 18.36733
#
# Poissons Ratio (x) = 0.18320 0.18975
# Poissons Ratio (y) = 0.21097 0.07824
# Poissons Ratio (z) = 1.03464 0.37048
#
# Static dielectric constant tensor:
#      x y z
#    x 4.456610 0.000000 0.000000 
#    y 0.000000 3.875060 0.000000 
#    z 0.000000 0.000000 3.080010 
# 
# 
# High freq. dielectric constant tensor:
#      x y z
#    x 1.746510 0.000000 0.000000 
#    y 0.000000 1.763770 0.000000 
#    z 0.000000 0.000000 1.678370 
# 
# From -- ./inp_files/33155.got.cif
#   From: 2010.03.12/outbox.cif.g09.slc.cpg/sg74_17_cif.got.tgz:33155.got - 2010.04.16 15:46:19.
