data_PCOD8298816
_publ_section_title
;
Structure prediction by ZEFSAII (Michael W. Deem and Ramdas Pophale) SiO2 
 PCOD8298816
Probable space group: I M M A
;
_chemical_formula_sum "Si O2"
_cell_formula_units_Z 88
_cell_length_a 15.628606
_cell_length_b 22.178494
_cell_length_c 14.017074
_cell_angle_alpha 90.000000
_cell_angle_beta 90.000000
_cell_angle_gamma 90.000000
_cell_volume 4858.583393
_symmetry_space_group_name_H-M "I M M A"
_symmetry_group_IT_number 74
_symmetry_cell_setting 'orthorhombic'
loop_
_space_group_symop_operation_xyz
x,y,z
-x,1/2-y,z
x,-y,-z
-x,1/2+y,-z
-x,-y,-z
x,1/2+y,-z
-x,y,z
x,1/2-y,z
1/2+x,1/2+y,1/2+z
1/2-x,-y,1/2+z
1/2+x,1/2-y,1/2-z
1/2-x,y,1/2-z
1/2-x,1/2-y,1/2-z
1/2+x,y,1/2-z
1/2-x,1/2+y,1/2+z
1/2+x,-y,1/2+z
loop_
_atom_site_type_symbol
_atom_site_label
_atom_site_fract_x
_atom_site_fract_y
_atom_site_fract_z
Si Si1 0.845153 0.952897 0.749673
Si Si2 0.335879 0.750000 0.683125
Si Si3 0.095924 0.750000 0.621347
Si Si4 0.500000 0.068240 0.961951
Si Si5 0.346977 0.374989 0.429684
Si Si6 0.000000 0.540114 0.255468
Si Si7 0.000000 0.430063 0.961145
Si Si8 0.342089 0.875276 0.934279
O O1 0.750000 0.981640 0.750000
O O2 0.868967 0.923168 0.849100
O O3 0.851197 0.901299 0.671223
O O4 0.913904 0.003082 0.729189
O O5 0.250000 0.750000 0.750000
O O6 0.409771 0.750000 0.763116
O O7 0.347235 0.692161 0.614629
O O8 0.148019 0.804554 0.576769
O O9 0.000000 0.750000 0.581840
O O10 0.500000 0.081952 0.848815
O O11 0.413385 0.098458 0.997371
O O12 0.500000 0.000000 0.000000
O O13 0.417937 0.390014 0.508915
O O14 0.253205 0.388244 0.474852
O O15 0.000000 0.572486 0.153721
O O16 0.000000 0.500000 0.000000
#
# Coordination Sequence:
#
# PCOD8298816 Si02
#       8
#    16   8   8   8  16   8   8  16
#     4  10  19  32  59  88 119 155 192 244 305 369
#     4  12  20  36  62 102 131 159 188 261 324 384
#     4  12  22  32  60  93 132 154 185 235 319 383
#     4  12  24  37  59  85 113 155 208 261 307 356
#     4  11  22  37  60  90 130 161 198 243 310 390
#     4  12  24  42  54  78 122 154 214 260 288 350
#     4  12  26  41  59  83 121 177 218 247 299 372
#     4  11  21  37  57  93 124 155 191 245 320 377
#
# _framework density 18.112275
#
# number of rings (size 3 to 8) (size 9 to 14) (size 15 to 20)
#    0.000    0.727    8.182    0.545    1.273    2.182 
#    0.000    0.000    0.000    2.182    0.000    2.545 
#    0.000    0.000    0.000    0.000    0.000    0.000 
#
# Total GULP energy -545324.520510 kJ/mol
# GULP energy per Si atom -12393.739102 kJ/mol
# Density = 1.807105 g / cm^3
# Si number density = 18.112275 Si / 1000 Ang^3
#
#
#
# Elastic Constant Matrix: (Units=GPa)
#
#
# Indices 1 2 3 4 5 6 
#
# 1 149.7151 51.8999 57.9890 0.0000 0.0000 0.0000
# 2 51.8999 85.1327 34.4114 0.0000 0.0000 0.0000
# 3 57.9890 34.4114 88.3743 0.0000 0.0000 0.0000
# 4 0.0000 0.0000 0.0000 6.3375 0.0000 0.0000
# 5 0.0000 0.0000 0.0000 0.0000 12.6654 0.0000
# 6 0.0000 0.0000 0.0000 0.0000 0.0000 31.5243
#
#
#
# Elastic Compliance Matrix: (Units=1/GPa)
#
#
# Indices 1 2 3 4 5 6 
#
# 1 0.010032 -0.004100 -0.004986 0.000000 0.000000 0.000000
# 2 -0.004100 0.015616 -0.003390 0.000000 0.000000 0.000000
# 3 -0.004986 -0.003390 0.015907 0.000000 0.000000 0.000000
# 4 0.000000 0.000000 0.000000 0.157790 0.000000 0.000000
# 5 0.000000 0.000000 0.000000 0.000000 0.078955 0.000000
# 6 0.000000 0.000000 0.000000 0.000000 0.000000 0.031722
#
#
# Mechanical properties :
#
#
# Convention : Reuss Voigt Hill
#
# Bulk Modulus (GPa) = 60.23234 67.98030 64.10632
# Shear Modulus (GPa) = 14.68384 22.03356 18.35870
#
# Velocity S-wave (km/s) = 2.85039 3.49162 3.18717
# Velocity P-wave (km/s) = 6.64531 7.33958 7.00105
#
# Compressibility (1/GPa) = 0.01660238
#
# Stress axis : x y z
#
# Youngs Moduli (GPa) = 99.68003 64.03492 62.86399
#
# Poissons Ratio (x) = 0.26257 0.31345
# Poissons Ratio (y) = 0.40874 0.21312
# Poissons Ratio (z) = 0.49702 0.21709
#
# Static dielectric constant tensor:
#      x y z
#    x 3.751900 0.000000 0.000000 
#    y 0.000000 3.252970 0.000000 
#    z 0.000000 0.000000 3.207950 
# 
# 
# High freq. dielectric constant tensor:
#      x y z
#    x 1.729040 0.000000 0.000000 
#    y 0.000000 1.686370 0.000000 
#    z 0.000000 0.000000 1.675200 
# 
# From -- ./inp_files/32280.got.cif
#   From: 2010.03.12/outbox.cif.g09.slc.cpg/sg74_17_cif.got.tgz:32280.got - 2010.04.16 15:46:19.
