data_PCOD8298844
_publ_section_title
;
Structure prediction by ZEFSAII (Michael W. Deem and Ramdas Pophale) SiO2 
 PCOD8298844
Probable space group: I M M A
;
_chemical_formula_sum "Si O2"
_cell_formula_units_Z 56
_cell_length_a 13.918803
_cell_length_b 8.601705
_cell_length_c 24.102394
_cell_angle_alpha 90.000000
_cell_angle_beta 90.000000
_cell_angle_gamma 90.000000
_cell_volume 2885.669663
_symmetry_space_group_name_H-M "I M M A"
_symmetry_group_IT_number 74
_symmetry_cell_setting 'orthorhombic'
loop_
_space_group_symop_operation_xyz
x,y,z
-x,1/2-y,z
x,-y,-z
-x,1/2+y,-z
-x,-y,-z
x,1/2+y,-z
-x,y,z
x,1/2-y,z
1/2+x,1/2+y,1/2+z
1/2-x,-y,1/2+z
1/2+x,1/2-y,1/2-z
1/2-x,y,1/2-z
1/2-x,1/2-y,1/2-z
1/2+x,y,1/2-z
1/2-x,1/2+y,1/2+z
1/2+x,-y,1/2+z
loop_
_atom_site_type_symbol
_atom_site_label
_atom_site_fract_x
_atom_site_fract_y
_atom_site_fract_z
Si Si1 0.779608 0.931904 0.167949
Si Si2 0.110450 0.068254 0.263814
Si Si3 0.000000 0.069572 0.440511
Si Si4 0.291317 0.566405 0.938448
O O1 0.799683 0.750000 0.171316
O O2 0.863758 0.022083 0.200648
O O3 0.676438 0.970122 0.194788
O O4 0.783074 0.987505 0.103947
O O5 0.130874 0.250000 0.273207
O O6 0.000000 0.027984 0.276400
O O7 0.101946 0.022927 0.412892
O O8 0.000000 0.250000 0.449389
O O9 0.000000 0.000000 0.500000
O O10 0.274498 0.750000 0.940177
O O11 0.275718 0.500000 0.000000
#
# Coordination Sequence:
#
# PCOD8298844 Si02
#       4
#    16  16   8  16
#     4  11  22  35  54  82 112 143 179 219 268 323
#     4  10  21  38  59  80 105 140 181 226 272 316
#     4   8  16  28  44  66  96 134 172 210 251 300
#     4  10  19  33  51  75 107 143 182 220 265 316
#
# _framework density 19.40624
#
# number of rings (size 3 to 8) (size 9 to 14) (size 15 to 20)
#    0.000    2.000    0.000    6.000    2.000    3.429 
#    0.000    0.000    0.000    0.857    0.000    0.000 
#    0.000    0.000    0.000    0.000    0.000    0.000 
#
# Total GULP energy -346976.723270 kJ/mol
# GULP energy per Si atom -12392.025831 kJ/mol
# Density = 1.936207 g / cm^3
# Si number density = 19.406240 Si / 1000 Ang^3
#
#
#
# Elastic Constant Matrix: (Units=GPa)
#
#
# Indices 1 2 3 4 5 6 
#
# 1 34.4708 8.1368 -6.8548 0.0000 0.0000 0.0000
# 2 8.1368 56.0872 10.0409 0.0000 0.0000 0.0000
# 3 -6.8548 10.0409 71.0025 0.0000 0.0000 0.0000
# 4 0.0000 0.0000 0.0000 34.6898 0.0000 0.0000
# 5 0.0000 0.0000 0.0000 0.0000 22.9539 0.0000
# 6 0.0000 0.0000 0.0000 0.0000 0.0000 20.6060
#
#
#
# Elastic Compliance Matrix: (Units=1/GPa)
#
#
# Indices 1 2 3 4 5 6 
#
# 1 0.030967 -0.005158 0.003719 0.000000 0.000000 0.000000
# 2 -0.005158 0.019152 -0.003206 0.000000 0.000000 0.000000
# 3 0.003719 -0.003206 0.014896 0.000000 0.000000 0.000000
# 4 0.000000 0.000000 0.000000 0.028827 0.000000 0.000000
# 5 0.000000 0.000000 0.000000 0.000000 0.043566 0.000000
# 6 0.000000 0.000000 0.000000 0.000000 0.000000 0.048530
#
#
# Mechanical properties :
#
#
# Convention : Reuss Voigt Hill
#
# Bulk Modulus (GPa) = 17.94547 20.46736 19.20641
# Shear Modulus (GPa) = 23.38595 25.66577 24.52586
#
# Velocity S-wave (km/s) = 3.47518 3.64064 3.55887
# Velocity P-wave (km/s) = 5.03685 5.31432 5.17745
#
# Compressibility (1/GPa) = 0.05572437
#
# Stress axis : x y z
#
# Youngs Moduli (GPa) = 32.29218 52.21464 67.12987
#
# Poissons Ratio (x) = 0.26934 -0.24967
# Poissons Ratio (y) = 0.16657 0.21524
# Poissons Ratio (z) = -0.12010 0.16742
#
# Static dielectric constant tensor:
#      x y z
#    x 3.578670 0.000000 0.000000 
#    y 0.000000 3.536420 0.000000 
#    z 0.000000 0.000000 3.576170 
# 
# 
# High freq. dielectric constant tensor:
#      x y z
#    x 1.724680 0.000000 0.000000 
#    y 0.000000 1.765150 0.000000 
#    z 0.000000 0.000000 1.756630 
# 
# From -- ./inp_files/47840.got.cif
#   From: 2010.03.12/outbox.cif.g09.slc.cpg/sg74_24_cif.got.tgz:47840.got - 2010.04.16 15:46:19.
