data_PCOD8298370
_publ_section_title
;
Structure prediction by ZEFSAII (Michael W. Deem and Ramdas Pophale) SiO2 
 PCOD8298370
Probable space group: I M M A
;
_chemical_formula_sum "Si O2"
_cell_formula_units_Z 112
_cell_length_a 18.796729
_cell_length_b 26.867176
_cell_length_c 12.179022
_cell_angle_alpha 90.000000
_cell_angle_beta 90.000000
_cell_angle_gamma 90.000000
_cell_volume 6150.589115
_symmetry_space_group_name_H-M "I M M A"
_symmetry_group_IT_number 74
_symmetry_cell_setting 'orthorhombic'
loop_
_space_group_symop_operation_xyz
x,y,z
-x,1/2-y,z
x,-y,-z
-x,1/2+y,-z
-x,-y,-z
x,1/2+y,-z
-x,y,z
x,1/2-y,z
1/2+x,1/2+y,1/2+z
1/2-x,-y,1/2+z
1/2+x,1/2-y,1/2-z
1/2-x,y,1/2-z
1/2-x,1/2-y,1/2-z
1/2+x,y,1/2-z
1/2-x,1/2+y,1/2+z
1/2+x,-y,1/2+z
loop_
_atom_site_type_symbol
_atom_site_label
_atom_site_fract_x
_atom_site_fract_y
_atom_site_fract_z
Si Si1 0.850209 0.993146 0.837861
Si Si2 0.915988 0.194968 0.286428
Si Si3 0.080556 0.409286 0.882398
Si Si4 0.178832 0.629431 0.308432
Si Si5 0.307477 0.977980 0.111382
Si Si6 0.580622 0.191147 0.966038
Si Si7 0.918267 0.888648 0.876580
O O1 0.873976 0.937403 0.852584
O O2 0.896265 0.033395 0.906335
O O3 0.769278 0.997270 0.875909
O O4 0.859223 0.005639 0.709248
O O5 0.882859 0.250000 0.265164
O O6 0.897566 0.176284 0.409472
O O7 0.885720 0.156605 0.195434
O O8 0.000000 0.199049 0.273767
O O9 0.126922 0.384607 0.789364
O O10 0.000000 0.409125 0.841116
O O11 0.088679 0.377002 0.993906
O O12 0.250000 0.651146 0.250000
O O13 0.199383 0.582009 0.384523
O O14 0.139455 0.669358 0.384133
O O15 0.341674 0.000000 0.000000
O O16 0.500000 0.171767 0.940179
O O17 0.581888 0.250000 0.952968
O O18 0.000000 0.898226 0.843619
#
# Coordination Sequence:
#
# PCOD8298370 Si02
#       7
#    16  16  16  16  16  16  16
#     4  10  19  32  49  74 103 142 182 223 258 324
#     4   8  16  33  54  79 109 137 174 225 275 320
#     4  10  19  33  51  76 110 143 174 220 269 317
#     4  11  21  36  54  79 109 144 180 223 271 323
#     4  10  20  34  49  72 106 144 183 219 267 318
#     4   9  19  37  61  83 105 140 183 227 274 324
#     4  10  19  30  52  80 104 139 181 218 269 326
#
# _framework density 18.209637000000001
#
# number of rings (size 3 to 8) (size 9 to 14) (size 15 to 20)
#    0.000    2.286    2.857    3.000    2.000    1.429 
#    0.000    0.714    0.000    5.143    0.000    4.000 
#    0.000    0.000    0.000    0.000    0.000    0.000 
#
# Total GULP energy -694157.504716 kJ/mol
# GULP energy per Si atom -12395.669727 kJ/mol
# Density = 1.816819 g / cm^3
# Si number density = 18.209637 Si / 1000 Ang^3
#
#
#
# Elastic Constant Matrix: (Units=GPa)
#
#
# Indices 1 2 3 4 5 6 
#
# 1 75.2892 38.4396 35.7880 0.0000 0.0000 0.0000
# 2 38.4396 86.0355 55.6169 0.0000 0.0000 0.0000
# 3 35.7880 55.6169 107.8781 0.0000 0.0000 0.0000
# 4 0.0000 0.0000 0.0000 25.5383 0.0000 0.0000
# 5 0.0000 0.0000 0.0000 0.0000 13.6106 0.0000
# 6 0.0000 0.0000 0.0000 0.0000 0.0000 21.1423
#
#
#
# Elastic Compliance Matrix: (Units=1/GPa)
#
#
# Indices 1 2 3 4 5 6 
#
# 1 0.017714 -0.006173 -0.002694 0.000000 0.000000 0.000000
# 2 -0.006173 0.019584 -0.008049 0.000000 0.000000 0.000000
# 3 -0.002694 -0.008049 0.014313 0.000000 0.000000 0.000000
# 4 0.000000 0.000000 0.000000 0.039157 0.000000 0.000000
# 5 0.000000 0.000000 0.000000 0.000000 0.073472 0.000000
# 6 0.000000 0.000000 0.000000 0.000000 0.000000 0.047299
#
#
# Mechanical properties :
#
#
# Convention : Reuss Voigt Hill
#
# Bulk Modulus (GPa) = 56.24369 58.76576 57.50473
# Shear Modulus (GPa) = 19.89669 21.34878 20.62273
#
# Velocity S-wave (km/s) = 3.30911 3.42773 3.36894
# Velocity P-wave (km/s) = 6.74938 6.92875 6.83965
#
# Compressibility (1/GPa) = 0.01777977
#
# Stress axis : x y z
#
# Youngs Moduli (GPa) = 56.45113 51.06150 69.86598
#
# Poissons Ratio (x) = 0.31520 0.18823
# Poissons Ratio (y) = 0.34847 0.56234
# Poissons Ratio (z) = 0.15209 0.41099
#
# Static dielectric constant tensor:
#      x y z
#    x 3.269260 0.000000 0.000000 
#    y 0.000000 3.380120 0.000000 
#    z 0.000000 0.000000 3.709330 
# 
# 
# High freq. dielectric constant tensor:
#      x y z
#    x 1.686830 0.000000 0.000000 
#    y 0.000000 1.689090 0.000000 
#    z 0.000000 0.000000 1.717720 
# 
# From -- ./inp_files/24152.got.cif
#   From: 2010.03.12/outbox.cif.g09.slc.cpg/sg74_13_cif.got.tgz:24152.got - 2010.04.16 15:46:19.
