data_PCOD8298490
_publ_section_title
;
Structure prediction by ZEFSAII (Michael W. Deem and Ramdas Pophale) SiO2 
 PCOD8298490
Probable space group: I M M A
;
_chemical_formula_sum "Si O2"
_cell_formula_units_Z 64
_cell_length_a 13.941216
_cell_length_b 14.900687
_cell_length_c 15.606609
_cell_angle_alpha 90.000000
_cell_angle_beta 90.000000
_cell_angle_gamma 90.000000
_cell_volume 3242.018570
_symmetry_space_group_name_H-M "I M M A"
_symmetry_group_IT_number 74
_symmetry_cell_setting 'orthorhombic'
loop_
_space_group_symop_operation_xyz
x,y,z
-x,1/2-y,z
x,-y,-z
-x,1/2+y,-z
-x,-y,-z
x,1/2+y,-z
-x,y,z
x,1/2-y,z
1/2+x,1/2+y,1/2+z
1/2-x,-y,1/2+z
1/2+x,1/2-y,1/2-z
1/2-x,y,1/2-z
1/2-x,1/2-y,1/2-z
1/2+x,y,1/2-z
1/2-x,1/2+y,1/2+z
1/2+x,-y,1/2+z
loop_
_atom_site_type_symbol
_atom_site_label
_atom_site_fract_x
_atom_site_fract_y
_atom_site_fract_z
Si Si1 0.610048 0.151658 0.876434
Si Si2 0.109108 0.350492 0.148083
Si Si3 0.112364 0.464628 0.306477
Si Si4 0.727976 0.403918 0.034603
O O1 0.500000 0.136970 0.905613
O O2 0.622726 0.250000 0.832145
O O3 0.638029 0.071332 0.810785
O O4 0.675647 0.151743 0.960676
O O5 0.114685 0.250000 0.186970
O O6 0.150275 0.422369 0.217288
O O7 0.174491 0.354939 0.063370
O O8 0.000000 0.373857 0.121777
O O9 0.156110 0.411428 0.385832
O O10 0.000000 0.447097 0.310984
O O11 0.758860 0.500000 0.000000
#
# Coordination Sequence:
#
# PCOD8298490 Si02
#       4
#    16  16  16  16
#     4   9  17  30  51  78 104 129 157 194 245 300
#     4  10  21  35  51  72  98 131 170 207 242 284
#     4   9  18  32  49  73 103 130 161 202 245 291
#     4  10  19  31  50  73 101 132 162 199 246 293
#
# _framework density 19.740788999999999
#
# number of rings (size 3 to 8) (size 9 to 14) (size 15 to 20)
#    0.000    2.500    0.000    2.250    0.000    6.500 
#    0.000    2.500    0.000   13.500    0.000    3.500 
#    0.000    0.000    0.000    0.000    0.000    0.000 
#
# Total GULP energy -396685.787434 kJ/mol
# GULP energy per Si atom -12396.430857 kJ/mol
# Density = 1.969586 g / cm^3
# Si number density = 19.740789 Si / 1000 Ang^3
#
#
#
# Elastic Constant Matrix: (Units=GPa)
#
#
# Indices 1 2 3 4 5 6 
#
# 1 57.4783 36.0919 37.3249 0.0000 0.0000 0.0000
# 2 36.0919 112.7234 34.7835 0.0000 0.0000 0.0000
# 3 37.3249 34.7835 66.0715 0.0000 0.0000 0.0000
# 4 0.0000 0.0000 0.0000 21.8111 0.0000 0.0000
# 5 0.0000 0.0000 0.0000 0.0000 26.8321 0.0000
# 6 0.0000 0.0000 0.0000 0.0000 0.0000 19.2854
#
#
#
# Elastic Compliance Matrix: (Units=1/GPa)
#
#
# Indices 1 2 3 4 5 6 
#
# 1 0.029825 -0.005194 -0.014114 0.000000 0.000000 0.000000
# 2 -0.005194 0.011496 -0.003118 0.000000 0.000000 0.000000
# 3 -0.014114 -0.003118 0.024750 0.000000 0.000000 0.000000
# 4 0.000000 0.000000 0.000000 0.045848 0.000000 0.000000
# 5 0.000000 0.000000 0.000000 0.000000 0.037269 0.000000
# 6 0.000000 0.000000 0.000000 0.000000 0.000000 0.051853
#
#
# Mechanical properties :
#
#
# Convention : Reuss Voigt Hill
#
# Bulk Modulus (GPa) = 47.12846 50.29708 48.71277
# Shear Modulus (GPa) = 19.76549 22.12391 20.94470
#
# Velocity S-wave (km/s) = 3.16769 3.35135 3.26081
# Velocity P-wave (km/s) = 6.10774 6.36470 6.23754
#
# Compressibility (1/GPa) = 0.02121860
#
# Stress axis : x y z
#
# Youngs Moduli (GPa) = 33.52932 86.98314 40.40414
#
# Poissons Ratio (x) = 0.45180 0.57027
# Poissons Ratio (y) = 0.17415 0.12599
# Poissons Ratio (z) = 0.47323 0.27123
#
# Static dielectric constant tensor:
#      x y z
#    x 3.568820 0.000000 0.000000 
#    y 0.000000 3.745900 0.000000 
#    z 0.000000 0.000000 3.343040 
# 
# 
# High freq. dielectric constant tensor:
#      x y z
#    x 1.775370 0.000000 0.000000 
#    y 0.000000 1.778190 0.000000 
#    z 0.000000 0.000000 1.732920 
# 
# From -- ./inp_files/19948.got.cif
#   From: 2010.03.12/outbox.cif.g09.slc.cpg/sg74_10_cif.got.tgz:19948.got - 2010.04.16 15:46:19.
