data_PCOD8298839
_publ_section_title
;
Structure prediction by ZEFSAII (Michael W. Deem and Ramdas Pophale) SiO2 
 PCOD8298839
Probable space group: I M M A
;
_chemical_formula_sum "Si O2"
_cell_formula_units_Z 120
_cell_length_a 26.372492
_cell_length_b 8.726161
_cell_length_c 29.535707
_cell_angle_alpha 90.000000
_cell_angle_beta 90.000000
_cell_angle_gamma 90.000000
_cell_volume 6797.070303
_symmetry_space_group_name_H-M "I M M A"
_symmetry_group_IT_number 74
_symmetry_cell_setting 'orthorhombic'
loop_
_space_group_symop_operation_xyz
x,y,z
-x,1/2-y,z
x,-y,-z
-x,1/2+y,-z
-x,-y,-z
x,1/2+y,-z
-x,y,z
x,1/2-y,z
1/2+x,1/2+y,1/2+z
1/2-x,-y,1/2+z
1/2+x,1/2-y,1/2-z
1/2-x,y,1/2-z
1/2-x,1/2-y,1/2-z
1/2+x,y,1/2-z
1/2-x,1/2+y,1/2+z
1/2+x,-y,1/2+z
loop_
_atom_site_type_symbol
_atom_site_label
_atom_site_fract_x
_atom_site_fract_y
_atom_site_fract_z
Si Si1 0.236926 0.931608 0.635077
Si Si2 0.899712 0.069980 0.911523
Si Si3 0.000000 0.431013 0.048753
Si Si4 0.055208 0.072533 0.734331
Si Si5 0.588642 0.918866 0.681048
Si Si6 0.197415 0.417807 0.216992
Si Si7 0.298213 0.067407 0.451664
Si Si8 0.338117 0.430550 0.803528
O O1 0.233614 0.750000 0.635049
O O2 0.276702 0.994236 0.672796
O O3 0.256568 0.986093 0.585673
O O4 0.181837 0.001248 0.648432
O O5 0.900820 0.250000 0.921403
O O6 0.897575 0.036812 0.858439
O O7 0.853040 0.997008 0.938407
O O8 0.950870 0.989716 0.926159
O O9 0.000000 0.250000 0.046607
O O10 0.000000 0.500000 0.000000
O O11 0.064523 0.250000 0.744795
O O12 0.103230 0.014527 0.704202
O O13 0.000000 0.046604 0.709898
O O14 0.049515 0.989600 0.783053
O O15 0.570231 0.750000 0.663451
O O16 0.638632 0.898500 0.709694
O O17 0.221658 0.250000 0.224698
O O18 0.201506 0.512842 0.264140
O O19 0.302085 0.250000 0.454184
O O20 0.281136 0.000000 0.500000
O O21 0.335102 0.250000 0.805736
#
# Coordination Sequence:
#
# PCOD8298839 Si02
#       8
#    16  16   8  16  16  16  16  16
#     4  10  20  35  53  73 104 141 171 207 259 318
#     4  12  24  39  58  78 101 132 170 218 273 320
#     4  12  26  44  60  74  94 122 164 218 272 324
#     4   9  19  35  51  70 104 144 178 217 263 312
#     4  10  19  33  51  74 100 132 173 216 256 304
#     4   9  17  32  50  69  98 136 170 201 250 309
#     4  11  23  41  60  81 105 136 176 216 266 322
#     4  10  20  31  48  77 105 134 175 219 258 304
#
# _framework density 17.654665999999999
#
# number of rings (size 3 to 8) (size 9 to 14) (size 15 to 20)
#    0.000    1.733    1.333    3.800    0.933    4.533 
#    0.000    0.000    0.000    0.000    0.000    0.000 
#    0.000    0.533    0.000    1.200    0.000    1.867 
#
# Total GULP energy -743475.185813 kJ/mol
# GULP energy per Si atom -12391.253097 kJ/mol
# Density = 1.761448 g / cm^3
# Si number density = 17.654666 Si / 1000 Ang^3
#
#
#
# Elastic Constant Matrix: (Units=GPa)
#
#
# Indices 1 2 3 4 5 6 
#
# 1 81.2989 26.5381 65.5817 0.0000 0.0000 0.0000
# 2 26.5381 79.6718 41.5322 0.0000 0.0000 0.0000
# 3 65.5817 41.5322 109.0225 0.0000 0.0000 0.0000
# 4 0.0000 0.0000 0.0000 24.4807 0.0000 0.0000
# 5 0.0000 0.0000 0.0000 0.0000 15.5300 0.0000
# 6 0.0000 0.0000 0.0000 0.0000 0.0000 -13.0075
#
#
#
# Elastic Compliance Matrix: (Units=1/GPa)
#
#
# Indices 1 2 3 4 5 6 
#
# 1 0.023917 -0.000582 -0.014165 0.000000 0.000000 0.000000
# 2 -0.000582 0.015676 -0.005621 0.000000 0.000000 0.000000
# 3 -0.014165 -0.005621 0.019835 0.000000 0.000000 0.000000
# 4 0.000000 0.000000 0.000000 0.040848 0.000000 0.000000
# 5 0.000000 0.000000 0.000000 0.000000 0.064392 0.000000
# 6 0.000000 0.000000 0.000000 0.000000 0.000000 -0.076879
#
#
# Mechanical properties :
#
#
# Convention : Reuss Voigt Hill
#
# Bulk Modulus (GPa) = 53.50524 59.69967 56.60245
# Shear Modulus (GPa) = 37.10364 14.49006 25.79685
#
# Velocity S-wave (km/s) = 4.58933 2.86798 3.82670
# Velocity P-wave (km/s) = 7.64559 6.69744 7.18717
#
# Compressibility (1/GPa) = 0.01868976
#
# Stress axis : x y z
#
# Youngs Moduli (GPa) = 41.81087 63.79232 50.41597
#
# Poissons Ratio (x) = 0.03715 0.71416
# Poissons Ratio (y) = 0.02435 0.28341
# Poissons Ratio (z) = 0.59227 0.35860
#
# Static dielectric constant tensor:
#      x y z
#    x 3.397020 0.000000 0.000000 
#    y 0.000000 3.462560 0.000000 
#    z 0.000000 0.000000 3.328550 
# 
# 
# High freq. dielectric constant tensor:
#      x y z
#    x 1.680210 0.000000 0.000000 
#    y 0.000000 1.688440 0.000000 
#    z 0.000000 0.000000 1.656450 
# 
# From -- ./inp_files/69007.got.cif
#   From: 2010.03.12/outbox.cif.g09.slc.cpg/sg74_35_cif.got.tgz:69007.got - 2010.04.16 15:46:19.
