data_PCOD8298574
_publ_section_title
;
Structure prediction by ZEFSAII (Michael W. Deem and Ramdas Pophale) SiO2 
 PCOD8298574
Probable space group: I M M A
;
_chemical_formula_sum "Si O2"
_cell_formula_units_Z 72
_cell_length_a 9.014295
_cell_length_b 17.226898
_cell_length_c 27.938805
_cell_angle_alpha 90.000000
_cell_angle_beta 90.000000
_cell_angle_gamma 90.000000
_cell_volume 4338.570664
_symmetry_space_group_name_H-M "I M M A"
_symmetry_group_IT_number 74
_symmetry_cell_setting 'orthorhombic'
loop_
_space_group_symop_operation_xyz
x,y,z
-x,1/2-y,z
x,-y,-z
-x,1/2+y,-z
-x,-y,-z
x,1/2+y,-z
-x,y,z
x,1/2-y,z
1/2+x,1/2+y,1/2+z
1/2-x,-y,1/2+z
1/2+x,1/2-y,1/2-z
1/2-x,y,1/2-z
1/2-x,1/2-y,1/2-z
1/2+x,y,1/2-z
1/2-x,1/2+y,1/2+z
1/2+x,-y,1/2+z
loop_
_atom_site_type_symbol
_atom_site_label
_atom_site_fract_x
_atom_site_fract_y
_atom_site_fract_z
Si Si1 0.325910 0.581153 0.801649
Si Si2 0.336741 0.930603 0.037569
Si Si3 0.674687 0.028022 0.391019
Si Si4 0.167927 0.250000 0.298733
Si Si5 0.173722 0.161355 0.449979
O O1 0.500000 0.562739 0.796726
O O2 0.250000 0.572540 0.750000
O O3 0.249806 0.522225 0.838682
O O4 0.297962 0.668100 0.824986
O O5 0.500000 0.919971 0.060759
O O6 0.220832 0.950581 0.079599
O O7 0.291979 0.854620 0.006513
O O8 0.340726 0.000000 0.000000
O O9 0.500000 0.029714 0.385013
O O10 0.727583 0.105795 0.417428
O O11 0.250000 0.250000 0.250000
O O12 0.000000 0.250000 0.282707
O O13 0.214825 0.250000 0.438081
O O14 0.000000 0.144579 0.439328
#
# Coordination Sequence:
#
# PCOD8298574 Si02
#       5
#    16  16  16   8  16
#     4  10  19  32  46  62  84 114 150 188 225 261
#     4   8  15  30  48  64  84 114 147 181 223 266
#     4  11  21  30  43  65  91 121 152 183 220 264
#     4   8  16  28  42  56  74 104 138 176 218 252
#     4   9  18  32  49  67  88 115 149 187 225 266
#
# _framework density 16.595327000000001
#
# number of rings (size 3 to 8) (size 9 to 14) (size 15 to 20)
#    0.000    2.667    0.000    4.000    1.556    5.333 
#    0.000    0.000    0.000    0.000    0.000    0.000 
#    0.000    0.889    0.000    2.444    0.000    3.556 
#
# Total GULP energy -445996.589137 kJ/mol
# GULP energy per Si atom -12388.794143 kJ/mol
# Density = 1.655756 g / cm^3
# Si number density = 16.595327 Si / 1000 Ang^3
#
#
#
# Elastic Constant Matrix: (Units=GPa)
#
#
# Indices 1 2 3 4 5 6 
#
# 1 106.0337 12.2390 50.1890 0.0000 0.0000 0.0000
# 2 12.2390 13.7360 8.4355 0.0000 0.0000 0.0000
# 3 50.1890 8.4355 78.6102 0.0000 0.0000 0.0000
# 4 0.0000 0.0000 0.0000 22.1035 0.0000 0.0000
# 5 0.0000 0.0000 0.0000 0.0000 28.1801 0.0000
# 6 0.0000 0.0000 0.0000 0.0000 0.0000 14.8816
#
#
#
# Elastic Compliance Matrix: (Units=1/GPa)
#
#
# Indices 1 2 3 4 5 6 
#
# 1 0.014219 -0.007595 -0.008263 0.000000 0.000000 0.000000
# 2 -0.007595 0.081994 -0.003950 0.000000 0.000000 0.000000
# 3 -0.008263 -0.003950 0.018420 0.000000 0.000000 0.000000
# 4 0.000000 0.000000 0.000000 0.045242 0.000000 0.000000
# 5 0.000000 0.000000 0.000000 0.000000 0.035486 0.000000
# 6 0.000000 0.000000 0.000000 0.000000 0.000000 0.067197
#
#
# Mechanical properties :
#
#
# Convention : Reuss Voigt Hill
#
# Bulk Modulus (GPa) = 13.33011 37.78964 25.55988
# Shear Modulus (GPa) = 15.28217 21.53414 18.40816
#
# Velocity S-wave (km/s) = 3.03788 3.60613 3.33413
# Velocity P-wave (km/s) = 4.51163 6.33716 5.50066
#
# Compressibility (1/GPa) = 0.07501815
#
# Stress axis : x y z
#
# Youngs Moduli (GPa) = 70.32977 12.19602 54.28758
#
# Poissons Ratio (x) = 0.09262 0.44858
# Poissons Ratio (y) = 0.53413 0.21443
# Poissons Ratio (z) = 0.58114 0.04817
#
# Static dielectric constant tensor:
#      x y z
#    x 3.081670 0.000000 0.000000 
#    y 0.000000 3.127900 0.000000 
#    z 0.000000 0.000000 3.092150 
# 
# 
# High freq. dielectric constant tensor:
#      x y z
#    x 1.640400 0.000000 0.000000 
#    y 0.000000 1.593870 0.000000 
#    z 0.000000 0.000000 1.629630 
# 
# From -- ./inp_files/56796.got.cif
#   From: 2010.03.12/outbox.cif.g09.slc.cpg/sg74_29_cif.got.tgz:56796.got - 2010.04.16 15:46:19.
