data_PCOD8298706
_publ_section_title
;
Structure prediction by ZEFSAII (Michael W. Deem and Ramdas Pophale) SiO2 
 PCOD8298706
Probable space group: I M M A
;
_chemical_formula_sum "Si O2"
_cell_formula_units_Z 112
_cell_length_a 19.035833
_cell_length_b 22.817030
_cell_length_c 15.028729
_cell_angle_alpha 90.000000
_cell_angle_beta 90.000000
_cell_angle_gamma 90.000000
_cell_volume 6527.595777
_symmetry_space_group_name_H-M "I M M A"
_symmetry_group_IT_number 74
_symmetry_cell_setting 'orthorhombic'
loop_
_space_group_symop_operation_xyz
x,y,z
-x,1/2-y,z
x,-y,-z
-x,1/2+y,-z
-x,-y,-z
x,1/2+y,-z
-x,y,z
x,1/2-y,z
1/2+x,1/2+y,1/2+z
1/2-x,-y,1/2+z
1/2+x,1/2-y,1/2-z
1/2-x,y,1/2-z
1/2-x,1/2-y,1/2-z
1/2+x,y,1/2-z
1/2-x,1/2+y,1/2+z
1/2+x,-y,1/2+z
loop_
_atom_site_type_symbol
_atom_site_label
_atom_site_fract_x
_atom_site_fract_y
_atom_site_fract_z
Si Si1 0.313748 0.319327 0.510007
Si Si2 0.656202 0.682410 0.987155
Si Si3 0.582182 0.506709 0.901553
Si Si4 0.917174 0.871057 0.672840
Si Si5 0.324811 0.180790 0.709662
Si Si6 0.582182 0.620476 0.149483
Si Si7 0.419063 0.181478 0.360264
O O1 0.317720 0.250000 0.511354
O O2 0.236335 0.340116 0.481244
O O3 0.330313 0.342726 0.608912
O O4 0.371493 0.343321 0.440729
O O5 0.653905 0.750000 0.017183
O O6 0.620682 0.675211 0.891418
O O7 0.614832 0.644941 0.059251
O O8 0.500000 0.516474 0.914149
O O9 0.611556 0.563687 0.849831
O O10 0.598216 0.448848 0.844162
O O11 0.616382 0.500000 0.000000
O O12 0.896993 0.855178 0.773498
O O13 0.000000 0.864577 0.658176
O O14 0.335287 0.250000 0.716382
O O15 0.250000 0.162214 0.750000
O O16 0.386745 0.150397 0.763564
O O17 0.500000 0.633715 0.146411
O O18 0.500000 0.170551 0.386052
O O19 0.405140 0.250000 0.341540
#
# Coordination Sequence:
#
# PCOD8298706 Si02
#       7
#    16  16  16  16  16  16  16
#     4   9  19  34  52  72 102 143 173 200 252 319
#     4  11  20  30  49  77 108 137 162 205 265 315
#     4   9  17  32  51  72 100 138 175 205 254 310
#     4  10  19  32  52  75 104 138 171 213 258 304
#     4  10  19  34  53  74 103 138 169 203 259 315
#     4  11  21  32  52  79 104 131 171 218 253 302
#     4   9  18  33  53  77 103 135 177 218 254 301
#
# _framework density 17.157924999999999
#
# number of rings (size 3 to 8) (size 9 to 14) (size 15 to 20)
#    0.000    2.143    2.857    1.286    0.000    3.714 
#    0.000    3.571    3.143    0.857    0.000    4.000 
#    0.000    0.000    0.000    0.000    0.000    0.000 
#
# Total GULP energy -694402.692920 kJ/mol
# GULP energy per Si atom -12400.048088 kJ/mol
# Density = 1.711887 g / cm^3
# Si number density = 17.157925 Si / 1000 Ang^3
#
#
#
# Elastic Constant Matrix: (Units=GPa)
#
#
# Indices 1 2 3 4 5 6 
#
# 1 91.9753 32.3830 67.8754 0.0000 0.0000 0.0000
# 2 32.3830 60.1769 37.4984 0.0000 0.0000 0.0000
# 3 67.8754 37.4984 150.6740 0.0000 0.0000 0.0000
# 4 0.0000 0.0000 0.0000 13.4451 0.0000 0.0000
# 5 0.0000 0.0000 0.0000 0.0000 34.0554 0.0000
# 6 0.0000 0.0000 0.0000 0.0000 0.0000 9.5550
#
#
#
# Elastic Compliance Matrix: (Units=1/GPa)
#
#
# Indices 1 2 3 4 5 6 
#
# 1 0.017643 -0.005375 -0.006610 0.000000 0.000000 0.000000
# 2 -0.005375 0.021305 -0.002881 0.000000 0.000000 0.000000
# 3 -0.006610 -0.002881 0.010331 0.000000 0.000000 0.000000
# 4 0.000000 0.000000 0.000000 0.074377 0.000000 0.000000
# 5 0.000000 0.000000 0.000000 0.000000 0.029364 0.000000
# 6 0.000000 0.000000 0.000000 0.000000 0.000000 0.104657
#
#
# Mechanical properties :
#
#
# Convention : Reuss Voigt Hill
#
# Bulk Modulus (GPa) = 51.15722 64.25998 57.70860
# Shear Modulus (GPa) = 17.01109 22.41572 19.71341
#
# Velocity S-wave (km/s) = 3.15213 3.61839 3.39328
# Velocity P-wave (km/s) = 6.56720 7.41555 7.00423
#
# Compressibility (1/GPa) = 0.01954758
#
# Stress axis : x y z
#
# Youngs Moduli (GPa) = 56.67938 46.93634 96.79139
#
# Poissons Ratio (x) = 0.25230 0.63980
# Poissons Ratio (y) = 0.30467 0.27884
# Poissons Ratio (z) = 0.37465 0.13522
#
# Static dielectric constant tensor:
#      x y z
#    x 3.179220 0.000000 0.000000 
#    y 0.000000 3.141410 0.000000 
#    z 0.000000 0.000000 3.339840 
# 
# 
# High freq. dielectric constant tensor:
#      x y z
#    x 1.651280 0.000000 0.000000 
#    y 0.000000 1.641860 0.000000 
#    z 0.000000 0.000000 1.665720 
# 
# From -- ./inp_files/24174.got.cif
#   From: 2010.03.12/outbox.cif.g09.slc.cpg/sg74_13_cif.got.tgz:24174.got - 2010.04.16 15:46:19.
