data_PCOD8298092
_publ_section_title
;
Structure prediction by ZEFSAII (Michael W. Deem and Ramdas Pophale) SiO2 
 PCOD8298092
Probable space group: I M M A
;
_chemical_formula_sum "Si O2"
_cell_formula_units_Z 72
_cell_length_a 26.662547
_cell_length_b 14.455456
_cell_length_c 9.482978
_cell_angle_alpha 90.000000
_cell_angle_beta 90.000000
_cell_angle_gamma 90.000000
_cell_volume 3654.922506
_symmetry_space_group_name_H-M "I M M A"
_symmetry_group_IT_number 74
_symmetry_cell_setting 'orthorhombic'
loop_
_space_group_symop_operation_xyz
x,y,z
-x,1/2-y,z
x,-y,-z
-x,1/2+y,-z
-x,-y,-z
x,1/2+y,-z
-x,y,z
x,1/2-y,z
1/2+x,1/2+y,1/2+z
1/2-x,-y,1/2+z
1/2+x,1/2-y,1/2-z
1/2-x,y,1/2-z
1/2-x,1/2-y,1/2-z
1/2+x,y,1/2-z
1/2-x,1/2+y,1/2+z
1/2+x,-y,1/2+z
loop_
_atom_site_type_symbol
_atom_site_label
_atom_site_fract_x
_atom_site_fract_y
_atom_site_fract_z
Si Si1 0.056863 0.356369 0.879902
Si Si2 0.839391 0.853080 0.497611
Si Si3 0.945188 0.398048 0.559515
Si Si4 0.308077 0.001793 0.221741
Si Si5 0.628115 0.500000 0.500000
O O1 0.074090 0.250000 0.870054
O O2 0.061595 0.403010 0.727252
O O3 0.093208 0.409561 0.986944
O O4 0.000000 0.363968 0.936688
O O5 0.815937 0.750000 0.490097
O O6 0.899853 0.841653 0.511533
O O7 0.827968 0.909886 0.355575
O O8 0.816146 0.906060 0.630121
O O9 0.941761 0.500000 0.500000
O O10 0.000000 0.353549 0.523910
O O11 0.250000 0.987799 0.250000
O O12 0.336731 0.015306 0.366786
#
# Coordination Sequence:
#
# PCOD8298092 Si02
#       5
#    16  16  16  16   8
#     4  10  21  36  57  90 127 159 196 244 299 366
#     4  11  22  42  66  91 122 160 205 252 309 367
#     4  10  18  34  61  92 125 160 198 242 300 366
#     4  11  25  44  62  88 122 159 206 266 309 356
#     4  12  21  38  66  88 120 166 205 244 308 372
#
# _framework density 19.699459000000001
#
# number of rings (size 3 to 8) (size 9 to 14) (size 15 to 20)
#    0.000    1.333    4.444    2.333    0.000    3.111 
#    0.000    3.333    0.000    0.000    0.000    0.000 
#    0.000    0.000    0.000    0.000    0.000    0.000 
#
# Total GULP energy -446370.967115 kJ/mol
# GULP energy per Si atom -12399.193531 kJ/mol
# Density = 1.965462 g / cm^3
# Si number density = 19.699459 Si / 1000 Ang^3
#
#
#
# Elastic Constant Matrix: (Units=GPa)
#
#
# Indices 1 2 3 4 5 6 
#
# 1 125.6304 49.0374 38.5035 0.0000 0.0000 0.0000
# 2 49.0374 156.1514 66.0184 0.0000 0.0000 0.0000
# 3 38.5035 66.0184 107.1469 0.0000 0.0000 0.0000
# 4 0.0000 0.0000 0.0000 11.7509 0.0000 0.0000
# 5 0.0000 0.0000 0.0000 0.0000 79.1245 0.0000
# 6 0.0000 0.0000 0.0000 0.0000 0.0000 36.0784
#
#
#
# Elastic Compliance Matrix: (Units=1/GPa)
#
#
# Indices 1 2 3 4 5 6 
#
# 1 0.009412 -0.002063 -0.002111 0.000000 0.000000 0.000000
# 2 -0.002063 0.009112 -0.004873 0.000000 0.000000 0.000000
# 3 -0.002111 -0.004873 0.013094 0.000000 0.000000 0.000000
# 4 0.000000 0.000000 0.000000 0.085100 0.000000 0.000000
# 5 0.000000 0.000000 0.000000 0.000000 0.012638 0.000000
# 6 0.000000 0.000000 0.000000 0.000000 0.000000 0.027717
#
#
# Mechanical properties :
#
#
# Convention : Reuss Voigt Hill
#
# Bulk Modulus (GPa) = 73.94338 77.33860 75.64099
# Shear Modulus (GPa) = 27.82771 41.08204 34.45488
#
# Velocity S-wave (km/s) = 3.76255 4.57162 4.18667
# Velocity P-wave (km/s) = 7.51618 8.19821 7.86459
#
# Compressibility (1/GPa) = 0.01352386
#
# Stress axis : x y z
#
# Youngs Moduli (GPa) = 106.24498 109.74252 76.37022
#
# Poissons Ratio (x) = 0.22643 0.16122
# Poissons Ratio (y) = 0.21921 0.37216
# Poissons Ratio (z) = 0.22428 0.53478
#
# Static dielectric constant tensor:
#      x y z
#    x 3.978140 0.000000 0.000000 
#    y 0.000000 3.685690 0.000000 
#    z 0.000000 0.000000 3.510350 
# 
# 
# High freq. dielectric constant tensor:
#      x y z
#    x 1.783970 0.000000 0.000000 
#    y 0.000000 1.764650 0.000000 
#    z 0.000000 0.000000 1.755340 
# 
# From -- ./inp_files/9159.got.cif
#   From: 2010.03.12/outbox.cif.g09.slc.cpg/sg74_5_cif.got.tgz:9159.got - 2010.04.16 15:46:19.
