data_PCOD8298177
_publ_section_title
;
Structure prediction by ZEFSAII (Michael W. Deem and Ramdas Pophale) SiO2 
 PCOD8298177
Probable space group: I M M A
;
_chemical_formula_sum "Si O2"
_cell_formula_units_Z 80
_cell_length_a 23.968681
_cell_length_b 8.976903
_cell_length_c 25.586139
_cell_angle_alpha 90.000000
_cell_angle_beta 90.000000
_cell_angle_gamma 90.000000
_cell_volume 5505.229429
_symmetry_space_group_name_H-M "I M M A"
_symmetry_group_IT_number 74
_symmetry_cell_setting 'orthorhombic'
loop_
_space_group_symop_operation_xyz
x,y,z
-x,1/2-y,z
x,-y,-z
-x,1/2+y,-z
-x,-y,-z
x,1/2+y,-z
-x,y,z
x,1/2-y,z
1/2+x,1/2+y,1/2+z
1/2-x,-y,1/2+z
1/2+x,1/2-y,1/2-z
1/2-x,y,1/2-z
1/2-x,1/2-y,1/2-z
1/2+x,y,1/2-z
1/2-x,1/2+y,1/2+z
1/2+x,-y,1/2+z
loop_
_atom_site_type_symbol
_atom_site_label
_atom_site_fract_x
_atom_site_fract_y
_atom_site_fract_z
Si Si1 0.891864 0.923318 0.553204
Si Si2 0.000000 0.926187 0.279428
Si Si3 0.000000 0.428031 0.601688
Si Si4 0.880354 0.073163 0.744062
Si Si5 0.681930 0.920498 0.848776
Si Si6 0.279690 0.415841 0.694115
O O1 0.906423 0.750000 0.544629
O O2 0.840332 0.942389 0.592836
O O3 0.871703 0.000000 0.500000
O O4 0.946090 0.008045 0.573384
O O5 0.944482 0.981062 0.248717
O O6 0.000000 0.750000 0.282224
O O7 0.000000 0.986629 0.338658
O O8 0.000000 0.250000 0.597685
O O9 0.876030 0.250000 0.738147
O O10 0.842737 0.023272 0.794106
O O11 0.858427 0.008602 0.689790
O O12 0.681787 0.750000 0.831204
O O13 0.745815 0.979824 0.845787
O O14 0.281543 0.250000 0.670028
O O15 0.250000 0.413934 0.750000
#
# Coordination Sequence:
#
# PCOD8298177 Si02
#       6
#    16   8   8  16  16  16
#     4  11  23  35  45  59  79 105 139 180 216 250
#     4   9  16  26  44  63  81 108 139 169 200 233
#     4  11  20  32  49  61  76 108 142 177 215 247
#     4   9  16  28  43  61  81 105 136 164 196 240
#     4  10  19  29  42  59  79 101 131 171 209 242
#     4   8  15  26  42  60  79 102 130 162 196 241
#
# _framework density 14.531637
#
# number of rings (size 3 to 8) (size 9 to 14) (size 15 to 20)
#    0.000    2.400    2.000    3.000    0.000    6.000 
#    0.000    0.500    0.000    0.000    0.000    0.000 
#    0.000    0.000    0.000    0.900    0.000    9.400 
#
# Total GULP energy -495749.628310 kJ/mol
# GULP energy per Si atom -12393.740708 kJ/mol
# Density = 1.449856 g / cm^3
# Si number density = 14.531637 Si / 1000 Ang^3
#
#
#
# Elastic Constant Matrix: (Units=GPa)
#
#
# Indices 1 2 3 4 5 6 
#
# 1 125.8302 37.4149 51.0942 0.0000 0.0000 0.0000
# 2 37.4149 60.2063 29.5374 0.0000 0.0000 0.0000
# 3 51.0942 29.5374 47.8747 0.0000 0.0000 0.0000
# 4 0.0000 0.0000 0.0000 18.5988 0.0000 0.0000
# 5 0.0000 0.0000 0.0000 0.0000 8.7597 0.0000
# 6 0.0000 0.0000 0.0000 0.0000 0.0000 16.6138
#
#
#
# Elastic Compliance Matrix: (Units=1/GPa)
#
#
# Indices 1 2 3 4 5 6 
#
# 1 0.014190 -0.001991 -0.013915 0.000000 0.000000 0.000000
# 2 -0.001991 0.024099 -0.012743 0.000000 0.000000 0.000000
# 3 -0.013915 -0.012743 0.043601 0.000000 0.000000 0.000000
# 4 0.000000 0.000000 0.000000 0.053767 0.000000 0.000000
# 5 0.000000 0.000000 0.000000 0.000000 0.114160 0.000000
# 6 0.000000 0.000000 0.000000 0.000000 0.000000 0.060191
#
#
# Mechanical properties :
#
#
# Convention : Reuss Voigt Hill
#
# Bulk Modulus (GPa) = 40.66674 52.22267 46.44470
# Shear Modulus (GPa) = 13.31544 16.51877 14.91711
#
# Velocity S-wave (km/s) = 3.03034 3.37522 3.20742
# Velocity P-wave (km/s) = 6.34741 7.15575 6.76367
#
# Compressibility (1/GPa) = 0.02459012
#
# Stress axis : x y z
#
# Youngs Moduli (GPa) = 70.47342 41.49569 22.93503
#
# Poissons Ratio (x) = 0.08262 0.31915
# Poissons Ratio (y) = 0.14032 0.29227
# Poissons Ratio (z) = 0.98067 0.52879
#
# Static dielectric constant tensor:
#      x y z
#    x 3.488830 0.000000 0.000000 
#    y 0.000000 2.880450 0.000000 
#    z 0.000000 0.000000 2.644180 
# 
# 
# High freq. dielectric constant tensor:
#      x y z
#    x 1.556070 0.000000 0.000000 
#    y 0.000000 1.558360 0.000000 
#    z 0.000000 0.000000 1.508120 
# 
# From -- ./inp_files/54978.got.cif
#   From: 2010.03.12/outbox.cif.g09.slc.cpg/sg74_28_cif.got.tgz:54978.got - 2010.04.16 15:46:19.
