data_PCOD8298087
_publ_section_title
;
Structure prediction by ZEFSAII (Michael W. Deem and Ramdas Pophale) SiO2 
 PCOD8298087
Probable space group: I M M A
;
_chemical_formula_sum "Si O2"
_cell_formula_units_Z 88
_cell_length_a 8.782385
_cell_length_b 17.975531
_cell_length_c 30.145657
_cell_angle_alpha 90.000000
_cell_angle_beta 90.000000
_cell_angle_gamma 90.000000
_cell_volume 4759.035599
_symmetry_space_group_name_H-M "I M M A"
_symmetry_group_IT_number 74
_symmetry_cell_setting 'orthorhombic'
loop_
_space_group_symop_operation_xyz
x,y,z
-x,1/2-y,z
x,-y,-z
-x,1/2+y,-z
-x,-y,-z
x,1/2+y,-z
-x,y,z
x,1/2-y,z
1/2+x,1/2+y,1/2+z
1/2-x,-y,1/2+z
1/2+x,1/2-y,1/2-z
1/2-x,y,1/2-z
1/2-x,1/2-y,1/2-z
1/2+x,y,1/2-z
1/2-x,1/2+y,1/2+z
1/2+x,-y,1/2+z
loop_
_atom_site_type_symbol
_atom_site_label
_atom_site_fract_x
_atom_site_fract_y
_atom_site_fract_z
Si Si1 0.682436 0.750000 0.299147
Si Si2 0.678487 0.486244 0.364000
Si Si3 0.322785 0.332826 0.399262
Si Si4 0.680843 0.400595 0.798495
Si Si5 0.179357 0.454232 0.958255
Si Si6 0.170840 0.663580 0.508264
O O1 0.500000 0.750000 0.299670
O O2 0.750000 0.750000 0.250000
O O3 0.746570 0.673926 0.321481
O O4 0.500000 0.503118 0.356588
O O5 0.710731 0.396667 0.362456
O O6 0.776191 0.526409 0.326373
O O7 0.738765 0.516135 0.411274
O O8 0.500000 0.332180 0.410687
O O9 0.269855 0.250000 0.382884
O O10 0.242373 0.357163 0.444422
O O11 0.500000 0.391850 0.795409
O O12 0.750000 0.412135 0.750000
O O13 0.000000 0.458401 0.958224
O O14 0.247633 0.500000 0.000000
O O15 0.236925 0.370753 0.966871
O O16 0.177885 0.750000 0.499748
O O17 0.000000 0.632978 0.508173
#
# Coordination Sequence:
#
# PCOD8298087 Si02
#       6
#     8  16  16  16  16  16
#     4  10  18  34  60  86 112 142 178 218 264 314
#     4  10  20  35  55  81 110 139 180 226 271 324
#     4   9  17  32  55  78 103 140 183 224 266 321
#     4  11  22  38  60  85 112 143 179 220 269 319
#     4  10  19  34  53  75 103 141 180 219 263 316
#     4  10  20  32  47  70 102 140 180 224 268 311
#
# _framework density 18.491140999999999
#
# number of rings (size 3 to 8) (size 9 to 14) (size 15 to 20)
#    0.000    2.000    1.818    4.091    0.000    2.909 
#    1.636    0.000    0.000    0.545    0.000    0.000 
#    0.000    0.000    0.000    0.000    0.000    0.000 
#
# Total GULP energy -545374.302116 kJ/mol
# GULP energy per Si atom -12394.870503 kJ/mol
# Density = 1.844905 g / cm^3
# Si number density = 18.491141 Si / 1000 Ang^3
#
#
#
# Elastic Constant Matrix: (Units=GPa)
#
#
# Indices 1 2 3 4 5 6 
#
# 1 48.6863 31.9031 34.9953 0.0000 0.0000 0.0000
# 2 31.9031 115.5749 52.7277 0.0000 0.0000 0.0000
# 3 34.9953 52.7277 72.4568 0.0000 0.0000 0.0000
# 4 0.0000 0.0000 0.0000 30.2280 0.0000 0.0000
# 5 0.0000 0.0000 0.0000 0.0000 22.1200 0.0000
# 6 0.0000 0.0000 0.0000 0.0000 0.0000 27.3108
#
#
#
# Elastic Compliance Matrix: (Units=1/GPa)
#
#
# Indices 1 2 3 4 5 6 
#
# 1 0.032002 -0.002668 -0.013515 0.000000 0.000000 0.000000
# 2 -0.002668 0.013175 -0.008299 0.000000 0.000000 0.000000
# 3 -0.013515 -0.008299 0.026368 0.000000 0.000000 0.000000
# 4 0.000000 0.000000 0.000000 0.033082 0.000000 0.000000
# 5 0.000000 0.000000 0.000000 0.000000 0.045208 0.000000
# 6 0.000000 0.000000 0.000000 0.000000 0.000000 0.036616
#
#
# Mechanical properties :
#
#
# Convention : Reuss Voigt Hill
#
# Bulk Modulus (GPa) = 44.28417 52.88558 48.58487
# Shear Modulus (GPa) = 20.58101 23.73788 22.15944
#
# Velocity S-wave (km/s) = 3.33981 3.58682 3.46552
# Velocity P-wave (km/s) = 6.23485 6.76878 6.50729
#
# Compressibility (1/GPa) = 0.02258143
#
# Stress axis : x y z
#
# Youngs Moduli (GPa) = 31.24764 75.90080 37.92457
#
# Poissons Ratio (x) = 0.20251 0.51255
# Poissons Ratio (y) = 0.08337 0.31474
# Poissons Ratio (z) = 0.42231 0.62990
#
# Static dielectric constant tensor:
#      x y z
#    x 3.422940 0.000000 0.000000 
#    y 0.000000 3.929240 0.000000 
#    z 0.000000 0.000000 3.108040 
# 
# 
# High freq. dielectric constant tensor:
#      x y z
#    x 1.717480 0.000000 0.000000 
#    y 0.000000 1.735290 0.000000 
#    z 0.000000 0.000000 1.673740 
# 
# From -- ./inp_files/70242.got.cif
#   From: 2010.03.12/outbox.cif.g09.slc.cpg/sg74_36_cif.got.tgz:70242.got - 2010.04.16 15:46:19.
