data_PCOD8298313
_publ_section_title
;
Structure prediction by ZEFSAII (Michael W. Deem and Ramdas Pophale) SiO2 
 PCOD8298313
Probable space group: I M M A
;
_chemical_formula_sum "Si O2"
_cell_formula_units_Z 96
_cell_length_a 9.235581
_cell_length_b 28.226410
_cell_length_c 20.687120
_cell_angle_alpha 90.000000
_cell_angle_beta 90.000000
_cell_angle_gamma 90.000000
_cell_volume 5392.869373
_symmetry_space_group_name_H-M "I M M A"
_symmetry_group_IT_number 74
_symmetry_cell_setting 'orthorhombic'
loop_
_space_group_symop_operation_xyz
x,y,z
-x,1/2-y,z
x,-y,-z
-x,1/2+y,-z
-x,-y,-z
x,1/2+y,-z
-x,y,z
x,1/2-y,z
1/2+x,1/2+y,1/2+z
1/2-x,-y,1/2+z
1/2+x,1/2-y,1/2-z
1/2-x,y,1/2-z
1/2-x,1/2-y,1/2-z
1/2+x,y,1/2-z
1/2-x,1/2+y,1/2+z
1/2+x,-y,1/2+z
loop_
_atom_site_type_symbol
_atom_site_label
_atom_site_fract_x
_atom_site_fract_y
_atom_site_fract_z
Si Si1 0.831359 0.361180 0.561166
Si Si2 0.168668 0.305218 0.047393
Si Si3 0.835769 0.639664 0.188029
Si Si4 0.832667 0.528185 0.437087
Si Si5 0.836684 0.526840 0.188376
Si Si6 0.659100 0.693881 0.691322
O O1 0.770327 0.334889 0.499089
O O2 0.746295 0.342465 0.624076
O O3 0.804882 0.416645 0.550612
O O4 0.000000 0.349449 0.570265
O O5 0.192003 0.250000 0.033120
O O6 0.221192 0.318070 0.120213
O O7 0.000000 0.318584 0.037906
O O8 0.750000 0.659990 0.250000
O O9 0.836308 0.583282 0.190507
O O10 0.000000 0.659335 0.188083
O O11 0.779972 0.500000 0.500000
O O12 0.740336 0.508987 0.376791
O O13 0.000000 0.518037 0.421513
O O14 0.750000 0.506554 0.250000
O O15 0.000000 0.507078 0.190165
O O16 0.500000 0.671815 0.697450
O O17 0.651247 0.750000 0.699225
O O18 0.750000 0.671050 0.750000
#
# Coordination Sequence:
#
# PCOD8298313 Si02
#       6
#    16  16  16  16  16  16
#     4  10  19  30  47  71  95 121 155 192 230 273
#     4   9  18  32  48  67  94 126 155 186 229 277
#     4   9  16  27  44  66  92 120 151 189 230 271
#     4   9  18  32  48  67  94 125 154 189 233 276
#     4   9  16  26  43  67  92 118 151 191 231 271
#     4   8  14  25  42  64  88 114 146 184 224 264
#
# _framework density 17.801283000000002
#
# number of rings (size 3 to 8) (size 9 to 14) (size 15 to 20)
#    0.000    3.000    0.000    2.500    0.000    6.000 
#    0.000    1.667    0.000    1.500    0.000    2.333 
#    0.000    0.000    0.000    0.000    0.000    0.000 
#
# Total GULP energy -595058.783962 kJ/mol
# GULP energy per Si atom -12397.057999 kJ/mol
# Density = 1.776077 g / cm^3
# Si number density = 17.801283 Si / 1000 Ang^3
#
#
#
# Elastic Constant Matrix: (Units=GPa)
#
#
# Indices 1 2 3 4 5 6 
#
# 1 134.6516 27.7211 100.2853 0.0000 0.0000 0.0000
# 2 27.7211 20.3613 34.7733 -0.0001 0.0000 0.0000
# 3 100.2853 34.7733 183.9886 -0.0004 0.0000 0.0001
# 4 0.0000 -0.0001 -0.0004 25.2793 0.0000 0.0001
# 5 0.0000 0.0000 0.0000 0.0000 42.5875 0.0000
# 6 0.0000 0.0000 0.0001 0.0001 0.0000 14.1744
#
#
#
# Elastic Compliance Matrix: (Units=1/GPa)
#
#
# Indices 1 2 3 4 5 6 
#
# 1 0.013438 -0.008544 -0.005710 0.000000 0.000000 0.000000
# 2 -0.008544 0.077953 -0.010076 0.000000 0.000000 0.000000
# 3 -0.005710 -0.010076 0.010452 0.000000 0.000000 0.000000
# 4 0.000000 0.000000 0.000000 0.039558 0.000000 0.000000
# 5 0.000000 0.000000 0.000000 0.000000 0.023481 0.000000
# 6 0.000000 0.000000 0.000000 0.000000 0.000000 0.070550
#
#
# Mechanical properties :
#
#
# Convention : Reuss Voigt Hill
#
# Bulk Modulus (GPa) = 18.80293 73.84007 46.32150
# Shear Modulus (GPa) = 16.56623 28.15636 22.36129
#
# Velocity S-wave (km/s) = 3.05392 3.98138 3.54808
# Velocity P-wave (km/s) = 4.79800 7.91867 6.54699
#
# Compressibility (1/GPa) = 0.05318321
#
# Stress axis : x y z
#
# Youngs Moduli (GPa) = 74.41523 12.82824 95.67926
#
# Poissons Ratio (x) = 0.10961 0.54631
# Poissons Ratio (y) = 0.63582 0.96404
# Poissons Ratio (z) = 0.42489 0.12925
#
# Static dielectric constant tensor:
#      x y z
#    x 3.505300 0.000000 0.000000 
#    y 0.000000 2.720750 0.000000 
#    z 0.000000 0.000000 3.531030 
# 
# 
# High freq. dielectric constant tensor:
#      x y z
#    x 1.696800 0.000000 0.000000 
#    y 0.000000 1.623280 0.000000 
#    z 0.000000 0.000000 1.706730 
# 
# From -- ./inp_files/49071.got.cif
#   From: 2010.03.12/outbox.cif.g09.slc.cpg/sg74_25_cif.got.tgz:49071.got - 2010.04.16 15:46:19.
