data_PCOD8298683
_publ_section_title
;
Structure prediction by ZEFSAII (Michael W. Deem and Ramdas Pophale) SiO2 
 PCOD8298683
Probable space group: I M M A
;
_chemical_formula_sum "Si O2"
_cell_formula_units_Z 104
_cell_length_a 24.140955
_cell_length_b 27.705097
_cell_length_c 8.191277
_cell_angle_alpha 90.000000
_cell_angle_beta 90.000000
_cell_angle_gamma 90.000000
_cell_volume 5478.551317
_symmetry_space_group_name_H-M "I M M A"
_symmetry_group_IT_number 74
_symmetry_cell_setting 'orthorhombic'
loop_
_space_group_symop_operation_xyz
x,y,z
-x,1/2-y,z
x,-y,-z
-x,1/2+y,-z
-x,-y,-z
x,1/2+y,-z
-x,y,z
x,1/2-y,z
1/2+x,1/2+y,1/2+z
1/2-x,-y,1/2+z
1/2+x,1/2-y,1/2-z
1/2-x,y,1/2-z
1/2-x,1/2-y,1/2-z
1/2+x,y,1/2-z
1/2-x,1/2+y,1/2+z
1/2+x,-y,1/2+z
loop_
_atom_site_type_symbol
_atom_site_label
_atom_site_fract_x
_atom_site_fract_y
_atom_site_fract_z
Si Si1 0.813839 0.080551 0.702582
Si Si2 0.937527 0.303585 0.794534
Si Si3 0.877088 0.377947 0.000284
Si Si4 0.628099 0.500000 0.000000
Si Si5 0.434762 0.079810 0.190993
Si Si6 0.873107 0.342919 0.502905
Si Si7 0.688153 0.304565 0.297439
O O1 0.750000 0.077093 0.750000
O O2 0.851481 0.087353 0.863322
O O3 0.831908 0.031592 0.613837
O O4 0.823415 0.125077 0.578877
O O5 0.928946 0.250000 0.869406
O O6 0.925199 0.343649 0.930420
O O7 0.897687 0.308317 0.639798
O O8 0.000000 0.310929 0.734560
O O9 0.903327 0.411472 0.138653
O O10 0.828919 0.342847 0.065614
O O11 0.587996 0.469604 0.116619
O O12 0.500000 0.075740 0.221094
O O13 0.421908 0.122960 0.065496
O O14 0.850185 0.308999 0.361355
O O15 0.683361 0.250000 0.365766
O O16 0.750000 0.317705 0.250000
#
# Coordination Sequence:
#
# PCOD8298683 Si02
#       7
#    16  16  16   8  16  16  16
#     4  10  21  38  57  77 105 136 169 213 262 310
#     4  10  19  32  51  76 107 141 176 213 251 294
#     4  10  21  35  53  78 105 136 174 213 257 306
#     4  10  23  38  56  80 100 130 173 212 260 322
#     4  10  20  37  57  77 105 135 168 213 262 310
#     4   9  19  34  53  78 106 141 177 207 249 307
#     4  10  19  32  52  78 108 141 176 213 251 294
#
# _framework density 18.983121000000001
#
# number of rings (size 3 to 8) (size 9 to 14) (size 15 to 20)
#    0.000    2.154    0.000    3.000    0.000    1.846 
#    0.000    4.615    0.000   14.769    0.000    0.000 
#    0.000    0.000    0.000    0.000    0.000    0.000 
#
# Total GULP energy -644923.166360 kJ/mol
# GULP energy per Si atom -12402.368584 kJ/mol
# Density = 1.893991 g / cm^3
# Si number density = 18.983121 Si / 1000 Ang^3
#
#
#
# Elastic Constant Matrix: (Units=GPa)
#
#
# Indices 1 2 3 4 5 6 
#
# 1 110.7443 52.9759 25.8484 0.0000 0.0000 0.0000
# 2 52.9759 100.5546 44.6425 0.0000 0.0000 0.0000
# 3 25.8484 44.6425 92.8826 0.0000 0.0000 0.0000
# 4 0.0000 0.0000 0.0000 21.1906 0.0000 0.0000
# 5 0.0000 0.0000 0.0000 0.0000 20.9855 0.0000
# 6 0.0000 0.0000 0.0000 0.0000 0.0000 14.9015
#
#
#
# Elastic Compliance Matrix: (Units=1/GPa)
#
#
# Indices 1 2 3 4 5 6 
#
# 1 0.012083 -0.006195 -0.000385 0.000000 0.000000 0.000000
# 2 -0.006195 0.015819 -0.005879 0.000000 0.000000 0.000000
# 3 -0.000385 -0.005879 0.013699 0.000000 0.000000 0.000000
# 4 0.000000 0.000000 0.000000 0.047191 0.000000 0.000000
# 5 0.000000 0.000000 0.000000 0.000000 0.047652 0.000000
# 6 0.000000 0.000000 0.000000 0.000000 0.000000 0.067107
#
#
# Mechanical properties :
#
#
# Convention : Reuss Voigt Hill
#
# Bulk Modulus (GPa) = 59.94191 61.23501 60.58846
# Shear Modulus (GPa) = 21.36482 23.46317 22.41400
#
# Velocity S-wave (km/s) = 3.35843 3.51950 3.43991
# Velocity P-wave (km/s) = 6.83255 6.98881 6.91112
#
# Compressibility (1/GPa) = 0.01668282
#
# Stress axis : x y z
#
# Youngs Moduli (GPa) = 82.76040 63.21688 72.99746
#
# Poissons Ratio (x) = 0.39162 0.02812
# Poissons Ratio (y) = 0.51269 0.42915
# Poissons Ratio (z) = 0.03188 0.37165
#
# Static dielectric constant tensor:
#      x y z
#    x 3.361720 0.000000 0.000000 
#    y 0.000000 3.441470 0.000000 
#    z 0.000000 0.000000 3.538200 
# 
# 
# High freq. dielectric constant tensor:
#      x y z
#    x 1.739770 0.000000 0.000000 
#    y 0.000000 1.739040 0.000000 
#    z 0.000000 0.000000 1.743240 
# 
# From -- ./inp_files/14257.got.cif
#   From: 2010.03.12/outbox.cif.g09.slc.cpg/sg74_8_cif.got.tgz:14257.got - 2010.04.16 15:46:19.
