data_PCOD8298937
_publ_section_title
;
Structure prediction by ZEFSAII (Michael W. Deem and Ramdas Pophale) SiO2 
 PCOD8298937
Probable space group: I M M A
;
_chemical_formula_sum "Si O2"
_cell_formula_units_Z 56
_cell_length_a 15.678460
_cell_length_b 7.613999
_cell_length_c 25.463278
_cell_angle_alpha 90.000000
_cell_angle_beta 90.000000
_cell_angle_gamma 90.000000
_cell_volume 3039.698641
_symmetry_space_group_name_H-M "I M M A"
_symmetry_group_IT_number 74
_symmetry_cell_setting 'orthorhombic'
loop_
_space_group_symop_operation_xyz
x,y,z
-x,1/2-y,z
x,-y,-z
-x,1/2+y,-z
-x,-y,-z
x,1/2+y,-z
-x,y,z
x,1/2-y,z
1/2+x,1/2+y,1/2+z
1/2-x,-y,1/2+z
1/2+x,1/2-y,1/2-z
1/2-x,y,1/2-z
1/2-x,1/2-y,1/2-z
1/2+x,y,1/2-z
1/2-x,1/2+y,1/2+z
1/2+x,-y,1/2+z
loop_
_atom_site_type_symbol
_atom_site_label
_atom_site_fract_x
_atom_site_fract_y
_atom_site_fract_z
Si Si1 0.907186 0.250000 0.626993
Si Si2 0.670527 0.947510 0.620251
Si Si3 0.500000 0.455252 0.561464
Si Si4 0.339888 0.549282 0.940058
Si Si5 0.236211 0.750000 0.188575
O O1 0.903089 0.424866 0.591836
O O2 0.832986 0.250000 0.669177
O O3 0.000000 0.250000 0.654899
O O4 0.678091 0.750000 0.642786
O O5 0.742872 0.987328 0.577298
O O6 0.581715 0.966166 0.590332
O O7 0.683039 0.079806 0.669167
O O8 0.500000 0.250000 0.569371
O O9 0.500000 0.500000 0.500000
O O10 0.366971 0.750000 0.929988
O O11 0.347526 0.500000 0.000000
O O12 0.250000 0.750000 0.250000
#
# Coordination Sequence:
#
# PCOD8298937 Si02
#       5
#     8  16   8  16   8
#     4  10  22  38  55  81 114 142 189 238 280 338
#     4  10  21  37  58  85 121 155 200 243 287 358
#     4  12  22  34  56  93 133 168 195 243 298 368
#     4  10  19  33  54  80 113 157 187 220 275 341
#     4  10  22  43  64  84 109 154 202 252 302 345
#
# _framework density 18.422879999999999
#
# number of rings (size 3 to 8) (size 9 to 14) (size 15 to 20)
#    0.000    1.714    2.857    2.143    0.000    4.000 
#    2.571    0.000    0.000    0.000    0.000    0.000 
#    0.000    0.000    0.000    0.000    0.000    0.000 
#
# Total GULP energy -347184.655956 kJ/mol
# GULP energy per Si atom -12399.451998 kJ/mol
# Density = 1.838095 g / cm^3
# Si number density = 18.422880 Si / 1000 Ang^3
#
#
#
# Elastic Constant Matrix: (Units=GPa)
#
#
# Indices 1 2 3 4 5 6 
#
# 1 116.3951 35.7385 39.4529 0.0000 0.0000 0.0000
# 2 35.7385 140.5170 46.4221 0.0000 0.0000 0.0000
# 3 39.4529 46.4221 126.6152 0.0000 0.0000 0.0000
# 4 0.0000 0.0000 0.0000 17.7107 0.0000 0.0000
# 5 0.0000 0.0000 0.0000 0.0000 12.6083 0.0000
# 6 0.0000 0.0000 0.0000 0.0000 0.0000 5.2900
#
#
#
# Elastic Compliance Matrix: (Units=1/GPa)
#
#
# Indices 1 2 3 4 5 6 
#
# 1 0.009956 -0.001715 -0.002474 0.000000 0.000000 0.000000
# 2 -0.001715 0.008393 -0.002543 0.000000 0.000000 0.000000
# 3 -0.002474 -0.002543 0.009601 0.000000 0.000000 0.000000
# 4 0.000000 0.000000 0.000000 0.056463 0.000000 0.000000
# 5 0.000000 0.000000 0.000000 0.000000 0.079313 0.000000
# 6 0.000000 0.000000 0.000000 0.000000 0.000000 0.189037
#
#
# Mechanical properties :
#
#
# Convention : Reuss Voigt Hill
#
# Bulk Modulus (GPa) = 69.02519 69.63935 69.33227
# Shear Modulus (GPa) = 13.47507 24.58271 19.02889
#
# Velocity S-wave (km/s) = 2.70743 3.65685 3.21735
# Velocity P-wave (km/s) = 6.87910 7.46409 7.17756
#
# Compressibility (1/GPa) = 0.01448746
#
# Stress axis : x y z
#
# Youngs Moduli (GPa) = 100.43712 119.14952 104.15617
#
# Poissons Ratio (x) = 0.20435 0.25764
# Poissons Ratio (y) = 0.17226 0.26484
# Poissons Ratio (z) = 0.24844 0.30296
#
# Static dielectric constant tensor:
#      x y z
#    x 3.623940 0.000000 0.000000 
#    y 0.000000 3.997650 0.000000 
#    z 0.000000 0.000000 3.070190 
# 
# 
# High freq. dielectric constant tensor:
#      x y z
#    x 1.719260 0.000000 0.000000 
#    y 0.000000 1.739410 0.000000 
#    z 0.000000 0.000000 1.682960 
# 
# From -- ./inp_files/47891.got.cif
#   From: 2010.03.12/outbox.cif.g09.slc.cpg/sg74_24_cif.got.tgz:47891.got - 2010.04.16 15:46:19.
