data_PCOD8298369
_publ_section_title
;
Structure prediction by ZEFSAII (Michael W. Deem and Ramdas Pophale) SiO2 
 PCOD8298369
Probable space group: I M M A
;
_chemical_formula_sum "Si O2"
_cell_formula_units_Z 112
_cell_length_a 31.524995
_cell_length_b 14.504595
_cell_length_c 12.004198
_cell_angle_alpha 90.000000
_cell_angle_beta 90.000000
_cell_angle_gamma 90.000000
_cell_volume 5489.006984
_symmetry_space_group_name_H-M "I M M A"
_symmetry_group_IT_number 74
_symmetry_cell_setting 'orthorhombic'
loop_
_space_group_symop_operation_xyz
x,y,z
-x,1/2-y,z
x,-y,-z
-x,1/2+y,-z
-x,-y,-z
x,1/2+y,-z
-x,y,z
x,1/2-y,z
1/2+x,1/2+y,1/2+z
1/2-x,-y,1/2+z
1/2+x,1/2-y,1/2-z
1/2-x,y,1/2-z
1/2-x,1/2-y,1/2-z
1/2+x,y,1/2-z
1/2-x,1/2+y,1/2+z
1/2+x,-y,1/2+z
loop_
_atom_site_type_symbol
_atom_site_label
_atom_site_fract_x
_atom_site_fract_y
_atom_site_fract_z
Si Si1 0.678803 0.857531 0.489389
Si Si2 0.154526 0.481422 0.620517
Si Si3 0.545867 0.850470 0.692030
Si Si4 0.047249 0.403740 0.954534
Si Si5 0.360140 0.639077 0.723702
Si Si6 0.618427 0.144473 0.701902
Si Si7 0.735286 0.144165 0.876626
O O1 0.670701 0.750000 0.486435
O O2 0.662189 0.893312 0.608570
O O3 0.650941 0.898466 0.388658
O O4 0.727651 0.882369 0.464777
O O5 0.133919 0.500000 0.500000
O O6 0.163109 0.580542 0.680140
O O7 0.121874 0.417702 0.688447
O O8 0.198075 0.426994 0.600628
O O9 0.500000 0.901661 0.720231
O O10 0.543772 0.750000 0.747404
O O11 0.549004 0.834751 0.558818
O O12 0.590318 0.896070 0.730360
O O13 0.000000 0.419930 0.909340
O O14 0.066411 0.500000 0.000000
O O15 0.071791 0.362426 0.849533
O O16 0.355903 0.750000 0.742025
O O17 0.629151 0.250000 0.733696
O O18 0.720701 0.250000 0.896863
O O19 0.750000 0.133032 0.750000
#
# Coordination Sequence:
#
# PCOD8298369 Si02
#       7
#    16  16  16  16  16  16  16
#     4   9  18  35  62  93 117 148 189 240 310 372
#     4  12  27  41  58  84 114 163 219 259 310 361
#     4   9  16  29  54  88 123 155 187 230 294 370
#     4  10  19  30  51  90 132 160 184 230 303 381
#     4  10  21  39  62  91 127 160 197 251 314 377
#     4  11  21  37  62  89 120 159 203 251 305 370
#     4  10  20  40  65  90 120 151 194 252 312 378
#
# _framework density 20.404418
#
# number of rings (size 3 to 8) (size 9 to 14) (size 15 to 20)
#    0.000    1.857    2.857    1.714    0.000    3.143 
#    0.000    0.000    0.000    4.714    0.000    2.000 
#    0.000    0.000    0.000    0.000    0.000    0.000 
#
# Total GULP energy -693792.153303 kJ/mol
# GULP energy per Si atom -12389.145595 kJ/mol
# Density = 2.035798 g / cm^3
# Si number density = 20.404418 Si / 1000 Ang^3
#
#
#
# Elastic Constant Matrix: (Units=GPa)
#
#
# Indices 1 2 3 4 5 6 
#
# 1 108.3537 31.1488 32.3155 0.0000 0.0000 0.0000
# 2 31.1488 88.5950 43.9142 0.0000 0.0000 0.0000
# 3 32.3155 43.9142 111.6962 0.0000 0.0000 0.0000
# 4 0.0000 0.0000 0.0000 24.8660 0.0000 0.0000
# 5 0.0000 0.0000 0.0000 0.0000 15.0388 0.0000
# 6 0.0000 0.0000 0.0000 0.0000 0.0000 21.3057
#
#
#
# Elastic Compliance Matrix: (Units=1/GPa)
#
#
# Indices 1 2 3 4 5 6 
#
# 1 0.010612 -0.002744 -0.001991 0.000000 0.000000 0.000000
# 2 -0.002744 0.014729 -0.004997 0.000000 0.000000 0.000000
# 3 -0.001991 -0.004997 0.011494 0.000000 0.000000 0.000000
# 4 0.000000 0.000000 0.000000 0.040215 0.000000 0.000000
# 5 0.000000 0.000000 0.000000 0.000000 0.066495 0.000000
# 6 0.000000 0.000000 0.000000 0.000000 0.000000 0.046936
#
#
# Mechanical properties :
#
#
# Convention : Reuss Voigt Hill
#
# Bulk Modulus (GPa) = 57.57103 58.15575 57.86339
# Shear Modulus (GPa) = 23.17663 25.65985 24.41824
#
# Velocity S-wave (km/s) = 3.37391 3.55006 3.46311
# Velocity P-wave (km/s) = 6.59196 6.73553 6.66413
#
# Compressibility (1/GPa) = 0.01736985
#
# Stress axis : x y z
#
# Youngs Moduli (GPa) = 94.23529 67.89388 87.00519
#
# Poissons Ratio (x) = 0.18629 0.17326
# Poissons Ratio (y) = 0.25857 0.43476
# Poissons Ratio (z) = 0.18766 0.33926
#
# Static dielectric constant tensor:
#      x y z
#    x 3.816320 0.000000 0.000000 
#    y 0.000000 3.758160 0.000000 
#    z 0.000000 0.000000 3.462160 
# 
# 
# High freq. dielectric constant tensor:
#      x y z
#    x 1.794220 0.000000 0.000000 
#    y 0.000000 1.803890 0.000000 
#    z 0.000000 0.000000 1.754290 
# 
# From -- ./inp_files/27215.got.cif
#   From: 2010.03.12/outbox.cif.g09.slc.cpg/sg74_14_cif.got.tgz:27215.got - 2010.04.16 15:46:19.
