data_PCOD8298479
_publ_section_title
;
Structure prediction by ZEFSAII (Michael W. Deem and Ramdas Pophale) SiO2 
 PCOD8298479
Probable space group: I M M A
;
_chemical_formula_sum "Si O2"
_cell_formula_units_Z 72
_cell_length_a 9.450600
_cell_length_b 18.723109
_cell_length_c 22.659774
_cell_angle_alpha 90.000000
_cell_angle_beta 90.000000
_cell_angle_gamma 90.000000
_cell_volume 4009.524962
_symmetry_space_group_name_H-M "I M M A"
_symmetry_group_IT_number 74
_symmetry_cell_setting 'orthorhombic'
loop_
_space_group_symop_operation_xyz
x,y,z
-x,1/2-y,z
x,-y,-z
-x,1/2+y,-z
-x,-y,-z
x,1/2+y,-z
-x,y,z
x,1/2-y,z
1/2+x,1/2+y,1/2+z
1/2-x,-y,1/2+z
1/2+x,1/2-y,1/2-z
1/2-x,y,1/2-z
1/2-x,1/2-y,1/2-z
1/2+x,y,1/2-z
1/2-x,1/2+y,1/2+z
1/2+x,-y,1/2+z
loop_
_atom_site_type_symbol
_atom_site_label
_atom_site_fract_x
_atom_site_fract_y
_atom_site_fract_z
Si Si1 0.661617 0.866738 0.194090
Si Si2 0.332993 0.532583 0.810047
Si Si3 0.645652 0.250000 0.300515
Si Si4 0.159477 0.871942 0.892221
Si Si5 0.168773 0.250000 0.019875
Si Si6 0.335620 0.750000 0.100330
O O1 0.500000 0.852660 0.211078
O O2 0.750000 0.840270 0.250000
O O3 0.704015 0.820536 0.137239
O O4 0.690542 0.948948 0.179431
O O5 0.500000 0.551857 0.803867
O O6 0.250000 0.556359 0.750000
O O7 0.268007 0.566765 0.870406
O O8 0.500000 0.250000 0.265489
O O9 0.750000 0.250000 0.250000
O O10 0.656127 0.320249 0.337664
O O11 0.000000 0.902407 0.904720
O O12 0.215691 0.823834 0.947173
O O13 0.239045 0.250000 0.956770
O O14 0.000000 0.250000 0.015863
O O15 0.500000 0.750000 0.081713
#
# Coordination Sequence:
#
# PCOD8298479 Si02
#       6
#    16  16   8  16   8   8
#     4   9  19  34  53  79 106 130 160 201 249 302
#     4  10  19  31  49  75 105 134 164 201 249 301
#     4   9  17  27  41  63  90 121 158 200 242 283
#     4   9  18  33  49  67  96 131 167 208 247 287
#     4   9  20  37  54  73  98 131 174 216 248 285
#     4  10  20  36  56  76 100 130 166 208 252 298
#
# _framework density 17.957239999999999
#
# number of rings (size 3 to 8) (size 9 to 14) (size 15 to 20)
#    0.000    2.667    0.000    3.000    0.000    5.333 
#    0.000    3.333    0.000    6.667    0.000    0.000 
#    0.000    0.000    0.000    0.000    0.000    0.000 
#
# Total GULP energy -446015.453766 kJ/mol
# GULP energy per Si atom -12389.318160 kJ/mol
# Density = 1.791637 g / cm^3
# Si number density = 17.957240 Si / 1000 Ang^3
#
#
#
# Elastic Constant Matrix: (Units=GPa)
#
#
# Indices 1 2 3 4 5 6 
#
# 1 86.7824 42.0671 63.6669 0.0000 0.0000 0.0000
# 2 42.0671 78.1568 51.1524 0.0000 0.0000 0.0000
# 3 63.6669 51.1524 126.1306 0.0000 0.0000 0.0000
# 4 0.0000 0.0000 0.0000 20.8523 0.0000 0.0000
# 5 0.0000 0.0000 0.0000 0.0000 36.6792 0.0000
# 6 0.0000 0.0000 0.0000 0.0000 0.0000 24.6092
#
#
#
# Elastic Compliance Matrix: (Units=1/GPa)
#
#
# Indices 1 2 3 4 5 6 
#
# 1 0.019981 -0.005654 -0.007793 0.000000 0.000000 0.000000
# 2 -0.005654 0.019018 -0.004859 0.000000 0.000000 0.000000
# 3 -0.007793 -0.004859 0.013832 0.000000 0.000000 0.000000
# 4 0.000000 0.000000 0.000000 0.047956 0.000000 0.000000
# 5 0.000000 0.000000 0.000000 0.000000 0.027263 0.000000
# 6 0.000000 0.000000 0.000000 0.000000 0.000000 0.040635
#
#
# Mechanical properties :
#
#
# Convention : Reuss Voigt Hill
#
# Bulk Modulus (GPa) = 61.65255 67.20474 64.42864
# Shear Modulus (GPa) = 23.72994 25.37370 24.55182
#
# Velocity S-wave (km/s) = 3.63915 3.76308 3.70163
# Velocity P-wave (km/s) = 7.21563 7.50913 7.36385
#
# Compressibility (1/GPa) = 0.01621993
#
# Stress axis : x y z
#
# Youngs Moduli (GPa) = 50.04764 52.58143 72.29500
#
# Poissons Ratio (x) = 0.29732 0.56337
# Poissons Ratio (y) = 0.28299 0.35126
# Poissons Ratio (z) = 0.39000 0.25548
#
# Static dielectric constant tensor:
#      x y z
#    x 3.536870 0.000000 0.000000 
#    y 0.000000 3.378530 0.000000 
#    z 0.000000 0.000000 3.070270 
# 
# 
# High freq. dielectric constant tensor:
#      x y z
#    x 1.698260 0.000000 0.000000 
#    y 0.000000 1.698450 0.000000 
#    z 0.000000 0.000000 1.675770 
# 
# From -- ./inp_files/48425.got.cif
#   From: 2010.03.12/outbox.cif.g09.slc.cpg/sg74_25_cif.got.tgz:48425.got - 2010.04.16 15:46:19.
