data_PCOD8298235
_publ_section_title
;
Structure prediction by ZEFSAII (Michael W. Deem and Ramdas Pophale) SiO2 
 PCOD8298235
Probable space group: I M M A
;
_chemical_formula_sum "Si O2"
_cell_formula_units_Z 80
_cell_length_a 26.343521
_cell_length_b 9.065462
_cell_length_c 23.490777
_cell_angle_alpha 90.000000
_cell_angle_beta 90.000000
_cell_angle_gamma 90.000000
_cell_volume 5609.977830
_symmetry_space_group_name_H-M "I M M A"
_symmetry_group_IT_number 74
_symmetry_cell_setting 'orthorhombic'
loop_
_space_group_symop_operation_xyz
x,y,z
-x,1/2-y,z
x,-y,-z
-x,1/2+y,-z
-x,-y,-z
x,1/2+y,-z
-x,y,z
x,1/2-y,z
1/2+x,1/2+y,1/2+z
1/2-x,-y,1/2+z
1/2+x,1/2-y,1/2-z
1/2-x,y,1/2-z
1/2-x,1/2-y,1/2-z
1/2+x,y,1/2-z
1/2-x,1/2+y,1/2+z
1/2+x,-y,1/2+z
loop_
_atom_site_type_symbol
_atom_site_label
_atom_site_fract_x
_atom_site_fract_y
_atom_site_fract_z
Si Si1 0.941874 0.421466 0.337428
Si Si2 0.864956 0.584138 0.265385
Si Si3 0.370532 0.076581 0.057982
Si Si4 0.787515 0.583302 0.803345
Si Si5 0.790393 0.083208 0.628072
O O1 0.936032 0.250000 0.323169
O O2 0.917425 0.509533 0.284870
O O3 0.914187 0.459755 0.396451
O O4 0.000000 0.470256 0.343705
O O5 0.876123 0.750000 0.244855
O O6 0.840569 0.494005 0.213110
O O7 0.826238 0.583260 0.317409
O O8 0.363355 0.250000 0.048842
O O9 0.316908 0.008040 0.077622
O O10 0.388334 0.000000 0.000000
O O11 0.798711 0.750000 0.822935
O O12 0.750000 0.582361 0.750000
O O13 0.762559 0.494988 0.855849
O O14 0.779636 0.250000 0.607521
#
# Coordination Sequence:
#
# PCOD8298235 Si02
#       5
#    16  16  16  16  16
#     4   9  18  31  43  54  71  97 129 165 203 239
#     4   9  16  25  38  56  75  94 118 150 187 227
#     4  10  19  30  42  55  72  96 128 165 203 239
#     4   9  15  23  37  56  76  96 116 141 178 225
#     4   9  16  26  39  55  74  94 118 150 187 227
#
# _framework density 14.260306
#
# number of rings (size 3 to 8) (size 9 to 14) (size 15 to 20)
#    0.000    2.800    0.000    2.400    0.000    8.800 
#    0.000    0.000    0.000    0.000    0.000    0.000 
#    0.000    0.000    0.000    0.000    0.000    1.000 
#
# Total GULP energy -495973.712790 kJ/mol
# GULP energy per Si atom -12399.342820 kJ/mol
# Density = 1.422785 g / cm^3
# Si number density = 14.260306 Si / 1000 Ang^3
#
#
#
# Elastic Constant Matrix: (Units=GPa)
#
#
# Indices 1 2 3 4 5 6 
#
# 1 85.9659 58.5279 47.9915 0.0000 0.0000 0.0000
# 2 58.5279 115.8706 33.0719 0.0000 0.0000 0.0000
# 3 47.9915 33.0719 28.8475 0.0000 0.0000 0.0000
# 4 0.0000 0.0000 0.0000 22.4361 0.0000 0.0000
# 5 0.0000 0.0000 0.0000 0.0000 14.7689 0.0000
# 6 0.0000 0.0000 0.0000 0.0000 0.0000 20.6728
#
#
#
# Elastic Compliance Matrix: (Units=1/GPa)
#
#
# Indices 1 2 3 4 5 6 
#
# 1 0.167561 -0.007542 -0.270114 0.000000 0.000000 0.000000
# 2 -0.007542 0.013167 -0.002549 0.000000 0.000000 0.000000
# 3 -0.270114 -0.002549 0.486955 0.000000 0.000000 0.000000
# 4 0.000000 0.000000 0.000000 0.044571 0.000000 0.000000
# 5 0.000000 0.000000 0.000000 0.000000 0.067710 0.000000
# 6 0.000000 0.000000 0.000000 0.000000 0.000000 0.048373
#
#
# Mechanical properties :
#
#
# Convention : Reuss Voigt Hill
#
# Bulk Modulus (GPa) = 9.32178 56.65184 32.98681
# Shear Modulus (GPa) = 3.50999 17.64839 10.57919
#
# Velocity S-wave (km/s) = 1.57058 3.52175 2.72667
# Velocity P-wave (km/s) = 3.13688 7.50668 5.75283
#
# Compressibility (1/GPa) = 0.10727564
#
# Stress axis : x y z
#
# Youngs Moduli (GPa) = 5.96796 75.94622 2.05358
#
# Poissons Ratio (x) = 0.57275 0.55470
# Poissons Ratio (y) = 0.04501 0.00523
# Poissons Ratio (z) = 1.61203 0.19359
#
# Static dielectric constant tensor:
#      x y z
#    x 2.684520 0.000000 0.000000 
#    y 0.000000 3.001740 0.000000 
#    z 0.000000 0.000000 2.496290 
# 
# 
# High freq. dielectric constant tensor:
#      x y z
#    x 1.517910 0.000000 0.000000 
#    y 0.000000 1.565640 0.000000 
#    z 0.000000 0.000000 1.496950 
# 
# From -- ./inp_files/39717.got.cif
#   From: 2010.03.12/outbox.cif.g09.slc.cpg/sg74_20_cif.got.tgz:39717.got - 2010.04.16 15:46:19.
