data_PCOD8298220
_publ_section_title
;
Structure prediction by ZEFSAII (Michael W. Deem and Ramdas Pophale) SiO2 
 PCOD8298220
Probable space group: I M M A
;
_chemical_formula_sum "Si O2"
_cell_formula_units_Z 64
_cell_length_a 9.404010
_cell_length_b 13.346221
_cell_length_c 30.912721
_cell_angle_alpha 90.000000
_cell_angle_beta 90.000000
_cell_angle_gamma 90.000000
_cell_volume 3879.793656
_symmetry_space_group_name_H-M "I M M A"
_symmetry_group_IT_number 74
_symmetry_cell_setting 'orthorhombic'
loop_
_space_group_symop_operation_xyz
x,y,z
-x,1/2-y,z
x,-y,-z
-x,1/2+y,-z
-x,-y,-z
x,1/2+y,-z
-x,y,z
x,1/2-y,z
1/2+x,1/2+y,1/2+z
1/2-x,-y,1/2+z
1/2+x,1/2-y,1/2-z
1/2-x,y,1/2-z
1/2-x,1/2-y,1/2-z
1/2+x,y,1/2-z
1/2-x,1/2+y,1/2+z
1/2+x,-y,1/2+z
loop_
_atom_site_type_symbol
_atom_site_label
_atom_site_fract_x
_atom_site_fract_y
_atom_site_fract_z
Si Si1 0.287353 0.632178 0.853160
Si Si2 0.663497 0.964596 0.942684
Si Si3 0.500000 0.631957 0.685675
Si Si4 0.332052 0.634809 0.482887
Si Si5 0.500000 0.867669 0.781104
O O1 0.308788 0.750000 0.862631
O O2 0.344658 0.570476 0.893459
O O3 0.128158 0.598610 0.844473
O O4 0.364150 0.599852 0.808899
O O5 0.500000 0.975414 0.959069
O O6 0.749284 0.069529 0.946696
O O7 0.752765 0.885245 0.971430
O O8 0.500000 0.750000 0.693086
O O9 0.500000 0.580904 0.733518
O O10 0.500000 0.606392 0.486112
O O11 0.314424 0.750000 0.470025
O O12 0.500000 0.750000 0.773847
#
# Coordination Sequence:
#
# PCOD8298220 Si02
#       5
#    16  16   8  16   8
#     4  10  19  29  45  70  99 131 165 198 232 279
#     4  11  21  33  51  74  99 129 163 199 238 283
#     4   9  18  28  44  65  93 135 167 193 234 280
#     4  10  22  37  53  71  96 127 160 201 244 286
#     4   9  16  30  44  63  97 131 163 195 234 284
#
# _framework density 16.495722000000001
#
# number of rings (size 3 to 8) (size 9 to 14) (size 15 to 20)
#    0.000    2.000    1.250    4.500    3.500    6.000 
#    0.000    0.000    0.000    0.000    0.000    0.000 
#    0.000    6.000    0.000    0.000    0.000    0.000 
#
# Total GULP energy -396481.512344 kJ/mol
# GULP energy per Si atom -12390.047261 kJ/mol
# Density = 1.645818 g / cm^3
# Si number density = 16.495722 Si / 1000 Ang^3
#
#
#
# Elastic Constant Matrix: (Units=GPa)
#
#
# Indices 1 2 3 4 5 6 
#
# 1 145.6173 31.3485 25.4675 0.0000 0.0000 0.0000
# 2 31.3485 71.7544 24.7666 0.0000 0.0000 0.0000
# 3 25.4675 24.7666 81.5466 0.0000 0.0000 0.0000
# 4 0.0000 0.0000 0.0000 18.6156 0.0000 0.0000
# 5 0.0000 0.0000 0.0000 0.0000 34.5494 0.0000
# 6 0.0000 0.0000 0.0000 0.0000 0.0000 17.8226
#
#
#
# Elastic Compliance Matrix: (Units=1/GPa)
#
#
# Indices 1 2 3 4 5 6 
#
# 1 0.007753 -0.002850 -0.001556 0.000000 0.000000 0.000000
# 2 -0.002850 0.016616 -0.004156 0.000000 0.000000 0.000000
# 3 -0.001556 -0.004156 0.014011 0.000000 0.000000 0.000000
# 4 0.000000 0.000000 0.000000 0.053718 0.000000 0.000000
# 5 0.000000 0.000000 0.000000 0.000000 0.028944 0.000000
# 6 0.000000 0.000000 0.000000 0.000000 0.000000 0.056108
#
#
# Mechanical properties :
#
#
# Convention : Reuss Voigt Hill
#
# Bulk Modulus (GPa) = 47.04599 51.34261 49.19430
# Shear Modulus (GPa) = 24.83101 28.68658 26.75880
#
# Velocity S-wave (km/s) = 3.88403 4.17469 4.03198
# Velocity P-wave (km/s) = 6.97827 7.37766 7.18074
#
# Compressibility (1/GPa) = 0.02125580
#
# Stress axis : x y z
#
# Youngs Moduli (GPa) = 128.98254 60.18205 71.37198
#
# Poissons Ratio (x) = 0.17153 0.11103
# Poissons Ratio (y) = 0.36763 0.29665
# Poissons Ratio (z) = 0.20065 0.25014
#
# Static dielectric constant tensor:
#      x y z
#    x 4.221300 0.000000 0.000000 
#    y 0.000000 2.737630 0.000000 
#    z 0.000000 0.000000 3.054130 
# 
# 
# High freq. dielectric constant tensor:
#      x y z
#    x 1.665210 0.000000 0.000000 
#    y 0.000000 1.579930 0.000000 
#    z 0.000000 0.000000 1.634010 
# 
# From -- ./inp_files/69912.got.cif
#   From: 2010.03.12/outbox.cif.g09.slc.cpg/sg74_35_cif.got.tgz:69912.got - 2010.04.16 15:46:19.
