data_PCOD8298963
_publ_section_title
;
Structure prediction by ZEFSAII (Michael W. Deem and Ramdas Pophale) SiO2 
 PCOD8298963
Probable space group: I M M A
;
_chemical_formula_sum "Si O2"
_cell_formula_units_Z 96
_cell_length_a 15.589827
_cell_length_b 14.195346
_cell_length_c 20.881887
_cell_angle_alpha 90.000000
_cell_angle_beta 90.000000
_cell_angle_gamma 90.000000
_cell_volume 4621.223995
_symmetry_space_group_name_H-M "I M M A"
_symmetry_group_IT_number 74
_symmetry_cell_setting 'orthorhombic'
loop_
_space_group_symop_operation_xyz
x,y,z
-x,1/2-y,z
x,-y,-z
-x,1/2+y,-z
-x,-y,-z
x,1/2+y,-z
-x,y,z
x,1/2-y,z
1/2+x,1/2+y,1/2+z
1/2-x,-y,1/2+z
1/2+x,1/2-y,1/2-z
1/2-x,y,1/2-z
1/2-x,1/2-y,1/2-z
1/2+x,y,1/2-z
1/2-x,1/2+y,1/2+z
1/2+x,-y,1/2+z
loop_
_atom_site_type_symbol
_atom_site_label
_atom_site_fract_x
_atom_site_fract_y
_atom_site_fract_z
Si Si1 0.906370 0.638611 0.025182
Si Si2 0.406198 0.105608 0.022282
Si Si3 0.680221 0.458021 0.141989
Si Si4 0.273407 0.644892 0.081838
Si Si5 0.095148 0.855352 0.748981
Si Si6 0.147362 0.641484 0.887575
O O1 0.905587 0.750000 0.026123
O O2 0.822541 0.605425 0.065198
O O3 0.000000 0.602847 0.051842
O O4 0.900054 0.603746 0.951380
O O5 0.500000 0.154442 0.012629
O O6 0.385298 0.101285 0.097684
O O7 0.330598 0.156383 0.982713
O O8 0.410552 0.000000 0.000000
O O9 0.680155 0.571644 0.130347
O O10 0.656034 0.433099 0.215202
O O11 0.772894 0.424094 0.123998
O O12 0.268550 0.750000 0.112855
O O13 0.131371 0.750000 0.734770
O O14 0.088337 0.871092 0.825175
O O15 0.000000 0.866777 0.721062
O O16 0.175386 0.750000 0.896990
#
# Coordination Sequence:
#
# PCOD8298963 Si02
#       6
#    16  16  16  16  16  16
#     4   9  17  32  55  81 112 148 183 226 279 334
#     4   9  18  32  50  72 103 141 180 225 274 323
#     4  11  20  33  54  78 112 148 186 227 276 336
#     4  10  21  36  53  78 113 151 192 234 277 328
#     4  10  21  36  55  82 113 145 184 230 286 347
#     4  10  19  33  55  81 109 142 179 227 283 340
#
# _framework density 20.773717000000001
#
# number of rings (size 3 to 8) (size 9 to 14) (size 15 to 20)
#    0.000    2.167    1.667    2.000    0.000    5.000 
#    0.000    2.500    0.000    2.000    0.000    0.000 
#    0.000    0.000    0.000    0.000    0.000    0.000 
#
# Total GULP energy -594680.790980 kJ/mol
# GULP energy per Si atom -12389.183145 kJ/mol
# Density = 2.072644 g / cm^3
# Si number density = 20.773717 Si / 1000 Ang^3
#
#
#
# Elastic Constant Matrix: (Units=GPa)
#
#
# Indices 1 2 3 4 5 6 
#
# 1 119.5205 18.9102 7.4950 0.0000 0.0000 0.0000
# 2 18.9102 73.7445 24.0351 0.0000 0.0000 0.0000
# 3 7.4950 24.0351 55.7460 0.0000 0.0000 0.0000
# 4 0.0000 0.0000 0.0000 14.7450 0.0000 0.0000
# 5 0.0000 0.0000 0.0000 0.0000 21.0562 0.0000
# 6 0.0000 0.0000 0.0000 0.0000 0.0000 20.8272
#
#
#
# Elastic Compliance Matrix: (Units=1/GPa)
#
#
# Indices 1 2 3 4 5 6 
#
# 1 0.008723 -0.002158 -0.000242 0.000000 0.000000 0.000000
# 2 -0.002158 0.016311 -0.006743 0.000000 0.000000 0.000000
# 3 -0.000242 -0.006743 0.020878 0.000000 0.000000 0.000000
# 4 0.000000 0.000000 0.000000 0.067820 0.000000 0.000000
# 5 0.000000 0.000000 0.000000 0.000000 0.047492 0.000000
# 6 0.000000 0.000000 0.000000 0.000000 0.000000 0.048014
#
#
# Mechanical properties :
#
#
# Convention : Reuss Voigt Hill
#
# Bulk Modulus (GPa) = 36.19646 38.87684 37.53665
# Shear Modulus (GPa) = 21.12082 24.56373 22.84227
#
# Velocity S-wave (km/s) = 3.19205 3.44240 3.31958
# Velocity P-wave (km/s) = 5.57203 5.87837 5.72725
#
# Compressibility (1/GPa) = 0.02762701
#
# Stress axis : x y z
#
# Youngs Moduli (GPa) = 114.63437 61.30740 47.89693
#
# Poissons Ratio (x) = 0.13230 0.01161
# Poissons Ratio (y) = 0.24737 0.32295
# Poissons Ratio (z) = 0.02779 0.41337
#
# Static dielectric constant tensor:
#      x y z
#    x 4.330080 0.000000 0.000000 
#    y 0.000000 3.606100 0.000000 
#    z 0.000000 0.000000 3.801410 
# 
# 
# High freq. dielectric constant tensor:
#      x y z
#    x 1.826190 0.000000 0.000000 
#    y 0.000000 1.798710 0.000000 
#    z 0.000000 0.000000 1.775480 
# 
# From -- ./inp_files/51822.got.cif
#   From: 2010.03.12/outbox.cif.g09.slc.cpg/sg74_26_cif.got.tgz:51822.got - 2010.04.16 15:46:19.
