data_PCOD8298379
_publ_section_title
;
Structure prediction by ZEFSAII (Michael W. Deem and Ramdas Pophale) SiO2 
 PCOD8298379
Probable space group: I M M A
;
_chemical_formula_sum "Si O2"
_cell_formula_units_Z 72
_cell_length_a 9.074530
_cell_length_b 33.835951
_cell_length_c 14.333864
_cell_angle_alpha 90.000000
_cell_angle_beta 90.000000
_cell_angle_gamma 90.000000
_cell_volume 4401.146324
_symmetry_space_group_name_H-M "I M M A"
_symmetry_group_IT_number 74
_symmetry_cell_setting 'orthorhombic'
loop_
_space_group_symop_operation_xyz
x,y,z
-x,1/2-y,z
x,-y,-z
-x,1/2+y,-z
-x,-y,-z
x,1/2+y,-z
-x,y,z
x,1/2-y,z
1/2+x,1/2+y,1/2+z
1/2-x,-y,1/2+z
1/2+x,1/2-y,1/2-z
1/2-x,y,1/2-z
1/2-x,1/2-y,1/2-z
1/2+x,y,1/2-z
1/2-x,1/2+y,1/2+z
1/2+x,-y,1/2+z
loop_
_atom_site_type_symbol
_atom_site_label
_atom_site_fract_x
_atom_site_fract_y
_atom_site_fract_z
Si Si1 0.172508 0.835278 0.150954
Si Si2 0.335574 0.014500 0.895410
Si Si3 0.670594 0.250000 0.653362
Si Si4 0.827067 0.911589 0.042257
Si Si5 0.173479 0.939046 0.839121
O O1 0.250000 0.841887 0.250000
O O2 0.211846 0.792004 0.104295
O O3 0.000000 0.838945 0.170721
O O4 0.221826 0.868157 0.076233
O O5 0.500000 0.017162 0.851496
O O6 0.234889 0.983743 0.839727
O O7 0.258728 0.057286 0.892824
O O8 0.347155 0.000000 0.000000
O O9 0.500000 0.250000 0.675900
O O10 0.750000 0.250000 0.750000
O O11 0.783191 0.915647 0.933349
O O12 0.000000 0.919705 0.054659
O O13 0.250000 0.917549 0.750000
O O14 0.000000 0.940196 0.824113
#
# Coordination Sequence:
#
# PCOD8298379 Si02
#       5
#    16  16   8  16  16
#     4   9  17  29  45  66  90 115 141 170 208 254
#     4   9  17  29  44  61  82 109 142 178 214 253
#     4   8  14  26  44  64  87 112 138 168 203 250
#     4   9  18  31  45  63  89 117 145 179 217 256
#     4  10  19  31  46  62  83 114 150 186 222 256
#
# _framework density 16.359373999999999
#
# number of rings (size 3 to 8) (size 9 to 14) (size 15 to 20)
#    0.000    2.889    0.000    1.333    0.000    5.333 
#    0.000    2.222    0.000    0.000    0.000    0.778 
#    0.000    0.000    0.000    0.000    0.000    0.000 
#
# Total GULP energy -446024.261338 kJ/mol
# GULP energy per Si atom -12389.562815 kJ/mol
# Density = 1.632214 g / cm^3
# Si number density = 16.359374 Si / 1000 Ang^3
#
#
#
# Elastic Constant Matrix: (Units=GPa)
#
#
# Indices 1 2 3 4 5 6 
#
# 1 56.9048 36.7566 30.0685 0.0000 -0.0001 0.0000
# 2 36.7566 147.2743 53.4947 0.0003 0.0000 0.0000
# 3 30.0685 53.4947 77.2395 0.0005 0.0000 0.0000
# 4 0.0000 0.0003 0.0005 19.8204 0.0001 0.0000
# 5 -0.0001 0.0000 0.0000 0.0001 23.2476 0.0001
# 6 0.0000 0.0000 0.0000 0.0000 0.0001 16.7213
#
#
#
# Elastic Compliance Matrix: (Units=1/GPa)
#
#
# Indices 1 2 3 4 5 6 
#
# 1 0.023312 -0.003369 -0.006741 0.000000 0.000000 0.000000
# 2 -0.003369 0.009559 -0.005309 0.000000 0.000000 0.000000
# 3 -0.006741 -0.005309 0.019248 0.000000 0.000000 0.000000
# 4 0.000000 0.000000 0.000000 0.050453 0.000000 0.000000
# 5 0.000000 0.000000 0.000000 0.000000 0.043015 0.000000
# 6 0.000000 0.000000 0.000000 0.000000 0.000000 0.059804
#
#
# Mechanical properties :
#
#
# Convention : Reuss Voigt Hill
#
# Bulk Modulus (GPa) = 46.99352 58.00645 52.49999
# Shear Modulus (GPa) = 20.54872 22.69778 21.62325
#
# Velocity S-wave (km/s) = 3.54797 3.72889 3.63955
# Velocity P-wave (km/s) = 6.75072 7.35351 7.05855
#
# Compressibility (1/GPa) = 0.02127953
#
# Stress axis : x y z
#
# Youngs Moduli (GPa) = 42.89679 104.60925 51.95349
#
# Poissons Ratio (x) = 0.35248 0.35024
# Poissons Ratio (y) = 0.14454 0.27582
# Poissons Ratio (z) = 0.28918 0.55537
#
# Static dielectric constant tensor:
#      x y z
#    x 3.140480 0.000000 0.000000 
#    y 0.000000 3.515820 0.000000 
#    z 0.000000 0.000000 3.004070 
# 
# 
# High freq. dielectric constant tensor:
#      x y z
#    x 1.637600 0.000000 0.000000 
#    y 0.000000 1.617720 0.000000 
#    z 0.000000 0.000000 1.604550 
# 
# From -- ./inp_files/29378.got.cif
#   From: 2010.03.12/outbox.cif.g09.slc.cpg/sg74_15_cif.got.tgz:29378.got - 2010.04.16 15:46:19.
