data_PCOD8298681
_publ_section_title
;
Structure prediction by ZEFSAII (Michael W. Deem and Ramdas Pophale) SiO2 
 PCOD8298681
Probable space group: I M M A
;
_chemical_formula_sum "Si O2"
_cell_formula_units_Z 80
_cell_length_a 25.374108
_cell_length_b 8.830757
_cell_length_c 20.174794
_cell_angle_alpha 90.000000
_cell_angle_beta 90.000000
_cell_angle_gamma 90.000000
_cell_volume 4520.618180
_symmetry_space_group_name_H-M "I M M A"
_symmetry_group_IT_number 74
_symmetry_cell_setting 'orthorhombic'
loop_
_space_group_symop_operation_xyz
x,y,z
-x,1/2-y,z
x,-y,-z
-x,1/2+y,-z
-x,-y,-z
x,1/2+y,-z
-x,y,z
x,1/2-y,z
1/2+x,1/2+y,1/2+z
1/2-x,-y,1/2+z
1/2+x,1/2-y,1/2-z
1/2-x,y,1/2-z
1/2-x,1/2-y,1/2-z
1/2+x,y,1/2-z
1/2-x,1/2+y,1/2+z
1/2+x,-y,1/2+z
loop_
_atom_site_type_symbol
_atom_site_label
_atom_site_fract_x
_atom_site_fract_y
_atom_site_fract_z
Si Si1 0.613404 0.568610 0.321178
Si Si2 0.000000 0.580106 0.694834
Si Si3 0.194103 0.571870 0.067914
Si Si4 0.615412 0.576214 0.822139
Si Si5 0.500000 0.423114 0.672552
Si Si6 0.313997 0.428011 0.931840
O O1 0.613566 0.750000 0.310477
O O2 0.658443 0.514051 0.371403
O O3 0.623707 0.487913 0.251509
O O4 0.556595 0.511820 0.352323
O O5 0.945791 0.561518 0.653427
O O6 0.000000 0.447733 0.748665
O O7 0.000000 0.750000 0.727405
O O8 0.189470 0.750000 0.060351
O O9 0.253952 0.520168 0.082015
O O10 0.172884 0.500000 0.000000
O O11 0.633876 0.750000 0.823347
O O12 0.650771 0.480492 0.871276
O O13 0.500000 0.250000 0.653600
O O14 0.318285 0.250000 0.939062
O O15 0.334947 0.500000 0.000000
#
# Coordination Sequence:
#
# PCOD8298681 Si02
#       6
#    16   8  16  16   8  16
#     4   9  17  31  50  73  98 127 161 198 237 280
#     4   8  16  30  47  68  97 126 153 188 235 282
#     4   9  19  34  51  69  95 129 163 198 240 285
#     4  10  19  32  51  75  99 125 157 196 237 282
#     4   8  14  26  47  70  94 124 159 194 232 278
#     4  10  20  35  52  70  94 127 162 198 239 285
#
# _framework density 17.696694000000001
#
# number of rings (size 3 to 8) (size 9 to 14) (size 15 to 20)
#    0.000    2.800    0.000    1.200    0.000    3.200 
#    0.000    5.000    0.000    0.000    0.000    0.000 
#    0.000    0.000    0.000    0.000    0.000    0.000 
#
# Total GULP energy -495616.539135 kJ/mol
# GULP energy per Si atom -12390.413478 kJ/mol
# Density = 1.765642 g / cm^3
# Si number density = 17.696694 Si / 1000 Ang^3
#
#
#
# Elastic Constant Matrix: (Units=GPa)
#
#
# Indices 1 2 3 4 5 6 
#
# 1 112.9849 27.8488 71.9087 0.0000 0.0000 0.0000
# 2 27.8488 39.5878 28.1206 0.0000 0.0000 0.0000
# 3 71.9087 28.1206 103.5482 0.0000 0.0000 0.0000
# 4 0.0000 0.0000 0.0000 29.6919 0.0000 0.0000
# 5 0.0000 0.0000 0.0000 0.0000 0.2253 0.0000
# 6 0.0000 0.0000 0.0000 0.0000 0.0000 21.3187
#
#
#
# Elastic Compliance Matrix: (Units=1/GPa)
#
#
# Indices 1 2 3 4 5 6 
#
# 1 0.016425 -0.004277 -0.010245 0.000000 0.000000 0.000000
# 2 -0.004277 0.032412 -0.005832 0.000000 0.000000 0.000000
# 3 -0.010245 -0.005832 0.018356 0.000000 0.000000 0.000000
# 4 0.000000 0.000000 0.000000 0.033679 0.000000 0.000000
# 5 0.000000 0.000000 0.000000 0.000000 4.439043 0.000000
# 6 0.000000 0.000000 0.000000 0.000000 0.000000 0.046907
#
#
# Mechanical properties :
#
#
# Convention : Reuss Voigt Hill
#
# Bulk Modulus (GPa) = 37.75757 56.87526 47.31641
# Shear Modulus (GPa) = 1.07843 18.79669 9.93756
#
# Velocity S-wave (km/s) = 0.78149 3.26261 2.37227
# Velocity P-wave (km/s) = 4.71132 6.81187 5.85654
#
# Compressibility (1/GPa) = 0.02648475
#
# Stress axis : x y z
#
# Youngs Moduli (GPa) = 60.88129 30.85302 54.47925
#
# Poissons Ratio (x) = 0.13197 0.55814
# Poissons Ratio (y) = 0.26041 0.31770
# Poissons Ratio (z) = 0.62373 0.17992
#
# Static dielectric constant tensor:
#      x y z
#    x 3.726080 0.000000 0.000000 
#    y 0.000000 3.267450 0.000000 
#    z 0.000000 0.000000 3.037760 
# 
# 
# High freq. dielectric constant tensor:
#      x y z
#    x 1.699680 0.000000 0.000000 
#    y 0.000000 1.684950 0.000000 
#    z 0.000000 0.000000 1.653670 
# 
# From -- ./inp_files/39793.got.cif
#   From: 2010.03.12/outbox.cif.g09.slc.cpg/sg74_20_cif.got.tgz:39793.got - 2010.04.16 15:46:19.
