data_PCOD8298246
_publ_section_title
;
Structure prediction by ZEFSAII (Michael W. Deem and Ramdas Pophale) SiO2 
 PCOD8298246
Probable space group: I M M A
;
_chemical_formula_sum "Si O2"
_cell_formula_units_Z 96
_cell_length_a 26.191078
_cell_length_b 8.861985
_cell_length_c 28.520541
_cell_angle_alpha 90.000000
_cell_angle_beta 90.000000
_cell_angle_gamma 90.000000
_cell_volume 6619.758468
_symmetry_space_group_name_H-M "I M M A"
_symmetry_group_IT_number 74
_symmetry_cell_setting 'orthorhombic'
loop_
_space_group_symop_operation_xyz
x,y,z
-x,1/2-y,z
x,-y,-z
-x,1/2+y,-z
-x,-y,-z
x,1/2+y,-z
-x,y,z
x,1/2-y,z
1/2+x,1/2+y,1/2+z
1/2-x,-y,1/2+z
1/2+x,1/2-y,1/2-z
1/2-x,y,1/2-z
1/2-x,1/2-y,1/2-z
1/2+x,y,1/2-z
1/2-x,1/2+y,1/2+z
1/2+x,-y,1/2+z
loop_
_atom_site_type_symbol
_atom_site_label
_atom_site_fract_x
_atom_site_fract_y
_atom_site_fract_z
Si Si1 0.645177 0.428601 0.805206
Si Si2 0.217797 0.425880 0.548280
Si Si3 0.701405 0.416745 0.716559
Si Si4 0.098425 0.574122 0.451771
Si Si5 0.941251 0.076705 0.359980
Si Si6 0.760604 0.427532 0.358421
O O1 0.647545 0.250000 0.813960
O O2 0.654416 0.467852 0.750076
O O3 0.590356 0.492795 0.819400
O O4 0.687942 0.502223 0.837859
O O5 0.236498 0.500000 0.500000
O O6 0.230592 0.250000 0.547118
O O7 0.158054 0.457082 0.556320
O O8 0.248960 0.504816 0.590111
O O9 0.691332 0.250000 0.695490
O O10 0.750000 0.410745 0.750000
O O11 0.711515 0.531685 0.673935
O O12 0.079566 0.500000 0.500000
O O13 0.085921 0.750000 0.453544
O O14 0.067033 0.499738 0.410062
O O15 0.923780 0.250000 0.363142
O O16 0.000000 0.061877 0.345513
O O17 0.766693 0.250000 0.361392
#
# Coordination Sequence:
#
# PCOD8298246 Si02
#       6
#    16  16  16  16  16  16
#     4  10  19  32  47  62  81 107 135 170 210 249
#     4  10  19  30  44  62  84 110 140 172 209 250
#     4   8  16  29  44  62  84 106 132 164 202 245
#     4  10  20  33  49  62  77 103 135 174 218 259
#     4  11  23  35  47  63  82 105 135 174 218 261
#     4  11  19  27  44  66  87 109 134 166 205 248
#
# _framework density 14.502039
#
# number of rings (size 3 to 8) (size 9 to 14) (size 15 to 20)
#    0.000    2.000    1.667    4.500    0.000    6.667 
#    0.000    0.000    0.000    0.000    0.000    0.000 
#    0.000    0.000    0.000    0.000    0.000    0.833 
#
# Total GULP energy -595198.051349 kJ/mol
# GULP energy per Si atom -12399.959403 kJ/mol
# Density = 1.446903 g / cm^3
# Si number density = 14.502039 Si / 1000 Ang^3
#
#
#
# Elastic Constant Matrix: (Units=GPa)
#
#
# Indices 1 2 3 4 5 6 
#
# 1 44.2895 33.4312 44.0814 0.0000 0.0000 0.0000
# 2 33.4312 112.7630 61.1647 0.0000 0.0000 0.0000
# 3 44.0814 61.1647 101.5939 0.0000 0.0000 0.0000
# 4 0.0000 0.0000 0.0000 27.7444 0.0000 0.0000
# 5 0.0000 0.0000 0.0000 0.0000 21.1845 0.0000
# 6 0.0000 0.0000 0.0000 0.0000 0.0000 12.5756
#
#
#
# Elastic Compliance Matrix: (Units=1/GPa)
#
#
# Indices 1 2 3 4 5 6 
#
# 1 0.040754 -0.003699 -0.015456 0.000000 0.000000 0.000000
# 2 -0.003699 0.013504 -0.006525 0.000000 0.000000 0.000000
# 3 -0.015456 -0.006525 0.020478 0.000000 0.000000 0.000000
# 4 0.000000 0.000000 0.000000 0.036043 0.000000 0.000000
# 5 0.000000 0.000000 0.000000 0.000000 0.047204 0.000000
# 6 0.000000 0.000000 0.000000 0.000000 0.000000 0.079519
#
#
# Mechanical properties :
#
#
# Convention : Reuss Voigt Hill
#
# Bulk Modulus (GPa) = 42.77929 59.55567 51.16748
# Shear Modulus (GPa) = 16.85452 20.29884 18.57668
#
# Velocity S-wave (km/s) = 3.41283 3.74535 3.58295
# Velocity P-wave (km/s) = 6.71511 7.73691 7.24405
#
# Compressibility (1/GPa) = 0.02337580
#
# Stress axis : x y z
#
# Youngs Moduli (GPa) = 24.53721 74.05109 48.83241
#
# Poissons Ratio (x) = 0.27390 0.75477
# Poissons Ratio (y) = 0.09076 0.31865
# Poissons Ratio (z) = 0.37926 0.48321
#
# Static dielectric constant tensor:
#      x y z
#    x 2.581660 0.000000 0.000000 
#    y 0.000000 2.967090 0.000000 
#    z 0.000000 0.000000 2.975210 
# 
# 
# High freq. dielectric constant tensor:
#      x y z
#    x 1.498330 0.000000 0.000000 
#    y 0.000000 1.573550 0.000000 
#    z 0.000000 0.000000 1.550930 
# 
# From -- ./inp_files/64671.got.cif
#   From: 2010.03.12/outbox.cif.g09.slc.cpg/sg74_33_cif.got.tgz:64671.got - 2010.04.16 15:46:19.
