data_PCOD8298245
_publ_section_title
;
Structure prediction by ZEFSAII (Michael W. Deem and Ramdas Pophale) SiO2 
 PCOD8298245
Probable space group: I M M A
;
_chemical_formula_sum "Si O2"
_cell_formula_units_Z 96
_cell_length_a 20.668673
_cell_length_b 8.995430
_cell_length_c 28.103425
_cell_angle_alpha 90.000000
_cell_angle_beta 90.000000
_cell_angle_gamma 90.000000
_cell_volume 5225.089981
_symmetry_space_group_name_H-M "I M M A"
_symmetry_group_IT_number 74
_symmetry_cell_setting 'orthorhombic'
loop_
_space_group_symop_operation_xyz
x,y,z
-x,1/2-y,z
x,-y,-z
-x,1/2+y,-z
-x,-y,-z
x,1/2+y,-z
-x,y,z
x,1/2-y,z
1/2+x,1/2+y,1/2+z
1/2-x,-y,1/2+z
1/2+x,1/2-y,1/2-z
1/2-x,y,1/2-z
1/2-x,1/2-y,1/2-z
1/2+x,y,1/2-z
1/2-x,1/2+y,1/2+z
1/2+x,-y,1/2+z
loop_
_atom_site_type_symbol
_atom_site_label
_atom_site_fract_x
_atom_site_fract_y
_atom_site_fract_z
Si Si1 0.428226 0.426729 0.214852
Si Si2 0.073035 0.424818 0.049133
Si Si3 0.806215 0.573165 0.550571
Si Si4 0.428294 0.426609 0.108287
Si Si5 0.187454 0.426341 0.114979
Si Si6 0.312392 0.427540 0.278305
O O1 0.500000 0.478394 0.230827
O O2 0.424288 0.250000 0.214486
O O3 0.413343 0.485761 0.161545
O O4 0.375944 0.491468 0.251755
O O5 0.079728 0.250000 0.041585
O O6 0.121536 0.482152 0.089918
O O7 0.000000 0.469348 0.063962
O O8 0.093560 0.500000 0.000000
O O9 0.794241 0.500000 0.500000
O O10 0.805721 0.750000 0.544916
O O11 0.874258 0.513494 0.571895
O O12 0.749547 0.517929 0.585638
O O13 0.500000 0.480517 0.091973
O O14 0.425889 0.250000 0.109306
O O15 0.188361 0.250000 0.117729
O O16 0.189521 0.492536 0.168237
O O17 0.313490 0.250000 0.279232
O O18 0.250000 0.485895 0.250000
#
# Coordination Sequence:
#
# PCOD8298245 Si02
#       6
#    16  16  16  16  16  16
#     4   8  13  21  34  53  78 107 134 159 194 243
#     4   9  17  29  44  61  83 111 140 170 205 244
#     4  10  19  30  44  61  83 111 141 173 207 243
#     4   8  14  25  40  58  82 111 138 165 203 248
#     4   9  17  27  39  57  82 111 139 168 206 247
#     4   9  15  22  34  53  78 107 135 162 196 242
#
# _framework density 18.372889000000001
#
# number of rings (size 3 to 8) (size 9 to 14) (size 15 to 20)
#    0.000    3.167    0.000    2.500    0.000    5.000 
#    0.000    3.333    0.000    0.000    0.000    0.000 
#    0.000   12.000    0.000    3.000    0.000    1.333 
#
# Total GULP energy -594956.859567 kJ/mol
# GULP energy per Si atom -12394.934574 kJ/mol
# Density = 1.833107 g / cm^3
# Si number density = 18.372889 Si / 1000 Ang^3
#
#
#
# Elastic Constant Matrix: (Units=GPa)
#
#
# Indices 1 2 3 4 5 6 
#
# 1 153.1336 11.2688 91.6823 0.0000 0.0000 0.0000
# 2 11.2688 6.1610 12.9572 0.0000 0.0000 0.0000
# 3 91.6823 12.9572 151.0922 0.0000 0.0000 0.0000
# 4 0.0000 0.0000 0.0000 16.7520 0.0000 0.0000
# 5 0.0000 0.0000 0.0000 0.0000 42.1704 0.0000
# 6 0.0000 0.0000 0.0000 0.0000 0.0000 7.6996
#
#
#
# Elastic Compliance Matrix: (Units=1/GPa)
#
#
# Indices 1 2 3 4 5 6 
#
# 1 0.010504 -0.007086 -0.005766 0.000000 0.000000 0.000000
# 2 -0.007086 0.202807 -0.013093 0.000000 0.000000 0.000000
# 3 -0.005766 -0.013093 0.011240 0.000000 0.000000 0.000000
# 4 0.000000 0.000000 0.000000 0.059694 0.000000 0.000000
# 5 0.000000 0.000000 0.000000 0.000000 0.023713 0.000000
# 6 0.000000 0.000000 0.000000 0.000000 0.000000 0.129876
#
#
# Mechanical properties :
#
#
# Convention : Reuss Voigt Hill
#
# Bulk Modulus (GPa) = 5.79165 60.24481 33.01823
# Shear Modulus (GPa) = 9.13614 26.28963 17.71288
#
# Velocity S-wave (km/s) = 2.23236 3.78682 3.10833
# Velocity P-wave (km/s) = 3.13108 7.20980 5.55810
#
# Compressibility (1/GPa) = 0.17266236
#
# Stress axis : x y z
#
# Youngs Moduli (GPa) = 95.20316 4.93080 88.96737
#
# Poissons Ratio (x) = 0.03494 0.51299
# Poissons Ratio (y) = 0.67457 1.16481
# Poissons Ratio (z) = 0.54895 0.06456
#
# Static dielectric constant tensor:
#      x y z
#    x 3.807830 0.000000 0.000000 
#    y 0.000000 2.628480 0.000000 
#    z 0.000000 0.000000 3.597250 
# 
# 
# High freq. dielectric constant tensor:
#      x y z
#    x 1.733070 0.000000 0.000000 
#    y 0.000000 1.628070 0.000000 
#    z 0.000000 0.000000 1.717210 
# 
# From -- ./inp_files/50763.got.cif
#   From: 2010.03.12/outbox.cif.g09.slc.cpg/sg74_26_cif.got.tgz:50763.got - 2010.04.16 15:46:19.
