data_PCOD8298559
_publ_section_title
;
Structure prediction by ZEFSAII (Michael W. Deem and Ramdas Pophale) SiO2 
 PCOD8298559
Probable space group: I M M A
;
_chemical_formula_sum "Si O2"
_cell_formula_units_Z 88
_cell_length_a 9.086614
_cell_length_b 16.887061
_cell_length_c 28.362619
_cell_angle_alpha 90.000000
_cell_angle_beta 90.000000
_cell_angle_gamma 90.000000
_cell_volume 4352.136247
_symmetry_space_group_name_H-M "I M M A"
_symmetry_group_IT_number 74
_symmetry_cell_setting 'orthorhombic'
loop_
_space_group_symop_operation_xyz
x,y,z
-x,1/2-y,z
x,-y,-z
-x,1/2+y,-z
-x,-y,-z
x,1/2+y,-z
-x,y,z
x,1/2-y,z
1/2+x,1/2+y,1/2+z
1/2-x,-y,1/2+z
1/2+x,1/2-y,1/2-z
1/2-x,y,1/2-z
1/2-x,1/2-y,1/2-z
1/2+x,y,1/2-z
1/2-x,1/2+y,1/2+z
1/2+x,-y,1/2+z
loop_
_atom_site_type_symbol
_atom_site_label
_atom_site_fract_x
_atom_site_fract_y
_atom_site_fract_z
Si Si1 0.824715 0.068763 0.300308
Si Si2 0.172406 0.591511 0.350713
Si Si3 0.327531 0.157965 0.381816
Si Si4 0.829970 0.921932 0.976359
Si Si5 0.669556 0.337451 0.568887
Si Si6 0.826930 0.250000 0.700878
O O1 0.750000 0.081880 0.250000
O O2 0.765079 0.135527 0.335606
O O3 0.000000 0.075799 0.295184
O O4 0.774907 0.983375 0.320407
O O5 0.247301 0.593558 0.402145
O O6 0.226248 0.671439 0.325590
O O7 0.000000 0.588719 0.358564
O O8 0.500000 0.141156 0.372988
O O9 0.301300 0.250000 0.392946
O O10 0.264292 0.106479 0.426090
O O11 0.000000 0.941490 0.967099
O O12 0.809489 0.850716 0.013262
O O13 0.754699 0.000000 0.000000
O O14 0.500000 0.342767 0.583157
O O15 0.733337 0.250000 0.580372
O O16 0.750000 0.250000 0.750000
O O17 0.000000 0.250000 0.708341
#
# Coordination Sequence:
#
# PCOD8298559 Si02
#       6
#    16  16  16  16  16   8
#     4  11  24  41  62  87 114 148 192 244 300 355
#     4  10  21  37  55  79 114 153 191 236 292 351
#     4  10  21  39  63  89 119 156 195 238 290 345
#     4   9  17  31  54  85 119 153 189 233 283 335
#     4  10  19  31  52  83 115 150 193 236 277 332
#     4  10  20  34  52  74 106 146 190 236 283 338
#
# _framework density 20.219954999999999
#
# number of rings (size 3 to 8) (size 9 to 14) (size 15 to 20)
#    0.000    2.000    0.909    2.727    0.000    6.545 
#    0.000    0.909    0.000    5.455    0.000    0.000 
#    0.000    0.000    0.000    0.000    0.000    0.000 
#
# Total GULP energy -545535.253115 kJ/mol
# GULP energy per Si atom -12398.528480 kJ/mol
# Density = 2.017393 g / cm^3
# Si number density = 20.219955 Si / 1000 Ang^3
#
#
#
# Elastic Constant Matrix: (Units=GPa)
#
#
# Indices 1 2 3 4 5 6 
#
# 1 38.6743 28.7241 41.4720 0.0000 0.0000 0.0000
# 2 28.7241 101.8464 51.2260 0.0000 0.0000 0.0000
# 3 41.4720 51.2260 150.6783 0.0000 0.0000 0.0000
# 4 0.0000 0.0000 0.0000 26.7204 0.0000 0.0000
# 5 0.0000 0.0000 0.0000 0.0000 27.3400 0.0000
# 6 0.0000 0.0000 0.0000 0.0000 0.0000 24.6472
#
#
#
# Elastic Compliance Matrix: (Units=1/GPa)
#
#
# Indices 1 2 3 4 5 6 
#
# 1 0.040443 -0.007005 -0.008750 0.000000 0.000000 0.000000
# 2 -0.007005 0.013057 -0.002511 0.000000 0.000000 0.000000
# 3 -0.008750 -0.002511 0.009899 0.000000 0.000000 0.000000
# 4 0.000000 0.000000 0.000000 0.037425 0.000000 0.000000
# 5 0.000000 0.000000 0.000000 0.000000 0.036576 0.000000
# 6 0.000000 0.000000 0.000000 0.000000 0.000000 0.040573
#
#
# Mechanical properties :
#
#
# Convention : Reuss Voigt Hill
#
# Bulk Modulus (GPa) = 37.22100 59.33813 48.27956
# Shear Modulus (GPa) = 22.37542 27.05998 24.71770
#
# Velocity S-wave (km/s) = 3.33017 3.66222 3.50014
# Velocity P-wave (km/s) = 5.76496 6.87695 6.34536
#
# Compressibility (1/GPa) = 0.02686655
#
# Stress axis : x y z
#
# Youngs Moduli (GPa) = 24.72646 76.58491 101.02521
#
# Poissons Ratio (x) = 0.53650 0.88393
# Poissons Ratio (y) = 0.17322 0.25367
# Poissons Ratio (z) = 0.21635 0.19230
#
# Static dielectric constant tensor:
#      x y z
#    x 3.636000 0.000000 0.000000 
#    y 0.000000 3.728550 0.000000 
#    z 0.000000 0.000000 3.724930 
# 
# 
# High freq. dielectric constant tensor:
#      x y z
#    x 1.754520 0.000000 0.000000 
#    y 0.000000 1.799060 0.000000 
#    z 0.000000 0.000000 1.801580 
# 
# From -- ./inp_files/70204.got.cif
#   From: 2010.03.12/outbox.cif.g09.slc.cpg/sg74_36_cif.got.tgz:70204.got - 2010.04.16 15:46:19.
