data_PCOD8298112
_publ_section_title
;
Structure prediction by ZEFSAII (Michael W. Deem and Ramdas Pophale) SiO2 
 PCOD8298112
Probable space group: I M M A
;
_chemical_formula_sum "Si O2"
_cell_formula_units_Z 72
_cell_length_a 16.434933
_cell_length_b 8.412294
_cell_length_c 26.453490
_cell_angle_alpha 90.000000
_cell_angle_beta 90.000000
_cell_angle_gamma 90.000000
_cell_volume 3657.340176
_symmetry_space_group_name_H-M "I M M A"
_symmetry_group_IT_number 74
_symmetry_cell_setting 'orthorhombic'
loop_
_space_group_symop_operation_xyz
x,y,z
-x,1/2-y,z
x,-y,-z
-x,1/2+y,-z
-x,-y,-z
x,1/2+y,-z
-x,y,z
x,1/2-y,z
1/2+x,1/2+y,1/2+z
1/2-x,-y,1/2+z
1/2+x,1/2-y,1/2-z
1/2-x,y,1/2-z
1/2-x,1/2-y,1/2-z
1/2+x,y,1/2-z
1/2-x,1/2+y,1/2+z
1/2+x,-y,1/2+z
loop_
_atom_site_type_symbol
_atom_site_label
_atom_site_fract_x
_atom_site_fract_y
_atom_site_fract_z
Si Si1 0.594686 0.250000 0.375956
Si Si2 0.844724 0.929549 0.394610
Si Si3 0.500000 0.930645 0.944469
Si Si4 0.164237 0.573047 0.277600
Si Si5 0.655575 0.750000 0.734768
Si Si6 0.305288 0.074517 0.448604
O O1 0.500000 0.250000 0.363653
O O2 0.646438 0.250000 0.325036
O O3 0.620424 0.407235 0.408244
O O4 0.870801 0.750000 0.404105
O O5 0.822768 0.961829 0.336514
O O6 0.920907 0.032030 0.411572
O O7 0.765513 0.964366 0.427567
O O8 0.500000 0.750000 0.956400
O O9 0.500000 0.000000 0.000000
O O10 0.121803 0.750000 0.269950
O O11 0.250000 0.580885 0.250000
O O12 0.115679 0.416840 0.255886
O O13 0.750000 0.750000 0.750000
O O14 0.268295 0.250000 0.459401
O O15 0.340862 0.000000 0.500000
#
# Coordination Sequence:
#
# PCOD8298112 Si02
#       6
#     8  16   8  16   8  16
#     4  10  24  42  64  95 131 172 217 275 337 396
#     4  11  22  39  64  93 131 170 223 268 328 396
#     4  12  26  42  62  90 136 178 220 276 332 387
#     4   9  19  34  59  92 123 165 212 269 321 383
#     4  10  18  36  66  88 126 169 211 265 329 388
#     4  10  21  37  63  90 121 165 220 263 326 388
#
# _framework density 19.686437999999999
#
# number of rings (size 3 to 8) (size 9 to 14) (size 15 to 20)
#    0.667    1.111    0.000    5.667    3.111    0.444 
#    2.000    1.111    0.000    2.667    0.000    0.000 
#    0.000    0.000    0.000    0.000    0.000    0.000 
#
# Total GULP energy -445987.945732 kJ/mol
# GULP energy per Si atom -12388.554048 kJ/mol
# Density = 1.964163 g / cm^3
# Si number density = 19.686438 Si / 1000 Ang^3
#
#
#
# Elastic Constant Matrix: (Units=GPa)
#
#
# Indices 1 2 3 4 5 6 
#
# 1 84.5315 9.5314 42.3473 0.0000 0.0000 0.0000
# 2 9.5314 149.2320 57.9417 0.0000 0.0000 0.0000
# 3 42.3473 57.9417 157.3013 0.0000 0.0000 0.0000
# 4 0.0000 0.0000 0.0000 40.2135 0.0000 0.0000
# 5 0.0000 0.0000 0.0000 0.0000 14.1840 0.0000
# 6 0.0000 0.0000 0.0000 0.0000 0.0000 10.5962
#
#
#
# Elastic Compliance Matrix: (Units=1/GPa)
#
#
# Indices 1 2 3 4 5 6 
#
# 1 0.013728 0.000651 -0.003936 0.000000 0.000000 0.000000
# 2 0.000651 0.007850 -0.003067 0.000000 0.000000 0.000000
# 3 -0.003936 -0.003067 0.008546 0.000000 0.000000 0.000000
# 4 0.000000 0.000000 0.000000 0.024867 0.000000 0.000000
# 5 0.000000 0.000000 0.000000 0.000000 0.070502 0.000000
# 6 0.000000 0.000000 0.000000 0.000000 0.000000 0.094373
#
#
# Mechanical properties :
#
#
# Convention : Reuss Voigt Hill
#
# Bulk Modulus (GPa) = 57.39840 67.85618 62.62729
# Shear Modulus (GPa) = 20.97520 31.74839 26.36179
#
# Velocity S-wave (km/s) = 3.26769 4.02020 3.66332
# Velocity P-wave (km/s) = 6.59217 7.48951 7.05512
#
# Compressibility (1/GPa) = 0.01742209
#
# Stress axis : x y z
#
# Youngs Moduli (GPa) = 72.84329 127.38596 117.00768
#
# Poissons Ratio (x) = -0.08296 0.46050
# Poissons Ratio (y) = -0.04744 0.35885
# Poissons Ratio (z) = 0.28669 0.39068
#
# Static dielectric constant tensor:
#      x y z
#    x 3.062120 0.000000 0.000000 
#    y 0.000000 4.529950 0.000000 
#    z 0.000000 0.000000 3.736210 
# 
# 
# High freq. dielectric constant tensor:
#      x y z
#    x 1.719400 0.000000 0.000000 
#    y 0.000000 1.785930 0.000000 
#    z 0.000000 0.000000 1.786470 
# 
# From -- ./inp_files/60625.got.cif
#   From: 2010.03.12/outbox.cif.g09.slc.cpg/sg74_31_cif.got.tgz:60625.got - 2010.04.16 15:46:19.
