data_PCOD8298745
_publ_section_title
;
Structure prediction by ZEFSAII (Michael W. Deem and Ramdas Pophale) SiO2 
 PCOD8298745
Probable space group: I M M A
;
_chemical_formula_sum "Si O2"
_cell_formula_units_Z 96
_cell_length_a 20.641702
_cell_length_b 9.013684
_cell_length_c 24.858476
_cell_angle_alpha 90.000000
_cell_angle_beta 90.000000
_cell_angle_gamma 90.000000
_cell_volume 4625.112835
_symmetry_space_group_name_H-M "I M M A"
_symmetry_group_IT_number 74
_symmetry_cell_setting 'orthorhombic'
loop_
_space_group_symop_operation_xyz
x,y,z
-x,1/2-y,z
x,-y,-z
-x,1/2+y,-z
-x,-y,-z
x,1/2+y,-z
-x,y,z
x,1/2-y,z
1/2+x,1/2+y,1/2+z
1/2-x,-y,1/2+z
1/2+x,1/2-y,1/2-z
1/2-x,y,1/2-z
1/2-x,1/2-y,1/2-z
1/2+x,y,1/2-z
1/2-x,1/2+y,1/2+z
1/2+x,-y,1/2+z
loop_
_atom_site_type_symbol
_atom_site_label
_atom_site_fract_x
_atom_site_fract_y
_atom_site_fract_z
Si Si1 0.676343 0.073520 0.250732
Si Si2 0.572595 0.921861 0.660838
Si Si3 0.138944 0.580830 0.635069
Si Si4 0.112069 0.072345 0.944688
Si Si5 0.751695 0.577703 0.947905
Si Si6 0.074800 0.090206 0.548847
O O1 0.679981 0.250000 0.252567
O O2 0.750000 0.009449 0.250000
O O3 0.629005 0.017351 0.298701
O O4 0.645018 0.018459 0.195066
O O5 0.500000 0.936927 0.686477
O O6 0.587286 0.750000 0.647137
O O7 0.571075 0.017633 0.606359
O O8 0.116422 0.750000 0.635448
O O9 0.206321 0.561246 0.603685
O O10 0.082983 0.489952 0.605698
O O11 0.109339 0.250000 0.948999
O O12 0.184230 0.013899 0.934464
O O13 0.084470 0.000000 0.000000
O O14 0.768129 0.750000 0.959582
O O15 0.718941 0.500000 0.000000
O O16 0.109668 0.250000 0.550189
O O17 0.000000 0.111767 0.536973
O O18 0.107427 0.000000 0.500000
#
# Coordination Sequence:
#
# PCOD8298745 Si02
#       6
#    16  16  16  16  16  16
#     4   9  18  35  59  85 113 147 189 235 281 332
#     4  10  21  38  60  85 114 149 189 234 283 335
#     4  10  20  33  55  84 110 142 185 233 282 334
#     4  11  22  37  59  85 114 148 184 225 276 334
#     4  10  19  32  52  81 116 149 184 229 280 334
#     4  10  21  36  53  75 107 147 188 233 285 339
#
# _framework density 20.756252
#
# number of rings (size 3 to 8) (size 9 to 14) (size 15 to 20)
#    0.000    2.000    0.000    5.000    0.000    7.667 
#    0.000    2.500    0.000    2.000    0.000    0.000 
#    0.000    0.000    0.000    0.000    0.000    0.000 
#
# Total GULP energy -594943.658150 kJ/mol
# GULP energy per Si atom -12394.659545 kJ/mol
# Density = 2.070901 g / cm^3
# Si number density = 20.756252 Si / 1000 Ang^3
#
#
#
# Elastic Constant Matrix: (Units=GPa)
#
#
# Indices 1 2 3 4 5 6 
#
# 1 81.6478 29.5173 39.4226 0.0000 0.0000 0.0000
# 2 29.5173 116.4926 53.4195 0.0000 0.0000 0.0000
# 3 39.4226 53.4195 155.3910 0.0000 0.0000 0.0000
# 4 0.0000 0.0000 0.0000 26.7187 0.0000 0.0000
# 5 0.0000 0.0000 0.0000 0.0000 24.2803 0.0000
# 6 0.0000 0.0000 0.0000 0.0000 0.0000 21.3383
#
#
#
# Elastic Compliance Matrix: (Units=1/GPa)
#
#
# Indices 1 2 3 4 5 6 
#
# 1 0.014482 -0.002356 -0.002864 0.000000 0.000000 0.000000
# 2 -0.002356 0.010574 -0.003037 0.000000 0.000000 0.000000
# 3 -0.002864 -0.003037 0.008206 0.000000 0.000000 0.000000
# 4 0.000000 0.000000 0.000000 0.037427 0.000000 0.000000
# 5 0.000000 0.000000 0.000000 0.000000 0.041186 0.000000
# 6 0.000000 0.000000 0.000000 0.000000 0.000000 0.046864
#
#
# Mechanical properties :
#
#
# Convention : Reuss Voigt Hill
#
# Bulk Modulus (GPa) = 59.71117 66.47224 63.09170
# Shear Modulus (GPa) = 27.64918 29.87895 28.76406
#
# Velocity S-wave (km/s) = 3.65374 3.79821 3.72668
# Velocity P-wave (km/s) = 6.82862 7.16449 6.99857
#
# Compressibility (1/GPa) = 0.01674729
#
# Stress axis : x y z
#
# Youngs Moduli (GPa) = 69.04893 94.57095 121.85935
#
# Poissons Ratio (x) = 0.22283 0.34903
# Poissons Ratio (y) = 0.16269 0.37013
# Poissons Ratio (z) = 0.19777 0.28724
#
# Static dielectric constant tensor:
#      x y z
#    x 3.669830 0.000000 0.000000 
#    y 0.000000 3.850290 0.000000 
#    z 0.000000 0.000000 3.979020 
# 
# 
# High freq. dielectric constant tensor:
#      x y z
#    x 1.812930 0.000000 0.000000 
#    y 0.000000 1.791620 0.000000 
#    z 0.000000 0.000000 1.813140 
# 
# From -- ./inp_files/68112.got.cif
#   From: 2010.03.12/outbox.cif.g09.slc.cpg/sg74_35_cif.got.tgz:68112.got - 2010.04.16 15:46:19.
