data_PCOD8298291
_publ_section_title
;
Structure prediction by ZEFSAII (Michael W. Deem and Ramdas Pophale) SiO2 
 PCOD8298291
Probable space group: I M M A
;
_chemical_formula_sum "Si O2"
_cell_formula_units_Z 96
_cell_length_a 18.352280
_cell_length_b 9.127358
_cell_length_c 32.414605
_cell_angle_alpha 90.000000
_cell_angle_beta 90.000000
_cell_angle_gamma 90.000000
_cell_volume 5429.700133
_symmetry_space_group_name_H-M "I M M A"
_symmetry_group_IT_number 74
_symmetry_cell_setting 'orthorhombic'
loop_
_space_group_symop_operation_xyz
x,y,z
-x,1/2-y,z
x,-y,-z
-x,1/2+y,-z
-x,-y,-z
x,1/2+y,-z
-x,y,z
x,1/2-y,z
1/2+x,1/2+y,1/2+z
1/2-x,-y,1/2+z
1/2+x,1/2-y,1/2-z
1/2-x,y,1/2-z
1/2-x,1/2-y,1/2-z
1/2+x,y,1/2-z
1/2-x,1/2+y,1/2+z
1/2+x,-y,1/2+z
loop_
_atom_site_type_symbol
_atom_site_label
_atom_site_fract_x
_atom_site_fract_y
_atom_site_fract_z
Si Si1 0.417025 0.581119 0.824644
Si Si2 0.277679 0.078329 0.542484
Si Si3 0.210600 0.081933 0.383643
Si Si4 0.855201 0.419467 0.164898
Si Si5 0.415765 0.921225 0.258593
Si Si6 0.581166 0.917978 0.409374
O O1 0.500000 0.549789 0.838105
O O2 0.405615 0.750000 0.811873
O O3 0.366573 0.540150 0.863455
O O4 0.394120 0.482463 0.786037
O O5 0.266550 0.250000 0.536686
O O6 0.360448 0.037788 0.555710
O O7 0.259280 0.000000 0.500000
O O8 0.221741 0.021612 0.577024
O O9 0.212630 0.250000 0.398720
O O10 0.272598 0.054466 0.349487
O O11 0.873844 0.250000 0.171157
O O12 0.864997 0.501686 0.207927
O O13 0.910396 0.483191 0.130997
O O14 0.500000 0.956335 0.268476
O O15 0.399598 0.750000 0.259169
O O16 0.500000 0.941770 0.427550
O O17 0.593681 0.750000 0.395789
#
# Coordination Sequence:
#
# PCOD8298291 Si02
#       6
#    16  16  16  16  16  16
#     4   9  18  34  55  75  95 123 159 198 242 292
#     4  10  20  34  53  75  99 128 160 195 238 287
#     4   9  19  35  53  74  99 125 156 197 244 291
#     4  10  19  30  46  69  98 132 168 204 240 279
#     4  10  20  32  46  67  98 134 169 205 241 277
#     4   9  18  32  48  68  97 132 168 204 240 277
#
# _framework density 17.680534000000002
#
# number of rings (size 3 to 8) (size 9 to 14) (size 15 to 20)
#    0.000    2.500    0.000    2.000    0.000    6.333 
#    0.000    3.333    0.000    0.500    0.000    0.000 
#    0.000    0.000    0.000    0.000    0.000    0.000 
#
# Total GULP energy -595340.052213 kJ/mol
# GULP energy per Si atom -12402.917754 kJ/mol
# Density = 1.764029 g / cm^3
# Si number density = 17.680534 Si / 1000 Ang^3
#
#
#
# Elastic Constant Matrix: (Units=GPa)
#
#
# Indices 1 2 3 4 5 6 
#
# 1 74.3574 39.8726 61.0739 0.0000 0.0000 0.0000
# 2 39.8726 95.1186 69.8937 0.0000 0.0000 0.0000
# 3 61.0739 69.8937 125.3926 0.0000 0.0000 0.0000
# 4 0.0000 0.0000 0.0000 34.2176 0.0000 0.0000
# 5 0.0000 0.0000 0.0000 0.0000 15.8470 0.0000
# 6 0.0000 0.0000 0.0000 0.0000 0.0000 21.4760
#
#
#
# Elastic Compliance Matrix: (Units=1/GPa)
#
#
# Indices 1 2 3 4 5 6 
#
# 1 0.022724 -0.002359 -0.009753 0.000000 0.000000 0.000000
# 2 -0.002359 0.018051 -0.008913 0.000000 0.000000 0.000000
# 3 -0.009753 -0.008913 0.017693 0.000000 0.000000 0.000000
# 4 0.000000 0.000000 0.000000 0.029225 0.000000 0.000000
# 5 0.000000 0.000000 0.000000 0.000000 0.063104 0.000000
# 6 0.000000 0.000000 0.000000 0.000000 0.000000 0.046564
#
#
# Mechanical properties :
#
#
# Convention : Reuss Voigt Hill
#
# Bulk Modulus (GPa) = 60.90540 70.72767 65.81653
# Shear Modulus (GPa) = 20.41783 22.57668 21.49725
#
# Velocity S-wave (km/s) = 3.40195 3.57728 3.49072
# Velocity P-wave (km/s) = 7.06778 7.55993 7.31799
#
# Compressibility (1/GPa) = 0.01641891
#
# Stress axis : x y z
#
# Youngs Moduli (GPa) = 44.00543 55.39799 56.51848
#
# Poissons Ratio (x) = 0.13069 0.55124
# Poissons Ratio (y) = 0.10381 0.50373
# Poissons Ratio (z) = 0.42920 0.49375
#
# Static dielectric constant tensor:
#      x y z
#    x 3.245990 0.000000 0.000000 
#    y 0.000000 3.359890 0.000000 
#    z 0.000000 0.000000 3.089220 
# 
# 
# High freq. dielectric constant tensor:
#      x y z
#    x 1.671360 0.000000 0.000000 
#    y 0.000000 1.692140 0.000000 
#    z 0.000000 0.000000 1.669980 
# 
# From -- ./inp_files/64277.got.cif
#   From: 2010.03.12/outbox.cif.g09.slc.cpg/sg74_33_cif.got.tgz:64277.got - 2010.04.16 15:46:19.
