data_PCOD8298712
_publ_section_title
;
Structure prediction by ZEFSAII (Michael W. Deem and Ramdas Pophale) SiO2 
 PCOD8298712
Probable space group: I M M A
;
_chemical_formula_sum "Si O2"
_cell_formula_units_Z 112
_cell_length_a 29.307287
_cell_length_b 19.568607
_cell_length_c 11.360079
_cell_angle_alpha 90.000000
_cell_angle_beta 90.000000
_cell_angle_gamma 90.000000
_cell_volume 6515.036905
_symmetry_space_group_name_H-M "I M M A"
_symmetry_group_IT_number 74
_symmetry_cell_setting 'orthorhombic'
loop_
_space_group_symop_operation_xyz
x,y,z
-x,1/2-y,z
x,-y,-z
-x,1/2+y,-z
-x,-y,-z
x,1/2+y,-z
-x,y,z
x,1/2-y,z
1/2+x,1/2+y,1/2+z
1/2-x,-y,1/2+z
1/2+x,1/2-y,1/2-z
1/2-x,y,1/2-z
1/2-x,1/2-y,1/2-z
1/2+x,y,1/2-z
1/2-x,1/2+y,1/2+z
1/2+x,-y,1/2+z
loop_
_atom_site_type_symbol
_atom_site_label
_atom_site_fract_x
_atom_site_fract_y
_atom_site_fract_z
Si Si1 0.353176 0.942725 0.601791
Si Si2 0.803450 0.829732 0.039203
Si Si3 0.206530 0.964156 0.683278
Si Si4 0.450921 0.575056 0.550301
Si Si5 0.357315 0.329002 0.775025
Si Si6 0.207977 0.397168 0.554810
Si Si7 0.949624 0.328810 0.829728
O O1 0.323541 0.876557 0.565351
O O2 0.334809 0.972938 0.724642
O O3 0.405641 0.920895 0.630529
O O4 0.350136 0.000000 0.500000
O O5 0.809597 0.750000 0.006208
O O6 0.830470 0.849317 0.157060
O O7 0.750137 0.844896 0.059866
O O8 0.250000 0.932998 0.750000
O O9 0.193200 0.912513 0.579061
O O10 0.222249 0.035458 0.626267
O O11 0.454820 0.500000 0.500000
O O12 0.500000 0.591584 0.614450
O O13 0.442904 0.628486 0.446808
O O14 0.351786 0.250000 0.800869
O O15 0.337255 0.366846 0.887333
O O16 0.410587 0.350396 0.763011
O O17 0.942652 0.250000 0.865828
O O18 0.000000 0.341288 0.774232
#
# Coordination Sequence:
#
# PCOD8298712 Si02
#       7
#    16  16  16  16  16  16  16
#     4  11  20  34  56  77 106 140 172 214 264 313
#     4  11  21  34  53  80 107 134 170 216 266 311
#     4  11  22  35  52  74  99 139 185 211 251 312
#     4   9  18  30  49  79 106 132 166 209 262 314
#     4  10  19  32  52  76 102 133 169 211 263 309
#     4  11  22  35  51  72 105 139 178 216 250 308
#     4   9  17  30  50  77 106 133 167 215 265 310
#
# _framework density 17.190999999999999
#
# number of rings (size 3 to 8) (size 9 to 14) (size 15 to 20)
#    0.000    1.714    2.857    3.429    2.000    1.143 
#    0.000    2.143    0.000    0.857    0.000    2.000 
#    0.000    0.000    0.000    0.000    0.000    0.000 
#
# Total GULP energy -694154.907681 kJ/mol
# GULP energy per Si atom -12395.623351 kJ/mol
# Density = 1.715187 g / cm^3
# Si number density = 17.191000 Si / 1000 Ang^3
#
#
#
# Elastic Constant Matrix: (Units=GPa)
#
#
# Indices 1 2 3 4 5 6 
#
# 1 139.6257 28.4376 46.2165 0.0000 0.0000 0.0000
# 2 28.4376 57.7811 25.3800 0.0000 0.0000 0.0000
# 3 46.2165 25.3800 84.0381 0.0000 0.0000 0.0000
# 4 0.0000 0.0000 0.0000 22.6971 0.0000 0.0000
# 5 0.0000 0.0000 0.0000 0.0000 26.0649 0.0000
# 6 0.0000 0.0000 0.0000 0.0000 0.0000 23.3569
#
#
#
# Elastic Compliance Matrix: (Units=1/GPa)
#
#
# Indices 1 2 3 4 5 6 
#
# 1 0.009089 -0.002626 -0.004205 0.000000 0.000000 0.000000
# 2 -0.002626 0.020712 -0.004811 0.000000 0.000000 0.000000
# 3 -0.004205 -0.004811 0.015665 0.000000 0.000000 0.000000
# 4 0.000000 0.000000 0.000000 0.044058 0.000000 0.000000
# 5 0.000000 0.000000 0.000000 0.000000 0.038366 0.000000
# 6 0.000000 0.000000 0.000000 0.000000 0.000000 0.042814
#
#
# Mechanical properties :
#
#
# Convention : Reuss Voigt Hill
#
# Bulk Modulus (GPa) = 45.08276 53.50144 49.29210
# Shear Modulus (GPa) = 24.82831 26.51783 25.67307
#
# Velocity S-wave (km/s) = 3.80447 3.93178 3.86865
# Velocity P-wave (km/s) = 6.75131 7.19731 6.97787
#
# Compressibility (1/GPa) = 0.02218143
#
# Stress axis : x y z
#
# Youngs Moduli (GPa) = 110.02543 48.28037 63.83647
#
# Poissons Ratio (x) = 0.12678 0.26845
# Poissons Ratio (y) = 0.28893 0.30712
# Poissons Ratio (z) = 0.46269 0.23228
#
# Static dielectric constant tensor:
#      x y z
#    x 3.685780 0.000000 0.000000 
#    y 0.000000 3.253970 0.000000 
#    z 0.000000 0.000000 2.956890 
# 
# 
# High freq. dielectric constant tensor:
#      x y z
#    x 1.677400 0.000000 0.000000 
#    y 0.000000 1.668850 0.000000 
#    z 0.000000 0.000000 1.620520 
# 
# From -- ./inp_files/24363.got.cif
#   From: 2010.03.12/outbox.cif.g09.slc.cpg/sg74_13_cif.got.tgz:24363.got - 2010.04.16 15:46:19.
