data_PCOD8298861
_publ_section_title
;
Structure prediction by ZEFSAII (Michael W. Deem and Ramdas Pophale) SiO2 
 PCOD8298861
Probable space group: I M M A
;
_chemical_formula_sum "Si O2"
_cell_formula_units_Z 104
_cell_length_a 26.329128
_cell_length_b 9.656474
_cell_length_c 22.190563
_cell_angle_alpha 90.000000
_cell_angle_beta 90.000000
_cell_angle_gamma 90.000000
_cell_volume 5641.873863
_symmetry_space_group_name_H-M "I M M A"
_symmetry_group_IT_number 74
_symmetry_cell_setting 'orthorhombic'
loop_
_space_group_symop_operation_xyz
x,y,z
-x,1/2-y,z
x,-y,-z
-x,1/2+y,-z
-x,-y,-z
x,1/2+y,-z
-x,y,z
x,1/2-y,z
1/2+x,1/2+y,1/2+z
1/2-x,-y,1/2+z
1/2+x,1/2-y,1/2-z
1/2-x,y,1/2-z
1/2-x,1/2-y,1/2-z
1/2+x,y,1/2-z
1/2-x,1/2+y,1/2+z
1/2+x,-y,1/2+z
loop_
_atom_site_type_symbol
_atom_site_label
_atom_site_fract_x
_atom_site_fract_y
_atom_site_fract_z
Si Si1 0.056481 0.906866 0.886264
Si Si2 0.408580 0.412331 0.849850
Si Si3 0.203584 0.086770 0.177007
Si Si4 0.500000 0.586561 0.061341
Si Si5 0.344160 0.091721 0.445586
Si Si6 0.819349 0.913854 0.691760
Si Si7 0.559184 0.901113 0.281778
O O1 0.055172 0.750000 0.862769
O O2 0.094435 0.920370 0.942886
O O3 0.000000 0.955764 0.906144
O O4 0.080719 0.992232 0.830787
O O5 0.395232 0.250000 0.854498
O O6 0.449224 0.453354 0.901266
O O7 0.357130 0.503419 0.853258
O O8 0.432837 0.452901 0.785948
O O9 0.198527 0.250000 0.180460
O O10 0.177353 0.029608 0.116792
O O11 0.175876 0.032718 0.238368
O O12 0.262494 0.045986 0.172555
O O13 0.500000 0.750000 0.047018
O O14 0.500000 0.500000 0.000000
O O15 0.326679 0.250000 0.455832
O O16 0.322892 0.000000 0.500000
O O17 0.829819 0.750000 0.685203
O O18 0.500000 0.889850 0.293614
O O19 0.584631 0.750000 0.291552
#
# Coordination Sequence:
#
# PCOD8298861 Si02
#       7
#    16  16  16   8  16  16  16
#     4   9  18  31  47  71 101 128 161 210 253 281
#     4  10  19  33  52  76 106 136 164 205 261 309
#     4   8  16  33  54  76 104 135 166 210 262 306
#     4  10  22  40  56  72 104 146 181 214 259 316
#     4  10  20  34  50  68  96 135 172 204 244 292
#     4   9  17  32  57  82 101 128 169 211 258 315
#     4   9  16  28  47  71  99 131 160 189 238 301
#
# _framework density 18.433592999999998
#
# number of rings (size 3 to 8) (size 9 to 14) (size 15 to 20)
#    0.000    2.769    0.769    1.846    0.000    3.385 
#    0.000    3.846    0.000    3.692    0.000    0.000 
#    0.000    0.000    0.000    0.000    0.000    0.000 
#
# Total GULP energy -644366.310032 kJ/mol
# GULP energy per Si atom -12391.659808 kJ/mol
# Density = 1.839164 g / cm^3
# Si number density = 18.433593 Si / 1000 Ang^3
#
#
#
# Elastic Constant Matrix: (Units=GPa)
#
#
# Indices 1 2 3 4 5 6 
#
# 1 87.5249 30.8255 46.0727 0.0000 0.0000 0.0000
# 2 30.8255 51.7455 38.5748 0.0000 0.0000 0.0000
# 3 46.0727 38.5748 96.9555 0.0000 0.0000 0.0000
# 4 0.0000 0.0000 0.0000 32.5202 0.0000 0.0000
# 5 0.0000 0.0000 0.0000 0.0000 21.9084 0.0000
# 6 0.0000 0.0000 0.0000 0.0000 0.0000 25.1690
#
#
#
# Elastic Compliance Matrix: (Units=1/GPa)
#
#
# Indices 1 2 3 4 5 6 
#
# 1 0.016302 -0.005596 -0.005520 0.000000 0.000000 0.000000
# 2 -0.005596 0.029395 -0.009036 0.000000 0.000000 0.000000
# 3 -0.005520 -0.009036 0.016532 0.000000 0.000000 0.000000
# 4 0.000000 0.000000 0.000000 0.030750 0.000000 0.000000
# 5 0.000000 0.000000 0.000000 0.000000 0.045645 0.000000
# 6 0.000000 0.000000 0.000000 0.000000 0.000000 0.039731
#
#
# Mechanical properties :
#
#
# Convention : Reuss Voigt Hill
#
# Bulk Modulus (GPa) = 45.61037 51.90801 48.75919
# Shear Modulus (GPa) = 22.12702 23.96972 23.04837
#
# Velocity S-wave (km/s) = 3.46839 3.60992 3.53986
# Velocity P-wave (km/s) = 6.39034 6.75248 6.57390
#
# Compressibility (1/GPa) = 0.02192484
#
# Stress axis : x y z
#
# Youngs Moduli (GPa) = 61.34207 34.01926 60.48827
#
# Poissons Ratio (x) = 0.19038 0.33390
# Poissons Ratio (y) = 0.34329 0.54656
# Poissons Ratio (z) = 0.33861 0.30739
#
# Static dielectric constant tensor:
#      x y z
#    x 3.587440 0.000000 0.000000 
#    y 0.000000 3.338280 0.000000 
#    z 0.000000 0.000000 3.539610 
# 
# 
# High freq. dielectric constant tensor:
#      x y z
#    x 1.715870 0.000000 0.000000 
#    y 0.000000 1.694970 0.000000 
#    z 0.000000 0.000000 1.695200 
# 
# From -- ./inp_files/62366.got.cif
#   From: 2010.03.12/outbox.cif.g09.slc.cpg/sg74_32_cif.got.tgz:62366.got - 2010.04.16 15:46:19.
