data_PCOD8298431
_publ_section_title
;
Structure prediction by ZEFSAII (Michael W. Deem and Ramdas Pophale) SiO2 
 PCOD8298431
Probable space group: I M M A
;
_chemical_formula_sum "Si O2"
_cell_formula_units_Z 104
_cell_length_a 22.320671
_cell_length_b 9.825045
_cell_length_c 27.409218
_cell_angle_alpha 90.000000
_cell_angle_beta 90.000000
_cell_angle_gamma 90.000000
_cell_volume 6010.885280
_symmetry_space_group_name_H-M "I M M A"
_symmetry_group_IT_number 74
_symmetry_cell_setting 'orthorhombic'
loop_
_space_group_symop_operation_xyz
x,y,z
-x,1/2-y,z
x,-y,-z
-x,1/2+y,-z
-x,-y,-z
x,1/2+y,-z
-x,y,z
x,1/2-y,z
1/2+x,1/2+y,1/2+z
1/2-x,-y,1/2+z
1/2+x,1/2-y,1/2-z
1/2-x,y,1/2-z
1/2-x,1/2-y,1/2-z
1/2+x,y,1/2-z
1/2-x,1/2+y,1/2+z
1/2+x,-y,1/2+z
loop_
_atom_site_type_symbol
_atom_site_label
_atom_site_fract_x
_atom_site_fract_y
_atom_site_fract_z
Si Si1 0.000000 0.411097 0.450133
Si Si2 0.177364 0.906690 0.310287
Si Si3 0.161700 0.098199 0.119709
Si Si4 0.620357 0.093253 0.107836
Si Si5 0.567265 0.599112 0.539197
Si Si6 0.816224 0.905358 0.199890
Si Si7 0.736222 0.906977 0.953502
O O1 0.000000 0.500000 0.500000
O O2 0.942612 0.449016 0.416739
O O3 0.000000 0.250000 0.463842
O O4 0.168359 0.750000 0.326582
O O5 0.157974 0.927658 0.254149
O O6 0.247127 0.946831 0.309306
O O7 0.136920 0.000680 0.345392
O O8 0.176351 0.250000 0.138496
O O9 0.101247 0.094640 0.089584
O O10 0.217675 0.044244 0.087999
O O11 0.146262 0.002525 0.165027
O O12 0.618860 0.250000 0.125603
O O13 0.669318 0.072215 0.065822
O O14 0.598446 0.500000 0.500000
O O15 0.500000 0.549652 0.550038
O O16 0.568913 0.750000 0.516652
O O17 0.825262 0.750000 0.184400
O O18 0.748963 0.750000 0.967802
O O19 0.746461 0.000000 0.000000
#
# Coordination Sequence:
#
# PCOD8298431 Si02
#       7
#     8  16  16  16  16  16  16
#     4  10  22  38  56  78 106 140 180 222 263 312
#     4   9  18  33  53  77 102 130 164 204 251 305
#     4  10  19  31  48  73 101 129 164 204 247 296
#     4  10  20  35  53  75 103 134 171 214 256 303
#     4   9  18  32  49  69  96 130 166 201 237 285
#     4   9  18  32  51  77 105 129 161 204 251 302
#     4  10  20  31  45  70 101 129 161 202 246 295
#
# _framework density 17.301943000000001
#
# number of rings (size 3 to 8) (size 9 to 14) (size 15 to 20)
#    0.000    2.462    1.538    1.846    0.000    3.077 
#    0.000    1.538    1.692    0.000    0.000    0.000 
#    0.000    0.000    0.000    0.000    0.000    0.000 
#
# Total GULP energy -644592.346845 kJ/mol
# GULP energy per Si atom -12396.006670 kJ/mol
# Density = 1.726256 g / cm^3
# Si number density = 17.301943 Si / 1000 Ang^3
#
#
#
# Elastic Constant Matrix: (Units=GPa)
#
#
# Indices 1 2 3 4 5 6 
#
# 1 63.3201 28.1068 27.1389 0.0000 0.0000 0.0000
# 2 28.1068 92.2569 73.4583 0.0000 0.0000 0.0000
# 3 27.1389 73.4583 102.3917 0.0000 0.0000 0.0000
# 4 0.0000 0.0000 0.0000 42.4977 0.0000 0.0000
# 5 0.0000 0.0000 0.0000 0.0000 22.9536 0.0000
# 6 0.0000 0.0000 0.0000 0.0000 0.0000 14.2235
#
#
#
# Elastic Compliance Matrix: (Units=1/GPa)
#
#
# Indices 1 2 3 4 5 6 
#
# 1 0.018436 -0.004025 -0.001999 0.000000 0.000000 0.000000
# 2 -0.004025 0.026159 -0.017701 0.000000 0.000000 0.000000
# 3 -0.001999 -0.017701 0.022995 0.000000 0.000000 0.000000
# 4 0.000000 0.000000 0.000000 0.023531 0.000000 0.000000
# 5 0.000000 0.000000 0.000000 0.000000 0.043566 0.000000
# 6 0.000000 0.000000 0.000000 0.000000 0.000000 0.070306
#
#
# Mechanical properties :
#
#
# Convention : Reuss Voigt Hill
#
# Bulk Modulus (GPa) = 49.64852 57.26408 53.45630
# Shear Modulus (GPa) = 19.29336 24.55261 21.92299
#
# Velocity S-wave (km/s) = 3.34293 3.77114 3.56347
# Velocity P-wave (km/s) = 6.60741 7.22016 6.92057
#
# Compressibility (1/GPa) = 0.02014159
#
# Stress axis : x y z
#
# Youngs Moduli (GPa) = 54.24119 38.22712 43.48787
#
# Poissons Ratio (x) = 0.15388 0.08692
# Poissons Ratio (y) = 0.21834 0.76976
# Poissons Ratio (z) = 0.10841 0.67664
#
# Static dielectric constant tensor:
#      x y z
#    x 3.139940 0.000000 0.000000 
#    y 0.000000 3.337740 0.000000 
#    z 0.000000 0.000000 3.128980 
# 
# 
# High freq. dielectric constant tensor:
#      x y z
#    x 1.654430 0.000000 0.000000 
#    y 0.000000 1.672210 0.000000 
#    z 0.000000 0.000000 1.661610 
# 
# From -- ./inp_files/62342.got.cif
#   From: 2010.03.12/outbox.cif.g09.slc.cpg/sg74_32_cif.got.tgz:62342.got - 2010.04.16 15:46:19.
