data_PCOD8298635
_publ_section_title
;
Structure prediction by ZEFSAII (Michael W. Deem and Ramdas Pophale) SiO2 
 PCOD8298635
Probable space group: I M M A
;
_chemical_formula_sum "Si O2"
_cell_formula_units_Z 72
_cell_length_a 8.835842
_cell_length_b 33.649080
_cell_length_c 14.265566
_cell_angle_alpha 90.000000
_cell_angle_beta 90.000000
_cell_angle_gamma 90.000000
_cell_volume 4241.408900
_symmetry_space_group_name_H-M "I M M A"
_symmetry_group_IT_number 74
_symmetry_cell_setting 'orthorhombic'
loop_
_space_group_symop_operation_xyz
x,y,z
-x,1/2-y,z
x,-y,-z
-x,1/2+y,-z
-x,-y,-z
x,1/2+y,-z
-x,y,z
x,1/2-y,z
1/2+x,1/2+y,1/2+z
1/2-x,-y,1/2+z
1/2+x,1/2-y,1/2-z
1/2-x,y,1/2-z
1/2-x,1/2-y,1/2-z
1/2+x,y,1/2-z
1/2-x,1/2+y,1/2+z
1/2+x,-y,1/2+z
loop_
_atom_site_type_symbol
_atom_site_label
_atom_site_fract_x
_atom_site_fract_y
_atom_site_fract_z
Si Si1 0.673598 0.250000 0.651885
Si Si2 0.334290 0.512052 0.106699
Si Si3 0.677552 0.935784 0.655806
Si Si4 0.178565 0.663750 0.147128
Si Si5 0.179262 0.406226 0.533897
O O1 0.500000 0.250000 0.676470
O O2 0.750000 0.250000 0.750000
O O3 0.713681 0.207872 0.602294
O O4 0.500000 0.507464 0.155631
O O5 0.213413 0.483231 0.155597
O O6 0.279224 0.557995 0.106656
O O7 0.353437 0.500000 0.000000
O O8 0.500000 0.928918 0.655539
O O9 0.750000 0.917224 0.750000
O O10 0.748812 0.913439 0.567599
O O11 0.250000 0.658932 0.250000
O O12 0.254470 0.633966 0.074859
O O13 0.000000 0.655352 0.154378
O O14 0.000000 0.403202 0.521268
#
# Coordination Sequence:
#
# PCOD8298635 Si02
#       5
#     8  16  16  16  16
#     4   8  16  30  48  70  97 126 157 192 232 284
#     4   8  16  31  47  63  88 120 154 195 239 279
#     4  11  21  33  50  70  94 127 166 205 245 288
#     4  10  19  32  50  73 100 130 161 195 238 286
#     4  10  20  34  50  71  99 128 162 204 244 285
#
# _framework density 16.975491000000002
#
# number of rings (size 3 to 8) (size 9 to 14) (size 15 to 20)
#    0.000    2.444    0.000    4.667    0.000    6.667 
#    0.000    0.000    0.000    0.000    0.000    0.778 
#    0.000    0.000    0.000    0.000    0.000    0.000 
#
# Total GULP energy -446026.287396 kJ/mol
# GULP energy per Si atom -12389.619094 kJ/mol
# Density = 1.693685 g / cm^3
# Si number density = 16.975491 Si / 1000 Ang^3
#
#
#
# Elastic Constant Matrix: (Units=GPa)
#
#
# Indices 1 2 3 4 5 6 
#
# 1 111.2376 57.3663 49.5174 0.0000 0.0000 0.0000
# 2 57.3663 136.3991 50.1920 0.0000 0.0000 0.0000
# 3 49.5174 50.1920 80.9198 0.0005 0.0001 0.0002
# 4 0.0000 0.0000 0.0005 21.4338 0.0001 0.0001
# 5 0.0000 0.0000 0.0001 0.0001 27.9781 0.0000
# 6 0.0000 0.0000 0.0002 0.0001 0.0000 20.6193
#
#
#
# Elastic Compliance Matrix: (Units=1/GPa)
#
#
# Indices 1 2 3 4 5 6 
#
# 1 0.013479 -0.003413 -0.006132 0.000000 0.000000 0.000000
# 2 -0.003413 0.010364 -0.004340 0.000000 0.000000 0.000000
# 3 -0.006132 -0.004340 0.018802 0.000000 0.000000 0.000000
# 4 0.000000 0.000000 0.000000 0.046655 0.000000 0.000000
# 5 0.000000 0.000000 0.000000 0.000000 0.035742 0.000000
# 6 0.000000 0.000000 0.000000 0.000000 0.000000 0.048498
#
#
# Mechanical properties :
#
#
# Convention : Reuss Voigt Hill
#
# Bulk Modulus (GPa) = 67.22041 71.41197 69.31619
# Shear Modulus (GPa) = 24.24034 25.43832 24.83933
#
# Velocity S-wave (km/s) = 3.78294 3.87529 3.82939
# Velocity P-wave (km/s) = 7.66585 7.88561 7.77651
#
# Compressibility (1/GPa) = 0.01487643
#
# Stress axis : x y z
#
# Youngs Moduli (GPa) = 74.18837 96.49011 53.18616
#
# Poissons Ratio (x) = 0.32930 0.32611
# Poissons Ratio (y) = 0.25319 0.23082
# Poissons Ratio (z) = 0.45489 0.41876
#
# Static dielectric constant tensor:
#      x y z
#    x 3.261060 0.000000 0.000000 
#    y 0.000000 3.492000 0.000000 
#    z 0.000000 0.000000 3.006010 
# 
# 
# High freq. dielectric constant tensor:
#      x y z
#    x 1.669290 0.000000 0.000000 
#    y 0.000000 1.646790 0.000000 
#    z 0.000000 0.000000 1.627350 
# 
# From -- ./inp_files/29375.got.cif
#   From: 2010.03.12/outbox.cif.g09.slc.cpg/sg74_15_cif.got.tgz:29375.got - 2010.04.16 15:46:19.
