data_PCOD8298869
_publ_section_title
;
Structure prediction by ZEFSAII (Michael W. Deem and Ramdas Pophale) SiO2 
 PCOD8298869
Probable space group: I M M A
;
_chemical_formula_sum "Si O2"
_cell_formula_units_Z 88
_cell_length_a 8.967917
_cell_length_b 30.470859
_cell_length_c 17.697813
_cell_angle_alpha 90.000000
_cell_angle_beta 90.000000
_cell_angle_gamma 90.000000
_cell_volume 4836.106760
_symmetry_space_group_name_H-M "I M M A"
_symmetry_group_IT_number 74
_symmetry_cell_setting 'orthorhombic'
loop_
_space_group_symop_operation_xyz
x,y,z
-x,1/2-y,z
x,-y,-z
-x,1/2+y,-z
-x,-y,-z
x,1/2+y,-z
-x,y,z
x,1/2-y,z
1/2+x,1/2+y,1/2+z
1/2-x,-y,1/2+z
1/2+x,1/2-y,1/2-z
1/2-x,y,1/2-z
1/2-x,1/2-y,1/2-z
1/2+x,y,1/2-z
1/2-x,1/2+y,1/2+z
1/2+x,-y,1/2+z
loop_
_atom_site_type_symbol
_atom_site_label
_atom_site_fract_x
_atom_site_fract_y
_atom_site_fract_z
Si Si1 0.168207 0.129462 0.549317
Si Si2 0.824089 0.750000 0.831135
Si Si3 0.825360 0.548462 0.985634
Si Si4 0.824202 0.584220 0.823039
Si Si5 0.823263 0.299875 0.670534
Si Si6 0.330298 0.166292 0.117201
O O1 0.257097 0.083566 0.544555
O O2 0.235716 0.164289 0.609628
O O3 0.174646 0.152110 0.468839
O O4 0.000000 0.117622 0.572391
O O5 0.750000 0.750000 0.750000
O O6 0.770072 0.708961 0.879047
O O7 0.000000 0.750000 0.822428
O O8 0.785036 0.557821 0.898692
O O9 0.000000 0.550098 0.000397
O O10 0.760088 0.500000 0.000000
O O11 0.750000 0.560193 0.750000
O O12 0.744550 0.631177 0.827591
O O13 0.000000 0.589551 0.811874
O O14 0.777560 0.250000 0.646271
O O15 0.750000 0.312305 0.750000
O O16 0.000000 0.302935 0.678478
O O17 0.500000 0.174846 0.144066
#
# Coordination Sequence:
#
# PCOD8298869 Si02
#       6
#    16   8  16  16  16  16
#     4   9  19  34  55  79 103 135 173 214 261 310
#     4  12  24  36  48  68  99 134 171 208 247 290
#     4   9  19  36  56  77 104 137 171 214 267 316
#     4  10  19  33  53  75 101 131 169 210 253 306
#     4   9  18  33  53  77 107 141 177 217 263 315
#     4  10  20  34  52  73  99 133 170 208 254 299
#
# _framework density 18.196456000000001
#
# number of rings (size 3 to 8) (size 9 to 14) (size 15 to 20)
#    0.000    2.364    0.000    2.455    1.273    2.545 
#    0.000    0.909    0.000    4.364    0.000    0.000 
#    0.000    0.000    0.000    0.000    0.000    0.000 
#
# Total GULP energy -545488.463795 kJ/mol
# GULP energy per Si atom -12397.465086 kJ/mol
# Density = 1.815504 g / cm^3
# Si number density = 18.196456 Si / 1000 Ang^3
#
#
#
# Elastic Constant Matrix: (Units=GPa)
#
#
# Indices 1 2 3 4 5 6 
#
# 1 84.2642 50.6925 36.4973 -0.0001 0.0000 0.0000
# 2 50.6925 141.5626 56.0764 -0.0001 0.0000 0.0000
# 3 36.4973 56.0764 91.1000 -0.0005 0.0000 0.0000
# 4 -0.0001 -0.0001 -0.0005 21.0483 0.0000 0.0000
# 5 0.0000 0.0000 0.0000 0.0000 29.4316 -0.0001
# 6 0.0000 0.0000 0.0000 0.0000 -0.0001 27.6329
#
#
#
# Elastic Compliance Matrix: (Units=1/GPa)
#
#
# Indices 1 2 3 4 5 6 
#
# 1 0.016077 -0.004239 -0.003831 0.000000 0.000000 0.000000
# 2 -0.004239 0.010460 -0.004740 0.000000 0.000000 0.000000
# 3 -0.003831 -0.004740 0.015430 0.000000 0.000000 0.000000
# 4 0.000000 0.000000 0.000000 0.047510 0.000000 0.000000
# 5 0.000000 0.000000 0.000000 0.000000 0.033977 0.000000
# 6 0.000000 0.000000 0.000000 0.000000 0.000000 0.036189
#
#
# Mechanical properties :
#
#
# Convention : Reuss Voigt Hill
#
# Bulk Modulus (GPa) = 61.18124 67.05103 64.11614
# Shear Modulus (GPa) = 26.21745 27.19993 26.70869
#
# Velocity S-wave (km/s) = 3.79991 3.87045 3.83534
# Velocity P-wave (km/s) = 7.27654 7.54336 7.41115
#
# Compressibility (1/GPa) = 0.01634488
#
# Stress axis : x y z
#
# Youngs Moduli (GPa) = 62.19926 95.60434 64.81019
#
# Poissons Ratio (x) = 0.40531 0.24832
# Poissons Ratio (y) = 0.26369 0.30720
# Poissons Ratio (z) = 0.23831 0.45317
#
# Static dielectric constant tensor:
#      x y z
#    x 3.433180 0.000000 0.000000 
#    y 0.000000 3.545600 0.000000 
#    z 0.000000 0.000000 3.337690 
# 
# 
# High freq. dielectric constant tensor:
#      x y z
#    x 1.706550 0.000000 0.000000 
#    y 0.000000 1.697970 0.000000 
#    z 0.000000 0.000000 1.703920 
# 
# From -- ./inp_files/40076.got.cif
#   From: 2010.03.12/outbox.cif.g09.slc.cpg/sg74_21_cif.got.tgz:40076.got - 2010.04.16 15:46:19.
