data_PCOD8298535
_publ_section_title
;
Structure prediction by ZEFSAII (Michael W. Deem and Ramdas Pophale) SiO2 
 PCOD8298535
Probable space group: I M M A
;
_chemical_formula_sum "Si O2"
_cell_formula_units_Z 80
_cell_length_a 8.989305
_cell_length_b 24.954801
_cell_length_c 19.969739
_cell_angle_alpha 90.000000
_cell_angle_beta 90.000000
_cell_angle_gamma 90.000000
_cell_volume 4479.738009
_symmetry_space_group_name_H-M "I M M A"
_symmetry_group_IT_number 74
_symmetry_cell_setting 'orthorhombic'
loop_
_space_group_symop_operation_xyz
x,y,z
-x,1/2-y,z
x,-y,-z
-x,1/2+y,-z
-x,-y,-z
x,1/2+y,-z
-x,y,z
x,1/2-y,z
1/2+x,1/2+y,1/2+z
1/2-x,-y,1/2+z
1/2+x,1/2-y,1/2-z
1/2-x,y,1/2-z
1/2-x,1/2-y,1/2-z
1/2+x,y,1/2-z
1/2-x,1/2+y,1/2+z
1/2+x,-y,1/2+z
loop_
_atom_site_type_symbol
_atom_site_label
_atom_site_fract_x
_atom_site_fract_y
_atom_site_fract_z
Si Si1 0.674821 0.392097 0.931806
Si Si2 0.825756 0.689192 0.317408
Si Si3 0.823678 0.113990 0.074084
Si Si4 0.327782 0.687139 0.818248
Si Si5 0.836324 0.996165 0.079267
O O1 0.500000 0.391837 0.946088
O O2 0.724540 0.346945 0.879479
O O3 0.720158 0.449935 0.900550
O O4 0.761000 0.379227 0.999623
O O5 0.775101 0.750000 0.332723
O O6 0.750000 0.667464 0.250000
O O7 0.000000 0.685171 0.306008
O O8 0.748681 0.158396 0.119715
O O9 0.000000 0.122594 0.071616
O O10 0.784276 0.055018 0.104375
O O11 0.500000 0.671181 0.814445
O O12 0.305566 0.750000 0.829561
O O13 0.250000 0.668119 0.750000
O O14 0.000000 0.982041 0.108466
O O15 0.847673 0.000000 0.000000
#
# Coordination Sequence:
#
# PCOD8298535 Si02
#       5
#    16  16  16  16  16
#     4  10  19  31  51  78 104 132 168 211 257 303
#     4   9  19  35  52  71  98 131 166 205 250 299
#     4  10  20  34  53  77 104 135 171 209 249 297
#     4  10  21  37  56  77 103 135 169 208 255 304
#     4   8  16  31  49  71 101 134 166 205 252 298
#
# _framework density 17.858187000000001
#
# number of rings (size 3 to 8) (size 9 to 14) (size 15 to 20)
#    0.000    2.600    0.000    3.000    0.000    8.000 
#    0.000    3.000    0.000    2.400    0.000    0.000 
#    0.000    0.000    0.000    0.000    0.000    0.000 
#
# Total GULP energy -495930.057092 kJ/mol
# GULP energy per Si atom -12398.251427 kJ/mol
# Density = 1.781754 g / cm^3
# Si number density = 17.858187 Si / 1000 Ang^3
#
#
#
# Elastic Constant Matrix: (Units=GPa)
#
#
# Indices 1 2 3 4 5 6 
#
# 1 98.9189 57.8498 60.5846 0.0000 0.0000 0.0000
# 2 57.8498 93.0172 65.3930 0.0000 0.0000 0.0000
# 3 60.5846 65.3930 100.2055 0.0001 0.0000 0.0000
# 4 0.0000 0.0000 0.0001 3.3993 0.0000 0.0000
# 5 0.0000 0.0000 0.0000 0.0000 30.2343 0.0000
# 6 0.0000 0.0000 0.0000 0.0000 0.0000 32.1136
#
#
#
# Elastic Compliance Matrix: (Units=1/GPa)
#
#
# Indices 1 2 3 4 5 6 
#
# 1 0.017977 -0.006539 -0.006601 0.000000 0.000000 0.000000
# 2 -0.006539 0.022243 -0.010562 0.000000 0.000000 0.000000
# 3 -0.006601 -0.010562 0.020863 0.000000 0.000000 0.000000
# 4 0.000000 0.000000 0.000000 0.294182 0.000000 0.000000
# 5 0.000000 0.000000 0.000000 0.000000 0.033075 0.000000
# 6 0.000000 0.000000 0.000000 0.000000 0.000000 0.031139
#
#
# Mechanical properties :
#
#
# Convention : Reuss Voigt Hill
#
# Bulk Modulus (GPa) = 73.11030 73.31070 73.21050
# Shear Modulus (GPa) = 10.60575 20.37038 15.48807
#
# Velocity S-wave (km/s) = 2.43962 3.38105 2.94816
# Velocity P-wave (km/s) = 6.99742 7.50884 7.25764
#
# Compressibility (1/GPa) = 0.01367796
#
# Stress axis : x y z
#
# Youngs Moduli (GPa) = 55.62762 44.95852 47.93158
#
# Poissons Ratio (x) = 0.29400 0.31641
# Poissons Ratio (y) = 0.36377 0.50624
# Poissons Ratio (z) = 0.36721 0.47484
#
# Static dielectric constant tensor:
#      x y z
#    x 3.380600 0.000000 0.000000 
#    y 0.000000 3.700770 0.000000 
#    z 0.000000 0.000000 3.095300 
# 
# 
# High freq. dielectric constant tensor:
#      x y z
#    x 1.700250 0.000000 0.000000 
#    y 0.000000 1.697920 0.000000 
#    z 0.000000 0.000000 1.668010 
# 
# From -- ./inp_files/39750.got.cif
#   From: 2010.03.12/outbox.cif.g09.slc.cpg/sg74_20_cif.got.tgz:39750.got - 2010.04.16 15:46:19.
