data_PCOD8298270
_publ_section_title
;
Structure prediction by ZEFSAII (Michael W. Deem and Ramdas Pophale) SiO2 
 PCOD8298270
Probable space group: I M M A
;
_chemical_formula_sum "Si O2"
_cell_formula_units_Z 96
_cell_length_a 18.955892
_cell_length_b 9.137404
_cell_length_c 31.987971
_cell_angle_alpha 90.000000
_cell_angle_beta 90.000000
_cell_angle_gamma 90.000000
_cell_volume 5540.561074
_symmetry_space_group_name_H-M "I M M A"
_symmetry_group_IT_number 74
_symmetry_cell_setting 'orthorhombic'
loop_
_space_group_symop_operation_xyz
x,y,z
-x,1/2-y,z
x,-y,-z
-x,1/2+y,-z
-x,-y,-z
x,1/2+y,-z
-x,y,z
x,1/2-y,z
1/2+x,1/2+y,1/2+z
1/2-x,-y,1/2+z
1/2+x,1/2-y,1/2-z
1/2-x,y,1/2-z
1/2-x,1/2-y,1/2-z
1/2+x,y,1/2-z
1/2-x,1/2+y,1/2+z
1/2+x,-y,1/2+z
loop_
_atom_site_type_symbol
_atom_site_label
_atom_site_fract_x
_atom_site_fract_y
_atom_site_fract_z
Si Si1 0.658365 0.579692 0.168875
Si Si2 0.081449 0.418338 0.258835
Si Si3 0.923179 0.076587 0.164547
Si Si4 0.218799 0.078347 0.125313
Si Si5 0.580955 0.080432 0.915372
Si Si6 0.296077 0.578153 0.958352
O O1 0.672471 0.750000 0.174502
O O2 0.629507 0.517102 0.211915
O O3 0.732243 0.504167 0.158261
O O4 0.602012 0.547183 0.132355
O O5 0.104489 0.250000 0.264042
O O6 0.094177 0.474776 0.211638
O O7 0.000000 0.438147 0.271327
O O8 0.928291 0.250000 0.165109
O O9 0.861718 0.024906 0.132920
O O10 0.000000 0.013414 0.150274
O O11 0.227532 0.250000 0.133836
O O12 0.240182 0.038976 0.077958
O O13 0.500000 0.035693 0.921628
O O14 0.594210 0.250000 0.926239
O O15 0.626749 0.982500 0.946722
O O16 0.302123 0.750000 0.966078
O O17 0.267904 0.500000 0.000000
#
# Coordination Sequence:
#
# PCOD8298270 Si02
#       6
#    16  16  16  16  16  16
#     4  10  19  30  45  67  98 133 164 194 230 271
#     4   9  17  29  46  68  94 126 163 200 235 269
#     4   8  15  30  52  74  93 117 154 198 238 275
#     4   9  18  33  52  72  92 118 156 196 233 277
#     4   9  18  32  48  66  91 125 162 196 228 262
#     4  10  20  33  50  71  93 119 150 186 231 280
#
# _framework density 17.326765000000002
#
# number of rings (size 3 to 8) (size 9 to 14) (size 15 to 20)
#    0.000    2.833    0.000    2.500    0.000    3.667 
#    0.000    4.167    0.000    2.000    0.000    0.000 
#    0.000    0.000    0.000    0.000    0.000    0.500 
#
# Total GULP energy -595145.579906 kJ/mol
# GULP energy per Si atom -12398.866248 kJ/mol
# Density = 1.728733 g / cm^3
# Si number density = 17.326765 Si / 1000 Ang^3
#
#
#
# Elastic Constant Matrix: (Units=GPa)
#
#
# Indices 1 2 3 4 5 6 
#
# 1 134.1493 47.2668 78.3447 0.0000 0.0000 0.0000
# 2 47.2668 55.0566 38.6459 0.0000 0.0000 0.0000
# 3 78.3447 38.6459 97.5391 0.0000 0.0000 0.0000
# 4 0.0000 0.0000 0.0000 25.3964 0.0000 0.0000
# 5 0.0000 0.0000 0.0000 0.0000 16.5313 0.0000
# 6 0.0000 0.0000 0.0000 0.0000 0.0000 13.0606
#
#
#
# Elastic Compliance Matrix: (Units=1/GPa)
#
#
# Indices 1 2 3 4 5 6 
#
# 1 0.015480 -0.006320 -0.009930 0.000000 0.000000 0.000000
# 2 -0.006320 0.027741 -0.005915 0.000000 0.000000 0.000000
# 3 -0.009930 -0.005915 0.020572 0.000000 0.000000 0.000000
# 4 0.000000 0.000000 0.000000 0.039376 0.000000 0.000000
# 5 0.000000 0.000000 0.000000 0.000000 0.060491 0.000000
# 6 0.000000 0.000000 0.000000 0.000000 0.000000 0.076566
#
#
# Mechanical properties :
#
#
# Convention : Reuss Voigt Hill
#
# Bulk Modulus (GPa) = 51.37909 68.36219 59.87064
# Shear Modulus (GPa) = 17.17954 19.16348 18.17151
#
# Velocity S-wave (km/s) = 3.15223 3.32927 3.24196
# Velocity P-wave (km/s) = 6.55486 7.37015 6.97442
#
# Compressibility (1/GPa) = 0.01946317
#
# Stress axis : x y z
#
# Youngs Moduli (GPa) = 64.59760 36.04814 48.61021
#
# Poissons Ratio (x) = 0.22782 0.48270
# Poissons Ratio (y) = 0.40825 0.28752
# Poissons Ratio (z) = 0.64146 0.21322
#
# Static dielectric constant tensor:
#      x y z
#    x 3.445460 0.000000 0.000000 
#    y 0.000000 3.073880 0.000000 
#    z 0.000000 0.000000 3.192610 
# 
# 
# High freq. dielectric constant tensor:
#      x y z
#    x 1.662920 0.000000 0.000000 
#    y 0.000000 1.655410 0.000000 
#    z 0.000000 0.000000 1.659930 
# 
# From -- ./inp_files/64357.got.cif
#   From: 2010.03.12/outbox.cif.g09.slc.cpg/sg74_33_cif.got.tgz:64357.got - 2010.04.16 15:46:19.
