data_PCOD8298753
_publ_section_title
;
Structure prediction by ZEFSAII (Michael W. Deem and Ramdas Pophale) SiO2 
 PCOD8298753
Probable space group: I M M A
;
_chemical_formula_sum "Si O2"
_cell_formula_units_Z 80
_cell_length_a 25.160257
_cell_length_b 9.002941
_cell_length_c 19.708098
_cell_angle_alpha 90.000000
_cell_angle_beta 90.000000
_cell_angle_gamma 90.000000
_cell_volume 4464.205623
_symmetry_space_group_name_H-M "I M M A"
_symmetry_group_IT_number 74
_symmetry_cell_setting 'orthorhombic'
loop_
_space_group_symop_operation_xyz
x,y,z
-x,1/2-y,z
x,-y,-z
-x,1/2+y,-z
-x,-y,-z
x,1/2+y,-z
-x,y,z
x,1/2-y,z
1/2+x,1/2+y,1/2+z
1/2-x,-y,1/2+z
1/2+x,1/2-y,1/2-z
1/2-x,y,1/2-z
1/2-x,1/2-y,1/2-z
1/2+x,y,1/2-z
1/2-x,1/2+y,1/2+z
1/2+x,-y,1/2+z
loop_
_atom_site_type_symbol
_atom_site_label
_atom_site_fract_x
_atom_site_fract_y
_atom_site_fract_z
Si Si1 0.748089 0.417733 0.669392
Si Si2 0.141859 0.424788 0.169249
Si Si3 0.440055 0.924316 0.931905
Si Si4 0.938065 0.423400 0.930139
Si Si5 0.352965 0.423146 0.173953
O O1 0.743573 0.250000 0.641973
O O2 0.750000 0.422984 0.750000
O O3 0.697813 0.510740 0.642060
O O4 0.802450 0.490785 0.642855
O O5 0.140399 0.250000 0.155427
O O6 0.093463 0.503065 0.131414
O O7 0.135078 0.464239 0.248332
O O8 0.500000 0.977874 0.916142
O O9 0.437576 0.750000 0.943472
O O10 0.404171 0.973387 0.868630
O O11 0.418143 0.000000 0.000000
O O12 0.924575 0.250000 0.934813
O O13 0.000000 0.451774 0.915990
O O14 0.920175 0.500000 0.000000
O O15 0.340301 0.250000 0.166740
#
# Coordination Sequence:
#
# PCOD8298753 Si02
#       5
#    16  16  16  16  16
#     4   9  17  30  49  73 102 133 165 205 253 301
#     4  10  19  32  53  78 103 132 167 207 250 299
#     4   9  18  33  51  71  98 132 167 204 248 296
#     4  10  21  37  55  75 102 135 169 206 250 300
#     4   9  18  32  51  75 102 132 168 209 252 300
#
# _framework density 17.920321999999999
#
# number of rings (size 3 to 8) (size 9 to 14) (size 15 to 20)
#    0.000    2.600    0.000    1.800    0.000    6.000 
#    0.000    3.000    0.000    4.800    0.000    0.000 
#    0.000    0.000    0.000    0.000    0.000    0.000 
#
# Total GULP energy -496061.700202 kJ/mol
# GULP energy per Si atom -12401.542505 kJ/mol
# Density = 1.787953 g / cm^3
# Si number density = 17.920322 Si / 1000 Ang^3
#
#
#
# Elastic Constant Matrix: (Units=GPa)
#
#
# Indices 1 2 3 4 5 6 
#
# 1 117.9134 61.9958 66.6219 0.0000 0.0000 0.0000
# 2 61.9958 98.6900 48.9878 0.0000 0.0000 0.0000
# 3 66.6219 48.9878 82.3702 0.0000 0.0000 0.0000
# 4 0.0000 0.0000 0.0000 28.2449 0.0000 0.0000
# 5 0.0000 0.0000 0.0000 0.0000 9.1513 0.0000
# 6 0.0000 0.0000 0.0000 0.0000 0.0000 34.8259
#
#
#
# Elastic Compliance Matrix: (Units=1/GPa)
#
#
# Indices 1 2 3 4 5 6 
#
# 1 0.017596 -0.005660 -0.010865 0.000000 0.000000 0.000000
# 2 -0.005660 0.016198 -0.005055 0.000000 0.000000 0.000000
# 3 -0.010865 -0.005055 0.023935 0.000000 0.000000 0.000000
# 4 0.000000 0.000000 0.000000 0.035405 0.000000 0.000000
# 5 0.000000 0.000000 0.000000 0.000000 0.109274 0.000000
# 6 0.000000 0.000000 0.000000 0.000000 0.000000 0.028714
#
#
# Mechanical properties :
#
#
# Convention : Reuss Voigt Hill
#
# Bulk Modulus (GPa) = 68.64940 72.68719 70.66829
# Shear Modulus (GPa) = 17.91225 22.53563 20.22394
#
# Velocity S-wave (km/s) = 3.16500 3.55004 3.36303
# Velocity P-wave (km/s) = 7.19358 7.57978 7.38920
#
# Compressibility (1/GPa) = 0.01456677
#
# Stress axis : x y z
#
# Youngs Moduli (GPa) = 56.83196 61.73743 41.77994
#
# Poissons Ratio (x) = 0.34943 0.45396
# Poissons Ratio (y) = 0.32167 0.21121
# Poissons Ratio (z) = 0.61751 0.31210
#
# Static dielectric constant tensor:
#      x y z
#    x 3.477640 0.000000 0.000000 
#    y 0.000000 3.400400 0.000000 
#    z 0.000000 0.000000 3.146230 
# 
# 
# High freq. dielectric constant tensor:
#      x y z
#    x 1.700860 0.000000 0.000000 
#    y 0.000000 1.702170 0.000000 
#    z 0.000000 0.000000 1.668840 
# 
# From -- ./inp_files/39700.got.cif
#   From: 2010.03.12/outbox.cif.g09.slc.cpg/sg74_20_cif.got.tgz:39700.got - 2010.04.16 15:46:19.
