data_PCOD8298188
_publ_section_title
;
Structure prediction by ZEFSAII (Michael W. Deem and Ramdas Pophale) SiO2 
 PCOD8298188
Probable space group: I M M A
;
_chemical_formula_sum "Si O2"
_cell_formula_units_Z 96
_cell_length_a 8.889296
_cell_length_b 28.416237
_cell_length_c 26.573927
_cell_angle_alpha 90.000000
_cell_angle_beta 90.000000
_cell_angle_gamma 90.000000
_cell_volume 6712.583046
_symmetry_space_group_name_H-M "I M M A"
_symmetry_group_IT_number 74
_symmetry_cell_setting 'orthorhombic'
loop_
_space_group_symop_operation_xyz
x,y,z
-x,1/2-y,z
x,-y,-z
-x,1/2+y,-z
-x,-y,-z
x,1/2+y,-z
-x,y,z
x,1/2-y,z
1/2+x,1/2+y,1/2+z
1/2-x,-y,1/2+z
1/2+x,1/2-y,1/2-z
1/2-x,y,1/2-z
1/2-x,1/2-y,1/2-z
1/2+x,y,1/2-z
1/2-x,1/2+y,1/2+z
1/2+x,-y,1/2+z
loop_
_atom_site_type_symbol
_atom_site_label
_atom_site_fract_x
_atom_site_fract_y
_atom_site_fract_z
Si Si1 0.828406 0.302406 0.360107
Si Si2 0.823804 0.394610 0.303048
Si Si3 0.676339 0.607145 0.990416
Si Si4 0.178391 0.556886 0.895861
Si Si5 0.334085 0.532488 0.451304
Si Si6 0.824658 0.196968 0.035193
O O1 0.805562 0.250000 0.337326
O O2 0.788950 0.340387 0.317431
O O3 0.718440 0.310501 0.406703
O O4 0.000000 0.309312 0.379126
O O5 0.750000 0.405837 0.250000
O O6 0.751444 0.429919 0.343107
O O7 0.000000 0.404638 0.300108
O O8 0.500000 0.605132 0.982779
O O9 0.754620 0.589350 0.939639
O O10 0.731708 0.660654 0.999615
O O11 0.720621 0.575710 0.039064
O O12 0.217918 0.501639 0.905748
O O13 0.000000 0.564819 0.895024
O O14 0.340275 0.500000 0.500000
O O15 0.500000 0.553442 0.440618
O O16 0.784088 0.250000 0.017960
O O17 0.000000 0.186595 0.029103
#
# Coordination Sequence:
#
# PCOD8298188 Si02
#       6
#    16  16  16  16  16  16
#     4   9  18  32  46  59  76 100 133 174 218 258
#     4  11  22  33  46  62  80 106 137 174 218 260
#     4  11  19  27  43  65  86 108 132 165 205 248
#     4  10  19  32  47  61  81 105 133 171 209 249
#     4   8  16  29  44  62  82 105 130 162 203 244
#     4  10  19  29  43  61  81 109 141 171 206 248
#
# _framework density 14.301500000000001
#
# number of rings (size 3 to 8) (size 9 to 14) (size 15 to 20)
#    0.000    2.167    1.667    4.000    0.000    5.667 
#    0.000    0.000    0.000    0.000    0.000    0.000 
#    0.000    0.000    0.000    0.000    0.000    0.833 
#
# Total GULP energy -595064.064526 kJ/mol
# GULP energy per Si atom -12397.168011 kJ/mol
# Density = 1.426895 g / cm^3
# Si number density = 14.301500 Si / 1000 Ang^3
#
#
#
# Elastic Constant Matrix: (Units=GPa)
#
#
# Indices 1 2 3 4 5 6 
#
# 1 91.2613 54.8800 34.7345 0.0000 0.0000 0.0000
# 2 54.8800 96.1206 53.6203 0.0000 0.0000 0.0000
# 3 34.7345 53.6203 56.7606 0.0000 0.0000 0.0000
# 4 0.0000 0.0000 0.0000 12.1902 0.0000 0.0000
# 5 0.0000 0.0000 0.0000 0.0000 18.6509 0.0000
# 6 0.0000 0.0000 0.0000 0.0000 0.0000 21.6466
#
#
#
# Elastic Compliance Matrix: (Units=1/GPa)
#
#
# Indices 1 2 3 4 5 6 
#
# 1 0.016865 -0.008185 -0.002588 0.000000 0.000000 0.000000
# 2 -0.008185 0.025967 -0.019521 0.000000 0.000000 0.000000
# 3 -0.002588 -0.019521 0.037643 0.000000 0.000000 0.000000
# 4 0.000000 0.000000 0.000000 0.082033 0.000000 0.000000
# 5 0.000000 0.000000 0.000000 0.000000 0.053617 0.000000
# 6 0.000000 0.000000 0.000000 0.000000 0.000000 0.046197
#
#
# Mechanical properties :
#
#
# Convention : Reuss Voigt Hill
#
# Bulk Modulus (GPa) = 50.28804 58.95690 54.62247
# Shear Modulus (GPa) = 15.17279 17.22474 16.19876
#
# Velocity S-wave (km/s) = 3.26071 3.47421 3.36916
# Velocity P-wave (km/s) = 7.02961 7.57676 7.30831
#
# Compressibility (1/GPa) = 0.01988544
#
# Stress axis : x y z
#
# Youngs Moduli (GPa) = 59.29537 38.51082 26.56564
#
# Poissons Ratio (x) = 0.31522 0.06875
# Poissons Ratio (y) = 0.48535 0.51859
# Poissons Ratio (z) = 0.15345 0.75178
#
# Static dielectric constant tensor:
#      x y z
#    x 2.895700 0.000000 0.000000 
#    y 0.000000 3.116160 0.000000 
#    z 0.000000 0.000000 2.508070 
# 
# 
# High freq. dielectric constant tensor:
#      x y z
#    x 1.561770 0.000000 0.000000 
#    y 0.000000 1.545430 0.000000 
#    z 0.000000 0.000000 1.488690 
# 
# From -- ./inp_files/64903.got.cif
#   From: 2010.03.12/outbox.cif.g09.slc.cpg/sg74_33_cif.got.tgz:64903.got - 2010.04.16 15:46:19.
