data_PCOD8298161
_publ_section_title
;
Structure prediction by ZEFSAII (Michael W. Deem and Ramdas Pophale) SiO2 
 PCOD8298161
Probable space group: I M M A
;
_chemical_formula_sum "Si O2"
_cell_formula_units_Z 112
_cell_length_a 31.651570
_cell_length_b 9.661337
_cell_length_c 28.726593
_cell_angle_alpha 90.000000
_cell_angle_beta 90.000000
_cell_angle_gamma 90.000000
_cell_volume 8784.491147
_symmetry_space_group_name_H-M "I M M A"
_symmetry_group_IT_number 74
_symmetry_cell_setting 'orthorhombic'
loop_
_space_group_symop_operation_xyz
x,y,z
-x,1/2-y,z
x,-y,-z
-x,1/2+y,-z
-x,-y,-z
x,1/2+y,-z
-x,y,z
x,1/2-y,z
1/2+x,1/2+y,1/2+z
1/2-x,-y,1/2+z
1/2+x,1/2-y,1/2-z
1/2-x,y,1/2-z
1/2-x,1/2-y,1/2-z
1/2+x,y,1/2-z
1/2-x,1/2+y,1/2+z
1/2+x,-y,1/2+z
loop_
_atom_site_type_symbol
_atom_site_label
_atom_site_fract_x
_atom_site_fract_y
_atom_site_fract_z
Si Si1 0.769519 0.094898 0.177302
Si Si2 0.548521 0.250000 0.568078
Si Si3 0.582978 0.975371 0.603930
Si Si4 0.118114 0.906125 0.239596
Si Si5 0.163421 0.406856 0.859577
Si Si6 0.048503 0.094226 0.202308
Si Si7 0.550948 0.750000 0.536236
Si Si8 0.814610 0.094792 0.276242
O O1 0.772099 0.250000 0.156070
O O2 0.793662 0.093376 0.225876
O O3 0.720607 0.052171 0.185443
O O4 0.791436 0.984900 0.142683
O O5 0.500000 0.250000 0.557289
O O6 0.560425 0.378292 0.599780
O O7 0.568652 0.250000 0.516465
O O8 0.566318 0.901337 0.650046
O O9 0.571020 0.885211 0.559411
O O10 0.633368 0.004361 0.606064
O O11 0.109379 0.750000 0.257251
O O12 0.141473 0.902348 0.190456
O O13 0.074070 0.987964 0.234756
O O14 0.147033 0.985378 0.277675
O O15 0.170340 0.250000 0.878021
O O16 0.053243 0.250000 0.222201
O O17 0.000000 0.046150 0.202135
O O18 0.500000 0.750000 0.541291
O O19 0.831556 0.250000 0.286567
#
# Coordination Sequence:
#
# PCOD8298161 Si02
#       8
#    16   8  16  16  16  16   8  16
#     4   8  14  22  37  53  67  87 109 127 145 178
#     4  11  22  34  46  56  70  83 100 134 172 211
#     4  11  20  32  44  57  69  85 104 132 169 209
#     4   9  17  25  35  51  69  88 109 132 159 189
#     4   9  17  27  36  52  70  86 103 124 157 193
#     4  10  19  29  40  52  66  87 113 139 168 203
#     4  11  22  34  46  58  66  81 108 134 166 211
#     4   8  13  23  35  50  69  89 108 127 151 178
#
# _framework density 12.749743
#
# number of rings (size 3 to 8) (size 9 to 14) (size 15 to 20)
#    0.000    2.571    1.429    3.000    2.000    3.714 
#    0.000    2.857    0.000    0.000    0.000    0.000 
#    0.000    0.000    0.000    0.000    0.000    0.000 
#
# Total GULP energy -694111.607591 kJ/mol
# GULP energy per Si atom -12394.850136 kJ/mol
# Density = 1.272072 g / cm^3
# Si number density = 12.749743 Si / 1000 Ang^3
#
#
#
# Elastic Constant Matrix: (Units=GPa)
#
#
# Indices 1 2 3 4 5 6 
#
# 1 66.2872 37.9073 21.0281 0.0000 0.0000 0.0000
# 2 37.9073 84.3606 12.5694 0.0000 0.0000 0.0000
# 3 21.0281 12.5694 14.0347 0.0000 0.0000 0.0000
# 4 0.0000 0.0000 0.0000 10.6551 0.0000 0.0000
# 5 0.0000 0.0000 0.0000 0.0000 13.5722 0.0000
# 6 0.0000 0.0000 0.0000 0.0000 0.0000 24.3635
#
#
#
# Elastic Compliance Matrix: (Units=1/GPa)
#
#
# Indices 1 2 3 4 5 6 
#
# 1 0.033553 -0.008755 -0.042431 0.000000 0.000000 0.000000
# 2 -0.008755 0.015964 -0.001180 0.000000 0.000000 0.000000
# 3 -0.042431 -0.001180 0.135884 0.000000 0.000000 0.000000
# 4 0.000000 0.000000 0.000000 0.093852 0.000000 0.000000
# 5 0.000000 0.000000 0.000000 0.000000 0.073680 0.000000
# 6 0.000000 0.000000 0.000000 0.000000 0.000000 0.041045
#
#
# Mechanical properties :
#
#
# Convention : Reuss Voigt Hill
#
# Bulk Modulus (GPa) = 12.39644 34.18801 23.29222
# Shear Modulus (GPa) = 9.51297 15.93000 12.72148
#
# Velocity S-wave (km/s) = 2.73450 3.53857 3.16220
# Velocity P-wave (km/s) = 4.44005 6.60062 5.62504
#
# Compressibility (1/GPa) = 0.08066834
#
# Stress axis : x y z
#
# Youngs Moduli (GPa) = 29.80376 62.64261 7.35924
#
# Poissons Ratio (x) = 0.54842 0.31226
# Poissons Ratio (y) = 0.26093 0.00868
# Poissons Ratio (z) = 1.26462 0.07390
#
# Static dielectric constant tensor:
#      x y z
#    x 2.672190 0.000000 0.000000 
#    y 0.000000 2.825280 0.000000 
#    z 0.000000 0.000000 2.180440 
# 
# 
# High freq. dielectric constant tensor:
#      x y z
#    x 1.474010 0.000000 0.000000 
#    y 0.000000 1.504230 0.000000 
#    z 0.000000 0.000000 1.410580 
# 
# From -- ./inp_files/74046.got.cif
#   From: 2010.03.12/outbox.cif.g09.slc.cpg/sg74_38_cif.got.tgz:74046.got - 2010.04.16 15:46:19.
