data_PCOD8298039
_publ_section_title
;
Structure prediction by ZEFSAII (Michael W. Deem and Ramdas Pophale) SiO2 
 PCOD8298039
Probable space group: I M M A
;
_chemical_formula_sum "Si O2"
_cell_formula_units_Z 64
_cell_length_a 8.800854
_cell_length_b 15.199243
_cell_length_c 26.901845
_cell_angle_alpha 90.000000
_cell_angle_beta 90.000000
_cell_angle_gamma 90.000000
_cell_volume 3598.560768
_symmetry_space_group_name_H-M "I M M A"
_symmetry_group_IT_number 74
_symmetry_cell_setting 'orthorhombic'
loop_
_space_group_symop_operation_xyz
x,y,z
-x,1/2-y,z
x,-y,-z
-x,1/2+y,-z
-x,-y,-z
x,1/2+y,-z
-x,y,z
x,1/2-y,z
1/2+x,1/2+y,1/2+z
1/2-x,-y,1/2+z
1/2+x,1/2-y,1/2-z
1/2-x,y,1/2-z
1/2-x,1/2-y,1/2-z
1/2+x,y,1/2-z
1/2-x,1/2+y,1/2+z
1/2+x,-y,1/2+z
loop_
_atom_site_type_symbol
_atom_site_label
_atom_site_fract_x
_atom_site_fract_y
_atom_site_fract_z
Si Si1 0.180739 0.250000 0.071492
Si Si2 0.828218 0.078815 0.128810
Si Si3 0.672156 0.391014 0.604405
Si Si4 0.820873 0.454175 0.696845
Si Si5 0.820663 0.750000 0.463595
O O1 0.237321 0.335429 0.101725
O O2 0.000000 0.250000 0.063431
O O3 0.261559 0.250000 0.019158
O O4 0.727249 0.052091 0.177046
O O5 0.000000 0.096774 0.147281
O O6 0.825995 0.995448 0.090429
O O7 0.500000 0.355189 0.607777
O O8 0.753392 0.381164 0.658474
O O9 0.762679 0.337648 0.563219
O O10 0.750000 0.435254 0.750000
O O11 0.000000 0.445891 0.699879
O O12 0.000000 0.750000 0.463456
#
# Coordination Sequence:
#
# PCOD8298039 Si02
#       5
#     8  16  16  16   8
#     4  10  20  38  59  80 109 146 183 224 271 322
#     4   8  18  35  57  81 108 141 182 224 268 321
#     4   9  19  37  57  79 108 143 183 224 268 320
#     4  10  18  33  57  82 111 143 178 221 271 322
#     4  12  24  36  53  82 113 144 182 224 271 322
#
# _framework density 17.784887999999999
#
# number of rings (size 3 to 8) (size 9 to 14) (size 15 to 20)
#    1.500    1.000    0.000    3.375    0.000    2.000 
#    0.000    6.250    0.000    0.000    0.000    0.000 
#    0.000    0.000    0.000    0.000    0.000    0.000 
#
# Total GULP energy -396457.136270 kJ/mol
# GULP energy per Si atom -12389.285508 kJ/mol
# Density = 1.774441 g / cm^3
# Si number density = 17.784888 Si / 1000 Ang^3
#
#
#
# Elastic Constant Matrix: (Units=GPa)
#
#
# Indices 1 2 3 4 5 6 
#
# 1 100.6752 -2.9882 17.3780 0.0000 0.0000 0.0000
# 2 -2.9882 44.4390 -14.5552 0.0000 0.0000 0.0000
# 3 17.3780 -14.5552 36.2511 0.0000 0.0000 0.0000
# 4 0.0000 0.0000 0.0000 29.3581 0.0000 0.0000
# 5 0.0000 0.0000 0.0000 0.0000 33.9642 0.0000
# 6 0.0000 0.0000 0.0000 0.0000 0.0000 22.7295
#
#
#
# Elastic Compliance Matrix: (Units=1/GPa)
#
#
# Indices 1 2 3 4 5 6 
#
# 1 0.010878 -0.001124 -0.005666 0.000000 0.000000 0.000000
# 2 -0.001124 0.026026 0.010989 0.000000 0.000000 0.000000
# 3 -0.005666 0.010989 0.034714 0.000000 0.000000 0.000000
# 4 0.000000 0.000000 0.000000 0.034062 0.000000 0.000000
# 5 0.000000 0.000000 0.000000 0.000000 0.029443 0.000000
# 6 0.000000 0.000000 0.000000 0.000000 0.000000 0.043996
#
#
# Mechanical properties :
#
#
# Convention : Reuss Voigt Hill
#
# Bulk Modulus (GPa) = 12.49770 20.11493 16.30632
# Shear Modulus (GPa) = 25.33025 29.31240 27.32133
#
# Velocity S-wave (km/s) = 3.77803 4.06416 3.92370
# Velocity P-wave (km/s) = 5.10624 5.77563 5.45122
#
# Compressibility (1/GPa) = 0.08001471
#
# Stress axis : x y z
#
# Youngs Moduli (GPa) = 91.93228 38.42260 28.80717
#
# Poissons Ratio (x) = 0.04320 0.16322
# Poissons Ratio (y) = 0.10336 -0.31656
# Poissons Ratio (z) = 0.52088 -0.42222
#
# Static dielectric constant tensor:
#      x y z
#    x 3.277160 0.000000 0.000000 
#    y 0.000000 3.284540 0.000000 
#    z 0.000000 0.000000 3.110790 
# 
# 
# High freq. dielectric constant tensor:
#      x y z
#    x 1.694760 0.000000 0.000000 
#    y 0.000000 1.674410 0.000000 
#    z 0.000000 0.000000 1.671030 
# 
# From -- ./inp_files/69925.got.cif
#   From: 2010.03.12/outbox.cif.g09.slc.cpg/sg74_35_cif.got.tgz:69925.got - 2010.04.16 15:46:19.
