data_PCOD8298843
_publ_section_title
;
Structure prediction by ZEFSAII (Michael W. Deem and Ramdas Pophale) SiO2 
 PCOD8298843
Probable space group: I M M A
;
_chemical_formula_sum "Si O2"
_cell_formula_units_Z 80
_cell_length_a 18.647156
_cell_length_b 7.844704
_cell_length_c 30.883788
_cell_angle_alpha 90.000000
_cell_angle_beta 90.000000
_cell_angle_gamma 90.000000
_cell_volume 4517.724341
_symmetry_space_group_name_H-M "I M M A"
_symmetry_group_IT_number 74
_symmetry_cell_setting 'orthorhombic'
loop_
_space_group_symop_operation_xyz
x,y,z
-x,1/2-y,z
x,-y,-z
-x,1/2+y,-z
-x,-y,-z
x,1/2+y,-z
-x,y,z
x,1/2-y,z
1/2+x,1/2+y,1/2+z
1/2-x,-y,1/2+z
1/2+x,1/2-y,1/2-z
1/2-x,y,1/2-z
1/2-x,1/2-y,1/2-z
1/2+x,y,1/2-z
1/2-x,1/2+y,1/2+z
1/2+x,-y,1/2+z
loop_
_atom_site_type_symbol
_atom_site_label
_atom_site_fract_x
_atom_site_fract_y
_atom_site_fract_z
Si Si1 0.422883 0.449076 0.049256
Si Si2 0.271328 0.558507 0.049465
Si Si3 0.919389 0.442771 0.188717
Si Si4 0.215927 0.940472 0.866642
Si Si5 0.725243 0.750000 0.181506
Si Si6 0.635267 0.250000 0.739395
O O1 0.500000 0.495500 0.072066
O O2 0.406926 0.250000 0.053413
O O3 0.353227 0.544822 0.067951
O O4 0.430761 0.500000 0.000000
O O5 0.244620 0.750000 0.052438
O O6 0.219310 0.450656 0.081004
O O7 0.265422 0.500000 0.000000
O O8 0.907591 0.250000 0.206755
O O9 0.865020 0.480646 0.149129
O O10 0.907907 0.577843 0.227486
O O11 0.000000 0.463931 0.170529
O O12 0.238482 0.750000 0.851674
O O13 0.271500 0.078789 0.847397
O O14 0.651479 0.750000 0.209116
O O15 0.790853 0.750000 0.214088
#
# Coordination Sequence:
#
# PCOD8298843 Si02
#       6
#    16  16  16  16   8   8
#     4   9  16  26  41  62  86 114 153 200 250 300
#     4  11  20  31  48  71 100 134 179 224 266 315
#     4   9  18  32  53  80 106 137 176 215 259 311
#     4  10  19  33  51  74 107 139 174 220 264 309
#     4   9  18  32  48  76 104 132 166 204 260 319
#     4   9  17  30  52  76 105 131 164 210 255 313
#
# _framework density 17.708030999999998
#
# number of rings (size 3 to 8) (size 9 to 14) (size 15 to 20)
#    0.000    2.400    1.000    3.900    0.000    2.000 
#    0.000    4.000    0.000    3.000    0.000    2.800 
#    0.000    0.000    0.000    0.000    0.000    0.000 
#
# Total GULP energy -495565.993435 kJ/mol
# GULP energy per Si atom -12389.149836 kJ/mol
# Density = 1.766773 g / cm^3
# Si number density = 17.708031 Si / 1000 Ang^3
#
#
#
# Elastic Constant Matrix: (Units=GPa)
#
#
# Indices 1 2 3 4 5 6 
#
# 1 83.1413 40.6809 48.1531 0.0000 0.0000 0.0000
# 2 40.6809 120.0436 41.5316 0.0000 0.0000 0.0000
# 3 48.1531 41.5316 83.5951 0.0000 0.0000 0.0000
# 4 0.0000 0.0000 0.0000 20.8917 0.0000 0.0000
# 5 0.0000 0.0000 0.0000 0.0000 20.8001 0.0000
# 6 0.0000 0.0000 0.0000 0.0000 0.0000 23.6754
#
#
#
# Elastic Compliance Matrix: (Units=1/GPa)
#
#
# Indices 1 2 3 4 5 6 
#
# 1 0.019019 -0.003206 -0.009363 0.000000 0.000000 0.000000
# 2 -0.003206 0.010600 -0.003419 0.000000 0.000000 0.000000
# 3 -0.009363 -0.003419 0.019054 0.000000 0.000000 0.000000
# 4 0.000000 0.000000 0.000000 0.047866 0.000000 0.000000
# 5 0.000000 0.000000 0.000000 0.000000 0.048077 0.000000
# 6 0.000000 0.000000 0.000000 0.000000 0.000000 0.042238
#
#
# Mechanical properties :
#
#
# Convention : Reuss Voigt Hill
#
# Bulk Modulus (GPa) = 59.89098 60.83455 60.36277
# Shear Modulus (GPa) = 22.28207 23.50106 22.89157
#
# Velocity S-wave (km/s) = 3.55111 3.64695 3.59935
# Velocity P-wave (km/s) = 7.12100 7.22236 7.17186
#
# Compressibility (1/GPa) = 0.01669700
#
# Stress axis : x y z
#
# Youngs Moduli (GPa) = 52.57895 94.34140 52.48135
#
# Poissons Ratio (x) = 0.30246 0.49136
# Poissons Ratio (y) = 0.16857 0.17946
# Poissons Ratio (z) = 0.49228 0.32259
#
# Static dielectric constant tensor:
#      x y z
#    x 3.486400 0.000000 0.000000 
#    y 0.000000 3.608470 0.000000 
#    z 0.000000 0.000000 3.126170 
# 
# 
# High freq. dielectric constant tensor:
#      x y z
#    x 1.668710 0.000000 0.000000 
#    y 0.000000 1.706210 0.000000 
#    z 0.000000 0.000000 1.644450 
# 
# From -- ./inp_files/72867.got.cif
#   From: 2010.03.12/outbox.cif.g09.slc.cpg/sg74_37_cif.got.tgz:72867.got - 2010.04.16 15:46:19.
