data_PCOD8298951
_publ_section_title
;
Structure prediction by ZEFSAII (Michael W. Deem and Ramdas Pophale) SiO2 
 PCOD8298951
Probable space group: I M M A
;
_chemical_formula_sum "Si O2"
_cell_formula_units_Z 120
_cell_length_a 26.884565
_cell_length_b 9.158284
_cell_length_c 27.697566
_cell_angle_alpha 90.000000
_cell_angle_beta 90.000000
_cell_angle_gamma 90.000000
_cell_volume 6819.597246
_symmetry_space_group_name_H-M "I M M A"
_symmetry_group_IT_number 74
_symmetry_cell_setting 'orthorhombic'
loop_
_space_group_symop_operation_xyz
x,y,z
-x,1/2-y,z
x,-y,-z
-x,1/2+y,-z
-x,-y,-z
x,1/2+y,-z
-x,y,z
x,1/2-y,z
1/2+x,1/2+y,1/2+z
1/2-x,-y,1/2+z
1/2+x,1/2-y,1/2-z
1/2-x,y,1/2-z
1/2-x,1/2-y,1/2-z
1/2+x,y,1/2-z
1/2-x,1/2+y,1/2+z
1/2+x,-y,1/2+z
loop_
_atom_site_type_symbol
_atom_site_label
_atom_site_fract_x
_atom_site_fract_y
_atom_site_fract_z
Si Si1 0.860835 0.420246 0.196235
Si Si2 0.383617 0.581085 0.452701
Si Si3 0.000000 0.417496 0.450861
Si Si4 0.557430 0.581851 0.357455
Si Si5 0.391811 0.578836 0.948754
Si Si6 0.307472 0.080825 0.124711
Si Si7 0.697101 0.084137 0.399289
Si Si8 0.198261 0.422813 0.725547
O O1 0.864337 0.250000 0.208230
O O2 0.914646 0.478002 0.180121
O O3 0.820171 0.454711 0.154997
O O4 0.846231 0.506418 0.244201
O O5 0.403485 0.500000 0.500000
O O6 0.377483 0.750000 0.464441
O O7 0.423891 0.549803 0.411432
O O8 0.329550 0.520829 0.437435
O O9 0.000000 0.500000 0.500000
O O10 0.052987 0.454666 0.425093
O O11 0.000000 0.250000 0.464898
O O12 0.500000 0.541287 0.354762
O O13 0.567715 0.750000 0.343783
O O14 0.384394 0.750000 0.958290
O O15 0.351334 0.523686 0.910158
O O16 0.384303 0.500000 0.000000
O O17 0.315001 0.250000 0.139685
O O18 0.255901 0.060487 0.096024
O O19 0.306123 0.981423 0.171661
O O20 0.681719 0.250000 0.411394
O O21 0.192190 0.250000 0.725080
O O22 0.250000 0.471145 0.750000
#
# Coordination Sequence:
#
# PCOD8298951 Si02
#       8
#    16  16   8  16  16  16  16  16
#     4  10  19  33  55  78 102 133 172 216 262 315
#     4  10  20  33  50  72 101 137 176 216 264 315
#     4   8  14  28  50  74  96 126 166 204 244 290
#     4   9  19  36  56  77 103 136 175 222 272 320
#     4   9  18  32  52  76 104 136 171 210 252 301
#     4  10  20  34  52  77 107 138 173 214 262 310
#     4   9  18  32  49  70  98 132 169 209 258 315
#     4  11  22  34  53  80 107 137 176 216 259 312
#
# _framework density 17.596347000000002
#
# number of rings (size 3 to 8) (size 9 to 14) (size 15 to 20)
#    0.000    2.400    1.333    1.200    0.000    3.733 
#    0.000    1.333    1.467    0.000    0.000    0.000 
#    0.000    0.000    0.000    0.000    0.000    0.000 
#
# Total GULP energy -743912.882921 kJ/mol
# GULP energy per Si atom -12398.548049 kJ/mol
# Density = 1.755630 g / cm^3
# Si number density = 17.596347 Si / 1000 Ang^3
#
#
#
# Elastic Constant Matrix: (Units=GPa)
#
#
# Indices 1 2 3 4 5 6 
#
# 1 131.2384 42.7022 47.8573 0.0000 0.0000 0.0000
# 2 42.7022 73.6552 45.3674 0.0000 0.0000 0.0000
# 3 47.8573 45.3674 80.3408 0.0000 0.0000 0.0000
# 4 0.0000 0.0000 0.0000 32.4451 0.0000 0.0000
# 5 0.0000 0.0000 0.0000 0.0000 20.6189 0.0000
# 6 0.0000 0.0000 0.0000 0.0000 0.0000 24.5063
#
#
#
# Elastic Compliance Matrix: (Units=1/GPa)
#
#
# Indices 1 2 3 4 5 6 
#
# 1 0.010244 -0.003343 -0.004214 0.000000 0.000000 0.000000
# 2 -0.003343 0.021909 -0.010380 0.000000 0.000000 0.000000
# 3 -0.004214 -0.010380 0.020819 0.000000 0.000000 0.000000
# 4 0.000000 0.000000 0.000000 0.030821 0.000000 0.000000
# 5 0.000000 0.000000 0.000000 0.000000 0.048499 0.000000
# 6 0.000000 0.000000 0.000000 0.000000 0.000000 0.040806
#
#
# Mechanical properties :
#
#
# Convention : Reuss Voigt Hill
#
# Bulk Modulus (GPa) = 58.49198 61.89870 60.19534
# Shear Modulus (GPa) = 23.29135 25.46792 24.37963
#
# Velocity S-wave (km/s) = 3.64214 3.80852 3.72626
# Velocity P-wave (km/s) = 7.14143 7.38872 7.26613
#
# Compressibility (1/GPa) = 0.01709636
#
# Stress axis : x y z
#
# Youngs Moduli (GPa) = 97.61407 45.64427 48.03367
#
# Poissons Ratio (x) = 0.15261 0.20243
# Poissons Ratio (y) = 0.32637 0.49858
# Poissons Ratio (z) = 0.41138 0.47378
#
# Static dielectric constant tensor:
#      x y z
#    x 3.531190 0.000000 0.000000 
#    y 0.000000 2.169870 0.000000 
#    z 0.000000 0.000000 3.039120 
# 
# 
# High freq. dielectric constant tensor:
#      x y z
#    x 1.682200 0.000000 0.000000 
#    y 0.000000 1.685320 0.000000 
#    z 0.000000 0.000000 1.659500 
# 
# From -- ./inp_files/69001.got.cif
#   From: 2010.03.12/outbox.cif.g09.slc.cpg/sg74_35_cif.got.tgz:69001.got - 2010.04.16 15:46:19.
