data_PCOD8298904
_publ_section_title
;
Structure prediction by ZEFSAII (Michael W. Deem and Ramdas Pophale) SiO2 
 PCOD8298904
Probable space group: I M M A
;
_chemical_formula_sum "Si O2"
_cell_formula_units_Z 96
_cell_length_a 8.845402
_cell_length_b 20.630076
_cell_length_c 30.603237
_cell_angle_alpha 90.000000
_cell_angle_beta 90.000000
_cell_angle_gamma 90.000000
_cell_volume 5584.518947
_symmetry_space_group_name_H-M "I M M A"
_symmetry_group_IT_number 74
_symmetry_cell_setting 'orthorhombic'
loop_
_space_group_symop_operation_xyz
x,y,z
-x,1/2-y,z
x,-y,-z
-x,1/2+y,-z
-x,-y,-z
x,1/2+y,-z
-x,y,z
x,1/2-y,z
1/2+x,1/2+y,1/2+z
1/2-x,-y,1/2+z
1/2+x,1/2-y,1/2-z
1/2-x,y,1/2-z
1/2-x,1/2-y,1/2-z
1/2+x,y,1/2-z
1/2-x,1/2+y,1/2+z
1/2+x,-y,1/2+z
loop_
_atom_site_type_symbol
_atom_site_label
_atom_site_fract_x
_atom_site_fract_y
_atom_site_fract_z
Si Si1 0.673857 0.005321 0.117739
Si Si2 0.670388 0.651502 0.903122
Si Si3 0.322890 0.681017 0.682093
Si Si4 0.826034 0.177682 0.501187
Si Si5 0.322306 0.947777 0.463940
Si Si6 0.819747 0.458730 0.205823
O O1 0.500000 0.987228 0.126349
O O2 0.693696 0.074687 0.095331
O O3 0.760939 0.001360 0.164068
O O4 0.745065 0.955982 0.083185
O O5 0.500000 0.668751 0.888607
O O6 0.783800 0.683404 0.868991
O O7 0.708516 0.680717 0.949873
O O8 0.500000 0.676505 0.687190
O O9 0.265125 0.750000 0.702946
O O10 0.254544 0.615769 0.703523
O O11 0.795007 0.250000 0.520226
O O12 0.715701 0.125547 0.522611
O O13 0.000000 0.156917 0.509296
O O14 0.500000 0.956133 0.458212
O O15 0.262403 0.000000 0.500000
O O16 0.750000 0.489319 0.250000
O O17 0.000000 0.462135 0.207021
#
# Coordination Sequence:
#
# PCOD8298904 Si02
#       6
#    16  16  16  16  16  16
#     4  10  19  33  54  74  95 127 168 211 257 302
#     4   9  17  29  46  67  92 124 165 211 252 294
#     4   9  18  30  43  61  88 123 162 205 252 300
#     4  10  20  33  49  71 101 136 174 215 256 300
#     4  11  22  34  51  75 104 137 174 213 256 306
#     4  10  20  34  50  69  95 123 160 207 258 308
#
# _framework density 17.190380000000001
#
# number of rings (size 3 to 8) (size 9 to 14) (size 15 to 20)
#    0.000    2.167    1.667    2.000    0.000    4.333 
#    0.000    0.000    0.000    0.000    0.000    0.000 
#    0.000    0.667    0.000    2.500    0.000    3.833 
#
# Total GULP energy -594964.273930 kJ/mol
# GULP energy per Si atom -12395.089040 kJ/mol
# Density = 1.715125 g / cm^3
# Si number density = 17.190380 Si / 1000 Ang^3
#
#
#
# Elastic Constant Matrix: (Units=GPa)
#
#
# Indices 1 2 3 4 5 6 
#
# 1 57.7335 18.3549 34.3379 0.0000 0.0000 0.0000
# 2 18.3549 58.2827 29.7783 0.0000 0.0000 0.0000
# 3 34.3379 29.7783 94.2161 0.0000 0.0000 0.0000
# 4 0.0000 0.0000 0.0000 3.5583 0.0000 0.0000
# 5 0.0000 0.0000 0.0000 0.0000 29.3281 0.0000
# 6 0.0000 0.0000 0.0000 0.0000 0.0000 16.9835
#
#
#
# Elastic Compliance Matrix: (Units=1/GPa)
#
#
# Indices 1 2 3 4 5 6 
#
# 1 0.022693 -0.003483 -0.007170 0.000000 0.000000 0.000000
# 2 -0.003483 0.020997 -0.005367 0.000000 0.000000 0.000000
# 3 -0.007170 -0.005367 0.014923 0.000000 0.000000 0.000000
# 4 0.000000 0.000000 0.000000 0.281035 0.000000 0.000000
# 5 0.000000 0.000000 0.000000 0.000000 0.034097 0.000000
# 6 0.000000 0.000000 0.000000 0.000000 0.000000 0.058881
#
#
# Mechanical properties :
#
#
# Convention : Reuss Voigt Hill
#
# Bulk Modulus (GPa) = 37.63203 41.68605 39.65904
# Shear Modulus (GPa) = 10.55915 18.49138 14.52527
#
# Velocity S-wave (km/s) = 2.48109 3.28332 2.90998
# Velocity P-wave (km/s) = 5.49059 6.21899 5.86611
#
# Compressibility (1/GPa) = 0.02657311
#
# Stress axis : x y z
#
# Youngs Moduli (GPa) = 44.06720 47.62623 67.01006
#
# Poissons Ratio (x) = 0.16590 0.48043
# Poissons Ratio (y) = 0.15351 0.35963
# Poissons Ratio (z) = 0.31594 0.25560
#
# Static dielectric constant tensor:
#      x y z
#    x 3.151740 0.000000 0.000000 
#    y 0.000000 3.126910 0.000000 
#    z 0.000000 0.000000 3.073540 
# 
# 
# High freq. dielectric constant tensor:
#      x y z
#    x 1.665010 0.000000 0.000000 
#    y 0.000000 1.630400 0.000000 
#    z 0.000000 0.000000 1.650060 
# 
# From -- ./inp_files/64343.got.cif
#   From: 2010.03.12/outbox.cif.g09.slc.cpg/sg74_33_cif.got.tgz:64343.got - 2010.04.16 15:46:19.
