data_PCOD8298489
_publ_section_title
;
Structure prediction by ZEFSAII (Michael W. Deem and Ramdas Pophale) SiO2 
 PCOD8298489
Probable space group: I M M A
;
_chemical_formula_sum "Si O2"
_cell_formula_units_Z 104
_cell_length_a 8.732901
_cell_length_b 26.822394
_cell_length_c 23.088889
_cell_angle_alpha 90.000000
_cell_angle_beta 90.000000
_cell_angle_gamma 90.000000
_cell_volume 5408.279282
_symmetry_space_group_name_H-M "I M M A"
_symmetry_group_IT_number 74
_symmetry_cell_setting 'orthorhombic'
loop_
_space_group_symop_operation_xyz
x,y,z
-x,1/2-y,z
x,-y,-z
-x,1/2+y,-z
-x,-y,-z
x,1/2+y,-z
-x,y,z
x,1/2-y,z
1/2+x,1/2+y,1/2+z
1/2-x,-y,1/2+z
1/2+x,1/2-y,1/2-z
1/2-x,y,1/2-z
1/2-x,1/2-y,1/2-z
1/2+x,y,1/2-z
1/2-x,1/2+y,1/2+z
1/2+x,-y,1/2+z
loop_
_atom_site_type_symbol
_atom_site_label
_atom_site_fract_x
_atom_site_fract_y
_atom_site_fract_z
Si Si1 0.180386 0.118062 0.589614
Si Si2 0.680265 0.192215 0.508927
Si Si3 0.682480 0.343165 0.384133
Si Si4 0.317748 0.250000 0.312886
Si Si5 0.664154 0.445829 0.017752
Si Si6 0.676410 0.549913 0.632945
Si Si7 0.817217 0.051848 0.812831
O O1 0.239028 0.172239 0.567892
O O2 0.231100 0.082168 0.537677
O O3 0.263499 0.097648 0.646961
O O4 0.000000 0.119195 0.601616
O O5 0.500000 0.185766 0.516523
O O6 0.724304 0.250000 0.500776
O O7 0.739370 0.162006 0.451296
O O8 0.500000 0.341373 0.385657
O O9 0.747312 0.297934 0.346494
O O10 0.739583 0.394301 0.351784
O O11 0.500000 0.250000 0.310558
O O12 0.250000 0.250000 0.250000
O O13 0.500000 0.421692 0.039385
O O14 0.797718 0.450818 0.064497
O O15 0.617253 0.500000 0.000000
O O16 0.500000 0.546484 0.647782
O O17 0.751961 0.502077 0.665129
O O18 0.750000 0.062307 0.750000
O O19 0.000000 0.051181 0.811200
#
# Coordination Sequence:
#
# PCOD8298489 Si02
#       7
#    16  16  16   8  16  16  16
#     4  11  22  36  57  85 117 151 184 230 288 346
#     4  10  19  34  59  88 115 148 188 235 288 343
#     4   9  17  32  54  79 109 147 190 235 283 333
#     4  10  20  36  54  72 102 148 197 240 281 328
#     4  10  19  31  49  78 114 146 175 218 276 328
#     4  10  20  33  54  81 109 145 189 232 277 332
#     4  11  24  40  58  81 111 152 196 238 282 341
#
# _framework density 19.229776999999999
#
# number of rings (size 3 to 8) (size 9 to 14) (size 15 to 20)
#    0.000    1.846    3.846    0.923    0.000    2.462 
#    0.000    1.538    0.000    0.462    0.000    0.000 
#    0.000    0.000    0.000    0.000    0.000    0.000 
#
# Total GULP energy -644183.425153 kJ/mol
# GULP energy per Si atom -12388.142791 kJ/mol
# Density = 1.918601 g / cm^3
# Si number density = 19.229777 Si / 1000 Ang^3
#
#
#
# Elastic Constant Matrix: (Units=GPa)
#
#
# Indices 1 2 3 4 5 6 
#
# 1 38.6009 23.5652 25.0932 0.0000 0.0000 0.0000
# 2 23.5652 79.0827 42.9178 0.0000 0.0000 0.0000
# 3 25.0932 42.9178 120.8287 0.0000 0.0000 0.0000
# 4 0.0000 0.0000 0.0000 25.5905 0.0000 0.0000
# 5 0.0000 0.0000 0.0000 0.0000 31.2912 0.0000
# 6 0.0000 0.0000 0.0000 0.0000 0.0000 19.7161
#
#
#
# Elastic Compliance Matrix: (Units=1/GPa)
#
#
# Indices 1 2 3 4 5 6 
#
# 1 0.033304 -0.007644 -0.004201 0.000000 0.000000 0.000000
# 2 -0.007644 0.017419 -0.004600 0.000000 0.000000 0.000000
# 3 -0.004201 -0.004600 0.010782 0.000000 0.000000 0.000000
# 4 0.000000 0.000000 0.000000 0.039077 0.000000 0.000000
# 5 0.000000 0.000000 0.000000 0.000000 0.031958 0.000000
# 6 0.000000 0.000000 0.000000 0.000000 0.000000 0.050720
#
#
# Mechanical properties :
#
#
# Convention : Reuss Voigt Hill
#
# Bulk Modulus (GPa) = 34.94621 46.85165 40.89893
# Shear Modulus (GPa) = 22.15446 25.11530 23.63488
#
# Velocity S-wave (km/s) = 3.39793 3.61787 3.50962
# Velocity P-wave (km/s) = 5.79715 6.47062 6.14312
#
# Compressibility (1/GPa) = 0.02861540
#
# Stress axis : x y z
#
# Youngs Moduli (GPa) = 30.02669 57.40874 92.74305
#
# Poissons Ratio (x) = 0.43882 0.38964
# Poissons Ratio (y) = 0.22952 0.42659
# Poissons Ratio (z) = 0.12615 0.26406
#
# Static dielectric constant tensor:
#      x y z
#    x 3.301590 0.000000 0.000000 
#    y 0.000000 3.893930 0.000000 
#    z 0.000000 0.000000 3.360000 
# 
# 
# High freq. dielectric constant tensor:
#      x y z
#    x 1.730360 0.000000 0.000000 
#    y 0.000000 1.756370 0.000000 
#    z 0.000000 0.000000 1.724530 
# 
# From -- ./inp_files/57608.got.cif
#   From: 2010.03.12/outbox.cif.g09.slc.cpg/sg74_29_cif.got.tgz:57608.got - 2010.04.16 15:46:19.
