data_PCOD8298866
_publ_section_title
;
Structure prediction by ZEFSAII (Michael W. Deem and Ramdas Pophale) SiO2 
 PCOD8298866
Probable space group: I M M A
;
_chemical_formula_sum "Si O2"
_cell_formula_units_Z 72
_cell_length_a 21.843358
_cell_length_b 18.008750
_cell_length_c 10.712196
_cell_angle_alpha 90.000000
_cell_angle_beta 90.000000
_cell_angle_gamma 90.000000
_cell_volume 4213.873395
_symmetry_space_group_name_H-M "I M M A"
_symmetry_group_IT_number 74
_symmetry_cell_setting 'orthorhombic'
loop_
_space_group_symop_operation_xyz
x,y,z
-x,1/2-y,z
x,-y,-z
-x,1/2+y,-z
-x,-y,-z
x,1/2+y,-z
-x,y,z
x,1/2-y,z
1/2+x,1/2+y,1/2+z
1/2-x,-y,1/2+z
1/2+x,1/2-y,1/2-z
1/2-x,y,1/2-z
1/2-x,1/2-y,1/2-z
1/2+x,y,1/2-z
1/2-x,1/2+y,1/2+z
1/2+x,-y,1/2+z
loop_
_atom_site_type_symbol
_atom_site_label
_atom_site_fract_x
_atom_site_fract_y
_atom_site_fract_z
Si Si1 0.803932 0.000000 0.500000
Si Si2 0.000000 0.005870 0.806226
Si Si3 0.630315 0.331896 0.432240
Si Si4 0.868175 0.469403 0.251983
Si Si5 0.000000 0.377664 0.996055
Si Si6 0.711996 0.599172 0.365631
O O1 0.843501 0.037968 0.391296
O O2 0.763416 0.067790 0.544383
O O3 0.000000 0.091260 0.854061
O O4 0.938951 0.990715 0.727476
O O5 0.000000 0.950529 0.921072
O O6 0.645228 0.250000 0.377682
O O7 0.641594 0.393047 0.324948
O O8 0.560204 0.329961 0.477775
O O9 0.672312 0.342998 0.555139
O O10 0.832696 0.533228 0.177748
O O11 0.750000 0.635929 0.250000
#
# Coordination Sequence:
#
# PCOD8298866 Si02
#       6
#     8   8  16  16   8  16
#     4  10  20  33  54  71 104 136 174 212 256 298
#     4   9  16  29  56  75 101 124 178 223 244 300
#     4  11  20  32  52  79 108 133 167 214 269 315
#     4  10  19  34  53  79 100 136 179 218 256 296
#     4   9  17  30  48  79 101 132 163 214 265 300
#     4  10  19  33  53  73 102 139 176 211 248 307
#
# _framework density 17.086417000000001
#
# number of rings (size 3 to 8) (size 9 to 14) (size 15 to 20)
#    0.000    2.000    4.444    0.333    0.000    0.889 
#    0.000    2.222    0.000    1.333    0.000    0.000 
#    0.000    0.000    0.000    0.000    0.000    0.000 
#
# Total GULP energy -446141.130043 kJ/mol
# GULP energy per Si atom -12392.809168 kJ/mol
# Density = 1.704753 g / cm^3
# Si number density = 17.086417 Si / 1000 Ang^3
#
#
#
# Elastic Constant Matrix: (Units=GPa)
#
#
# Indices 1 2 3 4 5 6 
#
# 1 122.4274 27.4231 56.6528 0.0000 0.0000 0.0000
# 2 27.4231 75.4566 28.7143 0.0000 0.0000 0.0000
# 3 56.6528 28.7143 93.0736 0.0000 0.0000 0.0000
# 4 0.0000 0.0000 0.0000 14.0060 0.0000 0.0000
# 5 0.0000 0.0000 0.0000 0.0000 23.0894 0.0000
# 6 0.0000 0.0000 0.0000 0.0000 0.0000 15.2849
#
#
#
# Elastic Compliance Matrix: (Units=1/GPa)
#
#
# Indices 1 2 3 4 5 6 
#
# 1 0.011566 -0.001727 -0.006507 0.000000 0.000000 0.000000
# 2 -0.001727 0.015273 -0.003661 0.000000 0.000000 0.000000
# 3 -0.006507 -0.003661 0.015835 0.000000 0.000000 0.000000
# 4 0.000000 0.000000 0.000000 0.071398 0.000000 0.000000
# 5 0.000000 0.000000 0.000000 0.000000 0.043310 0.000000
# 6 0.000000 0.000000 0.000000 0.000000 0.000000 0.065424
#
#
# Mechanical properties :
#
#
# Convention : Reuss Voigt Hill
#
# Bulk Modulus (GPa) = 52.95591 57.39310 55.17450
# Shear Modulus (GPa) = 19.77137 22.35390 21.06264
#
# Velocity S-wave (km/s) = 3.40537 3.62095 3.51481
# Velocity P-wave (km/s) = 6.82073 7.15154 6.98809
#
# Compressibility (1/GPa) = 0.01888363
#
# Stress axis : x y z
#
# Youngs Moduli (GPa) = 86.45844 65.47331 63.15319
#
# Poissons Ratio (x) = 0.11308 0.41096
# Poissons Ratio (y) = 0.14933 0.23118
# Poissons Ratio (z) = 0.56262 0.23968
#
# Static dielectric constant tensor:
#      x y z
#    x 3.614530 0.000000 0.000000 
#    y 0.000000 2.889620 0.000000 
#    z 0.000000 0.000000 3.293830 
# 
# 
# High freq. dielectric constant tensor:
#      x y z
#    x 1.679620 0.000000 0.000000 
#    y 0.000000 1.632030 0.000000 
#    z 0.000000 0.000000 1.643950 
# 
# From -- ./inp_files/22057.got.cif
#   From: 2010.03.12/outbox.cif.g09.slc.cpg/sg74_12_cif.got.tgz:22057.got - 2010.04.16 15:46:19.
