data_PCOD8298964
_publ_section_title
;
Structure prediction by ZEFSAII (Michael W. Deem and Ramdas Pophale) SiO2 
 PCOD8298964
Probable space group: I M M A
;
_chemical_formula_sum "Si O2"
_cell_formula_units_Z 96
_cell_length_a 23.389371
_cell_length_b 8.687242
_cell_length_c 25.613034
_cell_angle_alpha 90.000000
_cell_angle_beta 90.000000
_cell_angle_gamma 90.000000
_cell_volume 5204.289995
_symmetry_space_group_name_H-M "I M M A"
_symmetry_group_IT_number 74
_symmetry_cell_setting 'orthorhombic'
loop_
_space_group_symop_operation_xyz
x,y,z
-x,1/2-y,z
x,-y,-z
-x,1/2+y,-z
-x,-y,-z
x,1/2+y,-z
-x,y,z
x,1/2-y,z
1/2+x,1/2+y,1/2+z
1/2-x,-y,1/2+z
1/2+x,1/2-y,1/2-z
1/2-x,y,1/2-z
1/2-x,1/2-y,1/2-z
1/2+x,y,1/2-z
1/2-x,1/2+y,1/2+z
1/2+x,-y,1/2+z
loop_
_atom_site_type_symbol
_atom_site_label
_atom_site_fract_x
_atom_site_fract_y
_atom_site_fract_z
Si Si1 0.693421 0.431610 0.945345
Si Si2 0.878300 0.433011 0.651388
Si Si3 0.317035 0.427303 0.744595
Si Si4 0.384895 0.430872 0.346545
Si Si5 0.000000 0.932892 0.315233
Si Si6 0.675735 0.567765 0.444711
Si Si7 0.000000 0.432521 0.803376
O O1 0.687630 0.250000 0.948732
O O2 0.652964 0.500629 0.899779
O O3 0.758590 0.479780 0.933177
O O4 0.672068 0.500000 0.000000
O O5 0.874780 0.250000 0.649730
O O6 0.846206 0.491948 0.703060
O O7 0.943896 0.491712 0.653822
O O8 0.334579 0.250000 0.734437
O O9 0.250000 0.445743 0.750000
O O10 0.337366 0.528058 0.696208
O O11 0.393247 0.250000 0.349559
O O12 0.364926 0.493159 0.402094
O O13 0.444687 0.508384 0.333102
O O14 0.000000 0.996425 0.256038
O O15 0.000000 0.750000 0.312732
O O16 0.656218 0.500000 0.500000
O O17 0.668154 0.750000 0.444441
O O18 0.000000 0.250000 0.803538
#
# Coordination Sequence:
#
# PCOD8298964 Si02
#       7
#    16  16  16  16   8  16   8
#     4   9  18  33  55  80 109 142 183 229 278 331
#     4   9  16  29  50  78 105 138 186 234 274 322
#     4  10  19  33  55  81 109 144 190 238 283 338
#     4  12  24  37  55  84 119 150 183 229 288 347
#     4   9  16  29  54  79 101 136 189 236 271 315
#     4  10  20  37  59  83 110 147 188 231 280 335
#     4  11  21  39  62  81 106 150 199 237 275 328
#
# _framework density 18.446321000000001
#
# number of rings (size 3 to 8) (size 9 to 14) (size 15 to 20)
#    0.000    2.000    1.667    3.250    0.000    3.667 
#    0.000    1.667    0.000    0.000    0.000    0.000 
#    0.000    0.000    0.000    0.000    0.000    0.000 
#
# Total GULP energy -595278.588141 kJ/mol
# GULP energy per Si atom -12401.637253 kJ/mol
# Density = 1.840434 g / cm^3
# Si number density = 18.446321 Si / 1000 Ang^3
#
#
#
# Elastic Constant Matrix: (Units=GPa)
#
#
# Indices 1 2 3 4 5 6 
#
# 1 108.3901 30.5800 65.4163 0.0000 0.0000 0.0000
# 2 30.5800 59.6526 36.6572 0.0000 0.0000 0.0000
# 3 65.4163 36.6572 143.8265 0.0000 0.0000 0.0000
# 4 0.0000 0.0000 0.0000 29.5460 0.0000 0.0000
# 5 0.0000 0.0000 0.0000 0.0000 30.6277 0.0000
# 6 0.0000 0.0000 0.0000 0.0000 0.0000 32.0641
#
#
#
# Elastic Compliance Matrix: (Units=1/GPa)
#
#
# Indices 1 2 3 4 5 6 
#
# 1 0.013370 -0.003696 -0.005139 0.000000 0.000000 0.000000
# 2 -0.003696 0.020899 -0.003645 0.000000 0.000000 0.000000
# 3 -0.005139 -0.003645 0.010219 0.000000 0.000000 0.000000
# 4 0.000000 0.000000 0.000000 0.033846 0.000000 0.000000
# 5 0.000000 0.000000 0.000000 0.000000 0.032650 0.000000
# 6 0.000000 0.000000 0.000000 0.000000 0.000000 0.031188
#
#
# Mechanical properties :
#
#
# Convention : Reuss Voigt Hill
#
# Bulk Modulus (GPa) = 51.21091 64.13070 57.67080
# Shear Modulus (GPa) = 28.79492 30.39527 29.59509
#
# Velocity S-wave (km/s) = 3.95525 4.06368 4.00983
# Velocity P-wave (km/s) = 6.97718 7.54053 7.26432
#
# Compressibility (1/GPa) = 0.01952709
#
# Stress axis : x y z
#
# Youngs Moduli (GPa) = 74.79243 47.85014 97.85331
#
# Poissons Ratio (x) = 0.17685 0.50289
# Poissons Ratio (y) = 0.27643 0.35671
# Poissons Ratio (z) = 0.38437 0.17443
#
# Static dielectric constant tensor:
#      x y z
#    x 3.536510 0.000000 0.000000 
#    y 0.000000 3.179540 0.000000 
#    z 0.000000 0.000000 3.559190 
# 
# 
# High freq. dielectric constant tensor:
#      x y z
#    x 1.719910 0.000000 0.000000 
#    y 0.000000 1.690600 0.000000 
#    z 0.000000 0.000000 1.721460 
# 
# From -- ./inp_files/61944.got.cif
#   From: 2010.03.12/outbox.cif.g09.slc.cpg/sg74_31_cif.got.tgz:61944.got - 2010.04.16 15:46:19.
