data_PCOD8298705
_publ_section_title
;
Structure prediction by ZEFSAII (Michael W. Deem and Ramdas Pophale) SiO2 
 PCOD8298705
Probable space group: I M M A
;
_chemical_formula_sum "Si O2"
_cell_formula_units_Z 96
_cell_length_a 31.702340
_cell_length_b 8.940437
_cell_length_c 19.270646
_cell_angle_alpha 90.000000
_cell_angle_beta 90.000000
_cell_angle_gamma 90.000000
_cell_volume 5461.932643
_symmetry_space_group_name_H-M "I M M A"
_symmetry_group_IT_number 74
_symmetry_cell_setting 'orthorhombic'
loop_
_space_group_symop_operation_xyz
x,y,z
-x,1/2-y,z
x,-y,-z
-x,1/2+y,-z
-x,-y,-z
x,1/2+y,-z
-x,y,z
x,1/2-y,z
1/2+x,1/2+y,1/2+z
1/2-x,-y,1/2+z
1/2+x,1/2-y,1/2-z
1/2-x,y,1/2-z
1/2-x,1/2-y,1/2-z
1/2+x,y,1/2-z
1/2-x,1/2+y,1/2+z
1/2+x,-y,1/2+z
loop_
_atom_site_type_symbol
_atom_site_label
_atom_site_fract_x
_atom_site_fract_y
_atom_site_fract_z
Si Si1 0.452018 0.414355 0.063709
Si Si2 0.292690 0.077775 0.714077
Si Si3 0.667865 0.074593 0.070708
Si Si4 0.243974 0.923408 0.069217
Si Si5 0.870745 0.576703 0.716437
Si Si6 0.046612 0.425861 0.707353
O O1 0.500000 0.382769 0.042923
O O2 0.430276 0.250000 0.077010
O O3 0.449621 0.520968 0.129025
O O4 0.429208 0.500000 0.000000
O O5 0.299896 0.250000 0.734903
O O6 0.250000 0.018178 0.750000
O O7 0.289337 0.056608 0.631217
O O8 0.331917 0.983478 0.739753
O O9 0.675099 0.250000 0.059248
O O10 0.635241 0.043543 0.133814
O O11 0.712284 0.000606 0.091056
O O12 0.650240 0.000000 0.000000
O O13 0.253048 0.750000 0.054345
O O14 0.225115 0.000000 0.000000
O O15 0.874022 0.750000 0.731651
O O16 0.913990 0.502964 0.746306
O O17 0.052422 0.250000 0.711383
O O18 0.000000 0.471624 0.737251
#
# Coordination Sequence:
#
# PCOD8298705 Si02
#       6
#    16  16  16  16  16  16
#     4   9  16  27  44  64  86 114 153 202 254 304
#     4  10  20  35  54  76 105 140 173 208 253 304
#     4  10  20  32  47  69  97 131 171 212 256 302
#     4  10  19  32  52  75 102 137 172 208 251 296
#     4  11  23  35  51  75 101 132 171 217 263 308
#     4  10  21  36  52  68  90 124 165 211 261 311
#
# _framework density 17.576195999999999
#
# number of rings (size 3 to 8) (size 9 to 14) (size 15 to 20)
#    0.000    2.000    1.667    3.500    0.000    7.333 
#    0.000    1.667    0.000    0.000    0.000    0.000 
#    0.000    0.667    0.000    2.167    0.000    2.667 
#
# Total GULP energy -594956.402627 kJ/mol
# GULP energy per Si atom -12394.925055 kJ/mol
# Density = 1.753619 g / cm^3
# Si number density = 17.576196 Si / 1000 Ang^3
#
#
#
# Elastic Constant Matrix: (Units=GPa)
#
#
# Indices 1 2 3 4 5 6 
#
# 1 129.8462 66.8666 35.9005 0.0000 0.0000 0.0000
# 2 66.8666 112.4019 35.2183 0.0000 0.0000 0.0000
# 3 35.9005 35.2183 53.3018 0.0000 0.0000 0.0000
# 4 0.0000 0.0000 0.0000 23.6325 0.0000 0.0000
# 5 0.0000 0.0000 0.0000 0.0000 -198.8455 0.0000
# 6 0.0000 0.0000 0.0000 0.0000 0.0000 21.6280
#
#
#
# Elastic Compliance Matrix: (Units=1/GPa)
#
#
# Indices 1 2 3 4 5 6 
#
# 1 0.011795 -0.005710 -0.004172 0.000000 0.000000 0.000000
# 2 -0.005710 0.013983 -0.005394 0.000000 0.000000 0.000000
# 3 -0.004172 -0.005394 0.025135 0.000000 0.000000 0.000000
# 4 0.000000 0.000000 0.000000 0.042315 0.000000 0.000000
# 5 0.000000 0.000000 0.000000 0.000000 -0.005029 0.000000
# 6 0.000000 0.000000 0.000000 0.000000 0.000000 0.046236
#
#
# Mechanical properties :
#
#
# Convention : Reuss Voigt Hill
#
# Bulk Modulus (GPa) = 49.10887 63.50230 56.30558
# Shear Modulus (GPa) = 29.10823 -20.21270 4.44776
#
# Velocity S-wave (km/s) = 4.07396 -3.39485 1.59250
# Velocity P-wave (km/s) = 7.08030 4.56525 5.95702
#
# Compressibility (1/GPa) = 0.02036292
#
# Stress axis : x y z
#
# Youngs Moduli (GPa) = 84.78050 71.51450 39.78567
#
# Poissons Ratio (x) = 0.40832 0.16598
# Poissons Ratio (y) = 0.48407 0.21459
# Poissons Ratio (z) = 0.35369 0.38572
#
# Static dielectric constant tensor:
#      x y z
#    x 3.422740 0.000000 0.000000 
#    y 0.000000 3.562710 0.000000 
#    z 0.000000 0.000000 3.031030 
# 
# 
# High freq. dielectric constant tensor:
#      x y z
#    x 1.676330 0.000000 0.000000 
#    y 0.000000 1.697760 0.000000 
#    z 0.000000 0.000000 1.633200 
# 
# From -- ./inp_files/62268.got.cif
#   From: 2010.03.12/outbox.cif.g09.slc.cpg/sg74_32_cif.got.tgz:62268.got - 2010.04.16 15:46:19.
