data_PCOD8298590
_publ_section_title
;
Structure prediction by ZEFSAII (Michael W. Deem and Ramdas Pophale) SiO2 
 PCOD8298590
Probable space group: I M M A
;
_chemical_formula_sum "Si O2"
_cell_formula_units_Z 80
_cell_length_a 9.002517
_cell_length_b 27.173977
_cell_length_c 20.522631
_cell_angle_alpha 90.000000
_cell_angle_beta 90.000000
_cell_angle_gamma 90.000000
_cell_volume 5020.537209
_symmetry_space_group_name_H-M "I M M A"
_symmetry_group_IT_number 74
_symmetry_cell_setting 'orthorhombic'
loop_
_space_group_symop_operation_xyz
x,y,z
-x,1/2-y,z
x,-y,-z
-x,1/2+y,-z
-x,-y,-z
x,1/2+y,-z
-x,y,z
x,1/2-y,z
1/2+x,1/2+y,1/2+z
1/2-x,-y,1/2+z
1/2+x,1/2-y,1/2-z
1/2-x,y,1/2-z
1/2-x,1/2-y,1/2-z
1/2+x,y,1/2-z
1/2-x,1/2+y,1/2+z
1/2+x,-y,1/2+z
loop_
_atom_site_type_symbol
_atom_site_label
_atom_site_fract_x
_atom_site_fract_y
_atom_site_fract_z
Si Si1 0.674644 0.578631 0.683390
Si Si2 0.831487 0.694800 0.462477
Si Si3 0.331723 0.384639 0.059368
Si Si4 0.324228 0.102510 0.566592
Si Si5 0.173555 0.965476 0.184172
O O1 0.500000 0.587290 0.688543
O O2 0.750000 0.596612 0.750000
O O3 0.739857 0.611295 0.625450
O O4 0.715466 0.521889 0.669504
O O5 0.765768 0.750000 0.462419
O O6 0.830114 0.672780 0.536428
O O7 0.730095 0.658660 0.417657
O O8 0.000000 0.694520 0.435466
O O9 0.500000 0.403778 0.069502
O O10 0.252419 0.415888 0.000994
O O11 0.500000 0.100785 0.557969
O O12 0.268590 0.067099 0.624135
O O13 0.250000 0.946592 0.250000
O O14 0.000000 0.958679 0.194244
#
# Coordination Sequence:
#
# PCOD8298590 Si02
#       5
#    16  16  16  16  16
#     4  10  19  32  48  67  94 128 159 191 228 274
#     4   8  16  31  49  69  93 120 151 189 235 281
#     4   9  18  31  47  70  94 122 155 192 232 274
#     4   9  17  30  47  71  95 120 154 194 232 273
#     4   9  19  32  47  67  95 128 159 190 230 273
#
# _framework density 15.93455
#
# number of rings (size 3 to 8) (size 9 to 14) (size 15 to 20)
#    1.200    1.800    0.000    1.200    0.000    3.600 
#    0.000    4.000    0.000    1.200    0.000    0.000 
#    0.000    0.000    0.000    0.000    0.000    0.000 
#
# Total GULP energy -495619.011502 kJ/mol
# GULP energy per Si atom -12390.475288 kJ/mol
# Density = 1.589828 g / cm^3
# Si number density = 15.934550 Si / 1000 Ang^3
#
#
#
# Elastic Constant Matrix: (Units=GPa)
#
#
# Indices 1 2 3 4 5 6 
#
# 1 63.2917 6.8487 16.1255 -0.0001 0.0000 0.0000
# 2 6.8487 27.0285 -5.0587 -0.0002 0.0000 0.0000
# 3 16.1255 -5.0587 45.1858 -0.0003 0.0000 0.0000
# 4 -0.0001 -0.0002 -0.0003 9.0132 0.0000 0.0000
# 5 0.0000 0.0000 0.0000 0.0000 31.1877 0.0000
# 6 0.0000 0.0000 0.0000 0.0000 0.0000 19.5660
#
#
#
# Elastic Compliance Matrix: (Units=1/GPa)
#
#
# Indices 1 2 3 4 5 6 
#
# 1 0.018279 -0.005978 -0.007193 0.000000 0.000000 0.000000
# 2 -0.005978 0.039745 0.006583 0.000001 0.000000 0.000000
# 3 -0.007193 0.006583 0.025435 0.000001 0.000000 0.000000
# 4 0.000000 0.000001 0.000001 0.110949 0.000000 0.000000
# 5 0.000000 0.000000 0.000000 0.000000 0.032064 0.000000
# 6 0.000000 0.000000 0.000000 0.000000 0.000000 0.051109
#
#
# Mechanical properties :
#
#
# Convention : Reuss Voigt Hill
#
# Bulk Modulus (GPa) = 14.22808 19.03743 16.63275
# Shear Modulus (GPa) = 15.91427 19.79274 17.85351
#
# Velocity S-wave (km/s) = 3.16369 3.52821 3.35091
# Velocity P-wave (km/s) = 4.72162 5.34517 5.04304
#
# Compressibility (1/GPa) = 0.07028356
#
# Stress axis : x y z
#
# Youngs Moduli (GPa) = 54.70689 25.16052 39.31642
#
# Poissons Ratio (x) = 0.15041 0.28279
# Poissons Ratio (y) = 0.32703 -0.25882
# Poissons Ratio (z) = 0.39348 -0.16563
#
# Static dielectric constant tensor:
#      x y z
#    x 3.028280 0.000000 0.000000 
#    y 0.000000 2.859080 0.000000 
#    z 0.000000 0.000000 2.912920 
# 
# 
# High freq. dielectric constant tensor:
#      x y z
#    x 1.623330 0.000000 0.000000 
#    y 0.000000 1.585140 0.000000 
#    z 0.000000 0.000000 1.597640 
# 
# From -- ./inp_files/49408.got.cif
#   From: 2010.03.12/outbox.cif.g09.slc.cpg/sg74_25_cif.got.tgz:49408.got - 2010.04.16 15:46:19.
