data_PCOD8298359
_publ_section_title
;
Structure prediction by ZEFSAII (Michael W. Deem and Ramdas Pophale) SiO2 
 PCOD8298359
Probable space group: I M M A
;
_chemical_formula_sum "Si O2"
_cell_formula_units_Z 88
_cell_length_a 9.689927
_cell_length_b 22.234480
_cell_length_c 20.813526
_cell_angle_alpha 90.000000
_cell_angle_beta 90.000000
_cell_angle_gamma 90.000000
_cell_volume 4484.284335
_symmetry_space_group_name_H-M "I M M A"
_symmetry_group_IT_number 74
_symmetry_cell_setting 'orthorhombic'
loop_
_space_group_symop_operation_xyz
x,y,z
-x,1/2-y,z
x,-y,-z
-x,1/2+y,-z
-x,-y,-z
x,1/2+y,-z
-x,y,z
x,1/2-y,z
1/2+x,1/2+y,1/2+z
1/2-x,-y,1/2+z
1/2+x,1/2-y,1/2-z
1/2-x,y,1/2-z
1/2-x,1/2-y,1/2-z
1/2+x,y,1/2-z
1/2-x,1/2+y,1/2+z
1/2+x,-y,1/2+z
loop_
_atom_site_type_symbol
_atom_site_label
_atom_site_fract_x
_atom_site_fract_y
_atom_site_fract_z
Si Si1 0.838911 0.750000 0.314451
Si Si2 0.845954 0.180724 0.025780
Si Si3 0.343517 0.144907 0.912360
Si Si4 0.657370 0.991078 0.071043
Si Si5 0.657225 0.558824 0.806873
Si Si6 0.346344 0.816336 0.855677
O O1 0.750000 0.750000 0.250000
O O2 0.800733 0.689453 0.354334
O O3 0.000000 0.750000 0.295832
O O4 0.854105 0.250000 0.007740
O O5 0.769747 0.170331 0.092352
O O6 0.000000 0.153044 0.029930
O O7 0.760073 0.149215 0.970855
O O8 0.500000 0.161367 0.933623
O O9 0.331502 0.074521 0.895465
O O10 0.500000 0.010237 0.060595
O O11 0.718901 0.036762 0.124315
O O12 0.729106 0.000000 0.000000
O O13 0.500000 0.535965 0.797641
O O14 0.750000 0.531572 0.750000
O O15 0.664842 0.631528 0.802623
O O16 0.500000 0.818992 0.887348
O O17 0.323047 0.750000 0.824510
#
# Coordination Sequence:
#
# PCOD8298359 Si02
#       6
#     8  16  16  16  16  16
#     4  10  22  36  52  76 106 142 185 232 277 332
#     4  10  19  30  49  80 113 138 166 215 277 326
#     4  10  19  34  55  77 103 141 184 223 272 336
#     4   9  18  34  58  83 107 141 187 233 274 327
#     4  10  21  37  56  80 110 145 185 229 277 329
#     4   9  18  33  54  78 105 142 184 221 259 315
#
# _framework density 19.624091
#
# number of rings (size 3 to 8) (size 9 to 14) (size 15 to 20)
#    0.000    2.364    0.909    1.636    0.000    6.182 
#    0.000    0.909    0.000    2.182    0.000    0.000 
#    0.000    0.000    0.000    0.000    0.000    0.000 
#
# Total GULP energy -545198.531405 kJ/mol
# GULP energy per Si atom -12390.875714 kJ/mol
# Density = 1.957943 g / cm^3
# Si number density = 19.624091 Si / 1000 Ang^3
#
#
#
# Elastic Constant Matrix: (Units=GPa)
#
#
# Indices 1 2 3 4 5 6 
#
# 1 77.1363 17.6040 29.9062 0.0000 0.0000 0.0000
# 2 17.6040 89.8085 43.3985 0.0000 0.0000 0.0000
# 3 29.9062 43.3985 102.4538 0.0000 0.0000 0.0000
# 4 0.0000 0.0000 0.0000 22.0136 0.0000 0.0000
# 5 0.0000 0.0000 0.0000 0.0000 33.3232 0.0000
# 6 0.0000 0.0000 0.0000 0.0000 0.0000 7.4886
#
#
#
# Elastic Compliance Matrix: (Units=1/GPa)
#
#
# Indices 1 2 3 4 5 6 
#
# 1 0.014692 -0.001015 -0.003858 0.000000 0.000000 0.000000
# 2 -0.001015 0.014071 -0.005664 0.000000 0.000000 0.000000
# 3 -0.003858 -0.005664 0.013286 0.000000 0.000000 0.000000
# 4 0.000000 0.000000 0.000000 0.045426 0.000000 0.000000
# 5 0.000000 0.000000 0.000000 0.000000 0.030009 0.000000
# 6 0.000000 0.000000 0.000000 0.000000 0.000000 0.133536
#
#
# Mechanical properties :
#
#
# Convention : Reuss Voigt Hill
#
# Bulk Modulus (GPa) = 47.67986 50.13509 48.90748
# Shear Modulus (GPa) = 17.91561 24.46441 21.19001
#
# Velocity S-wave (km/s) = 3.02477 3.53463 3.28959
# Velocity P-wave (km/s) = 6.04552 6.50087 6.27732
#
# Compressibility (1/GPa) = 0.02097321
#
# Stress axis : x y z
#
# Youngs Moduli (GPa) = 68.06554 71.06915 75.26749
#
# Poissons Ratio (x) = 0.07216 0.29041
# Poissons Ratio (y) = 0.06911 0.42631
# Poissons Ratio (z) = 0.26263 0.40253
#
# Static dielectric constant tensor:
#      x y z
#    x 3.559580 0.000000 0.000000 
#    y 0.000000 3.713570 0.000000 
#    z 0.000000 0.000000 3.416700 
# 
# 
# High freq. dielectric constant tensor:
#      x y z
#    x 1.743300 0.000000 0.000000 
#    y 0.000000 1.771020 0.000000 
#    z 0.000000 0.000000 1.742780 
# 
# From -- ./inp_files/48768.got.cif
#   From: 2010.03.12/outbox.cif.g09.slc.cpg/sg74_25_cif.got.tgz:48768.got - 2010.04.16 15:46:19.
