data_PCOD8298477
_publ_section_title
;
Structure prediction by ZEFSAII (Michael W. Deem and Ramdas Pophale) SiO2 
 PCOD8298477
Probable space group: I M M A
;
_chemical_formula_sum "Si O2"
_cell_formula_units_Z 96
_cell_length_a 17.618623
_cell_length_b 10.990963
_cell_length_c 25.897891
_cell_angle_alpha 90.000000
_cell_angle_beta 90.000000
_cell_angle_gamma 90.000000
_cell_volume 5015.013509
_symmetry_space_group_name_H-M "I M M A"
_symmetry_group_IT_number 74
_symmetry_cell_setting 'orthorhombic'
loop_
_space_group_symop_operation_xyz
x,y,z
-x,1/2-y,z
x,-y,-z
-x,1/2+y,-z
-x,-y,-z
x,1/2+y,-z
-x,y,z
x,1/2-y,z
1/2+x,1/2+y,1/2+z
1/2-x,-y,1/2+z
1/2+x,1/2-y,1/2-z
1/2-x,y,1/2-z
1/2-x,1/2-y,1/2-z
1/2+x,y,1/2-z
1/2-x,1/2+y,1/2+z
1/2+x,-y,1/2+z
loop_
_atom_site_type_symbol
_atom_site_label
_atom_site_fract_x
_atom_site_fract_y
_atom_site_fract_z
Si Si1 0.585046 0.007767 0.417773
Si Si2 0.910146 0.250000 0.888726
Si Si3 0.087565 0.008790 0.716297
Si Si4 0.090063 0.750000 0.227003
Si Si5 0.703747 0.388620 0.148387
Si Si6 0.230678 0.389378 0.036979
Si Si7 0.866486 0.888419 0.816011
O O1 0.500000 0.024535 0.439977
O O2 0.614624 0.868021 0.421908
O O3 0.641349 0.093982 0.449688
O O4 0.583854 0.035156 0.356570
O O5 0.874226 0.250000 0.830783
O O6 0.000000 0.250000 0.881688
O O7 0.135263 0.976765 0.665204
O O8 0.100427 0.904365 0.758962
O O9 0.000000 0.017008 0.699790
O O10 0.118479 0.133086 0.741362
O O11 0.000000 0.750000 0.223518
O O12 0.680558 0.250000 0.160411
O O13 0.718886 0.406166 0.087878
O O14 0.778071 0.426104 0.181152
O O15 0.241164 0.250000 0.015278
O O16 0.257428 0.500000 0.000000
O O17 0.874355 0.750000 0.833689
#
# Coordination Sequence:
#
# PCOD8298477 Si02
#       7
#    16   8  16   8  16  16  16
#     4  10  19  32  53  79 109 144 184 219 258 312
#     4   9  16  30  49  73 111 155 182 214 259 300
#     4  11  20  32  52  78 108 143 181 218 261 311
#     4   9  18  32  46  72 116 150 174 216 262 296
#     4   9  20  38  54  75 109 141 172 219 271 316
#     4  10  23  42  61  79 104 137 174 227 286 330
#     4  10  19  31  49  74 110 149 178 209 254 310
#
# _framework density 19.142520999999999
#
# number of rings (size 3 to 8) (size 9 to 14) (size 15 to 20)
#    0.000    2.167    1.667    3.000    1.167    5.000 
#    1.500    2.500    0.000    0.500    0.000    0.000 
#    0.000    0.000    0.000    0.000    0.000    0.000 
#
# Total GULP energy -595092.245626 kJ/mol
# GULP energy per Si atom -12397.755117 kJ/mol
# Density = 1.909895 g / cm^3
# Si number density = 19.142521 Si / 1000 Ang^3
#
#
#
# Elastic Constant Matrix: (Units=GPa)
#
#
# Indices 1 2 3 4 5 6 
#
# 1 48.3617 25.1346 13.6822 0.0000 0.0000 0.0000
# 2 25.1346 102.2184 28.7951 0.0000 0.0000 0.0000
# 3 13.6822 28.7951 54.2019 0.0000 0.0000 0.0000
# 4 0.0000 0.0000 0.0000 35.3363 0.0000 0.0000
# 5 0.0000 0.0000 0.0000 0.0000 12.1912 0.0000
# 6 0.0000 0.0000 0.0000 0.0000 0.0000 24.6857
#
#
#
# Elastic Compliance Matrix: (Units=1/GPa)
#
#
# Indices 1 2 3 4 5 6 
#
# 1 0.024251 -0.004985 -0.003474 0.000000 0.000000 0.000000
# 2 -0.004985 0.012529 -0.005398 0.000000 0.000000 0.000000
# 3 -0.003474 -0.005398 0.022194 0.000000 0.000000 0.000000
# 4 0.000000 0.000000 0.000000 0.028300 0.000000 0.000000
# 5 0.000000 0.000000 0.000000 0.000000 0.082026 0.000000
# 6 0.000000 0.000000 0.000000 0.000000 0.000000 0.040509
#
#
# Mechanical properties :
#
#
# Convention : Reuss Voigt Hill
#
# Bulk Modulus (GPa) = 31.98781 37.77843 34.88312
# Shear Modulus (GPa) = 20.16601 23.58731 21.87666
#
# Velocity S-wave (km/s) = 3.24924 3.51407 3.38425
# Velocity P-wave (km/s) = 5.55188 6.02023 5.79079
#
# Compressibility (1/GPa) = 0.03126191
#
# Stress axis : x y z
#
# Youngs Moduli (GPa) = 41.23575 79.81321 45.05707
#
# Poissons Ratio (x) = 0.39783 0.15651
# Poissons Ratio (y) = 0.20554 0.24322
# Poissons Ratio (z) = 0.14324 0.43083
#
# Static dielectric constant tensor:
#      x y z
#    x 3.182270 0.000000 0.000000 
#    y 0.000000 3.763020 0.000000 
#    z 0.000000 0.000000 3.306570 
# 
# 
# High freq. dielectric constant tensor:
#      x y z
#    x 1.705330 0.000000 0.000000 
#    y 0.000000 1.758080 0.000000 
#    z 0.000000 0.000000 1.724940 
# 
# From -- ./inp_files/60808.got.cif
#   From: 2010.03.12/outbox.cif.g09.slc.cpg/sg74_31_cif.got.tgz:60808.got - 2010.04.16 15:46:19.
