data_PCOD8298117
_publ_section_title
;
Structure prediction by ZEFSAII (Michael W. Deem and Ramdas Pophale) SiO2 
 PCOD8298117
Probable space group: I M M A
;
_chemical_formula_sum "Si O2"
_cell_formula_units_Z 60
_cell_length_a 21.912601
_cell_length_b 13.743747
_cell_length_c 11.570800
_cell_angle_alpha 90.000000
_cell_angle_beta 90.000000
_cell_angle_gamma 90.000000
_cell_volume 3484.676525
_symmetry_space_group_name_H-M "I M M A"
_symmetry_group_IT_number 74
_symmetry_cell_setting 'orthorhombic'
loop_
_space_group_symop_operation_xyz
x,y,z
-x,1/2-y,z
x,-y,-z
-x,1/2+y,-z
-x,-y,-z
x,1/2+y,-z
-x,y,z
x,1/2-y,z
1/2+x,1/2+y,1/2+z
1/2-x,-y,1/2+z
1/2+x,1/2-y,1/2-z
1/2-x,y,1/2-z
1/2-x,1/2-y,1/2-z
1/2+x,y,1/2-z
1/2-x,1/2+y,1/2+z
1/2+x,-y,1/2+z
loop_
_atom_site_type_symbol
_atom_site_label
_atom_site_fract_x
_atom_site_fract_y
_atom_site_fract_z
Si Si1 0.000000 0.250000 0.700336
Si Si2 0.128455 0.250000 0.821450
Si Si3 0.691888 0.385715 0.514856
Si Si4 0.315203 0.250000 0.309047
Si Si5 0.500000 0.385577 0.010305
Si Si6 0.204038 0.750000 0.409014
Si Si7 0.599374 0.750000 0.905959
O O1 0.940623 0.250000 0.780004
O O2 0.000000 0.154954 0.620129
O O3 0.139098 0.152918 0.898678
O O4 0.179390 0.250000 0.721069
O O5 0.692559 0.500000 0.500000
O O6 0.679200 0.345733 0.386971
O O7 0.756223 0.346480 0.565012
O O8 0.250000 0.250000 0.250000
O O9 0.370025 0.250000 0.218545
O O10 0.500000 0.500000 0.000000
O O11 0.559042 0.347494 0.079807
O O12 0.147254 0.750000 0.492351
#
# Coordination Sequence:
#
# PCOD8298117 Si02
#       7
#     4   8  16   8   8   8   8
#     4  10  20  40  60  76 116 154 186 240 276 324
#     4  10  20  40  58  79 114 153 191 229 286 326
#     4  10  22  35  55  88 113 146 194 229 275 342
#     4  10  19  37  53  76 119 152 180 228 289 332
#     4  10  22  36  57  88 110 142 195 229 284 335
#     4  10  18  38  57  80 116 148 178 228 290 336
#     4  10  19  39  57  79 118 148 176 232 286 333
#
# _framework density 17.218242
#
# number of rings (size 3 to 8) (size 9 to 14) (size 15 to 20)
#    0.000    2.400    5.333    1.600    0.000    5.333 
#    0.000    6.000    0.000    0.000    0.000    0.000 
#    0.000    0.000    0.000    0.000    0.000    0.000 
#
# Total GULP energy -371878.352276 kJ/mol
# GULP energy per Si atom -12395.945076 kJ/mol
# Density = 1.717905 g / cm^3
# Si number density = 17.218242 Si / 1000 Ang^3
#
#
#
# Elastic Constant Matrix: (Units=GPa)
#
#
# Indices 1 2 3 4 5 6 
#
# 1 138.2924 60.9741 71.0528 0.0000 0.0000 0.0000
# 2 60.9741 193.2890 68.5243 0.0000 0.0000 0.0000
# 3 71.0528 68.5243 142.9691 0.0000 0.0000 0.0000
# 4 0.0000 0.0000 0.0000 13.4278 0.0000 0.0000
# 5 0.0000 0.0000 0.0000 0.0000 39.0076 0.0000
# 6 0.0000 0.0000 0.0000 0.0000 0.0000 -25.5580
#
#
#
# Elastic Compliance Matrix: (Units=1/GPa)
#
#
# Indices 1 2 3 4 5 6 
#
# 1 0.010156 -0.001704 -0.004231 0.000000 0.000000 0.000000
# 2 -0.001704 0.006519 -0.002277 0.000000 0.000000 0.000000
# 3 -0.004231 -0.002277 0.010189 0.000000 0.000000 0.000000
# 4 0.000000 0.000000 0.000000 0.074472 0.000000 0.000000
# 5 0.000000 0.000000 0.000000 0.000000 0.025636 0.000000
# 6 0.000000 0.000000 0.000000 0.000000 0.000000 -0.039127
#
#
# Mechanical properties :
#
#
# Convention : Reuss Voigt Hill
#
# Bulk Modulus (GPa) = 95.79402 97.29476 96.54439
# Shear Modulus (GPa) = 46.40437 23.64210 35.02323
#
# Velocity S-wave (km/s) = 5.19704 3.70954 4.51497
# Velocity P-wave (km/s) = 9.57957 8.65893 9.13086
#
# Compressibility (1/GPa) = 0.01043906
#
# Stress axis : x y z
#
# Youngs Moduli (GPa) = 98.46419 153.40917 98.14847
#
# Poissons Ratio (x) = 0.26140 0.41523
# Poissons Ratio (y) = 0.16778 0.22353
# Poissons Ratio (z) = 0.41657 0.34938
#
# Static dielectric constant tensor:
#      x y z
#    x 3.359000 0.000000 0.000000 
#    y 0.000000 3.016450 0.000000 
#    z 0.000000 0.000000 3.439420 
# 
# 
# High freq. dielectric constant tensor:
#      x y z
#    x 1.667760 0.000000 0.000000 
#    y 0.000000 1.648400 0.000000 
#    z 0.000000 0.000000 1.680320 
# 
# From -- ./inp_files/20193.got.cif
#   From: 2010.03.12/outbox.cif.g09.slc.cpg/sg74_11_cif.got.tgz:20193.got - 2010.04.16 15:46:19.
