data_PCOD8298016
_publ_section_title
;
Structure prediction by ZEFSAII (Michael W. Deem and Ramdas Pophale) SiO2 
 PCOD8298016
Probable space group: I M M A
;
_chemical_formula_sum "Si O2"
_cell_formula_units_Z 88
_cell_length_a 18.325770
_cell_length_b 19.971169
_cell_length_c 14.786347
_cell_angle_alpha 90.000000
_cell_angle_beta 90.000000
_cell_angle_gamma 90.000000
_cell_volume 5411.611515
_symmetry_space_group_name_H-M "I M M A"
_symmetry_group_IT_number 74
_symmetry_cell_setting 'orthorhombic'
loop_
_space_group_symop_operation_xyz
x,y,z
-x,1/2-y,z
x,-y,-z
-x,1/2+y,-z
-x,-y,-z
x,1/2+y,-z
-x,y,z
x,1/2-y,z
1/2+x,1/2+y,1/2+z
1/2-x,-y,1/2+z
1/2+x,1/2-y,1/2-z
1/2-x,y,1/2-z
1/2-x,1/2-y,1/2-z
1/2+x,y,1/2-z
1/2-x,1/2+y,1/2+z
1/2+x,-y,1/2+z
loop_
_atom_site_type_symbol
_atom_site_label
_atom_site_fract_x
_atom_site_fract_y
_atom_site_fract_z
Si Si1 0.843612 0.379848 0.166774
Si Si2 0.213613 0.328295 0.447241
Si Si3 0.420583 0.327329 0.165192
Si Si4 0.250000 0.491766 0.250000
Si Si5 0.230049 0.938511 0.071372
Si Si6 0.078686 0.576465 0.012413
O O1 0.772255 0.340523 0.132301
O O2 0.889712 0.334838 0.234154
O O3 0.819318 0.447401 0.219672
O O4 0.895716 0.394048 0.083000
O O5 0.213962 0.250000 0.474350
O O6 0.136180 0.354450 0.409033
O O7 0.227297 0.373824 0.534862
O O8 0.500000 0.363135 0.155203
O O9 0.430752 0.250000 0.146600
O O10 0.268373 0.539340 0.164451
O O11 0.144966 0.915303 0.084837
O O12 0.231813 0.000000 0.000000
O O13 0.000000 0.609979 0.041673
O O14 0.061268 0.500000 0.000000
#
# Coordination Sequence:
#
# PCOD8298016 Si02
#       6
#    16  16  16   8  16  16
#     4  11  17  29  47  72  96 125 161 202 249 301
#     4  10  19  32  50  69  95 131 167 204 244 292
#     4  10  19  29  44  70 101 130 160 198 248 301
#     4  12  18  30  52  74  94 130 164 202 246 292
#     4  10  18  33  50  72  97 128 165 201 244 294
#     4   9  16  27  43  66  96 124 154 193 241 295
#
# _framework density 16.261330000000001
#
# number of rings (size 3 to 8) (size 9 to 14) (size 15 to 20)
#    0.000    1.818    7.273    1.091    0.000    1.455 
#    0.000    0.455    0.000   12.000    0.000    0.000 
#    0.000    0.000    0.000    0.000    0.000    0.000 
#
# Total GULP energy -545108.689030 kJ/mol
# GULP energy per Si atom -12388.833842 kJ/mol
# Density = 1.622432 g / cm^3
# Si number density = 16.261330 Si / 1000 Ang^3
#
#
#
# Elastic Constant Matrix: (Units=GPa)
#
#
# Indices 1 2 3 4 5 6 
#
# 1 89.9987 18.5323 19.9308 0.0000 0.0000 0.0000
# 2 18.5323 53.6785 24.7096 0.0000 0.0000 0.0000
# 3 19.9308 24.7096 66.1314 0.0000 0.0000 0.0000
# 4 0.0000 0.0000 0.0000 29.5566 0.0000 0.0000
# 5 0.0000 0.0000 0.0000 0.0000 16.2734 0.0000
# 6 0.0000 0.0000 0.0000 0.0000 0.0000 18.1772
#
#
#
# Elastic Compliance Matrix: (Units=1/GPa)
#
#
# Indices 1 2 3 4 5 6 
#
# 1 0.012311 -0.003071 -0.002563 0.000000 0.000000 0.000000
# 2 -0.003071 0.023265 -0.007767 0.000000 0.000000 0.000000
# 3 -0.002563 -0.007767 0.018796 0.000000 0.000000 0.000000
# 4 0.000000 0.000000 0.000000 0.033833 0.000000 0.000000
# 5 0.000000 0.000000 0.000000 0.000000 0.061450 0.000000
# 6 0.000000 0.000000 0.000000 0.000000 0.000000 0.055014
#
#
# Mechanical properties :
#
#
# Convention : Reuss Voigt Hill
#
# Bulk Modulus (GPa) = 36.27100 37.35046 36.81073
# Shear Modulus (GPa) = 20.77603 22.57716 21.67660
#
# Velocity S-wave (km/s) = 3.57828 3.73016 3.65501
# Velocity P-wave (km/s) = 6.27898 6.44755 6.36382
#
# Compressibility (1/GPa) = 0.02757024
#
# Stress axis : x y z
#
# Youngs Moduli (GPa) = 81.22712 42.98289 53.20241
#
# Poissons Ratio (x) = 0.13198 0.13636
# Poissons Ratio (y) = 0.24941 0.41325
# Poissons Ratio (z) = 0.20819 0.33387
#
# Static dielectric constant tensor:
#      x y z
#    x 3.793490 0.000000 0.000000 
#    y 0.000000 2.876550 0.000000 
#    z 0.000000 0.000000 2.887320 
# 
# 
# High freq. dielectric constant tensor:
#      x y z
#    x 1.632960 0.000000 0.000000 
#    y 0.000000 1.605190 0.000000 
#    z 0.000000 0.000000 1.596730 
# 
# From -- ./inp_files/34265.got.cif
#   From: 2010.03.12/outbox.cif.g09.slc.cpg/sg74_18_cif.got.tgz:34265.got - 2010.04.16 15:46:19.
