data_PCOD8298896
_publ_section_title
;
Structure prediction by ZEFSAII (Michael W. Deem and Ramdas Pophale) SiO2 
 PCOD8298896
Probable space group: I M M A
;
_chemical_formula_sum "Si O2"
_cell_formula_units_Z 72
_cell_length_a 15.584724
_cell_length_b 8.532432
_cell_length_c 26.930841
_cell_angle_alpha 90.000000
_cell_angle_beta 90.000000
_cell_angle_gamma 90.000000
_cell_volume 3581.144680
_symmetry_space_group_name_H-M "I M M A"
_symmetry_group_IT_number 74
_symmetry_cell_setting 'orthorhombic'
loop_
_space_group_symop_operation_xyz
x,y,z
-x,1/2-y,z
x,-y,-z
-x,1/2+y,-z
-x,-y,-z
x,1/2+y,-z
-x,y,z
x,1/2-y,z
1/2+x,1/2+y,1/2+z
1/2-x,-y,1/2+z
1/2+x,1/2-y,1/2-z
1/2-x,y,1/2-z
1/2-x,1/2-y,1/2-z
1/2+x,y,1/2-z
1/2-x,1/2+y,1/2+z
1/2+x,-y,1/2+z
loop_
_atom_site_type_symbol
_atom_site_label
_atom_site_fract_x
_atom_site_fract_y
_atom_site_fract_z
Si Si1 0.000000 0.564482 0.723283
Si Si2 0.000000 0.433793 0.614507
Si Si3 0.670527 0.936693 0.607793
Si Si4 0.830120 0.563901 0.780734
Si Si5 0.658274 0.435501 0.054650
Si Si6 0.500000 0.936082 0.554767
O O1 0.000000 0.470295 0.672468
O O2 0.082279 0.511094 0.754715
O O3 0.000000 0.750000 0.712273
O O4 0.083932 0.508179 0.590673
O O5 0.000000 0.250000 0.604751
O O6 0.670279 0.750000 0.609114
O O7 0.674512 0.004555 0.663597
O O8 0.751620 0.998772 0.576378
O O9 0.584032 0.001073 0.582602
O O10 0.824952 0.750000 0.782754
O O11 0.750000 0.494946 0.750000
O O12 0.657290 0.250000 0.052588
O O13 0.642762 0.500000 0.000000
O O14 0.500000 0.750000 0.553979
O O15 0.500000 0.000000 0.500000
#
# Coordination Sequence:
#
# PCOD8298896 Si02
#       6
#     8   8  16  16  16   8
#     4  10  19  33  57  84 109 140 181 228 273 320
#     4  12  25  40  57  79 110 146 185 230 282 337
#     4   9  18  32  54  84 115 145 179 223 269 318
#     4   9  16  28  50  80 108 135 174 220 263 310
#     4  11  22  38  59  83 112 146 186 229 276 328
#     4  10  19  33  53  79 111 144 179 218 263 313
#
# _framework density 20.105301999999998
#
# number of rings (size 3 to 8) (size 9 to 14) (size 15 to 20)
#    0.000    2.000    0.000    4.667    0.000    6.222 
#    0.000    1.111    0.000   10.000    0.000    0.000 
#    0.000    0.000    0.000    0.000    0.000    0.000 
#
# Total GULP energy -446490.984354 kJ/mol
# GULP energy per Si atom -12402.527343 kJ/mol
# Density = 2.005954 g / cm^3
# Si number density = 20.105302 Si / 1000 Ang^3
#
#
#
# Elastic Constant Matrix: (Units=GPa)
#
#
# Indices 1 2 3 4 5 6 
#
# 1 159.8343 19.5365 49.8330 0.0000 0.0000 0.0000
# 2 19.5365 37.1628 14.3128 0.0000 0.0000 0.0000
# 3 49.8330 14.3128 143.7449 0.0000 0.0000 0.0000
# 4 0.0000 0.0000 0.0000 28.8730 0.0000 0.0000
# 5 0.0000 0.0000 0.0000 0.0000 50.7938 0.0000
# 6 0.0000 0.0000 0.0000 0.0000 0.0000 -1.9771
#
#
#
# Elastic Compliance Matrix: (Units=1/GPa)
#
#
# Indices 1 2 3 4 5 6 
#
# 1 0.007320 -0.002985 -0.002240 0.000000 0.000000 0.000000
# 2 -0.002985 0.029199 -0.001872 0.000000 0.000000 0.000000
# 3 -0.002240 -0.001872 0.007920 0.000000 0.000000 0.000000
# 4 0.000000 0.000000 0.000000 0.034634 0.000000 0.000000
# 5 0.000000 0.000000 0.000000 0.000000 0.019687 0.000000
# 6 0.000000 0.000000 0.000000 0.000000 0.000000 -0.505783
#
#
# Mechanical properties :
#
#
# Convention : Reuss Voigt Hill
#
# Bulk Modulus (GPa) = 33.06581 56.45629 44.76105
# Shear Modulus (GPa) = -13.06351 32.67526 9.80588
#
# Velocity S-wave (km/s) = -2.55179 4.03576 2.21085
# Velocity P-wave (km/s) = 2.79282 7.06100 5.36924
#
# Compressibility (1/GPa) = 0.03024272
#
# Stress axis : x y z
#
# Youngs Moduli (GPa) = 136.61456 34.24766 126.26415
#
# Poissons Ratio (x) = 0.10224 0.28288
# Poissons Ratio (y) = 0.40782 0.23643
# Poissons Ratio (z) = 0.30607 0.06413
#
# Static dielectric constant tensor:
#      x y z
#    x 3.977240 0.000000 0.000000 
#    y 0.000000 3.168620 0.000000 
#    z 0.000000 0.000000 3.856060 
# 
# 
# High freq. dielectric constant tensor:
#      x y z
#    x 1.807540 0.000000 0.000000 
#    y 0.000000 1.735480 0.000000 
#    z 0.000000 0.000000 1.805290 
# 
# From -- ./inp_files/63654.got.cif
#   From: 2010.03.12/outbox.cif.g09.slc.cpg/sg74_32_cif.got.tgz:63654.got - 2010.04.16 15:46:19.
