data_PCOD8298539
_publ_section_title
;
Structure prediction by ZEFSAII (Michael W. Deem and Ramdas Pophale) SiO2 
 PCOD8298539
Probable space group: I M M A
;
_chemical_formula_sum "Si O2"
_cell_formula_units_Z 96
_cell_length_a 20.426711
_cell_length_b 14.735678
_cell_length_c 17.909506
_cell_angle_alpha 90.000000
_cell_angle_beta 90.000000
_cell_angle_gamma 90.000000
_cell_volume 5390.787022
_symmetry_space_group_name_H-M "I M M A"
_symmetry_group_IT_number 74
_symmetry_cell_setting 'orthorhombic'
loop_
_space_group_symop_operation_xyz
x,y,z
-x,1/2-y,z
x,-y,-z
-x,1/2+y,-z
-x,-y,-z
x,1/2+y,-z
-x,y,z
x,1/2-y,z
1/2+x,1/2+y,1/2+z
1/2-x,-y,1/2+z
1/2+x,1/2-y,1/2-z
1/2-x,y,1/2-z
1/2-x,1/2-y,1/2-z
1/2+x,y,1/2-z
1/2-x,1/2+y,1/2+z
1/2+x,-y,1/2+z
loop_
_atom_site_type_symbol
_atom_site_label
_atom_site_fract_x
_atom_site_fract_y
_atom_site_fract_z
Si Si1 0.869135 0.355553 0.802168
Si Si2 0.571262 0.353867 0.850706
Si Si3 0.198191 0.356859 0.041776
Si Si4 0.179547 0.074744 0.553778
Si Si5 0.233035 0.990157 0.830951
Si Si6 0.429074 0.354743 0.543479
O O1 0.845504 0.250000 0.796054
O O2 0.899687 0.394857 0.725832
O O3 0.808136 0.418116 0.822319
O O4 0.922025 0.366572 0.867719
O O5 0.500000 0.398707 0.868560
O O6 0.559837 0.250000 0.833229
O O7 0.620278 0.360752 0.921263
O O8 0.195274 0.250000 0.058672
O O9 0.200104 0.410816 0.119747
O O10 0.133091 0.396021 0.000766
O O11 0.260314 0.375103 0.987836
O O12 0.201690 0.022815 0.628199
O O13 0.148000 0.000000 0.500000
O O14 0.250000 0.948212 0.750000
O O15 0.500000 0.397901 0.520344
O O16 0.430066 0.250000 0.521996
#
# Coordination Sequence:
#
# PCOD8298539 Si02
#       6
#    16  16  16  16  16  16
#     4  10  19  31  51  78 109 141 168 206 259 315
#     4  10  20  33  51  77 106 137 173 210 261 324
#     4  10  21  36  55  78 106 139 179 221 261 307
#     4  10  20  34  54  76 104 134 171 224 265 309
#     4  11  21  35  54  77 107 136 182 219 258 312
#     4   9  17  31  52  78 109 141 171 208 255 308
#
# _framework density 17.808160000000001
#
# number of rings (size 3 to 8) (size 9 to 14) (size 15 to 20)
#    0.000    2.000    3.333    1.000    0.000    3.667 
#    0.000    2.500    0.000    0.000    0.000    0.000 
#    0.000    0.000    0.000    0.000    0.000    0.000 
#
# Total GULP energy -594742.843761 kJ/mol
# GULP energy per Si atom -12390.475912 kJ/mol
# Density = 1.776763 g / cm^3
# Si number density = 17.808160 Si / 1000 Ang^3
#
#
#
# Elastic Constant Matrix: (Units=GPa)
#
#
# Indices 1 2 3 4 5 6 
#
# 1 104.0741 29.5124 69.1313 0.0000 0.0000 0.0000
# 2 29.5124 59.0785 38.2043 0.0000 0.0000 0.0000
# 3 69.1313 38.2043 118.7444 0.0000 0.0000 0.0000
# 4 0.0000 0.0000 0.0000 29.3072 0.0000 0.0000
# 5 0.0000 0.0000 0.0000 0.0000 12.3586 0.0000
# 6 0.0000 0.0000 0.0000 0.0000 0.0000 8.5529
#
#
#
# Elastic Compliance Matrix: (Units=1/GPa)
#
#
# Indices 1 2 3 4 5 6 
#
# 1 0.015950 -0.002478 -0.008488 0.000000 0.000000 0.000000
# 2 -0.002478 0.021759 -0.005558 0.000000 0.000000 0.000000
# 3 -0.008488 -0.005558 0.015151 0.000000 0.000000 0.000000
# 4 0.000000 0.000000 0.000000 0.034121 0.000000 0.000000
# 5 0.000000 0.000000 0.000000 0.000000 0.080915 0.000000
# 6 0.000000 0.000000 0.000000 0.000000 0.000000 0.116919
#
#
# Mechanical properties :
#
#
# Convention : Reuss Voigt Hill
#
# Bulk Modulus (GPa) = 50.47714 61.73253 56.10483
# Shear Modulus (GPa) = 15.40985 19.71368 17.56176
#
# Velocity S-wave (km/s) = 2.94483 3.33077 3.14373
# Velocity P-wave (km/s) = 6.32212 7.03794 6.68961
#
# Compressibility (1/GPa) = 0.01981095
#
# Stress axis : x y z
#
# Youngs Moduli (GPa) = 62.69710 45.95869 66.00109
#
# Poissons Ratio (x) = 0.11391 0.56023
# Poissons Ratio (y) = 0.15539 0.36681
# Poissons Ratio (z) = 0.53219 0.25542
#
# Static dielectric constant tensor:
#      x y z
#    x 3.479530 0.000000 0.000000 
#    y 0.000000 3.082870 0.000000 
#    z 0.000000 0.000000 3.420950 
# 
# 
# High freq. dielectric constant tensor:
#      x y z
#    x 1.688610 0.000000 0.000000 
#    y 0.000000 1.662470 0.000000 
#    z 0.000000 0.000000 1.689180 
# 
# From -- ./inp_files/32399.got.cif
#   From: 2010.03.12/outbox.cif.g09.slc.cpg/sg74_17_cif.got.tgz:32399.got - 2010.04.16 15:46:19.
