data_PCOD8298035
_publ_section_title
;
Structure prediction by ZEFSAII (Michael W. Deem and Ramdas Pophale) SiO2 
 PCOD8298035
Probable space group: I M M A
;
_chemical_formula_sum "Si O2"
_cell_formula_units_Z 80
_cell_length_a 17.972671
_cell_length_b 27.833317
_cell_length_c 7.839588
_cell_angle_alpha 90.000000
_cell_angle_beta 90.000000
_cell_angle_gamma 90.000000
_cell_volume 3921.668048
_symmetry_space_group_name_H-M "I M M A"
_symmetry_group_IT_number 74
_symmetry_cell_setting 'orthorhombic'
loop_
_space_group_symop_operation_xyz
x,y,z
-x,1/2-y,z
x,-y,-z
-x,1/2+y,-z
-x,-y,-z
x,1/2+y,-z
-x,y,z
x,1/2-y,z
1/2+x,1/2+y,1/2+z
1/2-x,-y,1/2+z
1/2+x,1/2-y,1/2-z
1/2-x,y,1/2-z
1/2-x,1/2-y,1/2-z
1/2+x,y,1/2-z
1/2-x,1/2+y,1/2+z
1/2+x,-y,1/2+z
loop_
_atom_site_type_symbol
_atom_site_label
_atom_site_fract_x
_atom_site_fract_y
_atom_site_fract_z
Si Si1 0.411564 0.625898 0.371020
Si Si2 0.411643 0.696362 0.672980
Si Si3 0.419293 0.465207 0.153342
Si Si4 0.911717 0.134359 0.485099
Si Si5 0.683149 0.033377 0.639268
O O1 0.500000 0.616388 0.377398
O O2 0.385973 0.665351 0.509375
O O3 0.369306 0.576894 0.421809
O O4 0.386465 0.643517 0.181216
O O5 0.500000 0.697962 0.677055
O O6 0.378718 0.750000 0.653884
O O7 0.381811 0.674736 0.853135
O O8 0.500000 0.452711 0.238665
O O9 0.380534 0.416735 0.081065
O O10 0.367104 0.491595 0.283455
O O11 0.435677 0.500000 0.000000
O O12 0.000000 0.132818 0.481430
O O13 0.750000 0.055380 0.750000
O O14 0.724249 0.000000 0.500000
#
# Coordination Sequence:
#
# PCOD8298035 Si02
#       5
#    16  16  16  16  16
#     4  10  20  36  58  83 110 148 192 230 277 340
#     4   9  18  32  52  84 118 142 179 235 287 335
#     4  10  18  33  56  80 110 145 184 229 273 335
#     4   9  17  30  53  80 109 144 180 223 277 331
#     4  12  25  37  52  78 115 152 191 235 283 336
#
# _framework density 20.399481000000002
#
# number of rings (size 3 to 8) (size 9 to 14) (size 15 to 20)
#    0.000    2.000    2.000    2.400    0.000    4.000 
#    0.000    4.000    0.000    0.600    0.000    1.400 
#    0.000    0.000    0.000    0.000    0.000    0.000 
#
# Total GULP energy -495602.010746 kJ/mol
# GULP energy per Si atom -12390.050269 kJ/mol
# Density = 2.035305 g / cm^3
# Si number density = 20.399481 Si / 1000 Ang^3
#
#
#
# Elastic Constant Matrix: (Units=GPa)
#
#
# Indices 1 2 3 4 5 6 
#
# 1 33.7714 21.1506 6.4667 -0.0001 -0.0003 0.0000
# 2 21.1506 162.0382 82.8056 0.0000 -0.0001 0.0000
# 3 6.4667 82.8056 103.3509 -0.0004 -0.0013 -0.0005
# 4 -0.0001 0.0000 -0.0004 35.7888 -0.0001 0.0000
# 5 -0.0003 -0.0001 -0.0013 -0.0001 14.5712 -0.0001
# 6 0.0000 0.0000 -0.0005 0.0000 -0.0001 5.8593
#
#
#
# Elastic Compliance Matrix: (Units=1/GPa)
#
#
# Indices 1 2 3 4 5 6 
#
# 1 0.032571 -0.005436 0.002317 0.000000 0.000001 0.000000
# 2 -0.005436 0.011357 -0.008759 0.000000 -0.000001 -0.000001
# 3 0.002317 -0.008759 0.016549 0.000000 0.000002 0.000001
# 4 0.000000 0.000000 0.000000 0.027942 0.000000 0.000000
# 5 0.000001 -0.000001 0.000002 0.000000 0.068629 0.000001
# 6 0.000000 -0.000001 0.000001 0.000000 0.000001 0.170669
#
#
# Mechanical properties :
#
#
# Convention : Reuss Voigt Hill
#
# Bulk Modulus (GPa) = 27.23188 57.77846 42.50517
# Shear Modulus (GPa) = 13.74710 23.82637 18.78673
#
# Velocity S-wave (km/s) = 2.59876 3.42129 3.03799
# Velocity P-wave (km/s) = 4.73107 6.63264 5.76086
#
# Compressibility (1/GPa) = 0.03672166
#
# Stress axis : x y z
#
# Youngs Moduli (GPa) = 30.70178 88.05071 60.42731
#
# Poissons Ratio (x) = 0.47860 -0.14001
# Poissons Ratio (y) = 0.16688 0.52930
# Poissons Ratio (z) = -0.07114 0.77126
#
# Static dielectric constant tensor:
#      x y z
#    x 3.177270 0.000000 0.000000 
#    y 0.000000 3.848070 0.000000 
#    z 0.000000 0.000000 3.846250 
# 
# 
# High freq. dielectric constant tensor:
#      x y z
#    x 1.747360 0.000000 0.000000 
#    y 0.000000 1.790410 0.000000 
#    z 0.000000 0.000000 1.809780 
# 
# From -- ./inp_files/10971.got.cif
#   From: 2010.03.12/outbox.cif.g09.slc.cpg/sg74_6_cif.got.tgz:10971.got - 2010.04.16 15:46:19.
