data_PCOD8298897
_publ_section_title
;
Structure prediction by ZEFSAII (Michael W. Deem and Ramdas Pophale) SiO2 
 PCOD8298897
Probable space group: I M M A
;
_chemical_formula_sum "Si O2"
_cell_formula_units_Z 104
_cell_length_a 27.601246
_cell_length_b 8.736081
_cell_length_c 22.962383
_cell_angle_alpha 90.000000
_cell_angle_beta 90.000000
_cell_angle_gamma 90.000000
_cell_volume 5536.844114
_symmetry_space_group_name_H-M "I M M A"
_symmetry_group_IT_number 74
_symmetry_cell_setting 'orthorhombic'
loop_
_space_group_symop_operation_xyz
x,y,z
-x,1/2-y,z
x,-y,-z
-x,1/2+y,-z
-x,-y,-z
x,1/2+y,-z
-x,y,z
x,1/2-y,z
1/2+x,1/2+y,1/2+z
1/2-x,-y,1/2+z
1/2+x,1/2-y,1/2-z
1/2-x,y,1/2-z
1/2-x,1/2-y,1/2-z
1/2+x,y,1/2-z
1/2-x,1/2+y,1/2+z
1/2+x,-y,1/2+z
loop_
_atom_site_type_symbol
_atom_site_label
_atom_site_fract_x
_atom_site_fract_y
_atom_site_fract_z
Si Si1 0.818298 0.571112 0.857193
Si Si2 0.896456 0.930337 0.063933
Si Si3 0.358689 0.071111 0.130189
Si Si4 0.500000 0.423104 0.561035
Si Si5 0.444381 0.930050 0.062305
Si Si6 0.195039 0.570547 0.259647
Si Si7 0.733878 0.927271 0.938802
O O1 0.815748 0.750000 0.841240
O O2 0.860432 0.537767 0.901852
O O3 0.831207 0.472085 0.800379
O O4 0.768096 0.511997 0.886594
O O5 0.881818 0.750000 0.064021
O O6 0.949507 0.957379 0.094544
O O7 0.897062 0.000000 0.000000
O O8 0.367916 0.250000 0.138440
O O9 0.321588 0.036885 0.077430
O O10 0.409686 0.992768 0.113589
O O11 0.334864 0.009042 0.189099
O O12 0.500000 0.250000 0.541980
O O13 0.500000 0.500000 0.500000
O O14 0.500000 0.973289 0.077959
O O15 0.437325 0.750000 0.057734
O O16 0.429692 0.000000 0.000000
O O17 0.194611 0.750000 0.271897
O O18 0.250000 0.508241 0.250000
O O19 0.744187 0.750000 0.946290
O O20 0.747980 0.000000 0.000000
#
# Coordination Sequence:
#
# PCOD8298897 Si02
#       7
#    16  16  16   8  16  16  16
#     4  11  22  37  55  78 110 148 186 230 280 332
#     4  10  19  33  53  80 110 143 182 225 278 333
#     4  11  22  38  60  85 115 154 194 238 286 342
#     4   8  16  30  50  74 104 138 174 218 265 318
#     4  10  21  38  61  91 125 158 195 242 296 353
#     4  11  23  39  60  84 109 147 192 234 279 335
#     4  10  22  35  51  78 113 148 181 222 275 330
#
# _framework density 18.783263000000002
#
# number of rings (size 3 to 8) (size 9 to 14) (size 15 to 20)
#    0.000    1.692    1.538    3.231    0.000    7.077 
#    0.000    0.000    1.692    0.000    0.000    0.000 
#    0.000    0.000    0.000    0.000    0.000    0.000 
#
# Total GULP energy -644543.389187 kJ/mol
# GULP energy per Si atom -12395.065177 kJ/mol
# Density = 1.874051 g / cm^3
# Si number density = 18.783263 Si / 1000 Ang^3
#
#
#
# Elastic Constant Matrix: (Units=GPa)
#
#
# Indices 1 2 3 4 5 6 
#
# 1 118.9125 42.3106 45.2317 0.0000 0.0000 0.0000
# 2 42.3106 67.4581 34.4260 0.0000 0.0000 0.0000
# 3 45.2317 34.4260 102.4765 0.0000 0.0000 0.0000
# 4 0.0000 0.0000 0.0000 34.8927 0.0000 0.0000
# 5 0.0000 0.0000 0.0000 0.0000 12.7482 0.0000
# 6 0.0000 0.0000 0.0000 0.0000 0.0000 27.6964
#
#
#
# Elastic Compliance Matrix: (Units=1/GPa)
#
#
# Indices 1 2 3 4 5 6 
#
# 1 0.011656 -0.005655 -0.003245 0.000000 0.000000 0.000000
# 2 -0.005655 0.020635 -0.004436 0.000000 0.000000 0.000000
# 3 -0.003245 -0.004436 0.012681 0.000000 0.000000 0.000000
# 4 0.000000 0.000000 0.000000 0.028659 0.000000 0.000000
# 5 0.000000 0.000000 0.000000 0.000000 0.078442 0.000000
# 6 0.000000 0.000000 0.000000 0.000000 0.000000 0.036106
#
#
# Mechanical properties :
#
#
# Convention : Reuss Voigt Hill
#
# Bulk Modulus (GPa) = 54.64581 59.19820 56.92200
# Shear Modulus (GPa) = 22.62950 26.19273 24.41111
#
# Velocity S-wave (km/s) = 3.47474 3.73831 3.60894
# Velocity P-wave (km/s) = 6.72714 7.08648 6.90915
#
# Compressibility (1/GPa) = 0.01829967
#
# Stress axis : x y z
#
# Youngs Moduli (GPa) = 85.79335 48.46236 78.85836
#
# Poissons Ratio (x) = 0.27404 0.25591
# Poissons Ratio (y) = 0.48513 0.34982
# Poissons Ratio (z) = 0.27841 0.21498
#
# Static dielectric constant tensor:
#      x y z
#    x 3.849680 0.000000 0.000000 
#    y 0.000000 3.436470 0.000000 
#    z 0.000000 0.000000 3.274430 
# 
# 
# High freq. dielectric constant tensor:
#      x y z
#    x 1.736330 0.000000 0.000000 
#    y 0.000000 1.739240 0.000000 
#    z 0.000000 0.000000 1.711950 
# 
# From -- ./inp_files/55237.got.cif
#   From: 2010.03.12/outbox.cif.g09.slc.cpg/sg74_28_cif.got.tgz:55237.got - 2010.04.16 15:46:19.
