data_PCOD8298079
_publ_section_title
;
Structure prediction by ZEFSAII (Michael W. Deem and Ramdas Pophale) SiO2 
 PCOD8298079
Probable space group: I M M A
;
_chemical_formula_sum "Si O2"
_cell_formula_units_Z 48
_cell_length_a 17.499363
_cell_length_b 10.495796
_cell_length_c 13.795520
_cell_angle_alpha 90.000000
_cell_angle_beta 90.000000
_cell_angle_gamma 90.000000
_cell_volume 2533.819629
_symmetry_space_group_name_H-M "I M M A"
_symmetry_group_IT_number 74
_symmetry_cell_setting 'orthorhombic'
loop_
_space_group_symop_operation_xyz
x,y,z
-x,1/2-y,z
x,-y,-z
-x,1/2+y,-z
-x,-y,-z
x,1/2+y,-z
-x,y,z
x,1/2-y,z
1/2+x,1/2+y,1/2+z
1/2-x,-y,1/2+z
1/2+x,1/2-y,1/2-z
1/2-x,y,1/2-z
1/2-x,1/2-y,1/2-z
1/2+x,y,1/2-z
1/2-x,1/2+y,1/2+z
1/2+x,-y,1/2+z
loop_
_atom_site_type_symbol
_atom_site_label
_atom_site_fract_x
_atom_site_fract_y
_atom_site_fract_z
Si Si1 0.664185 0.993263 0.790023
Si Si2 0.311173 0.250000 0.488273
Si Si3 0.663535 0.750000 0.291475
Si Si4 0.212300 0.000000 0.500000
Si Si5 0.410306 0.250000 0.299449
O O1 0.750000 0.973731 0.750000
O O2 0.660884 0.018514 0.905146
O O3 0.614412 0.872279 0.762101
O O4 0.624704 0.119700 0.745038
O O5 0.347217 0.250000 0.593929
O O6 0.262089 0.376611 0.475884
O O7 0.375896 0.250000 0.406891
O O8 0.750000 0.750000 0.250000
O O9 0.500000 0.250000 0.312287
#
# Coordination Sequence:
#
# PCOD8298079 Si02
#       5
#    16   8   8   8   8
#     4  11  20  38  62  92 118 156 210 259 303 350
#     4  12  19  34  58  92 116 156 201 249 312 351
#     4  10  18  34  58  88 122 143 197 264 303 348
#     4  12  20  32  66  94 114 146 216 270 296 340
#     4  12  26  41  57  89 137 171 193 237 310 384
#
# _framework density 18.943732000000001
#
# number of rings (size 3 to 8) (size 9 to 14) (size 15 to 20)
#    0.000    0.667   10.000    1.500    0.000    0.000 
#    0.000    9.167    0.000    0.000    0.000    0.000 
#    0.000    0.000    0.000    0.000    0.000    0.000 
#
# Total GULP energy -297543.701012 kJ/mol
# GULP energy per Si atom -12397.654209 kJ/mol
# Density = 1.890062 g / cm^3
# Si number density = 18.943732 Si / 1000 Ang^3
#
#
#
# Elastic Constant Matrix: (Units=GPa)
#
#
# Indices 1 2 3 4 5 6 
#
# 1 61.6462 39.9660 33.1876 0.0000 0.0000 0.0000
# 2 39.9660 162.7244 15.3900 0.0000 0.0000 0.0000
# 3 33.1876 15.3900 142.2109 0.0000 0.0000 0.0000
# 4 0.0000 0.0000 0.0000 36.6900 0.0000 0.0000
# 5 0.0000 0.0000 0.0000 0.0000 16.9447 0.0000
# 6 0.0000 0.0000 0.0000 0.0000 0.0000 -14.5926
#
#
#
# Elastic Compliance Matrix: (Units=1/GPa)
#
#
# Indices 1 2 3 4 5 6 
#
# 1 0.021888 -0.004943 -0.004573 0.000000 0.000000 0.000000
# 2 -0.004943 0.007325 0.000361 0.000000 0.000000 0.000000
# 3 -0.004573 0.000361 0.008060 0.000000 0.000000 0.000000
# 4 0.000000 0.000000 0.000000 0.027255 0.000000 0.000000
# 5 0.000000 0.000000 0.000000 0.000000 0.059015 0.000000
# 6 0.000000 0.000000 0.000000 0.000000 0.000000 -0.068528
#
#
# Mechanical properties :
#
#
# Convention : Reuss Voigt Hill
#
# Bulk Modulus (GPa) = 52.73560 60.40762 56.57161
# Shear Modulus (GPa) = 62.77555 26.34429 44.55992
#
# Velocity S-wave (km/s) = 5.76280 3.73320 4.85524
# Velocity P-wave (km/s) = 8.49578 7.10912 7.83319
#
# Compressibility (1/GPa) = 0.01896252
#
# Stress axis : x y z
#
# Youngs Moduli (GPa) = 45.68620 136.51214 124.06986
#
# Poissons Ratio (x) = 0.67484 0.56739
# Poissons Ratio (y) = 0.22585 -0.04478
# Poissons Ratio (z) = 0.20893 -0.04927
#
# Static dielectric constant tensor:
#      x y z
#    x 2.824820 0.000000 0.000000 
#    y 0.000000 4.177720 0.000000 
#    z 0.000000 0.000000 3.858920 
# 
# 
# High freq. dielectric constant tensor:
#      x y z
#    x 1.659790 0.000000 0.000000 
#    y 0.000000 1.773010 0.000000 
#    z 0.000000 0.000000 1.762480 
# 
# From -- ./inp_files/33413.got.cif
#   From: 2010.03.12/outbox.cif.g09.slc.cpg/sg74_17_cif.got.tgz:33413.got - 2010.04.16 15:46:19.
