data_PCOD8298013
_publ_section_title
;
Structure prediction by ZEFSAII (Michael W. Deem and Ramdas Pophale) SiO2 
 PCOD8298013
Probable space group: I M M A
;
_chemical_formula_sum "Si O2"
_cell_formula_units_Z 104
_cell_length_a 20.025307
_cell_length_b 27.454001
_cell_length_c 9.553073
_cell_angle_alpha 90.000000
_cell_angle_beta 90.000000
_cell_angle_gamma 90.000000
_cell_volume 5252.038783
_symmetry_space_group_name_H-M "I M M A"
_symmetry_group_IT_number 74
_symmetry_cell_setting 'orthorhombic'
loop_
_space_group_symop_operation_xyz
x,y,z
-x,1/2-y,z
x,-y,-z
-x,1/2+y,-z
-x,-y,-z
x,1/2+y,-z
-x,y,z
x,1/2-y,z
1/2+x,1/2+y,1/2+z
1/2-x,-y,1/2+z
1/2+x,1/2-y,1/2-z
1/2-x,y,1/2-z
1/2-x,1/2-y,1/2-z
1/2+x,y,1/2-z
1/2-x,1/2+y,1/2+z
1/2+x,-y,1/2+z
loop_
_atom_site_type_symbol
_atom_site_label
_atom_site_fract_x
_atom_site_fract_y
_atom_site_fract_z
Si Si1 0.424443 0.197510 0.322302
Si Si2 0.370718 0.644737 0.921561
Si Si3 0.651314 0.454259 0.410287
Si Si4 0.250000 0.388148 0.250000
Si Si5 0.420996 0.460545 0.116586
Si Si6 0.921620 0.628598 0.052231
Si Si7 0.922117 0.693398 0.317065
O O1 0.500000 0.205209 0.372394
O O2 0.388035 0.250000 0.317473
O O3 0.425014 0.172071 0.172715
O O4 0.388310 0.162408 0.432483
O O5 0.299727 0.645913 0.840498
O O6 0.394816 0.589920 0.947818
O O7 0.370906 0.676186 0.062981
O O8 0.677101 0.500000 0.500000
O O9 0.714222 0.422862 0.362188
O O10 0.609684 0.469847 0.271172
O O11 0.608889 0.424556 0.526719
O O12 0.500000 0.459926 0.135501
O O13 0.399007 0.500000 0.000000
O O14 0.903820 0.655520 0.195352
O O15 0.000000 0.622331 0.033856
O O16 0.908127 0.750000 0.275899
O O17 0.000000 0.687477 0.360207
#
# Coordination Sequence:
#
# PCOD8298013 Si02
#       7
#    16  16  16   8  16  16  16
#     4  10  18  32  60  90 116 151 190 236 298 360
#     4  11  21  38  60  82 119 159 205 249 287 346
#     4  11  24  42  63  86 114 159 203 252 296 356
#     4  10  24  44  61  80 114 158 217 252 294 334
#     4  10  21  36  59  92 125 152 187 244 314 370
#     4  10  20  37  61  92 127 152 183 238 305 370
#     4  10  21  37  61  95 129 157 188 237 305 370
#
# _framework density 19.801833999999999
#
# number of rings (size 3 to 8) (size 9 to 14) (size 15 to 20)
#    0.000    1.692    3.077    2.769    2.154    6.769 
#    0.000    1.538    0.000    0.923    0.000    0.000 
#    0.000    0.000    0.000    0.000    0.000    0.000 
#
# Total GULP energy -644412.250033 kJ/mol
# GULP energy per Si atom -12392.543270 kJ/mol
# Density = 1.975676 g / cm^3
# Si number density = 19.801834 Si / 1000 Ang^3
#
#
#
# Elastic Constant Matrix: (Units=GPa)
#
#
# Indices 1 2 3 4 5 6 
#
# 1 45.6501 16.0084 26.4998 0.0000 0.0000 0.0000
# 2 16.0084 97.1878 41.7031 0.0000 0.0000 0.0000
# 3 26.4998 41.7031 115.8714 0.0000 0.0000 0.0000
# 4 0.0000 0.0000 0.0000-1521.9952 0.0000 0.0000
# 5 0.0000 0.0000 0.0000 0.0000 22.8322 0.0000
# 6 0.0000 0.0000 0.0000 0.0000 0.0000 12.9815
#
#
#
# Elastic Compliance Matrix: (Units=1/GPa)
#
#
# Indices 1 2 3 4 5 6 
#
# 1 0.025589 -0.002015 -0.005127 0.000000 0.000000 0.000000
# 2 -0.002015 0.012327 -0.003976 0.000000 0.000000 0.000000
# 3 -0.005127 -0.003976 0.011234 0.000000 0.000000 0.000000
# 4 0.000000 0.000000 0.000000 -0.000657 0.000000 0.000000
# 5 0.000000 0.000000 0.000000 0.000000 0.043798 0.000000
# 6 0.000000 0.000000 0.000000 0.000000 0.000000 0.077033
#
#
# Mechanical properties :
#
#
# Convention : Reuss Voigt Hill
#
# Bulk Modulus (GPa) = 37.15521 47.45911 42.30716
# Shear Modulus (GPa) = 24.93394 -285.60310 -130.33458
#
# Velocity S-wave (km/s) = 3.55233 -12.02263 -8.12172
# Velocity P-wave (km/s) = 5.96906 12.98868 8.15709
#
# Compressibility (1/GPa) = 0.02691413
#
# Stress axis : x y z
#
# Youngs Moduli (GPa) = 39.08005 81.12081 89.01759
#
# Poissons Ratio (x) = 0.16345 0.45639
# Poissons Ratio (y) = 0.07874 0.35392
# Poissons Ratio (z) = 0.20036 0.32253
#
# Static dielectric constant tensor:
#      x y z
#    x 3.377890 0.000000 0.000000 
#    y 0.000000 3.911340 0.000000 
#    z 0.000000 0.000000 3.740380 
# 
# 
# High freq. dielectric constant tensor:
#      x y z
#    x 1.739370 0.000000 0.000000 
#    y 0.000000 1.784560 0.000000 
#    z 0.000000 0.000000 1.777670 
# 
# From -- ./inp_files/12916.got.cif
#   From: 2010.03.12/outbox.cif.g09.slc.cpg/sg74_7_cif.got.tgz:12916.got - 2010.04.16 15:46:19.
