data_PCOD8298620
_publ_section_title
;
Structure prediction by ZEFSAII (Michael W. Deem and Ramdas Pophale) SiO2 
 PCOD8298620
Probable space group: I M M A
;
_chemical_formula_sum "Si O2"
_cell_formula_units_Z 104
_cell_length_a 22.343967
_cell_length_b 9.019947
_cell_length_c 28.438639
_cell_angle_alpha 90.000000
_cell_angle_beta 90.000000
_cell_angle_gamma 90.000000
_cell_volume 5731.563064
_symmetry_space_group_name_H-M "I M M A"
_symmetry_group_IT_number 74
_symmetry_cell_setting 'orthorhombic'
loop_
_space_group_symop_operation_xyz
x,y,z
-x,1/2-y,z
x,-y,-z
-x,1/2+y,-z
-x,-y,-z
x,1/2+y,-z
-x,y,z
x,1/2-y,z
1/2+x,1/2+y,1/2+z
1/2-x,-y,1/2+z
1/2+x,1/2-y,1/2-z
1/2-x,y,1/2-z
1/2-x,1/2-y,1/2-z
1/2+x,y,1/2-z
1/2-x,1/2+y,1/2+z
1/2+x,-y,1/2+z
loop_
_atom_site_type_symbol
_atom_site_label
_atom_site_fract_x
_atom_site_fract_y
_atom_site_fract_z
Si Si1 0.934021 0.080810 0.543645
Si Si2 0.267217 0.921586 0.450765
Si Si3 0.000000 0.930244 0.947051
Si Si4 0.323738 0.575399 0.691717
Si Si5 0.335475 0.580429 0.116587
Si Si6 0.687807 0.423410 0.204297
Si Si7 0.386988 0.424279 0.604359
O O1 0.937522 0.250000 0.529254
O O2 0.896563 0.055895 0.589771
O O3 0.000000 0.013921 0.552708
O O4 0.902221 0.000000 0.500000
O O5 0.252536 0.750000 0.458686
O O6 0.220480 0.987559 0.412675
O O7 0.334001 0.948292 0.432681
O O8 0.258165 0.000000 0.500000
O O9 0.000000 0.750000 0.950751
O O10 0.057246 0.985229 0.917091
O O11 0.000000 0.000000 0.000000
O O12 0.329439 0.750000 0.680112
O O13 0.342709 0.538232 0.745562
O O14 0.255136 0.518350 0.692918
O O15 0.365737 0.486212 0.655233
O O16 0.321085 0.750000 0.128197
O O17 0.351851 0.495867 0.164240
O O18 0.691331 0.250000 0.199316
O O19 0.403110 0.250000 0.609682
#
# Coordination Sequence:
#
# PCOD8298620 Si02
#       7
#    16  16   8  16  16  16  16
#     4   9  18  32  50  71  99 137 178 217 256 308
#     4  10  21  33  48  75 108 139 172 218 270 326
#     4  12  26  44  64  86 114 152 194 238 287 342
#     4   9  18  34  55  81 110 142 179 223 273 328
#     4  10  19  32  49  75 107 138 176 222 273 322
#     4   9  18  32  53  81 111 141 179 221 270 329
#     4  11  22  38  59  84 112 145 188 232 280 338
#
# _framework density 18.145137999999999
#
# number of rings (size 3 to 8) (size 9 to 14) (size 15 to 20)
#    0.000    2.154    1.538    3.000    0.000    4.308 
#    0.000    1.538    1.692    0.000    0.000    0.000 
#    0.000    0.000    0.000    0.000    0.000    0.000 
#
# Total GULP energy -644373.246150 kJ/mol
# GULP energy per Si atom -12391.793195 kJ/mol
# Density = 1.810384 g / cm^3
# Si number density = 18.145138 Si / 1000 Ang^3
#
#
#
# Elastic Constant Matrix: (Units=GPa)
#
#
# Indices 1 2 3 4 5 6 
#
# 1 59.9552 38.4015 35.7739 0.0000 0.0000 0.0000
# 2 38.4015 58.5348 61.5450 0.0000 0.0000 0.0000
# 3 35.7739 61.5450 144.8728 0.0000 0.0000 0.0000
# 4 0.0000 0.0000 0.0000 37.9356 0.0000 0.0000
# 5 0.0000 0.0000 0.0000 0.0000 37.1250 0.0000
# 6 0.0000 0.0000 0.0000 0.0000 0.0000 16.6863
#
#
#
# Elastic Compliance Matrix: (Units=1/GPa)
#
#
# Indices 1 2 3 4 5 6 
#
# 1 0.028987 -0.020767 0.001664 0.000000 0.000000 0.000000
# 2 -0.020767 0.045752 -0.014308 0.000000 0.000000 0.000000
# 3 0.001664 -0.014308 0.012570 0.000000 0.000000 0.000000
# 4 0.000000 0.000000 0.000000 0.026360 0.000000 0.000000
# 5 0.000000 0.000000 0.000000 0.000000 0.026936 0.000000
# 6 0.000000 0.000000 0.000000 0.000000 0.000000 0.059929
#
#
# Mechanical properties :
#
#
# Convention : Reuss Voigt Hill
#
# Bulk Modulus (GPa) = 48.81013 59.42263 54.11638
# Shear Modulus (GPa) = 18.23574 26.85887 22.54731
#
# Velocity S-wave (km/s) = 3.17360 3.85154 3.52889
# Velocity P-wave (km/s) = 6.35510 7.25250 6.81858
#
# Compressibility (1/GPa) = 0.02048755
#
# Stress axis : x y z
#
# Youngs Moduli (GPa) = 34.49783 21.85690 79.55341
#
# Poissons Ratio (x) = 0.45390 -0.13240
# Poissons Ratio (y) = 0.71641 1.13829
# Poissons Ratio (z) = -0.05741 0.31274
#
# Static dielectric constant tensor:
#      x y z
#    x 3.588680 0.000000 0.000000 
#    y 0.000000 3.345450 0.000000 
#    z 0.000000 0.000000 3.510770 
# 
# 
# High freq. dielectric constant tensor:
#      x y z
#    x 1.686660 0.000000 0.000000 
#    y 0.000000 1.699110 0.000000 
#    z 0.000000 0.000000 1.713940 
# 
# From -- ./inp_files/68224.got.cif
#   From: 2010.03.12/outbox.cif.g09.slc.cpg/sg74_35_cif.got.tgz:68224.got - 2010.04.16 15:46:19.
