data_PCOD8298810
_publ_section_title
;
Structure prediction by ZEFSAII (Michael W. Deem and Ramdas Pophale) SiO2 
 PCOD8298810
Probable space group: I M M A
;
_chemical_formula_sum "Si O2"
_cell_formula_units_Z 96
_cell_length_a 23.347062
_cell_length_b 17.066142
_cell_length_c 12.785778
_cell_angle_alpha 90.000000
_cell_angle_beta 90.000000
_cell_angle_gamma 90.000000
_cell_volume 5094.420050
_symmetry_space_group_name_H-M "I M M A"
_symmetry_group_IT_number 74
_symmetry_cell_setting 'orthorhombic'
loop_
_space_group_symop_operation_xyz
x,y,z
-x,1/2-y,z
x,-y,-z
-x,1/2+y,-z
-x,-y,-z
x,1/2+y,-z
-x,y,z
x,1/2-y,z
1/2+x,1/2+y,1/2+z
1/2-x,-y,1/2+z
1/2+x,1/2-y,1/2-z
1/2-x,y,1/2-z
1/2-x,1/2-y,1/2-z
1/2+x,y,1/2-z
1/2-x,1/2+y,1/2+z
1/2+x,-y,1/2+z
loop_
_atom_site_type_symbol
_atom_site_label
_atom_site_fract_x
_atom_site_fract_y
_atom_site_fract_z
Si Si1 0.758429 0.341420 0.869572
Si Si2 0.935015 0.342394 0.378354
Si Si3 0.066608 0.341054 0.774205
Si Si4 0.367141 0.657996 0.071744
Si Si5 0.128950 0.911251 0.035555
Si Si6 0.936601 0.842068 0.851412
O O1 0.775002 0.250000 0.873625
O O2 0.750000 0.368094 0.750000
O O3 0.700103 0.360449 0.930633
O O4 0.807691 0.390434 0.925769
O O5 0.925362 0.250000 0.377672
O O6 0.894330 0.380509 0.467326
O O7 0.919883 0.376667 0.263280
O O8 0.000000 0.363238 0.408115
O O9 0.081645 0.250000 0.797952
O O10 0.102504 0.374778 0.676244
O O11 0.083163 0.393076 0.874024
O O12 0.000000 0.351506 0.749322
O O13 0.379139 0.750000 0.073022
O O14 0.112524 0.861702 0.933596
O O15 0.125666 0.000000 0.000000
O O16 0.941138 0.750000 0.840146
O O17 0.000000 0.874061 0.884650
#
# Coordination Sequence:
#
# PCOD8298810 Si02
#       6
#    16  16  16  16  16  16
#     4  10  19  36  60  80 103 140 188 237 281 326
#     4   8  14  27  50  81 112 137 166 212 272 328
#     4  10  19  32  56  88 115 140 179 231 282 333
#     4   9  16  29  55  86 109 133 173 230 283 323
#     4  12  24  36  51  78 112 150 184 227 277 338
#     4   9  18  34  56  79 108 147 185 222 268 330
#
# _framework density 18.844147
#
# number of rings (size 3 to 8) (size 9 to 14) (size 15 to 20)
#    0.000    2.333    1.667    3.500    0.000    4.667 
#    0.000    2.500    0.000    4.000    0.000    3.500 
#    0.000    0.000    0.000    0.000    0.000    0.000 
#
# Total GULP energy -595026.085895 kJ/mol
# GULP energy per Si atom -12396.376789 kJ/mol
# Density = 1.880126 g / cm^3
# Si number density = 18.844147 Si / 1000 Ang^3
#
#
#
# Elastic Constant Matrix: (Units=GPa)
#
#
# Indices 1 2 3 4 5 6 
#
# 1 94.1042 20.6312 60.2868 0.0000 0.0000 0.0000
# 2 20.6312 34.7625 27.8043 0.0000 0.0000 0.0000
# 3 60.2868 27.8043 144.0518 0.0000 0.0000 0.0000
# 4 0.0000 0.0000 0.0000 1.8620 0.0000 0.0000
# 5 0.0000 0.0000 0.0000 0.0000 48.0146 0.0000
# 6 0.0000 0.0000 0.0000 0.0000 0.0000 10.7398
#
#
#
# Elastic Compliance Matrix: (Units=1/GPa)
#
#
# Indices 1 2 3 4 5 6 
#
# 1 0.015124 -0.004628 -0.005436 0.000000 0.000000 0.000000
# 2 -0.004628 0.035434 -0.004903 0.000000 0.000000 0.000000
# 3 -0.005436 -0.004903 0.010163 0.000000 0.000000 0.000000
# 4 0.000000 0.000000 0.000000 0.537049 0.000000 0.000000
# 5 0.000000 0.000000 0.000000 0.000000 0.020827 0.000000
# 6 0.000000 0.000000 0.000000 0.000000 0.000000 0.093112
#
#
# Mechanical properties :
#
#
# Convention : Reuss Voigt Hill
#
# Bulk Modulus (GPa) = 32.47984 54.48478 43.48231
# Shear Modulus (GPa) = 6.64978 23.06969 14.85973
#
# Velocity S-wave (km/s) = 1.88056 3.50271 2.81118
# Velocity P-wave (km/s) = 4.68922 6.73311 5.80187
#
# Compressibility (1/GPa) = 0.03078833
#
# Stress axis : x y z
#
# Youngs Moduli (GPa) = 66.12141 28.22115 98.39318
#
# Poissons Ratio (x) = 0.13060 0.53488
# Poissons Ratio (y) = 0.30599 0.48239
# Poissons Ratio (z) = 0.35945 0.13836
#
# Static dielectric constant tensor:
#      x y z
#    x 3.465930 0.000000 0.000000 
#    y 0.000000 2.935150 0.000000 
#    z 0.000000 0.000000 4.138210 
# 
# 
# High freq. dielectric constant tensor:
#      x y z
#    x 1.734060 0.000000 0.000000 
#    y 0.000000 1.677450 0.000000 
#    z 0.000000 0.000000 1.747460 
# 
# From -- ./inp_files/25155.got.cif
#   From: 2010.03.12/outbox.cif.g09.slc.cpg/sg74_13_cif.got.tgz:25155.got - 2010.04.16 15:46:19.
