data_PCOD8298433
_publ_section_title
;
Structure prediction by ZEFSAII (Michael W. Deem and Ramdas Pophale) SiO2 
 PCOD8298433
Probable space group: I M M A
;
_chemical_formula_sum "Si O2"
_cell_formula_units_Z 96
_cell_length_a 8.805840
_cell_length_b 21.700888
_cell_length_c 27.541095
_cell_angle_alpha 90.000000
_cell_angle_beta 90.000000
_cell_angle_gamma 90.000000
_cell_volume 5262.953089
_symmetry_space_group_name_H-M "I M M A"
_symmetry_group_IT_number 74
_symmetry_cell_setting 'orthorhombic'
loop_
_space_group_symop_operation_xyz
x,y,z
-x,1/2-y,z
x,-y,-z
-x,1/2+y,-z
-x,-y,-z
x,1/2+y,-z
-x,y,z
x,1/2-y,z
1/2+x,1/2+y,1/2+z
1/2-x,-y,1/2+z
1/2+x,1/2-y,1/2-z
1/2-x,y,1/2-z
1/2-x,1/2-y,1/2-z
1/2+x,y,1/2-z
1/2-x,1/2+y,1/2+z
1/2+x,-y,1/2+z
loop_
_atom_site_type_symbol
_atom_site_label
_atom_site_fract_x
_atom_site_fract_y
_atom_site_fract_z
Si Si1 0.176124 0.250000 0.474365
Si Si2 0.321851 0.875508 0.027836
Si Si3 0.177980 0.872998 0.646767
Si Si4 0.819973 0.502940 0.698175
Si Si5 0.174109 0.433048 0.058927
Si Si6 0.674189 0.561345 0.389445
Si Si7 0.321448 0.750000 0.631176
O O1 0.218487 0.191699 0.507510
O O2 0.269573 0.250000 0.424732
O O3 0.000000 0.250000 0.459547
O O4 0.500000 0.888834 0.028151
O O5 0.256591 0.882319 0.082619
O O6 0.236670 0.926858 0.995410
O O7 0.232391 0.928479 0.681793
O O8 0.222408 0.888485 0.591607
O O9 0.260751 0.809496 0.660709
O O10 0.000000 0.862597 0.650041
O O11 0.750000 0.488183 0.750000
O O12 0.757198 0.451586 0.661391
O O13 0.000000 0.498155 0.699893
O O14 0.190468 0.502689 0.075816
O O15 0.000000 0.410820 0.062052
O O16 0.500000 0.578266 0.378881
O O17 0.500000 0.750000 0.633194
#
# Coordination Sequence:
#
# PCOD8298433 Si02
#       7
#     8  16  16  16  16  16   8
#     4  10  22  36  50  71 106 149 184 220 259 303
#     4  11  21  33  50  73 105 143 181 216 258 311
#     4  10  20  34  52  74 103 139 178 219 263 313
#     4  10  21  38  60  82 104 133 170 217 274 326
#     4  10  19  31  48  73 104 138 175 216 261 307
#     4  10  21  35  52  76 107 137 171 218 265 314
#     4  12  22  32  51  75 102 141 186 224 260 307
#
# _framework density 18.24071
#
# number of rings (size 3 to 8) (size 9 to 14) (size 15 to 20)
#    0.000    1.667    1.667    3.750    0.000    6.667 
#    0.000    0.417    0.000    0.000    0.000    0.583 
#    0.000    0.000    0.000    0.000    0.000    0.000 
#
# Total GULP energy -595313.175216 kJ/mol
# GULP energy per Si atom -12402.357817 kJ/mol
# Density = 1.819919 g / cm^3
# Si number density = 18.240710 Si / 1000 Ang^3
#
#
#
# Elastic Constant Matrix: (Units=GPa)
#
#
# Indices 1 2 3 4 5 6 
#
# 1 92.2741 20.8218 34.5866 0.0000 0.0000 0.0000
# 2 20.8218 30.5090 21.7979 0.0000 0.0000 0.0000
# 3 34.5866 21.7979 106.5230 0.0000 0.0000 0.0000
# 4 0.0000 0.0000 0.0000 17.2342 0.0000 0.0000
# 5 0.0000 0.0000 0.0000 0.0000 31.1114 0.0000
# 6 0.0000 0.0000 0.0000 0.0000 0.0000 22.2945
#
#
#
# Elastic Compliance Matrix: (Units=1/GPa)
#
#
# Indices 1 2 3 4 5 6 
#
# 1 0.013552 -0.007150 -0.002937 0.000000 0.000000 0.000000
# 2 -0.007150 0.042163 -0.006306 0.000000 0.000000 0.000000
# 3 -0.002937 -0.006306 0.011632 0.000000 0.000000 0.000000
# 4 0.000000 0.000000 0.000000 0.058024 0.000000 0.000000
# 5 0.000000 0.000000 0.000000 0.000000 0.032143 0.000000
# 6 0.000000 0.000000 0.000000 0.000000 0.000000 0.044854
#
#
# Mechanical properties :
#
#
# Convention : Reuss Voigt Hill
#
# Bulk Modulus (GPa) = 28.93584 42.63543 35.78563
# Shear Modulus (GPa) = 20.26970 24.26799 22.26884
#
# Velocity S-wave (km/s) = 3.33713 3.65146 3.49783
# Velocity P-wave (km/s) = 5.54494 6.41889 5.99785
#
# Compressibility (1/GPa) = 0.03455922
#
# Stress axis : x y z
#
# Youngs Moduli (GPa) = 73.79216 23.71756 85.97247
#
# Poissons Ratio (x) = 0.16959 0.25249
# Poissons Ratio (y) = 0.52765 0.54216
# Poissons Ratio (z) = 0.21671 0.14957
#
# Static dielectric constant tensor:
#      x y z
#    x 3.431400 0.000000 0.000000 
#    y 0.000000 3.364220 0.000000 
#    z 0.000000 0.000000 3.220840 
# 
# 
# High freq. dielectric constant tensor:
#      x y z
#    x 1.722020 0.000000 0.000000 
#    y 0.000000 1.686830 0.000000 
#    z 0.000000 0.000000 1.686270 
# 
# From -- ./inp_files/57319.got.cif
#   From: 2010.03.12/outbox.cif.g09.slc.cpg/sg74_29_cif.got.tgz:57319.got - 2010.04.16 15:46:19.
