data_PCOD8298929
_publ_section_title
;
Structure prediction by ZEFSAII (Michael W. Deem and Ramdas Pophale) SiO2 
 PCOD8298929
Probable space group: I M M A
;
_chemical_formula_sum "Si O2"
_cell_formula_units_Z 104
_cell_length_a 27.680372
_cell_length_b 8.660623
_cell_length_c 22.925876
_cell_angle_alpha 90.000000
_cell_angle_beta 90.000000
_cell_angle_gamma 90.000000
_cell_volume 5496.003435
_symmetry_space_group_name_H-M "I M M A"
_symmetry_group_IT_number 74
_symmetry_cell_setting 'orthorhombic'
loop_
_space_group_symop_operation_xyz
x,y,z
-x,1/2-y,z
x,-y,-z
-x,1/2+y,-z
-x,-y,-z
x,1/2+y,-z
-x,y,z
x,1/2-y,z
1/2+x,1/2+y,1/2+z
1/2-x,-y,1/2+z
1/2+x,1/2-y,1/2-z
1/2-x,y,1/2-z
1/2-x,1/2-y,1/2-z
1/2+x,y,1/2-z
1/2-x,1/2+y,1/2+z
1/2+x,-y,1/2+z
loop_
_atom_site_type_symbol
_atom_site_label
_atom_site_fract_x
_atom_site_fract_y
_atom_site_fract_z
Si Si1 0.303749 0.431094 0.741074
Si Si2 0.182324 0.928838 0.642038
Si Si3 0.103121 0.431642 0.564153
Si Si4 0.000000 0.425585 0.561811
Si Si5 0.356056 0.433264 0.624880
Si Si6 0.444661 0.068135 0.437085
Si Si7 0.230571 0.432678 0.060897
O O1 0.299386 0.250000 0.732139
O O2 0.250000 0.504409 0.750000
O O3 0.330937 0.472933 0.800636
O O4 0.334011 0.498142 0.686153
O O5 0.183455 0.750000 0.658492
O O6 0.232983 0.980422 0.612806
O O7 0.140612 0.962886 0.597038
O O8 0.101642 0.500000 0.500000
O O9 0.117324 0.250000 0.564579
O O10 0.050441 0.461690 0.595143
O O11 0.000000 0.500000 0.500000
O O12 0.000000 0.250000 0.544326
O O13 0.359245 0.250000 0.625077
O O14 0.409582 0.499789 0.612946
O O15 0.321167 0.490889 0.573380
O O16 0.500000 0.024159 0.420931
O O17 0.437502 0.250000 0.440070
O O18 0.430618 0.000000 0.500000
O O19 0.225632 0.250000 0.055609
O O20 0.250552 0.500000 0.000000
#
# Coordination Sequence:
#
# PCOD8298929 Si02
#       7
#    16  16  16   8  16  16  16
#     4  10  21  39  60  81 107 145 188 228 273 326
#     4  11  23  36  54  80 109 145 185 228 276 326
#     4  10  19  33  54  79 110 142 179 224 275 331
#     4   8  16  30  50  76 102 136 174 214 263 318
#     4  11  22  37  60  85 112 147 188 233 280 333
#     4  10  21  38  61  89 121 154 188 232 286 344
#     4  11  23  36  52  78 113 148 182 222 272 328
#
# _framework density 18.922840000000001
#
# number of rings (size 3 to 8) (size 9 to 14) (size 15 to 20)
#    0.000    1.692    1.538    3.231    0.000    6.154 
#    0.000    0.000    1.692    0.000    0.000    0.000 
#    0.000    0.000    0.000    0.000    0.000    0.000 
#
# Total GULP energy -644587.842376 kJ/mol
# GULP energy per Si atom -12395.920046 kJ/mol
# Density = 1.887977 g / cm^3
# Si number density = 18.922840 Si / 1000 Ang^3
#
#
#
# Elastic Constant Matrix: (Units=GPa)
#
#
# Indices 1 2 3 4 5 6 
#
# 1 125.1151 35.1481 47.9661 0.0000 0.0000 0.0000
# 2 35.1481 54.9978 27.9468 0.0000 0.0000 0.0000
# 3 47.9661 27.9468 102.1231 0.0000 0.0000 0.0000
# 4 0.0000 0.0000 0.0000 28.9154 0.0000 0.0000
# 5 0.0000 0.0000 0.0000 0.0000 24.4093 0.0000
# 6 0.0000 0.0000 0.0000 0.0000 0.0000 27.1967
#
#
#
# Elastic Compliance Matrix: (Units=1/GPa)
#
#
# Indices 1 2 3 4 5 6 
#
# 1 0.010829 -0.005036 -0.003708 0.000000 0.000000 0.000000
# 2 -0.005036 0.023462 -0.004055 0.000000 0.000000 0.000000
# 3 -0.003708 -0.004055 0.012643 0.000000 0.000000 0.000000
# 4 0.000000 0.000000 0.000000 0.034584 0.000000 0.000000
# 5 0.000000 0.000000 0.000000 0.000000 0.040968 0.000000
# 6 0.000000 0.000000 0.000000 0.000000 0.000000 0.036769
#
#
# Mechanical properties :
#
#
# Convention : Reuss Voigt Hill
#
# Bulk Modulus (GPa) = 46.87052 56.03978 51.45515
# Shear Modulus (GPa) = 26.04633 27.51595 26.78114
#
# Velocity S-wave (km/s) = 3.71408 3.81742 3.76610
# Velocity P-wave (km/s) = 6.57385 7.00781 6.79430
#
# Compressibility (1/GPa) = 0.02133537
#
# Stress axis : x y z
#
# Youngs Moduli (GPa) = 92.34391 42.62258 79.09271
#
# Poissons Ratio (x) = 0.21467 0.29328
# Poissons Ratio (y) = 0.46509 0.32072
# Poissons Ratio (z) = 0.34241 0.17283
#
# Static dielectric constant tensor:
#      x y z
#    x 3.875540 0.000000 0.000000 
#    y 0.000000 3.386820 0.000000 
#    z 0.000000 0.000000 3.381720 
# 
# 
# High freq. dielectric constant tensor:
#      x y z
#    x 1.741460 0.000000 0.000000 
#    y 0.000000 1.741410 0.000000 
#    z 0.000000 0.000000 1.716470 
# 
# From -- ./inp_files/62345.got.cif
#   From: 2010.03.12/outbox.cif.g09.slc.cpg/sg74_32_cif.got.tgz:62345.got - 2010.04.16 15:46:19.
