data_PCOD8298083
_publ_section_title
;
Structure prediction by ZEFSAII (Michael W. Deem and Ramdas Pophale) SiO2 
 PCOD8298083
Probable space group: I M M A
;
_chemical_formula_sum "Si O2"
_cell_formula_units_Z 96
_cell_length_a 16.592566
_cell_length_b 19.124953
_cell_length_c 15.148200
_cell_angle_alpha 90.000000
_cell_angle_beta 90.000000
_cell_angle_gamma 90.000000
_cell_volume 4807.009283
_symmetry_space_group_name_H-M "I M M A"
_symmetry_group_IT_number 74
_symmetry_cell_setting 'orthorhombic'
loop_
_space_group_symop_operation_xyz
x,y,z
-x,1/2-y,z
x,-y,-z
-x,1/2+y,-z
-x,-y,-z
x,1/2+y,-z
-x,y,z
x,1/2-y,z
1/2+x,1/2+y,1/2+z
1/2-x,-y,1/2+z
1/2+x,1/2-y,1/2-z
1/2-x,y,1/2-z
1/2-x,1/2-y,1/2-z
1/2+x,y,1/2-z
1/2-x,1/2+y,1/2+z
1/2+x,-y,1/2+z
loop_
_atom_site_type_symbol
_atom_site_label
_atom_site_fract_x
_atom_site_fract_y
_atom_site_fract_z
Si Si1 0.903903 0.828950 0.619312
Si Si2 0.906453 0.924080 0.459433
Si Si3 0.595372 0.829746 0.369191
Si Si4 0.593561 0.920834 0.722619
Si Si5 0.095998 0.575476 0.971492
Si Si6 0.659229 0.067083 0.771201
O O1 0.870671 0.750000 0.620092
O O2 0.876037 0.866829 0.529760
O O3 0.866709 0.870396 0.703640
O O4 0.000000 0.830737 0.623876
O O5 0.851677 0.913502 0.373511
O O6 0.000000 0.913335 0.434108
O O7 0.892343 0.000000 0.500000
O O8 0.500000 0.836129 0.359844
O O9 0.624265 0.750000 0.372896
O O10 0.625586 0.866768 0.458981
O O11 0.635488 0.865251 0.284865
O O12 0.500000 0.903629 0.719418
O O13 0.630985 0.905615 0.625616
O O14 0.602792 0.001893 0.747432
O O15 0.000000 0.571923 0.967535
O O16 0.130574 0.500000 0.000000
O O17 0.750000 0.045051 0.750000
#
# Coordination Sequence:
#
# PCOD8298083 Si02
#       6
#    16  16  16  16  16  16
#     4   9  18  32  56  91 119 140 182 247 300 337
#     4  10  19  36  62  86 111 149 199 245 287 339
#     4  10  21  38  59  84 113 147 192 239 283 337
#     4  10  18  34  59  84 114 151 191 234 286 343
#     4   9  16  29  54  82 107 140 185 231 274 326
#     4  12  24  37  55  85 118 153 192 237 285 347
#
# _framework density 19.970838000000001
#
# number of rings (size 3 to 8) (size 9 to 14) (size 15 to 20)
#    0.000    2.000    3.333    1.500    0.000    1.667 
#    3.000    5.000    0.000    0.500    0.000    0.000 
#    0.000    0.000    0.000    0.000    0.000    0.000 
#
# Total GULP energy -595230.795713 kJ/mol
# GULP energy per Si atom -12400.641577 kJ/mol
# Density = 1.992538 g / cm^3
# Si number density = 19.970838 Si / 1000 Ang^3
#
#
#
# Elastic Constant Matrix: (Units=GPa)
#
#
# Indices 1 2 3 4 5 6 
#
# 1 21.1231 8.7294 28.1614 0.0000 0.0000 0.0000
# 2 8.7294 145.1135 78.4515 0.0000 0.0000 0.0000
# 3 28.1614 78.4515 205.1130 0.0000 0.0000 0.0000
# 4 0.0000 0.0000 0.0000 39.7012 0.0000 0.0000
# 5 0.0000 0.0000 0.0000 0.0000 10.8317 0.0000
# 6 0.0000 0.0000 0.0000 0.0000 0.0000 5.7952
#
#
#
# Elastic Compliance Matrix: (Units=1/GPa)
#
#
# Indices 1 2 3 4 5 6 
#
# 1 0.058071 0.001030 -0.008367 0.000000 0.000000 0.000000
# 2 0.001030 0.008706 -0.003471 0.000000 0.000000 0.000000
# 3 -0.008367 -0.003471 0.007352 0.000000 0.000000 0.000000
# 4 0.000000 0.000000 0.000000 0.025188 0.000000 0.000000
# 5 0.000000 0.000000 0.000000 0.000000 0.092322 0.000000
# 6 0.000000 0.000000 0.000000 0.000000 0.000000 0.172558
#
#
# Mechanical properties :
#
#
# Convention : Reuss Voigt Hill
#
# Bulk Modulus (GPa) = 19.04322 66.89268 42.96795
# Shear Modulus (GPa) = 12.39723 28.33277 20.36500
#
# Velocity S-wave (km/s) = 2.49422 3.77066 3.19680
# Velocity P-wave (km/s) = 4.22505 7.24742 5.93195
#
# Compressibility (1/GPa) = 0.05251213
#
# Stress axis : x y z
#
# Youngs Moduli (GPa) = 17.22040 114.86590 136.02147
#
# Poissons Ratio (x) = -0.11832 1.13808
# Poissons Ratio (y) = -0.01774 0.47216
# Poissons Ratio (z) = 0.14408 0.39872
#
# Static dielectric constant tensor:
#      x y z
#    x 3.080070 0.000000 0.000000 
#    y 0.000000 3.673720 0.000000 
#    z 0.000000 0.000000 4.047410 
# 
# 
# High freq. dielectric constant tensor:
#      x y z
#    x 1.726110 0.000000 0.000000 
#    y 0.000000 1.775200 0.000000 
#    z 0.000000 0.000000 1.800560 
# 
# From -- ./inp_files/32329.got.cif
#   From: 2010.03.12/outbox.cif.g09.slc.cpg/sg74_17_cif.got.tgz:32329.got - 2010.04.16 15:46:19.
