data_PCOD8298448
_publ_section_title
;
Structure prediction by ZEFSAII (Michael W. Deem and Ramdas Pophale) SiO2 
 PCOD8298448
Probable space group: I M M A
;
_chemical_formula_sum "Si O2"
_cell_formula_units_Z 104
_cell_length_a 12.768040
_cell_length_b 19.929240
_cell_length_c 22.661128
_cell_angle_alpha 90.000000
_cell_angle_beta 90.000000
_cell_angle_gamma 90.000000
_cell_volume 5766.290205
_symmetry_space_group_name_H-M "I M M A"
_symmetry_group_IT_number 74
_symmetry_cell_setting 'orthorhombic'
loop_
_space_group_symop_operation_xyz
x,y,z
-x,1/2-y,z
x,-y,-z
-x,1/2+y,-z
-x,-y,-z
x,1/2+y,-z
-x,y,z
x,1/2-y,z
1/2+x,1/2+y,1/2+z
1/2-x,-y,1/2+z
1/2+x,1/2-y,1/2-z
1/2-x,y,1/2-z
1/2-x,1/2-y,1/2-z
1/2+x,y,1/2-z
1/2-x,1/2+y,1/2+z
1/2+x,-y,1/2+z
loop_
_atom_site_type_symbol
_atom_site_label
_atom_site_fract_x
_atom_site_fract_y
_atom_site_fract_z
Si Si1 0.114140 0.675722 0.772983
Si Si2 0.127049 0.250000 0.036088
Si Si3 0.625023 0.888885 0.346030
Si Si4 0.295163 0.126236 0.389381
Si Si5 0.876353 0.250000 0.898972
Si Si6 0.618875 0.066725 0.173378
Si Si7 0.380832 0.496500 0.563871
Si Si8 0.750000 0.962176 0.250000
O O1 0.147042 0.750000 0.751940
O O2 0.192986 0.650127 0.822259
O O3 0.114143 0.629006 0.717003
O O4 0.000000 0.677095 0.803111
O O5 0.184469 0.185771 0.064607
O O6 0.000000 0.250000 0.046516
O O7 0.157790 0.250000 0.967459
O O8 0.500000 0.892204 0.340768
O O9 0.665894 0.815132 0.364319
O O10 0.671813 0.912531 0.284149
O O11 0.670182 0.938828 0.396201
O O12 0.178374 0.092372 0.386817
O O13 0.377465 0.068031 0.404071
O O14 0.000000 0.250000 0.897632
O O15 0.500000 0.043894 0.157254
O O16 0.682129 0.006451 0.204540
O O17 0.323471 0.500000 0.500000
O O18 0.500000 0.474920 0.553495
#
# Coordination Sequence:
#
# PCOD8298448 Si02
#       8
#    16   8  16  16   8  16  16   8
#     4  10  19  31  49  72 105 143 179 217 259 314
#     4  11  22  34  55  85 115 148 183 220 273 341
#     4  10  20  35  57  84 116 147 176 224 287 344
#     4  12  20  32  51  77 110 146 181 220 268 321
#     4   9  20  39  57  85 119 138 167 227 290 344
#     4  11  23  36  50  74 109 147 188 232 272 320
#     4  10  19  32  53  81 110 141 179 223 273 331
#     4  12  20  37  57  82 108 148 190 232 282 337
#
# _framework density 18.03586
#
# number of rings (size 3 to 8) (size 9 to 14) (size 15 to 20)
#    0.000    1.385    3.846    2.769    1.077    5.846 
#    0.000    0.000    0.000    0.462    0.000    2.154 
#    0.000    0.000    0.000    0.000    0.000    0.000 
#
# Total GULP energy -644401.811100 kJ/mol
# GULP energy per Si atom -12392.342521 kJ/mol
# Density = 1.799481 g / cm^3
# Si number density = 18.035860 Si / 1000 Ang^3
#
#
#
# Elastic Constant Matrix: (Units=GPa)
#
#
# Indices 1 2 3 4 5 6 
#
# 1 87.1482 25.5487 31.1348 0.0000 0.0000 0.0000
# 2 25.5487 139.7038 47.0873 0.0000 0.0000 0.0000
# 3 31.1348 47.0873 73.3914 0.0000 0.0000 0.0000
# 4 0.0000 0.0000 0.0000 7.9376 0.0000 0.0000
# 5 0.0000 0.0000 0.0000 0.0000 22.1175 0.0000
# 6 0.0000 0.0000 0.0000 0.0000 0.0000 15.3460
#
#
#
# Elastic Compliance Matrix: (Units=1/GPa)
#
#
# Indices 1 2 3 4 5 6 
#
# 1 0.013577 -0.000691 -0.005316 0.000000 0.000000 0.000000
# 2 -0.000691 0.009168 -0.005589 0.000000 0.000000 0.000000
# 3 -0.005316 -0.005589 0.019467 0.000000 0.000000 0.000000
# 4 0.000000 0.000000 0.000000 0.125982 0.000000 0.000000
# 5 0.000000 0.000000 0.000000 0.000000 0.045213 0.000000
# 6 0.000000 0.000000 0.000000 0.000000 0.000000 0.065164
#
#
# Mechanical properties :
#
#
# Convention : Reuss Voigt Hill
#
# Bulk Modulus (GPa) = 52.57932 56.42056 54.49994
# Shear Modulus (GPa) = 16.22836 22.17841 19.20338
#
# Velocity S-wave (km/s) = 3.00289 3.51049 3.26657
# Velocity P-wave (km/s) = 6.42177 6.91243 6.67161
#
# Compressibility (1/GPa) = 0.01901888
#
# Stress axis : x y z
#
# Youngs Moduli (GPa) = 73.65623 109.07302 51.36959
#
# Poissons Ratio (x) = 0.07537 0.27309
# Poissons Ratio (y) = 0.05090 0.28711
# Poissons Ratio (z) = 0.39157 0.60962
#
# Static dielectric constant tensor:
#      x y z
#    x 3.486640 0.000000 0.000000 
#    y 0.000000 3.520740 0.000000 
#    z 0.000000 0.000000 3.308780 
# 
# 
# High freq. dielectric constant tensor:
#      x y z
#    x 1.673800 0.000000 0.000000 
#    y 0.000000 1.709060 0.000000 
#    z 0.000000 0.000000 1.682750 
# 
# From -- ./inp_files/52153.got.cif
#   From: 2010.03.12/outbox.cif.g09.slc.cpg/sg74_27_cif.got.tgz:52153.got - 2010.04.16 15:46:19.
