data_PCOD8298791
_publ_section_title
;
Structure prediction by ZEFSAII (Michael W. Deem and Ramdas Pophale) SiO2 
 PCOD8298791
Probable space group: I M M A
;
_chemical_formula_sum "Si O2"
_cell_formula_units_Z 88
_cell_length_a 21.672328
_cell_length_b 9.150941
_cell_length_c 23.784665
_cell_angle_alpha 90.000000
_cell_angle_beta 90.000000
_cell_angle_gamma 90.000000
_cell_volume 4717.026967
_symmetry_space_group_name_H-M "I M M A"
_symmetry_group_IT_number 74
_symmetry_cell_setting 'orthorhombic'
loop_
_space_group_symop_operation_xyz
x,y,z
-x,1/2-y,z
x,-y,-z
-x,1/2+y,-z
-x,-y,-z
x,1/2+y,-z
-x,y,z
x,1/2-y,z
1/2+x,1/2+y,1/2+z
1/2-x,-y,1/2+z
1/2+x,1/2-y,1/2-z
1/2-x,y,1/2-z
1/2-x,1/2-y,1/2-z
1/2+x,y,1/2-z
1/2-x,1/2+y,1/2+z
1/2+x,-y,1/2+z
loop_
_atom_site_type_symbol
_atom_site_label
_atom_site_fract_x
_atom_site_fract_y
_atom_site_fract_z
Si Si1 0.773895 0.917791 0.689448
Si Si2 0.065986 0.087011 0.248478
Si Si3 0.000000 0.577107 0.439398
Si Si4 0.569882 0.920075 0.444115
Si Si5 0.854877 0.585870 0.855725
Si Si6 0.603994 0.421627 0.850646
O O1 0.793974 0.750000 0.699440
O O2 0.750000 0.982134 0.750000
O O3 0.718600 0.929707 0.644482
O O4 0.829918 0.999707 0.658134
O O5 0.074782 0.250000 0.273974
O O6 0.121676 0.051757 0.206960
O O7 0.000000 0.077014 0.216464
O O8 0.063659 0.967256 0.297213
O O9 0.000000 0.500000 0.500000
O O10 0.063064 0.532595 0.405480
O O11 0.000000 0.750000 0.448784
O O12 0.500000 0.964399 0.427888
O O13 0.576075 0.750000 0.454825
O O14 0.591669 0.000000 0.500000
O O15 0.616307 0.965895 0.395749
O O16 0.875181 0.750000 0.873737
O O17 0.616112 0.250000 0.851265
#
# Coordination Sequence:
#
# PCOD8298791 Si02
#       6
#    16  16   8  16  16  16
#     4  10  20  37  58  83 117 156 196 231 277 346
#     4  10  19  32  54  83 114 152 193 231 281 341
#     4  10  24  44  64  88 116 152 197 250 301 354
#     4  10  21  37  57  81 111 148 190 235 282 332
#     4  10  20  35  56  82 115 151 192 237 275 330
#     4  11  22  37  57  85 119 147 185 241 299 351
#
# _framework density 18.655818
#
# number of rings (size 3 to 8) (size 9 to 14) (size 15 to 20)
#    0.000    1.818    2.727    1.636    0.000    5.091 
#    0.000    0.909    0.000    2.182    0.000    0.000 
#    0.000    0.000    0.000    0.000    0.000    0.000 
#
# Total GULP energy -545264.188782 kJ/mol
# GULP energy per Si atom -12392.367927 kJ/mol
# Density = 1.861336 g / cm^3
# Si number density = 18.655818 Si / 1000 Ang^3
#
#
#
# Elastic Constant Matrix: (Units=GPa)
#
#
# Indices 1 2 3 4 5 6 
#
# 1 135.0944 43.2106 52.3168 0.0000 0.0000 0.0000
# 2 43.2106 70.4883 49.5324 0.0000 0.0000 0.0000
# 3 52.3168 49.5324 95.2573 0.0000 0.0000 0.0000
# 4 0.0000 0.0000 0.0000 34.8692 0.0000 0.0000
# 5 0.0000 0.0000 0.0000 0.0000 45.2252 0.0000
# 6 0.0000 0.0000 0.0000 0.0000 0.0000 32.8537
#
#
#
# Elastic Compliance Matrix: (Units=1/GPa)
#
#
# Indices 1 2 3 4 5 6 
#
# 1 0.009937 -0.003556 -0.003609 0.000000 0.000000 0.000000
# 2 -0.003556 0.023628 -0.010333 0.000000 0.000000 0.000000
# 3 -0.003609 -0.010333 0.017853 0.000000 0.000000 0.000000
# 4 0.000000 0.000000 0.000000 0.028679 0.000000 0.000000
# 5 0.000000 0.000000 0.000000 0.000000 0.022112 0.000000
# 6 0.000000 0.000000 0.000000 0.000000 0.000000 0.030438
#
#
# Mechanical properties :
#
#
# Convention : Reuss Voigt Hill
#
# Bulk Modulus (GPa) = 60.89218 65.66216 63.27717
# Shear Modulus (GPa) = 28.88255 32.97496 30.92875
#
# Velocity S-wave (km/s) = 3.93896 4.20878 4.07610
# Velocity P-wave (km/s) = 7.30738 7.67407 7.49297
#
# Compressibility (1/GPa) = 0.01642247
#
# Stress axis : x y z
#
# Youngs Moduli (GPa) = 100.63349 42.32335 56.01346
#
# Poissons Ratio (x) = 0.15049 0.20213
# Poissons Ratio (y) = 0.35783 0.57879
# Poissons Ratio (z) = 0.36315 0.43733
#
# Static dielectric constant tensor:
#      x y z
#    x 3.642080 0.000000 0.000000 
#    y 0.000000 3.395630 0.000000 
#    z 0.000000 0.000000 3.343600 
# 
# 
# High freq. dielectric constant tensor:
#      x y z
#    x 1.741990 0.000000 0.000000 
#    y 0.000000 1.717810 0.000000 
#    z 0.000000 0.000000 1.698500 
# 
# From -- ./inp_files/54514.got.cif
#   From: 2010.03.12/outbox.cif.g09.slc.cpg/sg74_28_cif.got.tgz:54514.got - 2010.04.16 15:46:19.
