data_PCOD8298818
_publ_section_title
;
Structure prediction by ZEFSAII (Michael W. Deem and Ramdas Pophale) SiO2 
 PCOD8298818
Probable space group: I M M A
;
_chemical_formula_sum "Si O2"
_cell_formula_units_Z 72
_cell_length_a 28.163264
_cell_length_b 9.465506
_cell_length_c 17.208055
_cell_angle_alpha 90.000000
_cell_angle_beta 90.000000
_cell_angle_gamma 90.000000
_cell_volume 4587.315461
_symmetry_space_group_name_H-M "I M M A"
_symmetry_group_IT_number 74
_symmetry_cell_setting 'orthorhombic'
loop_
_space_group_symop_operation_xyz
x,y,z
-x,1/2-y,z
x,-y,-z
-x,1/2+y,-z
-x,-y,-z
x,1/2+y,-z
-x,y,z
x,1/2-y,z
1/2+x,1/2+y,1/2+z
1/2-x,-y,1/2+z
1/2+x,1/2-y,1/2-z
1/2-x,y,1/2-z
1/2-x,1/2-y,1/2-z
1/2+x,y,1/2-z
1/2-x,1/2+y,1/2+z
1/2+x,-y,1/2+z
loop_
_atom_site_type_symbol
_atom_site_label
_atom_site_fract_x
_atom_site_fract_y
_atom_site_fract_z
Si Si1 0.134655 0.409588 0.863358
Si Si2 0.707100 0.908208 0.931508
Si Si3 0.053161 0.087017 0.078610
Si Si4 0.299387 0.000000 0.500000
Si Si5 0.697753 0.591605 0.217413
O O1 0.115334 0.250000 0.857272
O O2 0.090770 0.518345 0.862882
O O3 0.167278 0.415243 0.940535
O O4 0.163268 0.452641 0.786887
O O5 0.686731 0.750000 0.931260
O O6 0.764327 0.901445 0.947744
O O7 0.692765 0.979453 0.850892
O O8 0.682435 0.000000 0.000000
O O9 0.066571 0.250000 0.062374
O O10 0.000000 0.075283 0.113602
O O11 0.056896 0.000000 0.000000
O O12 0.686517 0.750000 0.186496
O O13 0.750000 0.587293 0.250000
#
# Coordination Sequence:
#
# PCOD8298818 Si02
#       5
#    16  16  16   8  16
#     4  11  21  33  50  70  95 128 162 200 241 281
#     4  10  20  32  47  65  90 126 163 197 235 277
#     4  10  21  35  50  68  92 122 158 202 244 283
#     4  10  20  30  47  68  92 130 165 200 234 278
#     4  10  19  33  47  65  96 126 157 197 239 280
#
# _framework density 15.695455000000001
#
# number of rings (size 3 to 8) (size 9 to 14) (size 15 to 20)
#    0.667    1.111    3.333    2.000    0.000    3.556 
#    0.000    0.000    0.000    0.000    0.000    0.000 
#    0.000    0.889    0.000    2.889    0.000    4.222 
#
# Total GULP energy -446144.451181 kJ/mol
# GULP energy per Si atom -12392.901422 kJ/mol
# Density = 1.565973 g / cm^3
# Si number density = 15.695455 Si / 1000 Ang^3
#
#
#
# Elastic Constant Matrix: (Units=GPa)
#
#
# Indices 1 2 3 4 5 6 
#
# 1 76.5640 47.0074 41.9664 0.0000 0.0000 0.0000
# 2 47.0074 133.2970 64.2628 0.0000 0.0000 0.0000
# 3 41.9664 64.2628 102.0953 0.0000 0.0000 0.0000
# 4 0.0000 0.0000 0.0000 29.6320 0.0000 0.0000
# 5 0.0000 0.0000 0.0000 0.0000 20.5765 0.0000
# 6 0.0000 0.0000 0.0000 0.0000 0.0000 19.7466
#
#
#
# Elastic Compliance Matrix: (Units=1/GPa)
#
#
# Indices 1 2 3 4 5 6 
#
# 1 0.018266 -0.004051 -0.004958 0.000000 0.000000 0.000000
# 2 -0.004051 0.011669 -0.005680 0.000000 0.000000 0.000000
# 3 -0.004958 -0.005680 0.015408 0.000000 0.000000 0.000000
# 4 0.000000 0.000000 0.000000 0.033747 0.000000 0.000000
# 5 0.000000 0.000000 0.000000 0.000000 0.048599 0.000000
# 6 0.000000 0.000000 0.000000 0.000000 0.000000 0.050642
#
#
# Mechanical properties :
#
#
# Convention : Reuss Voigt Hill
#
# Bulk Modulus (GPa) = 62.63865 68.71438 65.67652
# Shear Modulus (GPa) = 23.47086 24.57235 24.02160
#
# Velocity S-wave (km/s) = 3.87122 3.96102 3.91638
# Velocity P-wave (km/s) = 7.74450 8.04950 7.89847
#
# Compressibility (1/GPa) = 0.01596458
#
# Stress axis : x y z
#
# Youngs Moduli (GPa) = 54.74670 85.69840 64.90197
#
# Poissons Ratio (x) = 0.34717 0.32180
# Poissons Ratio (y) = 0.22178 0.36862
# Poissons Ratio (z) = 0.27145 0.48673
#
# Static dielectric constant tensor:
#      x y z
#    x 2.908730 0.000000 0.000000 
#    y 0.000000 3.044100 0.000000 
#    z 0.000000 0.000000 2.830640 
# 
# 
# High freq. dielectric constant tensor:
#      x y z
#    x 1.568360 0.000000 0.000000 
#    y 0.000000 1.613750 0.000000 
#    z 0.000000 0.000000 1.587300 
# 
# From -- ./inp_files/37652.got.cif
#   From: 2010.03.12/outbox.cif.g09.slc.cpg/sg74_19_cif.got.tgz:37652.got - 2010.04.16 15:46:19.
