data_PCOD8298688
_publ_section_title
;
Structure prediction by ZEFSAII (Michael W. Deem and Ramdas Pophale) SiO2 
 PCOD8298688
Probable space group: I M M A
;
_chemical_formula_sum "Si O2"
_cell_formula_units_Z 72
_cell_length_a 19.198537
_cell_length_b 8.915811
_cell_length_c 22.979407
_cell_angle_alpha 90.000000
_cell_angle_beta 90.000000
_cell_angle_gamma 90.000000
_cell_volume 3933.397215
_symmetry_space_group_name_H-M "I M M A"
_symmetry_group_IT_number 74
_symmetry_cell_setting 'orthorhombic'
loop_
_space_group_symop_operation_xyz
x,y,z
-x,1/2-y,z
x,-y,-z
-x,1/2+y,-z
-x,-y,-z
x,1/2+y,-z
-x,y,z
x,1/2-y,z
1/2+x,1/2+y,1/2+z
1/2-x,-y,1/2+z
1/2+x,1/2-y,1/2-z
1/2-x,y,1/2-z
1/2-x,1/2-y,1/2-z
1/2+x,y,1/2-z
1/2-x,1/2+y,1/2+z
1/2+x,-y,1/2+z
loop_
_atom_site_type_symbol
_atom_site_label
_atom_site_fract_x
_atom_site_fract_y
_atom_site_fract_z
Si Si1 0.277258 0.927657 0.937707
Si Si2 0.116759 0.575257 0.940715
Si Si3 0.000000 0.073094 0.145827
Si Si4 0.500000 0.575743 0.230319
Si Si5 0.500000 0.426480 0.060158
Si Si6 0.888006 0.427521 0.635302
O O1 0.292568 0.750000 0.939868
O O2 0.196445 0.964111 0.926932
O O3 0.312077 0.002855 0.879389
O O4 0.300862 0.000000 0.000000
O O5 0.105350 0.750000 0.949553
O O6 0.068915 0.515685 0.887826
O O7 0.091158 0.500000 0.000000
O O8 0.000000 0.250000 0.150830
O O9 0.000000 0.012761 0.210576
O O10 0.500000 0.750000 0.244124
O O11 0.572067 0.533992 0.195908
O O12 0.500000 0.250000 0.059131
O O13 0.569576 0.487360 0.087096
O O14 0.500000 0.500000 0.000000
O O15 0.886780 0.250000 0.626028
#
# Coordination Sequence:
#
# PCOD8298688 Si02
#       6
#    16  16   8   8   8  16
#     4  10  19  32  51  77 108 139 171 208 257 311
#     4   9  19  34  54  82 110 135 166 207 256 312
#     4  10  20  36  57  79 104 134 171 215 260 306
#     4   9  21  38  54  73  98 133 178 220 255 298
#     4  11  20  30  46  70  98 131 171 211 257 306
#     4  10  20  35  51  70 100 135 174 217 255 298
#
# _framework density 18.304786
#
# number of rings (size 3 to 8) (size 9 to 14) (size 15 to 20)
#    0.000    2.222    0.000    4.000    0.000    4.444 
#    0.000    1.111    0.000    6.667    0.000    0.000 
#    0.000    0.000    0.000    0.000    0.000    0.000 
#
# Total GULP energy -445986.740796 kJ/mol
# GULP energy per Si atom -12388.520578 kJ/mol
# Density = 1.826312 g / cm^3
# Si number density = 18.304786 Si / 1000 Ang^3
#
#
#
# Elastic Constant Matrix: (Units=GPa)
#
#
# Indices 1 2 3 4 5 6 
#
# 1 104.9564 50.5998 68.7791 0.0000 0.0000 0.0000
# 2 50.5998 70.8453 66.6571 0.0000 0.0000 0.0000
# 3 68.7791 66.6571 130.5947 0.0000 0.0000 0.0000
# 4 0.0000 0.0000 0.0000 34.0822 0.0000 0.0000
# 5 0.0000 0.0000 0.0000 0.0000 27.8076 0.0000
# 6 0.0000 0.0000 0.0000 0.0000 0.0000 19.6324
#
#
#
# Elastic Compliance Matrix: (Units=1/GPa)
#
#
# Indices 1 2 3 4 5 6 
#
# 1 0.016074 -0.006763 -0.005013 0.000000 0.000000 0.000000
# 2 -0.006763 0.030003 -0.011752 0.000000 0.000000 0.000000
# 3 -0.005013 -0.011752 0.016296 0.000000 0.000000 0.000000
# 4 0.000000 0.000000 0.000000 0.029341 0.000000 0.000000
# 5 0.000000 0.000000 0.000000 0.000000 0.035961 0.000000
# 6 0.000000 0.000000 0.000000 0.000000 0.000000 0.050936
#
#
# Mechanical properties :
#
#
# Convention : Reuss Voigt Hill
#
# Bulk Modulus (GPa) = 65.29345 75.38538 70.33942
# Shear Modulus (GPa) = 21.66630 24.32847 22.99739
#
# Velocity S-wave (km/s) = 3.44414 3.64961 3.54836
# Velocity P-wave (km/s) = 7.18079 7.68325 7.43626
#
# Compressibility (1/GPa) = 0.01531547
#
# Stress axis : x y z
#
# Youngs Moduli (GPa) = 62.21349 33.33000 61.36537
#
# Poissons Ratio (x) = 0.22543 0.30764
# Poissons Ratio (y) = 0.42078 0.72116
# Poissons Ratio (z) = 0.31189 0.39169
#
# Static dielectric constant tensor:
#      x y z
#    x 3.693870 0.000000 0.000000 
#    y 0.000000 3.395400 0.000000 
#    z 0.000000 0.000000 3.308410 
# 
# 
# High freq. dielectric constant tensor:
#      x y z
#    x 1.719110 0.000000 0.000000 
#    y 0.000000 1.716200 0.000000 
#    z 0.000000 0.000000 1.691070 
# 
# From -- ./inp_files/48447.got.cif
#   From: 2010.03.12/outbox.cif.g09.slc.cpg/sg74_25_cif.got.tgz:48447.got - 2010.04.16 15:46:19.
