data_PCOD8298986
_publ_section_title
;
Structure prediction by ZEFSAII (Michael W. Deem and Ramdas Pophale) SiO2 
 PCOD8298986
Probable space group: I M M A
;
_chemical_formula_sum "Si O2"
_cell_formula_units_Z 88
_cell_length_a 8.738542
_cell_length_b 18.119678
_cell_length_c 28.679339
_cell_angle_alpha 90.000000
_cell_angle_beta 90.000000
_cell_angle_gamma 90.000000
_cell_volume 4541.074126
_symmetry_space_group_name_H-M "I M M A"
_symmetry_group_IT_number 74
_symmetry_cell_setting 'orthorhombic'
loop_
_space_group_symop_operation_xyz
x,y,z
-x,1/2-y,z
x,-y,-z
-x,1/2+y,-z
-x,-y,-z
x,1/2+y,-z
-x,y,z
x,1/2-y,z
1/2+x,1/2+y,1/2+z
1/2-x,-y,1/2+z
1/2+x,1/2-y,1/2-z
1/2-x,y,1/2-z
1/2-x,1/2-y,1/2-z
1/2+x,y,1/2-z
1/2-x,1/2+y,1/2+z
1/2+x,-y,1/2+z
loop_
_atom_site_type_symbol
_atom_site_label
_atom_site_fract_x
_atom_site_fract_y
_atom_site_fract_z
Si Si1 0.318300 0.750000 0.698516
Si Si2 0.820783 0.667041 0.547806
Si Si3 0.181439 0.544679 0.364531
Si Si4 0.180590 0.108791 0.139040
Si Si5 0.679340 0.063823 0.967994
Si Si6 0.676936 0.165615 0.700056
O O1 0.500000 0.750000 0.701996
O O2 0.250000 0.750000 0.750000
O O3 0.260181 0.823009 0.670934
O O4 0.761263 0.750000 0.551356
O O5 0.731437 0.618990 0.585632
O O6 0.785732 0.640151 0.495076
O O7 0.000000 0.659532 0.558910
O O8 0.248573 0.468508 0.343369
O O9 0.249535 0.560833 0.416286
O O10 0.232864 0.614139 0.334995
O O11 0.000000 0.538723 0.363804
O O12 0.000000 0.103504 0.141949
O O13 0.500000 0.049892 0.962573
O O14 0.752262 0.000000 0.000000
O O15 0.500000 0.142856 0.701985
O O16 0.697437 0.250000 0.683482
O O17 0.750000 0.153360 0.750000
#
# Coordination Sequence:
#
# PCOD8298986 Si02
#       6
#     8  16  16  16  16  16
#     4  10  24  42  60  82 112 150 194 248 301 354
#     4  10  19  33  56  82 108 149 202 246 288 347
#     4  11  22  37  62  92 122 158 201 248 296 350
#     4  11  22  38  57  82 117 154 195 245 303 359
#     4   9  17  32  53  81 116 150 193 242 287 338
#     4  10  22  42  66  91 121 156 195 242 298 360
#
# _framework density 19.378675000000001
#
# number of rings (size 3 to 8) (size 9 to 14) (size 15 to 20)
#    0.000    1.818    2.727    1.636    0.000    4.000 
#    0.000    6.364    0.000    0.000    0.000    0.000 
#    0.000    0.000    0.000    0.000    0.000    0.000 
#
# Total GULP energy -545571.576692 kJ/mol
# GULP energy per Si atom -12399.354016 kJ/mol
# Density = 1.933457 g / cm^3
# Si number density = 19.378675 Si / 1000 Ang^3
#
#
#
# Elastic Constant Matrix: (Units=GPa)
#
#
# Indices 1 2 3 4 5 6 
#
# 1 57.7046 35.4233 28.3758 0.0000 0.0000 0.0000
# 2 35.4233 119.1619 62.9213 0.0000 0.0000 0.0000
# 3 28.3758 62.9213 103.6640 0.0000 0.0000 0.0000
# 4 0.0000 0.0000 0.0000 41.3147 0.0000 0.0000
# 5 0.0000 0.0000 0.0000 0.0000 21.4816 0.0000
# 6 0.0000 0.0000 0.0000 0.0000 0.0000 31.0358
#
#
#
# Elastic Compliance Matrix: (Units=1/GPa)
#
#
# Indices 1 2 3 4 5 6 
#
# 1 0.021812 -0.004903 -0.002995 0.000000 0.000000 0.000000
# 2 -0.004903 0.013452 -0.006823 0.000000 0.000000 0.000000
# 3 -0.002995 -0.006823 0.014608 0.000000 0.000000 0.000000
# 4 0.000000 0.000000 0.000000 0.024204 0.000000 0.000000
# 5 0.000000 0.000000 0.000000 0.000000 0.046551 0.000000
# 6 0.000000 0.000000 0.000000 0.000000 0.000000 0.032221
#
#
# Mechanical properties :
#
#
# Convention : Reuss Voigt Hill
#
# Bulk Modulus (GPa) = 48.94588 59.33017 54.13802
# Shear Modulus (GPa) = 26.44103 29.02043 27.73073
#
# Velocity S-wave (km/s) = 3.69784 3.87401 3.78695
# Velocity P-wave (km/s) = 6.59882 7.11992 6.86432
#
# Compressibility (1/GPa) = 0.02043073
#
# Stress axis : x y z
#
# Youngs Moduli (GPa) = 45.84648 74.33727 68.45681
#
# Poissons Ratio (x) = 0.36446 0.20501
# Poissons Ratio (y) = 0.22477 0.46709
# Poissons Ratio (z) = 0.13730 0.50721
#
# Static dielectric constant tensor:
#      x y z
#    x 3.356280 0.000000 0.000000 
#    y 0.000000 3.764650 0.000000 
#    z 0.000000 0.000000 3.609230 
# 
# 
# High freq. dielectric constant tensor:
#      x y z
#    x 1.736820 0.000000 0.000000 
#    y 0.000000 1.767300 0.000000 
#    z 0.000000 0.000000 1.753090 
# 
# From -- ./inp_files/70234.got.cif
#   From: 2010.03.12/outbox.cif.g09.slc.cpg/sg74_36_cif.got.tgz:70234.got - 2010.04.16 15:46:19.
