data_PCOD8298953
_publ_section_title
;
Structure prediction by ZEFSAII (Michael W. Deem and Ramdas Pophale) SiO2 
 PCOD8298953
Probable space group: I M M A
;
_chemical_formula_sum "Si O2"
_cell_formula_units_Z 80
_cell_length_a 18.163418
_cell_length_b 12.453839
_cell_length_c 17.945815
_cell_angle_alpha 90.000000
_cell_angle_beta 90.000000
_cell_angle_gamma 90.000000
_cell_volume 4059.420223
_symmetry_space_group_name_H-M "I M M A"
_symmetry_group_IT_number 74
_symmetry_cell_setting 'orthorhombic'
loop_
_space_group_symop_operation_xyz
x,y,z
-x,1/2-y,z
x,-y,-z
-x,1/2+y,-z
-x,-y,-z
x,1/2+y,-z
-x,y,z
x,1/2-y,z
1/2+x,1/2+y,1/2+z
1/2-x,-y,1/2+z
1/2+x,1/2-y,1/2-z
1/2-x,y,1/2-z
1/2-x,1/2-y,1/2-z
1/2+x,y,1/2-z
1/2-x,1/2+y,1/2+z
1/2+x,-y,1/2+z
loop_
_atom_site_type_symbol
_atom_site_label
_atom_site_fract_x
_atom_site_fract_y
_atom_site_fract_z
Si Si1 0.816037 0.369425 0.200365
Si Si2 0.655169 0.041252 0.922738
Si Si3 0.824311 0.959615 0.077055
Si Si4 0.156867 0.250000 0.664432
Si Si5 0.917604 0.869533 0.670447
Si Si6 0.332981 0.750000 0.337349
O O1 0.791422 0.250000 0.175171
O O2 0.750000 0.420288 0.250000
O O3 0.831153 0.438822 0.129109
O O4 0.893378 0.365213 0.243800
O O5 0.739586 0.067841 0.939509
O O6 0.623315 0.147313 0.880716
O O7 0.643838 0.941017 0.868882
O O8 0.616567 0.000000 0.000000
O O9 0.861008 0.855173 0.116618
O O10 0.862592 0.000000 0.000000
O O11 0.244949 0.250000 0.666065
O O12 0.133225 0.250000 0.752647
O O13 0.915580 0.750000 0.635645
O O14 0.000000 0.917928 0.663907
#
# Coordination Sequence:
#
# PCOD8298953 Si02
#       6
#    16  16  16   8  16   8
#     4  10  19  33  55  79 104 137 178 224 262 313
#     4  10  20  32  51  76 108 143 177 219 261 311
#     4  10  20  31  51  80 111 136 175 220 273 320
#     4   9  18  32  49  74 101 143 183 212 259 319
#     4  10  21  36  54  77 105 142 179 216 266 321
#     4   9  18  30  48  70 110 144 166 215 274 321
#
# _framework density 19.707246999999999
#
# number of rings (size 3 to 8) (size 9 to 14) (size 15 to 20)
#    0.000    2.200    2.000    1.200    5.600    0.400 
#    0.000    0.500    0.000    0.600    0.000    0.000 
#    0.000    0.000    0.000    0.000    0.000    0.000 
#
# Total GULP energy -495556.292513 kJ/mol
# GULP energy per Si atom -12388.907313 kJ/mol
# Density = 1.966239 g / cm^3
# Si number density = 19.707247 Si / 1000 Ang^3
#
#
#
# Elastic Constant Matrix: (Units=GPa)
#
#
# Indices 1 2 3 4 5 6 
#
# 1 19.9371 6.6210 2.7950 0.0000 0.0000 0.0000
# 2 6.6210 128.0777 93.5948 0.0000 0.0000 0.0000
# 3 2.7950 93.5948 158.5063 0.0000 0.0000 0.0000
# 4 0.0000 0.0000 0.0000 41.3354 0.0000 0.0000
# 5 0.0000 0.0000 0.0000 0.0000 8.2108 0.0000
# 6 0.0000 0.0000 0.0000 0.0000 0.0000 7.7780
#
#
#
# Elastic Compliance Matrix: (Units=1/GPa)
#
#
# Indices 1 2 3 4 5 6 
#
# 1 0.051155 -0.003492 0.001160 0.000000 0.000000 0.000000
# 2 -0.003492 0.013972 -0.008189 0.000000 0.000000 0.000000
# 3 0.001160 -0.008189 0.011124 0.000000 0.000000 0.000000
# 4 0.000000 0.000000 0.000000 0.024192 0.000000 0.000000
# 5 0.000000 0.000000 0.000000 0.000000 0.121790 0.000000
# 6 0.000000 0.000000 0.000000 0.000000 0.000000 0.128568
#
#
# Mechanical properties :
#
#
# Convention : Reuss Voigt Hill
#
# Bulk Modulus (GPa) = 18.11298 56.94919 37.53108
# Shear Modulus (GPa) = 12.81241 25.03219 18.92230
#
# Velocity S-wave (km/s) = 2.55254 3.56786 3.10202
# Velocity P-wave (km/s) = 4.23064 6.77740 5.64940
#
# Compressibility (1/GPa) = 0.05520904
#
# Stress axis : x y z
#
# Youngs Moduli (GPa) = 19.54849 71.56955 89.89739
#
# Poissons Ratio (x) = 0.24993 -0.10428
# Poissons Ratio (y) = 0.06827 0.73616
# Poissons Ratio (z) = -0.02268 0.58607
#
# Static dielectric constant tensor:
#      x y z
#    x 3.088670 0.000000 0.000000 
#    y 0.000000 3.756420 0.000000 
#    z 0.000000 0.000000 3.772230 
# 
# 
# High freq. dielectric constant tensor:
#      x y z
#    x 1.697200 0.000000 0.000000 
#    y 0.000000 1.781140 0.000000 
#    z 0.000000 0.000000 1.771780 
# 
# From -- ./inp_files/45069.got.cif
#   From: 2010.03.12/outbox.cif.g09.slc.cpg/sg74_23_cif.got.tgz:45069.got - 2010.04.16 15:46:19.
