data_PCOD8298494
_publ_section_title
;
Structure prediction by ZEFSAII (Michael W. Deem and Ramdas Pophale) SiO2 
 PCOD8298494
Probable space group: I M M A
;
_chemical_formula_sum "Si O2"
_cell_formula_units_Z 104
_cell_length_a 7.808227
_cell_length_b 22.110412
_cell_length_c 33.341162
_cell_angle_alpha 90.000000
_cell_angle_beta 90.000000
_cell_angle_gamma 90.000000
_cell_volume 5756.122097
_symmetry_space_group_name_H-M "I M M A"
_symmetry_group_IT_number 74
_symmetry_cell_setting 'orthorhombic'
loop_
_space_group_symop_operation_xyz
x,y,z
-x,1/2-y,z
x,-y,-z
-x,1/2+y,-z
-x,-y,-z
x,1/2+y,-z
-x,y,z
x,1/2-y,z
1/2+x,1/2+y,1/2+z
1/2-x,-y,1/2+z
1/2+x,1/2-y,1/2-z
1/2-x,y,1/2-z
1/2-x,1/2-y,1/2-z
1/2+x,y,1/2-z
1/2-x,1/2+y,1/2+z
1/2+x,-y,1/2+z
loop_
_atom_site_type_symbol
_atom_site_label
_atom_site_fract_x
_atom_site_fract_y
_atom_site_fract_z
Si Si1 0.803718 0.859957 0.847762
Si Si2 0.000000 0.821566 0.074599
Si Si3 0.000000 0.821798 0.985260
Si Si4 0.197720 0.820946 0.368007
Si Si5 0.701193 0.750000 0.704092
Si Si6 0.701423 0.465872 0.206143
Si Si7 0.691408 0.819974 0.930370
Si Si8 0.799754 0.898749 0.293250
O O1 0.724440 0.809780 0.817614
O O2 0.788607 0.925625 0.827964
O O3 0.702768 0.858439 0.889611
O O4 0.000000 0.845190 0.857574
O O5 0.174778 0.842604 0.096726
O O6 0.000000 0.750000 0.071956
O O7 0.000000 0.849956 0.029993
O O8 0.171187 0.844462 0.962592
O O9 0.000000 0.750000 0.988153
O O10 0.215424 0.750000 0.359702
O O11 0.264972 0.854395 0.328044
O O12 0.000000 0.837468 0.379049
O O13 0.500000 0.750000 0.700422
O O14 0.750000 0.750000 0.750000
O O15 0.500000 0.463581 0.199798
O O16 0.750000 0.440214 0.250000
O O17 0.778131 0.533766 0.201641
O O18 0.500000 0.827722 0.948340
O O19 0.730519 0.750000 0.920022
O O20 0.750000 0.871243 0.250000
O O21 0.000000 0.904644 0.296086
#
# Coordination Sequence:
#
# PCOD8298494 Si02
#       8
#    16   8   8  16   8  16  16  16
#     4  11  20  33  49  67  96 132 169 217 267 306
#     4   9  18  32  52  79 107 145 171 205 257 309
#     4   9  18  32  50  73 109 133 169 214 256 316
#     4   9  18  33  52  78 111 140 172 207 249 303
#     4  10  22  32  44  62  92 130 168 214 262 312
#     4  10  20  34  48  68  97 131 177 221 259 301
#     4  10  19  31  50  74  99 133 169 210 266 317
#     4   9  19  33  50  73 103 138 175 218 254 292
#
# _framework density 18.067720000000001
#
# number of rings (size 3 to 8) (size 9 to 14) (size 15 to 20)
#    0.000    2.308    1.538    1.385    1.077    4.000 
#    0.000    3.077    0.000    0.000    0.000    2.154 
#    0.000    4.923    0.000    0.000    0.000    0.000 
#
# Total GULP energy -644736.728548 kJ/mol
# GULP energy per Si atom -12398.783241 kJ/mol
# Density = 1.802660 g / cm^3
# Si number density = 18.067720 Si / 1000 Ang^3
#
#
#
# Elastic Constant Matrix: (Units=GPa)
#
#
# Indices 1 2 3 4 5 6 
#
# 1 91.9975 20.8176 56.6103 0.0000 0.0000 0.0000
# 2 20.8176 47.1553 43.1787 0.0000 0.0000 0.0000
# 3 56.6103 43.1787 158.0506 0.0000 0.0000 0.0000
# 4 0.0000 0.0000 0.0000 17.6928 0.0000 0.0000
# 5 0.0000 0.0000 0.0000 0.0000 28.2978 0.0000
# 6 0.0000 0.0000 0.0000 0.0000 0.0000 15.7520
#
#
#
# Elastic Compliance Matrix: (Units=1/GPa)
#
#
# Indices 1 2 3 4 5 6 
#
# 1 0.014102 -0.002135 -0.004468 0.000000 0.000000 0.000000
# 2 -0.002135 0.028604 -0.007050 0.000000 0.000000 0.000000
# 3 -0.004468 -0.007050 0.009853 0.000000 0.000000 0.000000
# 4 0.000000 0.000000 0.000000 0.056520 0.000000 0.000000
# 5 0.000000 0.000000 0.000000 0.000000 0.035338 0.000000
# 6 0.000000 0.000000 0.000000 0.000000 0.000000 0.063484
#
#
# Mechanical properties :
#
#
# Convention : Reuss Voigt Hill
#
# Bulk Modulus (GPa) = 39.59616 59.82409 49.71013
# Shear Modulus (GPa) = 20.52328 24.12165 22.32246
#
# Velocity S-wave (km/s) = 3.37398 3.65782 3.51877
# Velocity P-wave (km/s) = 6.09437 7.14300 6.63942
#
# Compressibility (1/GPa) = 0.02525497
#
# Stress axis : x y z
#
# Youngs Moduli (GPa) = 70.91086 34.95971 101.48723
#
# Poissons Ratio (x) = 0.07462 0.45344
# Poissons Ratio (y) = 0.15136 0.71549
# Poissons Ratio (z) = 0.31683 0.24647
#
# Static dielectric constant tensor:
#      x y z
#    x 3.394610 0.000000 0.000000 
#    y 0.000000 3.260510 0.000000 
#    z 0.000000 0.000000 3.141620 
# 
# 
# High freq. dielectric constant tensor:
#      x y z
#    x 1.709930 0.000000 0.000000 
#    y 0.000000 1.661360 0.000000 
#    z 0.000000 0.000000 1.690070 
# 
# From -- ./inp_files/70849.got.cif
#   From: 2010.03.12/outbox.cif.g09.slc.cpg/sg74_36_cif.got.tgz:70849.got - 2010.04.16 15:46:19.
