data_PCOD8298212
_publ_section_title
;
Structure prediction by ZEFSAII (Michael W. Deem and Ramdas Pophale) SiO2 
 PCOD8298212
Probable space group: I M M A
;
_chemical_formula_sum "Si O2"
_cell_formula_units_Z 96
_cell_length_a 9.097460
_cell_length_b 25.138806
_cell_length_c 23.814781
_cell_angle_alpha 90.000000
_cell_angle_beta 90.000000
_cell_angle_gamma 90.000000
_cell_volume 5446.423316
_symmetry_space_group_name_H-M "I M M A"
_symmetry_group_IT_number 74
_symmetry_cell_setting 'orthorhombic'
loop_
_space_group_symop_operation_xyz
x,y,z
-x,1/2-y,z
x,-y,-z
-x,1/2+y,-z
-x,-y,-z
x,1/2+y,-z
-x,y,z
x,1/2-y,z
1/2+x,1/2+y,1/2+z
1/2-x,-y,1/2+z
1/2+x,1/2-y,1/2-z
1/2-x,y,1/2-z
1/2-x,1/2-y,1/2-z
1/2+x,y,1/2-z
1/2-x,1/2+y,1/2+z
1/2+x,-y,1/2+z
loop_
_atom_site_type_symbol
_atom_site_label
_atom_site_fract_x
_atom_site_fract_y
_atom_site_fract_z
Si Si1 0.670890 0.188083 0.807236
Si Si2 0.172329 0.894746 0.119786
Si Si3 0.672771 0.810076 0.692766
Si Si4 0.828019 0.998456 0.190927
Si Si5 0.675009 0.060043 0.502388
Si Si6 0.174373 0.095560 0.116398
O O1 0.500000 0.174318 0.800899
O O2 0.697708 0.250000 0.819262
O O3 0.750000 0.170061 0.750000
O O4 0.739171 0.156630 0.859528
O O5 0.230997 0.909274 0.057622
O O6 0.000000 0.881276 0.119355
O O7 0.208472 0.943540 0.160463
O O8 0.500000 0.815579 0.702678
O O9 0.717150 0.750000 0.676079
O O10 0.750000 0.827967 0.750000
O O11 0.727585 0.848680 0.643016
O O12 0.750000 0.999504 0.250000
O O13 0.764964 0.046514 0.153102
O O14 0.000000 0.005573 0.200957
O O15 0.500000 0.057221 0.504418
O O16 0.733236 0.091413 0.447396
O O17 0.737580 0.000000 0.500000
O O18 0.000000 0.092039 0.115171
#
# Coordination Sequence:
#
# PCOD8298212 Si02
#       6
#    16  16  16  16  16  16
#     4  10  21  37  56  76 101 134 168 205 252 303
#     4  10  19  31  51  77 101 129 167 206 248 298
#     4   9  17  29  46  68  94 124 158 198 243 287
#     4  10  19  29  44  69  98 126 157 198 248 297
#     4   9  15  28  49  72  98 132 169 202 241 292
#     4   9  16  28  46  68  95 126 163 203 241 284
#
# _framework density 17.626245999999998
#
# number of rings (size 3 to 8) (size 9 to 14) (size 15 to 20)
#    0.000    2.500    1.667    1.500    0.000    3.000 
#    0.000    0.833    0.000    5.500    0.000    2.333 
#    0.000    0.000    0.000    0.000    0.000    0.000 
#
# Total GULP energy -595179.016209 kJ/mol
# GULP energy per Si atom -12399.562838 kJ/mol
# Density = 1.758613 g / cm^3
# Si number density = 17.626246 Si / 1000 Ang^3
#
#
#
# Elastic Constant Matrix: (Units=GPa)
#
#
# Indices 1 2 3 4 5 6 
#
# 1 34.9741 35.0845 38.3524 0.0000 0.0000 0.0000
# 2 35.0845 105.5574 78.6368 0.0000 0.0000 0.0000
# 3 38.3524 78.6368 173.1263 0.0000 0.0000 0.0000
# 4 0.0000 0.0000 0.0000 30.6538 0.0000 0.0000
# 5 0.0000 0.0000 0.0000 0.0000 23.4011 0.0000
# 6 0.0000 0.0000 0.0000 0.0000 0.0000 17.9786
#
#
#
# Elastic Compliance Matrix: (Units=1/GPa)
#
#
# Indices 1 2 3 4 5 6 
#
# 1 0.045433 -0.011491 -0.004845 0.000000 0.000000 0.000000
# 2 -0.011491 0.017225 -0.005278 0.000000 0.000000 0.000000
# 3 -0.004845 -0.005278 0.009247 0.000000 0.000000 0.000000
# 4 0.000000 0.000000 0.000000 0.032622 0.000000 0.000000
# 5 0.000000 0.000000 0.000000 0.000000 0.042733 0.000000
# 6 0.000000 0.000000 0.000000 0.000000 0.000000 0.055622
#
#
# Mechanical properties :
#
#
# Convention : Reuss Voigt Hill
#
# Bulk Modulus (GPa) = 34.87259 68.64501 51.75880
# Shear Modulus (GPa) = 19.55640 25.17897 22.36769
#
# Velocity S-wave (km/s) = 3.33454 3.78364 3.56617
# Velocity P-wave (km/s) = 5.88667 7.62347 6.81066
#
# Compressibility (1/GPa) = 0.02867582
#
# Stress axis : x y z
#
# Youngs Moduli (GPa) = 22.01022 58.05501 108.14370
#
# Poissons Ratio (x) = 0.66713 0.52398
# Poissons Ratio (y) = 0.25293 0.57081
# Poissons Ratio (z) = 0.10664 0.30643
#
# Static dielectric constant tensor:
#      x y z
#    x 2.910950 0.000000 0.000000 
#    y 0.000000 3.375170 0.000000 
#    z 0.000000 0.000000 3.487030 
# 
# 
# High freq. dielectric constant tensor:
#      x y z
#    x 1.642530 0.000000 0.000000 
#    y 0.000000 1.685440 0.000000 
#    z 0.000000 0.000000 1.686840 
# 
# From -- ./inp_files/57269.got.cif
#   From: 2010.03.12/outbox.cif.g09.slc.cpg/sg74_29_cif.got.tgz:57269.got - 2010.04.16 15:46:19.
