data_PCOD8298258
_publ_section_title
;
Structure prediction by ZEFSAII (Michael W. Deem and Ramdas Pophale) SiO2 
 PCOD8298258
Probable space group: I M M A
;
_chemical_formula_sum "Si O2"
_cell_formula_units_Z 112
_cell_length_a 14.257930
_cell_length_b 27.063184
_cell_length_c 16.940760
_cell_angle_alpha 90.000000
_cell_angle_beta 90.000000
_cell_angle_gamma 90.000000
_cell_volume 6536.846070
_symmetry_space_group_name_H-M "I M M A"
_symmetry_group_IT_number 74
_symmetry_cell_setting 'orthorhombic'
loop_
_space_group_symop_operation_xyz
x,y,z
-x,1/2-y,z
x,-y,-z
-x,1/2+y,-z
-x,-y,-z
x,1/2+y,-z
-x,y,z
x,1/2-y,z
1/2+x,1/2+y,1/2+z
1/2-x,-y,1/2+z
1/2+x,1/2-y,1/2-z
1/2-x,y,1/2-z
1/2-x,1/2-y,1/2-z
1/2+x,y,1/2-z
1/2-x,1/2+y,1/2+z
1/2+x,-y,1/2+z
loop_
_atom_site_type_symbol
_atom_site_label
_atom_site_fract_x
_atom_site_fract_y
_atom_site_fract_z
Si Si1 0.108170 0.848613 0.821581
Si Si2 0.604612 0.805947 0.838535
Si Si3 0.732654 0.694787 0.546515
Si Si4 0.894627 0.538278 0.570796
Si Si5 0.608736 0.450748 0.401471
Si Si6 0.745924 0.406327 0.519068
Si Si7 0.752930 0.024674 0.659343
O O1 0.145714 0.839592 0.732632
O O2 0.158634 0.813171 0.883814
O O3 0.124222 0.905828 0.840872
O O4 0.000000 0.833333 0.825639
O O5 0.500000 0.822900 0.861307
O O6 0.606583 0.750000 0.806966
O O7 0.664324 0.811338 0.917406
O O8 0.718550 0.750000 0.510438
O O9 0.722465 0.652403 0.479276
O O10 0.899654 0.500000 0.500000
O O11 0.835597 0.585186 0.539091
O O12 0.839952 0.512723 0.643759
O O13 0.000000 0.553993 0.597515
O O14 0.500000 0.461410 0.418356
O O15 0.658307 0.437559 0.484512
O O16 0.655073 0.498860 0.363006
O O17 0.765161 0.425465 0.607439
O O18 0.750000 0.041015 0.750000
#
# Coordination Sequence:
#
# PCOD8298258 Si02
#       7
#    16  16  16  16  16  16  16
#     4   9  17  28  43  66  94 121 147 176 214 260
#     4   9  17  28  42  63  91 120 149 181 217 257
#     4  10  19  30  45  63  85 117 156 192 224 261
#     4   8  15  30  50  69  90 117 147 178 217 268
#     4   9  18  32  49  69  94 123 151 178 215 268
#     4   9  19  33  48  67  91 120 152 188 227 266
#     4  10  20  32  47  69  94 119 150 187 227 270
#
# _framework density 17.133644
#
# number of rings (size 3 to 8) (size 9 to 14) (size 15 to 20)
#    0.000    2.857    0.000    2.143    0.000    7.714 
#    0.000    1.429    0.000    0.429    0.000    0.000 
#    0.000    0.000    0.000   11.286    0.000    0.000 
#
# Total GULP energy -694204.025507 kJ/mol
# GULP energy per Si atom -12396.500455 kJ/mol
# Density = 1.709465 g / cm^3
# Si number density = 17.133644 Si / 1000 Ang^3
#
#
#
# Elastic Constant Matrix: (Units=GPa)
#
#
# Indices 1 2 3 4 5 6 
#
# 1 90.5921 15.4026 15.8360 0.0000 0.0000 0.0000
# 2 15.4026 85.6222 33.7067 0.0000 0.0000 0.0000
# 3 15.8360 33.7067 79.9233 0.0002 0.0000 0.0000
# 4 0.0000 0.0000 0.0002 17.5960 0.0000 0.0000
# 5 0.0000 0.0000 0.0000 0.0000 13.6864 0.0000
# 6 0.0000 0.0000 0.0000 0.0000 0.0000 18.4874
#
#
#
# Elastic Compliance Matrix: (Units=1/GPa)
#
#
# Indices 1 2 3 4 5 6 
#
# 1 0.011576 -0.001414 -0.001697 0.000000 0.000000 0.000000
# 2 -0.001414 0.014177 -0.005699 0.000000 0.000000 0.000000
# 3 -0.001697 -0.005699 0.015252 0.000000 0.000000 0.000000
# 4 0.000000 0.000000 0.000000 0.056831 0.000000 0.000000
# 5 0.000000 0.000000 0.000000 0.000000 0.073065 0.000000
# 6 0.000000 0.000000 0.000000 0.000000 0.000000 0.054091
#
#
# Mechanical properties :
#
#
# Convention : Reuss Voigt Hill
#
# Bulk Modulus (GPa) = 42.76430 42.89201 42.82815
# Shear Modulus (GPa) = 19.96752 22.70011 21.33382
#
# Velocity S-wave (km/s) = 3.41750 3.64385 3.53248
# Velocity P-wave (km/s) = 6.37070 6.54153 6.45668
#
# Compressibility (1/GPa) = 0.02338399
#
# Stress axis : x y z
#
# Youngs Moduli (GPa) = 86.38852 70.53655 65.56658
#
# Poissons Ratio (x) = 0.09975 0.11128
# Poissons Ratio (y) = 0.12217 0.37365
# Poissons Ratio (z) = 0.14662 0.40197
#
# Static dielectric constant tensor:
#      x y z
#    x 3.483920 0.000000 0.000000 
#    y 0.000000 3.158860 0.000000 
#    z 0.000000 0.000000 2.836820 
# 
# 
# High freq. dielectric constant tensor:
#      x y z
#    x 1.672900 0.000000 0.000000 
#    y 0.000000 1.651650 0.000000 
#    z 0.000000 0.000000 1.615920 
# 
# From -- ./inp_files/32961.got.cif
#   From: 2010.03.12/outbox.cif.g09.slc.cpg/sg74_17_cif.got.tgz:32961.got - 2010.04.16 15:46:19.
