data_PCOD8298033
_publ_section_title
;
Structure prediction by ZEFSAII (Michael W. Deem and Ramdas Pophale) SiO2 
 PCOD8298033
Probable space group: I M M A
;
_chemical_formula_sum "Si O2"
_cell_formula_units_Z 96
_cell_length_a 16.586399
_cell_length_b 18.786918
_cell_length_c 17.560173
_cell_angle_alpha 90.000000
_cell_angle_beta 90.000000
_cell_angle_gamma 90.000000
_cell_volume 5471.878411
_symmetry_space_group_name_H-M "I M M A"
_symmetry_group_IT_number 74
_symmetry_cell_setting 'orthorhombic'
loop_
_space_group_symop_operation_xyz
x,y,z
-x,1/2-y,z
x,-y,-z
-x,1/2+y,-z
-x,-y,-z
x,1/2+y,-z
-x,y,z
x,1/2-y,z
1/2+x,1/2+y,1/2+z
1/2-x,-y,1/2+z
1/2+x,1/2-y,1/2-z
1/2-x,y,1/2-z
1/2-x,1/2-y,1/2-z
1/2+x,y,1/2-z
1/2-x,1/2+y,1/2+z
1/2+x,-y,1/2+z
loop_
_atom_site_type_symbol
_atom_site_label
_atom_site_fract_x
_atom_site_fract_y
_atom_site_fract_z
Si Si1 0.701953 0.957157 0.073069
Si Si2 0.198797 0.831588 0.674240
Si Si3 0.239836 0.830699 0.991159
Si Si4 0.905391 0.032166 0.316545
Si Si5 0.678995 0.434712 0.698035
Si Si6 0.090975 0.832177 0.091108
O O1 0.698565 0.874956 0.045388
O O2 0.774920 0.974489 0.130137
O O3 0.618405 0.983596 0.110291
O O4 0.726891 0.000000 0.000000
O O5 0.166192 0.750000 0.672809
O O6 0.250000 0.844916 0.750000
O O7 0.252414 0.847290 0.598818
O O8 0.125194 0.886883 0.674512
O O9 0.263485 0.750000 0.008255
O O10 0.147970 0.847458 0.017910
O O11 0.000000 0.035474 0.310984
O O12 0.870820 0.995371 0.241097
O O13 0.750000 0.399564 0.750000
O O14 0.619824 0.374207 0.666340
O O15 0.094087 0.750000 0.114288
O O16 0.000000 0.855449 0.069327
#
# Coordination Sequence:
#
# PCOD8298033 Si02
#       6
#    16  16  16  16  16  16
#     4  10  18  33  56  78  99 135 180 214 251 310
#     4  10  20  36  57  76 100 139 182 217 254 308
#     4   9  18  33  54  78 104 135 175 216 254 308
#     4  11  22  35  53  78 109 138 170 215 266 309
#     4   9  19  33  53  76 104 141 174 212 249 308
#     4   9  17  31  53  80 109 137 166 210 266 311
#
# _framework density 17.544250000000002
#
# number of rings (size 3 to 8) (size 9 to 14) (size 15 to 20)
#    0.000    2.333    1.667    2.000    0.000    1.000 
#    0.000    3.333    0.000    7.000    0.000    0.000 
#    0.000    0.000    0.000    0.000    0.000    0.000 
#
# Total GULP energy -594887.383624 kJ/mol
# GULP energy per Si atom -12393.487159 kJ/mol
# Density = 1.750432 g / cm^3
# Si number density = 17.544250 Si / 1000 Ang^3
#
#
#
# Elastic Constant Matrix: (Units=GPa)
#
#
# Indices 1 2 3 4 5 6 
#
# 1 112.0498 60.8257 59.0069 0.0000 0.0000 0.0000
# 2 60.8257 96.0278 59.3449 0.0000 0.0000 0.0000
# 3 59.0069 59.3449 133.3446 0.0000 0.0000 0.0000
# 4 0.0000 0.0000 0.0000 30.8778 0.0000 0.0000
# 5 0.0000 0.0000 0.0000 0.0000 14.0942 0.0000
# 6 0.0000 0.0000 0.0000 0.0000 0.0000 25.4651
#
#
#
# Elastic Compliance Matrix: (Units=1/GPa)
#
#
# Indices 1 2 3 4 5 6 
#
# 1 0.014540 -0.007219 -0.003221 0.000000 0.000000 0.000000
# 2 -0.007219 0.017949 -0.004794 0.000000 0.000000 0.000000
# 3 -0.003221 -0.004794 0.011058 0.000000 0.000000 0.000000
# 4 0.000000 0.000000 0.000000 0.032386 0.000000 0.000000
# 5 0.000000 0.000000 0.000000 0.000000 0.070951 0.000000
# 6 0.000000 0.000000 0.000000 0.000000 0.000000 0.039269
#
#
# Mechanical properties :
#
#
# Convention : Reuss Voigt Hill
#
# Bulk Modulus (GPa) = 76.45817 77.75300 77.10559
# Shear Modulus (GPa) = 22.62648 24.90373 23.76511
#
# Velocity S-wave (km/s) = 3.59511 3.77169 3.68446
# Velocity P-wave (km/s) = 7.80435 7.96128 7.88320
#
# Compressibility (1/GPa) = 0.01307905
#
# Stress axis : x y z
#
# Youngs Moduli (GPa) = 68.77691 55.71436 90.43094
#
# Poissons Ratio (x) = 0.40220 0.29130
# Poissons Ratio (y) = 0.49650 0.43348
# Poissons Ratio (z) = 0.22155 0.26707
#
# Static dielectric constant tensor:
#      x y z
#    x 3.108930 0.000000 0.000000 
#    y 0.000000 3.550960 0.000000 
#    z 0.000000 0.000000 3.550860 
# 
# 
# High freq. dielectric constant tensor:
#      x y z
#    x 1.652400 0.000000 0.000000 
#    y 0.000000 1.685980 0.000000 
#    z 0.000000 0.000000 1.689390 
# 
# From -- ./inp_files/32353.got.cif
#   From: 2010.03.12/outbox.cif.g09.slc.cpg/sg74_17_cif.got.tgz:32353.got - 2010.04.16 15:46:19.
