data_PCOD8298134
_publ_section_title
;
Structure prediction by ZEFSAII (Michael W. Deem and Ramdas Pophale) SiO2 
 PCOD8298134
Probable space group: I M M A
;
_chemical_formula_sum "Si O2"
_cell_formula_units_Z 80
_cell_length_a 29.103247
_cell_length_b 8.816131
_cell_length_c 22.967712
_cell_angle_alpha 90.000000
_cell_angle_beta 90.000000
_cell_angle_gamma 90.000000
_cell_volume 5893.010484
_symmetry_space_group_name_H-M "I M M A"
_symmetry_group_IT_number 74
_symmetry_cell_setting 'orthorhombic'
loop_
_space_group_symop_operation_xyz
x,y,z
-x,1/2-y,z
x,-y,-z
-x,1/2+y,-z
-x,-y,-z
x,1/2+y,-z
-x,y,z
x,1/2-y,z
1/2+x,1/2+y,1/2+z
1/2-x,-y,1/2+z
1/2+x,1/2-y,1/2-z
1/2-x,y,1/2-z
1/2-x,1/2-y,1/2-z
1/2+x,y,1/2-z
1/2-x,1/2+y,1/2+z
1/2+x,-y,1/2+z
loop_
_atom_site_type_symbol
_atom_site_label
_atom_site_fract_x
_atom_site_fract_y
_atom_site_fract_z
Si Si1 0.052381 0.571745 0.560653
Si Si2 0.272308 0.424999 0.329353
Si Si3 0.187700 0.575696 0.268145
Si Si4 0.631754 0.074460 0.875167
Si Si5 0.281827 0.428580 0.061476
O O1 0.068994 0.500000 0.500000
O O2 0.058319 0.750000 0.555915
O O3 0.083782 0.508111 0.612391
O O4 0.000000 0.524943 0.574397
O O5 0.283884 0.250000 0.320378
O O6 0.225374 0.467696 0.296905
O O7 0.314612 0.521395 0.299966
O O8 0.262597 0.461671 0.397263
O O9 0.203545 0.750000 0.271196
O O10 0.141178 0.553656 0.305620
O O11 0.627708 0.250000 0.892000
O O12 0.672191 0.004515 0.913912
O O13 0.291136 0.250000 0.056098
O O14 0.268817 0.500000 0.000000
#
# Coordination Sequence:
#
# PCOD8298134 Si02
#       5
#    16  16  16  16  16
#     4  10  20  32  44  56  71  93 120 151 188 226
#     4   9  16  25  37  52  70  92 117 146 179 212
#     4   9  16  25  38  54  70  90 115 144 179 215
#     4  10  19  29  41  56  73  93 119 152 187 221
#     4  10  19  28  38  53  73  97 124 153 184 216
#
# _framework density 13.575405
#
# number of rings (size 3 to 8) (size 9 to 14) (size 15 to 20)
#    0.000    2.400    0.000    4.800    0.000    6.000 
#    0.000    0.000    0.000    0.000    0.000    0.000 
#    0.000    0.000    0.000    0.000    0.000    1.000 
#
# Total GULP energy -495626.553275 kJ/mol
# GULP energy per Si atom -12390.663832 kJ/mol
# Density = 1.354451 g / cm^3
# Si number density = 13.575405 Si / 1000 Ang^3
#
#
#
# Elastic Constant Matrix: (Units=GPa)
#
#
# Indices 1 2 3 4 5 6 
#
# 1 54.8943 30.4499 44.7012 0.0000 0.0000 0.0000
# 2 30.4499 61.3285 38.0969 0.0000 0.0000 0.0000
# 3 44.7012 38.0969 82.6386 0.0000 0.0000 0.0000
# 4 0.0000 0.0000 0.0000 22.9964 0.0000 0.0000
# 5 0.0000 0.0000 0.0000 0.0000 23.2815 0.0000
# 6 0.0000 0.0000 0.0000 0.0000 0.0000 17.4105
#
#
#
# Elastic Compliance Matrix: (Units=1/GPa)
#
#
# Indices 1 2 3 4 5 6 
#
# 1 0.035087 -0.007891 -0.015342 0.000000 0.000000 0.000000
# 2 -0.007891 0.024624 -0.007083 0.000000 0.000000 0.000000
# 3 -0.015342 -0.007083 0.023665 0.000000 0.000000 0.000000
# 4 0.000000 0.000000 0.000000 0.043485 0.000000 0.000000
# 5 0.000000 0.000000 0.000000 0.000000 0.042953 0.000000
# 6 0.000000 0.000000 0.000000 0.000000 0.000000 0.057437
#
#
# Mechanical properties :
#
#
# Convention : Reuss Voigt Hill
#
# Bulk Modulus (GPa) = 43.96761 47.26191 45.61476
# Shear Modulus (GPa) = 16.92268 18.44524 17.68396
#
# Velocity S-wave (km/s) = 3.53451 3.69009 3.61314
# Velocity P-wave (km/s) = 7.00821 7.28324 7.14705
#
# Compressibility (1/GPa) = 0.02274401
#
# Stress axis : x y z
#
# Youngs Moduli (GPa) = 28.50095 40.61158 42.25659
#
# Poissons Ratio (x) = 0.32045 0.64828
# Poissons Ratio (y) = 0.22489 0.29932
# Poissons Ratio (z) = 0.43725 0.28767
#
# Static dielectric constant tensor:
#      x y z
#    x 2.536950 0.000000 0.000000 
#    y 0.000000 2.847850 0.000000 
#    z 0.000000 0.000000 3.184830 
# 
# 
# High freq. dielectric constant tensor:
#      x y z
#    x 1.465930 0.000000 0.000000 
#    y 0.000000 1.540920 0.000000 
#    z 0.000000 0.000000 1.509190 
# 
# From -- ./inp_files/55487.got.cif
#   From: 2010.03.12/outbox.cif.g09.slc.cpg/sg74_28_cif.got.tgz:55487.got - 2010.04.16 15:46:19.
