data_PCOD8298419
_publ_section_title
;
Structure prediction by ZEFSAII (Michael W. Deem and Ramdas Pophale) SiO2 
 PCOD8298419
Probable space group: I M M A
;
_chemical_formula_sum "Si O2"
_cell_formula_units_Z 96
_cell_length_a 9.455710
_cell_length_b 23.484859
_cell_length_c 23.593454
_cell_angle_alpha 90.000000
_cell_angle_beta 90.000000
_cell_angle_gamma 90.000000
_cell_volume 5239.304336
_symmetry_space_group_name_H-M "I M M A"
_symmetry_group_IT_number 74
_symmetry_cell_setting 'orthorhombic'
loop_
_space_group_symop_operation_xyz
x,y,z
-x,1/2-y,z
x,-y,-z
-x,1/2+y,-z
-x,-y,-z
x,1/2+y,-z
-x,y,z
x,1/2-y,z
1/2+x,1/2+y,1/2+z
1/2-x,-y,1/2+z
1/2+x,1/2-y,1/2-z
1/2-x,y,1/2-z
1/2-x,1/2-y,1/2-z
1/2+x,y,1/2-z
1/2-x,1/2+y,1/2+z
1/2+x,-y,1/2+z
loop_
_atom_site_type_symbol
_atom_site_label
_atom_site_fract_x
_atom_site_fract_y
_atom_site_fract_z
Si Si1 0.340213 0.815214 0.890271
Si Si2 0.342200 0.608356 0.398786
Si Si3 0.835621 0.520015 0.193616
Si Si4 0.163718 0.814341 0.477027
Si Si5 0.844870 0.687505 0.204130
Si Si6 0.335509 0.387690 0.305852
O O1 0.500000 0.834925 0.875141
O O2 0.318884 0.750000 0.871692
O O3 0.225492 0.853289 0.858566
O O4 0.312738 0.822361 0.956535
O O5 0.500000 0.594695 0.422569
O O6 0.282713 0.554128 0.362752
O O7 0.243658 0.631657 0.448988
O O8 0.347995 0.660528 0.356605
O O9 0.750000 0.537736 0.250000
O O10 0.813927 0.453944 0.180388
O O11 0.000000 0.535910 0.204543
O O12 0.216642 0.750000 0.459960
O O13 0.000000 0.819799 0.460567
O O14 0.779018 0.750000 0.195083
O O15 0.750000 0.653387 0.250000
O O16 0.000000 0.690002 0.230737
O O17 0.500000 0.372741 0.296943
O O18 0.250000 0.369638 0.250000
#
# Coordination Sequence:
#
# PCOD8298419 Si02
#       6
#    16  16  16  16  16  16
#     4   9  19  37  58  79 105 134 165 206 253 301
#     4  10  19  31  48  70  97 131 172 213 252 298
#     4   9  19  34  51  74 104 137 173 214 257 299
#     4   9  19  35  53  74 101 133 170 213 259 304
#     4   9  17  27  39  59  87 118 155 202 252 296
#     4  10  20  35  56  81 108 137 168 203 248 303
#
# _framework density 18.323043999999999
#
# number of rings (size 3 to 8) (size 9 to 14) (size 15 to 20)
#    0.000    2.667    0.000    2.500    0.000    4.333 
#    0.000    4.167    0.000    5.000    0.000    0.000 
#    0.000    0.000    0.000    0.000    0.000    0.000 
#
# Total GULP energy -594784.812834 kJ/mol
# GULP energy per Si atom -12391.350267 kJ/mol
# Density = 1.828134 g / cm^3
# Si number density = 18.323044 Si / 1000 Ang^3
#
#
#
# Elastic Constant Matrix: (Units=GPa)
#
#
# Indices 1 2 3 4 5 6 
#
# 1 93.7281 45.6565 53.0969 0.0000 0.0000 0.0000
# 2 45.6565 80.5090 46.2734 0.0000 0.0000 0.0000
# 3 53.0969 46.2734 76.2017 0.0000 0.0000 0.0000
# 4 0.0000 0.0000 0.0000 35.1746 0.0000 0.0000
# 5 0.0000 0.0000 0.0000 0.0000 36.3002 0.0000
# 6 0.0000 0.0000 0.0000 0.0000 0.0000 28.7120
#
#
#
# Elastic Compliance Matrix: (Units=1/GPa)
#
#
# Indices 1 2 3 4 5 6 
#
# 1 0.018763 -0.004802 -0.010158 0.000000 0.000000 0.000000
# 2 -0.004802 0.020310 -0.008987 0.000000 0.000000 0.000000
# 3 -0.010158 -0.008987 0.025658 0.000000 0.000000 0.000000
# 4 0.000000 0.000000 0.000000 0.028430 0.000000 0.000000
# 5 0.000000 0.000000 0.000000 0.000000 0.027548 0.000000
# 6 0.000000 0.000000 0.000000 0.000000 0.000000 0.034829
#
#
# Mechanical properties :
#
#
# Convention : Reuss Voigt Hill
#
# Bulk Modulus (GPa) = 59.39265 60.05473 59.72369
# Shear Modulus (GPa) = 23.91861 27.06481 25.49171
#
# Velocity S-wave (km/s) = 3.61693 3.84746 3.73398
# Velocity P-wave (km/s) = 7.06594 7.25148 7.15931
#
# Compressibility (1/GPa) = 0.01683710
#
# Stress axis : x y z
#
# Youngs Moduli (GPa) = 53.29745 49.23797 38.97392
#
# Poissons Ratio (x) = 0.23644 0.39588
# Poissons Ratio (y) = 0.25594 0.35026
# Poissons Ratio (z) = 0.54138 0.44250
#
# Static dielectric constant tensor:
#      x y z
#    x 3.811100 0.000000 0.000000 
#    y 0.000000 3.374750 0.000000 
#    z 0.000000 0.000000 3.180390 
# 
# 
# High freq. dielectric constant tensor:
#      x y z
#    x 1.708730 0.000000 0.000000 
#    y 0.000000 1.708600 0.000000 
#    z 0.000000 0.000000 1.697100 
# 
# From -- ./inp_files/57233.got.cif
#   From: 2010.03.12/outbox.cif.g09.slc.cpg/sg74_29_cif.got.tgz:57233.got - 2010.04.16 15:46:19.
