data_PCOD8298594
_publ_section_title
;
Structure prediction by ZEFSAII (Michael W. Deem and Ramdas Pophale) SiO2 
 PCOD8298594
Probable space group: I M M A
;
_chemical_formula_sum "Si O2"
_cell_formula_units_Z 96
_cell_length_a 8.845094
_cell_length_b 30.794253
_cell_length_c 20.920890
_cell_angle_alpha 90.000000
_cell_angle_beta 90.000000
_cell_angle_gamma 90.000000
_cell_volume 5698.391483
_symmetry_space_group_name_H-M "I M M A"
_symmetry_group_IT_number 74
_symmetry_cell_setting 'orthorhombic'
loop_
_space_group_symop_operation_xyz
x,y,z
-x,1/2-y,z
x,-y,-z
-x,1/2+y,-z
-x,-y,-z
x,1/2+y,-z
-x,y,z
x,1/2-y,z
1/2+x,1/2+y,1/2+z
1/2-x,-y,1/2+z
1/2+x,1/2-y,1/2-z
1/2-x,y,1/2-z
1/2-x,1/2-y,1/2-z
1/2+x,y,1/2-z
1/2-x,1/2+y,1/2+z
1/2+x,-y,1/2+z
loop_
_atom_site_type_symbol
_atom_site_label
_atom_site_fract_x
_atom_site_fract_y
_atom_site_fract_z
Si Si1 0.174507 0.797504 0.440384
Si Si2 0.670810 0.887706 0.011609
Si Si3 0.178464 0.465080 0.051179
Si Si4 0.826177 0.410508 0.657019
Si Si5 0.679041 0.321046 0.687185
Si Si6 0.679073 0.500128 0.686239
O O1 0.191008 0.750000 0.474177
O O2 0.228808 0.837221 0.486016
O O3 0.270753 0.795342 0.375816
O O4 0.000000 0.807260 0.421776
O O5 0.500000 0.889309 0.985981
O O6 0.684715 0.909272 0.080756
O O7 0.772480 0.915877 0.964007
O O8 0.237286 0.475447 0.122511
O O9 0.000000 0.467792 0.048495
O O10 0.246032 0.500000 0.000000
O O11 0.743678 0.369416 0.686425
O O12 0.735745 0.451090 0.683596
O O13 0.000000 0.412183 0.679762
O O14 0.500000 0.320874 0.691478
O O15 0.750000 0.297955 0.750000
O O16 0.500000 0.501450 0.691221
O O17 0.750000 0.522294 0.750000
#
# Coordination Sequence:
#
# PCOD8298594 Si02
#       6
#    16  16  16  16  16  16
#     4   9  19  36  53  70  94 121 153 198 249 297
#     4   9  18  31  51  75  95 123 162 202 242 286
#     4  10  20  34  51  72 100 133 167 203 246 291
#     4  10  19  32  48  68  94 126 165 206 250 290
#     4  11  21  32  46  64  89 122 163 205 248 295
#     4  11  22  34  48  69  99 133 168 206 249 290
#
# _framework density 16.84686
#
# number of rings (size 3 to 8) (size 9 to 14) (size 15 to 20)
#    0.000    2.000    1.667    4.000    0.000    5.000 
#    0.000    0.000    0.000    0.000    0.000    0.000 
#    0.000    0.667    0.000    1.500    0.000    2.333 
#
# Total GULP energy -595039.822220 kJ/mol
# GULP energy per Si atom -12396.662963 kJ/mol
# Density = 1.680852 g / cm^3
# Si number density = 16.846860 Si / 1000 Ang^3
#
#
#
# Elastic Constant Matrix: (Units=GPa)
#
#
# Indices 1 2 3 4 5 6 
#
# 1 51.5964 11.1197 32.1365 0.0000 0.0000 0.0000
# 2 11.1197 96.5505 51.2025 0.0000 0.0000 0.0000
# 3 32.1365 51.2025 89.5440 0.0001 0.0000 0.0000
# 4 0.0000 0.0000 0.0001 8.7856 0.0000 0.0000
# 5 0.0000 0.0000 0.0000 0.0000 24.2877 0.0000
# 6 0.0000 0.0000 0.0000 0.0000 0.0000 20.2543
#
#
#
# Elastic Compliance Matrix: (Units=1/GPa)
#
#
# Indices 1 2 3 4 5 6 
#
# 1 0.025458 0.002746 -0.010707 0.000000 0.000000 0.000000
# 2 0.002746 0.015161 -0.009655 0.000000 0.000000 0.000000
# 3 -0.010707 -0.009655 0.020531 0.000000 0.000000 0.000000
# 4 0.000000 0.000000 0.000000 0.113822 0.000000 0.000000
# 5 0.000000 0.000000 0.000000 0.000000 0.041173 0.000000
# 6 0.000000 0.000000 0.000000 0.000000 0.000000 0.049372
#
#
# Mechanical properties :
#
#
# Convention : Reuss Voigt Hill
#
# Bulk Modulus (GPa) = 38.58185 47.40090 42.99137
# Shear Modulus (GPa) = 16.16088 20.21435 18.18761
#
# Velocity S-wave (km/s) = 3.10059 3.46770 3.28927
# Velocity P-wave (km/s) = 5.98075 6.65061 6.32456
#
# Compressibility (1/GPa) = 0.02591892
#
# Stress axis : x y z
#
# Youngs Moduli (GPa) = 39.28012 65.95786 48.70646
#
# Poissons Ratio (x) = -0.18113 0.52150
# Poissons Ratio (y) = -0.10787 0.47026
# Poissons Ratio (z) = 0.42057 0.63682
#
# Static dielectric constant tensor:
#      x y z
#    x 3.131750 0.000000 0.000000 
#    y 0.000000 3.146360 0.000000 
#    z 0.000000 0.000000 3.155690 
# 
# 
# High freq. dielectric constant tensor:
#      x y z
#    x 1.653290 0.000000 0.000000 
#    y 0.000000 1.637720 0.000000 
#    z 0.000000 0.000000 1.617410 
# 
# From -- ./inp_files/49046.got.cif
#   From: 2010.03.12/outbox.cif.g09.slc.cpg/sg74_25_cif.got.tgz:49046.got - 2010.04.16 15:46:19.
