data_PCOD8298969
_publ_section_title
;
Structure prediction by ZEFSAII (Michael W. Deem and Ramdas Pophale) SiO2 
 PCOD8298969
Probable space group: I M M A
;
_chemical_formula_sum "Si O2"
_cell_formula_units_Z 112
_cell_length_a 14.880802
_cell_length_b 13.574025
_cell_length_c 26.486195
_cell_angle_alpha 90.000000
_cell_angle_beta 90.000000
_cell_angle_gamma 90.000000
_cell_volume 5350.009522
_symmetry_space_group_name_H-M "I M M A"
_symmetry_group_IT_number 74
_symmetry_cell_setting 'orthorhombic'
loop_
_space_group_symop_operation_xyz
x,y,z
-x,1/2-y,z
x,-y,-z
-x,1/2+y,-z
-x,-y,-z
x,1/2+y,-z
-x,y,z
x,1/2-y,z
1/2+x,1/2+y,1/2+z
1/2-x,-y,1/2+z
1/2+x,1/2-y,1/2-z
1/2-x,y,1/2-z
1/2-x,1/2-y,1/2-z
1/2+x,y,1/2-z
1/2-x,1/2+y,1/2+z
1/2+x,-y,1/2+z
loop_
_atom_site_type_symbol
_atom_site_label
_atom_site_fract_x
_atom_site_fract_y
_atom_site_fract_z
Si Si1 0.102641 0.364792 0.931032
Si Si2 0.106062 0.360373 0.738335
Si Si3 0.396011 0.014331 0.857663
Si Si4 0.402280 0.096214 0.966772
Si Si5 0.104863 0.011237 0.831966
Si Si6 0.756240 0.368065 0.128928
Si Si7 0.273620 0.356565 0.483679
O O1 0.126078 0.250000 0.922511
O O2 0.124310 0.419695 0.879480
O O3 0.000000 0.379614 0.947215
O O4 0.162914 0.412874 0.976075
O O5 0.147703 0.250000 0.741484
O O6 0.133584 0.409672 0.685638
O O7 0.141948 0.429119 0.783636
O O8 0.000000 0.352071 0.743640
O O9 0.500000 0.982406 0.852919
O O10 0.337528 0.914882 0.852350
O O11 0.376487 0.070633 0.909569
O O12 0.500000 0.150251 0.968025
O O13 0.324897 0.160856 0.992061
O O14 0.408635 0.000000 0.000000
O O15 0.161114 0.910049 0.837908
O O16 0.000000 0.983159 0.826743
O O17 0.750927 0.250000 0.134219
O O18 0.769862 0.406326 0.071184
O O19 0.317693 0.250000 0.474839
#
# Coordination Sequence:
#
# PCOD8298969 Si02
#       7
#    16  16  16  16  16  16  16
#     4   9  18  33  56  87 118 149 188 234 289 352
#     4   9  19  39  66  93 121 149 180 229 293 355
#     4  10  21  38  61  87 117 152 191 236 290 346
#     4  10  19  33  55  82 113 148 188 235 283 337
#     4  10  21  38  61  86 115 153 192 234 288 349
#     4  11  24  40  57  80 114 155 200 247 286 329
#     4  10  21  35  53  78 113 154 193 240 289 337
#
# _framework density 20.934542
#
# number of rings (size 3 to 8) (size 9 to 14) (size 15 to 20)
#    0.000    2.143    1.429    1.286    0.000    4.286 
#    0.000    9.286    0.000    2.571    0.000    0.000 
#    0.000    0.000    0.000    0.000    0.000    0.000 
#
# Total GULP energy -694092.023729 kJ/mol
# GULP energy per Si atom -12394.500424 kJ/mol
# Density = 2.088689 g / cm^3
# Si number density = 20.934542 Si / 1000 Ang^3
#
#
#
# Elastic Constant Matrix: (Units=GPa)
#
#
# Indices 1 2 3 4 5 6 
#
# 1 61.5645 33.0662 51.0951 0.0000 0.0000 0.0000
# 2 33.0662 106.5707 59.9499 0.0000 0.0000 0.0000
# 3 51.0951 59.9499 140.6997 0.0000 0.0000 0.0000
# 4 0.0000 0.0000 0.0000 24.0173 0.0000 0.0000
# 5 0.0000 0.0000 0.0000 0.0000 37.4102 0.0000
# 6 0.0000 0.0000 0.0000 0.0000 0.0000 32.6774
#
#
#
# Elastic Compliance Matrix: (Units=1/GPa)
#
#
# Indices 1 2 3 4 5 6 
#
# 1 0.024134 -0.003364 -0.007331 0.000000 0.000000 0.000000
# 2 -0.003364 0.012811 -0.004237 0.000000 0.000000 0.000000
# 3 -0.007331 -0.004237 0.011575 0.000000 0.000000 0.000000
# 4 0.000000 0.000000 0.000000 0.041637 0.000000 0.000000
# 5 0.000000 0.000000 0.000000 0.000000 0.026731 0.000000
# 6 0.000000 0.000000 0.000000 0.000000 0.000000 0.030602
#
#
# Mechanical properties :
#
#
# Convention : Reuss Voigt Hill
#
# Bulk Modulus (GPa) = 53.60240 66.33969 59.97105
# Shear Modulus (GPa) = 27.23732 29.80254 28.51993
#
# Velocity S-wave (km/s) = 3.61095 3.77716 3.69499
# Velocity P-wave (km/s) = 6.56092 7.12605 6.84931
#
# Compressibility (1/GPa) = 0.01865588
#
# Stress axis : x y z
#
# Youngs Moduli (GPa) = 41.43470 78.06052 86.39532
#
# Poissons Ratio (x) = 0.26263 0.63335
# Poissons Ratio (y) = 0.13940 0.36602
# Poissons Ratio (z) = 0.30375 0.33071
#
# Static dielectric constant tensor:
#      x y z
#    x 4.023610 0.000000 0.000000 
#    y 0.000000 3.552850 0.000000 
#    z 0.000000 0.000000 3.947430 
# 
# 
# High freq. dielectric constant tensor:
#      x y z
#    x 1.820930 0.000000 0.000000 
#    y 0.000000 1.806230 0.000000 
#    z 0.000000 0.000000 1.822280 
# 
# From -- ./inp_files/60183.got.cif
#   From: 2010.03.12/outbox.cif.g09.slc.cpg/sg74_31_cif.got.tgz:60183.got - 2010.04.16 15:46:19.
