data_PCOD8298088
_publ_section_title
;
Structure prediction by ZEFSAII (Michael W. Deem and Ramdas Pophale) SiO2 
 PCOD8298088
Probable space group: I M M A
;
_chemical_formula_sum "Si O2"
_cell_formula_units_Z 64
_cell_length_a 17.995143
_cell_length_b 18.975601
_cell_length_c 10.021501
_cell_angle_alpha 90.000000
_cell_angle_beta 90.000000
_cell_angle_gamma 90.000000
_cell_volume 3422.028453
_symmetry_space_group_name_H-M "I M M A"
_symmetry_group_IT_number 74
_symmetry_cell_setting 'orthorhombic'
loop_
_space_group_symop_operation_xyz
x,y,z
-x,1/2-y,z
x,-y,-z
-x,1/2+y,-z
-x,-y,-z
x,1/2+y,-z
-x,y,z
x,1/2-y,z
1/2+x,1/2+y,1/2+z
1/2-x,-y,1/2+z
1/2+x,1/2-y,1/2-z
1/2-x,y,1/2-z
1/2-x,1/2-y,1/2-z
1/2+x,y,1/2-z
1/2-x,1/2+y,1/2+z
1/2+x,-y,1/2+z
loop_
_atom_site_type_symbol
_atom_site_label
_atom_site_fract_x
_atom_site_fract_y
_atom_site_fract_z
Si Si1 0.087557 0.096076 0.902381
Si Si2 0.411851 0.055475 0.315085
Si Si3 0.085347 0.582599 0.525680
Si Si4 0.328539 0.169236 0.806582
O O1 0.115927 0.162602 0.818907
O O2 0.000000 0.096989 0.902486
O O3 0.117417 0.024937 0.829552
O O4 0.116174 0.099595 0.055956
O O5 0.500000 0.051022 0.312834
O O6 0.386017 0.093261 0.178426
O O7 0.088647 0.500000 0.500000
O O8 0.142093 0.624411 0.431880
O O9 0.000000 0.609426 0.504263
O O10 0.323531 0.250000 0.852597
O O11 0.250000 0.141144 0.750000
#
# Coordination Sequence:
#
# PCOD8298088 Si02
#       4
#    16  16  16  16
#     4   9  16  32  56  81 107 140 181 226 279 336
#     4   8  15  29  54  86 112 128 165 236 291 322
#     4  10  18  34  60  87 110 138 184 240 288 333
#     4  11  24  39  51  74 117 158 191 229 276 338
#
# _framework density 18.702358
#
# number of rings (size 3 to 8) (size 9 to 14) (size 15 to 20)
#    0.000    2.500    2.500    2.250    0.000    2.000 
#    4.500    2.500    0.000    7.500    0.000    0.000 
#    0.000    0.000    0.000    0.000    0.000    0.000 
#
# Total GULP energy -396492.645530 kJ/mol
# GULP energy per Si atom -12390.395173 kJ/mol
# Density = 1.865979 g / cm^3
# Si number density = 18.702358 Si / 1000 Ang^3
#
#
#
# Elastic Constant Matrix: (Units=GPa)
#
#
# Indices 1 2 3 4 5 6 
#
# 1 53.1656 33.9963 62.5456 0.0000 0.0000 0.0000
# 2 33.9963 53.2725 48.3740 0.0000 0.0000 0.0000
# 3 62.5456 48.3740 176.4494 0.0000 0.0000 0.0000
# 4 0.0000 0.0000 0.0000 23.2440 0.0000 0.0000
# 5 0.0000 0.0000 0.0000 0.0000 23.1366 0.0000
# 6 0.0000 0.0000 0.0000 0.0000 0.0000 23.7679
#
#
#
# Elastic Compliance Matrix: (Units=1/GPa)
#
#
# Indices 1 2 3 4 5 6 
#
# 1 0.041842 -0.017620 -0.010001 0.000000 0.000000 0.000000
# 2 -0.017620 0.032414 -0.002640 0.000000 0.000000 0.000000
# 3 -0.010001 -0.002640 0.009936 0.000000 0.000000 0.000000
# 4 0.000000 0.000000 0.000000 0.043022 0.000000 0.000000
# 5 0.000000 0.000000 0.000000 0.000000 0.043222 0.000000
# 6 0.000000 0.000000 0.000000 0.000000 0.000000 0.042074
#
#
# Mechanical properties :
#
#
# Convention : Reuss Voigt Hill
#
# Bulk Modulus (GPa) = 42.25072 63.63547 52.94310
# Shear Modulus (GPa) = 17.79857 23.22779 20.51318
#
# Velocity S-wave (km/s) = 3.08827 3.52798 3.31543
# Velocity P-wave (km/s) = 5.94615 7.12003 6.55940
#
# Compressibility (1/GPa) = 0.02366824
#
# Stress axis : x y z
#
# Youngs Moduli (GPa) = 23.89958 30.85124 100.64194
#
# Poissons Ratio (x) = 0.54361 1.00651
# Poissons Ratio (y) = 0.42112 0.26574
# Poissons Ratio (z) = 0.23902 0.08146
#
# Static dielectric constant tensor:
#      x y z
#    x 3.164470 0.000000 0.000000 
#    y 0.000000 3.091080 0.000000 
#    z 0.000000 0.000000 4.832820 
# 
# 
# High freq. dielectric constant tensor:
#      x y z
#    x 1.693830 0.000000 0.000000 
#    y 0.000000 1.687200 0.000000 
#    z 0.000000 0.000000 1.750560 
# 
# From -- ./inp_files/21750.got.cif
#   From: 2010.03.12/outbox.cif.g09.slc.cpg/sg74_11_cif.got.tgz:21750.got - 2010.04.16 15:46:19.
