data_PCOD8298974
_publ_section_title
;
Structure prediction by ZEFSAII (Michael W. Deem and Ramdas Pophale) SiO2 
 PCOD8298974
Probable space group: I M M A
;
_chemical_formula_sum "Si O2"
_cell_formula_units_Z 96
_cell_length_a 15.650225
_cell_length_b 13.770023
_cell_length_c 21.429275
_cell_angle_alpha 90.000000
_cell_angle_beta 90.000000
_cell_angle_gamma 90.000000
_cell_volume 4618.093584
_symmetry_space_group_name_H-M "I M M A"
_symmetry_group_IT_number 74
_symmetry_cell_setting 'orthorhombic'
loop_
_space_group_symop_operation_xyz
x,y,z
-x,1/2-y,z
x,-y,-z
-x,1/2+y,-z
-x,-y,-z
x,1/2+y,-z
-x,y,z
x,1/2-y,z
1/2+x,1/2+y,1/2+z
1/2-x,-y,1/2+z
1/2+x,1/2-y,1/2-z
1/2-x,y,1/2-z
1/2-x,1/2-y,1/2-z
1/2+x,y,1/2-z
1/2-x,1/2+y,1/2+z
1/2+x,-y,1/2+z
loop_
_atom_site_type_symbol
_atom_site_label
_atom_site_fract_x
_atom_site_fract_y
_atom_site_fract_z
Si Si1 0.906021 0.635204 0.019417
Si Si2 0.405127 0.139632 0.028842
Si Si3 0.676536 0.454148 0.138141
Si Si4 0.270013 0.637410 0.078984
Si Si5 0.096895 0.861125 0.753478
Si Si6 0.147569 0.635938 0.887346
O O1 0.900245 0.750000 0.012687
O O2 0.827252 0.604082 0.063526
O O3 0.000000 0.604044 0.045424
O O4 0.894464 0.588704 0.949825
O O5 0.500000 0.123204 0.999734
O O6 0.394309 0.250000 0.051399
O O7 0.398906 0.071059 0.089676
O O8 0.332058 0.114183 0.978926
O O9 0.699975 0.568814 0.135934
O O10 0.653665 0.428702 0.209055
O O11 0.752963 0.387025 0.113799
O O12 0.276209 0.750000 0.099312
O O13 0.130536 0.750000 0.750008
O O14 0.103865 0.903046 0.823806
O O15 0.000000 0.867004 0.730638
O O16 0.132860 0.750000 0.890941
#
# Coordination Sequence:
#
# PCOD8298974 Si02
#       6
#    16  16  16  16  16  16
#     4   9  17  33  57  81 111 150 185 225 279 336
#     4  10  20  34  53  78 110 147 185 227 278 337
#     4  12  21  32  54  79 111 150 188 226 279 337
#     4  10  22  38  53  77 113 150 194 239 278 327
#     4  10  21  36  55  83 116 148 185 229 283 347
#     4  10  19  33  55  83 113 143 177 225 282 343
#
# _framework density 20.787800000000001
#
# number of rings (size 3 to 8) (size 9 to 14) (size 15 to 20)
#    0.000    1.833    1.667    3.500    0.000    6.667 
#    0.000    2.500    0.000    2.000    0.000    0.000 
#    0.000    0.000    0.000    0.000    0.000    0.000 
#
# Total GULP energy -595012.701764 kJ/mol
# GULP energy per Si atom -12396.097953 kJ/mol
# Density = 2.074049 g / cm^3
# Si number density = 20.787800 Si / 1000 Ang^3
#
#
#
# Elastic Constant Matrix: (Units=GPa)
#
#
# Indices 1 2 3 4 5 6 
#
# 1 116.6796 18.7439 19.9898 0.0000 0.0000 0.0000
# 2 18.7439 67.0719 36.3622 0.0000 0.0000 0.0000
# 3 19.9898 36.3622 67.7085 0.0000 0.0000 0.0000
# 4 0.0000 0.0000 0.0000 1.1786 0.0000 0.0000
# 5 0.0000 0.0000 0.0000 0.0000 18.3628 0.0000
# 6 0.0000 0.0000 0.0000 0.0000 0.0000 12.0782
#
#
#
# Elastic Compliance Matrix: (Units=1/GPa)
#
#
# Indices 1 2 3 4 5 6 
#
# 1 0.009138 -0.001539 -0.001871 0.000000 0.000000 0.000000
# 2 -0.001539 0.021292 -0.010980 0.000000 0.000000 0.000000
# 3 -0.001871 -0.010980 0.021219 0.000000 0.000000 0.000000
# 4 0.000000 0.000000 0.000000 0.848475 0.000000 0.000000
# 5 0.000000 0.000000 0.000000 0.000000 0.054458 0.000000
# 6 0.000000 0.000000 0.000000 0.000000 0.000000 0.082794
#
#
# Mechanical properties :
#
#
# Convention : Reuss Voigt Hill
#
# Bulk Modulus (GPa) = 43.73052 44.62800 44.17926
# Shear Modulus (GPa) = 4.65644 18.08151 11.36898
#
# Velocity S-wave (km/s) = 1.49828 2.95246 2.34114
# Velocity P-wave (km/s) = 4.90667 5.75653 5.34851
#
# Compressibility (1/GPa) = 0.02286732
#
# Stress axis : x y z
#
# Youngs Moduli (GPa) = 109.42895 46.96496 47.12842
#
# Poissons Ratio (x) = 0.07229 0.08819
# Poissons Ratio (y) = 0.16844 0.51749
# Poissons Ratio (z) = 0.20477 0.51570
#
# Static dielectric constant tensor:
#      x y z
#    x 4.006900 0.000000 0.000000 
#    y 0.000000 3.649210 0.000000 
#    z 0.000000 0.000000 3.570040 
# 
# 
# High freq. dielectric constant tensor:
#      x y z
#    x 1.829400 0.000000 0.000000 
#    y 0.000000 1.799610 0.000000 
#    z 0.000000 0.000000 1.777120 
# 
# From -- ./inp_files/51858.got.cif
#   From: 2010.03.12/outbox.cif.g09.slc.cpg/sg74_26_cif.got.tgz:51858.got - 2010.04.16 15:46:19.
