data_PCOD8298044
_publ_section_title
;
Structure prediction by ZEFSAII (Michael W. Deem and Ramdas Pophale) SiO2 
 PCOD8298044
Probable space group: I M M A
;
_chemical_formula_sum "Si O2"
_cell_formula_units_Z 88
_cell_length_a 27.758964
_cell_length_b 8.825211
_cell_length_c 19.596918
_cell_angle_alpha 90.000000
_cell_angle_beta 90.000000
_cell_angle_gamma 90.000000
_cell_volume 4800.827779
_symmetry_space_group_name_H-M "I M M A"
_symmetry_group_IT_number 74
_symmetry_cell_setting 'orthorhombic'
loop_
_space_group_symop_operation_xyz
x,y,z
-x,1/2-y,z
x,-y,-z
-x,1/2+y,-z
-x,-y,-z
x,1/2+y,-z
-x,y,z
x,1/2-y,z
1/2+x,1/2+y,1/2+z
1/2-x,-y,1/2+z
1/2+x,1/2-y,1/2-z
1/2-x,y,1/2-z
1/2-x,1/2-y,1/2-z
1/2+x,y,1/2-z
1/2-x,1/2+y,1/2+z
1/2+x,-y,1/2+z
loop_
_atom_site_type_symbol
_atom_site_label
_atom_site_fract_x
_atom_site_fract_y
_atom_site_fract_z
Si Si1 0.375584 0.929022 0.927775
Si Si2 0.580382 0.429412 0.321978
Si Si3 0.055457 0.576877 0.320075
Si Si4 0.000000 0.072359 0.073519
Si Si5 0.288182 0.569970 0.842352
Si Si6 0.186461 0.429366 0.193219
O O1 0.376703 0.750000 0.934986
O O2 0.322722 0.988257 0.903056
O O3 0.415094 0.976546 0.873025
O O4 0.388310 0.000000 0.000000
O O5 0.576699 0.250000 0.308700
O O6 0.561515 0.513238 0.255559
O O7 0.547641 0.479896 0.385607
O O8 0.635438 0.481027 0.338577
O O9 0.073598 0.750000 0.322378
O O10 0.000000 0.565801 0.341613
O O11 0.000000 0.250000 0.063507
O O12 0.000000 0.000000 0.000000
O O13 0.289603 0.750000 0.841048
O O14 0.232642 0.512110 0.851113
O O15 0.309209 0.508141 0.770505
O O16 0.188856 0.250000 0.195779
#
# Coordination Sequence:
#
# PCOD8298044 Si02
#       6
#    16  16  16   8  16  16
#     4  11  22  37  56  78 109 149 186 228 274 324
#     4  10  18  33  58  84 108 140 184 228 267 319
#     4  11  23  37  55  81 110 141 179 226 279 331
#     4  10  22  36  54  80 111 146 181 218 268 322
#     4   8  14  26  49  79 106 134 171 217 265 315
#     4   8  13  25  50  82 106 129 172 222 265 312
#
# _framework density 18.330172999999998
#
# number of rings (size 3 to 8) (size 9 to 14) (size 15 to 20)
#    0.000    2.364    2.727    2.182    0.000    2.182 
#    0.000    0.909    0.000    3.273    0.000    0.000 
#    0.000    0.000    0.000    0.000    0.000    0.000 
#
# Total GULP energy -545327.390660 kJ/mol
# GULP energy per Si atom -12393.804333 kJ/mol
# Density = 1.828845 g / cm^3
# Si number density = 18.330173 Si / 1000 Ang^3
#
#
#
# Elastic Constant Matrix: (Units=GPa)
#
#
# Indices 1 2 3 4 5 6 
#
# 1 148.4284 28.9659 61.1397 0.0000 0.0000 0.0000
# 2 28.9659 45.7714 31.6324 0.0000 0.0000 0.0000
# 3 61.1397 31.6324 120.6540 0.0000 0.0000 0.0000
# 4 0.0000 0.0000 0.0000 23.7950 0.0000 0.0000
# 5 0.0000 0.0000 0.0000 0.0000 14.3749 0.0000
# 6 0.0000 0.0000 0.0000 0.0000 0.0000 8.0703
#
#
#
# Elastic Compliance Matrix: (Units=1/GPa)
#
#
# Indices 1 2 3 4 5 6 
#
# 1 0.008851 -0.003055 -0.003684 0.000000 0.000000 0.000000
# 2 -0.003055 0.027737 -0.005724 0.000000 0.000000 0.000000
# 3 -0.003684 -0.005724 0.011656 0.000000 0.000000 0.000000
# 4 0.000000 0.000000 0.000000 0.042026 0.000000 0.000000
# 5 0.000000 0.000000 0.000000 0.000000 0.069566 0.000000
# 6 0.000000 0.000000 0.000000 0.000000 0.000000 0.123911
#
#
# Mechanical properties :
#
#
# Convention : Reuss Voigt Hill
#
# Bulk Modulus (GPa) = 42.88641 62.03665 52.46153
# Shear Modulus (GPa) = 15.80056 22.12242 18.96149
#
# Velocity S-wave (km/s) = 2.93916 3.47779 3.21976
# Velocity P-wave (km/s) = 5.91318 7.07419 6.51958
#
# Compressibility (1/GPa) = 0.02331741
#
# Stress axis : x y z
#
# Youngs Moduli (GPa) = 112.98125 36.05321 85.79524
#
# Poissons Ratio (x) = 0.11015 0.31608
# Poissons Ratio (y) = 0.34518 0.49107
# Poissons Ratio (z) = 0.41624 0.20636
#
# Static dielectric constant tensor:
#      x y z
#    x 4.060050 0.000000 0.000000 
#    y 0.000000 3.075160 0.000000 
#    z 0.000000 0.000000 3.333240 
# 
# 
# High freq. dielectric constant tensor:
#      x y z
#    x 1.733500 0.000000 0.000000 
#    y 0.000000 1.677710 0.000000 
#    z 0.000000 0.000000 1.686630 
# 
# From -- ./inp_files/40080.got.cif
#   From: 2010.03.12/outbox.cif.g09.slc.cpg/sg74_21_cif.got.tgz:40080.got - 2010.04.16 15:46:19.
