data_PCOD8298950
_publ_section_title
;
Structure prediction by ZEFSAII (Michael W. Deem and Ramdas Pophale) SiO2 
 PCOD8298950
Probable space group: I M M A
;
_chemical_formula_sum "Si O2"
_cell_formula_units_Z 112
_cell_length_a 23.894267
_cell_length_b 16.784942
_cell_length_c 14.195349
_cell_angle_alpha 90.000000
_cell_angle_beta 90.000000
_cell_angle_gamma 90.000000
_cell_volume 5693.241829
_symmetry_space_group_name_H-M "I M M A"
_symmetry_group_IT_number 74
_symmetry_cell_setting 'orthorhombic'
loop_
_space_group_symop_operation_xyz
x,y,z
-x,1/2-y,z
x,-y,-z
-x,1/2+y,-z
-x,-y,-z
x,1/2+y,-z
-x,y,z
x,1/2-y,z
1/2+x,1/2+y,1/2+z
1/2-x,-y,1/2+z
1/2+x,1/2-y,1/2-z
1/2-x,y,1/2-z
1/2-x,1/2-y,1/2-z
1/2+x,y,1/2-z
1/2-x,1/2+y,1/2+z
1/2+x,-y,1/2+z
loop_
_atom_site_type_symbol
_atom_site_label
_atom_site_fract_x
_atom_site_fract_y
_atom_site_fract_z
Si Si1 0.563959 0.844132 0.277654
Si Si2 0.840392 0.342577 0.100631
Si Si3 0.358396 0.342375 0.189998
Si Si4 0.226929 0.158277 0.474069
Si Si5 0.368176 0.341542 0.897191
Si Si6 0.564270 0.591179 0.479945
Si Si7 0.434677 0.082370 0.047826
O O1 0.500000 0.862962 0.246515
O O2 0.571393 0.750000 0.293639
O O3 0.607264 0.879063 0.199381
O O4 0.579420 0.890060 0.372489
O O5 0.826736 0.250000 0.109672
O O6 0.844318 0.376672 0.206454
O O7 0.788427 0.381275 0.040786
O O8 0.898512 0.355006 0.047654
O O9 0.378756 0.250000 0.193896
O O10 0.303757 0.350683 0.125748
O O11 0.406722 0.400013 0.148855
O O12 0.233138 0.250000 0.502407
O O13 0.189441 0.119079 0.559687
O O14 0.357109 0.250000 0.876193
O O15 0.416205 0.347620 0.976773
O O16 0.578065 0.500000 0.500000
O O17 0.500000 0.612545 0.501755
O O18 0.500000 0.081876 0.064930
O O19 0.413810 0.000000 0.000000
#
# Coordination Sequence:
#
# PCOD8298950 Si02
#       7
#    16  16  16  16  16  16  16
#     4   9  17  31  53  78 102 133 174 215 255 302
#     4  10  19  33  55  78 101 133 171 212 256 303
#     4   9  18  32  52  77 104 136 173 211 253 305
#     4   8  15  30  52  78 104 129 163 206 252 304
#     4   9  17  31  52  75  99 131 171 212 255 305
#     4  10  22  38  53  71  99 134 171 213 259 307
#     4  10  20  31  44  69 106 141 172 212 262 309
#
# _framework density 19.672447999999999
#
# number of rings (size 3 to 8) (size 9 to 14) (size 15 to 20)
#    0.000    2.714    0.000    2.571    0.000    6.000 
#    0.000    7.857    0.000    5.143    0.000    0.000 
#    0.000    0.000    0.000    0.000    0.000    0.000 
#
# Total GULP energy -693936.777912 kJ/mol
# GULP energy per Si atom -12391.728177 kJ/mol
# Density = 1.962767 g / cm^3
# Si number density = 19.672448 Si / 1000 Ang^3
#
#
#
# Elastic Constant Matrix: (Units=GPa)
#
#
# Indices 1 2 3 4 5 6 
#
# 1 117.8667 34.2922 77.3951 0.0000 0.0000 0.0000
# 2 34.2922 19.6145 30.4872 0.0000 0.0000 0.0000
# 3 77.3951 30.4872 149.2438 0.0000 0.0000 0.0000
# 4 0.0000 0.0000 0.0000 16.2910 0.0000 0.0000
# 5 0.0000 0.0000 0.0000 0.0000 34.1910 0.0000
# 6 0.0000 0.0000 0.0000 0.0000 0.0000 12.2284
#
#
#
# Elastic Compliance Matrix: (Units=1/GPa)
#
#
# Indices 1 2 3 4 5 6 
#
# 1 0.019152 -0.026442 -0.004530 0.000000 0.000000 0.000000
# 2 -0.026442 0.111207 -0.009005 0.000000 0.000000 0.000000
# 3 -0.004530 -0.009005 0.010889 0.000000 0.000000 0.000000
# 4 0.000000 0.000000 0.000000 0.061384 0.000000 0.000000
# 5 0.000000 0.000000 0.000000 0.000000 0.029248 0.000000
# 6 0.000000 0.000000 0.000000 0.000000 0.000000 0.081777
#
#
# Mechanical properties :
#
#
# Convention : Reuss Voigt Hill
#
# Bulk Modulus (GPa) = 16.31470 63.45267 39.88369
# Shear Modulus (GPa) = 12.07606 22.17878 17.12742
#
# Velocity S-wave (km/s) = 2.48030 3.36132 2.95384
# Velocity P-wave (km/s) = 4.06370 6.88399 5.65257
#
# Compressibility (1/GPa) = 0.06129442
#
# Stress axis : x y z
#
# Youngs Moduli (GPa) = 52.21407 8.99220 91.83294
#
# Poissons Ratio (x) = 0.23777 0.41604
# Poissons Ratio (y) = 1.38063 0.82696
# Poissons Ratio (z) = 0.23655 0.08097
#
# Static dielectric constant tensor:
#      x y z
#    x 3.749010 0.000000 0.000000 
#    y 0.000000 3.287530 0.000000 
#    z 0.000000 0.000000 3.705180 
# 
# 
# High freq. dielectric constant tensor:
#      x y z
#    x 1.764300 0.000000 0.000000 
#    y 0.000000 1.730720 0.000000 
#    z 0.000000 0.000000 1.767380 
# 
# From -- ./inp_files/25404.got.cif
#   From: 2010.03.12/outbox.cif.g09.slc.cpg/sg74_13_cif.got.tgz:25404.got - 2010.04.16 15:46:19.
