data_PCOD8298849
_publ_section_title
;
Structure prediction by ZEFSAII (Michael W. Deem and Ramdas Pophale) SiO2 
 PCOD8298849
Probable space group: I M M A
;
_chemical_formula_sum "Si O2"
_cell_formula_units_Z 128
_cell_length_a 17.562885
_cell_length_b 22.838928
_cell_length_c 18.786927
_cell_angle_alpha 90.000000
_cell_angle_beta 90.000000
_cell_angle_gamma 90.000000
_cell_volume 7535.764552
_symmetry_space_group_name_H-M "I M M A"
_symmetry_group_IT_number 74
_symmetry_cell_setting 'orthorhombic'
loop_
_space_group_symop_operation_xyz
x,y,z
-x,1/2-y,z
x,-y,-z
-x,1/2+y,-z
-x,-y,-z
x,1/2+y,-z
-x,y,z
x,1/2-y,z
1/2+x,1/2+y,1/2+z
1/2-x,-y,1/2+z
1/2+x,1/2-y,1/2-z
1/2-x,y,1/2-z
1/2-x,1/2-y,1/2-z
1/2+x,y,1/2-z
1/2-x,1/2+y,1/2+z
1/2+x,-y,1/2+z
loop_
_atom_site_type_symbol
_atom_site_label
_atom_site_fract_x
_atom_site_fract_y
_atom_site_fract_z
Si Si1 0.193685 0.543326 0.093285
Si Si2 0.912843 0.317067 0.308819
Si Si3 0.690812 0.105240 0.810345
Si Si4 0.086310 0.971546 0.217576
Si Si5 0.195374 0.585948 0.941499
Si Si6 0.325447 0.318222 0.046995
Si Si7 0.913701 0.318545 0.596705
Si Si8 0.913682 0.895899 0.815453
O O1 0.263780 0.580735 0.122381
O O2 0.119388 0.549296 0.142190
O O3 0.225328 0.476341 0.089253
O O4 0.163945 0.570580 0.019589
O O5 0.904228 0.250000 0.287750
O O6 0.872729 0.331181 0.382515
O O7 0.876283 0.352709 0.243015
O O8 0.000000 0.336045 0.318891
O O9 0.750000 0.128421 0.750000
O O10 0.638259 0.053362 0.780448
O O11 0.636468 0.156607 0.838292
O O12 0.000000 0.948462 0.224828
O O13 0.090386 0.041139 0.221373
O O14 0.255840 0.637401 0.949521
O O15 0.129450 0.609580 0.890191
O O16 0.298553 0.250000 0.043331
O O17 0.377621 0.334190 0.979583
O O18 0.915577 0.250000 0.608703
O O19 0.000000 0.343834 0.598990
O O20 0.000000 0.877659 0.832656
#
# Coordination Sequence:
#
# PCOD8298849 Si02
#       8
#    16  16  16  16  16  16  16  16
#     4   9  19  33  50  73 102 136 163 204 254 297
#     4   9  18  33  50  70 100 134 166 204 249 293
#     4  10  19  33  53  77 105 132 161 199 257 304
#     4   9  18  32  51  75 101 131 168 205 246 299
#     4  10  19  33  52  72 100 132 170 209 246 295
#     4  10  20  33  52  74  99 133 171 209 247 291
#     4  10  20  35  55  77 101 132 170 208 245 292
#     4   9  19  33  50  74 100 131 169 208 250 292
#
# _framework density 16.985669000000001
#
# number of rings (size 3 to 8) (size 9 to 14) (size 15 to 20)
#    0.000    2.500    1.250    0.750    1.750    3.250 
#    0.000    3.750    0.000    0.750    0.000    0.000 
#    0.000    0.000    0.000    0.000    0.000    0.000 
#
# Total GULP energy -793330.921514 kJ/mol
# GULP energy per Si atom -12395.795649 kJ/mol
# Density = 1.694701 g / cm^3
# Si number density = 16.985669 Si / 1000 Ang^3
#
#
#
# Elastic Constant Matrix: (Units=GPa)
#
#
# Indices 1 2 3 4 5 6 
#
# 1 92.7684 40.5848 49.7271 0.0000 0.0000 0.0000
# 2 40.5848 55.7350 43.4470 0.0000 0.0000 0.0000
# 3 49.7271 43.4470 114.2787 0.0000 0.0000 0.0000
# 4 0.0000 0.0000 0.0000 30.5320 0.0000 0.0000
# 5 0.0000 0.0000 0.0000 0.0000 28.5117 0.0000
# 6 0.0000 0.0000 0.0000 0.0000 0.0000 28.3382
#
#
#
# Elastic Compliance Matrix: (Units=1/GPa)
#
#
# Indices 1 2 3 4 5 6 
#
# 1 0.016907 -0.009346 -0.003804 0.000000 0.000000 0.000000
# 2 -0.009346 0.030666 -0.007592 0.000000 0.000000 0.000000
# 3 -0.003804 -0.007592 0.013292 0.000000 0.000000 0.000000
# 4 0.000000 0.000000 0.000000 0.032753 0.000000 0.000000
# 5 0.000000 0.000000 0.000000 0.000000 0.035073 0.000000
# 6 0.000000 0.000000 0.000000 0.000000 0.000000 0.035288
#
#
# Mechanical properties :
#
#
# Convention : Reuss Voigt Hill
#
# Bulk Modulus (GPa) = 51.59557 58.92219 55.25888
# Shear Modulus (GPa) = 23.59347 26.07792 24.83570
#
# Velocity S-wave (km/s) = 3.73100 3.92253 3.82796
# Velocity P-wave (km/s) = 7.00017 7.43503 7.22087
#
# Compressibility (1/GPa) = 0.01938151
#
# Stress axis : x y z
#
# Youngs Moduli (GPa) = 59.14582 32.60963 75.23377
#
# Poissons Ratio (x) = 0.30478 0.28617
# Poissons Ratio (y) = 0.55280 0.57115
# Poissons Ratio (z) = 0.22497 0.24756
#
# Static dielectric constant tensor:
#      x y z
#    x 3.224900 0.000000 0.000000 
#    y 0.000000 3.133520 0.000000 
#    z 0.000000 0.000000 3.321950 
# 
# 
# High freq. dielectric constant tensor:
#      x y z
#    x 1.649020 0.000000 0.000000 
#    y 0.000000 1.647360 0.000000 
#    z 0.000000 0.000000 1.665960 
# 
# From -- ./inp_files/44614.got.cif
#   From: 2010.03.12/outbox.cif.g09.slc.cpg/sg74_23_cif.got.tgz:44614.got - 2010.04.16 15:46:19.
