data_PCOD8298093
_publ_section_title
;
Structure prediction by ZEFSAII (Michael W. Deem and Ramdas Pophale) SiO2 
 PCOD8298093
Probable space group: I M M A
;
_chemical_formula_sum "Si O2"
_cell_formula_units_Z 72
_cell_length_a 8.735239
_cell_length_b 22.828268
_cell_length_c 19.164948
_cell_angle_alpha 90.000000
_cell_angle_beta 90.000000
_cell_angle_gamma 90.000000
_cell_volume 3821.689505
_symmetry_space_group_name_H-M "I M M A"
_symmetry_group_IT_number 74
_symmetry_cell_setting 'orthorhombic'
loop_
_space_group_symop_operation_xyz
x,y,z
-x,1/2-y,z
x,-y,-z
-x,1/2+y,-z
-x,-y,-z
x,1/2+y,-z
-x,y,z
x,1/2-y,z
1/2+x,1/2+y,1/2+z
1/2-x,-y,1/2+z
1/2+x,1/2-y,1/2-z
1/2-x,y,1/2-z
1/2-x,1/2-y,1/2-z
1/2+x,y,1/2-z
1/2-x,1/2+y,1/2+z
1/2+x,-y,1/2+z
loop_
_atom_site_type_symbol
_atom_site_label
_atom_site_fract_x
_atom_site_fract_y
_atom_site_fract_z
Si Si1 0.818106 0.917054 0.326156
Si Si2 0.181282 0.980928 0.574804
Si Si3 0.318649 0.151608 0.079133
Si Si4 0.319265 0.250000 0.326226
Si Si5 0.818314 0.315083 0.574680
O O1 0.750000 0.915621 0.250000
O O2 0.754850 0.860732 0.368469
O O3 0.000000 0.916001 0.321603
O O4 0.758518 0.975337 0.365372
O O5 0.230320 0.915197 0.594539
O O6 0.000000 0.985562 0.569239
O O7 0.251359 0.000000 0.500000
O O8 0.500000 0.161203 0.085643
O O9 0.234891 0.191744 0.134823
O O10 0.259096 0.168176 0.002122
O O11 0.500000 0.250000 0.320927
O O12 0.250000 0.250000 0.250000
O O13 0.760049 0.250000 0.594434
O O14 0.000000 0.318039 0.573781
#
# Coordination Sequence:
#
# PCOD8298093 Si02
#       5
#    16  16  16   8  16
#     4  10  20  34  52  79 114 146 181 226 274 324
#     4   9  16  30  57  87 109 141 189 232 270 328
#     4  10  18  34  62  88 108 140 189 236 276 328
#     4  12  26  42  58  82 117 150 183 230 289 342
#     4   9  16  29  55  83 105 139 187 227 265 321
#
# _framework density 18.839834
#
# number of rings (size 3 to 8) (size 9 to 14) (size 15 to 20)
#    0.000    2.222    3.333    1.000    0.000    1.333 
#    0.000    4.444    0.000    1.333    0.000    0.000 
#    0.000    0.000    0.000    0.000    0.000    0.000 
#
# Total GULP energy -446360.817814 kJ/mol
# GULP energy per Si atom -12398.911606 kJ/mol
# Density = 1.879695 g / cm^3
# Si number density = 18.839834 Si / 1000 Ang^3
#
#
#
# Elastic Constant Matrix: (Units=GPa)
#
#
# Indices 1 2 3 4 5 6 
#
# 1 40.0736 36.2032 36.9834 0.0000 0.0000 0.0000
# 2 36.2032 205.5151 110.5432 0.0000 0.0000 0.0000
# 3 36.9834 110.5432 189.1162 0.0001 0.0000 0.0000
# 4 0.0000 0.0000 0.0001 36.2586 0.0000 0.0000
# 5 0.0000 0.0000 0.0000 0.0000 29.3554 0.0000
# 6 0.0000 0.0000 0.0000 0.0000 0.0000 13.6417
#
#
#
# Elastic Compliance Matrix: (Units=1/GPa)
#
#
# Indices 1 2 3 4 5 6 
#
# 1 0.031917 -0.003304 -0.004310 0.000000 0.000000 0.000000
# 2 -0.003304 0.007439 -0.003702 0.000000 0.000000 0.000000
# 3 -0.004310 -0.003702 0.008295 0.000000 0.000000 0.000000
# 4 0.000000 0.000000 0.000000 0.027580 0.000000 0.000000
# 5 0.000000 0.000000 0.000000 0.000000 0.034065 0.000000
# 6 0.000000 0.000000 0.000000 0.000000 0.000000 0.073305
#
#
# Mechanical properties :
#
#
# Convention : Reuss Voigt Hill
#
# Bulk Modulus (GPa) = 39.97174 89.12937 64.55056
# Shear Modulus (GPa) = 23.41118 32.58282 27.99700
#
# Velocity S-wave (km/s) = 3.52894 4.16319 3.85912
# Velocity P-wave (km/s) = 6.15363 8.39770 7.36167
#
# Compressibility (1/GPa) = 0.02501767
#
# Stress axis : x y z
#
# Youngs Moduli (GPa) = 31.33129 134.42203 120.55757
#
# Poissons Ratio (x) = 0.44412 0.51965
# Poissons Ratio (y) = 0.10352 0.44634
# Poissons Ratio (z) = 0.13505 0.49767
#
# Static dielectric constant tensor:
#      x y z
#    x 2.921250 0.000000 0.000000 
#    y 0.000000 3.987250 0.000000 
#    z 0.000000 0.000000 3.515880 
# 
# 
# High freq. dielectric constant tensor:
#      x y z
#    x 1.676630 0.000000 0.000000 
#    y 0.000000 1.754580 0.000000 
#    z 0.000000 0.000000 1.734960 
# 
# From -- ./inp_files/39479.got.cif
#   From: 2010.03.12/outbox.cif.g09.slc.cpg/sg74_20_cif.got.tgz:39479.got - 2010.04.16 15:46:19.
