data_PCOD8298277
_publ_section_title
;
Structure prediction by ZEFSAII (Michael W. Deem and Ramdas Pophale) SiO2 
 PCOD8298277
Probable space group: I M M A
;
_chemical_formula_sum "Si O2"
_cell_formula_units_Z 120
_cell_length_a 16.832227
_cell_length_b 19.335989
_cell_length_c 22.353739
_cell_angle_alpha 90.000000
_cell_angle_beta 90.000000
_cell_angle_gamma 90.000000
_cell_volume 7275.421273
_symmetry_space_group_name_H-M "I M M A"
_symmetry_group_IT_number 74
_symmetry_cell_setting 'orthorhombic'
loop_
_space_group_symop_operation_xyz
x,y,z
-x,1/2-y,z
x,-y,-z
-x,1/2+y,-z
-x,-y,-z
x,1/2+y,-z
-x,y,z
x,1/2-y,z
1/2+x,1/2+y,1/2+z
1/2-x,-y,1/2+z
1/2+x,1/2-y,1/2-z
1/2-x,y,1/2-z
1/2-x,1/2-y,1/2-z
1/2+x,y,1/2-z
1/2-x,1/2+y,1/2+z
1/2+x,-y,1/2+z
loop_
_atom_site_type_symbol
_atom_site_label
_atom_site_fract_x
_atom_site_fract_y
_atom_site_fract_z
Si Si1 0.908228 0.828378 0.135707
Si Si2 0.695849 0.500000 0.500000
Si Si3 0.186641 0.825070 0.891163
Si Si4 0.767312 0.464588 0.382503
Si Si5 0.092328 0.827606 0.771653
Si Si6 0.906395 0.365036 0.998772
Si Si7 0.408187 0.539448 0.800323
Si Si8 0.823547 0.053410 0.789999
O O1 0.891193 0.750000 0.157241
O O2 0.886387 0.832808 0.065733
O O3 0.855891 0.880687 0.174408
O O4 0.000000 0.848156 0.145317
O O5 0.753917 0.507719 0.443102
O O6 0.635941 0.562423 0.506400
O O7 0.228310 0.750000 0.883715
O O8 0.253454 0.883690 0.896992
O O9 0.134849 0.843163 0.833530
O O10 0.129082 0.818068 0.948633
O O11 0.857083 0.475495 0.359823
O O12 0.704929 0.492646 0.333925
O O13 0.111997 0.750000 0.747669
O O14 0.119100 0.884805 0.723270
O O15 0.000000 0.836649 0.784768
O O16 0.000000 0.373598 0.007886
O O17 0.500000 0.537363 0.818460
O O18 0.392056 0.480300 0.750941
O O19 0.750000 0.079757 0.750000
#
# Coordination Sequence:
#
# PCOD8298277 Si02
#       8
#    16   8  16  16  16  16  16  16
#     4  10  20  33  49  71  99 128 159 195 237 288
#     4  10  19  34  51  72  98 126 162 208 237 288
#     4  10  19  30  45  69 103 138 169 198 229 274
#     4  10  20  34  51  73  96 128 166 203 246 291
#     4   9  17  28  44  69 101 135 167 197 231 275
#     4  10  19  30  47  71 101 135 164 193 233 281
#     4  10  20  34  51  71  98 129 163 205 249 289
#     4  10  19  34  52  72  98 125 159 200 246 298
#
# _framework density 16.49389
#
# number of rings (size 3 to 8) (size 9 to 14) (size 15 to 20)
#    0.000    2.133    2.667    1.400    0.000    2.133 
#    0.000    1.667    0.000    0.000    0.000    0.000 
#    0.000    0.000    0.000    0.000    0.000    0.000 
#
# Total GULP energy -743836.209787 kJ/mol
# GULP energy per Si atom -12397.270163 kJ/mol
# Density = 1.645635 g / cm^3
# Si number density = 16.493890 Si / 1000 Ang^3
#
#
#
# Elastic Constant Matrix: (Units=GPa)
#
#
# Indices 1 2 3 4 5 6 
#
# 1 65.8842 27.2170 38.1158 0.0000 0.0000 0.0000
# 2 27.2170 64.4649 12.1593 0.0000 0.0000 0.0000
# 3 38.1158 12.1593 67.9827 0.0000 0.0000 0.0000
# 4 0.0000 0.0000 0.0000 18.6631 0.0000 0.0000
# 5 0.0000 0.0000 0.0000 0.0000 25.4584 0.0000
# 6 0.0000 0.0000 0.0000 0.0000 0.0000 17.1078
#
#
#
# Elastic Compliance Matrix: (Units=1/GPa)
#
#
# Indices 1 2 3 4 5 6 
#
# 1 0.026432 -0.008656 -0.013271 0.000000 0.000000 0.000000
# 2 -0.008656 0.018889 0.001475 0.000000 0.000000 0.000000
# 3 -0.013271 0.001475 0.021887 0.000000 0.000000 0.000000
# 4 0.000000 0.000000 0.000000 0.053582 0.000000 0.000000
# 5 0.000000 0.000000 0.000000 0.000000 0.039280 0.000000
# 6 0.000000 0.000000 0.000000 0.000000 0.000000 0.058453
#
#
# Mechanical properties :
#
#
# Convention : Reuss Voigt Hill
#
# Bulk Modulus (GPa) = 38.02001 39.25733 38.63867
# Shear Modulus (GPa) = 18.64318 20.30183 19.47251
#
# Velocity S-wave (km/s) = 3.36565 3.51218 3.43970
# Velocity P-wave (km/s) = 6.18098 6.34823 6.26516
#
# Compressibility (1/GPa) = 0.02630194
#
# Stress axis : x y z
#
# Youngs Moduli (GPa) = 37.83303 52.94138 45.68998
#
# Poissons Ratio (x) = 0.45828 0.60637
# Poissons Ratio (y) = 0.32749 -0.06739
# Poissons Ratio (z) = 0.50209 -0.07808
#
# Static dielectric constant tensor:
#      x y z
#    x 2.904530 0.000000 0.000000 
#    y 0.000000 3.174750 0.000000 
#    z 0.000000 0.000000 3.183510 
# 
# 
# High freq. dielectric constant tensor:
#      x y z
#    x 1.612960 0.000000 0.000000 
#    y 0.000000 1.641540 0.000000 
#    z 0.000000 0.000000 1.629020 
# 
# From -- ./inp_files/52353.got.cif
#   From: 2010.03.12/outbox.cif.g09.slc.cpg/sg74_27_cif.got.tgz:52353.got - 2010.04.16 15:46:19.
