data_PCOD8298428
_publ_section_title
;
Structure prediction by ZEFSAII (Michael W. Deem and Ramdas Pophale) SiO2 
 PCOD8298428
Probable space group: I M M A
;
_chemical_formula_sum "Si O2"
_cell_formula_units_Z 88
_cell_length_a 21.372052
_cell_length_b 9.197962
_cell_length_c 25.094267
_cell_angle_alpha 90.000000
_cell_angle_beta 90.000000
_cell_angle_gamma 90.000000
_cell_volume 4933.013997
_symmetry_space_group_name_H-M "I M M A"
_symmetry_group_IT_number 74
_symmetry_cell_setting 'orthorhombic'
loop_
_space_group_symop_operation_xyz
x,y,z
-x,1/2-y,z
x,-y,-z
-x,1/2+y,-z
-x,-y,-z
x,1/2+y,-z
-x,y,z
x,1/2-y,z
1/2+x,1/2+y,1/2+z
1/2-x,-y,1/2+z
1/2+x,1/2-y,1/2-z
1/2-x,y,1/2-z
1/2-x,1/2-y,1/2-z
1/2+x,y,1/2-z
1/2-x,1/2+y,1/2+z
1/2+x,-y,1/2+z
loop_
_atom_site_type_symbol
_atom_site_label
_atom_site_fract_x
_atom_site_fract_y
_atom_site_fract_z
Si Si1 0.299292 0.914210 0.642739
Si Si2 0.000000 0.413953 0.946548
Si Si3 0.365842 0.580702 0.444279
Si Si4 0.324104 0.913614 0.256894
Si Si5 0.572319 0.920071 0.945970
Si Si6 0.348404 0.414587 0.155958
O O1 0.324103 0.750000 0.636962
O O2 0.225176 0.916354 0.646861
O O3 0.313026 0.008889 0.591162
O O4 0.336367 0.985189 0.692189
O O5 0.934468 0.443592 0.915732
O O6 0.000000 0.250000 0.966560
O O7 0.000000 0.500000 0.000000
O O8 0.364635 0.500000 0.500000
O O9 0.350124 0.750000 0.452105
O O10 0.349616 0.750000 0.266173
O O11 0.250000 0.909271 0.250000
O O12 0.361287 0.981498 0.206536
O O13 0.500000 0.957009 0.933270
O O14 0.582568 0.750000 0.955678
O O15 0.614303 0.973650 0.895906
O O16 0.594388 0.000000 0.000000
O O17 0.370722 0.250000 0.168852
#
# Coordination Sequence:
#
# PCOD8298428 Si02
#       6
#    16   8  16  16  16  16
#     4  10  19  31  48  72 101 130 160 199 246 294
#     4   8  16  30  48  66  86 118 156 192 227 270
#     4  10  19  32  49  70  96 126 161 199 240 286
#     4   9  17  30  49  72  95 123 160 198 238 288
#     4   9  18  33  52  73  98 130 167 205 245 293
#     4   9  18  32  50  72  98 128 161 200 247 294
#
# _framework density 17.838991
#
# number of rings (size 3 to 8) (size 9 to 14) (size 15 to 20)
#    0.000    2.727    0.000    1.636    0.000    5.091 
#    0.000    1.818    2.000    0.000    0.000    0.000 
#    0.000    0.000    0.000    0.000    0.000    0.000 
#
# Total GULP energy -545245.744535 kJ/mol
# GULP energy per Si atom -12391.948739 kJ/mol
# Density = 1.779839 g / cm^3
# Si number density = 17.838991 Si / 1000 Ang^3
#
#
#
# Elastic Constant Matrix: (Units=GPa)
#
#
# Indices 1 2 3 4 5 6 
#
# 1 27.3130 26.9968 34.9550 0.0000 0.0000 0.0000
# 2 26.9968 118.2860 60.2072 0.0000 0.0000 0.0000
# 3 34.9550 60.2072 120.1562 0.0000 0.0000 0.0000
# 4 0.0000 0.0000 0.0000 36.2787 0.0000 0.0000
# 5 0.0000 0.0000 0.0000 0.0000 22.5604 0.0000
# 6 0.0000 0.0000 0.0000 0.0000 0.0000 19.0553
#
#
#
# Elastic Compliance Matrix: (Units=1/GPa)
#
#
# Indices 1 2 3 4 5 6 
#
# 1 0.062020 -0.006674 -0.014698 0.000000 0.000000 0.000000
# 2 -0.006674 0.012067 -0.004105 0.000000 0.000000 0.000000
# 3 -0.014698 -0.004105 0.014655 0.000000 0.000000 0.000000
# 4 0.000000 0.000000 0.000000 0.027564 0.000000 0.000000
# 5 0.000000 0.000000 0.000000 0.000000 0.044326 0.000000
# 6 0.000000 0.000000 0.000000 0.000000 0.000000 0.052479
#
#
# Mechanical properties :
#
#
# Convention : Reuss Voigt Hill
#
# Bulk Modulus (GPa) = 26.46334 56.67481 41.56907
# Shear Modulus (GPa) = 18.07271 25.15195 21.61233
#
# Velocity S-wave (km/s) = 3.18638 3.75899 3.48447
# Velocity P-wave (km/s) = 5.32955 7.11893 6.28822
#
# Compressibility (1/GPa) = 0.03778813
#
# Stress axis : x y z
#
# Youngs Moduli (GPa) = 16.12384 82.87372 68.23472
#
# Poissons Ratio (x) = 0.55306 1.00295
# Poissons Ratio (y) = 0.10760 0.28009
# Poissons Ratio (z) = 0.23700 0.34018
#
# Static dielectric constant tensor:
#      x y z
#    x 3.372750 0.000000 0.000000 
#    y 0.000000 3.494320 0.000000 
#    z 0.000000 0.000000 3.272890 
# 
# 
# High freq. dielectric constant tensor:
#      x y z
#    x 1.664650 0.000000 0.000000 
#    y 0.000000 1.702610 0.000000 
#    z 0.000000 0.000000 1.680520 
# 
# From -- ./inp_files/68107.got.cif
#   From: 2010.03.12/outbox.cif.g09.slc.cpg/sg74_35_cif.got.tgz:68107.got - 2010.04.16 15:46:19.
