data_PCOD8298031
_publ_section_title
;
Structure prediction by ZEFSAII (Michael W. Deem and Ramdas Pophale) SiO2 
 PCOD8298031
Probable space group: I M M A
;
_chemical_formula_sum "Si O2"
_cell_formula_units_Z 64
_cell_length_a 20.072147
_cell_length_b 19.525174
_cell_length_c 9.578180
_cell_angle_alpha 90.000000
_cell_angle_beta 90.000000
_cell_angle_gamma 90.000000
_cell_volume 3753.805239
_symmetry_space_group_name_H-M "I M M A"
_symmetry_group_IT_number 74
_symmetry_cell_setting 'orthorhombic'
loop_
_space_group_symop_operation_xyz
x,y,z
-x,1/2-y,z
x,-y,-z
-x,1/2+y,-z
-x,-y,-z
x,1/2+y,-z
-x,y,z
x,1/2-y,z
1/2+x,1/2+y,1/2+z
1/2-x,-y,1/2+z
1/2+x,1/2-y,1/2-z
1/2-x,y,1/2-z
1/2-x,1/2-y,1/2-z
1/2+x,y,1/2-z
1/2-x,1/2+y,1/2+z
1/2+x,-y,1/2+z
loop_
_atom_site_type_symbol
_atom_site_label
_atom_site_fract_x
_atom_site_fract_y
_atom_site_fract_z
Si Si1 0.077399 0.250000 0.514302
Si Si2 0.326545 0.000000 0.500000
Si Si3 0.361784 0.826334 0.782207
Si Si4 0.750000 0.432257 0.250000
Si Si5 0.421073 0.750000 0.322136
Si Si6 0.077683 0.376688 0.004021
O O1 0.098064 0.181886 0.427856
O O2 0.111201 0.250000 0.667324
O O3 0.000000 0.250000 0.538358
O O4 0.279474 0.980454 0.629610
O O5 0.375406 0.938709 0.457856
O O6 0.334260 0.750000 0.739094
O O7 0.304983 0.881455 0.813734
O O8 0.411479 0.854444 0.664002
O O9 0.500000 0.750000 0.318040
O O10 0.396842 0.683304 0.403694
O O11 0.000000 0.395441 0.982829
#
# Coordination Sequence:
#
# PCOD8298031 Si02
#       6
#     8   8  16   8   8  16
#     4   9  17  28  47  81 106 126 158 213 274 315
#     4  10  23  36  54  72 107 142 182 220 256 316
#     4   9  18  31  55  74 101 133 173 217 257 314
#     4  10  21  38  50  71 100 146 180 214 252 309
#     4   9  17  29  49  76 108 126 155 209 268 317
#     4  10  18  33  55  81 104 134 172 222 273 316
#
# _framework density 17.049367
#
# number of rings (size 3 to 8) (size 9 to 14) (size 15 to 20)
#    0.750    1.750    1.250    1.500    0.000    2.000 
#    0.000    0.000    0.000    3.750    0.000   17.500 
#    0.000    0.000    0.000    0.000    0.000    0.000 
#
# Total GULP energy -396552.762331 kJ/mol
# GULP energy per Si atom -12392.273823 kJ/mol
# Density = 1.701056 g / cm^3
# Si number density = 17.049367 Si / 1000 Ang^3
#
#
#
# Elastic Constant Matrix: (Units=GPa)
#
#
# Indices 1 2 3 4 5 6 
#
# 1 84.3076 56.1239 50.6229 0.0000 0.0000 0.0000
# 2 56.1239 125.9400 58.8276 0.0000 0.0000 0.0000
# 3 50.6229 58.8276 115.5130 0.0000 0.0000 0.0000
# 4 0.0000 0.0000 0.0000 28.6303 0.0000 0.0000
# 5 0.0000 0.0000 0.0000 0.0000 23.8702 0.0000
# 6 0.0000 0.0000 0.0000 0.0000 0.0000 23.2099
#
#
#
# Elastic Compliance Matrix: (Units=1/GPa)
#
#
# Indices 1 2 3 4 5 6 
#
# 1 0.019037 -0.006018 -0.005278 0.000000 0.000000 0.000000
# 2 -0.006018 0.012321 -0.003637 0.000000 0.000000 0.000000
# 3 -0.005278 -0.003637 0.012822 0.000000 0.000000 0.000000
# 4 0.000000 0.000000 0.000000 0.034928 0.000000 0.000000
# 5 0.000000 0.000000 0.000000 0.000000 0.041893 0.000000
# 6 0.000000 0.000000 0.000000 0.000000 0.000000 0.043085
#
#
# Mechanical properties :
#
#
# Convention : Reuss Voigt Hill
#
# Bulk Modulus (GPa) = 69.86396 72.98994 71.42695
# Shear Modulus (GPa) = 25.16037 25.82116 25.49077
#
# Velocity S-wave (km/s) = 3.84570 3.89587 3.87087
# Velocity P-wave (km/s) = 7.79651 7.94613 7.87168
#
# Compressibility (1/GPa) = 0.01431353
#
# Stress axis : x y z
#
# Youngs Moduli (GPa) = 52.52982 81.15992 77.98797
#
# Poissons Ratio (x) = 0.48844 0.41161
# Poissons Ratio (y) = 0.31614 0.28368
# Poissons Ratio (z) = 0.27724 0.29522
#
# Static dielectric constant tensor:
#      x y z
#    x 3.075260 0.000000 0.000000 
#    y 0.000000 3.239310 0.000000 
#    z 0.000000 0.000000 3.258040 
# 
# 
# High freq. dielectric constant tensor:
#      x y z
#    x 1.649020 0.000000 0.000000 
#    y 0.000000 1.657100 0.000000 
#    z 0.000000 0.000000 1.654110 
# 
# From -- ./inp_files/13570.got.cif
#   From: 2010.03.12/outbox.cif.g09.slc.cpg/sg74_7_cif.got.tgz:13570.got - 2010.04.16 15:46:19.
