data_PCOD8298385
_publ_section_title
;
Structure prediction by ZEFSAII (Michael W. Deem and Ramdas Pophale) SiO2 
 PCOD8298385
Probable space group: I M M A
;
_chemical_formula_sum "Si O2"
_cell_formula_units_Z 112
_cell_length_a 8.955261
_cell_length_b 25.532604
_cell_length_c 25.477685
_cell_angle_alpha 90.000000
_cell_angle_beta 90.000000
_cell_angle_gamma 90.000000
_cell_volume 5825.501537
_symmetry_space_group_name_H-M "I M M A"
_symmetry_group_IT_number 74
_symmetry_cell_setting 'orthorhombic'
loop_
_space_group_symop_operation_xyz
x,y,z
-x,1/2-y,z
x,-y,-z
-x,1/2+y,-z
-x,-y,-z
x,1/2+y,-z
-x,y,z
x,1/2-y,z
1/2+x,1/2+y,1/2+z
1/2-x,-y,1/2+z
1/2+x,1/2-y,1/2-z
1/2-x,y,1/2-z
1/2-x,1/2-y,1/2-z
1/2+x,y,1/2-z
1/2-x,1/2+y,1/2+z
1/2+x,-y,1/2+z
loop_
_atom_site_type_symbol
_atom_site_label
_atom_site_fract_x
_atom_site_fract_y
_atom_site_fract_z
Si Si1 0.832600 0.957657 0.044268
Si Si2 0.824248 0.997159 0.152414
Si Si3 0.322611 0.349812 0.504119
Si Si4 0.177507 0.690869 0.893184
Si Si5 0.675217 0.887765 0.302681
Si Si6 0.823207 0.193235 0.887406
Si Si7 0.322045 0.891920 0.694359
O O1 0.753506 0.906478 0.019927
O O2 0.000000 0.940732 0.062051
O O3 0.752790 0.982289 0.095615
O O4 0.837864 0.000000 0.000000
O O5 0.758594 0.051539 0.174941
O O6 0.000000 0.005615 0.145756
O O7 0.784470 0.948996 0.190571
O O8 0.500000 0.353981 0.497300
O O9 0.255674 0.329195 0.449003
O O10 0.274846 0.312045 0.551783
O O11 0.235725 0.750000 0.882265
O O12 0.231559 0.652250 0.846942
O O13 0.000000 0.690764 0.896059
O O14 0.500000 0.879535 0.297816
O O15 0.750000 0.866613 0.250000
O O16 0.741118 0.853394 0.351009
O O17 0.765347 0.250000 0.867533
O O18 0.000000 0.190516 0.884339
O O19 0.500000 0.892586 0.700239
O O20 0.250000 0.877837 0.750000
#
# Coordination Sequence:
#
# PCOD8298385 Si02
#       7
#    16  16  16  16  16  16  16
#     4   9  14  20  35  60  91 121 144 175 226 281
#     4   9  16  28  43  64  93 121 152 189 229 273
#     4   9  14  23  39  63  93 121 148 182 231 284
#     4   9  17  28  43  66  96 126 154 189 236 284
#     4  10  19  31  46  65  91 121 154 190 226 266
#     4   9  16  26  41  62  89 119 149 184 228 274
#     4  10  20  33  49  69  95 127 160 195 233 274
#
# _framework density 19.225812000000001
#
# number of rings (size 3 to 8) (size 9 to 14) (size 15 to 20)
#    0.000    2.714    1.429    1.714    0.000    5.714 
#    0.000    0.000    0.000    0.000    0.000    1.000 
#    0.000    4.571    0.000    0.000    0.000    0.000 
#
# Total GULP energy -693948.214940 kJ/mol
# GULP energy per Si atom -12391.932410 kJ/mol
# Density = 1.918205 g / cm^3
# Si number density = 19.225812 Si / 1000 Ang^3
#
#
#
# Elastic Constant Matrix: (Units=GPa)
#
#
# Indices 1 2 3 4 5 6 
#
# 1 6.7266 11.4761 16.6665 0.0000 0.0000 0.0000
# 2 11.4761 162.3743 83.1616 0.0000 0.0000 0.0000
# 3 16.6665 83.1616 172.2618 0.0000 0.0000 0.0000
# 4 0.0000 0.0000 0.0000 28.3656 0.0000 0.0000
# 5 0.0000 0.0000 0.0000 0.0000 16.7188 0.0000
# 6 0.0000 0.0000 0.0000 0.0000 0.0000 7.6964
#
#
#
# Elastic Compliance Matrix: (Units=1/GPa)
#
#
# Indices 1 2 3 4 5 6 
#
# 1 0.199289 -0.005593 -0.016581 0.000000 0.000000 0.000000
# 2 -0.005593 0.008338 -0.003484 0.000000 0.000000 0.000000
# 3 -0.016581 -0.003484 0.009092 0.000000 0.000000 0.000000
# 4 0.000000 0.000000 0.000000 0.035254 0.000000 0.000000
# 5 0.000000 0.000000 0.000000 0.000000 0.059813 0.000000
# 6 0.000000 0.000000 0.000000 0.000000 0.000000 0.129932
#
#
# Mechanical properties :
#
#
# Convention : Reuss Voigt Hill
#
# Bulk Modulus (GPa) = 6.04589 62.66346 34.35467
# Shear Modulus (GPa) = 9.12129 25.89340 17.50734
#
# Velocity S-wave (km/s) = 2.18050 3.67386 3.02092
# Velocity P-wave (km/s) = 3.08074 7.11762 5.48414
#
# Compressibility (1/GPa) = 0.16540151
#
# Stress axis : x y z
#
# Youngs Moduli (GPa) = 5.01785 119.92629 109.99267
#
# Poissons Ratio (x) = 0.67072 1.82383
# Poissons Ratio (y) = 0.02806 0.38326
# Poissons Ratio (z) = 0.08320 0.41787
#
# Static dielectric constant tensor:
#      x y z
#    x 2.663990 0.000000 0.000000 
#    y 0.000000 3.832810 0.000000 
#    z 0.000000 0.000000 3.670090 
# 
# 
# High freq. dielectric constant tensor:
#      x y z
#    x 1.647240 0.000000 0.000000 
#    y 0.000000 1.765860 0.000000 
#    z 0.000000 0.000000 1.762820 
# 
# From -- ./inp_files/51017.got.cif
#   From: 2010.03.12/outbox.cif.g09.slc.cpg/sg74_26_cif.got.tgz:51017.got - 2010.04.16 15:46:19.
