data_PCOD8298802
_publ_section_title
;
Structure prediction by ZEFSAII (Michael W. Deem and Ramdas Pophale) SiO2 
 PCOD8298802
Probable space group: I M M A
;
_chemical_formula_sum "Si O2"
_cell_formula_units_Z 120
_cell_length_a 17.694013
_cell_length_b 22.383005
_cell_length_c 15.320535
_cell_angle_alpha 90.000000
_cell_angle_beta 90.000000
_cell_angle_gamma 90.000000
_cell_volume 6067.624064
_symmetry_space_group_name_H-M "I M M A"
_symmetry_group_IT_number 74
_symmetry_cell_setting 'orthorhombic'
loop_
_space_group_symop_operation_xyz
x,y,z
-x,1/2-y,z
x,-y,-z
-x,1/2+y,-z
-x,-y,-z
x,1/2+y,-z
-x,y,z
x,1/2-y,z
1/2+x,1/2+y,1/2+z
1/2-x,-y,1/2+z
1/2+x,1/2-y,1/2-z
1/2-x,y,1/2-z
1/2-x,1/2-y,1/2-z
1/2+x,y,1/2-z
1/2-x,1/2+y,1/2+z
1/2+x,-y,1/2+z
loop_
_atom_site_type_symbol
_atom_site_label
_atom_site_fract_x
_atom_site_fract_y
_atom_site_fract_z
Si Si1 0.589711 0.103641 0.327575
Si Si2 0.329475 0.361213 0.649483
Si Si3 0.410379 0.316936 0.167072
Si Si4 0.313081 0.500000 0.000000
Si Si5 0.167853 0.494368 0.903076
Si Si6 0.584916 0.682890 0.511553
Si Si7 0.838694 0.820562 0.336665
Si Si8 0.587793 0.882373 0.007260
O O1 0.500000 0.093268 0.323079
O O2 0.619559 0.139099 0.242810
O O3 0.615069 0.140793 0.411999
O O4 0.632356 0.040564 0.334204
O O5 0.350407 0.430134 0.637004
O O6 0.363076 0.321833 0.572418
O O7 0.239934 0.353341 0.645380
O O8 0.365767 0.337727 0.739497
O O9 0.500000 0.313336 0.172583
O O10 0.376629 0.250000 0.178400
O O11 0.384149 0.342819 0.074184
O O12 0.258494 0.504957 0.914492
O O13 0.365343 0.557174 0.009415
O O14 0.129488 0.500000 0.000000
O O15 0.500000 0.664801 0.485164
O O16 0.587889 0.750000 0.548126
O O17 0.828502 0.750000 0.344811
O O18 0.900098 0.843870 0.405370
O O19 0.500000 0.898947 0.998734
#
# Coordination Sequence:
#
# PCOD8298802 Si02
#       8
#    16  16  16   8  16  16  16  16
#     4  10  20  35  60  93 123 159 202 243 295 362
#     4  11  21  39  59  85 119 159 200 242 299 361
#     4   9  19  38  62  90 124 159 200 252 309 362
#     4  10  21  42  61  86 124 162 206 256 307 362
#     4  10  20  38  61  84 122 165 198 244 300 364
#     4  10  19  32  55  86 120 156 192 240 293 346
#     4  11  23  40  63  88 117 158 202 247 302 366
#     4  11  23  41  66  90 119 161 208 258 308 358
#
# _framework density 19.777097999999999
#
# number of rings (size 3 to 8) (size 9 to 14) (size 15 to 20)
#    0.400    1.333    2.667    2.600    0.000    4.800 
#    0.000    1.333    0.000    0.800    0.000    0.000 
#    0.000    0.000    0.000    0.000    0.000    0.000 
#
# Total GULP energy -744037.894688 kJ/mol
# GULP energy per Si atom -12400.631578 kJ/mol
# Density = 1.973208 g / cm^3
# Si number density = 19.777098 Si / 1000 Ang^3
#
#
#
# Elastic Constant Matrix: (Units=GPa)
#
#
# Indices 1 2 3 4 5 6 
#
# 1 44.7018 27.8459 27.5908 0.0000 0.0000 0.0000
# 2 27.8459 151.5850 45.6225 0.0000 0.0000 0.0000
# 3 27.5908 45.6225 111.7069 0.0000 0.0000 0.0000
# 4 0.0000 0.0000 0.0000 31.6703 0.0000 0.0000
# 5 0.0000 0.0000 0.0000 0.0000 21.9212 0.0000
# 6 0.0000 0.0000 0.0000 0.0000 0.0000 17.9423
#
#
#
# Elastic Compliance Matrix: (Units=1/GPa)
#
#
# Indices 1 2 3 4 5 6 
#
# 1 0.027917 -0.003481 -0.005474 0.000000 0.000000 0.000000
# 2 -0.003481 0.007956 -0.002389 0.000000 0.000000 0.000000
# 3 -0.005474 -0.002389 0.011280 0.000000 0.000000 0.000000
# 4 0.000000 0.000000 0.000000 0.031575 0.000000 0.000000
# 5 0.000000 0.000000 0.000000 0.000000 0.045618 0.000000
# 6 0.000000 0.000000 0.000000 0.000000 0.000000 0.055734
#
#
# Mechanical properties :
#
#
# Convention : Reuss Voigt Hill
#
# Bulk Modulus (GPa) = 40.87539 56.67913 48.77726
# Shear Modulus (GPa) = 23.70535 28.10241 25.90388
#
# Velocity S-wave (km/s) = 3.46587 3.77365 3.62303
# Velocity P-wave (km/s) = 6.06047 6.90713 6.49760
#
# Compressibility (1/GPa) = 0.02446460
#
# Stress axis : x y z
#
# Youngs Moduli (GPa) = 35.82009 125.69878 88.65394
#
# Poissons Ratio (x) = 0.43755 0.48527
# Poissons Ratio (y) = 0.12469 0.21183
# Poissons Ratio (z) = 0.19607 0.30034
#
# Static dielectric constant tensor:
#      x y z
#    x 3.330840 0.000000 0.000000 
#    y 0.000000 3.633420 0.000000 
#    z 0.000000 0.000000 3.711110 
# 
# 
# High freq. dielectric constant tensor:
#      x y z
#    x 1.745050 0.000000 0.000000 
#    y 0.000000 1.786610 0.000000 
#    z 0.000000 0.000000 1.772830 
# 
# From -- ./inp_files/35727.got.cif
#   From: 2010.03.12/outbox.cif.g09.slc.cpg/sg74_18_cif.got.tgz:35727.got - 2010.04.16 15:46:19.
