data_PCOD8298825
_publ_section_title
;
Structure prediction by ZEFSAII (Michael W. Deem and Ramdas Pophale) SiO2 
 PCOD8298825
Probable space group: I M M A
;
_chemical_formula_sum "Si O2"
_cell_formula_units_Z 104
_cell_length_a 9.207026
_cell_length_b 27.609686
_cell_length_c 28.840044
_cell_angle_alpha 90.000000
_cell_angle_beta 90.000000
_cell_angle_gamma 90.000000
_cell_volume 7331.228498
_symmetry_space_group_name_H-M "I M M A"
_symmetry_group_IT_number 74
_symmetry_cell_setting 'orthorhombic'
loop_
_space_group_symop_operation_xyz
x,y,z
-x,1/2-y,z
x,-y,-z
-x,1/2+y,-z
-x,-y,-z
x,1/2+y,-z
-x,y,z
x,1/2-y,z
1/2+x,1/2+y,1/2+z
1/2-x,-y,1/2+z
1/2+x,1/2-y,1/2-z
1/2-x,y,1/2-z
1/2-x,1/2-y,1/2-z
1/2+x,y,1/2-z
1/2-x,1/2+y,1/2+z
1/2+x,-y,1/2+z
loop_
_atom_site_type_symbol
_atom_site_label
_atom_site_fract_x
_atom_site_fract_y
_atom_site_fract_z
Si Si1 0.328292 0.534772 0.396602
Si Si2 0.840719 0.668490 0.164134
Si Si3 0.337528 0.806202 0.439409
Si Si4 0.659714 0.543973 0.535298
Si Si5 0.672581 0.105382 0.968020
Si Si6 0.334158 0.250000 0.796605
Si Si7 0.333556 0.936710 0.296829
O O1 0.500000 0.547679 0.401150
O O2 0.294570 0.480600 0.415747
O O3 0.239891 0.575324 0.425175
O O4 0.280989 0.533698 0.342431
O O5 0.842239 0.665124 0.109054
O O6 0.707338 0.702809 0.175180
O O7 0.807519 0.618837 0.189915
O O8 0.000000 0.688090 0.180459
O O9 0.500000 0.806842 0.460909
O O10 0.284341 0.750000 0.435053
O O11 0.227023 0.838624 0.469597
O O12 0.648818 0.500000 0.500000
O O13 0.500000 0.568774 0.539113
O O14 0.777752 0.582448 0.517310
O O15 0.500000 0.104111 0.964155
O O16 0.500000 0.250000 0.785126
O O17 0.250000 0.250000 0.750000
O O18 0.500000 0.947901 0.286179
O O19 0.250000 0.951386 0.250000
#
# Coordination Sequence:
#
# PCOD8298825 Si02
#       7
#    16  16  16  16  16   8  16
#     4   9  17  32  48  61  80 110 141 170 203 248
#     4  10  19  34  49  58  72  98 134 175 214 251
#     4  10  19  33  50  61  76 107 143 173 207 253
#     4   8  15  28  47  64  80 105 137 165 199 248
#     4  11  20  28  43  66  90 106 126 168 217 256
#     4  12  24  34  44  56  72  92 126 172 218 264
#     4  10  20  32  46  61  80 104 135 172 211 252
#
# _framework density 14.185890000000001
#
# number of rings (size 3 to 8) (size 9 to 14) (size 15 to 20)
#    0.000    2.154    2.308    3.462    0.000    6.154 
#    0.000    0.000    0.000    0.000    0.000    0.000 
#    0.000    0.000    0.000    0.000    0.000    0.769 
#
# Total GULP energy -644273.054199 kJ/mol
# GULP energy per Si atom -12389.866427 kJ/mol
# Density = 1.415360 g / cm^3
# Si number density = 14.185890 Si / 1000 Ang^3
#
#
#
# Elastic Constant Matrix: (Units=GPa)
#
#
# Indices 1 2 3 4 5 6 
#
# 1 90.2733 37.9911 39.2067 0.0000 0.0000 0.0000
# 2 37.9911 49.8950 42.6448 0.0000 0.0000 0.0000
# 3 39.2067 42.6448 83.0134 0.0000 0.0000 0.0000
# 4 0.0000 0.0000 0.0000 51.4149 0.0000 0.0000
# 5 0.0000 0.0000 0.0000 0.0000 17.7644 0.0000
# 6 0.0000 0.0000 0.0000 0.0000 0.0000 14.8875
#
#
#
# Elastic Compliance Matrix: (Units=1/GPa)
#
#
# Indices 1 2 3 4 5 6 
#
# 1 0.016564 -0.010564 -0.002396 0.000000 0.000000 0.000000
# 2 -0.010564 0.042467 -0.016826 0.000000 0.000000 0.000000
# 3 -0.002396 -0.016826 0.021822 0.000000 0.000000 0.000000
# 4 0.000000 0.000000 0.000000 0.019450 0.000000 0.000000
# 5 0.000000 0.000000 0.000000 0.000000 0.056292 0.000000
# 6 0.000000 0.000000 0.000000 0.000000 0.000000 0.067170
#
#
# Mechanical properties :
#
#
# Convention : Reuss Voigt Hill
#
# Bulk Modulus (GPa) = 46.99348 51.42965 49.21156
# Shear Modulus (GPa) = 17.21572 23.70264 20.45918
#
# Velocity S-wave (km/s) = 3.48743 4.09205 3.80178
# Velocity P-wave (km/s) = 7.02958 7.65894 7.35100
#
# Compressibility (1/GPa) = 0.02127955
#
# Stress axis : x y z
#
# Youngs Moduli (GPa) = 60.37172 23.54752 45.82566
#
# Poissons Ratio (x) = 0.24876 0.10980
# Poissons Ratio (y) = 0.63778 0.77108
# Poissons Ratio (z) = 0.14466 0.39622
#
# Static dielectric constant tensor:
#      x y z
#    x 2.627760 0.000000 0.000000 
#    y 0.000000 2.730990 0.000000 
#    z 0.000000 0.000000 2.890310 
# 
# 
# High freq. dielectric constant tensor:
#      x y z
#    x 1.541850 0.000000 0.000000 
#    y 0.000000 1.511620 0.000000 
#    z 0.000000 0.000000 1.514790 
# 
# From -- ./inp_files/71000.got.cif
#   From: 2010.03.12/outbox.cif.g09.slc.cpg/sg74_36_cif.got.tgz:71000.got - 2010.04.16 15:46:19.
