data_PCOD8298378
_publ_section_title
;
Structure prediction by ZEFSAII (Michael W. Deem and Ramdas Pophale) SiO2 
 PCOD8298378
Probable space group: I M M A
;
_chemical_formula_sum "Si O2"
_cell_formula_units_Z 112
_cell_length_a 13.838246
_cell_length_b 27.888434
_cell_length_c 14.782401
_cell_angle_alpha 90.000000
_cell_angle_beta 90.000000
_cell_angle_gamma 90.000000
_cell_volume 5704.927822
_symmetry_space_group_name_H-M "I M M A"
_symmetry_group_IT_number 74
_symmetry_cell_setting 'orthorhombic'
loop_
_space_group_symop_operation_xyz
x,y,z
-x,1/2-y,z
x,-y,-z
-x,1/2+y,-z
-x,-y,-z
x,1/2+y,-z
-x,y,z
x,1/2-y,z
1/2+x,1/2+y,1/2+z
1/2-x,-y,1/2+z
1/2+x,1/2-y,1/2-z
1/2-x,y,1/2-z
1/2-x,1/2-y,1/2-z
1/2+x,y,1/2-z
1/2-x,1/2+y,1/2+z
1/2+x,-y,1/2+z
loop_
_atom_site_type_symbol
_atom_site_label
_atom_site_fract_x
_atom_site_fract_y
_atom_site_fract_z
Si Si1 0.272970 0.432461 0.611367
Si Si2 0.111868 0.118903 0.379153
Si Si3 0.389625 0.379692 0.326042
Si Si4 0.217204 0.350184 0.015536
Si Si5 0.110723 0.606815 0.264528
Si Si6 0.252035 0.464604 0.148865
Si Si7 0.610563 0.304290 0.645367
O O1 0.298799 0.405199 0.518737
O O2 0.177187 0.405589 0.649955
O O3 0.362109 0.427877 0.681095
O O4 0.256564 0.488133 0.586320
O O5 0.130004 0.137840 0.276555
O O6 0.171209 0.153092 0.449039
O O7 0.150537 0.063944 0.379998
O O8 0.000000 0.120036 0.407135
O O9 0.500000 0.389981 0.342517
O O10 0.350921 0.340075 0.397246
O O11 0.337084 0.428550 0.353001
O O12 0.187180 0.314025 0.935802
O O13 0.130589 0.661503 0.231278
O O14 0.000000 0.598602 0.292593
O O15 0.250000 0.486361 0.250000
O O16 0.500000 0.312628 0.610841
O O17 0.625855 0.250000 0.678411
#
# Coordination Sequence:
#
# PCOD8298378 Si02
#       7
#    16  16  16  16  16  16  16
#     4  10  19  31  45  72 102 133 169 214 251 291
#     4   9  19  33  49  69  97 137 177 207 245 302
#     4   9  18  32  50  70  95 132 173 210 254 305
#     4  10  19  32  51  73 102 128 163 211 264 307
#     4   9  18  32  48  68  98 136 170 203 251 300
#     4   9  16  30  45  64  98 135 172 211 245 285
#     4   9  18  34  57  82 104 128 164 210 258 310
#
# _framework density 19.632151
#
# number of rings (size 3 to 8) (size 9 to 14) (size 15 to 20)
#    0.000    2.714    1.429    1.714    0.000    4.571 
#    0.000    7.143    0.000    2.143    0.000    2.000 
#    0.000    0.000    0.000    0.143    0.000    0.000 
#
# Total GULP energy -693827.079697 kJ/mol
# GULP energy per Si atom -12389.769280 kJ/mol
# Density = 1.958747 g / cm^3
# Si number density = 19.632151 Si / 1000 Ang^3
#
#
#
# Elastic Constant Matrix: (Units=GPa)
#
#
# Indices 1 2 3 4 5 6 
#
# 1 93.7770 20.6785 15.8403 0.0001 0.0000 0.0000
# 2 20.6785 46.3145 2.3861 -0.0001 0.0000 0.0000
# 3 15.8403 2.3861 35.6675 -0.0008 0.0002 0.0000
# 4 0.0001 -0.0001 -0.0008 10.6494 0.0001 0.0000
# 5 0.0000 0.0000 0.0002 0.0001 23.2292 0.0000
# 6 0.0000 0.0000 0.0000 0.0000 0.0000 16.0188
#
#
#
# Elastic Compliance Matrix: (Units=1/GPa)
#
#
# Indices 1 2 3 4 5 6 
#
# 1 0.012755 -0.005422 -0.005302 -0.000001 0.000000 0.000000
# 2 -0.005422 0.023971 0.000804 0.000000 0.000000 0.000000
# 3 -0.005302 0.000804 0.030337 0.000002 0.000000 0.000000
# 4 -0.000001 0.000000 0.000002 0.093902 0.000000 0.000000
# 5 0.000000 0.000000 0.000000 0.000000 0.043049 0.000000
# 6 0.000000 0.000000 0.000000 0.000000 0.000000 0.062427
#
#
# Mechanical properties :
#
#
# Convention : Reuss Voigt Hill
#
# Bulk Modulus (GPa) = 21.17544 28.17432 24.67488
# Shear Modulus (GPa) = 16.55519 19.10311 17.82915
#
# Velocity S-wave (km/s) = 2.90706 3.12276 3.01684
# Velocity P-wave (km/s) = 4.69867 5.23302 4.97303
#
# Compressibility (1/GPa) = 0.04722451
#
# Stress axis : x y z
#
# Youngs Moduli (GPa) = 78.40289 41.71760 32.96254
#
# Poissons Ratio (x) = 0.22617 0.17476
# Poissons Ratio (y) = 0.42507 -0.02651
# Poissons Ratio (z) = 0.41567 -0.03355
#
# Static dielectric constant tensor:
#      x y z
#    x 3.679650 0.000000 0.000000 
#    y 0.000000 3.215230 0.000000 
#    z 0.000000 0.000000 3.824760 
# 
# 
# High freq. dielectric constant tensor:
#      x y z
#    x 1.764030 0.000000 0.000000 
#    y 0.000000 1.721120 0.000000 
#    z 0.000000 0.000000 1.770440 
# 
# From -- ./inp_files/32899.got.cif
#   From: 2010.03.12/outbox.cif.g09.slc.cpg/sg74_17_cif.got.tgz:32899.got - 2010.04.16 15:46:19.
