data_PCOD8298505
_publ_section_title
;
Structure prediction by ZEFSAII (Michael W. Deem and Ramdas Pophale) SiO2 
 PCOD8298505
Probable space group: I M M A
;
_chemical_formula_sum "Si O2"
_cell_formula_units_Z 80
_cell_length_a 8.846972
_cell_length_b 18.055645
_cell_length_c 27.473532
_cell_angle_alpha 90.000000
_cell_angle_beta 90.000000
_cell_angle_gamma 90.000000
_cell_volume 4388.561169
_symmetry_space_group_name_H-M "I M M A"
_symmetry_group_IT_number 74
_symmetry_cell_setting 'orthorhombic'
loop_
_space_group_symop_operation_xyz
x,y,z
-x,1/2-y,z
x,-y,-z
-x,1/2+y,-z
-x,-y,-z
x,1/2+y,-z
-x,y,z
x,1/2-y,z
1/2+x,1/2+y,1/2+z
1/2-x,-y,1/2+z
1/2+x,1/2-y,1/2-z
1/2-x,y,1/2-z
1/2-x,1/2-y,1/2-z
1/2+x,y,1/2-z
1/2-x,1/2+y,1/2+z
1/2+x,-y,1/2+z
loop_
_atom_site_type_symbol
_atom_site_label
_atom_site_fract_x
_atom_site_fract_y
_atom_site_fract_z
Si Si1 0.327121 0.165432 0.965343
Si Si2 0.176536 0.096007 0.057067
Si Si3 0.677932 0.169607 0.343902
Si Si4 0.674230 0.537668 0.105687
Si Si5 0.820693 0.519077 0.800118
O O1 0.500000 0.158226 0.983294
O O2 0.283206 0.250000 0.954074
O O3 0.302979 0.119873 0.915606
O O4 0.218994 0.133761 0.006719
O O5 0.219386 0.152594 0.100219
O O6 0.000000 0.076652 0.057540
O O7 0.266107 0.019652 0.065047
O O8 0.500000 0.173702 0.337733
O O9 0.749386 0.250000 0.329765
O O10 0.739085 0.103274 0.309787
O O11 0.500000 0.520214 0.116781
O O12 0.767144 0.532967 0.155826
O O13 0.750000 0.489915 0.750000
O O14 0.000000 0.515312 0.797251
#
# Coordination Sequence:
#
# PCOD8298505 Si02
#       5
#    16  16  16  16  16
#     4  10  21  35  51  74 104 136 169 207 254 305
#     4  10  19  31  50  76 106 140 175 207 241 289
#     4   8  15  28  45  68 100 134 165 198 236 279
#     4  10  20  35  54  74 100 134 170 210 253 299
#     4  10  20  34  53  75  98 127 166 211 257 306
#
# _framework density 18.229209000000001
#
# number of rings (size 3 to 8) (size 9 to 14) (size 15 to 20)
#    0.000    2.400    0.000    4.200    0.000    5.600 
#    0.000    0.000    0.000   12.000    0.000    0.000 
#    0.000    0.000    0.000    0.000    0.000    0.000 
#
# Total GULP energy -495954.327086 kJ/mol
# GULP energy per Si atom -12398.858177 kJ/mol
# Density = 1.818772 g / cm^3
# Si number density = 18.229209 Si / 1000 Ang^3
#
#
#
# Elastic Constant Matrix: (Units=GPa)
#
#
# Indices 1 2 3 4 5 6 
#
# 1 76.5625 31.3310 42.2444 0.0000 0.0000 0.0000
# 2 31.3310 94.8226 49.5179 0.0000 0.0000 0.0000
# 3 42.2444 49.5179 108.5853 0.0000 0.0000 0.0000
# 4 0.0000 0.0000 0.0000 11.8132 0.0000 0.0000
# 5 0.0000 0.0000 0.0000 0.0000 30.8367 0.0000
# 6 0.0000 0.0000 0.0000 0.0000 0.0000 18.8290
#
#
#
# Elastic Compliance Matrix: (Units=1/GPa)
#
#
# Indices 1 2 3 4 5 6 
#
# 1 0.017208 -0.002874 -0.005384 0.000000 0.000000 0.000000
# 2 -0.002874 0.014323 -0.005413 0.000000 0.000000 0.000000
# 3 -0.005384 -0.005413 0.013773 0.000000 0.000000 0.000000
# 4 0.000000 0.000000 0.000000 0.084651 0.000000 0.000000
# 5 0.000000 0.000000 0.000000 0.000000 0.032429 0.000000
# 6 0.000000 0.000000 0.000000 0.000000 0.000000 0.053110
#
#
# Mechanical properties :
#
#
# Convention : Reuss Voigt Hill
#
# Bulk Modulus (GPa) = 55.67850 58.46187 57.07019
# Shear Modulus (GPa) = 20.09465 22.75426 21.42445
#
# Velocity S-wave (km/s) = 3.32374 3.53686 3.43196
# Velocity P-wave (km/s) = 6.73346 6.98708 6.86144
#
# Compressibility (1/GPa) = 0.01796025
#
# Stress axis : x y z
#
# Youngs Moduli (GPa) = 58.11220 69.81968 72.60824
#
# Poissons Ratio (x) = 0.20068 0.39092
# Poissons Ratio (y) = 0.16703 0.39305
# Poissons Ratio (z) = 0.31287 0.37795
#
# Static dielectric constant tensor:
#      x y z
#    x 3.258350 0.000000 0.000000 
#    y 0.000000 3.509470 0.000000 
#    z 0.000000 0.000000 3.248130 
# 
# 
# High freq. dielectric constant tensor:
#      x y z
#    x 1.700420 0.000000 0.000000 
#    y 0.000000 1.694850 0.000000 
#    z 0.000000 0.000000 1.696770 
# 
# From -- ./inp_files/63911.got.cif
#   From: 2010.03.12/outbox.cif.g09.slc.cpg/sg74_32_cif.got.tgz:63911.got - 2010.04.16 15:46:19.
