data_PCOD8298707
_publ_section_title
;
Structure prediction by ZEFSAII (Michael W. Deem and Ramdas Pophale) SiO2 
 PCOD8298707
Probable space group: I M M A
;
_chemical_formula_sum "Si O2"
_cell_formula_units_Z 80
_cell_length_a 25.329881
_cell_length_b 9.103391
_cell_length_c 19.945627
_cell_angle_alpha 90.000000
_cell_angle_beta 90.000000
_cell_angle_gamma 90.000000
_cell_volume 4599.218463
_symmetry_space_group_name_H-M "I M M A"
_symmetry_group_IT_number 74
_symmetry_cell_setting 'orthorhombic'
loop_
_space_group_symop_operation_xyz
x,y,z
-x,1/2-y,z
x,-y,-z
-x,1/2+y,-z
-x,-y,-z
x,1/2+y,-z
-x,y,z
x,1/2-y,z
1/2+x,1/2+y,1/2+z
1/2-x,-y,1/2+z
1/2+x,1/2-y,1/2-z
1/2-x,y,1/2-z
1/2-x,1/2-y,1/2-z
1/2+x,y,1/2-z
1/2-x,1/2+y,1/2+z
1/2+x,-y,1/2+z
loop_
_atom_site_type_symbol
_atom_site_label
_atom_site_fract_x
_atom_site_fract_y
_atom_site_fract_z
Si Si1 0.247017 0.082098 0.568419
Si Si2 0.562010 0.581160 0.821243
Si Si3 0.367310 0.076899 0.928006
Si Si4 0.939107 0.079108 0.814216
Si Si5 0.861465 0.422042 0.928927
O O1 0.247781 0.250000 0.547989
O O2 0.191291 0.048021 0.605719
O O3 0.303070 0.043416 0.604027
O O4 0.245790 0.000000 0.500000
O O5 0.500000 0.564809 0.833019
O O6 0.580107 0.750000 0.822756
O O7 0.589582 0.492090 0.879994
O O8 0.578568 0.512494 0.750349
O O9 0.378423 0.250000 0.936364
O O10 0.371791 0.000000 0.000000
O O11 0.927988 0.250000 0.799306
O O12 0.904783 0.020262 0.876520
O O13 0.000000 0.050998 0.832318
O O14 0.869221 0.250000 0.941559
O O15 0.869768 0.500000 0.000000
#
# Coordination Sequence:
#
# PCOD8298707 Si02
#       5
#    16  16  16  16  16
#     4   8  15  28  46  69  96 126 157 190 233 280
#     4  10  21  36  52  70  94 125 160 198 241 287
#     4  10  19  32  52  75  98 125 158 196 236 281
#     4   9  18  33  51  70  95 129 165 199 238 283
#     4   9  17  30  49  73 100 128 160 198 237 280
#
# _framework density 17.394259999999999
#
# number of rings (size 3 to 8) (size 9 to 14) (size 15 to 20)
#    0.000    2.800    0.000    1.200    0.000    3.600 
#    0.000    1.000    0.000    6.000    0.000    0.000 
#    0.000    0.000    0.000    0.000    0.000    0.000 
#
# Total GULP energy -495556.382311 kJ/mol
# GULP energy per Si atom -12388.909558 kJ/mol
# Density = 1.735467 g / cm^3
# Si number density = 17.394260 Si / 1000 Ang^3
#
#
#
# Elastic Constant Matrix: (Units=GPa)
#
#
# Indices 1 2 3 4 5 6 
#
# 1 90.1828 46.7981 68.6419 0.0000 0.0000 0.0000
# 2 46.7981 77.0015 51.5797 0.0000 0.0000 0.0000
# 3 68.6419 51.5797 104.6383 0.0000 0.0000 0.0000
# 4 0.0000 0.0000 0.0000 29.1684 0.0000 0.0000
# 5 0.0000 0.0000 0.0000 0.0000 4.2389 0.0000
# 6 0.0000 0.0000 0.0000 0.0000 0.0000 23.4052
#
#
#
# Elastic Compliance Matrix: (Units=1/GPa)
#
#
# Indices 1 2 3 4 5 6 
#
# 1 0.023868 -0.005999 -0.012700 0.000000 0.000000 0.000000
# 2 -0.005999 0.020896 -0.006365 0.000000 0.000000 0.000000
# 3 -0.012700 -0.006365 0.021026 0.000000 0.000000 0.000000
# 4 0.000000 0.000000 0.000000 0.034284 0.000000 0.000000
# 5 0.000000 0.000000 0.000000 0.000000 0.235910 0.000000
# 6 0.000000 0.000000 0.000000 0.000000 0.000000 0.042726
#
#
# Mechanical properties :
#
#
# Convention : Reuss Voigt Hill
#
# Bulk Modulus (GPa) = 63.85120 67.31798 65.58459
# Shear Modulus (GPa) = 11.51917 18.34937 14.93427
#
# Velocity S-wave (km/s) = 2.57619 3.25146 2.93332
# Velocity P-wave (km/s) = 6.75551 7.27195 7.01848
#
# Compressibility (1/GPa) = 0.01566141
#
# Stress axis : x y z
#
# Youngs Moduli (GPa) = 41.89658 47.85515 47.56038
#
# Poissons Ratio (x) = 0.28706 0.60404
# Poissons Ratio (y) = 0.25132 0.30274
# Poissons Ratio (z) = 0.53211 0.30462
#
# Static dielectric constant tensor:
#      x y z
#    x 3.966420 0.000000 0.000000 
#    y 0.000000 3.178210 0.000000 
#    z 0.000000 0.000000 2.969510 
# 
# 
# High freq. dielectric constant tensor:
#      x y z
#    x 1.689210 0.000000 0.000000 
#    y 0.000000 1.678630 0.000000 
#    z 0.000000 0.000000 1.640850 
# 
# From -- ./inp_files/39726.got.cif
#   From: 2010.03.12/outbox.cif.g09.slc.cpg/sg74_20_cif.got.tgz:39726.got - 2010.04.16 15:46:19.
