data_PCOD8298171
_publ_section_title
;
Structure prediction by ZEFSAII (Michael W. Deem and Ramdas Pophale) SiO2 
 PCOD8298171
Probable space group: I M M A
;
_chemical_formula_sum "Si O2"
_cell_formula_units_Z 96
_cell_length_a 9.388754
_cell_length_b 30.616372
_cell_length_c 20.808128
_cell_angle_alpha 90.000000
_cell_angle_beta 90.000000
_cell_angle_gamma 90.000000
_cell_volume 5981.287760
_symmetry_space_group_name_H-M "I M M A"
_symmetry_group_IT_number 74
_symmetry_cell_setting 'orthorhombic'
loop_
_space_group_symop_operation_xyz
x,y,z
-x,1/2-y,z
x,-y,-z
-x,1/2+y,-z
-x,-y,-z
x,1/2+y,-z
-x,y,z
x,1/2-y,z
1/2+x,1/2+y,1/2+z
1/2-x,-y,1/2+z
1/2+x,1/2-y,1/2-z
1/2-x,y,1/2-z
1/2-x,1/2-y,1/2-z
1/2+x,y,1/2-z
1/2-x,1/2+y,1/2+z
1/2+x,-y,1/2+z
loop_
_atom_site_type_symbol
_atom_site_label
_atom_site_fract_x
_atom_site_fract_y
_atom_site_fract_z
Si Si1 0.659929 0.402695 0.159395
Si Si2 0.661542 0.879434 0.986089
Si Si3 0.834648 0.201411 0.048927
Si Si4 0.164912 0.497730 0.688674
Si Si5 0.832929 0.321902 0.191214
Si Si6 0.669745 0.965492 0.051959
O O1 0.500000 0.387034 0.178743
O O2 0.674676 0.402170 0.082818
O O3 0.690022 0.450770 0.184327
O O4 0.779535 0.371954 0.190315
O O5 0.500000 0.866315 0.001844
O O6 0.750989 0.834751 0.991913
O O7 0.718920 0.916012 0.035628
O O8 0.799680 0.250000 0.022604
O O9 0.791023 0.200633 0.124103
O O10 0.000000 0.190240 0.042041
O O11 0.250000 0.479041 0.750000
O O12 0.225818 0.476034 0.623465
O O13 0.000000 0.486032 0.697977
O O14 0.750000 0.297939 0.250000
O O15 0.000000 0.319620 0.204359
O O16 0.500000 0.969038 0.049707
O O17 0.732920 0.000000 0.000000
#
# Coordination Sequence:
#
# PCOD8298171 Si02
#       6
#    16  16  16  16  16  16
#     4   9  16  27  43  62  84 113 149 188 225 259
#     4   9  16  28  49  71  86 108 151 195 223 257
#     4   9  19  34  47  60  84 115 142 177 232 284
#     4  10  19  29  43  64  92 124 155 187 223 265
#     4  10  19  29  41  57  79 110 148 186 225 267
#     4   9  15  28  49  69  90 121 157 189 224 268
#
# _framework density 16.050056000000001
#
# number of rings (size 3 to 8) (size 9 to 14) (size 15 to 20)
#    0.000    2.667    1.667    1.000    0.000    3.333 
#    0.000    0.833    0.000    1.000    0.000    0.000 
#    0.000    0.667    0.000    1.500    0.000    2.667 
#
# Total GULP energy -594999.536504 kJ/mol
# GULP energy per Si atom -12395.823677 kJ/mol
# Density = 1.601353 g / cm^3
# Si number density = 16.050056 Si / 1000 Ang^3
#
#
#
# Elastic Constant Matrix: (Units=GPa)
#
#
# Indices 1 2 3 4 5 6 
#
# 1 50.5948 35.7190 26.3289 0.0001 0.0000 0.0000
# 2 35.7190 89.5450 44.3922 -0.0001 0.0000 0.0000
# 3 26.3289 44.3922 80.3500 0.0015 0.0002 0.0001
# 4 0.0001 -0.0001 0.0015 10.4221 0.0001 0.0000
# 5 0.0000 0.0000 0.0002 0.0001 20.1562 0.0001
# 6 0.0000 0.0000 0.0001 0.0000 0.0001 15.7847
#
#
#
# Elastic Compliance Matrix: (Units=1/GPa)
#
#
# Indices 1 2 3 4 5 6 
#
# 1 0.028512 -0.009285 -0.004213 0.000000 0.000000 0.000000
# 2 -0.009285 0.018404 -0.007125 0.000001 0.000000 0.000000
# 3 -0.004213 -0.007125 0.017763 -0.000003 0.000000 0.000000
# 4 0.000000 0.000001 -0.000003 0.095950 0.000000 0.000000
# 5 0.000000 0.000000 0.000000 0.000000 0.049613 0.000000
# 6 0.000000 0.000000 0.000000 0.000000 0.000000 0.063353
#
#
# Mechanical properties :
#
#
# Convention : Reuss Voigt Hill
#
# Bulk Modulus (GPa) = 42.67636 48.15222 45.41429
# Shear Modulus (GPa) = 15.49664 16.87591 16.18627
#
# Velocity S-wave (km/s) = 3.11065 3.24613 3.17911
# Velocity P-wave (km/s) = 6.28878 6.64201 6.46781
#
# Compressibility (1/GPa) = 0.02343218
#
# Stress axis : x y z
#
# Youngs Moduli (GPa) = 35.07275 54.33727 56.29762
#
# Poissons Ratio (x) = 0.50450 0.23719
# Poissons Ratio (y) = 0.32564 0.40114
# Poissons Ratio (z) = 0.14777 0.38717
#
# Static dielectric constant tensor:
#      x y z
#    x 2.886030 0.000000 0.000000 
#    y 0.000000 2.965890 0.000000 
#    z 0.000000 0.000000 3.004900 
# 
# 
# High freq. dielectric constant tensor:
#      x y z
#    x 1.600440 0.000000 0.000000 
#    y 0.000000 1.602630 0.000000 
#    z 0.000000 0.000000 1.589960 
# 
# From -- ./inp_files/57478.got.cif
#   From: 2010.03.12/outbox.cif.g09.slc.cpg/sg74_29_cif.got.tgz:57478.got - 2010.04.16 15:46:19.
