data_PCOD8298722
_publ_section_title
;
Structure prediction by ZEFSAII (Michael W. Deem and Ramdas Pophale) SiO2 
 PCOD8298722
Probable space group: I M M A
;
_chemical_formula_sum "Si O2"
_cell_formula_units_Z 104
_cell_length_a 19.586205
_cell_length_b 9.691005
_cell_length_c 29.138733
_cell_angle_alpha 90.000000
_cell_angle_beta 90.000000
_cell_angle_gamma 90.000000
_cell_volume 5530.823219
_symmetry_space_group_name_H-M "I M M A"
_symmetry_group_IT_number 74
_symmetry_cell_setting 'orthorhombic'
loop_
_space_group_symop_operation_xyz
x,y,z
-x,1/2-y,z
x,-y,-z
-x,1/2+y,-z
-x,-y,-z
x,1/2+y,-z
-x,y,z
x,1/2-y,z
1/2+x,1/2+y,1/2+z
1/2-x,-y,1/2+z
1/2+x,1/2-y,1/2-z
1/2-x,y,1/2-z
1/2-x,1/2-y,1/2-z
1/2+x,y,1/2-z
1/2-x,1/2+y,1/2+z
1/2+x,-y,1/2+z
loop_
_atom_site_type_symbol
_atom_site_label
_atom_site_fract_x
_atom_site_fract_y
_atom_site_fract_z
Si Si1 0.289060 0.403983 0.455419
Si Si2 0.421352 0.907780 0.292819
Si Si3 0.858427 0.030034 0.446710
Si Si4 0.666552 0.900780 0.142461
Si Si5 0.500000 0.895262 0.959719
Si Si6 0.579493 0.088870 0.205724
Si Si7 0.680589 0.408014 0.626859
O O1 0.295966 0.500000 0.500000
O O2 0.320817 0.250000 0.462662
O O3 0.209399 0.377094 0.442580
O O4 0.327826 0.484832 0.414930
O O5 0.500000 0.928323 0.306349
O O6 0.406868 0.750000 0.277298
O O7 0.377586 0.947545 0.337088
O O8 0.400020 0.010673 0.252276
O O9 0.930426 0.095910 0.429226
O O10 0.869378 0.000000 0.500000
O O11 0.845297 0.900482 0.412943
O O12 0.643599 0.750000 0.160800
O O13 0.746586 0.924566 0.152208
O O14 0.623760 0.023069 0.165142
O O15 0.500000 0.750000 0.985340
O O16 0.500000 0.000000 0.000000
O O17 0.500000 0.066462 0.194387
O O18 0.597581 0.250000 0.210685
O O19 0.672160 0.250000 0.609092
#
# Coordination Sequence:
#
# PCOD8298722 Si02
#       7
#    16  16  16  16   8  16  16
#     4  10  19  32  52  76 106 143 180 216 259 309
#     4   9  18  36  62  85 105 135 172 210 258 322
#     4   9  20  34  49  71  98 133 175 223 265 305
#     4  10  21  36  54  76 104 140 179 219 263 314
#     4  10  20  32  46  64  90 124 166 216 262 300
#     4  10  22  38  54  76 107 141 176 219 267 312
#     4   9  19  35  55  82 111 136 172 219 264 310
#
# _framework density 18.803711
#
# number of rings (size 3 to 8) (size 9 to 14) (size 15 to 20)
#    0.000    2.462    0.000    1.385    1.077   11.385 
#    0.000    3.077    0.000    0.462    0.000    0.000 
#    0.000    0.000    0.000    0.000    0.000    0.000 
#
# Total GULP energy -644215.443582 kJ/mol
# GULP energy per Si atom -12388.758530 kJ/mol
# Density = 1.876091 g / cm^3
# Si number density = 18.803711 Si / 1000 Ang^3
#
#
#
# Elastic Constant Matrix: (Units=GPa)
#
#
# Indices 1 2 3 4 5 6 
#
# 1 65.4812 36.4576 51.6314 0.0000 0.0000 0.0000
# 2 36.4576 145.0365 63.1695 0.0000 0.0000 0.0000
# 3 51.6314 63.1695 103.0621 0.0000 0.0000 0.0000
# 4 0.0000 0.0000 0.0000 31.4917 0.0000 0.0000
# 5 0.0000 0.0000 0.0000 0.0000 21.5641 0.0000
# 6 0.0000 0.0000 0.0000 0.0000 0.0000 18.4199
#
#
#
# Elastic Compliance Matrix: (Units=1/GPa)
#
#
# Indices 1 2 3 4 5 6 
#
# 1 0.025382 -0.001149 -0.012012 0.000000 0.000000 0.000000
# 2 -0.001149 0.009458 -0.005221 0.000000 0.000000 0.000000
# 3 -0.012012 -0.005221 0.018921 0.000000 0.000000 0.000000
# 4 0.000000 0.000000 0.000000 0.031754 0.000000 0.000000
# 5 0.000000 0.000000 0.000000 0.000000 0.046373 0.000000
# 6 0.000000 0.000000 0.000000 0.000000 0.000000 0.054289
#
#
# Mechanical properties :
#
#
# Convention : Reuss Voigt Hill
#
# Bulk Modulus (GPa) = 58.83378 68.45519 63.64448
# Shear Modulus (GPa) = 21.87155 25.11655 23.49405
#
# Velocity S-wave (km/s) = 3.41420 3.65872 3.53857
# Velocity P-wave (km/s) = 6.84826 7.37106 7.11446
#
# Compressibility (1/GPa) = 0.01699704
#
# Stress axis : x y z
#
# Youngs Moduli (GPa) = 39.39750 105.73390 52.85177
#
# Poissons Ratio (x) = 0.12145 0.63485
# Poissons Ratio (y) = 0.04525 0.27596
# Poissons Ratio (z) = 0.47324 0.55208
#
# Static dielectric constant tensor:
#      x y z
#    x 3.674490 0.000000 0.000000 
#    y 0.000000 3.458480 0.000000 
#    z 0.000000 0.000000 3.634290 
# 
# 
# High freq. dielectric constant tensor:
#      x y z
#    x 1.716520 0.000000 0.000000 
#    y 0.000000 1.731970 0.000000 
#    z 0.000000 0.000000 1.717540 
# 
# From -- ./inp_files/73415.got.cif
#   From: 2010.03.12/outbox.cif.g09.slc.cpg/sg74_37_cif.got.tgz:73415.got - 2010.04.16 15:46:19.
