data_PCOD8298977
_publ_section_title
;
Structure prediction by ZEFSAII (Michael W. Deem and Ramdas Pophale) SiO2 
 PCOD8298977
Probable space group: I M M A
;
_chemical_formula_sum "Si O2"
_cell_formula_units_Z 96
_cell_length_a 15.496820
_cell_length_b 15.036947
_cell_length_c 21.163177
_cell_angle_alpha 90.000000
_cell_angle_beta 90.000000
_cell_angle_gamma 90.000000
_cell_volume 4931.546379
_symmetry_space_group_name_H-M "I M M A"
_symmetry_group_IT_number 74
_symmetry_cell_setting 'orthorhombic'
loop_
_space_group_symop_operation_xyz
x,y,z
-x,1/2-y,z
x,-y,-z
-x,1/2+y,-z
-x,-y,-z
x,1/2+y,-z
-x,y,z
x,1/2-y,z
1/2+x,1/2+y,1/2+z
1/2-x,-y,1/2+z
1/2+x,1/2-y,1/2-z
1/2-x,y,1/2-z
1/2-x,1/2-y,1/2-z
1/2+x,y,1/2-z
1/2-x,1/2+y,1/2+z
1/2+x,-y,1/2+z
loop_
_atom_site_type_symbol
_atom_site_label
_atom_site_fract_x
_atom_site_fract_y
_atom_site_fract_z
Si Si1 0.264917 0.848683 0.632042
Si Si2 0.162762 0.503074 0.214072
Si Si3 0.901190 0.148499 0.881740
Si Si4 0.229543 0.605350 0.008523
Si Si5 0.093717 0.924124 0.448197
Si Si6 0.094836 0.055678 0.339605
O O1 0.284434 0.750000 0.658486
O O2 0.324016 0.919838 0.667479
O O3 0.287693 0.848708 0.558161
O O4 0.164220 0.868869 0.644234
O O5 0.250000 0.529959 0.250000
O O6 0.129683 0.587345 0.175622
O O7 0.094104 0.473068 0.266365
O O8 0.891790 0.250000 0.858942
O O9 0.845436 0.133771 0.944385
O O10 0.000000 0.125620 0.898928
O O11 0.323849 0.637733 0.034915
O O12 0.230587 0.500000 0.000000
O O13 0.000000 0.873405 0.445577
O O14 0.085668 0.000000 0.500000
O O15 0.115011 0.967989 0.380595
O O16 0.000000 0.093594 0.356387
#
# Coordination Sequence:
#
# PCOD8298977 Si02
#       6
#    16  16  16  16  16  16
#     4  11  22  36  56  83 116 154 197 242 286 342
#     4  10  21  39  60  83 115 155 198 241 295 350
#     4  11  24  41  62  90 120 152 197 250 301 355
#     4  11  18  37  62  87 114 157 195 240 297 352
#     4   9  16  30  58  88 113 147 190 235 290 347
#     4  10  19  33  55  84 115 149 191 236 285 347
#
# _framework density 19.466511000000001
#
# number of rings (size 3 to 8) (size 9 to 14) (size 15 to 20)
#    0.000    1.667    5.000    2.000    0.000    4.000 
#    0.000    0.000    0.000    4.000    0.000    2.333 
#    0.000    0.000    0.000    0.000    0.000    0.000 
#
# Total GULP energy -595018.325911 kJ/mol
# GULP energy per Si atom -12396.215123 kJ/mol
# Density = 1.942220 g / cm^3
# Si number density = 19.466511 Si / 1000 Ang^3
#
#
#
# Elastic Constant Matrix: (Units=GPa)
#
#
# Indices 1 2 3 4 5 6 
#
# 1 109.8840 39.9587 48.3673 0.0000 0.0000 0.0000
# 2 39.9587 90.8920 43.0969 0.0000 0.0000 0.0000
# 3 48.3673 43.0969 133.0702 0.0000 0.0000 0.0000
# 4 0.0000 0.0000 0.0000 10.3630 0.0000 0.0000
# 5 0.0000 0.0000 0.0000 0.0000 60.6577 0.0000
# 6 0.0000 0.0000 0.0000 0.0000 0.0000 15.3489
#
#
#
# Elastic Compliance Matrix: (Units=1/GPa)
#
#
# Indices 1 2 3 4 5 6 
#
# 1 0.011816 -0.003731 -0.003086 0.000000 0.000000 0.000000
# 2 -0.003731 0.014176 -0.003235 0.000000 0.000000 0.000000
# 3 -0.003086 -0.003235 0.009684 0.000000 0.000000 0.000000
# 4 0.000000 0.000000 0.000000 0.096497 0.000000 0.000000
# 5 0.000000 0.000000 0.000000 0.000000 0.016486 0.000000
# 6 0.000000 0.000000 0.000000 0.000000 0.000000 0.065151
#
#
# Mechanical properties :
#
#
# Convention : Reuss Voigt Hill
#
# Bulk Modulus (GPa) = 64.22032 66.29910 65.25971
# Shear Modulus (GPa) = 20.91119 30.76881 25.84000
#
# Velocity S-wave (km/s) = 3.28108 3.97999 3.64731
# Velocity P-wave (km/s) = 6.88591 7.43320 7.16478
#
# Compressibility (1/GPa) = 0.01557140
#
# Stress axis : x y z
#
# Youngs Moduli (GPa) = 84.63234 70.54025 103.25950
#
# Poissons Ratio (x) = 0.26320 0.31869
# Poissons Ratio (y) = 0.31578 0.33405
# Poissons Ratio (z) = 0.26120 0.22820
#
# Static dielectric constant tensor:
#      x y z
#    x 3.923330 0.000000 0.000000 
#    y 0.000000 3.250590 0.000000 
#    z 0.000000 0.000000 3.754480 
# 
# 
# High freq. dielectric constant tensor:
#      x y z
#    x 1.765470 0.000000 0.000000 
#    y 0.000000 1.723290 0.000000 
#    z 0.000000 0.000000 1.771570 
# 
# From -- ./inp_files/51846.got.cif
#   From: 2010.03.12/outbox.cif.g09.slc.cpg/sg74_26_cif.got.tgz:51846.got - 2010.04.16 15:46:19.
