data_PCOD8298014
_publ_section_title
;
Structure prediction by ZEFSAII (Michael W. Deem and Ramdas Pophale) SiO2 
 PCOD8298014
Probable space group: I M M A
;
_chemical_formula_sum "Si O2"
_cell_formula_units_Z 68
_cell_length_a 12.187225
_cell_length_b 14.119346
_cell_length_c 20.995462
_cell_angle_alpha 90.000000
_cell_angle_beta 90.000000
_cell_angle_gamma 90.000000
_cell_volume 3612.807698
_symmetry_space_group_name_H-M "I M M A"
_symmetry_group_IT_number 74
_symmetry_cell_setting 'orthorhombic'
loop_
_space_group_symop_operation_xyz
x,y,z
-x,1/2-y,z
x,-y,-z
-x,1/2+y,-z
-x,-y,-z
x,1/2+y,-z
-x,y,z
x,1/2-y,z
1/2+x,1/2+y,1/2+z
1/2-x,-y,1/2+z
1/2+x,1/2-y,1/2-z
1/2-x,y,1/2-z
1/2-x,1/2-y,1/2-z
1/2+x,y,1/2-z
1/2-x,1/2+y,1/2+z
1/2+x,-y,1/2+z
loop_
_atom_site_type_symbol
_atom_site_label
_atom_site_fract_x
_atom_site_fract_y
_atom_site_fract_z
Si Si1 0.878441 0.750000 0.619559
Si Si2 0.124226 0.545776 0.635832
Si Si3 0.000000 0.574275 0.280690
Si Si4 0.301778 0.064878 0.555948
Si Si5 0.000000 0.362623 0.863475
Si Si6 0.000000 0.250000 0.625705
Si Si7 0.684746 0.250000 0.978179
O O1 0.823492 0.848275 0.644992
O O2 0.883004 0.750000 0.543089
O O3 0.000000 0.750000 0.647894
O O4 0.199512 0.486736 0.588553
O O5 0.000000 0.554527 0.605239
O O6 0.108868 0.490177 0.703651
O O7 0.000000 0.614935 0.210866
O O8 0.000000 0.658640 0.330801
O O9 0.393265 0.088554 0.607815
O O10 0.262811 0.159764 0.522213
O O11 0.352327 0.000000 0.500000
O O12 0.000000 0.250000 0.874855
O O13 0.107933 0.250000 0.583127
#
# Coordination Sequence:
#
# PCOD8298014 Si02
#       7
#     8  16   8  16   8   4   8
#     4  10  18  32  62  94 132 157 187 243 321 390
#     4   9  20  37  61  96 122 157 195 250 317 363
#     4  10  22  39  60  89 132 157 205 243 305 372
#     4  12  24  40  62  89 125 159 207 255 303 360
#     4  12  27  45  60  83 120 178 215 246 290 358
#     4  12  20  32  54 104 128 156 188 246 320 384
#     4  12  20  32  61  95 128 156 193 252 317 370
#
# _framework density 18.821926000000001
#
# number of rings (size 3 to 8) (size 9 to 14) (size 15 to 20)
#    0.706    0.471    7.059    0.353    0.000    1.412 
#    0.000    2.353    0.000    7.059    0.000    0.000 
#    0.000    0.000    0.000    0.000    0.000    0.000 
#
# Total GULP energy -421277.481410 kJ/mol
# GULP energy per Si atom -12390.514159 kJ/mol
# Density = 1.877909 g / cm^3
# Si number density = 18.821926 Si / 1000 Ang^3
#
#
#
# Elastic Constant Matrix: (Units=GPa)
#
#
# Indices 1 2 3 4 5 6 
#
# 1 56.1264 32.5174 23.2645 0.0000 0.0000 0.0000
# 2 32.5174 153.3955 36.6390 0.0000 0.0000 0.0000
# 3 23.2645 36.6390 84.6675 0.0000 0.0000 0.0000
# 4 0.0000 0.0000 0.0000 4.5243 0.0000 0.0000
# 5 0.0000 0.0000 0.0000 0.0000 29.4280 0.0000
# 6 0.0000 0.0000 0.0000 0.0000 0.0000 -3.7370
#
#
#
# Elastic Compliance Matrix: (Units=1/GPa)
#
#
# Indices 1 2 3 4 5 6 
#
# 1 0.021706 -0.003543 -0.004431 0.000000 0.000000 0.000000
# 2 -0.003543 0.007849 -0.002423 0.000000 0.000000 0.000000
# 3 -0.004431 -0.002423 0.014077 0.000000 0.000000 0.000000
# 4 0.000000 0.000000 0.000000 0.221028 0.000000 0.000000
# 5 0.000000 0.000000 0.000000 0.000000 0.033981 0.000000
# 6 0.000000 0.000000 0.000000 0.000000 0.000000 -0.267595
#
#
# Mechanical properties :
#
#
# Convention : Reuss Voigt Hill
#
# Bulk Modulus (GPa) = 43.78683 53.22570 48.50626
# Shear Modulus (GPa) = 84.09865 19.49429 51.79647
#
# Velocity S-wave (km/s) = 6.69165 3.22176 5.25157
# Velocity P-wave (km/s) = 9.11145 6.49458 7.91196
#
# Compressibility (1/GPa) = 0.02283792
#
# Stress axis : x y z
#
# Youngs Moduli (GPa) = 46.06948 127.40640 71.03779
#
# Poissons Ratio (x) = 0.45140 0.31478
# Poissons Ratio (y) = 0.16322 0.17212
# Poissons Ratio (z) = 0.20414 0.30871
#
# Static dielectric constant tensor:
#      x y z
#    x 3.214490 0.000000 0.000000 
#    y 0.000000 4.132860 0.000000 
#    z 0.000000 0.000000 3.162460 
# 
# 
# High freq. dielectric constant tensor:
#      x y z
#    x 1.702950 0.000000 0.000000 
#    y 0.000000 1.764670 0.000000 
#    z 0.000000 0.000000 1.706690 
# 
# From -- ./inp_files/50260.got.cif
#   From: 2010.03.12/outbox.cif.g09.slc.cpg/sg74_26_cif.got.tgz:50260.got - 2010.04.16 15:46:19.
