data_PCOD8298807
_publ_section_title
;
Structure prediction by ZEFSAII (Michael W. Deem and Ramdas Pophale) SiO2 
 PCOD8298807
Probable space group: I M M A
;
_chemical_formula_sum "Si O2"
_cell_formula_units_Z 72
_cell_length_a 21.106283
_cell_length_b 9.179590
_cell_length_c 19.209801
_cell_angle_alpha 90.000000
_cell_angle_beta 90.000000
_cell_angle_gamma 90.000000
_cell_volume 3721.841782
_symmetry_space_group_name_H-M "I M M A"
_symmetry_group_IT_number 74
_symmetry_cell_setting 'orthorhombic'
loop_
_space_group_symop_operation_xyz
x,y,z
-x,1/2-y,z
x,-y,-z
-x,1/2+y,-z
-x,-y,-z
x,1/2+y,-z
-x,y,z
x,1/2-y,z
1/2+x,1/2+y,1/2+z
1/2-x,-y,1/2+z
1/2+x,1/2-y,1/2-z
1/2-x,y,1/2-z
1/2-x,1/2-y,1/2-z
1/2+x,y,1/2-z
1/2-x,1/2+y,1/2+z
1/2+x,-y,1/2+z
loop_
_atom_site_type_symbol
_atom_site_label
_atom_site_fract_x
_atom_site_fract_y
_atom_site_fract_z
Si Si1 0.372259 0.419839 0.176832
Si Si2 0.376117 0.080571 0.338794
Si Si3 0.500000 0.578144 0.574249
Si Si4 0.072212 0.090759 0.562082
Si Si5 0.251854 0.413824 0.667320
O O1 0.371559 0.250000 0.160601
O O2 0.387095 0.450395 0.257349
O O3 0.426732 0.500339 0.133863
O O4 0.307305 0.486964 0.145861
O O5 0.360862 0.250000 0.351242
O O6 0.437943 0.030980 0.381904
O O7 0.315868 0.986112 0.363211
O O8 0.500000 0.750000 0.561616
O O9 0.500000 0.500000 0.500000
O O10 0.105008 0.250000 0.570349
O O11 0.000000 0.115710 0.541272
O O12 0.106260 0.000000 0.500000
O O13 0.246701 0.250000 0.637161
O O14 0.250000 0.410337 0.750000
#
# Coordination Sequence:
#
# PCOD8298807 Si02
#       5
#    16  16   8  16  16
#     4  10  19  32  56  83 109 141 181 225 270 324
#     4   9  19  35  56  80 108 141 181 224 274 329
#     4  10  22  40  58  80 111 146 183 230 279 332
#     4  10  21  36  52  74 108 146 180 217 262 313
#     4   9  17  31  52  79 111 140 174 224 277 324
#
# _framework density 19.34526
#
# number of rings (size 3 to 8) (size 9 to 14) (size 15 to 20)
#    0.000    2.444    0.000    2.000    1.556    5.778 
#    0.000    1.111    0.000    2.667    0.000    0.000 
#    0.000    0.000    0.000    0.000    0.000    0.000 
#
# Total GULP energy -446240.824427 kJ/mol
# GULP energy per Si atom -12395.578456 kJ/mol
# Density = 1.930123 g / cm^3
# Si number density = 19.345260 Si / 1000 Ang^3
#
#
#
# Elastic Constant Matrix: (Units=GPa)
#
#
# Indices 1 2 3 4 5 6 
#
# 1 99.7532 45.4357 42.8704 0.0000 0.0000 0.0000
# 2 45.4357 133.5001 59.1238 0.0000 0.0000 0.0000
# 3 42.8704 59.1238 85.5182 0.0000 0.0000 0.0000
# 4 0.0000 0.0000 0.0000 29.9676 0.0000 0.0000
# 5 0.0000 0.0000 0.0000 0.0000 12.6469 0.0000
# 6 0.0000 0.0000 0.0000 0.0000 0.0000 30.2790
#
#
#
# Elastic Compliance Matrix: (Units=1/GPa)
#
#
# Indices 1 2 3 4 5 6 
#
# 1 0.013233 -0.002257 -0.005073 0.000000 0.000000 0.000000
# 2 -0.002257 0.011181 -0.006599 0.000000 0.000000 0.000000
# 3 -0.005073 -0.006599 0.018799 0.000000 0.000000 0.000000
# 4 0.000000 0.000000 0.000000 0.033369 0.000000 0.000000
# 5 0.000000 0.000000 0.000000 0.000000 0.079071 0.000000
# 6 0.000000 0.000000 0.000000 0.000000 0.000000 0.033026
#
#
# Mechanical properties :
#
#
# Convention : Reuss Voigt Hill
#
# Bulk Modulus (GPa) = 65.12598 68.18125 66.65361
# Shear Modulus (GPa) = 22.55745 26.00147 24.27946
#
# Velocity S-wave (km/s) = 3.41845 3.67014 3.54653
# Velocity P-wave (km/s) = 7.02276 7.29937 7.16240
#
# Compressibility (1/GPa) = 0.01535485
#
# Stress axis : x y z
#
# Youngs Moduli (GPa) = 75.56808 89.43580 53.19454
#
# Poissons Ratio (x) = 0.20185 0.26988
# Poissons Ratio (y) = 0.17055 0.35102
# Poissons Ratio (z) = 0.38339 0.59017
#
# Static dielectric constant tensor:
#      x y z
#    x 3.522530 0.000000 0.000000 
#    y 0.000000 3.828700 0.000000 
#    z 0.000000 0.000000 3.270790 
# 
# 
# High freq. dielectric constant tensor:
#      x y z
#    x 1.744910 0.000000 0.000000 
#    y 0.000000 1.766750 0.000000 
#    z 0.000000 0.000000 1.727100 
# 
# From -- ./inp_files/45802.got.cif
#   From: 2010.03.12/outbox.cif.g09.slc.cpg/sg74_23_cif.got.tgz:45802.got - 2010.04.16 15:46:19.
