data_PCOD8298523
_publ_section_title
;
Structure prediction by ZEFSAII (Michael W. Deem and Ramdas Pophale) SiO2 
 PCOD8298523
Probable space group: I M M A
;
_chemical_formula_sum "Si O2"
_cell_formula_units_Z 104
_cell_length_a 26.620490
_cell_length_b 8.737433
_cell_length_c 22.464587
_cell_angle_alpha 90.000000
_cell_angle_beta 90.000000
_cell_angle_gamma 90.000000
_cell_volume 5225.144948
_symmetry_space_group_name_H-M "I M M A"
_symmetry_group_IT_number 74
_symmetry_cell_setting 'orthorhombic'
loop_
_space_group_symop_operation_xyz
x,y,z
-x,1/2-y,z
x,-y,-z
-x,1/2+y,-z
-x,-y,-z
x,1/2+y,-z
-x,y,z
x,1/2-y,z
1/2+x,1/2+y,1/2+z
1/2-x,-y,1/2+z
1/2+x,1/2-y,1/2-z
1/2-x,y,1/2-z
1/2-x,1/2-y,1/2-z
1/2+x,y,1/2-z
1/2-x,1/2+y,1/2+z
1/2+x,-y,1/2+z
loop_
_atom_site_type_symbol
_atom_site_label
_atom_site_fract_x
_atom_site_fract_y
_atom_site_fract_z
Si Si1 0.297491 0.431780 0.672222
Si Si2 0.648969 0.070373 0.440691
Si Si3 0.442676 0.418624 0.270671
Si Si4 0.186127 0.569408 0.303794
Si Si5 0.000000 0.568529 0.565501
Si Si6 0.418339 0.430205 0.849996
Si Si7 0.558028 0.929437 0.389696
O O1 0.302380 0.250000 0.664303
O O2 0.322666 0.515604 0.617691
O O3 0.239217 0.486506 0.670778
O O4 0.321834 0.487893 0.735317
O O5 0.651153 0.250000 0.445094
O O6 0.674476 0.000000 0.500000
O O7 0.591154 0.012664 0.439663
O O8 0.500000 0.390622 0.286676
O O9 0.417208 0.250000 0.261436
O O10 0.440870 0.525723 0.213324
O O11 0.419842 0.509274 0.326703
O O12 0.186994 0.750000 0.299568
O O13 0.140448 0.517336 0.347332
O O14 0.000000 0.500000 0.500000
O O15 0.050986 0.516113 0.598515
O O16 0.000000 0.750000 0.562326
O O17 0.424394 0.250000 0.860831
O O18 0.500000 0.969800 0.400961
O O19 0.567861 0.750000 0.391507
#
# Coordination Sequence:
#
# PCOD8298523 Si02
#       7
#    16  16  16  16   8  16  16
#     4   9  17  37  63  89 120 153 190 236 287 345
#     4  12  25  40  58  81 111 152 197 238 286 341
#     4  10  19  31  50  81 119 153 187 230 279 329
#     4   8  17  33  61  94 121 149 185 233 293 351
#     4  12  26  44  60  80 112 156 203 252 305 364
#     4  11  20  34  58  88 118 154 195 236 289 355
#     4  10  21  37  57  82 113 150 193 238 286 337
#
# _framework density 19.903753999999999
#
# number of rings (size 3 to 8) (size 9 to 14) (size 15 to 20)
#    0.000    1.846    0.769    5.308    0.000    3.077 
#    0.000    4.615    0.000    0.000    0.000    0.000 
#    0.000    0.000    0.000    0.000    0.000    0.000 
#
# Total GULP energy -644534.780358 kJ/mol
# GULP energy per Si atom -12394.899622 kJ/mol
# Density = 1.985845 g / cm^3
# Si number density = 19.903754 Si / 1000 Ang^3
#
#
#
# Elastic Constant Matrix: (Units=GPa)
#
#
# Indices 1 2 3 4 5 6 
#
# 1 103.6044 46.2158 62.6692 0.0000 0.0000 0.0000
# 2 46.2158 116.1471 49.4212 0.0000 0.0000 0.0000
# 3 62.6692 49.4212 124.9014 0.0000 0.0000 0.0000
# 4 0.0000 0.0000 0.0000 32.6028 0.0000 0.0000
# 5 0.0000 0.0000 0.0000 0.0000 21.9038 0.0000
# 6 0.0000 0.0000 0.0000 0.0000 0.0000 20.1965
#
#
#
# Elastic Compliance Matrix: (Units=1/GPa)
#
#
# Indices 1 2 3 4 5 6 
#
# 1 0.014834 -0.003289 -0.006142 0.000000 0.000000 0.000000
# 2 -0.003289 0.011082 -0.002735 0.000000 0.000000 0.000000
# 3 -0.006142 -0.002735 0.012170 0.000000 0.000000 0.000000
# 4 0.000000 0.000000 0.000000 0.030672 0.000000 0.000000
# 5 0.000000 0.000000 0.000000 0.000000 0.045654 0.000000
# 6 0.000000 0.000000 0.000000 0.000000 0.000000 0.049514
#
#
# Mechanical properties :
#
#
# Convention : Reuss Voigt Hill
#
# Bulk Modulus (GPa) = 72.69904 73.47391 73.08648
# Shear Modulus (GPa) = 25.92785 27.36374 26.64579
#
# Velocity S-wave (km/s) = 3.61316 3.71186 3.66284
# Velocity P-wave (km/s) = 7.34923 7.44078 7.39515
#
# Compressibility (1/GPa) = 0.01375534
#
# Stress axis : x y z
#
# Youngs Moduli (GPa) = 67.41063 90.23451 82.17016
#
# Poissons Ratio (x) = 0.29682 0.50466
# Poissons Ratio (y) = 0.22174 0.22470
# Poissons Ratio (z) = 0.41401 0.24675
#
# Static dielectric constant tensor:
#      x y z
#    x 4.195500 0.000000 0.000000 
#    y 0.000000 3.604700 0.000000 
#    z 0.000000 0.000000 3.616270 
# 
# 
# High freq. dielectric constant tensor:
#      x y z
#    x 1.779550 0.000000 0.000000 
#    y 0.000000 1.771260 0.000000 
#    z 0.000000 0.000000 1.763210 
# 
# From -- ./inp_files/55253.got.cif
#   From: 2010.03.12/outbox.cif.g09.slc.cpg/sg74_28_cif.got.tgz:55253.got - 2010.04.16 15:46:19.
