data_PCOD8298049
_publ_section_title
;
Structure prediction by ZEFSAII (Michael W. Deem and Ramdas Pophale) SiO2 
 PCOD8298049
Probable space group: I M M A
;
_chemical_formula_sum "Si O2"
_cell_formula_units_Z 112
_cell_length_a 19.322012
_cell_length_b 17.548618
_cell_length_c 17.626734
_cell_angle_alpha 90.000000
_cell_angle_beta 90.000000
_cell_angle_gamma 90.000000
_cell_volume 5976.777914
_symmetry_space_group_name_H-M "I M M A"
_symmetry_group_IT_number 74
_symmetry_cell_setting 'orthorhombic'
loop_
_space_group_symop_operation_xyz
x,y,z
-x,1/2-y,z
x,-y,-z
-x,1/2+y,-z
-x,-y,-z
x,1/2+y,-z
-x,y,z
x,1/2-y,z
1/2+x,1/2+y,1/2+z
1/2-x,-y,1/2+z
1/2+x,1/2-y,1/2-z
1/2-x,y,1/2-z
1/2-x,1/2-y,1/2-z
1/2+x,y,1/2-z
1/2-x,1/2+y,1/2+z
1/2+x,-y,1/2+z
loop_
_atom_site_type_symbol
_atom_site_label
_atom_site_fract_x
_atom_site_fract_y
_atom_site_fract_z
Si Si1 0.327686 0.915721 0.724954
Si Si2 0.303174 0.160502 0.847993
Si Si3 0.079510 0.662118 0.068540
Si Si4 0.659184 0.406937 0.699270
Si Si5 0.822348 0.340218 0.067461
Si Si6 0.825639 0.339883 0.485872
Si Si7 0.579908 0.839950 0.851553
O O1 0.250000 0.894467 0.750000
O O2 0.346251 0.877814 0.645281
O O3 0.381584 0.883395 0.785015
O O4 0.338768 0.005012 0.718810
O O5 0.287622 0.250000 0.847910
O O6 0.352954 0.138427 0.778257
O O7 0.230586 0.117418 0.840012
O O8 0.338246 0.133705 0.927152
O O9 0.096344 0.750000 0.087122
O O10 0.096823 0.612376 0.142714
O O11 0.000000 0.649658 0.047209
O O12 0.124108 0.633925 0.997210
O O13 0.822483 0.250000 0.078331
O O14 0.746930 0.372777 0.045127
O O15 0.819671 0.250000 0.484199
O O16 0.888258 0.367166 0.432309
O O17 0.500000 0.863437 0.851325
O O18 0.590112 0.750000 0.839804
#
# Coordination Sequence:
#
# PCOD8298049 Si02
#       7
#    16  16  16  16  16  16  16
#     4  12  23  36  56  87 121 156 196 237 284 344
#     4  10  18  33  59  86 112 145 194 246 284 332
#     4  10  21  39  61  85 117 154 193 239 293 349
#     4  11  21  35  53  87 119 154 189 234 286 340
#     4  10  20  35  57  82 108 145 199 247 284 335
#     4   9  17  32  58  85 107 140 191 249 291 328
#     4  10  22  40  61  85 116 154 194 241 296 346
#
# _framework density 18.739194000000001
#
# number of rings (size 3 to 8) (size 9 to 14) (size 15 to 20)
#    0.000    1.714    4.286    2.143    0.000    2.286 
#    0.000    5.000    0.000    3.429    0.000    0.000 
#    0.000    0.000    0.000    0.000    0.000    0.000 
#
# Total GULP energy -694459.625524 kJ/mol
# GULP energy per Si atom -12401.064741 kJ/mol
# Density = 1.869654 g / cm^3
# Si number density = 18.739194 Si / 1000 Ang^3
#
#
#
# Elastic Constant Matrix: (Units=GPa)
#
#
# Indices 1 2 3 4 5 6 
#
# 1 126.6979 44.0937 79.3285 0.0000 0.0000 0.0000
# 2 44.0937 51.7212 47.5202 0.0000 0.0000 0.0000
# 3 79.3285 47.5202 183.8744 0.0000 0.0000 0.0000
# 4 0.0000 0.0000 0.0000 7.4313 0.0000 0.0000
# 5 0.0000 0.0000 0.0000 0.0000 30.4966 0.0000
# 6 0.0000 0.0000 0.0000 0.0000 0.0000 23.9562
#
#
#
# Elastic Compliance Matrix: (Units=1/GPa)
#
#
# Indices 1 2 3 4 5 6 
#
# 1 0.012761 -0.007634 -0.003533 0.000000 0.000000 0.000000
# 2 -0.007634 0.029921 -0.004439 0.000000 0.000000 0.000000
# 3 -0.003533 -0.004439 0.008110 0.000000 0.000000 0.000000
# 4 0.000000 0.000000 0.000000 0.134565 0.000000 0.000000
# 5 0.000000 0.000000 0.000000 0.000000 0.032791 0.000000
# 6 0.000000 0.000000 0.000000 0.000000 0.000000 0.041743
#
#
# Mechanical properties :
#
#
# Convention : Reuss Voigt Hill
#
# Bulk Modulus (GPa) = 51.07034 78.24204 64.65619
# Shear Modulus (GPa) = 16.79938 25.13356 20.96647
#
# Velocity S-wave (km/s) = 2.99738 3.66625 3.34856
# Velocity P-wave (km/s) = 6.26829 7.73083 7.03765
#
# Compressibility (1/GPa) = 0.01958084
#
# Stress axis : x y z
#
# Youngs Moduli (GPa) = 78.36113 33.42122 123.30497
#
# Poissons Ratio (x) = 0.25512 0.43561
# Poissons Ratio (y) = 0.59818 0.54740
# Poissons Ratio (z) = 0.27684 0.14837
#
# Static dielectric constant tensor:
#      x y z
#    x 3.354820 0.000000 0.000000 
#    y 0.000000 3.294150 0.000000 
#    z 0.000000 0.000000 3.816110 
# 
# 
# High freq. dielectric constant tensor:
#      x y z
#    x 1.708070 0.000000 0.000000 
#    y 0.000000 1.709670 0.000000 
#    z 0.000000 0.000000 1.748050 
# 
# From -- ./inp_files/45471.got.cif
#   From: 2010.03.12/outbox.cif.g09.slc.cpg/sg74_23_cif.got.tgz:45471.got - 2010.04.16 15:46:19.
