data_PCOD8298908
_publ_section_title
;
Structure prediction by ZEFSAII (Michael W. Deem and Ramdas Pophale) SiO2 
 PCOD8298908
Probable space group: I M M A
;
_chemical_formula_sum "Si O2"
_cell_formula_units_Z 80
_cell_length_a 18.445602
_cell_length_b 8.720766
_cell_length_c 25.623471
_cell_angle_alpha 90.000000
_cell_angle_beta 90.000000
_cell_angle_gamma 90.000000
_cell_volume 4121.785876
_symmetry_space_group_name_H-M "I M M A"
_symmetry_group_IT_number 74
_symmetry_cell_setting 'orthorhombic'
loop_
_space_group_symop_operation_xyz
x,y,z
-x,1/2-y,z
x,-y,-z
-x,1/2+y,-z
-x,-y,-z
x,1/2+y,-z
-x,y,z
x,1/2-y,z
1/2+x,1/2+y,1/2+z
1/2-x,-y,1/2+z
1/2+x,1/2-y,1/2-z
1/2-x,y,1/2-z
1/2-x,1/2-y,1/2-z
1/2+x,y,1/2-z
1/2-x,1/2+y,1/2+z
1/2+x,-y,1/2+z
loop_
_atom_site_type_symbol
_atom_site_label
_atom_site_fract_x
_atom_site_fract_y
_atom_site_fract_z
Si Si1 0.081541 0.567453 0.151534
Si Si2 0.917085 0.072051 0.343894
Si Si3 0.676389 0.068059 0.554956
Si Si4 0.169185 0.070888 0.446240
Si Si5 0.831348 0.068683 0.749289
O O1 0.080380 0.750000 0.153591
O O2 0.120890 0.510484 0.099091
O O3 0.124148 0.500755 0.201653
O O4 0.000000 0.501314 0.152202
O O5 0.908379 0.250000 0.329959
O O6 0.890220 0.037864 0.402268
O O7 0.000000 0.018315 0.339944
O O8 0.869810 0.974621 0.304217
O O9 0.678607 0.250000 0.551219
O O10 0.649729 0.000000 0.500000
O O11 0.755757 0.008322 0.570118
O O12 0.183892 0.250000 0.454309
O O13 0.139067 0.000000 0.500000
O O14 0.828120 0.250000 0.753713
O O15 0.750000 0.000183 0.750000
#
# Coordination Sequence:
#
# PCOD8298908 Si02
#       5
#    16  16  16  16  16
#     4   9  18  32  50  74 105 138 171 212 260 305
#     4  10  22  38  54  77 110 142 172 213 266 316
#     4  10  19  33  54  77 103 135 173 215 257 305
#     4  10  20  35  55  77 104 137 173 214 258 306
#     4  10  20  35  57  82 105 135 179 222 259 309
#
# _framework density 19.409063
#
# number of rings (size 3 to 8) (size 9 to 14) (size 15 to 20)
#    0.000    2.200    0.000    4.200    0.000    5.600 
#    0.000    2.000    0.000    4.200    0.000    0.000 
#    0.000    0.000    0.000    0.000    0.000    0.000 
#
# Total GULP energy -496089.415834 kJ/mol
# GULP energy per Si atom -12402.235396 kJ/mol
# Density = 1.936489 g / cm^3
# Si number density = 19.409063 Si / 1000 Ang^3
#
#
#
# Elastic Constant Matrix: (Units=GPa)
#
#
# Indices 1 2 3 4 5 6 
#
# 1 148.4676 23.5261 76.0483 0.0000 0.0000 0.0000
# 2 23.5261 46.3359 27.9791 0.0000 0.0000 0.0000
# 3 76.0483 27.9791 126.3310 0.0000 0.0000 0.0000
# 4 0.0000 0.0000 0.0000 23.9415 0.0000 0.0000
# 5 0.0000 0.0000 0.0000 0.0000 36.2715 0.0000
# 6 0.0000 0.0000 0.0000 0.0000 0.0000 11.0831
#
#
#
# Elastic Compliance Matrix: (Units=1/GPa)
#
#
# Indices 1 2 3 4 5 6 
#
# 1 0.009845 -0.001639 -0.005563 0.000000 0.000000 0.000000
# 2 -0.001639 0.025186 -0.004591 0.000000 0.000000 0.000000
# 3 -0.005563 -0.004591 0.012282 0.000000 0.000000 0.000000
# 4 0.000000 0.000000 0.000000 0.041768 0.000000 0.000000
# 5 0.000000 0.000000 0.000000 0.000000 0.027570 0.000000
# 6 0.000000 0.000000 0.000000 0.000000 0.000000 0.090227
#
#
# Mechanical properties :
#
#
# Convention : Reuss Voigt Hill
#
# Bulk Modulus (GPa) = 42.14982 64.02684 53.08833
# Shear Modulus (GPa) = 20.97542 27.16462 24.07002
#
# Velocity S-wave (km/s) = 3.29097 3.74516 3.52539
# Velocity P-wave (km/s) = 6.01701 7.19454 6.63196
#
# Compressibility (1/GPa) = 0.02372490
#
# Stress axis : x y z
#
# Youngs Moduli (GPa) = 101.57547 39.70422 81.42270
#
# Poissons Ratio (x) = 0.06508 0.45298
# Poissons Ratio (y) = 0.16650 0.37384
# Poissons Ratio (z) = 0.56510 0.18230
#
# Static dielectric constant tensor:
#      x y z
#    x 3.703390 0.000000 0.000000 
#    y 0.000000 3.325020 0.000000 
#    z 0.000000 0.000000 3.677570 
# 
# 
# High freq. dielectric constant tensor:
#      x y z
#    x 1.760930 0.000000 0.000000 
#    y 0.000000 1.733810 0.000000 
#    z 0.000000 0.000000 1.770500 
# 
# From -- ./inp_files/63906.got.cif
#   From: 2010.03.12/outbox.cif.g09.slc.cpg/sg74_32_cif.got.tgz:63906.got - 2010.04.16 15:46:19.
