data_PCOD8298943
_publ_section_title
;
Structure prediction by ZEFSAII (Michael W. Deem and Ramdas Pophale) SiO2 
 PCOD8298943
Probable space group: I M M A
;
_chemical_formula_sum "Si O2"
_cell_formula_units_Z 96
_cell_length_a 8.627836
_cell_length_b 23.705572
_cell_length_c 23.737993
_cell_angle_alpha 90.000000
_cell_angle_beta 90.000000
_cell_angle_gamma 90.000000
_cell_volume 4855.079188
_symmetry_space_group_name_H-M "I M M A"
_symmetry_group_IT_number 74
_symmetry_cell_setting 'orthorhombic'
loop_
_space_group_symop_operation_xyz
x,y,z
-x,1/2-y,z
x,-y,-z
-x,1/2+y,-z
-x,-y,-z
x,1/2+y,-z
-x,y,z
x,1/2-y,z
1/2+x,1/2+y,1/2+z
1/2-x,-y,1/2+z
1/2+x,1/2-y,1/2-z
1/2-x,y,1/2-z
1/2-x,1/2-y,1/2-z
1/2+x,y,1/2-z
1/2-x,1/2+y,1/2+z
1/2+x,-y,1/2+z
loop_
_atom_site_type_symbol
_atom_site_label
_atom_site_fract_x
_atom_site_fract_y
_atom_site_fract_z
Si Si1 0.683703 0.431674 0.187761
Si Si2 0.326501 0.316905 0.806575
Si Si3 0.182249 0.916785 0.482304
Si Si4 0.817700 0.518828 0.917927
Si Si5 0.181710 0.314823 0.923504
Si Si6 0.818112 0.309224 0.311328
O O1 0.500000 0.440798 0.188852
O O2 0.750000 0.440874 0.250000
O O3 0.763654 0.476495 0.146625
O O4 0.731783 0.369379 0.162332
O O5 0.500000 0.341259 0.812795
O O6 0.330843 0.250000 0.801435
O O7 0.250000 0.342622 0.750000
O O8 0.227435 0.335198 0.860809
O O9 0.231291 0.933153 0.545508
O O10 0.229006 0.852282 0.469654
O O11 0.000000 0.925222 0.475326
O O12 0.271864 0.956774 0.438595
O O13 0.000000 0.527204 0.923946
O O14 0.232260 0.250000 0.933234
O O15 0.000000 0.322764 0.931328
O O16 0.768590 0.250000 0.343486
O O17 0.750000 0.306526 0.250000
O O18 0.000000 0.310469 0.304618
#
# Coordination Sequence:
#
# PCOD8298943 Si02
#       6
#    16  16  16  16  16  16
#     4  10  19  33  54  82 114 147 184 228 279 331
#     4   9  16  27  45  71 104 143 184 222 264 318
#     4  11  22  39  62  85 109 141 184 230 275 326
#     4  11  22  39  61  83 109 144 186 229 275 328
#     4  10  20  35  56  83 115 148 182 224 275 329
#     4   8  14  25  43  68 100 138 177 215 257 310
#
# _framework density 19.773105999999999
#
# number of rings (size 3 to 8) (size 9 to 14) (size 15 to 20)
#    0.000    2.167    0.000    5.500    0.000    3.667 
#    0.000    1.667    0.000    3.000    0.000    0.000 
#    0.000    0.000    0.000    0.000    0.000    0.000 
#
# Total GULP energy -594845.805927 kJ/mol
# GULP energy per Si atom -12392.620957 kJ/mol
# Density = 1.972810 g / cm^3
# Si number density = 19.773106 Si / 1000 Ang^3
#
#
#
# Elastic Constant Matrix: (Units=GPa)
#
#
# Indices 1 2 3 4 5 6 
#
# 1 86.5949 24.7857 28.2911 0.0000 0.0000 0.0000
# 2 24.7857 64.5724 40.9395 0.0000 0.0000 0.0000
# 3 28.2911 40.9395 83.9097 0.0000 0.0000 0.0000
# 4 0.0000 0.0000 0.0000 22.2104 0.0000 0.0000
# 5 0.0000 0.0000 0.0000 0.0000 32.3387 0.0000
# 6 0.0000 0.0000 0.0000 0.0000 0.0000 25.9786
#
#
#
# Elastic Compliance Matrix: (Units=1/GPa)
#
#
# Indices 1 2 3 4 5 6 
#
# 1 0.013450 -0.003312 -0.002919 0.000000 0.000000 0.000000
# 2 -0.003312 0.023238 -0.010221 0.000000 0.000000 0.000000
# 3 -0.002919 -0.010221 0.017889 0.000000 0.000000 0.000000
# 4 0.000000 0.000000 0.000000 0.045024 0.000000 0.000000
# 5 0.000000 0.000000 0.000000 0.000000 0.030923 0.000000
# 6 0.000000 0.000000 0.000000 0.000000 0.000000 0.038493
#
#
# Mechanical properties :
#
#
# Convention : Reuss Voigt Hill
#
# Bulk Modulus (GPa) = 46.14169 47.01218 46.57693
# Shear Modulus (GPa) = 23.90696 25.50959 24.70828
#
# Velocity S-wave (km/s) = 3.48093 3.59571 3.53879
# Velocity P-wave (km/s) = 6.28825 6.40830 6.34856
#
# Compressibility (1/GPa) = 0.02167237
#
# Stress axis : x y z
#
# Youngs Moduli (GPa) = 74.35180 43.03278 55.90160
#
# Poissons Ratio (x) = 0.14253 0.16316
# Poissons Ratio (y) = 0.24625 0.57138
# Poissons Ratio (z) = 0.21701 0.43985
#
# Static dielectric constant tensor:
#      x y z
#    x 3.564440 0.000000 0.000000 
#    y 0.000000 3.844460 0.000000 
#    z 0.000000 0.000000 3.435580 
# 
# 
# High freq. dielectric constant tensor:
#      x y z
#    x 1.783560 0.000000 0.000000 
#    y 0.000000 1.760960 0.000000 
#    z 0.000000 0.000000 1.747520 
# 
# From -- ./inp_files/57297.got.cif
#   From: 2010.03.12/outbox.cif.g09.slc.cpg/sg74_29_cif.got.tgz:57297.got - 2010.04.16 15:46:19.
