data_PCOD8298336
_publ_section_title
;
Structure prediction by ZEFSAII (Michael W. Deem and Ramdas Pophale) SiO2 
 PCOD8298336
Probable space group: I M M A
;
_chemical_formula_sum "Si O2"
_cell_formula_units_Z 56
_cell_length_a 12.388390
_cell_length_b 8.786302
_cell_length_c 26.586011
_cell_angle_alpha 90.000000
_cell_angle_beta 90.000000
_cell_angle_gamma 90.000000
_cell_volume 2893.837737
_symmetry_space_group_name_H-M "I M M A"
_symmetry_group_IT_number 74
_symmetry_cell_setting 'orthorhombic'
loop_
_space_group_symop_operation_xyz
x,y,z
-x,1/2-y,z
x,-y,-z
-x,1/2+y,-z
-x,-y,-z
x,1/2+y,-z
-x,y,z
x,1/2-y,z
1/2+x,1/2+y,1/2+z
1/2-x,-y,1/2+z
1/2+x,1/2-y,1/2-z
1/2-x,y,1/2-z
1/2-x,1/2-y,1/2-z
1/2+x,y,1/2-z
1/2-x,1/2+y,1/2+z
1/2+x,-y,1/2+z
loop_
_atom_site_type_symbol
_atom_site_label
_atom_site_fract_x
_atom_site_fract_y
_atom_site_fract_z
Si Si1 0.123614 0.581054 0.726581
Si Si2 0.168729 0.575633 0.375094
Si Si3 0.121538 0.926286 0.173475
Si Si4 0.000000 0.071676 0.445591
O O1 0.168599 0.750000 0.713089
O O2 0.128219 0.465824 0.680276
O O3 0.176216 0.517958 0.779178
O O4 0.000000 0.592245 0.742586
O O5 0.139387 0.750000 0.386505
O O6 0.299189 0.548177 0.374654
O O7 0.109115 0.474766 0.416585
O O8 0.121133 0.750000 0.189378
O O9 0.000000 0.979280 0.159116
O O10 0.000000 0.250000 0.451428
O O11 0.000000 0.000000 0.500000
#
# Coordination Sequence:
#
# PCOD8298336 Si02
#       4
#    16  16  16   8
#     4  10  19  30  47  76 114 154 192 231 273 324
#     4  11  21  35  57  81 109 147 187 230 280 333
#     4   9  19  34  52  78 114 154 191 225 267 326
#     4  12  26  44  64  86 110 138 180 236 291 340
#
# _framework density 19.351465000000001
#
# number of rings (size 3 to 8) (size 9 to 14) (size 15 to 20)
#    0.000    1.714    1.429    3.857    0.000    6.857 
#    0.000    0.000    0.000    0.857    0.000    0.000 
#    0.000    0.000    0.000    0.000    0.000    0.000 
#
# Total GULP energy -347064.734636 kJ/mol
# GULP energy per Si atom -12395.169094 kJ/mol
# Density = 1.930742 g / cm^3
# Si number density = 19.351465 Si / 1000 Ang^3
#
#
#
# Elastic Constant Matrix: (Units=GPa)
#
#
# Indices 1 2 3 4 5 6 
#
# 1 105.5190 38.0074 58.1343 0.0000 0.0000 0.0000
# 2 38.0074 111.4864 42.6247 0.0000 0.0000 0.0000
# 3 58.1343 42.6247 106.3724 0.0000 0.0000 0.0000
# 4 0.0000 0.0000 0.0000 29.7083 0.0000 0.0000
# 5 0.0000 0.0000 0.0000 0.0000 20.6122 0.0000
# 6 0.0000 0.0000 0.0000 0.0000 0.0000 22.3431
#
#
#
# Elastic Compliance Matrix: (Units=1/GPa)
#
#
# Indices 1 2 3 4 5 6 
#
# 1 0.013995 -0.002181 -0.006774 0.000000 0.000000 0.000000
# 2 -0.002181 0.010932 -0.003189 0.000000 0.000000 0.000000
# 3 -0.006774 -0.003189 0.014381 0.000000 0.000000 0.000000
# 4 0.000000 0.000000 0.000000 0.033661 0.000000 0.000000
# 5 0.000000 0.000000 0.000000 0.000000 0.048515 0.000000
# 6 0.000000 0.000000 0.000000 0.000000 0.000000 0.044757
#
#
# Mechanical properties :
#
#
# Convention : Reuss Voigt Hill
#
# Bulk Modulus (GPa) = 66.57860 66.76783 66.67322
# Shear Modulus (GPa) = 25.57078 26.84015 26.20546
#
# Velocity S-wave (km/s) = 3.63903 3.72826 3.68392
# Velocity P-wave (km/s) = 7.22055 7.28772 7.25421
#
# Compressibility (1/GPa) = 0.01501984
#
# Stress axis : x y z
#
# Youngs Moduli (GPa) = 71.45493 91.47123 69.53579
#
# Poissons Ratio (x) = 0.19949 0.47107
# Poissons Ratio (y) = 0.15584 0.22174
# Poissons Ratio (z) = 0.48407 0.29168
#
# Static dielectric constant tensor:
#      x y z
#    x 4.268830 0.000000 0.000000 
#    y 0.000000 3.707260 0.000000 
#    z 0.000000 0.000000 3.128870 
# 
# 
# High freq. dielectric constant tensor:
#      x y z
#    x 1.787590 0.000000 0.000000 
#    y 0.000000 1.763040 0.000000 
#    z 0.000000 0.000000 1.695160 
# 
# From -- ./inp_files/47825.got.cif
#   From: 2010.03.12/outbox.cif.g09.slc.cpg/sg74_24_cif.got.tgz:47825.got - 2010.04.16 15:46:19.
