data_PCOD8298190
_publ_section_title
;
Structure prediction by ZEFSAII (Michael W. Deem and Ramdas Pophale) SiO2 
 PCOD8298190
Probable space group: I M M A
;
_chemical_formula_sum "Si O2"
_cell_formula_units_Z 96
_cell_length_a 30.351866
_cell_length_b 8.945078
_cell_length_c 20.664877
_cell_angle_alpha 90.000000
_cell_angle_beta 90.000000
_cell_angle_gamma 90.000000
_cell_volume 5610.510155
_symmetry_space_group_name_H-M "I M M A"
_symmetry_group_IT_number 74
_symmetry_cell_setting 'orthorhombic'
loop_
_space_group_symop_operation_xyz
x,y,z
-x,1/2-y,z
x,-y,-z
-x,1/2+y,-z
-x,-y,-z
x,1/2+y,-z
-x,y,z
x,1/2-y,z
1/2+x,1/2+y,1/2+z
1/2-x,-y,1/2+z
1/2+x,1/2-y,1/2-z
1/2-x,y,1/2-z
1/2-x,1/2-y,1/2-z
1/2+x,y,1/2-z
1/2-x,1/2+y,1/2+z
1/2+x,-y,1/2+z
loop_
_atom_site_type_symbol
_atom_site_label
_atom_site_fract_x
_atom_site_fract_y
_atom_site_fract_z
Si Si1 0.634974 0.422130 0.258993
Si Si2 0.430394 0.576961 0.438066
Si Si3 0.746143 0.923640 0.934874
Si Si4 0.653832 0.917963 0.593551
Si Si5 0.450984 0.575452 0.295681
Si Si6 0.214922 0.427317 0.695845
O O1 0.634608 0.250000 0.237283
O O2 0.655184 0.444102 0.329789
O O3 0.584899 0.483992 0.254658
O O4 0.665930 0.516275 0.211675
O O5 0.453672 0.500000 0.500000
O O6 0.438220 0.750000 0.446311
O O7 0.378475 0.537668 0.439031
O O8 0.450907 0.520207 0.370483
O O9 0.732776 0.750000 0.933272
O O10 0.798405 0.945621 0.935107
O O11 0.726320 0.005154 0.873222
O O12 0.727245 0.000000 0.000000
O O13 0.636772 0.750000 0.578578
O O14 0.500000 0.546034 0.267381
O O15 0.438489 0.750000 0.292807
O O16 0.215135 0.250000 0.691073
O O17 0.250000 0.482673 0.750000
#
# Coordination Sequence:
#
# PCOD8298190 Si02
#       6
#    16  16  16  16  16  16
#     4  10  19  33  53  76 100 128 167 213 260 306
#     4  10  19  29  43  62  87 122 164 208 255 304
#     4  11  22  35  50  72 104 139 176 217 261 306
#     4   9  18  31  47  67  93 128 167 210 256 300
#     4   9  19  35  51  68  93 125 162 208 260 310
#     4  11  22  35  54  78 104 138 178 215 257 311
#
# _framework density 17.110744
#
# number of rings (size 3 to 8) (size 9 to 14) (size 15 to 20)
#    0.000    2.000    1.667    2.500    0.000    5.333 
#    0.000    0.000    0.000    0.000    0.000    0.000 
#    0.000    0.667    0.000    2.500    0.000    3.833 
#
# Total GULP energy -595190.070947 kJ/mol
# GULP energy per Si atom -12399.793145 kJ/mol
# Density = 1.707180 g / cm^3
# Si number density = 17.110744 Si / 1000 Ang^3
#
#
#
# Elastic Constant Matrix: (Units=GPa)
#
#
# Indices 1 2 3 4 5 6 
#
# 1 80.5553 41.5322 36.8724 0.0000 0.0000 0.0000
# 2 41.5322 78.4965 38.8476 0.0000 0.0000 0.0000
# 3 36.8724 38.8476 83.8847 0.0000 0.0000 0.0000
# 4 0.0000 0.0000 0.0000 28.5737 0.0000 0.0000
# 5 0.0000 0.0000 0.0000 0.0000 6.7724 0.0000
# 6 0.0000 0.0000 0.0000 0.0000 0.0000 22.8666
#
#
#
# Elastic Compliance Matrix: (Units=1/GPa)
#
#
# Indices 1 2 3 4 5 6 
#
# 1 0.018361 -0.007422 -0.004634 0.000000 0.000000 0.000000
# 2 -0.007422 0.019527 -0.005781 0.000000 0.000000 0.000000
# 3 -0.004634 -0.005781 0.016635 0.000000 0.000000 0.000000
# 4 0.000000 0.000000 0.000000 0.034997 0.000000 0.000000
# 5 0.000000 0.000000 0.000000 0.000000 0.147659 0.000000
# 6 0.000000 0.000000 0.000000 0.000000 0.000000 0.043732
#
#
# Mechanical properties :
#
#
# Convention : Reuss Voigt Hill
#
# Bulk Modulus (GPa) = 53.04818 53.04897 53.04857
# Shear Modulus (GPa) = 15.48622 20.02149 17.75385
#
# Velocity S-wave (km/s) = 3.01168 3.42440 3.22465
# Velocity P-wave (km/s) = 6.56992 6.83418 6.70335
#
# Compressibility (1/GPa) = 0.01885079
#
# Stress axis : x y z
#
# Youngs Moduli (GPa) = 54.46246 51.21090 60.11358
#
# Poissons Ratio (x) = 0.38007 0.27856
# Poissons Ratio (y) = 0.40420 0.34751
# Poissons Ratio (z) = 0.25237 0.29604
#
# Static dielectric constant tensor:
#      x y z
#    x 3.095540 0.000000 0.000000 
#    y 0.000000 3.249120 0.000000 
#    z 0.000000 0.000000 3.014820 
# 
# 
# High freq. dielectric constant tensor:
#      x y z
#    x 1.644030 0.000000 0.000000 
#    y 0.000000 1.670510 0.000000 
#    z 0.000000 0.000000 1.629440 
# 
# From -- ./inp_files/55047.got.cif
#   From: 2010.03.12/outbox.cif.g09.slc.cpg/sg74_28_cif.got.tgz:55047.got - 2010.04.16 15:46:19.
