data_PCOD8298580
_publ_section_title
;
Structure prediction by ZEFSAII (Michael W. Deem and Ramdas Pophale) SiO2 
 PCOD8298580
Probable space group: I M M A
;
_chemical_formula_sum "Si O2"
_cell_formula_units_Z 72
_cell_length_a 10.478324
_cell_length_b 17.824550
_cell_length_c 21.981466
_cell_angle_alpha 90.000000
_cell_angle_beta 90.000000
_cell_angle_gamma 90.000000
_cell_volume 4105.509400
_symmetry_space_group_name_H-M "I M M A"
_symmetry_group_IT_number 74
_symmetry_cell_setting 'orthorhombic'
loop_
_space_group_symop_operation_xyz
x,y,z
-x,1/2-y,z
x,-y,-z
-x,1/2+y,-z
-x,-y,-z
x,1/2+y,-z
-x,y,z
x,1/2-y,z
1/2+x,1/2+y,1/2+z
1/2-x,-y,1/2+z
1/2+x,1/2-y,1/2-z
1/2-x,y,1/2-z
1/2-x,1/2-y,1/2-z
1/2+x,y,1/2-z
1/2-x,1/2+y,1/2+z
1/2+x,-y,1/2+z
loop_
_atom_site_type_symbol
_atom_site_label
_atom_site_fract_x
_atom_site_fract_y
_atom_site_fract_z
Si Si1 0.348260 0.666252 0.056220
Si Si2 0.855911 0.467184 0.634627
Si Si3 0.139419 0.166505 0.171411
Si Si4 0.750000 0.952608 0.750000
Si Si5 0.146477 0.121461 0.422647
O O1 0.500000 0.660509 0.057153
O O2 0.300847 0.750000 0.072790
O O3 0.291191 0.607515 0.105544
O O4 0.302292 0.644831 0.988706
O O5 0.789667 0.492054 0.696409
O O6 0.848391 0.531640 0.583433
O O7 0.000000 0.448688 0.652408
O O8 0.149558 0.250000 0.199773
O O9 0.141704 0.104230 0.225082
O O10 0.257248 0.157573 0.125503
O O11 0.000000 0.157198 0.139203
O O12 0.000000 0.149586 0.411249
#
# Coordination Sequence:
#
# PCOD8298580 Si02
#       5
#    16  16  16   8  16
#     4   9  16  27  46  72  96 116 147 195 242 277
#     4   9  17  29  46  67  91 121 156 194 233 273
#     4  10  20  32  47  70  99 127 154 188 232 280
#     4  10  19  32  47  62  88 126 166 196 225 270
#     4   9  17  30  50  74  98 123 152 187 230 283
#
# _framework density 17.537410000000001
#
# number of rings (size 3 to 8) (size 9 to 14) (size 15 to 20)
#    0.000    2.667    0.000    2.333    0.000    4.889 
#    0.000    0.556    0.000   12.000    0.000    0.000 
#    0.000    0.000    0.000    0.000    0.000    0.000 
#
# Total GULP energy -446021.166627 kJ/mol
# GULP energy per Si atom -12389.476851 kJ/mol
# Density = 1.749749 g / cm^3
# Si number density = 17.537410 Si / 1000 Ang^3
#
#
#
# Elastic Constant Matrix: (Units=GPa)
#
#
# Indices 1 2 3 4 5 6 
#
# 1 69.5160 30.7730 32.0870 0.0000 0.0000 0.0000
# 2 30.7730 127.4260 68.8924 0.0000 0.0000 0.0000
# 3 32.0870 68.8924 104.1854 0.0000 0.0000 0.0000
# 4 0.0000 0.0000 0.0000 17.3764 0.0000 0.0000
# 5 0.0000 0.0000 0.0000 0.0000 17.0893 0.0000
# 6 0.0000 0.0000 0.0000 0.0000 0.0000 11.4821
#
#
#
# Elastic Compliance Matrix: (Units=1/GPa)
#
#
# Indices 1 2 3 4 5 6 
#
# 1 0.017089 -0.001994 -0.003944 0.000000 0.000000 0.000000
# 2 -0.001994 0.012447 -0.007616 0.000000 0.000000 0.000000
# 3 -0.003944 -0.007616 0.015849 0.000000 0.000000 0.000000
# 4 0.000000 0.000000 0.000000 0.057549 0.000000 0.000000
# 5 0.000000 0.000000 0.000000 0.000000 0.058516 0.000000
# 6 0.000000 0.000000 0.000000 0.000000 0.000000 0.087092
#
#
# Mechanical properties :
#
#
# Convention : Reuss Voigt Hill
#
# Bulk Modulus (GPa) = 54.71929 62.73692 58.72810
# Shear Modulus (GPa) = 17.74662 20.48124 19.11393
#
# Velocity S-wave (km/s) = 3.18453 3.42110 3.30494
# Velocity P-wave (km/s) = 6.69260 7.17329 6.93711
#
# Compressibility (1/GPa) = 0.01827509
#
# Stress axis : x y z
#
# Youngs Moduli (GPa) = 58.51861 80.33984 63.09422
#
# Poissons Ratio (x) = 0.16024 0.24885
# Poissons Ratio (y) = 0.11671 0.48055
# Poissons Ratio (z) = 0.23080 0.61190
#
# Static dielectric constant tensor:
#      x y z
#    x 3.022600 0.000000 0.000000 
#    y 0.000000 3.537400 0.000000 
#    z 0.000000 0.000000 3.173310 
# 
# 
# High freq. dielectric constant tensor:
#      x y z
#    x 1.642280 0.000000 0.000000 
#    y 0.000000 1.684940 0.000000 
#    z 0.000000 0.000000 1.664060 
# 
# From -- ./inp_files/43719.got.cif
#   From: 2010.03.12/outbox.cif.g09.slc.cpg/sg74_22_cif.got.tgz:43719.got - 2010.04.16 15:46:19.
