data_PCOD8298637
_publ_section_title
;
Structure prediction by ZEFSAII (Michael W. Deem and Ramdas Pophale) SiO2 
 PCOD8298637
Probable space group: I M M A
;
_chemical_formula_sum "Si O2"
_cell_formula_units_Z 72
_cell_length_a 33.430679
_cell_length_b 8.738341
_cell_length_c 14.485533
_cell_angle_alpha 90.000000
_cell_angle_beta 90.000000
_cell_angle_gamma 90.000000
_cell_volume 4231.639532
_symmetry_space_group_name_H-M "I M M A"
_symmetry_group_IT_number 74
_symmetry_cell_setting 'orthorhombic'
loop_
_space_group_symop_operation_xyz
x,y,z
-x,1/2-y,z
x,-y,-z
-x,1/2+y,-z
-x,-y,-z
x,1/2+y,-z
-x,y,z
x,1/2-y,z
1/2+x,1/2+y,1/2+z
1/2-x,-y,1/2+z
1/2+x,1/2-y,1/2-z
1/2-x,y,1/2-z
1/2-x,1/2-y,1/2-z
1/2+x,y,1/2-z
1/2-x,1/2+y,1/2+z
1/2+x,-y,1/2+z
loop_
_atom_site_type_symbol
_atom_site_label
_atom_site_fract_x
_atom_site_fract_y
_atom_site_fract_z
Si Si1 0.725831 0.068850 0.903795
Si Si2 0.500000 0.573193 0.097883
Si Si3 0.157810 0.926611 0.712572
Si Si4 0.188817 0.926658 0.907157
Si Si5 0.586795 0.569173 0.102039
O O1 0.726005 0.250000 0.909767
O O2 0.696191 0.016086 0.824067
O O3 0.770005 0.009956 0.880867
O O4 0.709950 0.000000 0.000000
O O5 0.500000 0.750000 0.078245
O O6 0.542476 0.529331 0.145300
O O7 0.500000 0.500000 0.000000
O O8 0.161145 0.750000 0.683641
O O9 0.157476 0.945932 0.823624
O O10 0.117234 0.996239 0.673674
O O11 0.198795 0.750000 0.926243
O O12 0.170012 0.000000 0.000000
O O13 0.594325 0.750000 0.095478
O O14 0.592621 0.500000 0.000000
#
# Coordination Sequence:
#
# PCOD8298637 Si02
#       5
#    16   8  16  16  16
#     4  11  21  33  50  70  95 127 161 197 237 282
#     4   8  16  30  48  70  97 128 157 186 225 274
#     4  11  22  34  48  70  98 126 158 197 239 280
#     4  10  21  36  52  68  91 123 160 202 243 283
#     4  10  19  32  50  73 101 130 159 191 229 277
#
# _framework density 17.014683000000002
#
# number of rings (size 3 to 8) (size 9 to 14) (size 15 to 20)
#    0.000    1.778    0.000    6.667    0.000    7.111 
#    0.000    0.000    0.000    0.000    0.000    0.778 
#    0.000    0.000    0.000    0.000    0.000    0.000 
#
# Total GULP energy -446226.889052 kJ/mol
# GULP energy per Si atom -12395.191363 kJ/mol
# Density = 1.697596 g / cm^3
# Si number density = 17.014683 Si / 1000 Ang^3
#
#
#
# Elastic Constant Matrix: (Units=GPa)
#
#
# Indices 1 2 3 4 5 6 
#
# 1 98.6218 52.9188 61.0245 0.0000 0.0000 0.0000
# 2 52.9188 133.5105 53.1454 0.0000 0.0000 0.0000
# 3 61.0245 53.1454 96.4493 0.0000 0.0000 0.0000
# 4 0.0000 0.0000 0.0000 27.1954 0.0000 0.0000
# 5 0.0000 0.0000 0.0000 0.0000 21.9797 0.0000
# 6 0.0000 0.0000 0.0000 0.0000 0.0000 18.2082
#
#
#
# Elastic Compliance Matrix: (Units=1/GPa)
#
#
# Indices 1 2 3 4 5 6 
#
# 1 0.017718 -0.003280 -0.009403 0.000000 0.000000 0.000000
# 2 -0.003280 0.010202 -0.003546 0.000000 0.000000 0.000000
# 3 -0.009403 -0.003546 0.018272 0.000000 0.000000 0.000000
# 4 0.000000 0.000000 0.000000 0.036771 0.000000 0.000000
# 5 0.000000 0.000000 0.000000 0.000000 0.045497 0.000000
# 6 0.000000 0.000000 0.000000 0.000000 0.000000 0.054920
#
#
# Mechanical properties :
#
#
# Convention : Reuss Voigt Hill
#
# Bulk Modulus (GPa) = 72.81673 73.63991 73.22832
# Shear Modulus (GPa) = 22.68449 24.24285 23.46367
#
# Velocity S-wave (km/s) = 3.65530 3.77877 3.71755
# Velocity P-wave (km/s) = 7.79130 7.90019 7.84593
#
# Compressibility (1/GPa) = 0.01373311
#
# Stress axis : x y z
#
# Youngs Moduli (GPa) = 56.43954 98.02371 54.72963
#
# Poissons Ratio (x) = 0.32149 0.51463
# Poissons Ratio (y) = 0.18511 0.19408
# Poissons Ratio (z) = 0.53071 0.34761
#
# Static dielectric constant tensor:
#      x y z
#    x 3.262080 0.000000 0.000000 
#    y 0.000000 3.384550 0.000000 
#    z 0.000000 0.000000 3.027390 
# 
# 
# High freq. dielectric constant tensor:
#      x y z
#    x 1.642260 0.000000 0.000000 
#    y 0.000000 1.679810 0.000000 
#    z 0.000000 0.000000 1.635990 
# 
# From -- ./inp_files/29412.got.cif
#   From: 2010.03.12/outbox.cif.g09.slc.cpg/sg74_15_cif.got.tgz:29412.got - 2010.04.16 15:46:19.
