data_PCOD8298537
_publ_section_title
;
Structure prediction by ZEFSAII (Michael W. Deem and Ramdas Pophale) SiO2 
 PCOD8298537
Probable space group: I M M A
;
_chemical_formula_sum "Si O2"
_cell_formula_units_Z 104
_cell_length_a 28.217931
_cell_length_b 8.861859
_cell_length_c 24.096294
_cell_angle_alpha 90.000000
_cell_angle_beta 90.000000
_cell_angle_gamma 90.000000
_cell_volume 6025.599417
_symmetry_space_group_name_H-M "I M M A"
_symmetry_group_IT_number 74
_symmetry_cell_setting 'orthorhombic'
loop_
_space_group_symop_operation_xyz
x,y,z
-x,1/2-y,z
x,-y,-z
-x,1/2+y,-z
-x,-y,-z
x,1/2+y,-z
-x,y,z
x,1/2-y,z
1/2+x,1/2+y,1/2+z
1/2-x,-y,1/2+z
1/2+x,1/2-y,1/2-z
1/2-x,y,1/2-z
1/2-x,1/2-y,1/2-z
1/2+x,y,1/2-z
1/2-x,1/2+y,1/2+z
1/2+x,-y,1/2+z
loop_
_atom_site_type_symbol
_atom_site_label
_atom_site_fract_x
_atom_site_fract_y
_atom_site_fract_z
Si Si1 0.172969 0.574302 0.560105
Si Si2 0.130090 0.572227 0.060275
Si Si3 0.945234 0.573514 0.735779
Si Si4 0.722112 0.924907 0.559346
Si Si5 0.408918 0.571459 0.128563
Si Si6 0.945822 0.425198 0.849569
Si Si7 0.000000 0.428239 0.559981
O O1 0.166964 0.500000 0.500000
O O2 0.160781 0.750000 0.553280
O O3 0.225869 0.552058 0.586139
O O4 0.138397 0.498003 0.603630
O O5 0.134536 0.750000 0.053691
O O6 0.178255 0.508303 0.089975
O O7 0.085877 0.525838 0.098337
O O8 0.122159 0.500000 0.000000
O O9 0.936185 0.750000 0.729415
O O10 0.913726 0.485781 0.691219
O O11 0.929119 0.521137 0.796630
O O12 0.000000 0.530132 0.726245
O O13 0.709369 0.750000 0.553737
O O14 0.725299 0.000000 0.500000
O O15 0.404913 0.750000 0.128413
O O16 0.453785 0.515162 0.092804
O O17 0.939136 0.250000 0.834853
O O18 0.000000 0.462244 0.865399
O O19 0.000000 0.500000 0.500000
O O20 0.000000 0.250000 0.553565
#
# Coordination Sequence:
#
# PCOD8298537 Si02
#       7
#    16  16  16  16  16  16   8
#     4  10  20  33  49  73 101 131 169 210 255 303
#     4  10  19  31  51  78 106 136 168 201 244 296
#     4  10  20  34  53  75  97 128 171 214 251 293
#     4   9  17  30  49  71  99 132 166 206 248 295
#     4  11  21  34  51  71  98 134 170 208 254 302
#     4   9  19  35  53  74 103 137 169 204 245 294
#     4  10  22  34  46  68  98 132 165 200 249 300
#
# _framework density 17.259692999999999
#
# number of rings (size 3 to 8) (size 9 to 14) (size 15 to 20)
#    0.000    2.154    0.769    3.692    0.000    6.462 
#    0.000    0.000    0.000    0.923    0.000    6.462 
#    0.000    0.000    0.000    0.000    0.000    0.000 
#
# Total GULP energy -644714.353913 kJ/mol
# GULP energy per Si atom -12398.352960 kJ/mol
# Density = 1.722041 g / cm^3
# Si number density = 17.259693 Si / 1000 Ang^3
#
#
#
# Elastic Constant Matrix: (Units=GPa)
#
#
# Indices 1 2 3 4 5 6 
#
# 1 128.4864 56.0143 69.2707 0.0000 0.0000 0.0000
# 2 56.0143 91.9693 49.2745 0.0000 0.0000 0.0000
# 3 69.2707 49.2745 96.8113 0.0000 0.0000 0.0000
# 4 0.0000 0.0000 0.0000 29.3746 0.0000 0.0000
# 5 0.0000 0.0000 0.0000 0.0000 6.1502 0.0000
# 6 0.0000 0.0000 0.0000 0.0000 0.0000 28.8289
#
#
#
# Elastic Compliance Matrix: (Units=1/GPa)
#
#
# Indices 1 2 3 4 5 6 
#
# 1 0.013797 -0.004281 -0.007693 0.000000 0.000000 0.000000
# 2 -0.004281 0.016279 -0.005222 0.000000 0.000000 0.000000
# 3 -0.007693 -0.005222 0.018492 0.000000 0.000000 0.000000
# 4 0.000000 0.000000 0.000000 0.034043 0.000000 0.000000
# 5 0.000000 0.000000 0.000000 0.000000 0.162598 0.000000
# 6 0.000000 0.000000 0.000000 0.000000 0.000000 0.034687
#
#
# Mechanical properties :
#
#
# Convention : Reuss Voigt Hill
#
# Bulk Modulus (GPa) = 70.54841 74.04290 72.29565
# Shear Modulus (GPa) = 15.67338 22.38457 19.02897
#
# Velocity S-wave (km/s) = 3.01672 3.60519 3.32401
# Velocity P-wave (km/s) = 7.28681 7.76675 7.53060
#
# Compressibility (1/GPa) = 0.01417466
#
# Stress axis : x y z
#
# Youngs Moduli (GPa) = 72.48018 61.43045 54.07861
#
# Poissons Ratio (x) = 0.26301 0.41602
# Poissons Ratio (y) = 0.31032 0.28239
# Poissons Ratio (z) = 0.55758 0.32078
#
# Static dielectric constant tensor:
#      x y z
#    x 3.766450 0.000000 0.000000 
#    y 0.000000 3.333340 0.000000 
#    z 0.000000 0.000000 3.002030 
# 
# 
# High freq. dielectric constant tensor:
#      x y z
#    x 1.670340 0.000000 0.000000 
#    y 0.000000 1.681350 0.000000 
#    z 0.000000 0.000000 1.639530 
# 
# From -- ./inp_files/62341.got.cif
#   From: 2010.03.12/outbox.cif.g09.slc.cpg/sg74_32_cif.got.tgz:62341.got - 2010.04.16 15:46:19.
