data_PCOD8298504
_publ_section_title
;
Structure prediction by ZEFSAII (Michael W. Deem and Ramdas Pophale) SiO2 
 PCOD8298504
Probable space group: I M M A
;
_chemical_formula_sum "Si O2"
_cell_formula_units_Z 112
_cell_length_a 21.851576
_cell_length_b 25.687326
_cell_length_c 10.881854
_cell_angle_alpha 90.000000
_cell_angle_beta 90.000000
_cell_angle_gamma 90.000000
_cell_volume 6108.077759
_symmetry_space_group_name_H-M "I M M A"
_symmetry_group_IT_number 74
_symmetry_cell_setting 'orthorhombic'
loop_
_space_group_symop_operation_xyz
x,y,z
-x,1/2-y,z
x,-y,-z
-x,1/2+y,-z
-x,-y,-z
x,1/2+y,-z
-x,y,z
x,1/2-y,z
1/2+x,1/2+y,1/2+z
1/2-x,-y,1/2+z
1/2+x,1/2-y,1/2-z
1/2-x,y,1/2-z
1/2-x,1/2-y,1/2-z
1/2+x,y,1/2-z
1/2-x,1/2+y,1/2+z
1/2+x,-y,1/2+z
loop_
_atom_site_type_symbol
_atom_site_label
_atom_site_fract_x
_atom_site_fract_y
_atom_site_fract_z
Si Si1 0.310630 0.143934 0.165123
Si Si2 0.181436 0.975013 0.621287
Si Si3 0.329156 0.362507 0.681267
Si Si4 0.682006 0.517211 0.370344
Si Si5 0.431204 0.189334 0.282669
Si Si6 0.431648 0.307234 0.567198
Si Si7 0.782683 0.309622 0.585168
O O1 0.250000 0.149177 0.250000
O O2 0.316040 0.086718 0.108875
O O3 0.375473 0.156019 0.228319
O O4 0.304438 0.184229 0.053851
O O5 0.148476 0.000000 0.500000
O O6 0.249666 0.996424 0.625139
O O7 0.148428 0.991798 0.750274
O O8 0.314851 0.421386 0.647352
O O9 0.398766 0.350526 0.648950
O O10 0.288597 0.324644 0.594983
O O11 0.318020 0.349474 0.824228
O O12 0.649552 0.500000 0.500000
O O13 0.500000 0.174034 0.232829
O O14 0.419600 0.250000 0.255609
O O15 0.429740 0.176950 0.425839
O O16 0.500000 0.306641 0.617209
O O17 0.402254 0.250000 0.585940
O O18 0.793522 0.250000 0.625806
#
# Coordination Sequence:
#
# PCOD8298504 Si02
#       7
#    16  16  16  16  16  16  16
#     4  12  22  34  58  85 111 144 195 242 282 339
#     4  10  19  34  50  76 112 142 179 233 286 338
#     4  11  20  34  55  75 113 149 181 224 289 347
#     4  10  19  31  50  76 105 140 180 227 281 335
#     4   9  20  37  55  79 114 151 184 228 288 346
#     4   9  18  34  57  81 107 147 193 230 274 339
#     4  11  22  33  49  81 115 145 178 225 292 348
#
# _framework density 18.336373999999999
#
# number of rings (size 3 to 8) (size 9 to 14) (size 15 to 20)
#    0.000    1.714    1.429    8.143    2.000    2.286 
#    0.000    0.714    0.000    4.286    0.000    0.000 
#    0.000    0.000    0.000    0.000    0.000    0.000 
#
# Total GULP energy -693957.896093 kJ/mol
# GULP energy per Si atom -12392.105287 kJ/mol
# Density = 1.829464 g / cm^3
# Si number density = 18.336374 Si / 1000 Ang^3
#
#
#
# Elastic Constant Matrix: (Units=GPa)
#
#
# Indices 1 2 3 4 5 6 
#
# 1 86.2895 33.0996 29.9572 0.0000 0.0000 0.0000
# 2 33.0996 115.3297 40.9884 0.0000 0.0000 0.0000
# 3 29.9572 40.9884 110.9470 0.0000 0.0000 0.0000
# 4 0.0000 0.0000 0.0000 29.6290 0.0000 0.0000
# 5 0.0000 0.0000 0.0000 0.0000 20.0701 0.0000
# 6 0.0000 0.0000 0.0000 0.0000 0.0000 17.9079
#
#
#
# Elastic Compliance Matrix: (Units=1/GPa)
#
#
# Indices 1 2 3 4 5 6 
#
# 1 0.013632 -0.002998 -0.002573 0.000000 0.000000 0.000000
# 2 -0.002998 0.010641 -0.003122 0.000000 0.000000 0.000000
# 3 -0.002573 -0.003122 0.010861 0.000000 0.000000 0.000000
# 4 0.000000 0.000000 0.000000 0.033751 0.000000 0.000000
# 5 0.000000 0.000000 0.000000 0.000000 0.049825 0.000000
# 6 0.000000 0.000000 0.000000 0.000000 0.000000 0.055841
#
#
# Mechanical properties :
#
#
# Convention : Reuss Voigt Hill
#
# Bulk Modulus (GPa) = 56.34257 57.85075 57.09666
# Shear Modulus (GPa) = 25.27125 27.42281 26.34703
#
# Velocity S-wave (km/s) = 3.71644 3.87142 3.79472
# Velocity P-wave (km/s) = 7.01497 7.18346 7.09972
#
# Compressibility (1/GPa) = 0.01774857
#
# Stress axis : x y z
#
# Youngs Moduli (GPa) = 73.35557 93.97956 92.06907
#
# Poissons Ratio (x) = 0.28174 0.23693
# Poissons Ratio (y) = 0.21991 0.28740
# Poissons Ratio (z) = 0.18877 0.29337
#
# Static dielectric constant tensor:
#      x y z
#    x 3.168460 0.000000 0.000000 
#    y 0.000000 1.060580 0.000000 
#    z 0.000000 0.000000 5.018560 
# 
# 
# High freq. dielectric constant tensor:
#      x y z
#    x 1.665780 0.000000 0.000000 
#    y 0.000000 1.717290 0.000000 
#    z 0.000000 0.000000 1.720180 
# 
# From -- ./inp_files/24145.got.cif
#   From: 2010.03.12/outbox.cif.g09.slc.cpg/sg74_13_cif.got.tgz:24145.got - 2010.04.16 15:46:19.
