data_PCOD8298891
_publ_section_title
;
Structure prediction by ZEFSAII (Michael W. Deem and Ramdas Pophale) SiO2 
 PCOD8298891
Probable space group: I M M A
;
_chemical_formula_sum "Si O2"
_cell_formula_units_Z 112
_cell_length_a 14.559982
_cell_length_b 14.834195
_cell_length_c 26.237539
_cell_angle_alpha 90.000000
_cell_angle_beta 90.000000
_cell_angle_gamma 90.000000
_cell_volume 5666.930923
_symmetry_space_group_name_H-M "I M M A"
_symmetry_group_IT_number 74
_symmetry_cell_setting 'orthorhombic'
loop_
_space_group_symop_operation_xyz
x,y,z
-x,1/2-y,z
x,-y,-z
-x,1/2+y,-z
-x,-y,-z
x,1/2+y,-z
-x,y,z
x,1/2-y,z
1/2+x,1/2+y,1/2+z
1/2-x,-y,1/2+z
1/2+x,1/2-y,1/2-z
1/2-x,y,1/2-z
1/2-x,1/2-y,1/2-z
1/2+x,y,1/2-z
1/2-x,1/2+y,1/2+z
1/2+x,-y,1/2+z
loop_
_atom_site_type_symbol
_atom_site_label
_atom_site_fract_x
_atom_site_fract_y
_atom_site_fract_z
Si Si1 0.896802 0.964648 0.832575
Si Si2 0.709700 0.144504 0.417127
Si Si3 0.896532 0.354011 0.372644
Si Si4 0.154550 0.648352 0.127552
Si Si5 0.104848 0.969640 0.720734
Si Si6 0.314851 0.347876 0.798686
Si Si7 0.103195 0.144524 0.984824
O O1 0.833477 0.911208 0.871181
O O2 0.849652 0.953526 0.776469
O O3 0.000000 0.925576 0.835343
O O4 0.903802 0.072129 0.843614
O O5 0.686788 0.250000 0.409498
O O6 0.820844 0.129612 0.417246
O O7 0.665992 0.105574 0.469374
O O8 0.901245 0.250000 0.357976
O O9 0.856369 0.404368 0.322827
O O10 0.000000 0.387547 0.388667
O O11 0.112874 0.750000 0.135791
O O12 0.257856 0.645119 0.148731
O O13 0.154479 0.622596 0.067882
O O14 0.000000 0.945806 0.729032
O O15 0.111714 0.072771 0.701959
O O16 0.364343 0.250000 0.796674
O O17 0.250000 0.358499 0.750000
O O18 0.094078 0.250000 0.992673
O O19 0.000000 0.102005 0.985857
#
# Coordination Sequence:
#
# PCOD8298891 Si02
#       7
#    16  16  16  16  16  16  16
#     4  11  22  33  50  78 108 143 184 218 258 318
#     4  10  21  36  55  77 105 141 177 220 269 317
#     4   9  19  36  57  80 104 134 176 224 274 325
#     4  10  20  34  53  76 106 143 178 216 260 306
#     4  10  21  35  52  76 108 141 176 226 273 315
#     4  10  19  33  53  77 105 139 181 224 261 311
#     4   9  18  34  54  77 108 142 175 214 262 317
#
# _framework density 19.763783
#
# number of rings (size 3 to 8) (size 9 to 14) (size 15 to 20)
#    0.000    2.143    1.429    1.714    0.000    3.143 
#    0.000    5.714    0.000    0.857    0.000    7.000 
#    0.000    0.000    0.000    0.000    0.000    0.000 
#
# Total GULP energy -693917.678425 kJ/mol
# GULP energy per Si atom -12391.387115 kJ/mol
# Density = 1.971880 g / cm^3
# Si number density = 19.763783 Si / 1000 Ang^3
#
#
#
# Elastic Constant Matrix: (Units=GPa)
#
#
# Indices 1 2 3 4 5 6 
#
# 1 60.8621 13.7450 50.8660 0.0000 0.0000 0.0000
# 2 13.7450 45.6461 17.4204 0.0000 0.0000 0.0000
# 3 50.8660 17.4204 127.6160 0.0000 0.0000 0.0000
# 4 0.0000 0.0000 0.0000 22.0900 0.0000 0.0000
# 5 0.0000 0.0000 0.0000 0.0000 28.1402 0.0000
# 6 0.0000 0.0000 0.0000 0.0000 0.0000 24.7804
#
#
#
# Elastic Compliance Matrix: (Units=1/GPa)
#
#
# Indices 1 2 3 4 5 6 
#
# 1 0.025305 -0.003978 -0.009543 0.000000 0.000000 0.000000
# 2 -0.003978 0.023737 -0.001655 0.000000 0.000000 0.000000
# 3 -0.009543 -0.001655 0.011866 0.000000 0.000000 0.000000
# 4 0.000000 0.000000 0.000000 0.045269 0.000000 0.000000
# 5 0.000000 0.000000 0.000000 0.000000 0.035536 0.000000
# 6 0.000000 0.000000 0.000000 0.000000 0.000000 0.040355
#
#
# Mechanical properties :
#
#
# Convention : Reuss Voigt Hill
#
# Bulk Modulus (GPa) = 32.72674 44.24300 38.48487
# Shear Modulus (GPa) = 22.46141 25.14164 23.80152
#
# Velocity S-wave (km/s) = 3.37485 3.57053 3.47407
# Velocity P-wave (km/s) = 5.63747 6.27955 5.96715
#
# Compressibility (1/GPa) = 0.03055606
#
# Stress axis : x y z
#
# Youngs Moduli (GPa) = 39.51845 42.12836 84.27686
#
# Poissons Ratio (x) = 0.16757 0.80426
# Poissons Ratio (y) = 0.15719 0.13946
# Poissons Ratio (z) = 0.37713 0.06971
#
# Static dielectric constant tensor:
#      x y z
#    x 3.584760 0.000000 0.000000 
#    y 0.000000 3.664070 0.000000 
#    z 0.000000 0.000000 3.823140 
# 
# 
# High freq. dielectric constant tensor:
#      x y z
#    x 1.753640 0.000000 0.000000 
#    y 0.000000 1.771000 0.000000 
#    z 0.000000 0.000000 1.762870 
# 
# From -- ./inp_files/60105.got.cif
#   From: 2010.03.12/outbox.cif.g09.slc.cpg/sg74_31_cif.got.tgz:60105.got - 2010.04.16 15:46:19.
