data_PCOD8298130
_publ_section_title
;
Structure prediction by ZEFSAII (Michael W. Deem and Ramdas Pophale) SiO2 
 PCOD8298130
Probable space group: I M M A
;
_chemical_formula_sum "Si O2"
_cell_formula_units_Z 128
_cell_length_a 17.710623
_cell_length_b 18.908332
_cell_length_c 20.958810
_cell_angle_alpha 90.000000
_cell_angle_beta 90.000000
_cell_angle_gamma 90.000000
_cell_volume 7018.651493
_symmetry_space_group_name_H-M "I M M A"
_symmetry_group_IT_number 74
_symmetry_cell_setting 'orthorhombic'
loop_
_space_group_symop_operation_xyz
x,y,z
-x,1/2-y,z
x,-y,-z
-x,1/2+y,-z
-x,-y,-z
x,1/2+y,-z
-x,y,z
x,1/2-y,z
1/2+x,1/2+y,1/2+z
1/2-x,-y,1/2+z
1/2+x,1/2-y,1/2-z
1/2-x,y,1/2-z
1/2-x,1/2-y,1/2-z
1/2+x,y,1/2-z
1/2-x,1/2+y,1/2+z
1/2+x,-y,1/2+z
loop_
_atom_site_type_symbol
_atom_site_label
_atom_site_fract_x
_atom_site_fract_y
_atom_site_fract_z
Si Si1 0.914614 0.970669 0.690360
Si Si2 0.415556 0.044913 0.338507
Si Si3 0.582343 0.670478 0.267799
Si Si4 0.301829 0.085661 0.810109
Si Si5 0.319057 0.172844 0.335173
Si Si6 0.651040 0.172974 0.185492
Si Si7 0.182299 0.331497 0.890479
Si Si8 0.087021 0.441034 0.948913
O O1 0.899169 0.976488 0.766007
O O2 0.905387 0.889979 0.665689
O O3 0.000000 0.995016 0.672809
O O4 0.847808 0.018774 0.659898
O O5 0.500000 0.073643 0.346735
O O6 0.364209 0.108248 0.366763
O O7 0.401455 0.974464 0.378787
O O8 0.500000 0.632346 0.270726
O O9 0.571222 0.750000 0.245509
O O10 0.633738 0.637558 0.213790
O O11 0.618652 0.668222 0.336999
O O12 0.250000 0.062194 0.750000
O O13 0.255806 0.126012 0.865489
O O14 0.344623 0.250000 0.362029
O O15 0.335471 0.170712 0.260467
O O16 0.230815 0.161869 0.349687
O O17 0.616726 0.250000 0.166500
O O18 0.203280 0.250000 0.909108
O O19 0.143692 0.373172 0.950542
O O20 0.000000 0.417955 0.961068
O O21 0.111812 0.500000 0.000000
#
# Coordination Sequence:
#
# PCOD8298130 Si02
#       8
#    16  16  16  16  16  16  16  16
#     4  10  19  27  41  66  95 129 163 192 229 279
#     4   9  17  28  43  63  91 126 165 200 234 280
#     4   9  16  27  44  67 100 136 163 190 227 276
#     4  10  19  27  42  66  96 129 161 197 229 278
#     4   8  14  24  39  58  83 116 155 192 230 274
#     4   8  15  25  38  56  83 120 157 190 223 265
#     4  10  20  33  50  71  93 126 167 200 235 286
#     4  10  21  36  51  68  90 119 157 204 248 279
#
# _framework density 18.237121999999999
#
# number of rings (size 3 to 8) (size 9 to 14) (size 15 to 20)
#    0.000    2.750    0.000    3.375    5.250    3.750 
#    0.000    3.125    0.000    2.250    0.000    0.000 
#    0.000    2.000    0.000    0.000    0.500    0.000 
#
# Total GULP energy -793026.662459 kJ/mol
# GULP energy per Si atom -12391.041601 kJ/mol
# Density = 1.819561 g / cm^3
# Si number density = 18.237122 Si / 1000 Ang^3
#
#
#
# Elastic Constant Matrix: (Units=GPa)
#
#
# Indices 1 2 3 4 5 6 
#
# 1 104.0484 59.1534 12.0858 0.0000 0.0000 0.0000
# 2 59.1534 119.7418 18.0998 0.0000 0.0000 0.0000
# 3 12.0858 18.0998 18.4654 0.0000 0.0000 0.0000
# 4 0.0000 0.0000 0.0000 15.6824 0.0000 0.0000
# 5 0.0000 0.0000 0.0000 0.0000 14.9380 0.0000
# 6 0.0000 0.0000 0.0000 0.0000 0.0000 35.3339
#
#
#
# Elastic Compliance Matrix: (Units=1/GPa)
#
#
# Indices 1 2 3 4 5 6 
#
# 1 0.013478 -0.006251 -0.002694 0.000000 0.000000 0.000000
# 2 -0.006251 0.012703 -0.008360 0.000000 0.000000 0.000000
# 3 -0.002694 -0.008360 0.064113 0.000000 0.000000 0.000000
# 4 0.000000 0.000000 0.000000 0.063766 0.000000 0.000000
# 5 0.000000 0.000000 0.000000 0.000000 0.066943 0.000000
# 6 0.000000 0.000000 0.000000 0.000000 0.000000 0.028301
#
#
# Mechanical properties :
#
#
# Convention : Reuss Voigt Hill
#
# Bulk Modulus (GPa) = 17.95864 46.77042 32.36453
# Shear Modulus (GPa) = 16.53023 23.38529 19.95776
#
# Velocity S-wave (km/s) = 3.01392 3.58479 3.31168
# Velocity P-wave (km/s) = 4.68832 6.54490 5.69280
#
# Compressibility (1/GPa) = 0.05568351
#
# Stress axis : x y z
#
# Youngs Moduli (GPa) = 74.19756 78.72186 15.59735
#
# Poissons Ratio (x) = 0.49207 0.04202
# Poissons Ratio (y) = 0.46379 0.13040
# Poissons Ratio (z) = 0.19990 0.65814
#
# Static dielectric constant tensor:
#      x y z
#    x 3.497030 0.000000 0.000000 
#    y 0.000000 3.879040 0.000000 
#    z 0.000000 0.000000 2.686880 
# 
# 
# High freq. dielectric constant tensor:
#      x y z
#    x 1.708610 0.000000 0.000000 
#    y 0.000000 1.727980 0.000000 
#    z 0.000000 0.000000 1.616350 
# 
# From -- ./inp_files/61133.got.cif
#   From: 2010.03.12/outbox.cif.g09.slc.cpg/sg74_31_cif.got.tgz:61133.got - 2010.04.16 15:46:19.
