data_PCOD8298503
_publ_section_title
;
Structure prediction by ZEFSAII (Michael W. Deem and Ramdas Pophale) SiO2 
 PCOD8298503
Probable space group: I M M A
;
_chemical_formula_sum "Si O2"
_cell_formula_units_Z 104
_cell_length_a 8.849416
_cell_length_b 20.734398
_cell_length_c 29.471897
_cell_angle_alpha 90.000000
_cell_angle_beta 90.000000
_cell_angle_gamma 90.000000
_cell_volume 5407.719202
_symmetry_space_group_name_H-M "I M M A"
_symmetry_group_IT_number 74
_symmetry_cell_setting 'orthorhombic'
loop_
_space_group_symop_operation_xyz
x,y,z
-x,1/2-y,z
x,-y,-z
-x,1/2+y,-z
-x,-y,-z
x,1/2+y,-z
-x,y,z
x,1/2-y,z
1/2+x,1/2+y,1/2+z
1/2-x,-y,1/2+z
1/2+x,1/2-y,1/2-z
1/2-x,y,1/2-z
1/2-x,1/2-y,1/2-z
1/2+x,y,1/2-z
1/2-x,1/2+y,1/2+z
1/2+x,-y,1/2+z
loop_
_atom_site_type_symbol
_atom_site_label
_atom_site_fract_x
_atom_site_fract_y
_atom_site_fract_z
Si Si1 0.678101 0.375402 0.704520
Si Si2 0.323078 0.065988 0.050245
Si Si3 0.820426 0.179194 0.888656
Si Si4 0.178852 0.750000 0.699278
Si Si5 0.319421 0.569472 0.455508
Si Si6 0.324898 0.123124 0.144435
Si Si7 0.323144 0.522267 0.704737
O O1 0.500000 0.370486 0.709068
O O2 0.750000 0.345922 0.750000
O O3 0.740116 0.335467 0.661826
O O4 0.730865 0.449114 0.697540
O O5 0.500000 0.058081 0.039667
O O6 0.297706 0.119550 0.089950
O O7 0.255629 0.996004 0.063181
O O8 0.235174 0.089362 0.005620
O O9 0.762813 0.250000 0.903346
O O10 0.759032 0.126519 0.923552
O O11 0.000000 0.176140 0.888138
O O12 0.250000 0.750000 0.750000
O O13 0.231585 0.811153 0.668749
O O14 0.000000 0.750000 0.705927
O O15 0.500000 0.561470 0.454928
O O16 0.500000 0.112559 0.155671
O O17 0.230297 0.063209 0.162327
O O18 0.500000 0.527623 0.709805
O O19 0.250000 0.552100 0.750000
#
# Coordination Sequence:
#
# PCOD8298503 Si02
#       7
#    16  16  16   8  16  16  16
#     4   9  18  32  50  74 103 135 170 211 256 301
#     4  10  20  35  56  81 108 136 169 215 272 321
#     4   9  18  33  52  74 103 139 174 208 253 303
#     4  10  22  40  56  74 104 142 182 220 265 322
#     4  10  19  34  57  82 106 136 175 218 262 313
#     4  10  21  36  54  76 103 138 176 216 265 319
#     4  10  19  31  50  76 105 134 171 216 263 310
#
# _framework density 19.231767999999999
#
# number of rings (size 3 to 8) (size 9 to 14) (size 15 to 20)
#    0.000    2.308    0.000    3.692    0.000    5.231 
#    1.385    1.538    0.000    3.231    0.000    0.000 
#    0.000    0.000    0.000    0.000    0.000    0.000 
#
# Total GULP energy -644634.838814 kJ/mol
# GULP energy per Si atom -12396.823823 kJ/mol
# Density = 1.918800 g / cm^3
# Si number density = 19.231768 Si / 1000 Ang^3
#
#
#
# Elastic Constant Matrix: (Units=GPa)
#
#
# Indices 1 2 3 4 5 6 
#
# 1 43.6414 21.7038 20.1385 0.0000 0.0000 0.0000
# 2 21.7038 104.0760 74.7416 0.0000 0.0000 0.0000
# 3 20.1385 74.7416 128.9935 0.0000 0.0000 0.0000
# 4 0.0000 0.0000 0.0000 31.2610 0.0000 0.0000
# 5 0.0000 0.0000 0.0000 0.0000 30.9681 0.0000
# 6 0.0000 0.0000 0.0000 0.0000 0.0000 18.0773
#
#
#
# Elastic Compliance Matrix: (Units=1/GPa)
#
#
# Indices 1 2 3 4 5 6 
#
# 1 0.025747 -0.004252 -0.001556 0.000000 0.000000 0.000000
# 2 -0.004252 0.017158 -0.009278 0.000000 0.000000 0.000000
# 3 -0.001556 -0.009278 0.013371 0.000000 0.000000 0.000000
# 4 0.000000 0.000000 0.000000 0.031989 0.000000 0.000000
# 5 0.000000 0.000000 0.000000 0.000000 0.032291 0.000000
# 6 0.000000 0.000000 0.000000 0.000000 0.000000 0.055318
#
#
# Mechanical properties :
#
#
# Convention : Reuss Voigt Hill
#
# Bulk Modulus (GPa) = 38.30788 56.65318 47.48053
# Shear Modulus (GPa) = 23.28334 26.73641 25.00988
#
# Velocity S-wave (km/s) = 3.48324 3.73261 3.61008
# Velocity P-wave (km/s) = 6.01162 6.93532 6.48992
#
# Compressibility (1/GPa) = 0.02610429
#
# Stress axis : x y z
#
# Youngs Moduli (GPa) = 38.84021 58.28256 74.78858
#
# Poissons Ratio (x) = 0.24780 0.11638
# Poissons Ratio (y) = 0.16513 0.69387
# Poissons Ratio (z) = 0.06044 0.54073
#
# Static dielectric constant tensor:
#      x y z
#    x 3.344730 0.000000 0.000000 
#    y 0.000000 3.586810 0.000000 
#    z 0.000000 0.000000 3.712950 
# 
# 
# High freq. dielectric constant tensor:
#      x y z
#    x 1.733550 0.000000 0.000000 
#    y 0.000000 1.738030 0.000000 
#    z 0.000000 0.000000 1.759180 
# 
# From -- ./inp_files/70552.got.cif
#   From: 2010.03.12/outbox.cif.g09.slc.cpg/sg74_36_cif.got.tgz:70552.got - 2010.04.16 15:46:19.
