data_PCOD8298907
_publ_section_title
;
Structure prediction by ZEFSAII (Michael W. Deem and Ramdas Pophale) SiO2 
 PCOD8298907
Probable space group: I M M A
;
_chemical_formula_sum "Si O2"
_cell_formula_units_Z 112
_cell_length_a 29.050106
_cell_length_b 14.714680
_cell_length_c 14.841389
_cell_angle_alpha 90.000000
_cell_angle_beta 90.000000
_cell_angle_gamma 90.000000
_cell_volume 6344.144870
_symmetry_space_group_name_H-M "I M M A"
_symmetry_group_IT_number 74
_symmetry_cell_setting 'orthorhombic'
loop_
_space_group_symop_operation_xyz
x,y,z
-x,1/2-y,z
x,-y,-z
-x,1/2+y,-z
-x,-y,-z
x,1/2+y,-z
-x,y,z
x,1/2-y,z
1/2+x,1/2+y,1/2+z
1/2-x,-y,1/2+z
1/2+x,1/2-y,1/2-z
1/2-x,y,1/2-z
1/2-x,1/2-y,1/2-z
1/2+x,y,1/2-z
1/2-x,1/2+y,1/2+z
1/2+x,-y,1/2+z
loop_
_atom_site_type_symbol
_atom_site_label
_atom_site_fract_x
_atom_site_fract_y
_atom_site_fract_z
Si Si1 0.202086 0.146299 0.199136
Si Si2 0.291491 0.353876 0.684210
Si Si3 0.430664 0.351509 0.998166
Si Si4 0.160991 0.087503 0.540972
Si Si5 0.243189 0.646492 0.983657
Si Si6 0.949390 0.997249 0.644304
Si Si7 0.645769 0.516226 0.229961
O O1 0.183491 0.250000 0.198753
O O2 0.250000 0.139218 0.250000
O O3 0.164590 0.084713 0.249835
O O4 0.210710 0.108812 0.096658
O O5 0.303368 0.250000 0.708760
O O6 0.250000 0.387393 0.750000
O O7 0.279230 0.364952 0.580245
O O8 0.337350 0.415384 0.692107
O O9 0.452859 0.250000 0.000120
O O10 0.376073 0.333938 0.977835
O O11 0.451360 0.413916 0.919180
O O12 0.440160 0.402568 0.092295
O O13 0.207486 0.098271 0.484424
O O14 0.170230 0.065777 0.644963
O O15 0.134327 0.000000 0.500000
O O16 0.253856 0.750000 0.960112
O O17 0.000000 0.990469 0.690570
O O18 0.909471 0.010879 0.719567
#
# Coordination Sequence:
#
# PCOD8298907 Si02
#       7
#    16  16  16  16  16  16  16
#     4  10  22  36  51  76 109 142 178 215 255 310
#     4  10  20  33  52  79 108 138 177 219 256 310
#     4  10  19  33  54  76 104 140 177 218 264 313
#     4  11  19  31  47  77 107 145 181 210 247 305
#     4  10  21  34  51  75 108 148 183 215 254 307
#     4  10  22  38  51  74 104 132 180 230 270 319
#     4  11  21  35  52  74 103 142 174 218 267 307
#
# _framework density 17.654074000000001
#
# number of rings (size 3 to 8) (size 9 to 14) (size 15 to 20)
#    0.000    1.714    4.286    2.571    2.000    4.000 
#    0.000    0.000    0.000    0.000    0.000    2.000 
#    0.000    3.429    0.000    0.000    0.000    0.000 
#
# Total GULP energy -693806.933628 kJ/mol
# GULP energy per Si atom -12389.409529 kJ/mol
# Density = 1.761389 g / cm^3
# Si number density = 17.654074 Si / 1000 Ang^3
#
#
#
# Elastic Constant Matrix: (Units=GPa)
#
#
# Indices 1 2 3 4 5 6 
#
# 1 124.0550 40.4065 31.2494 0.0000 0.0000 0.0000
# 2 40.4065 94.6990 17.4059 0.0000 0.0000 0.0000
# 3 31.2494 17.4059 60.4872 0.0000 0.0000 0.0000
# 4 0.0000 0.0000 0.0000 16.9740 0.0000 0.0000
# 5 0.0000 0.0000 0.0000 0.0000 13.8374 0.0000
# 6 0.0000 0.0000 0.0000 0.0000 0.0000 2.5013
#
#
#
# Elastic Compliance Matrix: (Units=1/GPa)
#
#
# Indices 1 2 3 4 5 6 
#
# 1 0.010319 -0.003614 -0.004291 0.000000 0.000000 0.000000
# 2 -0.003614 0.012415 -0.001705 0.000000 0.000000 0.000000
# 3 -0.004291 -0.001705 0.019240 0.000000 0.000000 0.000000
# 4 0.000000 0.000000 0.000000 0.058914 0.000000 0.000000
# 5 0.000000 0.000000 0.000000 0.000000 0.072268 0.000000
# 6 0.000000 0.000000 0.000000 0.000000 0.000000 0.399794
#
#
# Mechanical properties :
#
#
# Convention : Reuss Voigt Hill
#
# Bulk Modulus (GPa) = 43.95032 50.81831 47.38432
# Shear Modulus (GPa) = 8.33672 19.34117 13.83894
#
# Velocity S-wave (km/s) = 2.17543 3.31352 2.80285
# Velocity P-wave (km/s) = 5.59101 6.59449 6.11337
#
# Compressibility (1/GPa) = 0.02275296
#
# Stress axis : x y z
#
# Youngs Moduli (GPa) = 96.90787 80.54521 51.97481
#
# Poissons Ratio (x) = 0.29111 0.22303
# Poissons Ratio (y) = 0.35025 0.08864
# Poissons Ratio (z) = 0.41584 0.13737
#
# Static dielectric constant tensor:
#      x y z
#    x 3.175650 0.000000 0.000000 
#    y 0.000000 3.432040 0.000000 
#    z 0.000000 0.000000 3.414190 
# 
# 
# High freq. dielectric constant tensor:
#      x y z
#    x 1.659320 0.000000 0.000000 
#    y 0.000000 1.697730 0.000000 
#    z 0.000000 0.000000 1.655760 
# 
# From -- ./inp_files/37960.got.cif
#   From: 2010.03.12/outbox.cif.g09.slc.cpg/sg74_19_cif.got.tgz:37960.got - 2010.04.16 15:46:19.
