data_PCOD8298440
_publ_section_title
;
Structure prediction by ZEFSAII (Michael W. Deem and Ramdas Pophale) SiO2 
 PCOD8298440
Probable space group: I M M A
;
_chemical_formula_sum "Si O2"
_cell_formula_units_Z 104
_cell_length_a 28.406120
_cell_length_b 8.591531
_cell_length_c 28.378477
_cell_angle_alpha 90.000000
_cell_angle_beta 90.000000
_cell_angle_gamma 90.000000
_cell_volume 6925.825788
_symmetry_space_group_name_H-M "I M M A"
_symmetry_group_IT_number 74
_symmetry_cell_setting 'orthorhombic'
loop_
_space_group_symop_operation_xyz
x,y,z
-x,1/2-y,z
x,-y,-z
-x,1/2+y,-z
-x,-y,-z
x,1/2+y,-z
-x,y,z
x,1/2-y,z
1/2+x,1/2+y,1/2+z
1/2-x,-y,1/2+z
1/2+x,1/2-y,1/2-z
1/2-x,y,1/2-z
1/2-x,1/2-y,1/2-z
1/2+x,y,1/2-z
1/2-x,1/2+y,1/2+z
1/2+x,-y,1/2+z
loop_
_atom_site_type_symbol
_atom_site_label
_atom_site_fract_x
_atom_site_fract_y
_atom_site_fract_z
Si Si1 0.054935 0.567895 0.685148
Si Si2 0.820153 0.065487 0.449159
Si Si3 0.216464 0.933366 0.356396
Si Si4 0.500000 0.576840 0.951295
Si Si5 0.288394 0.924252 0.709760
Si Si6 0.140314 0.432949 0.723157
Si Si7 0.913568 0.570619 0.406790
O O1 0.056210 0.750000 0.672220
O O2 0.090103 0.527337 0.728170
O O3 0.085176 0.460221 0.648779
O O4 0.000000 0.515834 0.692389
O O5 0.826468 0.250000 0.452540
O O6 0.803102 0.000000 0.500000
O O7 0.784936 0.021259 0.406841
O O8 0.868601 0.982370 0.435483
O O9 0.214685 0.750000 0.365784
O O10 0.172514 0.980836 0.322579
O O11 0.266206 0.981841 0.333974
O O12 0.500000 0.750000 0.966116
O O13 0.544446 0.539095 0.920927
O O14 0.500000 0.500000 0.000000
O O15 0.303283 0.750000 0.693976
O O16 0.250000 0.912764 0.750000
O O17 0.332846 0.019712 0.729037
O O18 0.130909 0.250000 0.723516
O O19 0.922964 0.750000 0.418320
#
# Coordination Sequence:
#
# PCOD8298440 Si02
#       7
#    16  16  16   8  16  16  16
#     4  11  22  34  49  67  89 117 151 188 230 276
#     4  12  24  37  51  66  88 116 150 187 230 276
#     4  10  19  32  49  70  93 115 146 184 227 273
#     4  12  24  38  50  62  76  98 134 182 232 278
#     4   9  17  29  47  70  93 116 144 177 222 271
#     4  10  19  31  49  69  92 117 146 185 228 272
#     4  12  23  36  50  64  82 107 142 185 231 276
#
# _framework density 15.016260000000001
#
# number of rings (size 3 to 8) (size 9 to 14) (size 15 to 20)
#    0.000    1.231    2.308    5.769    0.000    4.000 
#    0.000    0.000    0.000    0.000    0.000    0.000 
#    0.000    0.000    0.000    0.000    0.000    0.769 
#
# Total GULP energy -644332.633295 kJ/mol
# GULP energy per Si atom -12391.012179 kJ/mol
# Density = 1.498208 g / cm^3
# Si number density = 15.016260 Si / 1000 Ang^3
#
#
#
# Elastic Constant Matrix: (Units=GPa)
#
#
# Indices 1 2 3 4 5 6 
#
# 1 64.5452 26.7696 45.5039 0.0000 0.0000 0.0000
# 2 26.7696 89.7325 19.2079 0.0000 0.0000 0.0000
# 3 45.5039 19.2079 63.0725 0.0000 0.0000 0.0000
# 4 0.0000 0.0000 0.0000 24.2814 0.0000 0.0000
# 5 0.0000 0.0000 0.0000 0.0000 21.8478 0.0000
# 6 0.0000 0.0000 0.0000 0.0000 0.0000 23.7199
#
#
#
# Elastic Compliance Matrix: (Units=1/GPa)
#
#
# Indices 1 2 3 4 5 6 
#
# 1 0.033638 -0.005178 -0.022691 0.000000 0.000000 0.000000
# 2 -0.005178 0.012718 -0.000138 0.000000 0.000000 0.000000
# 3 -0.022691 -0.000138 0.032267 0.000000 0.000000 0.000000
# 4 0.000000 0.000000 0.000000 0.041184 0.000000 0.000000
# 5 0.000000 0.000000 0.000000 0.000000 0.045771 0.000000
# 6 0.000000 0.000000 0.000000 0.000000 0.000000 0.042159
#
#
# Mechanical properties :
#
#
# Convention : Reuss Voigt Hill
#
# Bulk Modulus (GPa) = 44.22811 44.47923 44.35367
# Shear Modulus (GPa) = 18.43068 22.36107 20.39588
#
# Velocity S-wave (km/s) = 3.50720 3.86310 3.68945
# Velocity P-wave (km/s) = 6.77628 7.04153 6.91018
#
# Compressibility (1/GPa) = 0.02261006
#
# Stress axis : x y z
#
# Youngs Moduli (GPa) = 29.72867 78.62639 30.99111
#
# Poissons Ratio (x) = 0.40711 0.70322
# Poissons Ratio (y) = 0.15393 0.00427
# Poissons Ratio (z) = 0.67458 0.01082
#
# Static dielectric constant tensor:
#      x y z
#    x 2.893580 0.000000 0.000000 
#    y 0.000000 3.037690 0.000000 
#    z 0.000000 0.000000 2.910100 
# 
# 
# High freq. dielectric constant tensor:
#      x y z
#    x 1.550870 0.000000 0.000000 
#    y 0.000000 1.597870 0.000000 
#    z 0.000000 0.000000 1.543210 
# 
# From -- ./inp_files/62661.got.cif
#   From: 2010.03.12/outbox.cif.g09.slc.cpg/sg74_32_cif.got.tgz:62661.got - 2010.04.16 15:46:19.
