data_PCOD8298263
_publ_section_title
;
Structure prediction by ZEFSAII (Michael W. Deem and Ramdas Pophale) SiO2 
 PCOD8298263
Probable space group: I M M A
;
_chemical_formula_sum "Si O2"
_cell_formula_units_Z 112
_cell_length_a 14.150958
_cell_length_b 17.384074
_cell_length_c 27.711033
_cell_angle_alpha 90.000000
_cell_angle_beta 90.000000
_cell_angle_gamma 90.000000
_cell_volume 6816.950171
_symmetry_space_group_name_H-M "I M M A"
_symmetry_group_IT_number 74
_symmetry_cell_setting 'orthorhombic'
loop_
_space_group_symop_operation_xyz
x,y,z
-x,1/2-y,z
x,-y,-z
-x,1/2+y,-z
-x,-y,-z
x,1/2+y,-z
-x,y,z
x,1/2-y,z
1/2+x,1/2+y,1/2+z
1/2-x,-y,1/2+z
1/2+x,1/2-y,1/2-z
1/2-x,y,1/2-z
1/2-x,1/2-y,1/2-z
1/2+x,y,1/2-z
1/2-x,1/2+y,1/2+z
1/2+x,-y,1/2+z
loop_
_atom_site_type_symbol
_atom_site_label
_atom_site_fract_x
_atom_site_fract_y
_atom_site_fract_z
Si Si1 0.891992 0.335939 0.275101
Si Si2 0.774218 0.520937 0.696548
Si Si3 0.606879 0.836235 0.567760
Si Si4 0.887818 0.471288 0.611365
Si Si5 0.109828 0.163204 0.539639
Si Si6 0.104406 0.107462 0.170768
Si Si7 0.282265 0.429763 0.035627
O O1 0.864025 0.250000 0.291732
O O2 0.825958 0.396668 0.301563
O O3 0.876352 0.341244 0.217822
O O4 0.000000 0.354107 0.289126
O O5 0.750000 0.487053 0.750000
O O6 0.840681 0.464731 0.664792
O O7 0.675807 0.535001 0.668693
O O8 0.500000 0.858168 0.551668
O O9 0.631649 0.750000 0.550038
O O10 0.615670 0.836652 0.625484
O O11 0.678207 0.898624 0.546632
O O12 0.863952 0.391484 0.584579
O O13 0.840318 0.542943 0.582884
O O14 0.000000 0.485008 0.615512
O O15 0.140169 0.250000 0.553180
O O16 0.160184 0.137810 0.490447
O O17 0.000000 0.157102 0.528264
O O18 0.000000 0.070464 0.172398
O O19 0.268715 0.500000 0.000000
#
# Coordination Sequence:
#
# PCOD8298263 Si02
#       7
#    16  16  16  16  16  16  16
#     4   9  17  28  41  60  88 121 157 193 229 272
#     4  10  19  30  46  67  92 125 160 199 238 284
#     4  10  19  30  45  65  90 123 163 200 231 269
#     4  10  19  33  51  74 102 128 157 197 243 290
#     4   9  18  33  54  77 100 127 157 190 238 301
#     4   9  17  29  43  59  83 119 161 195 223 265
#     4  10  19  32  50  72  98 127 157 195 243 290
#
# _framework density 16.429634
#
# number of rings (size 3 to 8) (size 9 to 14) (size 15 to 20)
#    0.000    2.429    1.429    1.714    0.000    7.429 
#    0.000    0.000    0.000    3.000    0.000    0.000 
#    0.000    0.000    0.000    0.000    0.000    0.000 
#
# Total GULP energy -694160.932605 kJ/mol
# GULP energy per Si atom -12395.730939 kJ/mol
# Density = 1.639224 g / cm^3
# Si number density = 16.429634 Si / 1000 Ang^3
#
#
#
# Elastic Constant Matrix: (Units=GPa)
#
#
# Indices 1 2 3 4 5 6 
#
# 1 91.2442 39.6844 37.9627 0.0000 0.0000 0.0000
# 2 39.6844 64.8790 30.7308 0.0000 0.0000 0.0000
# 3 37.9627 30.7308 74.2159 0.0000 0.0000 0.0000
# 4 0.0000 0.0000 0.0000 14.4903 0.0000 0.0000
# 5 0.0000 0.0000 0.0000 0.0000 25.9719 0.0000
# 6 0.0000 0.0000 0.0000 0.0000 0.0000 22.1177
#
#
#
# Elastic Compliance Matrix: (Units=1/GPa)
#
#
# Indices 1 2 3 4 5 6 
#
# 1 0.016444 -0.007556 -0.005283 0.000000 0.000000 0.000000
# 2 -0.007556 0.022646 -0.005512 0.000000 0.000000 0.000000
# 3 -0.005283 -0.005512 0.018459 0.000000 0.000000 0.000000
# 4 0.000000 0.000000 0.000000 0.069012 0.000000 0.000000
# 5 0.000000 0.000000 0.000000 0.000000 0.038503 0.000000
# 6 0.000000 0.000000 0.000000 0.000000 0.000000 0.045213
#
#
# Mechanical properties :
#
#
# Convention : Reuss Voigt Hill
#
# Bulk Modulus (GPa) = 47.96796 49.67720 48.82258
# Shear Modulus (GPa) = 19.69076 20.64671 20.16874
#
# Velocity S-wave (km/s) = 3.46568 3.54881 3.50749
# Velocity P-wave (km/s) = 6.72859 6.86251 6.79588
#
# Compressibility (1/GPa) = 0.02084725
#
# Stress axis : x y z
#
# Youngs Moduli (GPa) = 60.81357 44.15816 54.17498
#
# Poissons Ratio (x) = 0.33366 0.28618
# Poissons Ratio (y) = 0.45950 0.29861
# Poissons Ratio (z) = 0.32125 0.24340
#
# Static dielectric constant tensor:
#      x y z
#    x 3.348070 0.000000 0.000000 
#    y 0.000000 2.876350 0.000000 
#    z 0.000000 0.000000 3.036440 
# 
# 
# High freq. dielectric constant tensor:
#      x y z
#    x 1.649000 0.000000 0.000000 
#    y 0.000000 1.595210 0.000000 
#    z 0.000000 0.000000 1.621110 
# 
# From -- ./inp_files/67170.got.cif
#   From: 2010.03.12/outbox.cif.g09.slc.cpg/sg74_34_cif.got.tgz:67170.got - 2010.04.16 15:46:19.
