data_PCOD8298412
_publ_section_title
;
Structure prediction by ZEFSAII (Michael W. Deem and Ramdas Pophale) SiO2 
 PCOD8298412
Probable space group: I M M A
;
_chemical_formula_sum "Si O2"
_cell_formula_units_Z 96
_cell_length_a 9.445354
_cell_length_b 23.289023
_cell_length_c 24.208597
_cell_angle_alpha 90.000000
_cell_angle_beta 90.000000
_cell_angle_gamma 90.000000
_cell_volume 5325.239319
_symmetry_space_group_name_H-M "I M M A"
_symmetry_group_IT_number 74
_symmetry_cell_setting 'orthorhombic'
loop_
_space_group_symop_operation_xyz
x,y,z
-x,1/2-y,z
x,-y,-z
-x,1/2+y,-z
-x,-y,-z
x,1/2+y,-z
-x,y,z
x,1/2-y,z
1/2+x,1/2+y,1/2+z
1/2-x,-y,1/2+z
1/2+x,1/2-y,1/2-z
1/2-x,y,1/2-z
1/2-x,1/2-y,1/2-z
1/2+x,y,1/2-z
1/2-x,1/2+y,1/2+z
1/2+x,-y,1/2+z
loop_
_atom_site_type_symbol
_atom_site_label
_atom_site_fract_x
_atom_site_fract_y
_atom_site_fract_z
Si Si1 0.161779 0.684510 0.095570
Si Si2 0.332617 0.316115 0.014379
Si Si3 0.835734 0.619721 0.895884
Si Si4 0.664866 0.104976 0.696233
Si Si5 0.834806 0.525875 0.804882
Si Si6 0.150979 0.816017 0.794466
O O1 0.173421 0.750000 0.115740
O O2 0.212269 0.644433 0.145454
O O3 0.000000 0.670305 0.077589
O O4 0.267299 0.672614 0.045426
O O5 0.500000 0.326277 0.012538
O O6 0.298296 0.250000 0.032987
O O7 0.264231 0.366241 0.052435
O O8 0.793482 0.563890 0.859157
O O9 0.801938 0.674784 0.857095
O O10 0.000000 0.616546 0.915190
O O11 0.500000 0.112555 0.709463
O O12 0.750000 0.125089 0.750000
O O13 0.703106 0.039591 0.680130
O O14 0.750000 0.545311 0.750000
O O15 0.000000 0.532834 0.791709
O O16 0.138011 0.750000 0.780134
O O17 0.250000 0.847059 0.750000
O O18 0.000000 0.847399 0.787214
#
# Coordination Sequence:
#
# PCOD8298412 Si02
#       6
#    16  16  16  16  16  16
#     4   9  18  34  55  76 100 132 166 199 241 296
#     4  10  21  35  51  73  99 127 163 209 256 296
#     4  10  19  31  48  68  92 128 170 204 240 292
#     4   9  18  33  53  78 106 133 162 198 242 293
#     4   9  18  32  50  73 101 133 168 206 248 292
#     4   9  17  27  39  58  84 113 148 193 241 284
#
# _framework density 18.027356999999999
#
# number of rings (size 3 to 8) (size 9 to 14) (size 15 to 20)
#    0.000    2.667    0.000    1.500    0.000    4.000 
#    0.000    2.500    0.000    5.000    0.000    0.000 
#    0.000    0.000    0.000    0.000    0.000    0.000 
#
# Total GULP energy -594715.400877 kJ/mol
# GULP energy per Si atom -12389.904185 kJ/mol
# Density = 1.798633 g / cm^3
# Si number density = 18.027357 Si / 1000 Ang^3
#
#
#
# Elastic Constant Matrix: (Units=GPa)
#
#
# Indices 1 2 3 4 5 6 
#
# 1 80.4026 42.6350 69.3562 0.0000 0.0000 0.0000
# 2 42.6350 90.0875 68.8597 0.0000 0.0000 0.0000
# 3 69.3562 68.8597 127.2168 0.0000 0.0000 0.0000
# 4 0.0000 0.0000 0.0000 39.3359 0.0000 0.0000
# 5 0.0000 0.0000 0.0000 0.0000 35.6860 0.0000
# 6 0.0000 0.0000 0.0000 0.0000 0.0000 17.2139
#
#
#
# Elastic Compliance Matrix: (Units=1/GPa)
#
#
# Indices 1 2 3 4 5 6 
#
# 1 0.023753 -0.002291 -0.011710 0.000000 0.000000 0.000000
# 2 -0.002291 0.019155 -0.009119 0.000000 0.000000 0.000000
# 3 -0.011710 -0.009119 0.019181 0.000000 0.000000 0.000000
# 4 0.000000 0.000000 0.000000 0.025422 0.000000 0.000000
# 5 0.000000 0.000000 0.000000 0.000000 0.028022 0.000000
# 6 0.000000 0.000000 0.000000 0.000000 0.000000 0.058092
#
#
# Mechanical properties :
#
#
# Convention : Reuss Voigt Hill
#
# Bulk Modulus (GPa) = 63.09581 73.26762 68.18172
# Shear Modulus (GPa) = 22.20762 26.23757 24.22259
#
# Velocity S-wave (km/s) = 3.51363 3.81915 3.66957
# Velocity P-wave (km/s) = 7.17891 7.75748 7.47380
#
# Compressibility (1/GPa) = 0.01584891
#
# Stress axis : x y z
#
# Youngs Moduli (GPa) = 42.09960 52.20599 52.13626
#
# Poissons Ratio (x) = 0.11960 0.61050
# Poissons Ratio (y) = 0.09645 0.47544
# Poissons Ratio (z) = 0.49298 0.47607
#
# Static dielectric constant tensor:
#      x y z
#    x 3.498790 0.000000 0.000000 
#    y 0.000000 3.364600 0.000000 
#    z 0.000000 0.000000 3.220560 
# 
# 
# High freq. dielectric constant tensor:
#      x y z
#    x 1.696000 0.000000 0.000000 
#    y 0.000000 1.695800 0.000000 
#    z 0.000000 0.000000 1.686330 
# 
# From -- ./inp_files/57306.got.cif
#   From: 2010.03.12/outbox.cif.g09.slc.cpg/sg74_29_cif.got.tgz:57306.got - 2010.04.16 15:46:19.
