data_PCOD8298939
_publ_section_title
;
Structure prediction by ZEFSAII (Michael W. Deem and Ramdas Pophale) SiO2 
 PCOD8298939
Probable space group: I M M A
;
_chemical_formula_sum "Si O2"
_cell_formula_units_Z 88
_cell_length_a 19.452298
_cell_length_b 9.025265
_cell_length_c 24.852609
_cell_angle_alpha 90.000000
_cell_angle_beta 90.000000
_cell_angle_gamma 90.000000
_cell_volume 4363.177328
_symmetry_space_group_name_H-M "I M M A"
_symmetry_group_IT_number 74
_symmetry_cell_setting 'orthorhombic'
loop_
_space_group_symop_operation_xyz
x,y,z
-x,1/2-y,z
x,-y,-z
-x,1/2+y,-z
-x,-y,-z
x,1/2+y,-z
-x,y,z
x,1/2-y,z
1/2+x,1/2+y,1/2+z
1/2-x,-y,1/2+z
1/2+x,1/2-y,1/2-z
1/2-x,y,1/2-z
1/2-x,1/2-y,1/2-z
1/2+x,y,1/2-z
1/2-x,1/2+y,1/2+z
1/2+x,-y,1/2+z
loop_
_atom_site_type_symbol
_atom_site_label
_atom_site_fract_x
_atom_site_fract_y
_atom_site_fract_z
Si Si1 0.115341 0.415334 0.551358
Si Si2 0.671356 0.573952 0.260335
Si Si3 0.721806 0.416904 0.551862
Si Si4 0.868536 0.925510 0.868810
Si Si5 0.076326 0.424899 0.665396
Si Si6 0.500000 0.424898 0.440804
O O1 0.084944 0.500000 0.500000
O O2 0.085662 0.250000 0.548068
O O3 0.196984 0.414345 0.550258
O O4 0.090456 0.494159 0.606384
O O5 0.666153 0.750000 0.269063
O O6 0.750000 0.524989 0.250000
O O7 0.632260 0.495400 0.309576
O O8 0.630586 0.514945 0.208294
O O9 0.690798 0.500000 0.500000
O O10 0.692038 0.250000 0.553560
O O11 0.699509 0.508638 0.603831
O O12 0.863775 0.750000 0.863719
O O13 0.934271 0.973545 0.904829
O O14 0.086489 0.250000 0.660399
O O15 0.000000 0.467662 0.684750
O O16 0.500000 0.250000 0.450698
O O17 0.500000 0.500000 0.500000
#
# Coordination Sequence:
#
# PCOD8298939 Si02
#       6
#    16  16  16  16  16   8
#     4   9  18  33  54  80 111 143 178 224 274 325
#     4  10  21  38  60  85 112 146 193 244 291 345
#     4  10  19  33  54  81 111 145 184 232 283 333
#     4  11  23  38  57  82 114 151 191 238 292 350
#     4   9  18  33  54  79 108 143 184 227 272 328
#     4  10  24  42  58  82 118 156 195 242 295 356
#
# _framework density 20.168789
#
# number of rings (size 3 to 8) (size 9 to 14) (size 15 to 20)
#    0.000    2.182    0.000    2.727    1.273    7.273 
#    0.000    0.909    0.000    1.091    0.000    0.000 
#    0.000    0.000    0.000    0.000    0.000    0.000 
#
# Total GULP energy -545489.242411 kJ/mol
# GULP energy per Si atom -12397.482782 kJ/mol
# Density = 2.012288 g / cm^3
# Si number density = 20.168789 Si / 1000 Ang^3
#
#
#
# Elastic Constant Matrix: (Units=GPa)
#
#
# Indices 1 2 3 4 5 6 
#
# 1 82.0726 31.7606 69.8585 0.0000 0.0000 0.0000
# 2 31.7606 64.3061 50.0873 0.0000 0.0000 0.0000
# 3 69.8585 50.0873 190.2977 0.0000 0.0000 0.0000
# 4 0.0000 0.0000 0.0000 37.9078 0.0000 0.0000
# 5 0.0000 0.0000 0.0000 0.0000 32.6370 0.0000
# 6 0.0000 0.0000 0.0000 0.0000 0.0000 11.5604
#
#
#
# Elastic Compliance Matrix: (Units=1/GPa)
#
#
# Indices 1 2 3 4 5 6 
#
# 1 0.018893 -0.004942 -0.005635 0.000000 0.000000 0.000000
# 2 -0.004942 0.020854 -0.003674 0.000000 0.000000 0.000000
# 3 -0.005635 -0.003674 0.008291 0.000000 0.000000 0.000000
# 4 0.000000 0.000000 0.000000 0.026380 0.000000 0.000000
# 5 0.000000 0.000000 0.000000 0.000000 0.030640 0.000000
# 6 0.000000 0.000000 0.000000 0.000000 0.000000 0.086502
#
#
# Mechanical properties :
#
#
# Convention : Reuss Voigt Hill
#
# Bulk Modulus (GPa) = 51.19250 71.12103 61.15676
# Shear Modulus (GPa) = 22.06783 28.75238 25.41010
#
# Velocity S-wave (km/s) = 3.31139 3.77979 3.55332
# Velocity P-wave (km/s) = 6.32911 7.37486 6.87190
#
# Compressibility (1/GPa) = 0.01953411
#
# Stress axis : x y z
#
# Youngs Moduli (GPa) = 52.92901 47.95333 120.61843
#
# Poissons Ratio (x) = 0.23700 0.67967
# Poissons Ratio (y) = 0.26160 0.44320
# Poissons Ratio (z) = 0.29825 0.17620
#
# Static dielectric constant tensor:
#      x y z
#    x 3.603330 0.000000 0.000000 
#    y 0.000000 3.561660 0.000000 
#    z 0.000000 0.000000 3.985610 
# 
# 
# High freq. dielectric constant tensor:
#      x y z
#    x 1.788620 0.000000 0.000000 
#    y 0.000000 1.759580 0.000000 
#    z 0.000000 0.000000 1.804680 
# 
# From -- ./inp_files/56947.got.cif
#   From: 2010.03.12/outbox.cif.g09.slc.cpg/sg74_29_cif.got.tgz:56947.got - 2010.04.16 15:46:19.
