data_PCOD8298506
_publ_section_title
;
Structure prediction by ZEFSAII (Michael W. Deem and Ramdas Pophale) SiO2 
 PCOD8298506
Probable space group: I M M A
;
_chemical_formula_sum "Si O2"
_cell_formula_units_Z 80
_cell_length_a 17.328382
_cell_length_b 29.182596
_cell_length_c 8.315572
_cell_angle_alpha 90.000000
_cell_angle_beta 90.000000
_cell_angle_gamma 90.000000
_cell_volume 4205.078082
_symmetry_space_group_name_H-M "I M M A"
_symmetry_group_IT_number 74
_symmetry_cell_setting 'orthorhombic'
loop_
_space_group_symop_operation_xyz
x,y,z
-x,1/2-y,z
x,-y,-z
-x,1/2+y,-z
-x,-y,-z
x,1/2+y,-z
-x,y,z
x,1/2-y,z
1/2+x,1/2+y,1/2+z
1/2-x,-y,1/2+z
1/2+x,1/2-y,1/2-z
1/2-x,y,1/2-z
1/2-x,1/2-y,1/2-z
1/2+x,y,1/2-z
1/2-x,1/2+y,1/2+z
1/2+x,-y,1/2+z
loop_
_atom_site_type_symbol
_atom_site_label
_atom_site_fract_x
_atom_site_fract_y
_atom_site_fract_z
Si Si1 0.908907 0.392730 0.921445
Si Si2 0.183830 0.622501 0.371390
Si Si3 0.775155 0.050869 0.065676
Si Si4 0.179317 0.801816 0.634571
Si Si5 0.589231 0.700740 0.566256
O O1 0.890246 0.395383 0.731043
O O2 0.000000 0.400579 0.953151
O O3 0.860705 0.428512 0.030696
O O4 0.876989 0.342194 0.969891
O O5 0.250000 0.638507 0.250000
O O6 0.210114 0.579013 0.473116
O O7 0.164841 0.665416 0.484133
O O8 0.750000 0.052003 0.250000
O O9 0.774806 0.000000 0.000000
O O10 0.193255 0.750000 0.571934
O O11 0.250000 0.817791 0.750000
O O12 0.102908 0.805374 0.743380
O O13 0.500000 0.702479 0.531213
O O14 0.626469 0.750000 0.511110
#
# Coordination Sequence:
#
# PCOD8298506 Si02
#       5
#    16  16  16  16  16
#     4  10  21  36  56  83 113 143 179 226 272 317
#     4  10  20  34  52  77 108 141 179 218 266 326
#     4  11  22  40  63  82 105 140 179 219 270 332
#     4  10  19  31  50  76 106 141 184 230 266 305
#     4   9  18  33  51  72 103 143 180 213 259 316
#
# _framework density 19.024616999999999
#
# number of rings (size 3 to 8) (size 9 to 14) (size 15 to 20)
#    0.000    2.000    0.000    6.000    0.000    2.400 
#    0.000    1.000    0.000    2.400    0.000    0.000 
#    0.000    0.000    0.000    0.000    0.000    0.000 
#
# Total GULP energy -495696.736936 kJ/mol
# GULP energy per Si atom -12392.418423 kJ/mol
# Density = 1.898132 g / cm^3
# Si number density = 19.024617 Si / 1000 Ang^3
#
#
#
# Elastic Constant Matrix: (Units=GPa)
#
#
# Indices 1 2 3 4 5 6 
#
# 1 64.4766 46.0359 46.4838 -0.0016 -0.0002 0.0017
# 2 46.0359 144.9932 70.0782 0.0053 0.0002 -0.0021
# 3 46.4838 70.0782 124.0743 -0.0268 -0.0037 0.0241
# 4 -0.0016 0.0053 -0.0268 35.8522 -0.0003 0.0070
# 5 -0.0002 0.0002 -0.0037 -0.0003 26.8532 -0.0009
# 6 0.0017 -0.0021 0.0241 0.0070 -0.0009 5.2607
#
#
#
# Elastic Compliance Matrix: (Units=1/GPa)
#
#
# Indices 1 2 3 4 5 6 
#
# 1 0.023068 -0.004329 -0.006197 -0.000003 -0.000001 0.000019
# 2 -0.004329 0.010299 -0.004195 -0.000005 -0.000001 0.000025
# 3 -0.006197 -0.004195 0.012751 0.000010 0.000002 -0.000058
# 4 -0.000003 -0.000005 0.000010 0.027892 0.000000 -0.000037
# 5 -0.000001 -0.000001 0.000002 0.000000 0.037240 0.000006
# 6 0.000019 0.000025 -0.000058 -0.000037 0.000006 0.190088
#
#
# Mechanical properties :
#
#
# Convention : Reuss Voigt Hill
#
# Bulk Modulus (GPa) = 59.96902 73.19332 66.58117
# Shear Modulus (GPa) = 14.86594 24.98963 19.92778
#
# Velocity S-wave (km/s) = 2.79840 3.62821 3.23998
# Velocity P-wave (km/s) = 6.48318 7.49055 7.00500
#
# Compressibility (1/GPa) = 0.01667528
#
# Stress axis : x y z
#
# Youngs Moduli (GPa) = 43.34952 97.09774 78.42544
#
# Poissons Ratio (x) = 0.42033 0.48604
# Poissons Ratio (y) = 0.18766 0.32900
# Poissons Ratio (z) = 0.26866 0.40733
#
# Static dielectric constant tensor:
#      x y z
#    x 3.402520 0.000000 -0.000020 
#    y 0.000000 3.796710 0.000030 
#    z -0.000020 0.000030 3.753160 
# 
# 
# High freq. dielectric constant tensor:
#      x y z
#    x 1.727900 0.000000 0.000000 
#    y 0.000000 1.748430 0.000000 
#    z 0.000000 0.000000 1.735880 
# 
# From -- ./inp_files/10944.got.cif
#   From: 2010.03.12/outbox.cif.g09.slc.cpg/sg74_6_cif.got.tgz:10944.got - 2010.04.16 15:46:19.
