data_PCOD8298095
_publ_section_title
;
Structure prediction by ZEFSAII (Michael W. Deem and Ramdas Pophale) SiO2 
 PCOD8298095
Probable space group: I M M A
;
_chemical_formula_sum "Si O2"
_cell_formula_units_Z 76
_cell_length_a 11.028118
_cell_length_b 14.555772
_cell_length_c 25.476467
_cell_angle_alpha 90.000000
_cell_angle_beta 90.000000
_cell_angle_gamma 90.000000
_cell_volume 4089.553083
_symmetry_space_group_name_H-M "I M M A"
_symmetry_group_IT_number 74
_symmetry_cell_setting 'orthorhombic'
loop_
_space_group_symop_operation_xyz
x,y,z
-x,1/2-y,z
x,-y,-z
-x,1/2+y,-z
-x,-y,-z
x,1/2+y,-z
-x,y,z
x,1/2-y,z
1/2+x,1/2+y,1/2+z
1/2-x,-y,1/2+z
1/2+x,1/2-y,1/2-z
1/2-x,y,1/2-z
1/2-x,1/2-y,1/2-z
1/2+x,y,1/2-z
1/2-x,1/2+y,1/2+z
1/2+x,-y,1/2+z
loop_
_atom_site_type_symbol
_atom_site_label
_atom_site_fract_x
_atom_site_fract_y
_atom_site_fract_z
Si Si1 0.000000 0.595836 0.112950
Si Si2 0.645049 0.250000 0.892823
Si Si3 0.000000 0.750000 0.028341
Si Si4 0.240551 0.750000 0.511384
Si Si5 0.139368 0.564622 0.545557
Si Si6 0.742331 0.549053 0.134585
Si Si7 0.500000 0.349477 0.729516
Si Si8 0.250000 0.557471 0.250000
O O1 0.000000 0.660274 0.063318
O O2 0.877436 0.535587 0.110837
O O3 0.000000 0.653363 0.166671
O O4 0.500000 0.250000 0.885542
O O5 0.703107 0.342298 0.866729
O O6 0.676388 0.250000 0.954538
O O7 0.884348 0.750000 0.991485
O O8 0.205806 0.661656 0.545473
O O9 0.194623 0.500000 0.500000
O O10 0.151975 0.513420 0.601172
O O11 0.000000 0.584184 0.533846
O O12 0.745050 0.505908 0.193745
O O13 0.500000 0.250000 0.753991
O O14 0.376598 0.389889 0.751769
#
# Coordination Sequence:
#
# PCOD8298095 Si02
#       8
#     8   8   4   8  16  16   8   8
#     4  10  18  35  53  77 118 154 186 230 282 331
#     4  12  22  33  56  85 119 155 197 236 282 344
#     4  12  18  36  56  82 114 150 190 224 280 356
#     4  12  24  38  59  87 116 151 193 235 290 347
#     4  11  22  39  60  86 117 150 190 242 291 339
#     4  11  23  37  57  83 119 157 194 240 284 339
#     4  10  20  32  49  74 116 155 196 236 273 342
#     4  10  25  34  52  83 114 158 200 237 284 343
#
# _framework density 18.583938
#
# number of rings (size 3 to 8) (size 9 to 14) (size 15 to 20)
#    0.000    1.053    4.737    1.895    8.842    0.842 
#    0.000    2.105    0.000    0.632    0.000    0.000 
#    0.000    0.000    0.000    0.000    0.000    0.000 
#
# Total GULP energy -470895.501106 kJ/mol
# GULP energy per Si atom -12391.986871 kJ/mol
# Density = 1.854164 g / cm^3
# Si number density = 18.583938 Si / 1000 Ang^3
#
#
#
# Elastic Constant Matrix: (Units=GPa)
#
#
# Indices 1 2 3 4 5 6 
#
# 1 129.4114 24.1310 12.0048 0.0000 0.0000 0.0000
# 2 24.1310 87.0844 38.6340 0.0000 0.0000 0.0000
# 3 12.0048 38.6340 99.7353 0.0000 0.0000 0.0000
# 4 0.0000 0.0000 0.0000 0.6703 0.0000 0.0000
# 5 0.0000 0.0000 0.0000 0.0000 14.1692 0.0000
# 6 0.0000 0.0000 0.0000 0.0000 0.0000 26.0924
#
#
#
# Elastic Compliance Matrix: (Units=1/GPa)
#
#
# Indices 1 2 3 4 5 6 
#
# 1 0.008150 -0.002201 -0.000128 0.000000 0.000000 0.000000
# 2 -0.002201 0.014461 -0.005337 0.000000 0.000000 0.000000
# 3 -0.000128 -0.005337 0.012109 0.000000 0.000000 0.000000
# 4 0.000000 0.000000 0.000000 1.491861 0.000000 0.000000
# 5 0.000000 0.000000 0.000000 0.000000 0.070575 0.000000
# 6 0.000000 0.000000 0.000000 0.000000 0.000000 0.038325
#
#
# Mechanical properties :
#
#
# Convention : Reuss Voigt Hill
#
# Bulk Modulus (GPa) = 51.58059 51.75230 51.66644
# Shear Modulus (GPa) = 3.01700 24.28380 13.65040
#
# Velocity S-wave (km/s) = 1.27553 3.61876 2.71316
# Velocity P-wave (km/s) = 5.47586 6.73565 6.13816
#
# Compressibility (1/GPa) = 0.01938714
#
# Stress axis : x y z
#
# Youngs Moduli (GPa) = 122.70422 69.15337 82.58206
#
# Poissons Ratio (x) = 0.15223 0.01059
# Poissons Ratio (y) = 0.27012 0.44070
# Poissons Ratio (z) = 0.01573 0.36904
#
# Static dielectric constant tensor:
#      x y z
#    x 3.764470 0.000000 0.000000 
#    y 0.000000 3.098160 0.000000 
#    z 0.000000 0.000000 3.430520 
# 
# 
# High freq. dielectric constant tensor:
#      x y z
#    x 1.749400 0.000000 0.000000 
#    y 0.000000 1.665850 0.000000 
#    z 0.000000 0.000000 1.718530 
# 
# From -- ./inp_files/58600.got.cif
#   From: 2010.03.12/outbox.cif.g09.slc.cpg/sg74_30_cif.got.tgz:58600.got - 2010.04.16 15:46:19.
