data_PCOD8298859
_publ_section_title
;
Structure prediction by ZEFSAII (Michael W. Deem and Ramdas Pophale) SiO2 
 PCOD8298859
Probable space group: I M M A
;
_chemical_formula_sum "Si O2"
_cell_formula_units_Z 96
_cell_length_a 14.762642
_cell_length_b 10.660926
_cell_length_c 32.523275
_cell_angle_alpha 90.000000
_cell_angle_beta 90.000000
_cell_angle_gamma 90.000000
_cell_volume 5118.624702
_symmetry_space_group_name_H-M "I M M A"
_symmetry_group_IT_number 74
_symmetry_cell_setting 'orthorhombic'
loop_
_space_group_symop_operation_xyz
x,y,z
-x,1/2-y,z
x,-y,-z
-x,1/2+y,-z
-x,-y,-z
x,1/2+y,-z
-x,y,z
x,1/2-y,z
1/2+x,1/2+y,1/2+z
1/2-x,-y,1/2+z
1/2+x,1/2-y,1/2-z
1/2-x,y,1/2-z
1/2-x,1/2-y,1/2-z
1/2+x,y,1/2-z
1/2-x,1/2+y,1/2+z
1/2+x,-y,1/2+z
loop_
_atom_site_type_symbol
_atom_site_label
_atom_site_fract_x
_atom_site_fract_y
_atom_site_fract_z
Si Si1 0.393735 0.750000 0.977137
Si Si2 0.289796 0.987645 0.838795
Si Si3 0.598807 0.391556 0.324653
Si Si4 0.897524 0.528118 0.584096
Si Si5 0.398056 0.497606 0.239775
Si Si6 0.665246 0.250000 0.935158
Si Si7 0.606483 0.250000 0.714717
Si Si8 0.243957 0.250000 0.855358
O O1 0.500000 0.750000 0.991043
O O2 0.371237 0.878691 0.953056
O O3 0.323577 0.750000 0.015617
O O4 0.331841 0.943994 0.795485
O O5 0.306126 0.135668 0.840760
O O6 0.182118 0.966333 0.844066
O O7 0.338678 0.923674 0.877239
O O8 0.500000 0.448282 0.338212
O O9 0.606326 0.250000 0.339936
O O10 0.604135 0.393619 0.275240
O O11 0.887191 0.380464 0.574075
O O12 0.000000 0.553288 0.596808
O O13 0.500000 0.515821 0.222203
O O14 0.361916 0.627828 0.259868
O O15 0.757294 0.250000 0.906287
O O16 0.500000 0.250000 0.707501
O O17 0.648011 0.250000 0.668402
#
# Coordination Sequence:
#
# PCOD8298859 Si02
#       8
#     8  16  16  16  16   8   8   8
#     4  10  20  36  57  80 108 144 185 223 265 331
#     4  11  21  33  53  75 109 138 174 226 272 309
#     4  10  22  37  50  68  95 137 190 224 260 317
#     4  10  21  35  53  82 113 143 180 220 267 326
#     4  10  20  33  51  74 102 142 180 217 264 317
#     4  10  20  35  56  79 108 148 180 217 271 328
#     4  10  19  33  52  75 106 141 182 224 267 316
#     4  10  21  32  49  82 105 131 178 227 268 317
#
# _framework density 18.755037000000002
#
# number of rings (size 3 to 8) (size 9 to 14) (size 15 to 20)
#    0.000    1.833    1.667    2.750    1.167    3.333 
#    0.000    2.500    0.000    0.000    0.000    1.167 
#    0.000    5.333    0.000    0.000    0.000    0.000 
#
# Total GULP energy -594636.580795 kJ/mol
# GULP energy per Si atom -12388.262100 kJ/mol
# Density = 1.871235 g / cm^3
# Si number density = 18.755037 Si / 1000 Ang^3
#
#
#
# Elastic Constant Matrix: (Units=GPa)
#
#
# Indices 1 2 3 4 5 6 
#
# 1 103.4206 16.4732 59.0737 0.0000 0.0000 0.0000
# 2 16.4732 64.1046 17.2911 0.0000 0.0000 0.0000
# 3 59.0737 17.2911 116.9849 0.0000 0.0000 0.0000
# 4 0.0000 0.0000 0.0000 17.4276 0.0000 0.0000
# 5 0.0000 0.0000 0.0000 0.0000 26.0542 0.0000
# 6 0.0000 0.0000 0.0000 0.0000 0.0000 16.7944
#
#
#
# Elastic Compliance Matrix: (Units=1/GPa)
#
#
# Indices 1 2 3 4 5 6 
#
# 1 0.013771 -0.001732 -0.006698 0.000000 0.000000 0.000000
# 2 -0.001732 0.016465 -0.001559 0.000000 0.000000 0.000000
# 3 -0.006698 -0.001559 0.012161 0.000000 0.000000 0.000000
# 4 0.000000 0.000000 0.000000 0.057380 0.000000 0.000000
# 5 0.000000 0.000000 0.000000 0.000000 0.038382 0.000000
# 6 0.000000 0.000000 0.000000 0.000000 0.000000 0.059544
#
#
# Mechanical properties :
#
#
# Convention : Reuss Voigt Hill
#
# Bulk Modulus (GPa) = 44.60532 52.24292 48.42412
# Shear Modulus (GPa) = 22.20711 24.83339 23.52025
#
# Velocity S-wave (km/s) = 3.44475 3.64275 3.54514
# Velocity P-wave (km/s) = 6.29734 6.75343 6.52937
#
# Compressibility (1/GPa) = 0.02241885
#
# Stress axis : x y z
#
# Youngs Moduli (GPa) = 72.61644 60.73445 82.23164
#
# Poissons Ratio (x) = 0.10520 0.55078
# Poissons Ratio (y) = 0.12578 0.12820
# Poissons Ratio (z) = 0.48638 0.09468
#
# Static dielectric constant tensor:
#      x y z
#    x 3.399240 0.000000 0.000000 
#    y 0.000000 3.581450 0.000000 
#    z 0.000000 0.000000 3.395310 
# 
# 
# High freq. dielectric constant tensor:
#      x y z
#    x 1.709660 0.000000 0.000000 
#    y 0.000000 1.739670 0.000000 
#    z 0.000000 0.000000 1.703860 
# 
# From -- ./inp_files/72477.got.cif
#   From: 2010.03.12/outbox.cif.g09.slc.cpg/sg74_37_cif.got.tgz:72477.got - 2010.04.16 15:46:19.
