data_PCOD8298976
_publ_section_title
;
Structure prediction by ZEFSAII (Michael W. Deem and Ramdas Pophale) SiO2 
 PCOD8298976
Probable space group: I M M A
;
_chemical_formula_sum "Si O2"
_cell_formula_units_Z 80
_cell_length_a 9.541093
_cell_length_b 17.724921
_cell_length_c 23.716966
_cell_angle_alpha 90.000000
_cell_angle_beta 90.000000
_cell_angle_gamma 90.000000
_cell_volume 4010.897544
_symmetry_space_group_name_H-M "I M M A"
_symmetry_group_IT_number 74
_symmetry_cell_setting 'orthorhombic'
loop_
_space_group_symop_operation_xyz
x,y,z
-x,1/2-y,z
x,-y,-z
-x,1/2+y,-z
-x,-y,-z
x,1/2+y,-z
-x,y,z
x,1/2-y,z
1/2+x,1/2+y,1/2+z
1/2-x,-y,1/2+z
1/2+x,1/2-y,1/2-z
1/2-x,y,1/2-z
1/2-x,1/2-y,1/2-z
1/2+x,y,1/2-z
1/2-x,1/2+y,1/2+z
1/2+x,-y,1/2+z
loop_
_atom_site_type_symbol
_atom_site_label
_atom_site_fract_x
_atom_site_fract_y
_atom_site_fract_z
Si Si1 0.339456 0.660142 0.196799
Si Si2 0.000000 0.661401 0.710200
Si Si3 0.656775 0.913293 0.998769
Si Si4 0.840039 0.660517 0.091078
Si Si5 0.712706 0.838891 0.882904
Si Si6 0.000000 0.660817 0.834793
O O1 0.500000 0.628932 0.198189
O O2 0.344162 0.750000 0.196931
O O3 0.250000 0.630478 0.250000
O O4 0.256909 0.629801 0.141913
O O5 0.135293 0.637051 0.674572
O O6 0.000000 0.750000 0.719378
O O7 0.000000 0.623037 0.772238
O O8 0.500000 0.902932 0.024376
O O9 0.651867 0.884494 0.934969
O O10 0.771579 0.866340 0.032953
O O11 0.702200 0.000000 0.000000
O O12 0.842165 0.750000 0.091133
O O13 0.000000 0.630176 0.096814
O O14 0.694552 0.750000 0.895033
O O15 0.870551 0.864909 0.872580
O O16 0.000000 0.750000 0.826514
#
# Coordination Sequence:
#
# PCOD8298976 Si02
#       6
#    16   8  16  16  16   8
#     4   9  16  28  50  81 114 144 176 220 276 332
#     4   9  16  30  53  82 112 144 177 222 276 331
#     4  11  24  40  56  77 107 151 194 235 278 332
#     4  10  21  36  57  85 113 142 182 233 284 338
#     4  10  19  33  55  83 114 145 182 229 278 331
#     4   9  18  30  51  84 116 140 175 224 280 335
#
# _framework density 19.945661000000001
#
# number of rings (size 3 to 8) (size 9 to 14) (size 15 to 20)
#    0.000    2.200    1.000    2.400    1.400    7.200 
#    0.000    0.000    0.000    2.400    0.000    0.000 
#    0.000    0.000    0.000    0.000    0.000    0.000 
#
# Total GULP energy -495897.571285 kJ/mol
# GULP energy per Si atom -12397.439282 kJ/mol
# Density = 1.990026 g / cm^3
# Si number density = 19.945661 Si / 1000 Ang^3
#
#
#
# Elastic Constant Matrix: (Units=GPa)
#
#
# Indices 1 2 3 4 5 6 
#
# 1 162.0921 13.6244 39.4733 0.0000 0.0000 0.0000
# 2 13.6244 27.1132 17.3466 0.0000 0.0000 0.0000
# 3 39.4733 17.3466 98.5166 0.0000 0.0000 0.0000
# 4 0.0000 0.0000 0.0000 1.8668 0.0000 0.0000
# 5 0.0000 0.0000 0.0000 0.0000 40.0205 0.0000
# 6 0.0000 0.0000 0.0000 0.0000 0.0000 14.0691
#
#
#
# Elastic Compliance Matrix: (Units=1/GPa)
#
#
# Indices 1 2 3 4 5 6 
#
# 1 0.006924 -0.001921 -0.002436 0.000000 0.000000 0.000000
# 2 -0.001921 0.042098 -0.006643 0.000000 0.000000 0.000000
# 3 -0.002436 -0.006643 0.012296 0.000000 0.000000 0.000000
# 4 0.000000 0.000000 0.000000 0.535669 0.000000 0.000000
# 5 0.000000 0.000000 0.000000 0.000000 0.024987 0.000000
# 6 0.000000 0.000000 0.000000 0.000000 0.000000 0.071078
#
#
# Mechanical properties :
#
#
# Convention : Reuss Voigt Hill
#
# Bulk Modulus (GPa) = 25.43328 47.62338 36.52833
# Shear Modulus (GPa) = 6.86665 25.67645 16.27155
#
# Velocity S-wave (km/s) = 1.85746 3.59182 2.85931
# Velocity P-wave (km/s) = 4.16883 6.41326 5.40875
#
# Compressibility (1/GPa) = 0.03931857
#
# Stress axis : x y z
#
# Youngs Moduli (GPa) = 144.42468 23.75430 81.32513
#
# Poissons Ratio (x) = 0.04563 0.19812
# Poissons Ratio (y) = 0.27740 0.54023
# Poissons Ratio (z) = 0.35183 0.15780
#
# Static dielectric constant tensor:
#      x y z
#    x 3.550730 0.000000 0.000000 
#    y 0.000000 2.930920 0.000000 
#    z 0.000000 0.000000 3.739700 
# 
# 
# High freq. dielectric constant tensor:
#      x y z
#    x 1.800020 0.000000 0.000000 
#    y 0.000000 1.715180 0.000000 
#    z 0.000000 0.000000 1.788020 
# 
# From -- ./inp_files/63982.got.cif
#   From: 2010.03.12/outbox.cif.g09.slc.cpg/sg74_32_cif.got.tgz:63982.got - 2010.04.16 15:46:19.
