data_PCOD8298099
_publ_section_title
;
Structure prediction by ZEFSAII (Michael W. Deem and Ramdas Pophale) SiO2 
 PCOD8298099
Probable space group: I M M A
;
_chemical_formula_sum "Si O2"
_cell_formula_units_Z 72
_cell_length_a 8.635272
_cell_length_b 14.494927
_cell_length_c 30.178796
_cell_angle_alpha 90.000000
_cell_angle_beta 90.000000
_cell_angle_gamma 90.000000
_cell_volume 3777.408591
_symmetry_space_group_name_H-M "I M M A"
_symmetry_group_IT_number 74
_symmetry_cell_setting 'orthorhombic'
loop_
_space_group_symop_operation_xyz
x,y,z
-x,1/2-y,z
x,-y,-z
-x,1/2+y,-z
-x,-y,-z
x,1/2+y,-z
-x,y,z
x,1/2-y,z
1/2+x,1/2+y,1/2+z
1/2-x,-y,1/2+z
1/2+x,1/2-y,1/2-z
1/2-x,y,1/2-z
1/2-x,1/2-y,1/2-z
1/2+x,y,1/2-z
1/2-x,1/2+y,1/2+z
1/2+x,-y,1/2+z
loop_
_atom_site_type_symbol
_atom_site_label
_atom_site_fract_x
_atom_site_fract_y
_atom_site_fract_z
Si Si1 0.183579 0.437404 0.623440
Si Si2 0.816398 0.555470 0.541799
Si Si3 0.316513 0.050059 0.299194
Si Si4 0.182908 0.250000 0.911400
Si Si5 0.683305 0.750000 0.990552
Si Si6 0.180131 0.250000 0.202296
O O1 0.247173 0.509827 0.586732
O O2 0.237161 0.472170 0.671242
O O3 0.255679 0.338246 0.614737
O O4 0.000000 0.428763 0.621669
O O5 0.747331 0.500000 0.500000
O O6 0.762299 0.661570 0.537842
O O7 0.000000 0.548946 0.541161
O O8 0.500000 0.034702 0.298253
O O9 0.250000 0.039993 0.250000
O O10 0.272500 0.152038 0.320257
O O11 0.239873 0.250000 0.961638
O O12 0.000000 0.250000 0.910835
O O13 0.500000 0.750000 0.998748
O O14 0.250000 0.250000 0.250000
O O15 0.000000 0.250000 0.209723
#
# Coordination Sequence:
#
# PCOD8298099 Si02
#       6
#    16  16  16   8   8   8
#     4  11  22  38  60  85 113 151 196 242 292 345
#     4   9  17  31  55  84 110 144 188 233 277 330
#     4  10  20  37  59  87 120 156 195 239 287 341
#     4  12  24  38  56  82 112 150 194 239 293 353
#     4  10  18  35  59  82 114 153 194 237 282 341
#     4   8  16  31  54  80 112 151 185 222 275 332
#
# _framework density 19.060687000000001
#
# number of rings (size 3 to 8) (size 9 to 14) (size 15 to 20)
#    0.000    2.000    2.222    2.333    0.000    1.778 
#    0.000    5.000    0.000    0.000    0.000    0.000 
#    0.000    0.000    0.000    0.000    0.000    0.000 
#
# Total GULP energy -446192.336326 kJ/mol
# GULP energy per Si atom -12394.231565 kJ/mol
# Density = 1.901730 g / cm^3
# Si number density = 19.060687 Si / 1000 Ang^3
#
#
#
# Elastic Constant Matrix: (Units=GPa)
#
#
# Indices 1 2 3 4 5 6 
#
# 1 55.5893 45.7020 20.3772 0.0000 0.0000 0.0000
# 2 45.7020 188.1536 73.4252 0.0000 0.0000 0.0000
# 3 20.3772 73.4252 94.9085 0.0000 0.0000 0.0000
# 4 0.0000 0.0000 0.0000 22.1751 0.0000 0.0000
# 5 0.0000 0.0000 0.0000 0.0000 24.2622 0.0000
# 6 0.0000 0.0000 0.0000 0.0000 0.0000 19.5108
#
#
#
# Elastic Compliance Matrix: (Units=1/GPa)
#
#
# Indices 1 2 3 4 5 6 
#
# 1 0.022527 -0.005134 -0.000864 0.000000 0.000000 0.000000
# 2 -0.005134 0.008784 -0.005693 0.000000 0.000000 0.000000
# 3 -0.000864 -0.005693 0.015126 0.000000 0.000000 0.000000
# 4 0.000000 0.000000 0.000000 0.045096 0.000000 0.000000
# 5 0.000000 0.000000 0.000000 0.000000 0.041216 0.000000
# 6 0.000000 0.000000 0.000000 0.000000 0.000000 0.051254
#
#
# Mechanical properties :
#
#
# Convention : Reuss Voigt Hill
#
# Bulk Modulus (GPa) = 43.37752 68.62892 56.00322
# Shear Modulus (GPa) = 23.24816 26.46610 24.85713
#
# Velocity S-wave (km/s) = 3.49620 3.73032 3.61516
# Velocity P-wave (km/s) = 6.25339 7.39171 6.84625
#
# Compressibility (1/GPa) = 0.02305342
#
# Stress axis : x y z
#
# Youngs Moduli (GPa) = 44.39087 113.84885 66.10973
#
# Poissons Ratio (x) = 0.58455 0.05715
# Poissons Ratio (y) = 0.22792 0.37636
# Poissons Ratio (z) = 0.03837 0.64814
#
# Static dielectric constant tensor:
#      x y z
#    x 3.426890 0.000000 0.000000 
#    y 0.000000 4.039070 0.000000 
#    z 0.000000 0.000000 3.409140 
# 
# 
# High freq. dielectric constant tensor:
#      x y z
#    x 1.726040 0.000000 0.000000 
#    y 0.000000 1.758540 0.000000 
#    z 0.000000 0.000000 1.725650 
# 
# From -- ./inp_files/66771.got.cif
#   From: 2010.03.12/outbox.cif.g09.slc.cpg/sg74_34_cif.got.tgz:66771.got - 2010.04.16 15:46:19.
