data_PCOD8298835
_publ_section_title
;
Structure prediction by ZEFSAII (Michael W. Deem and Ramdas Pophale) SiO2 
 PCOD8298835
Probable space group: I M M A
;
_chemical_formula_sum "Si O2"
_cell_formula_units_Z 88
_cell_length_a 22.358029
_cell_length_b 8.803887
_cell_length_c 24.803315
_cell_angle_alpha 90.000000
_cell_angle_beta 90.000000
_cell_angle_gamma 90.000000
_cell_volume 4882.224026
_symmetry_space_group_name_H-M "I M M A"
_symmetry_group_IT_number 74
_symmetry_cell_setting 'orthorhombic'
loop_
_space_group_symop_operation_xyz
x,y,z
-x,1/2-y,z
x,-y,-z
-x,1/2+y,-z
-x,-y,-z
x,1/2+y,-z
-x,y,z
x,1/2-y,z
1/2+x,1/2+y,1/2+z
1/2-x,-y,1/2+z
1/2+x,1/2-y,1/2-z
1/2-x,y,1/2-z
1/2-x,1/2-y,1/2-z
1/2+x,y,1/2-z
1/2-x,1/2+y,1/2+z
1/2+x,-y,1/2+z
loop_
_atom_site_type_symbol
_atom_site_label
_atom_site_fract_x
_atom_site_fract_y
_atom_site_fract_z
Si Si1 0.284139 0.926158 0.636825
Si Si2 0.000000 0.422767 0.943411
Si Si3 0.372538 0.571339 0.441664
Si Si4 0.319593 0.916322 0.261807
Si Si5 0.569203 0.928758 0.943161
Si Si6 0.343452 0.570634 0.144275
O O1 0.268440 0.750000 0.637761
O O2 0.322428 0.971138 0.585830
O O3 0.324904 0.965886 0.689216
O O4 0.222868 0.017232 0.630030
O O5 0.937489 0.456691 0.912012
O O6 0.000000 0.250000 0.960476
O O7 0.000000 0.500000 0.000000
O O8 0.377519 0.500000 0.500000
O O9 0.355401 0.750000 0.442273
O O10 0.343979 0.750000 0.279679
O O11 0.250000 0.900753 0.250000
O O12 0.354686 0.970792 0.207718
O O13 0.500000 0.971177 0.932367
O O14 0.578929 0.750000 0.947153
O O15 0.607575 0.991321 0.893310
O O16 0.590725 0.000000 0.000000
O O17 0.347467 0.750000 0.135320
#
# Coordination Sequence:
#
# PCOD8298835 Si02
#       6
#    16   8  16  16  16  16
#     4  11  21  32  50  78 108 138 172 213 263 312
#     4   8  16  30  50  70  90 124 164 202 241 290
#     4  10  19  33  51  73 101 132 170 211 256 306
#     4   8  16  32  52  74 100 132 169 207 251 304
#     4  10  21  37  57  81 109 141 177 218 264 318
#     4  10  20  35  56  79 104 136 174 215 260 311
#
# _framework density 18.024571000000002
#
# number of rings (size 3 to 8) (size 9 to 14) (size 15 to 20)
#    0.000    2.364    0.000    4.364    0.000    6.545 
#    0.000    3.636    2.000    0.000    0.000    0.000 
#    0.000    0.000    0.000    0.000    0.000    0.000 
#
# Total GULP energy -545094.233210 kJ/mol
# GULP energy per Si atom -12388.505300 kJ/mol
# Density = 1.798355 g / cm^3
# Si number density = 18.024571 Si / 1000 Ang^3
#
#
#
# Elastic Constant Matrix: (Units=GPa)
#
#
# Indices 1 2 3 4 5 6 
#
# 1 74.4885 27.5229 47.2778 0.0000 0.0000 0.0000
# 2 27.5229 74.3510 35.7745 0.0000 0.0000 0.0000
# 3 47.2778 35.7745 90.0966 0.0000 0.0000 0.0000
# 4 0.0000 0.0000 0.0000 31.1930 0.0000 0.0000
# 5 0.0000 0.0000 0.0000 0.0000 25.0068 0.0000
# 6 0.0000 0.0000 0.0000 0.0000 0.0000 23.2011
#
#
#
# Elastic Compliance Matrix: (Units=1/GPa)
#
#
# Indices 1 2 3 4 5 6 
#
# 1 0.020658 -0.003005 -0.009647 0.000000 0.000000 0.000000
# 2 -0.003005 0.017063 -0.005198 0.000000 0.000000 0.000000
# 3 -0.009647 -0.005198 0.018225 0.000000 0.000000 0.000000
# 4 0.000000 0.000000 0.000000 0.032058 0.000000 0.000000
# 5 0.000000 0.000000 0.000000 0.000000 0.039989 0.000000
# 6 0.000000 0.000000 0.000000 0.000000 0.000000 0.043101
#
#
# Mechanical properties :
#
#
# Convention : Reuss Voigt Hill
#
# Bulk Modulus (GPa) = 49.39291 51.12073 50.25682
# Shear Modulus (GPa) = 23.41412 24.43756 23.92584
#
# Velocity S-wave (km/s) = 3.60809 3.68610 3.64730
# Velocity P-wave (km/s) = 6.69480 6.82200 6.75870
#
# Compressibility (1/GPa) = 0.02024582
#
# Stress axis : x y z
#
# Youngs Moduli (GPa) = 48.40665 58.60480 54.86833
#
# Poissons Ratio (x) = 0.17614 0.52931
# Poissons Ratio (y) = 0.14549 0.28522
# Poissons Ratio (z) = 0.46698 0.30464
#
# Static dielectric constant tensor:
#      x y z
#    x 3.459180 0.000000 0.000000 
#    y 0.000000 3.407550 0.000000 
#    z 0.000000 0.000000 3.451110 
# 
# 
# High freq. dielectric constant tensor:
#      x y z
#    x 1.682420 0.000000 0.000000 
#    y 0.000000 1.709160 0.000000 
#    z 0.000000 0.000000 1.688770 
# 
# From -- ./inp_files/68108.got.cif
#   From: 2010.03.12/outbox.cif.g09.slc.cpg/sg74_35_cif.got.tgz:68108.got - 2010.04.16 15:46:19.
