data_PCOD8298310
_publ_section_title
;
Structure prediction by ZEFSAII (Michael W. Deem and Ramdas Pophale) SiO2 
 PCOD8298310
Probable space group: I M M A
;
_chemical_formula_sum "Si O2"
_cell_formula_units_Z 104
_cell_length_a 27.343099
_cell_length_b 9.285472
_cell_length_c 24.378128
_cell_angle_alpha 90.000000
_cell_angle_beta 90.000000
_cell_angle_gamma 90.000000
_cell_volume 6189.450195
_symmetry_space_group_name_H-M "I M M A"
_symmetry_group_IT_number 74
_symmetry_cell_setting 'orthorhombic'
loop_
_space_group_symop_operation_xyz
x,y,z
-x,1/2-y,z
x,-y,-z
-x,1/2+y,-z
-x,-y,-z
x,1/2+y,-z
-x,y,z
x,1/2-y,z
1/2+x,1/2+y,1/2+z
1/2-x,-y,1/2+z
1/2+x,1/2-y,1/2-z
1/2-x,y,1/2-z
1/2-x,1/2-y,1/2-z
1/2+x,y,1/2-z
1/2-x,1/2+y,1/2+z
1/2+x,-y,1/2+z
loop_
_atom_site_type_symbol
_atom_site_label
_atom_site_fract_x
_atom_site_fract_y
_atom_site_fract_z
Si Si1 0.605967 0.081865 0.057111
Si Si2 0.500000 0.413787 0.054658
Si Si3 0.058180 0.912259 0.948288
Si Si4 0.273435 0.908516 0.690386
Si Si5 0.329336 0.920035 0.843012
Si Si6 0.944411 0.084825 0.842455
Si Si7 0.143125 0.582955 0.234812
O O1 0.613473 0.250000 0.044970
O O2 0.551783 0.051942 0.084522
O O3 0.645160 0.026246 0.101261
O O4 0.613756 0.000000 0.000000
O O5 0.500000 0.250000 0.036204
O O6 0.500000 0.500000 0.000000
O O7 0.078966 0.750000 0.949720
O O8 0.000000 0.911825 0.951359
O O9 0.075305 0.987845 0.892290
O O10 0.079800 0.000000 0.000000
O O11 0.293185 0.750000 0.673289
O O12 0.250000 0.899354 0.750000
O O13 0.228545 0.957164 0.650954
O O14 0.317680 0.021982 0.690464
O O15 0.337064 0.750000 0.833094
O O16 0.354305 0.001030 0.792235
O O17 0.941325 0.250000 0.862121
O O18 0.910932 0.058213 0.789368
O O19 0.000000 0.043753 0.826189
O O20 0.154869 0.750000 0.244278
#
# Coordination Sequence:
#
# PCOD8298310 Si02
#       7
#    16   8  16  16  16  16  16
#     4   9  17  30  48  69  94 123 157 195 235 279
#     4   8  14  26  44  64  88 118 152 188 225 266
#     4   9  16  26  43  66  88 113 149 187 220 257
#     4   8  15  29  48  66  87 116 147 182 226 273
#     4   9  18  32  48  68  94 122 153 190 235 285
#     4   9  18  32  46  62  92 127 153 183 227 275
#     4  10  19  30  47  70  93 120 156 196 233 272
#
# _framework density 16.802785
#
# number of rings (size 3 to 8) (size 9 to 14) (size 15 to 20)
#    0.000    3.077    0.000    1.846    0.000    6.462 
#    1.385    0.000    0.000    0.923    0.000    4.308 
#    0.000    0.000    0.000    0.000    0.000    0.000 
#
# Total GULP energy -644357.303717 kJ/mol
# GULP energy per Si atom -12391.486610 kJ/mol
# Density = 1.676454 g / cm^3
# Si number density = 16.802785 Si / 1000 Ang^3
#
#
#
# Elastic Constant Matrix: (Units=GPa)
#
#
# Indices 1 2 3 4 5 6 
#
# 1 94.9680 37.8008 53.7935 0.0000 0.0000 0.0000
# 2 37.8008 80.9472 45.3371 0.0000 0.0000 0.0000
# 3 53.7935 45.3371 85.5968 0.0000 0.0000 0.0000
# 4 0.0000 0.0000 0.0000 24.6728 0.0000 0.0000
# 5 0.0000 0.0000 0.0000 0.0000 25.7733 0.0000
# 6 0.0000 0.0000 0.0000 0.0000 0.0000 21.6896
#
#
#
# Elastic Compliance Matrix: (Units=1/GPa)
#
#
# Indices 1 2 3 4 5 6 
#
# 1 0.016767 -0.002741 -0.009086 0.000000 0.000000 0.000000
# 2 -0.002741 0.018012 -0.007818 0.000000 0.000000 0.000000
# 3 -0.009086 -0.007818 0.021533 0.000000 0.000000 0.000000
# 4 0.000000 0.000000 0.000000 0.040530 0.000000 0.000000
# 5 0.000000 0.000000 0.000000 0.000000 0.038800 0.000000
# 6 0.000000 0.000000 0.000000 0.000000 0.000000 0.046105
#
#
# Mechanical properties :
#
#
# Convention : Reuss Voigt Hill
#
# Bulk Modulus (GPa) = 58.74080 59.48611 59.11345
# Shear Modulus (GPa) = 22.05441 22.73251 22.39346
#
# Velocity S-wave (km/s) = 3.62684 3.68217 3.65461
# Velocity P-wave (km/s) = 7.25075 7.31828 7.28460
#
# Compressibility (1/GPa) = 0.01702394
#
# Stress axis : x y z
#
# Youngs Moduli (GPa) = 59.63934 55.51732 46.44011
#
# Poissons Ratio (x) = 0.15220 0.42193
# Poissons Ratio (y) = 0.16350 0.36305
# Poissons Ratio (z) = 0.54185 0.43401
#
# Static dielectric constant tensor:
#      x y z
#    x 3.746970 0.000000 0.000000 
#    y 0.000000 3.242280 0.000000 
#    z 0.000000 0.000000 2.910790 
# 
# 
# High freq. dielectric constant tensor:
#      x y z
#    x 1.637390 0.000000 0.000000 
#    y 0.000000 1.652750 0.000000 
#    z 0.000000 0.000000 1.617040 
# 
# From -- ./inp_files/68930.got.cif
#   From: 2010.03.12/outbox.cif.g09.slc.cpg/sg74_35_cif.got.tgz:68930.got - 2010.04.16 15:46:19.
