data_PCOD8298439
_publ_section_title
;
Structure prediction by ZEFSAII (Michael W. Deem and Ramdas Pophale) SiO2 
 PCOD8298439
Probable space group: I M M A
;
_chemical_formula_sum "Si O2"
_cell_formula_units_Z 104
_cell_length_a 8.598241
_cell_length_b 28.315926
_cell_length_c 28.685431
_cell_angle_alpha 90.000000
_cell_angle_beta 90.000000
_cell_angle_gamma 90.000000
_cell_volume 6983.960301
_symmetry_space_group_name_H-M "I M M A"
_symmetry_group_IT_number 74
_symmetry_cell_setting 'orthorhombic'
loop_
_space_group_symop_operation_xyz
x,y,z
-x,1/2-y,z
x,-y,-z
-x,1/2+y,-z
-x,-y,-z
x,1/2+y,-z
-x,y,z
x,1/2-y,z
1/2+x,1/2+y,1/2+z
1/2-x,-y,1/2+z
1/2+x,1/2-y,1/2-z
1/2-x,y,1/2-z
1/2-x,1/2-y,1/2-z
1/2+x,y,1/2-z
1/2-x,1/2+y,1/2+z
1/2+x,-y,1/2+z
loop_
_atom_site_type_symbol
_atom_site_label
_atom_site_fract_x
_atom_site_fract_y
_atom_site_fract_z
Si Si1 0.817497 0.250000 0.799465
Si Si2 0.317215 0.844165 0.344091
Si Si3 0.326889 0.959686 0.961922
Si Si4 0.818177 0.890443 0.029530
Si Si5 0.182945 0.435402 0.698846
Si Si6 0.816290 0.530337 0.104698
Si Si7 0.318012 0.695229 0.065619
O O1 0.750000 0.250000 0.750000
O O2 0.753155 0.295124 0.825157
O O3 0.000000 0.250000 0.798759
O O4 0.500000 0.854756 0.337352
O O5 0.220332 0.881782 0.315024
O O6 0.278032 0.837428 0.397961
O O7 0.500000 0.940856 0.950511
O O8 0.251691 0.981740 0.915541
O O9 0.220477 0.917681 0.981637
O O10 0.335585 0.000000 0.000000
O O11 0.766113 0.923372 0.074277
O O12 0.724202 0.840022 0.023160
O O13 0.000000 0.879837 0.031747
O O14 0.250000 0.447884 0.750000
O O15 0.257269 0.467024 0.657976
O O16 0.000000 0.443561 0.700359
O O17 0.000000 0.527056 0.104593
O O18 0.500000 0.696036 0.076629
O O19 0.258534 0.750000 0.060143
#
# Coordination Sequence:
#
# PCOD8298439 Si02
#       7
#     8  16  16  16  16  16  16
#     4  10  22  34  46  58  72  94 130 178 228 274
#     4  11  21  35  48  61  79 106 141 183 229 274
#     4   9  17  29  47  70  93 114 140 175 218 267
#     4  10  19  31  49  68  90 116 144 182 224 269
#     4  12  24  36  49  65  86 114 148 185 228 273
#     4  10  19  32  49  69  91 114 144 181 223 270
#     4  11  22  33  47  66  87 115 149 186 228 273
#
# _framework density 14.891264
#
# number of rings (size 3 to 8) (size 9 to 14) (size 15 to 20)
#    0.000    1.538    2.308    4.154    0.000    6.462 
#    0.000    0.000    0.000    0.000    0.000    0.000 
#    0.000    0.000    0.000    0.000    0.000    0.769 
#
# Total GULP energy -644274.468286 kJ/mol
# GULP energy per Si atom -12389.893621 kJ/mol
# Density = 1.485737 g / cm^3
# Si number density = 14.891264 Si / 1000 Ang^3
#
#
#
# Elastic Constant Matrix: (Units=GPa)
#
#
# Indices 1 2 3 4 5 6 
#
# 1 55.1234 18.1953 20.9486 0.0000 0.0000 0.0000
# 2 18.1953 57.9184 42.7949 0.0000 0.0000 0.0000
# 3 20.9486 42.7949 75.4399 0.0000 0.0000 0.0000
# 4 0.0000 0.0000 0.0000 21.5980 0.0000 0.0000
# 5 0.0000 0.0000 0.0000 0.0000 24.6347 0.0000
# 6 0.0000 0.0000 0.0000 0.0000 0.0000 22.8934
#
#
#
# Elastic Compliance Matrix: (Units=1/GPa)
#
#
# Indices 1 2 3 4 5 6 
#
# 1 0.020780 -0.003899 -0.003559 0.000000 0.000000 0.000000
# 2 -0.003899 0.030456 -0.016194 0.000000 0.000000 0.000000
# 3 -0.003559 -0.016194 0.023430 0.000000 0.000000 0.000000
# 4 0.000000 0.000000 0.000000 0.046301 0.000000 0.000000
# 5 0.000000 0.000000 0.000000 0.000000 0.040593 0.000000
# 6 0.000000 0.000000 0.000000 0.000000 0.000000 0.043681
#
#
# Mechanical properties :
#
#
# Convention : Reuss Voigt Hill
#
# Bulk Modulus (GPa) = 36.54522 39.15103 37.84813
# Shear Modulus (GPa) = 19.10832 20.92807 20.01819
#
# Velocity S-wave (km/s) = 3.58605 3.75292 3.67044
# Velocity P-wave (km/s) = 6.46073 6.71771 6.59047
#
# Compressibility (1/GPa) = 0.02736336
#
# Stress axis : x y z
#
# Youngs Moduli (GPa) = 48.12205 32.83413 42.67970
#
# Poissons Ratio (x) = 0.12801 0.15189
# Poissons Ratio (y) = 0.18762 0.69117
# Poissons Ratio (z) = 0.17126 0.53172
#
# Static dielectric constant tensor:
#      x y z
#    x 2.933750 0.000000 0.000000 
#    y 0.000000 2.987250 0.000000 
#    z 0.000000 0.000000 2.911650 
# 
# 
# High freq. dielectric constant tensor:
#      x y z
#    x 1.586230 0.000000 0.000000 
#    y 0.000000 1.548380 0.000000 
#    z 0.000000 0.000000 1.539770 
# 
# From -- ./inp_files/65006.got.cif
#   From: 2010.03.12/outbox.cif.g09.slc.cpg/sg74_33_cif.got.tgz:65006.got - 2010.04.16 15:46:19.
