data_PCOD8298876
_publ_section_title
;
Structure prediction by ZEFSAII (Michael W. Deem and Ramdas Pophale) SiO2 
 PCOD8298876
Probable space group: I M M A
;
_chemical_formula_sum "Si O2"
_cell_formula_units_Z 64
_cell_length_a 20.951318
_cell_length_b 8.895591
_cell_length_c 18.605763
_cell_angle_alpha 90.000000
_cell_angle_beta 90.000000
_cell_angle_gamma 90.000000
_cell_volume 3467.637094
_symmetry_space_group_name_H-M "I M M A"
_symmetry_group_IT_number 74
_symmetry_cell_setting 'orthorhombic'
loop_
_space_group_symop_operation_xyz
x,y,z
-x,1/2-y,z
x,-y,-z
-x,1/2+y,-z
-x,-y,-z
x,1/2+y,-z
-x,y,z
x,1/2-y,z
1/2+x,1/2+y,1/2+z
1/2-x,-y,1/2+z
1/2+x,1/2-y,1/2-z
1/2-x,y,1/2-z
1/2-x,1/2-y,1/2-z
1/2+x,y,1/2-z
1/2-x,1/2+y,1/2+z
1/2+x,-y,1/2+z
loop_
_atom_site_type_symbol
_atom_site_label
_atom_site_fract_x
_atom_site_fract_y
_atom_site_fract_z
Si Si1 0.121083 0.572115 0.421751
Si Si2 0.500000 0.573750 0.171116
Si Si3 0.745031 0.425993 0.077329
Si Si4 0.000000 0.428196 0.174591
Si Si5 0.385385 0.074677 0.422968
O O1 0.111761 0.500000 0.500000
O O2 0.125909 0.750000 0.429904
O O3 0.062006 0.522653 0.372954
O O4 0.185613 0.507606 0.382834
O O5 0.500000 0.750000 0.185070
O O6 0.500000 0.491896 0.246357
O O7 0.730157 0.250000 0.071680
O O8 0.814936 0.455820 0.111861
O O9 0.747835 0.500000 0.000000
O O10 0.937433 0.488199 0.132752
O O11 0.000000 0.250000 0.179532
O O12 0.395456 0.250000 0.436342
O O13 0.394927 0.000000 0.500000
#
# Coordination Sequence:
#
# PCOD8298876 Si02
#       5
#    16   8  16   8  16
#     4  10  19  33  53  76 100 126 162 204 246 295
#     4  10  23  38  50  70 100 132 167 206 246 292
#     4   9  16  28  48  75 103 127 157 199 245 290
#     4  10  21  36  52  72 100 134 171 206 242 288
#     4   9  18  32  52  78 103 129 164 204 244 290
#
# _framework density 18.456372000000002
#
# number of rings (size 3 to 8) (size 9 to 14) (size 15 to 20)
#    0.000    2.500    0.000    3.750    0.000    4.000 
#    0.000    1.250    0.000    7.500    0.000    0.000 
#    0.000    0.000    0.000    0.000    0.000    0.000 
#
# Total GULP energy -396566.160179 kJ/mol
# GULP energy per Si atom -12392.692506 kJ/mol
# Density = 1.841436 g / cm^3
# Si number density = 18.456372 Si / 1000 Ang^3
#
#
#
# Elastic Constant Matrix: (Units=GPa)
#
#
# Indices 1 2 3 4 5 6 
#
# 1 212.5899 60.0072 80.7783 0.0000 0.0000 0.0000
# 2 60.0072 68.0771 37.5178 0.0000 0.0000 0.0000
# 3 80.7783 37.5178 93.5159 0.0000 0.0000 0.0000
# 4 0.0000 0.0000 0.0000 26.7192 0.0000 0.0000
# 5 0.0000 0.0000 0.0000 0.0000 8.0234 0.0000
# 6 0.0000 0.0000 0.0000 0.0000 0.0000 33.3536
#
#
#
# Elastic Compliance Matrix: (Units=1/GPa)
#
#
# Indices 1 2 3 4 5 6 
#
# 1 0.007785 -0.004052 -0.005099 0.000000 0.000000 0.000000
# 2 -0.004052 0.020968 -0.004912 0.000000 0.000000 0.000000
# 3 -0.005099 -0.004912 0.017069 0.000000 0.000000 0.000000
# 4 0.000000 0.000000 0.000000 0.037426 0.000000 0.000000
# 5 0.000000 0.000000 0.000000 0.000000 0.124635 0.000000
# 6 0.000000 0.000000 0.000000 0.000000 0.000000 0.029982
#
#
# Mechanical properties :
#
#
# Convention : Reuss Voigt Hill
#
# Bulk Modulus (GPa) = 56.51201 81.19883 68.85542
# Shear Modulus (GPa) = 18.38981 26.67788 22.53385
#
# Velocity S-wave (km/s) = 3.15999 3.80604 3.49796
# Velocity P-wave (km/s) = 6.63323 7.96273 7.32820
#
# Compressibility (1/GPa) = 0.01769535
#
# Stress axis : x y z
#
# Youngs Moduli (GPa) = 128.44870 47.69145 58.58727
#
# Poissons Ratio (x) = 0.19326 0.29874
# Poissons Ratio (y) = 0.52050 0.28778
# Poissons Ratio (z) = 0.65497 0.23426
#
# Static dielectric constant tensor:
#      x y z
#    x 4.611920 0.000000 0.000000 
#    y 0.000000 3.407150 0.000000 
#    z 0.000000 0.000000 3.000380 
# 
# 
# High freq. dielectric constant tensor:
#      x y z
#    x 1.748540 0.000000 0.000000 
#    y 0.000000 1.719440 0.000000 
#    z 0.000000 0.000000 1.669430 
# 
# From -- ./inp_files/35992.got.cif
#   From: 2010.03.12/outbox.cif.g09.slc.cpg/sg74_18_cif.got.tgz:35992.got - 2010.04.16 15:46:19.
