data_PCOD8298812
_publ_section_title
;
Structure prediction by ZEFSAII (Michael W. Deem and Ramdas Pophale) SiO2 
 PCOD8298812
Probable space group: I M M A
;
_chemical_formula_sum "Si O2"
_cell_formula_units_Z 96
_cell_length_a 8.898546
_cell_length_b 24.033750
_cell_length_c 23.882767
_cell_angle_alpha 90.000000
_cell_angle_beta 90.000000
_cell_angle_gamma 90.000000
_cell_volume 5107.698232
_symmetry_space_group_name_H-M "I M M A"
_symmetry_group_IT_number 74
_symmetry_cell_setting 'orthorhombic'
loop_
_space_group_symop_operation_xyz
x,y,z
-x,1/2-y,z
x,-y,-z
-x,1/2+y,-z
-x,-y,-z
x,1/2+y,-z
-x,y,z
x,1/2-y,z
1/2+x,1/2+y,1/2+z
1/2-x,-y,1/2+z
1/2+x,1/2-y,1/2-z
1/2-x,y,1/2-z
1/2-x,1/2-y,1/2-z
1/2+x,y,1/2-z
1/2-x,1/2+y,1/2+z
1/2+x,-y,1/2+z
loop_
_atom_site_type_symbol
_atom_site_label
_atom_site_fract_x
_atom_site_fract_y
_atom_site_fract_z
Si Si1 0.324881 0.602244 0.105482
Si Si2 0.823903 0.886430 0.808367
Si Si3 0.825356 0.476116 0.379734
Si Si4 0.828953 0.812841 0.604016
Si Si5 0.823391 0.314129 0.808641
Si Si6 0.828842 0.906286 0.517940
O O1 0.500000 0.619331 0.104660
O O2 0.301885 0.541065 0.131283
O O3 0.237125 0.647554 0.141527
O O4 0.251843 0.598834 0.043020
O O5 0.750000 0.871546 0.750000
O O6 0.783499 0.836374 0.849845
O O7 0.000000 0.890983 0.800911
O O8 0.762894 0.945249 0.830669
O O9 0.763827 0.454763 0.440795
O O10 0.000000 0.458469 0.376138
O O11 0.783264 0.750000 0.590578
O O12 0.810617 0.846462 0.546611
O O13 0.000000 0.817726 0.626243
O O14 0.782688 0.250000 0.822347
O O15 0.750000 0.332563 0.750000
O O16 0.000000 0.322897 0.802986
O O17 0.000000 0.922514 0.505056
#
# Coordination Sequence:
#
# PCOD8298812 Si02
#       6
#    16  16  16  16  16  16
#     4  10  19  32  57  87 109 136 174 213 255 308
#     4  11  22  36  54  75 102 138 178 221 267 313
#     4   9  18  34  54  78 109 141 174 214 258 304
#     4   9  18  34  55  78 106 140 177 218 261 305
#     4  10  22  40  58  76 103 138 174 216 264 311
#     4   8  15  30  53  81 110 139 173 212 254 302
#
# _framework density 18.795159999999999
#
# number of rings (size 3 to 8) (size 9 to 14) (size 15 to 20)
#    0.000    2.500    0.000    3.500    0.000    5.667 
#    0.000    5.000    0.000    5.000    0.000    0.000 
#    0.000    0.000    0.000    0.000    0.000    0.000 
#
# Total GULP energy -595092.110036 kJ/mol
# GULP energy per Si atom -12397.752292 kJ/mol
# Density = 1.875238 g / cm^3
# Si number density = 18.795160 Si / 1000 Ang^3
#
#
#
# Elastic Constant Matrix: (Units=GPa)
#
#
# Indices 1 2 3 4 5 6 
#
# 1 76.6379 32.5638 25.6449 0.0000 0.0000 0.0000
# 2 32.5638 102.1295 28.4353 0.0000 0.0000 0.0000
# 3 25.6449 28.4353 70.6233 0.0000 0.0000 0.0000
# 4 0.0000 0.0000 0.0000 20.9339 0.0000 0.0000
# 5 0.0000 0.0000 0.0000 0.0000 26.8580 0.0000
# 6 0.0000 0.0000 0.0000 0.0000 0.0000 26.1351
#
#
#
# Elastic Compliance Matrix: (Units=1/GPa)
#
#
# Indices 1 2 3 4 5 6 
#
# 1 0.016162 -0.003964 -0.004273 0.000000 0.000000 0.000000
# 2 -0.003964 0.012000 -0.003392 0.000000 0.000000 0.000000
# 3 -0.004273 -0.003392 0.017077 0.000000 0.000000 0.000000
# 4 0.000000 0.000000 0.000000 0.047769 0.000000 0.000000
# 5 0.000000 0.000000 0.000000 0.000000 0.037233 0.000000
# 6 0.000000 0.000000 0.000000 0.000000 0.000000 0.038263
#
#
# Mechanical properties :
#
#
# Convention : Reuss Voigt Hill
#
# Bulk Modulus (GPa) = 45.49286 46.96430 46.22858
# Shear Modulus (GPa) = 25.11438 25.63519 25.37478
#
# Velocity S-wave (km/s) = 3.65939 3.69714 3.67832
# Velocity P-wave (km/s) = 6.48938 6.57775 6.53371
#
# Compressibility (1/GPa) = 0.02198147
#
# Stress axis : x y z
#
# Youngs Moduli (GPa) = 61.87198 83.33493 58.55797
#
# Poissons Ratio (x) = 0.33031 0.25022
# Poissons Ratio (y) = 0.24524 0.19864
# Poissons Ratio (z) = 0.26438 0.28269
#
# Static dielectric constant tensor:
#      x y z
#    x 3.226670 0.000000 0.000000 
#    y 0.000000 3.470080 0.000000 
#    z 0.000000 0.000000 3.519520 
# 
# 
# High freq. dielectric constant tensor:
#      x y z
#    x 1.703050 0.000000 0.000000 
#    y 0.000000 1.735260 0.000000 
#    z 0.000000 0.000000 1.732440 
# 
# From -- ./inp_files/49125.got.cif
#   From: 2010.03.12/outbox.cif.g09.slc.cpg/sg74_25_cif.got.tgz:49125.got - 2010.04.16 15:46:19.
