data_PCOD8298396
_publ_section_title
;
Structure prediction by ZEFSAII (Michael W. Deem and Ramdas Pophale) SiO2 
 PCOD8298396
Probable space group: I M M A
;
_chemical_formula_sum "Si O2"
_cell_formula_units_Z 80
_cell_length_a 11.935868
_cell_length_b 17.356362
_cell_length_c 24.906248
_cell_angle_alpha 90.000000
_cell_angle_beta 90.000000
_cell_angle_gamma 90.000000
_cell_volume 5159.659176
_symmetry_space_group_name_H-M "I M M A"
_symmetry_group_IT_number 74
_symmetry_cell_setting 'orthorhombic'
loop_
_space_group_symop_operation_xyz
x,y,z
-x,1/2-y,z
x,-y,-z
-x,1/2+y,-z
-x,-y,-z
x,1/2+y,-z
-x,y,z
x,1/2-y,z
1/2+x,1/2+y,1/2+z
1/2-x,-y,1/2+z
1/2+x,1/2-y,1/2-z
1/2-x,y,1/2-z
1/2-x,1/2-y,1/2-z
1/2+x,y,1/2-z
1/2-x,1/2+y,1/2+z
1/2+x,-y,1/2+z
loop_
_atom_site_type_symbol
_atom_site_label
_atom_site_fract_x
_atom_site_fract_y
_atom_site_fract_z
Si Si1 0.767299 0.338111 0.007414
Si Si2 0.500000 0.342807 0.633936
Si Si3 0.276324 0.660996 0.307642
Si Si4 0.631952 0.884971 0.096607
Si Si5 0.500000 0.589046 0.481892
Si Si6 0.622708 0.043155 0.056658
O O1 0.770272 0.250000 0.025075
O O2 0.706964 0.385316 0.055250
O O3 0.702436 0.345231 0.950881
O O4 0.891747 0.370044 0.005550
O O5 0.500000 0.250000 0.620235
O O6 0.391321 0.370333 0.666951
O O7 0.500000 0.396464 0.581624
O O8 0.296199 0.750000 0.297224
O O9 0.250000 0.621036 0.250000
O O10 0.170942 0.649024 0.346874
O O11 0.500000 0.868143 0.087375
O O12 0.656394 0.977063 0.099285
O O13 0.500000 0.500000 0.500000
O O14 0.500000 0.076606 0.069531
O O15 0.623236 0.000000 0.000000
#
# Coordination Sequence:
#
# PCOD8298396 Si02
#       6
#    16   8  16  16   8  16
#     4  11  20  30  45  67  92 120 156 192 229 275
#     4  10  20  36  50  66  96 128 161 199 236 275
#     4  10  21  33  47  66  91 123 158 198 235 271
#     4  10  19  31  47  65  89 121 156 191 227 275
#     4  12  22  32  48  66  92 134 166 189 230 287
#     4   8  16  30  45  63  88 117 149 187 230 273
#
# _framework density 15.504899999999999
#
# number of rings (size 3 to 8) (size 9 to 14) (size 15 to 20)
#    0.000    2.000    2.000    5.100    1.400    2.800 
#    0.000    0.000    0.000    0.000    0.000    0.000 
#    0.000    0.800    0.000    1.200    0.000    0.000 
#
# Total GULP energy -495775.836687 kJ/mol
# GULP energy per Si atom -12394.395917 kJ/mol
# Density = 1.546961 g / cm^3
# Si number density = 15.504900 Si / 1000 Ang^3
#
#
#
# Elastic Constant Matrix: (Units=GPa)
#
#
# Indices 1 2 3 4 5 6 
#
# 1 104.2949 39.3707 11.9028 0.0000 0.0000 0.0000
# 2 39.3707 77.2696 8.1534 0.0000 0.0000 0.0000
# 3 11.9028 8.1534 34.9753 0.0000 0.0000 0.0000
# 4 0.0000 0.0000 0.0000 16.7827 0.0000 0.0000
# 5 0.0000 0.0000 0.0000 0.0000 8.9490 0.0000
# 6 0.0000 0.0000 0.0000 0.0000 0.0000 9.6319
#
#
#
# Elastic Compliance Matrix: (Units=1/GPa)
#
#
# Indices 1 2 3 4 5 6 
#
# 1 0.012125 -0.005887 -0.002754 0.000000 0.000000 0.000000
# 2 -0.005887 0.016127 -0.001756 0.000000 0.000000 0.000000
# 3 -0.002754 -0.001756 0.029938 0.000000 0.000000 0.000000
# 4 0.000000 0.000000 0.000000 0.059585 0.000000 0.000000
# 5 0.000000 0.000000 0.000000 0.000000 0.111744 0.000000
# 6 0.000000 0.000000 0.000000 0.000000 0.000000 0.103821
#
#
# Mechanical properties :
#
#
# Convention : Reuss Voigt Hill
#
# Bulk Modulus (GPa) = 26.74114 37.26594 32.00354
# Shear Modulus (GPa) = 13.63886 17.54693 15.59290
#
# Velocity S-wave (km/s) = 2.96910 3.36773 3.17468
# Velocity P-wave (km/s) = 5.38873 6.26173 5.84156
#
# Compressibility (1/GPa) = 0.03739556
#
# Stress axis : x y z
#
# Youngs Moduli (GPa) = 82.47471 62.00890 33.40223
#
# Poissons Ratio (x) = 0.36507 0.09199
# Poissons Ratio (y) = 0.48556 0.05865
# Poissons Ratio (z) = 0.22713 0.10888
#
# Static dielectric constant tensor:
#      x y z
#    x 3.074490 0.000000 0.000000 
#    y 0.000000 3.057760 0.000000 
#    z 0.000000 0.000000 2.856950 
# 
# 
# High freq. dielectric constant tensor:
#      x y z
#    x 1.618540 0.000000 0.000000 
#    y 0.000000 1.576000 0.000000 
#    z 0.000000 0.000000 1.551590 
# 
# From -- ./inp_files/58763.got.cif
#   From: 2010.03.12/outbox.cif.g09.slc.cpg/sg74_30_cif.got.tgz:58763.got - 2010.04.16 15:46:19.
