data_PCOD8298055
_publ_section_title
;
Structure prediction by ZEFSAII (Michael W. Deem and Ramdas Pophale) SiO2 
 PCOD8298055
Probable space group: I M M A
;
_chemical_formula_sum "Si O2"
_cell_formula_units_Z 72
_cell_length_a 10.177261
_cell_length_b 30.519697
_cell_length_c 12.760839
_cell_angle_alpha 90.000000
_cell_angle_beta 90.000000
_cell_angle_gamma 90.000000
_cell_volume 3963.604924
_symmetry_space_group_name_H-M "I M M A"
_symmetry_group_IT_number 74
_symmetry_cell_setting 'orthorhombic'
loop_
_space_group_symop_operation_xyz
x,y,z
-x,1/2-y,z
x,-y,-z
-x,1/2+y,-z
-x,-y,-z
x,1/2+y,-z
-x,y,z
x,1/2-y,z
1/2+x,1/2+y,1/2+z
1/2-x,-y,1/2+z
1/2+x,1/2-y,1/2-z
1/2-x,y,1/2-z
1/2-x,1/2-y,1/2-z
1/2+x,y,1/2-z
1/2-x,1/2+y,1/2+z
1/2+x,-y,1/2+z
loop_
_atom_site_type_symbol
_atom_site_label
_atom_site_fract_x
_atom_site_fract_y
_atom_site_fract_z
Si Si1 0.000000 0.549221 0.545057
Si Si2 0.261814 0.839998 0.443048
Si Si3 0.251512 0.406761 0.370241
Si Si4 0.500000 0.889270 0.353764
Si Si5 0.500000 0.622033 0.125282
Si Si6 0.000000 0.951293 0.961630
Si Si7 0.159603 0.250000 0.857766
O O1 0.000000 0.500000 0.500000
O O2 0.871773 0.561013 0.612352
O O3 0.000000 0.581038 0.448357
O O4 0.256392 0.862203 0.559408
O O5 0.369488 0.862277 0.371877
O O6 0.122517 0.845928 0.388032
O O7 0.300813 0.789198 0.437084
O O8 0.250000 0.390813 0.250000
O O9 0.375217 0.437501 0.393528
O O10 0.500000 0.903283 0.234300
O O11 0.500000 0.931209 0.424208
O O12 0.000000 0.000000 0.000000
O O13 0.250000 0.250000 0.750000
O O14 0.000000 0.250000 0.832651
#
# Coordination Sequence:
#
# PCOD8298055 Si02
#       7
#     8  16  16   8   8   8   8
#     4  10  21  37  55  85 116 147 194 244 280 336
#     4  10  22  36  55  83 113 144 190 235 281 348
#     4  10  21  39  60  81 114 158 197 235 288 342
#     4  10  18  34  52  76 110 148 181 227 286 348
#     4  10  20  34  54  78 114 150 181 227 290 344
#     4  10  21  35  55  85 114 143 196 244 280 338
#     4  12  24  38  61  90 120 152 187 238 299 355
#
# _framework density 18.165282000000001
#
# number of rings (size 3 to 8) (size 9 to 14) (size 15 to 20)
#    0.000    1.778    1.111    3.333    1.556    1.778 
#    0.000    0.556    0.000    0.000    0.000    0.000 
#    0.000    0.000    0.000    0.000    0.000    0.000 
#
# Total GULP energy -446006.489506 kJ/mol
# GULP energy per Si atom -12389.069153 kJ/mol
# Density = 1.812394 g / cm^3
# Si number density = 18.165282 Si / 1000 Ang^3
#
#
#
# Elastic Constant Matrix: (Units=GPa)
#
#
# Indices 1 2 3 4 5 6 
#
# 1 165.0370 46.2249 46.2965 0.0003 0.0000 0.0001
# 2 46.2249 125.6531 37.2188 0.0007 0.0003 -0.0002
# 3 46.2965 37.2188 125.2368 0.0037 -0.0001 -0.0005
# 4 0.0003 0.0007 0.0037 11.4744 -0.0009 0.0000
# 5 0.0000 0.0003 -0.0001 -0.0009 24.8978 0.0005
# 6 0.0001 -0.0002 -0.0005 0.0000 0.0005 17.7053
#
#
#
# Elastic Compliance Matrix: (Units=1/GPa)
#
#
# Indices 1 2 3 4 5 6 
#
# 1 0.007209 -0.002042 -0.002058 0.000001 0.000000 0.000000
# 2 -0.002042 0.009305 -0.002010 0.000000 0.000000 0.000000
# 3 -0.002058 -0.002010 0.009343 -0.000003 0.000000 0.000000
# 4 0.000001 0.000000 -0.000003 0.087151 0.000003 0.000000
# 5 0.000000 0.000000 0.000000 0.000003 0.040164 -0.000001
# 6 0.000000 0.000000 0.000000 0.000000 -0.000001 0.056480
#
#
# Mechanical properties :
#
#
# Convention : Reuss Voigt Hill
#
# Bulk Modulus (GPa) = 73.33692 75.04526 74.19109
# Shear Modulus (GPa) = 22.08302 29.89461 25.98882
#
# Velocity S-wave (km/s) = 3.49043 4.06112 3.78654
# Velocity P-wave (km/s) = 7.53019 7.96194 7.74907
#
# Compressibility (1/GPa) = 0.01363570
#
# Stress axis : x y z
#
# Youngs Moduli (GPa) = 138.72416 107.46644 107.03119
#
# Poissons Ratio (x) = 0.21948 0.22025
# Poissons Ratio (y) = 0.28332 0.21518
# Poissons Ratio (z) = 0.28547 0.21605
#
# Static dielectric constant tensor:
#      x y z
#    x 3.505840 0.000000 0.000010 
#    y 0.000000 3.177510 0.000070 
#    z 0.000010 0.000070 2.198690 
# 
# 
# High freq. dielectric constant tensor:
#      x y z
#    x 1.732260 0.000000 0.000000 
#    y 0.000000 1.695650 0.000000 
#    z 0.000000 0.000000 1.700090 
# 
# From -- ./inp_files/18963.got.cif
#   From: 2010.03.12/outbox.cif.g09.slc.cpg/sg74_10_cif.got.tgz:18963.got - 2010.04.16 15:46:19.
