data_PCOD8298232
_publ_section_title
;
Structure prediction by ZEFSAII (Michael W. Deem and Ramdas Pophale) SiO2 
 PCOD8298232
Probable space group: I M M A
;
_chemical_formula_sum "Si O2"
_cell_formula_units_Z 80
_cell_length_a 22.975407
_cell_length_b 14.524541
_cell_length_c 13.696045
_cell_angle_alpha 90.000000
_cell_angle_beta 90.000000
_cell_angle_gamma 90.000000
_cell_volume 4570.469389
_symmetry_space_group_name_H-M "I M M A"
_symmetry_group_IT_number 74
_symmetry_cell_setting 'orthorhombic'
loop_
_space_group_symop_operation_xyz
x,y,z
-x,1/2-y,z
x,-y,-z
-x,1/2+y,-z
-x,-y,-z
x,1/2+y,-z
-x,y,z
x,1/2-y,z
1/2+x,1/2+y,1/2+z
1/2-x,-y,1/2+z
1/2+x,1/2-y,1/2-z
1/2-x,y,1/2-z
1/2-x,1/2-y,1/2-z
1/2+x,y,1/2-z
1/2-x,1/2+y,1/2+z
1/2+x,-y,1/2+z
loop_
_atom_site_type_symbol
_atom_site_label
_atom_site_fract_x
_atom_site_fract_y
_atom_site_fract_z
Si Si1 0.119711 0.953653 0.279316
Si Si2 0.500000 0.354340 0.801145
Si Si3 0.705374 0.649128 0.336774
Si Si4 0.193604 0.400492 0.536921
Si Si5 0.500000 0.107791 0.019011
Si Si6 0.884323 0.850501 0.634149
O O1 0.054928 0.914856 0.266545
O O2 0.154839 0.926700 0.180290
O O3 0.147795 0.903228 0.373458
O O4 0.123048 0.064890 0.290062
O O5 0.500000 0.250000 0.756243
O O6 0.500000 0.340055 0.916971
O O7 0.676047 0.750000 0.334474
O O8 0.750000 0.635195 0.250000
O O9 0.743309 0.640467 0.435216
O O10 0.208323 0.500000 0.500000
O O11 0.166186 0.344759 0.447305
O O12 0.555376 0.136093 0.080047
O O13 0.500000 0.000000 0.000000
O O14 0.883810 0.750000 0.687769
#
# Coordination Sequence:
#
# PCOD8298232 Si02
#       6
#    16   8  16  16   8  16
#     4  10  19  30  41  63  92 117 147 181 218 261
#     4  12  20  27  42  63  91 122 149 180 218 258
#     4   9  17  29  45  63  85 115 148 183 224 264
#     4   9  17  29  45  64  86 113 147 185 222 261
#     4  12  18  29  39  62  93 123 154 182 206 250
#     4  11  19  28  43  63  90 124 155 181 211 256
#
# _framework density 17.503672999999999
#
# number of rings (size 3 to 8) (size 9 to 14) (size 15 to 20)
#    0.000    1.800    4.000    2.700    0.000    1.600 
#    0.000    0.000    0.000   16.200    0.000    0.700 
#    0.000    0.000    0.000    0.000    0.000    0.000 
#
# Total GULP energy -495633.577568 kJ/mol
# GULP energy per Si atom -12390.839439 kJ/mol
# Density = 1.746383 g / cm^3
# Si number density = 17.503673 Si / 1000 Ang^3
#
#
#
# Elastic Constant Matrix: (Units=GPa)
#
#
# Indices 1 2 3 4 5 6 
#
# 1 111.6752 61.0836 39.5506 0.0000 0.0000 0.0000
# 2 61.0836 146.2272 18.4095 0.0000 0.0000 0.0000
# 3 39.5506 18.4095 23.7736 0.0000 0.0000 0.0000
# 4 0.0000 0.0000 0.0000 9.5944 0.0000 0.0000
# 5 0.0000 0.0000 0.0000 0.0000 25.1373 0.0000
# 6 0.0000 0.0000 0.0000 0.0000 0.0000 20.0743
#
#
#
# Elastic Compliance Matrix: (Units=1/GPa)
#
#
# Indices 1 2 3 4 5 6 
#
# 1 0.025741 -0.005941 -0.038223 0.000000 0.000000 0.000000
# 2 -0.005941 0.008948 0.002954 0.000000 0.000000 0.000000
# 3 -0.038223 0.002954 0.103366 0.000000 0.000000 0.000000
# 4 0.000000 0.000000 0.000000 0.104228 0.000000 0.000000
# 5 0.000000 0.000000 0.000000 0.000000 0.039781 0.000000
# 6 0.000000 0.000000 0.000000 0.000000 0.000000 0.049815
#
#
# Mechanical properties :
#
#
# Convention : Reuss Voigt Hill
#
# Bulk Modulus (GPa) = 17.97440 57.75149 37.86294
# Shear Modulus (GPa) = 11.55148 21.80336 16.67742
#
# Velocity S-wave (km/s) = 2.57173 3.53320 3.09009
# Velocity P-wave (km/s) = 4.37145 7.05055 5.86600
#
# Compressibility (1/GPa) = 0.05563469
#
# Stress axis : x y z
#
# Youngs Moduli (GPa) = 38.84847 111.75183 9.67436
#
# Poissons Ratio (x) = 0.66388 0.36979
# Poissons Ratio (y) = 0.23078 -0.02858
# Poissons Ratio (z) = 1.48492 -0.33008
#
# Static dielectric constant tensor:
#      x y z
#    x 3.429170 0.000000 0.000000 
#    y 0.000000 3.702420 0.000000 
#    z 0.000000 0.000000 2.958920 
# 
# 
# High freq. dielectric constant tensor:
#      x y z
#    x 1.675720 0.000000 0.000000 
#    y 0.000000 1.692770 0.000000 
#    z 0.000000 0.000000 1.600500 
# 
# From -- ./inp_files/20565.got.cif
#   From: 2010.03.12/outbox.cif.g09.slc.cpg/sg74_11_cif.got.tgz:20565.got - 2010.04.16 15:46:19.
