data_PCOD8298331
_publ_section_title
;
Structure prediction by ZEFSAII (Michael W. Deem and Ramdas Pophale) SiO2 
 PCOD8298331
Probable space group: I M M A
;
_chemical_formula_sum "Si O2"
_cell_formula_units_Z 96
_cell_length_a 24.177663
_cell_length_b 17.231356
_cell_length_c 13.300465
_cell_angle_alpha 90.000000
_cell_angle_beta 90.000000
_cell_angle_gamma 90.000000
_cell_volume 5541.158840
_symmetry_space_group_name_H-M "I M M A"
_symmetry_group_IT_number 74
_symmetry_cell_setting 'orthorhombic'
loop_
_space_group_symop_operation_xyz
x,y,z
-x,1/2-y,z
x,-y,-z
-x,1/2+y,-z
-x,-y,-z
x,1/2+y,-z
-x,y,z
x,1/2-y,z
1/2+x,1/2+y,1/2+z
1/2-x,-y,1/2+z
1/2+x,1/2-y,1/2-z
1/2-x,y,1/2-z
1/2-x,1/2-y,1/2-z
1/2+x,y,1/2-z
1/2-x,1/2+y,1/2+z
1/2+x,-y,1/2+z
loop_
_atom_site_type_symbol
_atom_site_label
_atom_site_fract_x
_atom_site_fract_y
_atom_site_fract_z
Si Si1 0.768626 0.931818 0.420475
Si Si2 0.349289 0.660420 0.955322
Si Si3 0.937424 0.661678 0.179623
Si Si4 0.146337 0.542489 0.104677
Si Si5 0.356484 0.478115 0.186761
Si Si6 0.435909 0.596879 0.104023
O O1 0.796994 0.856426 0.471377
O O2 0.706130 0.915596 0.386286
O O3 0.769534 0.000000 0.500000
O O4 0.805365 0.962283 0.328014
O O5 0.348293 0.750000 0.922676
O O6 0.345105 0.608627 0.853559
O O7 0.406225 0.640292 0.012053
O O8 0.924590 0.750000 0.152845
O O9 0.898375 0.610058 0.110544
O O10 0.926880 0.649416 0.297702
O O11 0.000000 0.638881 0.152453
O O12 0.135439 0.478655 0.192749
O O13 0.138577 0.500000 0.000000
O O14 0.409231 0.512157 0.125402
O O15 0.500000 0.585570 0.076447
#
# Coordination Sequence:
#
# PCOD8298331 Si02
#       6
#    16  16  16  16  16  16
#     4   8  16  31  50  69  92 122 157 193 231 278
#     4  10  19  30  47  74 105 129 149 185 241 296
#     4   9  18  32  49  71  97 121 151 199 251 286
#     4  10  19  32  52  71  89 124 171 206 230 271
#     4   9  18  32  48  69  98 130 159 193 237 280
#     4   9  17  31  51  72  95 126 162 194 230 285
#
# _framework density 17.324895999999999
#
# number of rings (size 3 to 8) (size 9 to 14) (size 15 to 20)
#    0.000    2.833    0.000    2.500    0.000    3.333 
#    0.000    0.833    0.000   19.000    0.000    0.000 
#    0.000    0.000    0.000    0.000    0.000    0.000 
#
# Total GULP energy -595047.286326 kJ/mol
# GULP energy per Si atom -12396.818465 kJ/mol
# Density = 1.728546 g / cm^3
# Si number density = 17.324896 Si / 1000 Ang^3
#
#
#
# Elastic Constant Matrix: (Units=GPa)
#
#
# Indices 1 2 3 4 5 6 
#
# 1 114.2959 55.2030 33.4324 0.0000 0.0000 0.0000
# 2 55.2030 113.2084 48.7025 0.0000 0.0000 0.0000
# 3 33.4324 48.7025 83.5858 0.0000 0.0000 0.0000
# 4 0.0000 0.0000 0.0000 15.7801 0.0000 0.0000
# 5 0.0000 0.0000 0.0000 0.0000 21.5488 0.0000
# 6 0.0000 0.0000 0.0000 0.0000 0.0000 20.9031
#
#
#
# Elastic Compliance Matrix: (Units=1/GPa)
#
#
# Indices 1 2 3 4 5 6 
#
# 1 0.011644 -0.004903 -0.001800 0.000000 0.000000 0.000000
# 2 -0.004903 0.013853 -0.006110 0.000000 0.000000 0.000000
# 3 -0.001800 -0.006110 0.016244 0.000000 0.000000 0.000000
# 4 0.000000 0.000000 0.000000 0.063371 0.000000 0.000000
# 5 0.000000 0.000000 0.000000 0.000000 0.046406 0.000000
# 6 0.000000 0.000000 0.000000 0.000000 0.000000 0.047840
#
#
# Mechanical properties :
#
#
# Convention : Reuss Voigt Hill
#
# Bulk Modulus (GPa) = 62.06181 65.08510 63.57345
# Shear Modulus (GPa) = 21.70541 23.22990 22.46766
#
# Velocity S-wave (km/s) = 3.54340 3.66572 3.60508
# Velocity P-wave (km/s) = 7.25541 7.45423 7.35549
#
# Compressibility (1/GPa) = 0.01611297
#
# Stress axis : x y z
#
# Youngs Moduli (GPa) = 85.88041 72.18653 61.56070
#
# Poissons Ratio (x) = 0.35396 0.11083
# Poissons Ratio (y) = 0.42111 0.37616
# Poissons Ratio (z) = 0.15461 0.44109
#
# Static dielectric constant tensor:
#      x y z
#    x 3.599930 0.000000 0.000000 
#    y 0.000000 3.006480 0.000000 
#    z 0.000000 0.000000 3.064720 
# 
# 
# High freq. dielectric constant tensor:
#      x y z
#    x 1.677530 0.000000 0.000000 
#    y 0.000000 1.644340 0.000000 
#    z 0.000000 0.000000 1.656090 
# 
# From -- ./inp_files/25190.got.cif
#   From: 2010.03.12/outbox.cif.g09.slc.cpg/sg74_13_cif.got.tgz:25190.got - 2010.04.16 15:46:19.
