data_PCOD8298845
_publ_section_title
;
Structure prediction by ZEFSAII (Michael W. Deem and Ramdas Pophale) SiO2 
 PCOD8298845
Probable space group: I M M A
;
_chemical_formula_sum "Si O2"
_cell_formula_units_Z 128
_cell_length_a 24.569356
_cell_length_b 26.741185
_cell_length_c 11.051396
_cell_angle_alpha 90.000000
_cell_angle_beta 90.000000
_cell_angle_gamma 90.000000
_cell_volume 7260.918511
_symmetry_space_group_name_H-M "I M M A"
_symmetry_group_IT_number 74
_symmetry_cell_setting 'orthorhombic'
loop_
_space_group_symop_operation_xyz
x,y,z
-x,1/2-y,z
x,-y,-z
-x,1/2+y,-z
-x,-y,-z
x,1/2+y,-z
-x,y,z
x,1/2-y,z
1/2+x,1/2+y,1/2+z
1/2-x,-y,1/2+z
1/2+x,1/2-y,1/2-z
1/2-x,y,1/2-z
1/2-x,1/2-y,1/2-z
1/2+x,y,1/2-z
1/2-x,1/2+y,1/2+z
1/2+x,-y,1/2+z
loop_
_atom_site_type_symbol
_atom_site_label
_atom_site_fract_x
_atom_site_fract_y
_atom_site_fract_z
Si Si1 0.151522 0.031689 0.272641
Si Si2 0.861215 0.808613 0.731073
Si Si3 0.560627 0.192113 0.446939
Si Si4 0.168987 0.613340 0.556066
Si Si5 0.688140 0.579802 0.209547
Si Si6 0.790553 0.883206 0.871101
Si Si7 0.129808 0.881247 0.065948
Si Si8 0.439935 0.456138 0.407206
O O1 0.141120 0.062085 0.397278
O O2 0.189215 0.063970 0.182879
O O3 0.093217 0.023930 0.209043
O O4 0.180601 0.979494 0.304520
O O5 0.850515 0.750000 0.707149
O O6 0.914937 0.818048 0.812418
O O7 0.865938 0.838164 0.601380
O O8 0.811650 0.833342 0.804423
O O9 0.500000 0.168750 0.450961
O O10 0.558002 0.250000 0.473275
O O11 0.598827 0.171753 0.557058
O O12 0.176409 0.610588 0.412949
O O13 0.225802 0.616837 0.629832
O O14 0.750000 0.591182 0.250000
O O15 0.640392 0.599335 0.299227
O O16 0.809844 0.880114 0.009819
O O17 0.091186 0.912637 0.976744
O O18 0.446851 0.500000 0.500000
O O19 0.500000 0.438158 0.364709
#
# Coordination Sequence:
#
# PCOD8298845 Si02
#       8
#    16  16  16  16  16  16  16  16
#     4  10  20  33  51  77 102 136 180 228 266 307
#     4   9  18  33  55  80 103 128 163 215 274 325
#     4   9  18  35  62  87 102 124 165 225 284 318
#     4  11  21  33  48  73 108 142 180 215 256 306
#     4  12  22  34  50  70 107 154 186 212 250 307
#     4   9  18  32  49  75 104 132 173 222 262 305
#     4  10  19  33  51  78 109 136 176 218 257 314
#     4  10  19  33  55  78 102 132 171 221 276 319
#
# _framework density 17.628623999999999
#
# number of rings (size 3 to 8) (size 9 to 14) (size 15 to 20)
#    0.000    2.000    2.500    3.750    0.000    1.000 
#    0.000    0.625    0.000    6.000    0.000    1.750 
#    0.000    0.000    0.000    0.000    0.000    0.000 
#
# Total GULP energy -792914.546216 kJ/mol
# GULP energy per Si atom -12389.289785 kJ/mol
# Density = 1.758850 g / cm^3
# Si number density = 17.628624 Si / 1000 Ang^3
#
#
#
# Elastic Constant Matrix: (Units=GPa)
#
#
# Indices 1 2 3 4 5 6 
#
# 1 82.4329 22.7730 24.4649 0.0000 0.0000 0.0000
# 2 22.7730 92.8499 40.2971 0.0000 0.0000 0.0000
# 3 24.4649 40.2971 88.3369 0.0000 0.0000 0.0000
# 4 0.0000 0.0000 0.0000 19.9805 0.0000 0.0000
# 5 0.0000 0.0000 0.0000 0.0000 18.6051 0.0000
# 6 0.0000 0.0000 0.0000 0.0000 0.0000 19.2947
#
#
#
# Elastic Compliance Matrix: (Units=1/GPa)
#
#
# Indices 1 2 3 4 5 6 
#
# 1 0.013542 -0.002112 -0.002787 0.000000 0.000000 0.000000
# 2 -0.002112 0.013758 -0.005691 0.000000 0.000000 0.000000
# 3 -0.002787 -0.005691 0.014688 0.000000 0.000000 0.000000
# 4 0.000000 0.000000 0.000000 0.050049 0.000000 0.000000
# 5 0.000000 0.000000 0.000000 0.000000 0.053749 0.000000
# 6 0.000000 0.000000 0.000000 0.000000 0.000000 0.051828
#
#
# Mechanical properties :
#
#
# Convention : Reuss Voigt Hill
#
# Bulk Modulus (GPa) = 48.05840 48.74332 48.40086
# Shear Modulus (GPa) = 22.15045 23.31505 22.73275
#
# Velocity S-wave (km/s) = 3.54857 3.64066 3.59491
# Velocity P-wave (km/s) = 6.64158 6.73666 6.68929
#
# Compressibility (1/GPa) = 0.02080802
#
# Stress axis : x y z
#
# Youngs Moduli (GPa) = 73.84640 72.68489 68.08114
#
# Poissons Ratio (x) = 0.15349 0.18974
# Poissons Ratio (y) = 0.15594 0.38747
# Poissons Ratio (z) = 0.20581 0.41367
#
# Static dielectric constant tensor:
#      x y z
#    x 3.461840 0.000000 0.000000 
#    y 0.000000 1.982060 0.000000 
#    z 0.000000 0.000000 3.100530 
# 
# 
# High freq. dielectric constant tensor:
#      x y z
#    x 1.676180 0.000000 0.000000 
#    y 0.000000 1.681030 0.000000 
#    z 0.000000 0.000000 1.661730 
# 
# From -- ./inp_files/25682.got.cif
#   From: 2010.03.12/outbox.cif.g09.slc.cpg/sg74_13_cif.got.tgz:25682.got - 2010.04.16 15:46:19.
