data_PCOD8298967
_publ_section_title
;
Structure prediction by ZEFSAII (Michael W. Deem and Ramdas Pophale) SiO2 
 PCOD8298967
Probable space group: I M M A
;
_chemical_formula_sum "Si O2"
_cell_formula_units_Z 96
_cell_length_a 8.919099
_cell_length_b 19.804230
_cell_length_c 29.055301
_cell_angle_alpha 90.000000
_cell_angle_beta 90.000000
_cell_angle_gamma 90.000000
_cell_volume 5132.208893
_symmetry_space_group_name_H-M "I M M A"
_symmetry_group_IT_number 74
_symmetry_cell_setting 'orthorhombic'
loop_
_space_group_symop_operation_xyz
x,y,z
-x,1/2-y,z
x,-y,-z
-x,1/2+y,-z
-x,-y,-z
x,1/2+y,-z
-x,y,z
x,1/2-y,z
1/2+x,1/2+y,1/2+z
1/2-x,-y,1/2+z
1/2+x,1/2-y,1/2-z
1/2-x,y,1/2-z
1/2-x,1/2-y,1/2-z
1/2+x,y,1/2-z
1/2-x,1/2+y,1/2+z
1/2+x,-y,1/2+z
loop_
_atom_site_type_symbol
_atom_site_label
_atom_site_fract_x
_atom_site_fract_y
_atom_site_fract_z
Si Si1 0.677567 0.574853 0.300660
Si Si2 0.323929 0.171119 0.873491
Si Si3 0.822748 0.589912 0.463484
Si Si4 0.826085 0.175354 0.295631
Si Si5 0.169134 0.448263 0.047990
Si Si6 0.167100 0.433963 0.153186
O O1 0.500000 0.582768 0.295269
O O2 0.750000 0.573936 0.250000
O O3 0.739004 0.637194 0.330560
O O4 0.720900 0.506952 0.328651
O O5 0.500000 0.158707 0.866490
O O6 0.283223 0.250000 0.873782
O O7 0.270846 0.139933 0.922466
O O8 0.771150 0.514770 0.451440
O O9 0.741824 0.606905 0.512539
O O10 0.000000 0.593794 0.470134
O O11 0.764239 0.250000 0.308173
O O12 0.750000 0.147005 0.250000
O O13 0.786566 0.122483 0.334387
O O14 0.000000 0.177966 0.287157
O O15 0.166919 0.422443 0.099211
O O16 0.000000 0.464628 0.031858
O O17 0.000000 0.420000 0.172848
#
# Coordination Sequence:
#
# PCOD8298967 Si02
#       6
#    16  16  16  16  16  16
#     4  11  23  39  58  84 114 147 191 240 289 340
#     4  10  22  40  60  82 112 151 193 238 288 341
#     4  10  19  33  55  83 110 142 182 223 272 328
#     4  10  21  36  55  79 108 145 186 226 273 331
#     4  10  19  33  55  82 113 142 177 225 272 325
#     4  10  21  36  56  84 114 148 186 230 280 329
#
# _framework density 18.705397000000001
#
# number of rings (size 3 to 8) (size 9 to 14) (size 15 to 20)
#    0.000    1.833    1.667    3.500    0.000    6.333 
#    0.000    0.833    0.000    3.000    0.000    0.000 
#    0.000    0.000    0.000    0.000    0.000    0.000 
#
# Total GULP energy -594908.573980 kJ/mol
# GULP energy per Si atom -12393.928625 kJ/mol
# Density = 1.866282 g / cm^3
# Si number density = 18.705397 Si / 1000 Ang^3
#
#
#
# Elastic Constant Matrix: (Units=GPa)
#
#
# Indices 1 2 3 4 5 6 
#
# 1 68.6981 37.2254 56.9840 0.0000 0.0000 0.0000
# 2 37.2254 80.9993 56.1414 0.0000 0.0000 0.0000
# 3 56.9840 56.1414 141.6366 0.0000 0.0000 0.0000
# 4 0.0000 0.0000 0.0000 27.8022 0.0000 0.0000
# 5 0.0000 0.0000 0.0000 0.0000 35.7005 0.0000
# 6 0.0000 0.0000 0.0000 0.0000 0.0000 36.4082
#
#
#
# Elastic Compliance Matrix: (Units=1/GPa)
#
#
# Indices 1 2 3 4 5 6 
#
# 1 0.023739 -0.005915 -0.007206 0.000000 0.000000 0.000000
# 2 -0.005915 0.018496 -0.004952 0.000000 0.000000 0.000000
# 3 -0.007206 -0.004952 0.011922 0.000000 0.000000 0.000000
# 4 0.000000 0.000000 0.000000 0.035968 0.000000 0.000000
# 5 0.000000 0.000000 0.000000 0.000000 0.028011 0.000000
# 6 0.000000 0.000000 0.000000 0.000000 0.000000 0.027466
#
#
# Mechanical properties :
#
#
# Convention : Reuss Voigt Hill
#
# Bulk Modulus (GPa) = 55.51998 65.78177 60.65087
# Shear Modulus (GPa) = 26.63068 29.38107 28.00587
#
# Velocity S-wave (km/s) = 3.77727 3.96754 3.87358
# Velocity P-wave (km/s) = 6.98351 7.49881 7.24574
#
# Compressibility (1/GPa) = 0.01801153
#
# Stress axis : x y z
#
# Youngs Moduli (GPa) = 42.12444 54.06473 83.87660
#
# Poissons Ratio (x) = 0.31981 0.60443
# Poissons Ratio (y) = 0.24918 0.41533
# Poissons Ratio (z) = 0.30356 0.26771
#
# Static dielectric constant tensor:
#      x y z
#    x 3.698250 0.000000 0.000000 
#    y 0.000000 3.317150 0.000000 
#    z 0.000000 0.000000 3.061890 
# 
# 
# High freq. dielectric constant tensor:
#      x y z
#    x 1.735190 0.000000 0.000000 
#    y 0.000000 1.705250 0.000000 
#    z 0.000000 0.000000 1.740540 
# 
# From -- ./inp_files/64345.got.cif
#   From: 2010.03.12/outbox.cif.g09.slc.cpg/sg74_33_cif.got.tgz:64345.got - 2010.04.16 15:46:19.
