data_PCOD8298925
_publ_section_title
;
Structure prediction by ZEFSAII (Michael W. Deem and Ramdas Pophale) SiO2 
 PCOD8298925
Probable space group: I M M A
;
_chemical_formula_sum "Si O2"
_cell_formula_units_Z 96
_cell_length_a 8.622788
_cell_length_b 27.877086
_cell_length_c 20.610727
_cell_angle_alpha 90.000000
_cell_angle_beta 90.000000
_cell_angle_gamma 90.000000
_cell_volume 4954.369511
_symmetry_space_group_name_H-M "I M M A"
_symmetry_group_IT_number 74
_symmetry_cell_setting 'orthorhombic'
loop_
_space_group_symop_operation_xyz
x,y,z
-x,1/2-y,z
x,-y,-z
-x,1/2+y,-z
-x,-y,-z
x,1/2+y,-z
-x,y,z
x,1/2-y,z
1/2+x,1/2+y,1/2+z
1/2-x,-y,1/2+z
1/2+x,1/2-y,1/2-z
1/2-x,y,1/2-z
1/2-x,1/2-y,1/2-z
1/2+x,y,1/2-z
1/2-x,1/2+y,1/2+z
1/2+x,-y,1/2+z
loop_
_atom_site_type_symbol
_atom_site_label
_atom_site_fract_x
_atom_site_fract_y
_atom_site_fract_z
Si Si1 0.315845 0.861535 0.059209
Si Si2 0.817167 0.029066 0.563960
Si Si3 0.816121 0.631181 0.681333
Si Si4 0.815324 0.696073 0.563778
Si Si5 0.317105 0.528031 0.681089
Si Si6 0.816478 0.195480 0.682593
O O1 0.500000 0.858265 0.058543
O O2 0.262153 0.916394 0.054024
O O3 0.250349 0.837589 0.124906
O O4 0.247871 0.832315 0.998147
O O5 0.727182 0.009792 0.626233
O O6 0.000000 0.024790 0.576799
O O7 0.768011 0.000000 0.500000
O O8 0.750000 0.648465 0.750000
O O9 0.758480 0.669476 0.628580
O O10 0.752750 0.579290 0.661373
O O11 0.000000 0.627899 0.684841
O O12 0.748478 0.750000 0.563689
O O13 0.000000 0.696919 0.560956
O O14 0.500000 0.532702 0.687572
O O15 0.250000 0.510362 0.750000
O O16 0.759837 0.250000 0.670732
O O17 0.750000 0.175270 0.750000
O O18 0.000000 0.192954 0.685422
#
# Coordination Sequence:
#
# PCOD8298925 Si02
#       6
#    16  16  16  16  16  16
#     4   9  17  30  50  75 102 133 170 211 253 299
#     4  10  20  35  55  79 108 141 177 217 263 316
#     4  10  19  33  54  79 107 139 174 214 262 315
#     4   9  17  30  51  79 107 136 174 217 257 302
#     4  11  22  37  57  79 106 140 179 223 270 322
#     4   9  17  30  49  72  98 128 162 201 245 294
#
# _framework density 19.376833999999999
#
# number of rings (size 3 to 8) (size 9 to 14) (size 15 to 20)
#    0.000    2.333    0.000    4.500    0.000    6.000 
#    0.000    2.500    0.000    3.500    0.000    0.000 
#    0.000    0.000    0.000    0.000    0.000    0.000 
#
# Total GULP energy -595273.000441 kJ/mol
# GULP energy per Si atom -12401.520843 kJ/mol
# Density = 1.933273 g / cm^3
# Si number density = 19.376834 Si / 1000 Ang^3
#
#
#
# Elastic Constant Matrix: (Units=GPa)
#
#
# Indices 1 2 3 4 5 6 
#
# 1 51.5034 23.8102 31.3638 0.0000 0.0000 0.0000
# 2 23.8102 150.7340 105.7273 0.0000 0.0000 0.0000
# 3 31.3638 105.7273 174.2273 0.0003 0.0000 0.0000
# 4 0.0000 0.0000 0.0003 44.4266 0.0000 0.0000
# 5 0.0000 0.0000 0.0000 0.0000 29.3414 0.0000
# 6 0.0000 0.0000 0.0000 0.0000 0.0000 17.0076
#
#
#
# Elastic Compliance Matrix: (Units=1/GPa)
#
#
# Indices 1 2 3 4 5 6 
#
# 1 0.021933 -0.001210 -0.003214 0.000000 0.000000 0.000000
# 2 -0.001210 0.011617 -0.006832 0.000000 0.000000 0.000000
# 3 -0.003214 -0.006832 0.010464 0.000000 0.000000 0.000000
# 4 0.000000 0.000000 0.000000 0.022509 0.000000 0.000000
# 5 0.000000 0.000000 0.000000 0.000000 0.034082 0.000000
# 6 0.000000 0.000000 0.000000 0.000000 0.000000 0.058797
#
#
# Mechanical properties :
#
#
# Convention : Reuss Voigt Hill
#
# Bulk Modulus (GPa) = 46.50716 77.58526 62.04621
# Shear Modulus (GPa) = 26.44360 32.52603 29.48481
#
# Velocity S-wave (km/s) = 3.69819 4.10152 3.90507
# Velocity P-wave (km/s) = 6.50300 7.90931 7.24038
#
# Compressibility (1/GPa) = 0.02150207
#
# Stress axis : x y z
#
# Youngs Moduli (GPa) = 45.59381 86.07712 95.56507
#
# Poissons Ratio (x) = 0.10418 0.30713
# Poissons Ratio (y) = 0.05518 0.65290
# Poissons Ratio (z) = 0.14653 0.58808
#
# Static dielectric constant tensor:
#      x y z
#    x 3.151460 0.000000 0.000000 
#    y 0.000000 3.670680 0.000000 
#    z 0.000000 0.000000 3.759100 
# 
# 
# High freq. dielectric constant tensor:
#      x y z
#    x 1.717900 0.000000 0.000000 
#    y 0.000000 1.757190 0.000000 
#    z 0.000000 0.000000 1.771070 
# 
# From -- ./inp_files/49072.got.cif
#   From: 2010.03.12/outbox.cif.g09.slc.cpg/sg74_25_cif.got.tgz:49072.got - 2010.04.16 15:46:19.
