data_PCOD8298408
_publ_section_title
;
Structure prediction by ZEFSAII (Michael W. Deem and Ramdas Pophale) SiO2 
 PCOD8298408
Probable space group: I M M A
;
_chemical_formula_sum "Si O2"
_cell_formula_units_Z 96
_cell_length_a 9.591039
_cell_length_b 19.316672
_cell_length_c 30.556155
_cell_angle_alpha 90.000000
_cell_angle_beta 90.000000
_cell_angle_gamma 90.000000
_cell_volume 5661.045778
_symmetry_space_group_name_H-M "I M M A"
_symmetry_group_IT_number 74
_symmetry_cell_setting 'orthorhombic'
loop_
_space_group_symop_operation_xyz
x,y,z
-x,1/2-y,z
x,-y,-z
-x,1/2+y,-z
-x,-y,-z
x,1/2+y,-z
-x,y,z
x,1/2-y,z
1/2+x,1/2+y,1/2+z
1/2-x,-y,1/2+z
1/2+x,1/2-y,1/2-z
1/2-x,y,1/2-z
1/2-x,1/2-y,1/2-z
1/2+x,y,1/2-z
1/2-x,1/2+y,1/2+z
1/2+x,-y,1/2+z
loop_
_atom_site_type_symbol
_atom_site_label
_atom_site_fract_x
_atom_site_fract_y
_atom_site_fract_z
Si Si1 0.658794 0.328798 0.915557
Si Si2 0.336655 0.955103 0.542108
Si Si3 0.162242 0.328486 0.483254
Si Si4 0.159009 0.677291 0.792648
Si Si5 0.163335 0.053458 0.878751
Si Si6 0.162189 0.972949 0.793910
O O1 0.500000 0.352958 0.909023
O O2 0.677762 0.250000 0.900118
O O3 0.757744 0.374887 0.885648
O O4 0.702063 0.336473 0.965994
O O5 0.500000 0.937785 0.541181
O O6 0.254537 0.882558 0.543942
O O7 0.292228 0.000000 0.500000
O O8 0.292469 0.997378 0.585027
O O9 0.195833 0.250000 0.467763
O O10 0.000000 0.344994 0.475681
O O11 0.187062 0.750000 0.819852
O O12 0.250000 0.680008 0.750000
O O13 0.190621 0.603657 0.815812
O O14 0.000000 0.676415 0.777023
O O15 0.000000 0.068218 0.882133
O O16 0.207434 0.027067 0.830834
O O17 0.250000 0.985891 0.750000
O O18 0.000000 0.981782 0.781798
#
# Coordination Sequence:
#
# PCOD8298408 Si02
#       6
#    16  16  16  16  16  16
#     4   9  18  32  50  73  98 125 162 204 243 289
#     4  10  19  31  47  71 102 132 163 198 237 290
#     4   9  18  32  49  70  98 132 169 206 243 286
#     4   8  13  23  41  63  85 112 147 186 227 270
#     4  10  20  33  49  73 102 130 162 202 244 290
#     4   9  18  32  49  70  97 126 161 204 246 288
#
# _framework density 16.957998
#
# number of rings (size 3 to 8) (size 9 to 14) (size 15 to 20)
#    0.000    2.833    1.667    1.000    0.000    2.333 
#    0.000    2.500    0.000    3.500    0.000    9.333 
#    0.000    0.000    0.000    0.000    0.000    0.000 
#
# Total GULP energy -594748.658163 kJ/mol
# GULP energy per Si atom -12390.597045 kJ/mol
# Density = 1.691940 g / cm^3
# Si number density = 16.957998 Si / 1000 Ang^3
#
#
#
# Elastic Constant Matrix: (Units=GPa)
#
#
# Indices 1 2 3 4 5 6 
#
# 1 50.1979 49.7900 31.9684 0.0000 0.0000 0.0000
# 2 49.7900 109.6168 42.6589 0.0000 0.0000 0.0000
# 3 31.9684 42.6589 74.1072 0.0000 0.0000 0.0000
# 4 0.0000 0.0000 0.0000 20.9105 0.0000 0.0000
# 5 0.0000 0.0000 0.0000 0.0000 20.7324 0.0000
# 6 0.0000 0.0000 0.0000 0.0000 0.0000 33.8512
#
#
#
# Elastic Compliance Matrix: (Units=1/GPa)
#
#
# Indices 1 2 3 4 5 6 
#
# 1 0.040282 -0.014864 -0.008820 0.000000 0.000000 0.000000
# 2 -0.014864 0.017241 -0.003513 0.000000 0.000000 0.000000
# 3 -0.008820 -0.003513 0.019321 0.000000 0.000000 0.000000
# 4 0.000000 0.000000 0.000000 0.047823 0.000000 0.000000
# 5 0.000000 0.000000 0.000000 0.000000 0.048234 0.000000
# 6 0.000000 0.000000 0.000000 0.000000 0.000000 0.029541
#
#
# Mechanical properties :
#
#
# Convention : Reuss Voigt Hill
#
# Bulk Modulus (GPa) = 44.54427 53.63963 49.09195
# Shear Modulus (GPa) = 18.91654 22.39911 20.65782
#
# Velocity S-wave (km/s) = 3.34352 3.63830 3.49402
# Velocity P-wave (km/s) = 6.42106 7.02490 6.72975
#
# Compressibility (1/GPa) = 0.02244958
#
# Stress axis : x y z
#
# Youngs Moduli (GPa) = 24.82519 58.00056 51.75742
#
# Poissons Ratio (x) = 0.86213 0.45652
# Poissons Ratio (y) = 0.36900 0.18180
# Poissons Ratio (z) = 0.21897 0.20373
#
# Static dielectric constant tensor:
#      x y z
#    x 3.109270 0.000000 0.000000 
#    y 0.000000 3.492570 0.000000 
#    z 0.000000 0.000000 3.024910 
# 
# 
# High freq. dielectric constant tensor:
#      x y z
#    x 1.653690 0.000000 0.000000 
#    y 0.000000 1.665590 0.000000 
#    z 0.000000 0.000000 1.612520 
# 
# From -- ./inp_files/64282.got.cif
#   From: 2010.03.12/outbox.cif.g09.slc.cpg/sg74_33_cif.got.tgz:64282.got - 2010.04.16 15:46:19.
