data_PCOD8298557
_publ_section_title
;
Structure prediction by ZEFSAII (Michael W. Deem and Ramdas Pophale) SiO2 
 PCOD8298557
Probable space group: I M M A
;
_chemical_formula_sum "Si O2"
_cell_formula_units_Z 104
_cell_length_a 8.779221
_cell_length_b 32.212831
_cell_length_c 20.195433
_cell_angle_alpha 90.000000
_cell_angle_beta 90.000000
_cell_angle_gamma 90.000000
_cell_volume 5711.340396
_symmetry_space_group_name_H-M "I M M A"
_symmetry_group_IT_number 74
_symmetry_cell_setting 'orthorhombic'
loop_
_space_group_symop_operation_xyz
x,y,z
-x,1/2-y,z
x,-y,-z
-x,1/2+y,-z
-x,-y,-z
x,1/2+y,-z
-x,y,z
x,1/2-y,z
1/2+x,1/2+y,1/2+z
1/2-x,-y,1/2+z
1/2+x,1/2-y,1/2-z
1/2-x,y,1/2-z
1/2-x,1/2-y,1/2-z
1/2+x,y,1/2-z
1/2-x,1/2+y,1/2+z
1/2+x,-y,1/2+z
loop_
_atom_site_type_symbol
_atom_site_label
_atom_site_fract_x
_atom_site_fract_y
_atom_site_fract_z
Si Si1 0.319961 0.250000 0.321764
Si Si2 0.318755 0.051215 0.679440
Si Si3 0.674201 0.903424 0.953440
Si Si4 0.320398 0.986065 0.570871
Si Si5 0.823312 0.187784 0.418759
Si Si6 0.180642 0.122917 0.599485
Si Si7 0.676452 0.796259 0.441861
O O1 0.500000 0.250000 0.317516
O O2 0.250000 0.250000 0.250000
O O3 0.264389 0.291398 0.358392
O O4 0.500000 0.052874 0.683411
O O5 0.250000 0.039277 0.750000
O O6 0.255999 0.095942 0.657270
O O7 0.258623 0.016204 0.628338
O O8 0.500000 0.917637 0.954719
O O9 0.770202 0.938817 0.916435
O O10 0.696823 0.861621 0.911423
O O11 0.731499 0.895925 0.028618
O O12 0.500000 0.988562 0.569579
O O13 0.251634 0.000000 0.500000
O O14 0.753995 0.204074 0.486735
O O15 0.000000 0.200425 0.417420
O O16 0.242419 0.170055 0.605553
O O17 0.000000 0.123570 0.607499
O O18 0.500000 0.808174 0.449933
O O19 0.694957 0.750000 0.411019
#
# Coordination Sequence:
#
# PCOD8298557 Si02
#       7
#     8  16  16  16  16  16  16
#     4  12  24  38  56  78 104 146 191 232 283 340
#     4  11  23  39  58  82 114 150 189 232 282 342
#     4   9  19  33  54  83 111 141 179 228 281 330
#     4  10  20  35  56  83 112 146 187 235 284 332
#     4  10  20  35  53  78 110 143 182 230 281 333
#     4  10  20  34  54  82 113 148 186 227 281 332
#     4  10  19  31  52  83 115 145 181 226 278 330
#
# _framework density 18.209385999999999
#
# number of rings (size 3 to 8) (size 9 to 14) (size 15 to 20)
#    0.000    1.846    2.308    3.462    0.000    5.538 
#    0.000    0.769    0.000    2.308    0.000    0.000 
#    0.000    0.000    0.000    0.000    0.000    0.000 
#
# Total GULP energy -644895.005454 kJ/mol
# GULP energy per Si atom -12401.827028 kJ/mol
# Density = 1.816794 g / cm^3
# Si number density = 18.209386 Si / 1000 Ang^3
#
#
#
# Elastic Constant Matrix: (Units=GPa)
#
#
# Indices 1 2 3 4 5 6 
#
# 1 94.3142 44.2272 41.0879 -0.0001 0.0000 0.0000
# 2 44.2272 129.9800 54.2672 -0.0002 0.0000 0.0000
# 3 41.0879 54.2672 100.6729 -0.0008 -0.0001 0.0001
# 4 -0.0001 -0.0002 -0.0008 28.7340 0.0000 0.0000
# 5 0.0000 0.0000 -0.0001 0.0000 28.2621 0.0000
# 6 0.0000 0.0000 0.0001 0.0000 0.0000 33.5455
#
#
#
# Elastic Compliance Matrix: (Units=1/GPa)
#
#
# Indices 1 2 3 4 5 6 
#
# 1 0.013754 -0.003015 -0.003988 0.000000 0.000000 0.000000
# 2 -0.003015 0.010589 -0.004477 0.000000 0.000000 0.000000
# 3 -0.003988 -0.004477 0.013974 0.000000 0.000000 0.000000
# 4 0.000000 0.000000 0.000000 0.034802 0.000000 0.000000
# 5 0.000000 0.000000 0.000000 0.000000 0.035383 0.000000
# 6 0.000000 0.000000 0.000000 0.000000 0.000000 0.029810
#
#
# Mechanical properties :
#
#
# Convention : Reuss Voigt Hill
#
# Bulk Modulus (GPa) = 65.12048 67.12575 66.12312
# Shear Modulus (GPa) = 30.04949 30.46731 30.25840
#
# Velocity S-wave (km/s) = 4.06670 4.09487 4.08081
# Velocity P-wave (km/s) = 7.60857 7.70069 7.65477
#
# Compressibility (1/GPa) = 0.01535615
#
# Stress axis : x y z
#
# Youngs Moduli (GPa) = 72.70530 94.44109 71.55944
#
# Poissons Ratio (x) = 0.28473 0.28541
# Poissons Ratio (y) = 0.21920 0.32039
# Poissons Ratio (z) = 0.28998 0.42284
#
# Static dielectric constant tensor:
#      x y z
#    x 3.397360 0.000000 0.000000 
#    y 0.000000 3.541320 0.000000 
#    z 0.000000 0.000000 3.137320 
# 
# 
# High freq. dielectric constant tensor:
#      x y z
#    x 1.716080 0.000000 0.000000 
#    y 0.000000 1.719080 0.000000 
#    z 0.000000 0.000000 1.668990 
# 
# From -- ./inp_files/49637.got.cif
#   From: 2010.03.12/outbox.cif.g09.slc.cpg/sg74_25_cif.got.tgz:49637.got - 2010.04.16 15:46:19.
