data_PCOD8298225
_publ_section_title
;
Structure prediction by ZEFSAII (Michael W. Deem and Ramdas Pophale) SiO2 
 PCOD8298225
Probable space group: I M M A
;
_chemical_formula_sum "Si O2"
_cell_formula_units_Z 112
_cell_length_a 25.830361
_cell_length_b 17.838355
_cell_length_c 15.364985
_cell_angle_alpha 90.000000
_cell_angle_beta 90.000000
_cell_angle_gamma 90.000000
_cell_volume 7079.741797
_symmetry_space_group_name_H-M "I M M A"
_symmetry_group_IT_number 74
_symmetry_cell_setting 'orthorhombic'
loop_
_space_group_symop_operation_xyz
x,y,z
-x,1/2-y,z
x,-y,-z
-x,1/2+y,-z
-x,-y,-z
x,1/2+y,-z
-x,y,z
x,1/2-y,z
1/2+x,1/2+y,1/2+z
1/2-x,-y,1/2+z
1/2+x,1/2-y,1/2-z
1/2-x,y,1/2-z
1/2-x,1/2-y,1/2-z
1/2+x,y,1/2-z
1/2-x,1/2+y,1/2+z
1/2+x,-y,1/2+z
loop_
_atom_site_type_symbol
_atom_site_label
_atom_site_fract_x
_atom_site_fract_y
_atom_site_fract_z
Si Si1 0.293520 0.954364 0.419507
Si Si2 0.784596 0.335328 0.603915
Si Si3 0.651373 0.334504 0.064164
Si Si4 0.212584 0.055265 0.327650
Si Si5 0.442381 0.585391 0.990011
Si Si6 0.058449 0.837640 0.324086
Si Si7 0.154570 0.923772 0.257260
O O1 0.265545 0.875092 0.439659
O O2 0.335298 0.935369 0.345330
O O3 0.320307 0.000000 0.500000
O O4 0.246016 0.007024 0.393617
O O5 0.768690 0.250000 0.620693
O O6 0.832396 0.341669 0.536949
O O7 0.802519 0.370367 0.696592
O O8 0.644983 0.250000 0.094539
O O9 0.693991 0.369554 0.126920
O O10 0.596517 0.375631 0.077210
O O11 0.250000 0.079799 0.250000
O O12 0.162258 0.006345 0.298906
O O13 0.500000 0.587281 0.949837
O O14 0.440586 0.631548 0.078849
O O15 0.423783 0.500000 0.000000
O O16 0.075676 0.750000 0.323355
O O17 0.097409 0.888466 0.266823
O O18 0.000000 0.845585 0.286206
#
# Coordination Sequence:
#
# PCOD8298225 Si02
#       7
#    16  16  16  16  16  16  16
#     4  10  19  32  48  66  94 126 155 198 243 283
#     4  10  19  29  45  72  98 125 156 193 242 291
#     4  11  20  29  47  68  94 130 160 198 241 281
#     4   9  19  33  48  66  91 128 166 199 236 280
#     4  10  20  31  46  69  97 132 168 198 234 287
#     4  10  19  31  47  69 100 131 157 195 248 301
#     4  10  19  30  49  70  90 125 164 196 235 287
#
# _framework density 15.819786000000001
#
# number of rings (size 3 to 8) (size 9 to 14) (size 15 to 20)
#    0.000    2.000    2.857    3.000    2.000    2.857 
#    0.000    0.000    0.000    0.429    0.000    0.000 
#    0.000    0.000    0.000    2.857    0.000    0.000 
#
# Total GULP energy -694029.395463 kJ/mol
# GULP energy per Si atom -12393.382062 kJ/mol
# Density = 1.578378 g / cm^3
# Si number density = 15.819786 Si / 1000 Ang^3
#
#
#
# Elastic Constant Matrix: (Units=GPa)
#
#
# Indices 1 2 3 4 5 6 
#
# 1 73.1017 46.1900 24.8014 0.0000 0.0000 0.0000
# 2 46.1900 105.6219 40.4462 0.0000 0.0000 0.0000
# 3 24.8014 40.4462 66.3280 0.0000 0.0000 0.0000
# 4 0.0000 0.0000 0.0000 21.2853 0.0000 0.0000
# 5 0.0000 0.0000 0.0000 0.0000 18.3558 0.0000
# 6 0.0000 0.0000 0.0000 0.0000 0.0000 21.6165
#
#
#
# Elastic Compliance Matrix: (Units=1/GPa)
#
#
# Indices 1 2 3 4 5 6 
#
# 1 0.019265 -0.007393 -0.002696 0.000000 0.000000 0.000000
# 2 -0.007393 0.015189 -0.006498 0.000000 0.000000 0.000000
# 3 -0.002696 -0.006498 0.020047 0.000000 0.000000 0.000000
# 4 0.000000 0.000000 0.000000 0.046981 0.000000 0.000000
# 5 0.000000 0.000000 0.000000 0.000000 0.054479 0.000000
# 6 0.000000 0.000000 0.000000 0.000000 0.000000 0.046261
#
#
# Mechanical properties :
#
#
# Convention : Reuss Voigt Hill
#
# Bulk Modulus (GPa) = 46.88517 51.99188 49.43853
# Shear Modulus (GPa) = 20.61828 21.15913 20.88871
#
# Velocity S-wave (km/s) = 3.61407 3.66117 3.63770
# Velocity P-wave (km/s) = 6.86416 7.12802 6.99733
#
# Compressibility (1/GPa) = 0.02132871
#
# Stress axis : x y z
#
# Youngs Moduli (GPa) = 51.90677 65.83759 49.88328
#
# Poissons Ratio (x) = 0.48672 0.13447
# Poissons Ratio (y) = 0.38373 0.32413
# Poissons Ratio (z) = 0.13992 0.42780
#
# Static dielectric constant tensor:
#      x y z
#    x 2.989350 0.000000 0.000000 
#    y 0.000000 3.163040 0.000000 
#    z 0.000000 0.000000 2.788540 
# 
# 
# High freq. dielectric constant tensor:
#      x y z
#    x 1.591310 0.000000 0.000000 
#    y 0.000000 1.619410 0.000000 
#    z 0.000000 0.000000 1.571970 
# 
# From -- ./inp_files/46255.got.cif
#   From: 2010.03.12/outbox.cif.g09.slc.cpg/sg74_24_cif.got.tgz:46255.got - 2010.04.16 15:46:19.
