data_PCOD8298663
_publ_section_title
;
Structure prediction by ZEFSAII (Michael W. Deem and Ramdas Pophale) SiO2 
 PCOD8298663
Probable space group: I M M A
;
_chemical_formula_sum "Si O2"
_cell_formula_units_Z 80
_cell_length_a 28.469653
_cell_length_b 9.117589
_cell_length_c 17.460525
_cell_angle_alpha 90.000000
_cell_angle_beta 90.000000
_cell_angle_gamma 90.000000
_cell_volume 4532.308706
_symmetry_space_group_name_H-M "I M M A"
_symmetry_group_IT_number 74
_symmetry_cell_setting 'orthorhombic'
loop_
_space_group_symop_operation_xyz
x,y,z
-x,1/2-y,z
x,-y,-z
-x,1/2+y,-z
-x,-y,-z
x,1/2+y,-z
-x,y,z
x,1/2-y,z
1/2+x,1/2+y,1/2+z
1/2-x,-y,1/2+z
1/2+x,1/2-y,1/2-z
1/2-x,y,1/2-z
1/2-x,1/2-y,1/2-z
1/2+x,y,1/2-z
1/2-x,1/2+y,1/2+z
1/2+x,-y,1/2+z
loop_
_atom_site_type_symbol
_atom_site_label
_atom_site_fract_x
_atom_site_fract_y
_atom_site_fract_z
Si Si1 0.648414 0.581439 0.283469
Si Si2 0.714471 0.084858 0.180071
Si Si3 0.785116 0.923624 0.079365
Si Si4 0.551978 0.081277 0.776136
Si Si5 0.055485 0.912595 0.571638
O O1 0.661041 0.750000 0.266316
O O2 0.666867 0.488541 0.210984
O O3 0.672126 0.534853 0.363396
O O4 0.591834 0.556615 0.289016
O O5 0.704293 0.250000 0.150926
O O6 0.750000 0.086020 0.250000
O O7 0.736238 0.989516 0.111037
O O8 0.779621 0.750000 0.068363
O O9 0.798217 0.000000 0.000000
O O10 0.500000 0.031551 0.746316
O O11 0.550057 0.250000 0.801255
O O12 0.568343 0.991900 0.849865
O O13 0.077493 0.750000 0.573070
O O14 0.000000 0.903746 0.561366
O O15 0.077802 0.000000 0.500000
#
# Coordination Sequence:
#
# PCOD8298663 Si02
#       5
#    16  16  16  16  16
#     4   9  18  32  50  72  98 129 163 199 240 285
#     4   9  17  30  49  72  96 122 152 188 234 288
#     4  10  19  32  51  74 100 128 159 197 241 290
#     4   9  17  30  48  69  94 127 167 206 241 280
#     4   9  16  26  41  61  85 114 149 190 235 279
#
# _framework density 17.651049
#
# number of rings (size 3 to 8) (size 9 to 14) (size 15 to 20)
#    0.000    2.800    0.000    1.800    0.000    6.400 
#    0.000    1.000    0.000    5.400    0.000    0.000 
#    0.000    0.000    0.000    0.000    0.000    0.600 
#
# Total GULP energy -495795.700233 kJ/mol
# GULP energy per Si atom -12394.892506 kJ/mol
# Density = 1.761087 g / cm^3
# Si number density = 17.651049 Si / 1000 Ang^3
#
#
#
# Elastic Constant Matrix: (Units=GPa)
#
#
# Indices 1 2 3 4 5 6 
#
# 1 96.3853 38.1322 49.3852 0.0000 0.0000 0.0000
# 2 38.1322 101.7012 50.0779 0.0000 0.0000 0.0000
# 3 49.3852 50.0779 93.5300 0.0000 0.0000 0.0000
# 4 0.0000 0.0000 0.0000 28.6162 0.0000 0.0000
# 5 0.0000 0.0000 0.0000 0.0000 19.0401 0.0000
# 6 0.0000 0.0000 0.0000 0.0000 0.0000 15.9336
#
#
#
# Elastic Compliance Matrix: (Units=1/GPa)
#
#
# Indices 1 2 3 4 5 6 
#
# 1 0.014602 -0.002279 -0.006490 0.000000 0.000000 0.000000
# 2 -0.002279 0.013709 -0.006137 0.000000 0.000000 0.000000
# 3 -0.006490 -0.006137 0.017404 0.000000 0.000000 0.000000
# 4 0.000000 0.000000 0.000000 0.034945 0.000000 0.000000
# 5 0.000000 0.000000 0.000000 0.000000 0.052521 0.000000
# 6 0.000000 0.000000 0.000000 0.000000 0.000000 0.062760
#
#
# Mechanical properties :
#
#
# Convention : Reuss Voigt Hill
#
# Bulk Modulus (GPa) = 62.87780 62.97856 62.92818
# Shear Modulus (GPa) = 21.64001 22.98606 22.31303
#
# Velocity S-wave (km/s) = 3.50521 3.61258 3.55930
# Velocity P-wave (km/s) = 7.21679 7.29097 7.25397
#
# Compressibility (1/GPa) = 0.01590387
#
# Stress axis : x y z
#
# Youngs Moduli (GPa) = 68.48423 72.94469 57.45819
#
# Poissons Ratio (x) = 0.16627 0.37288
# Poissons Ratio (y) = 0.15610 0.35259
# Poissons Ratio (z) = 0.44443 0.44763
#
# Static dielectric constant tensor:
#      x y z
#    x 3.226450 0.000000 0.000000 
#    y 0.000000 3.502670 0.000000 
#    z 0.000000 0.000000 3.054720 
# 
# 
# High freq. dielectric constant tensor:
#      x y z
#    x 1.665820 0.000000 0.000000 
#    y 0.000000 1.694480 0.000000 
#    z 0.000000 0.000000 1.652250 
# 
# From -- ./inp_files/39673.got.cif
#   From: 2010.03.12/outbox.cif.g09.slc.cpg/sg74_20_cif.got.tgz:39673.got - 2010.04.16 15:46:19.
