data_PCOD8298602
_publ_section_title
;
Structure prediction by ZEFSAII (Michael W. Deem and Ramdas Pophale) SiO2 
 PCOD8298602
Probable space group: I M M A
;
_chemical_formula_sum "Si O2"
_cell_formula_units_Z 112
_cell_length_a 18.203413
_cell_length_b 18.021652
_cell_length_c 20.478588
_cell_angle_alpha 90.000000
_cell_angle_beta 90.000000
_cell_angle_gamma 90.000000
_cell_volume 6718.114947
_symmetry_space_group_name_H-M "I M M A"
_symmetry_group_IT_number 74
_symmetry_cell_setting 'orthorhombic'
loop_
_space_group_symop_operation_xyz
x,y,z
-x,1/2-y,z
x,-y,-z
-x,1/2+y,-z
-x,-y,-z
x,1/2+y,-z
-x,y,z
x,1/2-y,z
1/2+x,1/2+y,1/2+z
1/2-x,-y,1/2+z
1/2+x,1/2-y,1/2-z
1/2-x,y,1/2-z
1/2-x,1/2-y,1/2-z
1/2+x,y,1/2-z
1/2-x,1/2+y,1/2+z
1/2+x,-y,1/2+z
loop_
_atom_site_type_symbol
_atom_site_label
_atom_site_fract_x
_atom_site_fract_y
_atom_site_fract_z
Si Si1 0.662407 0.336990 0.880292
Si Si2 0.416603 0.836181 0.736151
Si Si3 0.286519 0.916448 0.679425
Si Si4 0.153414 0.336918 0.375470
Si Si5 0.085291 0.086813 0.499484
Si Si6 0.709484 0.583717 0.318682
Si Si7 0.915503 0.336497 0.753631
O O1 0.665748 0.250000 0.892641
O O2 0.745019 0.366631 0.869611
O O3 0.611179 0.357664 0.818880
O O4 0.630342 0.375584 0.943336
O O5 0.500000 0.863685 0.727876
O O6 0.408424 0.750000 0.720184
O O7 0.366861 0.879692 0.683880
O O8 0.391584 0.852573 0.809729
O O9 0.250000 0.914277 0.750000
O O10 0.235554 0.870417 0.629600
O O11 0.295968 0.000290 0.653878
O O12 0.159457 0.250000 0.391166
O O13 0.109094 0.378462 0.431256
O O14 0.000000 0.103436 0.510830
O O15 0.102457 0.000000 0.500000
O O16 0.750000 0.585594 0.250000
O O17 0.628530 0.617944 0.308738
O O18 0.902024 0.250000 0.766634
O O19 0.000000 0.359117 0.760056
#
# Coordination Sequence:
#
# PCOD8298602 Si02
#       7
#    16  16  16  16  16  16  16
#     4  10  19  32  49  67  91 125 162 195 228 271
#     4   9  17  29  46  69  95 122 154 193 234 275
#     4   9  17  29  45  66  92 121 153 190 234 280
#     4  10  19  32  49  67  91 125 162 195 228 271
#     4  11  23  35  47  67  96 127 158 193 231 271
#     4   9  17  29  45  66  92 121 153 190 234 280
#     4   9  17  29  46  69  95 122 154 193 234 275
#
# _framework density 16.671343
#
# number of rings (size 3 to 8) (size 9 to 14) (size 15 to 20)
#    0.000    2.429    0.000    3.000    0.000    7.429 
#    0.000    0.000    0.000    0.000    0.000    1.000 
#    0.000    8.000    0.000    0.000    0.000    0.000 
#
# Total GULP energy -694464.912294 kJ/mol
# GULP energy per Si atom -12401.159148 kJ/mol
# Density = 1.663340 g / cm^3
# Si number density = 16.671343 Si / 1000 Ang^3
#
#
#
# Elastic Constant Matrix: (Units=GPa)
#
#
# Indices 1 2 3 4 5 6 
#
# 1 107.1916 42.7478 19.5640 0.0000 0.0000 0.0000
# 2 42.7478 83.3405 26.9910 0.0000 0.0000 0.0000
# 3 19.5640 26.9910 32.2121 0.0000 0.0000 0.0000
# 4 0.0000 0.0000 0.0000 24.8702 0.0000 0.0000
# 5 0.0000 0.0000 0.0000 0.0000 19.3496 0.0000
# 6 0.0000 0.0000 0.0000 0.0000 0.0000 29.4902
#
#
#
# Elastic Compliance Matrix: (Units=1/GPa)
#
#
# Indices 1 2 3 4 5 6 
#
# 1 0.011923 -0.005175 -0.002905 0.000000 0.000000 0.000000
# 2 -0.005175 0.018714 -0.012538 0.000000 0.000000 0.000000
# 3 -0.002905 -0.012538 0.043314 0.000000 0.000000 0.000000
# 4 0.000000 0.000000 0.000000 0.040209 0.000000 0.000000
# 5 0.000000 0.000000 0.000000 0.000000 0.051681 0.000000
# 6 0.000000 0.000000 0.000000 0.000000 0.000000 0.033910
#
#
# Mechanical properties :
#
#
# Convention : Reuss Voigt Hill
#
# Bulk Modulus (GPa) = 30.56662 44.59441 37.58052
# Shear Modulus (GPa) = 19.84987 23.63809 21.74398
#
# Velocity S-wave (km/s) = 3.45433 3.76957 3.61539
# Velocity P-wave (km/s) = 5.85530 6.76413 6.32606
#
# Compressibility (1/GPa) = 0.03271542
#
# Stress axis : x y z
#
# Youngs Moduli (GPa) = 83.87120 53.43683 23.08708
#
# Poissons Ratio (x) = 0.27652 0.06708
# Poissons Ratio (y) = 0.43401 0.28946
# Poissons Ratio (z) = 0.24369 0.66997
#
# Static dielectric constant tensor:
#      x y z
#    x 3.275150 0.000000 0.000000 
#    y 0.000000 3.297000 0.000000 
#    z 0.000000 0.000000 2.837850 
# 
# 
# High freq. dielectric constant tensor:
#      x y z
#    x 1.644820 0.000000 0.000000 
#    y 0.000000 1.657110 0.000000 
#    z 0.000000 0.000000 1.600900 
# 
# From -- ./inp_files/53245.got.cif
#   From: 2010.03.12/outbox.cif.g09.slc.cpg/sg74_27_cif.got.tgz:53245.got - 2010.04.16 15:46:19.
