data_PCOD8298216
_publ_section_title
;
Structure prediction by ZEFSAII (Michael W. Deem and Ramdas Pophale) SiO2 
 PCOD8298216
Probable space group: I M M A
;
_chemical_formula_sum "Si O2"
_cell_formula_units_Z 96
_cell_length_a 19.940107
_cell_length_b 18.681750
_cell_length_c 15.038485
_cell_angle_alpha 90.000000
_cell_angle_beta 90.000000
_cell_angle_gamma 90.000000
_cell_volume 5602.077691
_symmetry_space_group_name_H-M "I M M A"
_symmetry_group_IT_number 74
_symmetry_cell_setting 'orthorhombic'
loop_
_space_group_symop_operation_xyz
x,y,z
-x,1/2-y,z
x,-y,-z
-x,1/2+y,-z
-x,-y,-z
x,1/2+y,-z
-x,y,z
x,1/2-y,z
1/2+x,1/2+y,1/2+z
1/2-x,-y,1/2+z
1/2+x,1/2-y,1/2-z
1/2-x,y,1/2-z
1/2-x,1/2-y,1/2-z
1/2+x,y,1/2-z
1/2-x,1/2+y,1/2+z
1/2+x,-y,1/2+z
loop_
_atom_site_type_symbol
_atom_site_label
_atom_site_fract_x
_atom_site_fract_y
_atom_site_fract_z
Si Si1 0.182897 0.166881 0.304391
Si Si2 0.340086 0.830853 0.334228
Si Si3 0.818363 0.669937 0.358485
Si Si4 0.141616 0.916752 0.999965
Si Si5 0.702389 0.582472 0.979640
Si Si6 0.423036 0.331425 0.344248
O O1 0.183563 0.250000 0.336711
O O2 0.250000 0.149319 0.250000
O O3 0.174890 0.112059 0.386324
O O4 0.119957 0.149363 0.242266
O O5 0.366662 0.750000 0.349199
O O6 0.261009 0.832834 0.347667
O O7 0.354330 0.856586 0.232739
O O8 0.376564 0.883882 0.403279
O O9 0.842390 0.750000 0.379031
O O10 0.838484 0.621635 0.441909
O O11 0.218764 0.900452 0.978268
O O12 0.095235 0.881058 0.926610
O O13 0.125070 0.000000 0.000000
O O14 0.688504 0.500000 0.000000
O O15 0.500000 0.343450 0.318233
O O16 0.408337 0.250000 0.373489
#
# Coordination Sequence:
#
# PCOD8298216 Si02
#       6
#    16  16  16  16  16  16
#     4  10  19  33  54  76 100 135 174 215 260 307
#     4   8  14  25  41  61  88 123 159 194 234 282
#     4   8  14  25  40  60  88 124 161 195 234 287
#     4  10  19  29  45  71 102 134 163 197 251 308
#     4  10  19  29  44  74 105 131 160 203 258 307
#     4  10  21  36  53  74 100 134 178 221 258 304
#
# _framework density 17.136499000000001
#
# number of rings (size 3 to 8) (size 9 to 14) (size 15 to 20)
#    0.000    2.667    1.667    2.000    0.000    3.000 
#    3.000    0.000    0.000    0.500    0.000    1.167 
#    0.000    4.000    0.000    0.000    0.000    0.000 
#
# Total GULP energy -594974.706673 kJ/mol
# GULP energy per Si atom -12395.306389 kJ/mol
# Density = 1.709750 g / cm^3
# Si number density = 17.136499 Si / 1000 Ang^3
#
#
#
# Elastic Constant Matrix: (Units=GPa)
#
#
# Indices 1 2 3 4 5 6 
#
# 1 55.9743 34.2339 44.1065 0.0000 0.0000 0.0000
# 2 34.2339 95.8620 86.3707 0.0000 0.0000 0.0000
# 3 44.1065 86.3707 161.2998 0.0000 0.0000 0.0000
# 4 0.0000 0.0000 0.0000 23.4033 0.0000 0.0000
# 5 0.0000 0.0000 0.0000 0.0000 17.5049 0.0000
# 6 0.0000 0.0000 0.0000 0.0000 0.0000 10.0483
#
#
#
# Elastic Compliance Matrix: (Units=1/GPa)
#
#
# Indices 1 2 3 4 5 6 
#
# 1 0.024014 -0.005139 -0.003815 0.000000 0.000000 0.000000
# 2 -0.005139 0.021255 -0.009976 0.000000 0.000000 0.000000
# 3 -0.003815 -0.009976 0.012585 0.000000 0.000000 0.000000
# 4 0.000000 0.000000 0.000000 0.042729 0.000000 0.000000
# 5 0.000000 0.000000 0.000000 0.000000 0.057127 0.000000
# 6 0.000000 0.000000 0.000000 0.000000 0.000000 0.099519
#
#
# Mechanical properties :
#
#
# Convention : Reuss Voigt Hill
#
# Bulk Modulus (GPa) = 50.01394 71.39538 60.70466
# Shear Modulus (GPa) = 16.56975 20.08630 18.32802
#
# Velocity S-wave (km/s) = 3.11292 3.42736 3.27392
# Velocity P-wave (km/s) = 6.49379 7.57731 7.05638
#
# Compressibility (1/GPa) = 0.01999443
#
# Stress axis : x y z
#
# Youngs Moduli (GPa) = 41.64193 47.04685 79.46047
#
# Poissons Ratio (x) = 0.24176 0.30314
# Poissons Ratio (y) = 0.21398 0.79273
# Poissons Ratio (z) = 0.15886 0.46936
#
# Static dielectric constant tensor:
#      x y z
#    x 2.720810 0.000000 0.000000 
#    y 0.000000 3.298900 0.000000 
#    z 0.000000 0.000000 3.512110 
# 
# 
# High freq. dielectric constant tensor:
#      x y z
#    x 1.600840 0.000000 0.000000 
#    y 0.000000 1.661490 0.000000 
#    z 0.000000 0.000000 1.675250 
# 
# From -- ./inp_files/35294.got.cif
#   From: 2010.03.12/outbox.cif.g09.slc.cpg/sg74_18_cif.got.tgz:35294.got - 2010.04.16 15:46:19.
