data_PCOD8298715
_publ_section_title
;
Structure prediction by ZEFSAII (Michael W. Deem and Ramdas Pophale) SiO2 
 PCOD8298715
Probable space group: I M M A
;
_chemical_formula_sum "Si O2"
_cell_formula_units_Z 80
_cell_length_a 26.860442
_cell_length_b 8.509887
_cell_length_c 18.665914
_cell_angle_alpha 90.000000
_cell_angle_beta 90.000000
_cell_angle_gamma 90.000000
_cell_volume 4266.642045
_symmetry_space_group_name_H-M "I M M A"
_symmetry_group_IT_number 74
_symmetry_cell_setting 'orthorhombic'
loop_
_space_group_symop_operation_xyz
x,y,z
-x,1/2-y,z
x,-y,-z
-x,1/2+y,-z
-x,-y,-z
x,1/2+y,-z
-x,y,z
x,1/2-y,z
1/2+x,1/2+y,1/2+z
1/2-x,-y,1/2+z
1/2+x,1/2-y,1/2-z
1/2-x,y,1/2-z
1/2-x,1/2-y,1/2-z
1/2+x,y,1/2-z
1/2-x,1/2+y,1/2+z
1/2+x,-y,1/2+z
loop_
_atom_site_type_symbol
_atom_site_label
_atom_site_fract_x
_atom_site_fract_y
_atom_site_fract_z
Si Si1 0.106233 0.434783 0.782767
Si Si2 0.056183 0.566773 0.650234
Si Si3 0.555910 0.435669 0.573272
Si Si4 0.649882 0.935143 0.075762
Si Si5 0.200162 0.933709 0.711908
O O1 0.117815 0.250000 0.781369
O O2 0.064101 0.472559 0.724072
O O3 0.088038 0.494909 0.859866
O O4 0.155671 0.532124 0.766488
O O5 0.065295 0.750000 0.664949
O O6 0.095616 0.509108 0.591263
O O7 0.000000 0.534497 0.622761
O O8 0.580376 0.500000 0.500000
O O9 0.500000 0.503479 0.581030
O O10 0.554913 0.250000 0.571722
O O11 0.644025 0.750000 0.072598
O O12 0.690137 0.979193 0.136618
O O13 0.669467 0.000000 0.000000
O O14 0.204271 0.750000 0.695584
O O15 0.250000 0.997698 0.750000
#
# Coordination Sequence:
#
# PCOD8298715 Si02
#       5
#    16  16  16  16  16
#     4  10  19  32  52  76 103 135 173 218 263 311
#     4  10  20  33  51  77 108 142 179 215 254 306
#     4   9  18  31  47  70 101 136 172 209 252 302
#     4  11  22  37  58  81 109 141 174 215 260 309
#     4  10  21  38  59  81 105 134 171 215 262 312
#
# _framework density 18.750107
#
# number of rings (size 3 to 8) (size 9 to 14) (size 15 to 20)
#    0.000    2.000    0.000    6.600    0.000    6.000 
#    0.000    3.000    0.000    2.400    0.000    0.000 
#    0.000    0.000    0.000    0.000    0.000    0.000 
#
# Total GULP energy -496041.828747 kJ/mol
# GULP energy per Si atom -12401.045719 kJ/mol
# Density = 1.870743 g / cm^3
# Si number density = 18.750107 Si / 1000 Ang^3
#
#
#
# Elastic Constant Matrix: (Units=GPa)
#
#
# Indices 1 2 3 4 5 6 
#
# 1 101.1790 20.0161 52.6216 0.0000 0.0000 0.0000
# 2 20.0161 48.6410 18.9313 0.0000 0.0000 0.0000
# 3 52.6216 18.9313 148.9693 0.0000 0.0000 0.0000
# 4 0.0000 0.0000 0.0000 34.0452 0.0000 0.0000
# 5 0.0000 0.0000 0.0000 0.0000 15.3259 0.0000
# 6 0.0000 0.0000 0.0000 0.0000 0.0000 25.6525
#
#
#
# Elastic Compliance Matrix: (Units=1/GPa)
#
#
# Indices 1 2 3 4 5 6 
#
# 1 0.012699 -0.003661 -0.004020 0.000000 0.000000 0.000000
# 2 -0.003661 0.022684 -0.001590 0.000000 0.000000 0.000000
# 3 -0.004020 -0.001590 0.008335 0.000000 0.000000 0.000000
# 4 0.000000 0.000000 0.000000 0.029373 0.000000 0.000000
# 5 0.000000 0.000000 0.000000 0.000000 0.065249 0.000000
# 6 0.000000 0.000000 0.000000 0.000000 0.000000 0.038983
#
#
# Mechanical properties :
#
#
# Convention : Reuss Voigt Hill
#
# Bulk Modulus (GPa) = 39.72051 53.54747 46.63399
# Shear Modulus (GPa) = 24.47917 28.81941 26.64929
#
# Velocity S-wave (km/s) = 3.61716 3.92475 3.77409
# Velocity P-wave (km/s) = 6.21894 7.01132 6.62699
#
# Compressibility (1/GPa) = 0.02517591
#
# Stress axis : x y z
#
# Youngs Moduli (GPa) = 78.74854 44.08408 119.97650
#
# Poissons Ratio (x) = 0.16138 0.48236
# Poissons Ratio (y) = 0.28828 0.19071
# Poissons Ratio (z) = 0.31660 0.07007
#
# Static dielectric constant tensor:
#      x y z
#    x 3.418930 0.000000 0.000000 
#    y 0.000000 3.437350 0.000000 
#    z 0.000000 0.000000 3.620290 
# 
# 
# High freq. dielectric constant tensor:
#      x y z
#    x 1.709570 0.000000 0.000000 
#    y 0.000000 1.737520 0.000000 
#    z 0.000000 0.000000 1.731040 
# 
# From -- ./inp_files/46494.got.cif
#   From: 2010.03.12/outbox.cif.g09.slc.cpg/sg74_24_cif.got.tgz:46494.got - 2010.04.16 15:46:19.
