data_PCOD8298999
_publ_section_title
;
Structure prediction by ZEFSAII (Michael W. Deem and Ramdas Pophale) SiO2 
 PCOD8298999
Probable space group: I M M A
;
_chemical_formula_sum "Si O2"
_cell_formula_units_Z 88
_cell_length_a 14.432102
_cell_length_b 18.829794
_cell_length_c 17.768947
_cell_angle_alpha 90.000000
_cell_angle_beta 90.000000
_cell_angle_gamma 90.000000
_cell_volume 4828.773674
_symmetry_space_group_name_H-M "I M M A"
_symmetry_group_IT_number 74
_symmetry_cell_setting 'orthorhombic'
loop_
_space_group_symop_operation_xyz
x,y,z
-x,1/2-y,z
x,-y,-z
-x,1/2+y,-z
-x,-y,-z
x,1/2+y,-z
-x,y,z
x,1/2-y,z
1/2+x,1/2+y,1/2+z
1/2-x,-y,1/2+z
1/2+x,1/2-y,1/2-z
1/2-x,y,1/2-z
1/2-x,1/2-y,1/2-z
1/2+x,y,1/2-z
1/2-x,1/2+y,1/2+z
1/2+x,-y,1/2+z
loop_
_atom_site_type_symbol
_atom_site_label
_atom_site_fract_x
_atom_site_fract_y
_atom_site_fract_z
Si Si1 0.000000 0.537577 0.581161
Si Si2 0.347266 0.328900 0.437251
Si Si3 0.686605 0.541965 0.316983
Si Si4 0.500000 0.019842 0.247452
Si Si5 0.500000 0.333383 0.316422
Si Si6 0.796293 0.446846 0.430541
Si Si7 0.397336 0.828932 0.397751
O O1 0.000000 0.500000 0.500000
O O2 0.000000 0.492440 0.660173
O O3 0.902131 0.578858 0.585820
O O4 0.309508 0.250000 0.425330
O O5 0.409933 0.350255 0.366496
O O6 0.256608 0.375399 0.448031
O O7 0.407697 0.335784 0.512472
O O8 0.750000 0.569887 0.250000
O O9 0.589761 0.509150 0.290403
O O10 0.747386 0.483392 0.359739
O O11 0.671086 0.611188 0.367697
O O12 0.500000 0.107362 0.250001
O O13 0.500000 0.250000 0.288674
O O14 0.792117 0.500000 0.500000
O O15 0.500000 0.839631 0.363419
O O16 0.359795 0.750000 0.376318
#
# Coordination Sequence:
#
# PCOD8298999 Si02
#       7
#     8  16  16   8   8  16  16
#     4  10  24  42  59  76 110 153 198 247 281 326
#     4  10  19  33  56  88 122 152 181 223 287 354
#     4  12  23  35  58  87 115 146 192 246 289 338
#     4  12  22  37  59  89 118 145 195 241 288 346
#     4  10  20  33  55  91 129 150 170 227 297 352
#     4  11  21  37  59  84 110 152 199 237 285 342
#     4  10  20  35  56  85 121 155 184 225 290 355
#
# _framework density 18.224087999999998
#
# number of rings (size 3 to 8) (size 9 to 14) (size 15 to 20)
#    0.000    1.273    7.273    0.000    0.000    0.364 
#    0.000    4.091    0.000    3.273    0.000    1.273 
#    0.000    0.000    0.000    0.000    0.000    0.000 
#
# Total GULP energy -545143.700945 kJ/mol
# GULP energy per Si atom -12389.629567 kJ/mol
# Density = 1.818261 g / cm^3
# Si number density = 18.224088 Si / 1000 Ang^3
#
#
#
# Elastic Constant Matrix: (Units=GPa)
#
#
# Indices 1 2 3 4 5 6 
#
# 1 137.1429 45.6810 22.2571 0.0000 0.0000 0.0000
# 2 45.6810 94.1017 23.4678 0.0000 0.0000 0.0000
# 3 22.2571 23.4678 79.0494 0.0000 0.0000 0.0000
# 4 0.0000 0.0000 0.0000 21.7563 0.0000 0.0000
# 5 0.0000 0.0000 0.0000 0.0000 31.0601 0.0000
# 6 0.0000 0.0000 0.0000 0.0000 0.0000 -39.3556
#
#
#
# Elastic Compliance Matrix: (Units=1/GPa)
#
#
# Indices 1 2 3 4 5 6 
#
# 1 0.008822 -0.003956 -0.001309 0.000000 0.000000 0.000000
# 2 -0.003956 0.013250 -0.002820 0.000000 0.000000 0.000000
# 3 -0.001309 -0.002820 0.013856 0.000000 0.000000 0.000000
# 4 0.000000 0.000000 0.000000 0.045964 0.000000 0.000000
# 5 0.000000 0.000000 0.000000 0.000000 0.032196 0.000000
# 6 0.000000 0.000000 0.000000 0.000000 0.000000 -0.025409
#
#
# Mechanical properties :
#
#
# Convention : Reuss Voigt Hill
#
# Bulk Modulus (GPa) = 50.61275 54.78955 52.70115
# Shear Modulus (GPa) = 44.86919 17.28470 31.07694
#
# Velocity S-wave (km/s) = 4.96732 3.08304 4.13397
# Velocity P-wave (km/s) = 7.79306 6.54241 7.19496
#
# Compressibility (1/GPa) = 0.01975787
#
# Stress axis : x y z
#
# Youngs Moduli (GPa) = 113.35467 75.46924 72.17007
#
# Poissons Ratio (x) = 0.29855 0.09450
# Poissons Ratio (y) = 0.44843 0.20351
# Poissons Ratio (z) = 0.14843 0.21282
#
# Static dielectric constant tensor:
#      x y z
#    x 3.595390 0.000000 0.000000 
#    y 0.000000 3.304830 0.000000 
#    z 0.000000 0.000000 3.396140 
# 
# 
# High freq. dielectric constant tensor:
#      x y z
#    x 1.714720 0.000000 0.000000 
#    y 0.000000 1.690280 0.000000 
#    z 0.000000 0.000000 1.703660 
# 
# From -- ./inp_files/41322.got.cif
#   From: 2010.03.12/outbox.cif.g09.slc.cpg/sg74_21_cif.got.tgz:41322.got - 2010.04.16 15:46:19.
