data_PCOD8298358
_publ_section_title
;
Structure prediction by ZEFSAII (Michael W. Deem and Ramdas Pophale) SiO2 
 PCOD8298358
Probable space group: I M M A
;
_chemical_formula_sum "Si O2"
_cell_formula_units_Z 72
_cell_length_a 13.087545
_cell_length_b 13.508217
_cell_length_c 24.487706
_cell_angle_alpha 90.000000
_cell_angle_beta 90.000000
_cell_angle_gamma 90.000000
_cell_volume 4329.166799
_symmetry_space_group_name_H-M "I M M A"
_symmetry_group_IT_number 74
_symmetry_cell_setting 'orthorhombic'
loop_
_space_group_symop_operation_xyz
x,y,z
-x,1/2-y,z
x,-y,-z
-x,1/2+y,-z
-x,-y,-z
x,1/2+y,-z
-x,y,z
x,1/2-y,z
1/2+x,1/2+y,1/2+z
1/2-x,-y,1/2+z
1/2+x,1/2-y,1/2-z
1/2-x,y,1/2-z
1/2-x,1/2-y,1/2-z
1/2+x,y,1/2-z
1/2-x,1/2+y,1/2+z
1/2+x,-y,1/2+z
loop_
_atom_site_type_symbol
_atom_site_label
_atom_site_fract_x
_atom_site_fract_y
_atom_site_fract_z
Si Si1 0.174892 0.000000 0.500000
Si Si2 0.719027 0.134230 0.188373
Si Si3 0.500000 0.363060 0.462293
Si Si4 0.500000 0.866653 0.847510
Si Si5 0.500000 0.633772 0.969495
Si Si6 0.830212 0.014541 0.095419
Si Si7 0.500000 0.634926 0.408691
O O1 0.103269 0.096726 0.498136
O O2 0.239667 0.983953 0.445113
O O3 0.732292 0.250000 0.172494
O O4 0.750000 0.113831 0.250000
O O5 0.601552 0.098561 0.183847
O O6 0.788762 0.067568 0.149455
O O7 0.500000 0.250000 0.446057
O O8 0.398633 0.408565 0.437492
O O9 0.500000 0.380666 0.526578
O O10 0.500000 0.750000 0.852123
O O11 0.500000 0.910458 0.908334
O O12 0.500000 0.750000 0.972160
O O13 0.897418 0.918821 0.113716
O O14 0.500000 0.750000 0.391194
#
# Coordination Sequence:
#
# PCOD8298358 Si02
#       7
#     8  16   8   8   8  16   8
#     4  11  20  31  52  78 100 139 180 213 256 322
#     4  10  21  35  54  80 109 142 174 210 263 323
#     4  10  19  30  49  80 111 138 167 212 268 325
#     4   9  17  31  50  72 105 139 169 203 247 307
#     4  10  21  33  48  74 107 141 171 211 262 310
#     4  11  19  34  52  76 107 140 179 217 262 316
#     4  10  21  34  50  77 109 140 180 222 262 310
#
# _framework density 16.631375999999999
#
# number of rings (size 3 to 8) (size 9 to 14) (size 15 to 20)
#    0.000    1.778    4.444    1.333    0.000    3.556 
#    0.000    3.333    0.000    0.667    0.000    1.556 
#    0.000    0.000    0.000    0.000    0.000    0.000 
#
# Total GULP energy -446361.808599 kJ/mol
# GULP energy per Si atom -12398.939128 kJ/mol
# Density = 1.659352 g / cm^3
# Si number density = 16.631376 Si / 1000 Ang^3
#
#
#
# Elastic Constant Matrix: (Units=GPa)
#
#
# Indices 1 2 3 4 5 6 
#
# 1 136.9424 64.4910 52.8433 0.0000 0.0000 0.0000
# 2 64.4910 100.0799 51.9185 0.0000 0.0000 0.0000
# 3 52.8433 51.9185 84.7533 0.0000 0.0000 0.0000
# 4 0.0000 0.0000 0.0000 25.9734 0.0000 0.0000
# 5 0.0000 0.0000 0.0000 0.0000 28.8594 0.0000
# 6 0.0000 0.0000 0.0000 0.0000 0.0000 17.2735
#
#
#
# Elastic Compliance Matrix: (Units=1/GPa)
#
#
# Indices 1 2 3 4 5 6 
#
# 1 0.011251 -0.005293 -0.003772 0.000000 0.000000 0.000000
# 2 -0.005293 0.017137 -0.007198 0.000000 0.000000 0.000000
# 3 -0.003772 -0.007198 0.018560 0.000000 0.000000 0.000000
# 4 0.000000 0.000000 0.000000 0.038501 0.000000 0.000000
# 5 0.000000 0.000000 0.000000 0.000000 0.034651 0.000000
# 6 0.000000 0.000000 0.000000 0.000000 0.000000 0.057892
#
#
# Mechanical properties :
#
#
# Convention : Reuss Voigt Hill
#
# Bulk Modulus (GPa) = 69.33964 73.36460 71.35212
# Shear Modulus (GPa) = 23.22082 24.58945 23.90514
#
# Velocity S-wave (km/s) = 3.74064 3.84929 3.79536
# Velocity P-wave (km/s) = 7.77426 7.99775 7.88680
#
# Compressibility (1/GPa) = 0.01442177
#
# Stress axis : x y z
#
# Youngs Moduli (GPa) = 88.88401 58.35471 53.87896
#
# Poissons Ratio (x) = 0.30886 0.20325
# Poissons Ratio (y) = 0.47045 0.38780
# Poissons Ratio (z) = 0.33531 0.42001
#
# Static dielectric constant tensor:
#      x y z
#    x 3.401330 0.000000 0.000000 
#    y 0.000000 3.087330 0.000000 
#    z 0.000000 0.000000 2.983480 
# 
# 
# High freq. dielectric constant tensor:
#      x y z
#    x 1.661990 0.000000 0.000000 
#    y 0.000000 1.622600 0.000000 
#    z 0.000000 0.000000 1.622590 
# 
# From -- ./inp_files/58461.got.cif
#   From: 2010.03.12/outbox.cif.g09.slc.cpg/sg74_30_cif.got.tgz:58461.got - 2010.04.16 15:46:19.
