data_PCOD8298607
_publ_section_title
;
Structure prediction by ZEFSAII (Michael W. Deem and Ramdas Pophale) SiO2 
 PCOD8298607
Probable space group: I M M A
;
_chemical_formula_sum "Si O2"
_cell_formula_units_Z 72
_cell_length_a 9.558023
_cell_length_b 11.095542
_cell_length_c 37.899956
_cell_angle_alpha 90.000000
_cell_angle_beta 90.000000
_cell_angle_gamma 90.000000
_cell_volume 4019.345123
_symmetry_space_group_name_H-M "I M M A"
_symmetry_group_IT_number 74
_symmetry_cell_setting 'orthorhombic'
loop_
_space_group_symop_operation_xyz
x,y,z
-x,1/2-y,z
x,-y,-z
-x,1/2+y,-z
-x,-y,-z
x,1/2+y,-z
-x,y,z
x,1/2-y,z
1/2+x,1/2+y,1/2+z
1/2-x,-y,1/2+z
1/2+x,1/2-y,1/2-z
1/2-x,y,1/2-z
1/2-x,1/2-y,1/2-z
1/2+x,y,1/2-z
1/2-x,1/2+y,1/2+z
1/2+x,-y,1/2+z
loop_
_atom_site_type_symbol
_atom_site_label
_atom_site_fract_x
_atom_site_fract_y
_atom_site_fract_z
Si Si1 0.161997 0.250000 0.714165
Si Si2 0.652296 0.390467 0.220578
Si Si3 0.340311 0.889400 0.404868
Si Si4 0.839013 0.458563 0.659575
Si Si5 0.161029 0.611713 0.473898
O O1 0.250000 0.250000 0.750000
O O2 0.200740 0.137316 0.689551
O O3 0.000000 0.250000 0.724844
O O4 0.500000 0.448535 0.227266
O O5 0.649802 0.250000 0.226757
O O6 0.750000 0.452473 0.250000
O O7 0.692267 0.415779 0.179794
O O8 0.500000 0.935388 0.408187
O O9 0.335322 0.750000 0.394790
O O10 0.261426 0.959527 0.373973
O O11 0.261896 0.913586 0.441305
O O12 0.000000 0.443291 0.646662
O O13 0.194089 0.500000 0.500000
O O14 0.188614 0.750000 0.488863
O O15 0.000000 0.603743 0.461610
#
# Coordination Sequence:
#
# PCOD8298607 Si02
#       5
#     8  16  16  16  16
#     4  10  20  30  44  68  96 126 160 202 252 296
#     4   9  18  32  49  68  91 124 166 209 253 299
#     4  10  20  33  51  76 103 133 167 205 250 300
#     4  10  19  32  49  69  96 129 165 204 247 298
#     4   9  18  34  57  82 107 137 172 208 250 304
#
# _framework density 17.913364999999999
#
# number of rings (size 3 to 8) (size 9 to 14) (size 15 to 20)
#    0.000    2.444    1.111    1.333    0.000    3.111 
#    0.000    1.111    0.000    6.667    0.000    0.000 
#    0.000    0.000    0.000    0.000    0.000    0.000 
#
# Total GULP energy -446018.807378 kJ/mol
# GULP energy per Si atom -12389.411316 kJ/mol
# Density = 1.787259 g / cm^3
# Si number density = 17.913365 Si / 1000 Ang^3
#
#
#
# Elastic Constant Matrix: (Units=GPa)
#
#
# Indices 1 2 3 4 5 6 
#
# 1 120.9887 36.5692 86.0705 0.0000 0.0000 0.0000
# 2 36.5692 48.1279 42.8122 0.0000 0.0000 0.0000
# 3 86.0705 42.8122 122.0220 0.0000 0.0000 0.0000
# 4 0.0000 0.0000 0.0000 25.5082 0.0000 0.0000
# 5 0.0000 0.0000 0.0000 0.0000 37.1566 0.0000
# 6 0.0000 0.0000 0.0000 0.0000 0.0000 13.1221
#
#
#
# Elastic Compliance Matrix: (Units=1/GPa)
#
#
# Indices 1 2 3 4 5 6 
#
# 1 0.016934 -0.003259 -0.010802 0.000000 0.000000 0.000000
# 2 -0.003259 0.030832 -0.008519 0.000000 0.000000 0.000000
# 3 -0.010802 -0.008519 0.018803 0.000000 0.000000 0.000000
# 4 0.000000 0.000000 0.000000 0.039203 0.000000 0.000000
# 5 0.000000 0.000000 0.000000 0.000000 0.026913 0.000000
# 6 0.000000 0.000000 0.000000 0.000000 0.000000 0.076207
#
#
# Mechanical properties :
#
#
# Convention : Reuss Voigt Hill
#
# Bulk Modulus (GPa) = 46.70479 69.11583 57.91031
# Shear Modulus (GPa) = 19.14320 23.53650 21.33985
#
# Velocity S-wave (km/s) = 3.27258 3.62872 3.45524
# Velocity P-wave (km/s) = 6.35680 7.49826 6.95100
#
# Compressibility (1/GPa) = 0.02141108
#
# Stress axis : x y z
#
# Youngs Moduli (GPa) = 59.05137 32.43361 53.18195
#
# Poissons Ratio (x) = 0.10569 0.57445
# Poissons Ratio (y) = 0.19243 0.45306
# Poissons Ratio (z) = 0.63785 0.27630
#
# Static dielectric constant tensor:
#      x y z
#    x 3.604780 0.000000 0.000000 
#    y 0.000000 3.472330 0.000000 
#    z 0.000000 0.000000 3.201270 
# 
# 
# High freq. dielectric constant tensor:
#      x y z
#    x 1.696100 0.000000 0.000000 
#    y 0.000000 1.684840 0.000000 
#    z 0.000000 0.000000 1.683820 
# 
# From -- ./inp_files/65676.got.cif
#   From: 2010.03.12/outbox.cif.g09.slc.cpg/sg74_33_cif.got.tgz:65676.got - 2010.04.16 15:46:19.
