data_PCOD8298284
_publ_section_title
;
Structure prediction by ZEFSAII (Michael W. Deem and Ramdas Pophale) SiO2 
 PCOD8298284
Probable space group: I M M A
;
_chemical_formula_sum "Si O2"
_cell_formula_units_Z 112
_cell_length_a 23.718144
_cell_length_b 18.439520
_cell_length_c 16.868287
_cell_angle_alpha 90.000000
_cell_angle_beta 90.000000
_cell_angle_gamma 90.000000
_cell_volume 7377.365404
_symmetry_space_group_name_H-M "I M M A"
_symmetry_group_IT_number 74
_symmetry_cell_setting 'orthorhombic'
loop_
_space_group_symop_operation_xyz
x,y,z
-x,1/2-y,z
x,-y,-z
-x,1/2+y,-z
-x,-y,-z
x,1/2+y,-z
-x,y,z
x,1/2-y,z
1/2+x,1/2+y,1/2+z
1/2-x,-y,1/2+z
1/2+x,1/2-y,1/2-z
1/2-x,y,1/2-z
1/2-x,1/2-y,1/2-z
1/2+x,y,1/2-z
1/2-x,1/2+y,1/2+z
1/2+x,-y,1/2+z
loop_
_atom_site_type_symbol
_atom_site_label
_atom_site_fract_x
_atom_site_fract_y
_atom_site_fract_z
Si Si1 0.268943 0.394253 0.130799
Si Si2 0.391351 0.329774 0.520721
Si Si3 0.832911 0.334842 0.228424
Si Si4 0.120006 0.526017 0.087456
Si Si5 0.738298 0.949727 0.341053
Si Si6 0.259165 0.167535 0.530825
Si Si7 0.435732 0.385389 0.360227
O O1 0.207763 0.375020 0.166487
O O2 0.318507 0.358610 0.182443
O O3 0.275437 0.481305 0.131864
O O4 0.276175 0.363861 0.042632
O O5 0.405787 0.250000 0.556251
O O6 0.410096 0.394654 0.579900
O O7 0.324593 0.338061 0.507498
O O8 0.422537 0.337092 0.437144
O O9 0.823262 0.250000 0.217848
O O10 0.897174 0.357319 0.211641
O O11 0.172698 0.531088 0.146313
O O12 0.074697 0.470322 0.122231
O O13 0.140982 0.500000 0.000000
O O14 0.750000 0.930763 0.250000
O O15 0.755735 0.879646 0.392007
O O16 0.241090 0.250000 0.548335
O O17 0.500000 0.374493 0.334342
#
# Coordination Sequence:
#
# PCOD8298284 Si02
#       7
#    16  16  16  16  16  16  16
#     4  11  17  31  49  67  88 119 157 193 222 272
#     4   9  17  28  42  59  83 117 159 193 222 257
#     4  11  20  29  45  68  90 114 149 192 231 267
#     4   9  17  31  44  60  85 119 158 191 224 267
#     4  11  18  29  47  67  94 124 154 192 233 277
#     4  10  19  30  46  67  94 126 157 191 230 273
#     4  11  20  30  43  61  90 123 152 185 227 279
#
# _framework density 15.181571
#
# number of rings (size 3 to 8) (size 9 to 14) (size 15 to 20)
#    0.000    1.714    4.286    4.286    0.000    4.000 
#    0.000    0.000    0.000    0.000    0.000    0.000 
#    0.000    9.143    0.000    1.143    0.000    3.857 
#
# Total GULP energy -694349.524454 kJ/mol
# GULP energy per Si atom -12399.098651 kJ/mol
# Density = 1.514702 g / cm^3
# Si number density = 15.181571 Si / 1000 Ang^3
#
#
#
# Elastic Constant Matrix: (Units=GPa)
#
#
# Indices 1 2 3 4 5 6 
#
# 1 64.8349 16.7831 33.9907 0.0000 0.0000 0.0000
# 2 16.7831 131.6972 47.6801 0.0000 0.0000 0.0000
# 3 33.9907 47.6801 86.2198 0.0000 0.0000 0.0000
# 4 0.0000 0.0000 0.0000 22.8940 0.0000 0.0000
# 5 0.0000 0.0000 0.0000 0.0000 14.4505 0.0000
# 6 0.0000 0.0000 0.0000 0.0000 0.0000 10.4946
#
#
#
# Elastic Compliance Matrix: (Units=1/GPa)
#
#
# Indices 1 2 3 4 5 6 
#
# 1 0.019457 0.000372 -0.007876 0.000000 0.000000 0.000000
# 2 0.000372 0.009501 -0.005401 0.000000 0.000000 0.000000
# 3 -0.007876 -0.005401 0.017690 0.000000 0.000000 0.000000
# 4 0.000000 0.000000 0.000000 0.043680 0.000000 0.000000
# 5 0.000000 0.000000 0.000000 0.000000 0.069202 0.000000
# 6 0.000000 0.000000 0.000000 0.000000 0.000000 0.095288
#
#
# Mechanical properties :
#
#
# Convention : Reuss Voigt Hill
#
# Bulk Modulus (GPa) = 47.98974 53.29554 50.64264
# Shear Modulus (GPa) = 17.38692 21.85434 19.62063
#
# Velocity S-wave (km/s) = 3.38785 3.79823 3.59889
# Velocity P-wave (km/s) = 6.85438 7.37679 7.12038
#
# Compressibility (1/GPa) = 0.02083779
#
# Stress axis : x y z
#
# Youngs Moduli (GPa) = 51.39613 105.25093 56.52903
#
# Poissons Ratio (x) = -0.03916 0.44523
# Poissons Ratio (y) = -0.01912 0.30530
# Poissons Ratio (z) = 0.40481 0.56844
#
# Static dielectric constant tensor:
#      x y z
#    x 2.564410 0.000000 0.000000 
#    y 0.000000 3.304860 0.000000 
#    z 0.000000 0.000000 2.753690 
# 
# 
# High freq. dielectric constant tensor:
#      x y z
#    x 1.533340 0.000000 0.000000 
#    y 0.000000 1.608740 0.000000 
#    z 0.000000 0.000000 1.554130 
# 
# From -- ./inp_files/46250.got.cif
#   From: 2010.03.12/outbox.cif.g09.slc.cpg/sg74_24_cif.got.tgz:46250.got - 2010.04.16 15:46:19.
