data_PCOD8298854
_publ_section_title
;
Structure prediction by ZEFSAII (Michael W. Deem and Ramdas Pophale) SiO2 
 PCOD8298854
Probable space group: I M M A
;
_chemical_formula_sum "Si O2"
_cell_formula_units_Z 80
_cell_length_a 14.159418
_cell_length_b 13.127372
_cell_length_c 21.780945
_cell_angle_alpha 90.000000
_cell_angle_beta 90.000000
_cell_angle_gamma 90.000000
_cell_volume 4048.553787
_symmetry_space_group_name_H-M "I M M A"
_symmetry_group_IT_number 74
_symmetry_cell_setting 'orthorhombic'
loop_
_space_group_symop_operation_xyz
x,y,z
-x,1/2-y,z
x,-y,-z
-x,1/2+y,-z
-x,-y,-z
x,1/2+y,-z
-x,y,z
x,1/2-y,z
1/2+x,1/2+y,1/2+z
1/2-x,-y,1/2+z
1/2+x,1/2-y,1/2-z
1/2-x,y,1/2-z
1/2-x,1/2-y,1/2-z
1/2+x,y,1/2-z
1/2-x,1/2+y,1/2+z
1/2+x,-y,1/2+z
loop_
_atom_site_type_symbol
_atom_site_label
_atom_site_fract_x
_atom_site_fract_y
_atom_site_fract_z
Si Si1 0.606658 0.627636 0.040389
Si Si2 0.647316 0.862706 0.776154
Si Si3 0.895373 0.936401 0.224658
Si Si4 0.111415 0.636871 0.592635
Si Si5 0.218449 0.130778 0.657636
O O1 0.500000 0.592850 0.057033
O O2 0.609460 0.750000 0.035860
O O3 0.674353 0.585358 0.094316
O O4 0.635730 0.581471 0.972570
O O5 0.598624 0.750000 0.777110
O O6 0.750000 0.852439 0.750000
O O7 0.654465 0.912232 0.845092
O O8 0.590703 0.942107 0.734208
O O9 0.852457 0.886132 0.285793
O O10 0.822254 0.917333 0.169019
O O11 0.000000 0.890973 0.210445
O O12 0.154302 0.750000 0.589312
O O13 0.000000 0.640547 0.601027
O O14 0.233128 0.250000 0.649103
#
# Coordination Sequence:
#
# PCOD8298854 Si02
#       5
#    16  16  16  16  16
#     4   8  14  27  49  75 104 135 163 201 256 309
#     4  10  19  33  52  74 104 137 170 207 253 305
#     4  11  21  33  50  73 104 136 172 213 253 298
#     4   8  14  26  47  76 103 128 162 203 253 311
#     4  10  20  34  50  73 105 137 174 212 253 300
#
# _framework density 19.760142999999999
#
# number of rings (size 3 to 8) (size 9 to 14) (size 15 to 20)
#    0.000    2.600    2.000    3.600    0.000    3.600 
#    0.000    1.000    0.000    3.600    0.000    4.200 
#    0.000   16.000    0.000    0.000    0.000    0.000 
#
# Total GULP energy -495538.071765 kJ/mol
# GULP energy per Si atom -12388.451794 kJ/mol
# Density = 1.971517 g / cm^3
# Si number density = 19.760143 Si / 1000 Ang^3
#
#
#
# Elastic Constant Matrix: (Units=GPa)
#
#
# Indices 1 2 3 4 5 6 
#
# 1 130.4336 9.3913 72.2322 0.0000 0.0000 0.0000
# 2 9.3913 43.2723 23.6862 0.0000 0.0000 0.0000
# 3 72.2322 23.6862 144.8348 0.0000 0.0000 0.0000
# 4 0.0000 0.0000 0.0000 -334.3336 0.0000 0.0000
# 5 0.0000 0.0000 0.0000 0.0000 35.6245 0.0000
# 6 0.0000 0.0000 0.0000 0.0000 0.0000 102.7358
#
#
#
# Elastic Compliance Matrix: (Units=1/GPa)
#
#
# Indices 1 2 3 4 5 6 
#
# 1 0.010609 0.000652 -0.005397 0.000000 0.000000 0.000000
# 2 0.000652 0.025422 -0.004483 0.000000 0.000000 0.000000
# 3 -0.005397 -0.004483 0.010329 0.000000 0.000000 0.000000
# 4 0.000000 0.000000 0.000000 -0.002991 0.000000 0.000000
# 5 0.000000 0.000000 0.000000 0.000000 0.028071 0.000000
# 6 0.000000 0.000000 0.000000 0.000000 0.000000 0.009734
#
#
# Mechanical properties :
#
#
# Convention : Reuss Voigt Hill
#
# Bulk Modulus (GPa) = 35.83756 58.79557 47.31657
# Shear Modulus (GPa) = 45.90084 -24.97924 10.46080
#
# Velocity S-wave (km/s) = 4.82488 -3.55931 2.30334
# Velocity P-wave (km/s) = 7.01533 3.59551 5.57416
#
# Compressibility (1/GPa) = 0.02790369
#
# Stress axis : x y z
#
# Youngs Moduli (GPa) = 94.26106 39.33653 96.81154
#
# Poissons Ratio (x) = -0.02565 0.52254
# Poissons Ratio (y) = -0.06146 0.43397
# Poissons Ratio (z) = 0.50877 0.17633
#
# Static dielectric constant tensor:
#      x y z
#    x 3.432000 0.000000 0.000000 
#    y 0.000000 4.090670 0.000000 
#    z 0.000000 0.000000 3.939470 
# 
# 
# High freq. dielectric constant tensor:
#      x y z
#    x 1.727200 0.000000 0.000000 
#    y 0.000000 1.798940 0.000000 
#    z 0.000000 0.000000 1.762350 
# 
# From -- ./inp_files/51663.got.cif
#   From: 2010.03.12/outbox.cif.g09.slc.cpg/sg74_26_cif.got.tgz:51663.got - 2010.04.16 15:46:19.
