data_PCOD8298357
_publ_section_title
;
Structure prediction by ZEFSAII (Michael W. Deem and Ramdas Pophale) SiO2 
 PCOD8298357
Probable space group: I M M A
;
_chemical_formula_sum "Si O2"
_cell_formula_units_Z 104
_cell_length_a 26.150786
_cell_length_b 9.234252
_cell_length_c 22.011331
_cell_angle_alpha 90.000000
_cell_angle_beta 90.000000
_cell_angle_gamma 90.000000
_cell_volume 5315.361098
_symmetry_space_group_name_H-M "I M M A"
_symmetry_group_IT_number 74
_symmetry_cell_setting 'orthorhombic'
loop_
_space_group_symop_operation_xyz
x,y,z
-x,1/2-y,z
x,-y,-z
-x,1/2+y,-z
-x,-y,-z
x,1/2+y,-z
-x,y,z
x,1/2-y,z
1/2+x,1/2+y,1/2+z
1/2-x,-y,1/2+z
1/2+x,1/2-y,1/2-z
1/2-x,y,1/2-z
1/2-x,1/2-y,1/2-z
1/2+x,y,1/2-z
1/2-x,1/2+y,1/2+z
1/2+x,-y,1/2+z
loop_
_atom_site_type_symbol
_atom_site_label
_atom_site_fract_x
_atom_site_fract_y
_atom_site_fract_z
Si Si1 0.940914 0.909464 0.273354
Si Si2 0.658914 0.414405 0.057903
Si Si3 0.500000 0.080308 0.436371
Si Si4 0.057249 0.086380 0.386354
Si Si5 0.800192 0.082776 0.671944
Si Si6 0.411354 0.578731 0.655840
Si Si7 0.817082 0.583678 0.191621
O O1 0.915444 0.750000 0.263520
O O2 0.000000 0.889312 0.286114
O O3 0.918897 0.984102 0.333927
O O4 0.935015 0.011137 0.215842
O O5 0.678077 0.250000 0.052623
O O6 0.596862 0.424005 0.057720
O O7 0.679177 0.478913 0.120395
O O8 0.680674 0.500000 0.000000
O O9 0.500000 0.250000 0.449110
O O10 0.551434 0.035840 0.399845
O O11 0.500000 0.000000 0.500000
O O12 0.056065 0.250000 0.360596
O O13 0.000000 0.040460 0.407627
O O14 0.805731 0.250000 0.652343
O O15 0.829691 0.056941 0.736390
O O16 0.741025 0.040312 0.679966
O O17 0.407798 0.750000 0.662821
O O18 0.354265 0.512509 0.648807
O O19 0.826255 0.750000 0.174367
#
# Coordination Sequence:
#
# PCOD8298357 Si02
#       7
#    16  16   8  16  16  16  16
#     4  10  19  30  49  79 110 143 181 220 265 319
#     4  11  23  37  55  78 106 147 193 231 273 326
#     4  10  24  42  58  78 110 152 193 232 281 336
#     4   9  19  35  53  76 109 145 182 228 278 324
#     4   9  19  38  60  84 117 148 180 229 284 335
#     4  11  21  35  55  82 114 147 182 226 279 335
#     4   9  19  36  61  90 115 143 179 226 285 340
#
# _framework density 19.565933999999999
#
# number of rings (size 3 to 8) (size 9 to 14) (size 15 to 20)
#    0.000    2.154    0.769    3.231    0.000    7.077 
#    0.000    2.308    0.000    1.846    0.000    0.000 
#    0.000    0.000    0.000    0.000    0.000    0.000 
#
# Total GULP energy -644588.491981 kJ/mol
# GULP energy per Si atom -12395.932538 kJ/mol
# Density = 1.952140 g / cm^3
# Si number density = 19.565934 Si / 1000 Ang^3
#
#
#
# Elastic Constant Matrix: (Units=GPa)
#
#
# Indices 1 2 3 4 5 6 
#
# 1 66.0401 46.4331 40.5816 0.0000 0.0000 0.0000
# 2 46.4331 110.3243 57.4840 0.0000 0.0000 0.0000
# 3 40.5816 57.4840 91.5594 0.0000 0.0000 0.0000
# 4 0.0000 0.0000 0.0000 33.3555 0.0000 0.0000
# 5 0.0000 0.0000 0.0000 0.0000 21.4014 0.0000
# 6 0.0000 0.0000 0.0000 0.0000 0.0000 29.5801
#
#
#
# Elastic Compliance Matrix: (Units=1/GPa)
#
#
# Indices 1 2 3 4 5 6 
#
# 1 0.023731 -0.006699 -0.006313 0.000000 0.000000 0.000000
# 2 -0.006699 0.015362 -0.006676 0.000000 0.000000 0.000000
# 3 -0.006313 -0.006676 0.017911 0.000000 0.000000 0.000000
# 4 0.000000 0.000000 0.000000 0.029980 0.000000 0.000000
# 5 0.000000 0.000000 0.000000 0.000000 0.046726 0.000000
# 6 0.000000 0.000000 0.000000 0.000000 0.000000 0.033807
#
#
# Mechanical properties :
#
#
# Convention : Reuss Voigt Hill
#
# Bulk Modulus (GPa) = 56.72118 61.88012 59.30065
# Shear Modulus (GPa) = 23.49981 25.09574 24.29778
#
# Velocity S-wave (km/s) = 3.46939 3.58526 3.52780
# Velocity P-wave (km/s) = 6.71577 6.98813 6.85330
#
# Compressibility (1/GPa) = 0.01763010
#
# Stress axis : x y z
#
# Youngs Moduli (GPa) = 42.13814 65.09625 55.83181
#
# Poissons Ratio (x) = 0.43607 0.35245
# Poissons Ratio (y) = 0.28228 0.37271
# Poissons Ratio (z) = 0.26600 0.43455
#
# Static dielectric constant tensor:
#      x y z
#    x 3.799580 0.000000 0.000000 
#    y 0.000000 3.716910 0.000000 
#    z 0.000000 0.000000 3.249490 
# 
# 
# High freq. dielectric constant tensor:
#      x y z
#    x 1.776590 0.000000 0.000000 
#    y 0.000000 1.765670 0.000000 
#    z 0.000000 0.000000 1.732670 
# 
# From -- ./inp_files/55240.got.cif
#   From: 2010.03.12/outbox.cif.g09.slc.cpg/sg74_28_cif.got.tgz:55240.got - 2010.04.16 15:46:19.
