data_PCOD8298894
_publ_section_title
;
Structure prediction by ZEFSAII (Michael W. Deem and Ramdas Pophale) SiO2 
 PCOD8298894
Probable space group: I M M A
;
_chemical_formula_sum "Si O2"
_cell_formula_units_Z 96
_cell_length_a 8.405777
_cell_length_b 30.996630
_cell_length_c 19.711788
_cell_angle_alpha 90.000000
_cell_angle_beta 90.000000
_cell_angle_gamma 90.000000
_cell_volume 5135.921335
_symmetry_space_group_name_H-M "I M M A"
_symmetry_group_IT_number 74
_symmetry_cell_setting 'orthorhombic'
loop_
_space_group_symop_operation_xyz
x,y,z
-x,1/2-y,z
x,-y,-z
-x,1/2+y,-z
-x,-y,-z
x,1/2+y,-z
-x,y,z
x,1/2-y,z
1/2+x,1/2+y,1/2+z
1/2-x,-y,1/2+z
1/2+x,1/2-y,1/2-z
1/2-x,y,1/2-z
1/2-x,1/2-y,1/2-z
1/2+x,y,1/2-z
1/2-x,1/2+y,1/2+z
1/2+x,-y,1/2+z
loop_
_atom_site_type_symbol
_atom_site_label
_atom_site_fract_x
_atom_site_fract_y
_atom_site_fract_z
Si Si1 0.678335 0.703045 0.424258
Si Si2 0.188216 0.112923 0.072248
Si Si3 0.317624 0.113977 0.923402
Si Si4 0.822340 0.704564 0.914633
Si Si5 0.815333 0.452375 0.821304
Si Si6 0.814041 0.454912 0.324006
O O1 0.500000 0.695715 0.396111
O O2 0.743055 0.750000 0.398594
O O3 0.788675 0.663564 0.400231
O O4 0.673393 0.703272 0.504745
O O5 0.253174 0.158251 0.106776
O O6 0.222592 0.073847 0.121679
O O7 0.000000 0.117024 0.058222
O O8 0.276115 0.105007 0.001434
O O9 0.500000 0.102279 0.910190
O O10 0.207596 0.083289 0.878494
O O11 0.734634 0.750000 0.891631
O O12 0.000000 0.707023 0.885054
O O13 0.750000 0.434221 0.750000
O O14 0.720552 0.495495 0.841686
O O15 0.000000 0.464241 0.813880
O O16 0.750000 0.442769 0.250000
O O17 0.000000 0.445344 0.328385
#
# Coordination Sequence:
#
# PCOD8298894 Si02
#       6
#    16  16  16  16  16  16
#     4   8  14  27  47  71 101 138 176 212 253 302
#     4  10  19  33  53  79 108 139 175 216 261 306
#     4  11  21  33  51  80 112 140 173 215 261 307
#     4   7  11  22  43  70  99 131 167 206 248 295
#     4  11  22  39  59  78 101 134 174 213 258 313
#     4  11  22  38  57  78 103 134 172 213 260 315
#
# _framework density 18.691873999999999
#
# number of rings (size 3 to 8) (size 9 to 14) (size 15 to 20)
#    0.000    2.333    0.000    8.000    0.000    1.000 
#    0.000    3.333    0.000    2.500    0.000    0.000 
#    0.000    0.000    0.000    0.000    0.000    0.000 
#
# Total GULP energy -594708.952841 kJ/mol
# GULP energy per Si atom -12389.769851 kJ/mol
# Density = 1.864933 g / cm^3
# Si number density = 18.691874 Si / 1000 Ang^3
#
#
#
# Elastic Constant Matrix: (Units=GPa)
#
#
# Indices 1 2 3 4 5 6 
#
# 1 65.1618 7.5642 5.0875 0.0000 0.0000 0.0000
# 2 7.5642 114.2833 52.5957 0.0000 0.0000 0.0000
# 3 5.0875 52.5957 54.8155 0.0011 0.0000 -0.0001
# 4 0.0000 0.0000 0.0011 -9.9514 0.0000 0.0000
# 5 0.0000 0.0000 0.0000 0.0000 22.8280 0.0000
# 6 0.0000 0.0000 -0.0001 0.0000 0.0000 24.7894
#
#
#
# Elastic Compliance Matrix: (Units=1/GPa)
#
#
# Indices 1 2 3 4 5 6 
#
# 1 0.015485 -0.000651 -0.000813 0.000000 0.000000 0.000000
# 2 -0.000651 0.015697 -0.015001 -0.000002 0.000000 0.000000
# 3 -0.000813 -0.015001 0.032712 0.000004 0.000000 0.000000
# 4 0.000000 -0.000002 0.000004 -0.100488 0.000000 0.000000
# 5 0.000000 0.000000 0.000000 0.000000 0.043806 0.000000
# 6 0.000000 0.000000 0.000000 0.000000 0.000000 0.040340
#
#
# Mechanical properties :
#
#
# Convention : Reuss Voigt Hill
#
# Bulk Modulus (GPa) = 32.29422 40.52838 36.41130
# Shear Modulus (GPa) = 55.06431 18.80073 36.93252
#
# Velocity S-wave (km/s) = 5.43350 3.17491 4.44989
# Velocity P-wave (km/s) = 7.52851 5.93039 6.77673
#
# Compressibility (1/GPa) = 0.03096530
#
# Stress axis : x y z
#
# Youngs Moduli (GPa) = 64.57684 63.70630 30.56993
#
# Poissons Ratio (x) = 0.04147 0.02484
# Poissons Ratio (y) = 0.04204 0.45858
# Poissons Ratio (z) = 0.05248 0.95565
#
# Static dielectric constant tensor:
#      x y z
#    x 3.304730 0.000000 0.000000 
#    y 0.000000 4.085190 0.000000 
#    z 0.000000 0.000000 3.002700 
# 
# 
# High freq. dielectric constant tensor:
#      x y z
#    x 1.715860 0.000000 0.000000 
#    y 0.000000 1.750440 0.000000 
#    z 0.000000 0.000000 1.676320 
# 
# From -- ./inp_files/49160.got.cif
#   From: 2010.03.12/outbox.cif.g09.slc.cpg/sg74_25_cif.got.tgz:49160.got - 2010.04.16 15:46:19.
