data_PCOD8298109
_publ_section_title
;
Structure prediction by ZEFSAII (Michael W. Deem and Ramdas Pophale) SiO2 
 PCOD8298109
Probable space group: I M M A
;
_chemical_formula_sum "Si O2"
_cell_formula_units_Z 80
_cell_length_a 24.770848
_cell_length_b 16.718214
_cell_length_c 9.686949
_cell_angle_alpha 90.000000
_cell_angle_beta 90.000000
_cell_angle_gamma 90.000000
_cell_volume 4011.601340
_symmetry_space_group_name_H-M "I M M A"
_symmetry_group_IT_number 74
_symmetry_cell_setting 'orthorhombic'
loop_
_space_group_symop_operation_xyz
x,y,z
-x,1/2-y,z
x,-y,-z
-x,1/2+y,-z
-x,-y,-z
x,1/2+y,-z
-x,y,z
x,1/2-y,z
1/2+x,1/2+y,1/2+z
1/2-x,-y,1/2+z
1/2+x,1/2-y,1/2-z
1/2-x,y,1/2-z
1/2-x,1/2-y,1/2-z
1/2+x,y,1/2-z
1/2-x,1/2+y,1/2+z
1/2+x,-y,1/2+z
loop_
_atom_site_type_symbol
_atom_site_label
_atom_site_fract_x
_atom_site_fract_y
_atom_site_fract_z
Si Si1 0.225694 0.576678 0.599423
Si Si2 0.500000 0.951660 0.360932
Si Si3 0.890203 0.905777 0.521226
Si Si4 0.000000 0.432488 0.384644
Si Si5 0.713661 0.657073 0.371867
Si Si6 0.099670 0.656538 0.218117
O O1 0.227408 0.500000 0.500000
O O2 0.250000 0.558284 0.750000
O O3 0.164426 0.611405 0.609081
O O4 0.263090 0.641942 0.524256
O O5 0.551505 0.895697 0.341566
O O6 0.500000 0.000000 0.500000
O O7 0.500000 0.025419 0.259732
O O8 0.945215 0.878973 0.601054
O O9 0.888971 0.857435 0.379286
O O10 0.893730 0.000000 0.500000
O O11 0.000000 0.500000 0.500000
O O12 0.710845 0.750000 0.341535
O O13 0.750000 0.616880 0.250000
O O14 0.652550 0.624748 0.362541
O O15 0.087006 0.750000 0.193328
#
# Coordination Sequence:
#
# PCOD8298109 Si02
#       6
#    16   8  16   8  16  16
#     4  11  24  36  58  91 126 163 212 268 320 385
#     4  12  25  40  64  99 126 166 211 272 328 378
#     4  10  19  36  62  88 122 159 214 269 313 378
#     4  10  18  36  61  85 122 156 207 255 311 369
#     4  10  21  39  61  87 124 167 211 258 322 388
#     4  11  22  40  67  95 125 171 220 263 315 396
#
# _framework density 19.942160999999999
#
# number of rings (size 3 to 8) (size 9 to 14) (size 15 to 20)
#    0.000    1.400    6.000    0.900    2.800    2.800 
#    0.000    0.000    0.000    2.400    0.000    0.000 
#    0.000    0.000    0.000    0.000    0.000    0.000 
#
# Total GULP energy -495736.167010 kJ/mol
# GULP energy per Si atom -12393.404175 kJ/mol
# Density = 1.989677 g / cm^3
# Si number density = 19.942161 Si / 1000 Ang^3
#
#
#
# Elastic Constant Matrix: (Units=GPa)
#
#
# Indices 1 2 3 4 5 6 
#
# 1 230.0084 37.2480 76.5650 0.0000 0.0000 0.0000
# 2 37.2480 29.2265 24.0476 0.0000 0.0000 0.0000
# 3 76.5650 24.0476 133.5661 0.0000 0.0000 0.0000
# 4 0.0000 0.0000 0.0000 29.1151 0.0000 0.0000
# 5 0.0000 0.0000 0.0000 0.0000 52.8339 0.0000
# 6 0.0000 0.0000 0.0000 0.0000 0.0000 19.9682
#
#
#
# Elastic Compliance Matrix: (Units=1/GPa)
#
#
# Indices 1 2 3 4 5 6 
#
# 1 0.006097 -0.005746 -0.002461 0.000000 0.000000 0.000000
# 2 -0.005746 0.045581 -0.004913 0.000000 0.000000 0.000000
# 3 -0.002461 -0.004913 0.009782 0.000000 0.000000 0.000000
# 4 0.000000 0.000000 0.000000 0.034346 0.000000 0.000000
# 5 0.000000 0.000000 0.000000 0.000000 0.018927 0.000000
# 6 0.000000 0.000000 0.000000 0.000000 0.000000 0.050080
#
#
# Mechanical properties :
#
#
# Convention : Reuss Voigt Hill
#
# Bulk Modulus (GPa) = 28.39186 74.28024 51.33605
# Shear Modulus (GPa) = 24.65569 37.37944 31.01756
#
# Velocity S-wave (km/s) = 3.52001 4.33412 3.94810
# Velocity P-wave (km/s) = 5.54875 7.89778 6.82508
#
# Compressibility (1/GPa) = 0.03522136
#
# Stress axis : x y z
#
# Youngs Moduli (GPa) = 164.00663 21.93900 102.22920
#
# Poissons Ratio (x) = 0.12607 0.25155
# Poissons Ratio (y) = 0.94241 0.50221
# Poissons Ratio (z) = 0.40356 0.10778
#
# Static dielectric constant tensor:
#      x y z
#    x 4.679540 0.000000 0.000000 
#    y 0.000000 3.225260 0.000000 
#    z 0.000000 0.000000 3.477240 
# 
# 
# High freq. dielectric constant tensor:
#      x y z
#    x 1.810190 0.000000 0.000000 
#    y 0.000000 1.751590 0.000000 
#    z 0.000000 0.000000 1.755220 
# 
# From -- ./inp_files/14965.got.cif
#   From: 2010.03.12/outbox.cif.g09.slc.cpg/sg74_8_cif.got.tgz:14965.got - 2010.04.16 15:46:19.
