data_PCOD8298918
_publ_section_title
;
Structure prediction by ZEFSAII (Michael W. Deem and Ramdas Pophale) SiO2 
 PCOD8298918
Probable space group: I M M A
;
_chemical_formula_sum "Si O2"
_cell_formula_units_Z 96
_cell_length_a 27.821493
_cell_length_b 8.778255
_cell_length_c 20.539377
_cell_angle_alpha 90.000000
_cell_angle_beta 90.000000
_cell_angle_gamma 90.000000
_cell_volume 5016.212095
_symmetry_space_group_name_H-M "I M M A"
_symmetry_group_IT_number 74
_symmetry_cell_setting 'orthorhombic'
loop_
_space_group_symop_operation_xyz
x,y,z
-x,1/2-y,z
x,-y,-z
-x,1/2+y,-z
-x,-y,-z
x,1/2+y,-z
-x,y,z
x,1/2-y,z
1/2+x,1/2+y,1/2+z
1/2-x,-y,1/2+z
1/2+x,1/2-y,1/2-z
1/2-x,y,1/2-z
1/2-x,1/2-y,1/2-z
1/2+x,y,1/2-z
1/2-x,1/2+y,1/2+z
1/2+x,-y,1/2+z
loop_
_atom_site_type_symbol
_atom_site_label
_atom_site_fract_x
_atom_site_fract_y
_atom_site_fract_z
Si Si1 0.613072 0.569365 0.690173
Si Si2 0.945190 0.429999 0.066711
Si Si3 0.215100 0.930982 0.568370
Si Si4 0.886806 0.428409 0.567212
Si Si5 0.221117 0.431114 0.188258
Si Si6 0.945082 0.572850 0.305794
O O1 0.613652 0.750000 0.688100
O O2 0.585683 0.504984 0.626746
O O3 0.667089 0.503107 0.689804
O O4 0.586321 0.520156 0.755122
O O5 0.941170 0.250000 0.061794
O O6 0.000000 0.483054 0.077853
O O7 0.924565 0.500000 0.000000
O O8 0.212332 0.750000 0.563267
O O9 0.253036 0.985592 0.622397
O O10 0.232481 0.000000 0.500000
O O11 0.163012 0.993726 0.588318
O O12 0.906131 0.500000 0.500000
O O13 0.877579 0.250000 0.557103
O O14 0.926384 0.461910 0.621804
O O15 0.220055 0.250000 0.191838
O O16 0.250000 0.497680 0.250000
O O17 0.940334 0.750000 0.289063
O O18 0.000000 0.517418 0.301643
#
# Coordination Sequence:
#
# PCOD8298918 Si02
#       6
#    16  16  16  16  16  16
#     4  10  20  35  55  78 103 134 176 218 254 303
#     4   9  18  32  50  73 100 130 165 205 248 295
#     4  10  19  33  54  78 106 139 173 212 258 307
#     4  10  20  35  55  78 105 137 173 213 257 309
#     4   9  18  32  51  75 102 133 169 209 252 297
#     4  10  22  38  54  76 107 138 169 212 266 317
#
# _framework density 19.137947
#
# number of rings (size 3 to 8) (size 9 to 14) (size 15 to 20)
#    0.000    2.333    0.000    3.500    0.000    5.333 
#    0.000    3.333    0.000    4.500    0.000    0.000 
#    0.000    0.000    0.000    0.000    0.000    0.000 
#
# Total GULP energy -595287.222627 kJ/mol
# GULP energy per Si atom -12401.817138 kJ/mol
# Density = 1.909439 g / cm^3
# Si number density = 19.137947 Si / 1000 Ang^3
#
#
#
# Elastic Constant Matrix: (Units=GPa)
#
#
# Indices 1 2 3 4 5 6 
#
# 1 125.8943 22.4906 72.9150 0.0000 0.0000 0.0000
# 2 22.4906 42.7832 29.7144 0.0000 0.0000 0.0000
# 3 72.9150 29.7144 132.7954 0.0000 0.0000 0.0000
# 4 0.0000 0.0000 0.0000 32.2230 0.0000 0.0000
# 5 0.0000 0.0000 0.0000 0.0000 42.0843 0.0000
# 6 0.0000 0.0000 0.0000 0.0000 0.0000 12.2381
#
#
#
# Elastic Compliance Matrix: (Units=1/GPa)
#
#
# Indices 1 2 3 4 5 6 
#
# 1 0.011792 -0.002015 -0.006024 0.000000 0.000000 0.000000
# 2 -0.002015 0.028019 -0.005163 0.000000 0.000000 0.000000
# 3 -0.006024 -0.005163 0.011993 0.000000 0.000000 0.000000
# 4 0.000000 0.000000 0.000000 0.031034 0.000000 0.000000
# 5 0.000000 0.000000 0.000000 0.000000 0.023762 0.000000
# 6 0.000000 0.000000 0.000000 0.000000 0.000000 0.081712
#
#
# Mechanical properties :
#
#
# Convention : Reuss Voigt Hill
#
# Bulk Modulus (GPa) = 39.36993 61.30141 50.33567
# Shear Modulus (GPa) = 22.40319 29.06594 25.73456
#
# Velocity S-wave (km/s) = 3.42514 3.90135 3.67098
# Velocity P-wave (km/s) = 6.02150 7.23844 6.65783
#
# Compressibility (1/GPa) = 0.02540010
#
# Stress axis : x y z
#
# Youngs Moduli (GPa) = 84.80307 35.69014 83.38051
#
# Poissons Ratio (x) = 0.07192 0.50227
# Poissons Ratio (y) = 0.17089 0.43050
# Poissons Ratio (z) = 0.51084 0.18427
#
# Static dielectric constant tensor:
#      x y z
#    x 3.674030 0.000000 0.000000 
#    y 0.000000 3.288600 0.000000 
#    z 0.000000 0.000000 4.167720 
# 
# 
# High freq. dielectric constant tensor:
#      x y z
#    x 1.746470 0.000000 0.000000 
#    y 0.000000 1.724000 0.000000 
#    z 0.000000 0.000000 1.759470 
# 
# From -- ./inp_files/49149.got.cif
#   From: 2010.03.12/outbox.cif.g09.slc.cpg/sg74_25_cif.got.tgz:49149.got - 2010.04.16 15:46:19.
