data_PCOD8298060
_publ_section_title
;
Structure prediction by ZEFSAII (Michael W. Deem and Ramdas Pophale) SiO2 
 PCOD8298060
Probable space group: I M M A
;
_chemical_formula_sum "Si O2"
_cell_formula_units_Z 112
_cell_length_a 18.547092
_cell_length_b 18.285778
_cell_length_c 17.649042
_cell_angle_alpha 90.000000
_cell_angle_beta 90.000000
_cell_angle_gamma 90.000000
_cell_volume 5985.637417
_symmetry_space_group_name_H-M "I M M A"
_symmetry_group_IT_number 74
_symmetry_cell_setting 'orthorhombic'
loop_
_space_group_symop_operation_xyz
x,y,z
-x,1/2-y,z
x,-y,-z
-x,1/2+y,-z
-x,-y,-z
x,1/2+y,-z
-x,y,z
x,1/2-y,z
1/2+x,1/2+y,1/2+z
1/2-x,-y,1/2+z
1/2+x,1/2-y,1/2-z
1/2-x,y,1/2-z
1/2-x,1/2-y,1/2-z
1/2+x,y,1/2-z
1/2-x,1/2+y,1/2+z
1/2+x,-y,1/2+z
loop_
_atom_site_type_symbol
_atom_site_label
_atom_site_fract_x
_atom_site_fract_y
_atom_site_fract_z
Si Si1 0.663292 0.554849 0.241593
Si Si2 0.082094 0.583156 0.677724
Si Si3 0.159135 0.334047 0.450541
Si Si4 0.690499 0.591366 0.565226
Si Si5 0.582025 0.667300 0.673798
Si Si6 0.685088 0.930064 0.401615
Si Si7 0.322375 0.834629 0.120311
O O1 0.750000 0.547184 0.250000
O O2 0.632433 0.482421 0.204219
O O3 0.632316 0.567758 0.327650
O O4 0.637673 0.622238 0.188306
O O5 0.106643 0.613957 0.596735
O O6 0.089471 0.648538 0.737837
O O7 0.000000 0.555421 0.670979
O O8 0.147914 0.250000 0.426829
O O9 0.242299 0.353932 0.435275
O O10 0.138582 0.345113 0.539141
O O11 0.631513 0.614180 0.625579
O O12 0.719949 0.511022 0.587960
O O13 0.649864 0.590752 0.482734
O O14 0.500000 0.656613 0.646542
O O15 0.607998 0.750000 0.661967
O O16 0.743502 0.868491 0.384740
O O17 0.316967 0.750000 0.142840
#
# Coordination Sequence:
#
# PCOD8298060 Si02
#       7
#    16  16  16  16  16  16  16
#     4  10  19  35  58  82 108 145 182 231 273 327
#     4  11  23  37  55  80 112 148 188 229 276 333
#     4  10  20  34  54  79 109 145 183 227 275 328
#     4  10  18  34  54  82 110 143 185 224 268 327
#     4  10  21  36  53  77 112 147 179 223 275 325
#     4   9  18  31  54  80 113 141 176 225 274 321
#     4   9  19  34  54  83 111 139 180 232 283 326
#
# _framework density 18.711458
#
# number of rings (size 3 to 8) (size 9 to 14) (size 15 to 20)
#    0.000    2.143    1.429    2.571    0.000    5.714 
#    0.000    5.000    0.000    1.286    0.000    0.000 
#    0.000    0.000    0.000    0.000    0.000    0.000 
#
# Total GULP energy -693948.593947 kJ/mol
# GULP energy per Si atom -12391.939178 kJ/mol
# Density = 1.866887 g / cm^3
# Si number density = 18.711458 Si / 1000 Ang^3
#
#
#
# Elastic Constant Matrix: (Units=GPa)
#
#
# Indices 1 2 3 4 5 6 
#
# 1 52.0192 29.7374 31.4540 0.0000 0.0000 0.0000
# 2 29.7374 93.5155 43.3612 0.0000 0.0000 0.0000
# 3 31.4540 43.3612 131.8178 0.0000 0.0000 0.0000
# 4 0.0000 0.0000 0.0000 34.1907 0.0000 0.0000
# 5 0.0000 0.0000 0.0000 0.0000 4.1989 0.0000
# 6 0.0000 0.0000 0.0000 0.0000 0.0000 9.9720
#
#
#
# Elastic Compliance Matrix: (Units=1/GPa)
#
#
# Indices 1 2 3 4 5 6 
#
# 1 0.025145 -0.006152 -0.003976 0.000000 0.000000 0.000000
# 2 -0.006152 0.014123 -0.003178 0.000000 0.000000 0.000000
# 3 -0.003976 -0.003178 0.009580 0.000000 0.000000 0.000000
# 4 0.000000 0.000000 0.000000 0.029248 0.000000 0.000000
# 5 0.000000 0.000000 0.000000 0.000000 0.238155 0.000000
# 6 0.000000 0.000000 0.000000 0.000000 0.000000 0.100281
#
#
# Mechanical properties :
#
#
# Convention : Reuss Voigt Hill
#
# Bulk Modulus (GPa) = 44.97209 54.05084 49.51147
# Shear Modulus (GPa) = 11.09737 21.19232 16.14485
#
# Velocity S-wave (km/s) = 2.43796 3.36904 2.94059
# Velocity P-wave (km/s) = 5.65788 6.63951 6.16825
#
# Compressibility (1/GPa) = 0.02223601
#
# Stress axis : x y z
#
# Youngs Moduli (GPa) = 39.76940 70.80517 104.38029
#
# Poissons Ratio (x) = 0.43561 0.41504
# Poissons Ratio (y) = 0.24467 0.33170
# Poissons Ratio (z) = 0.15813 0.22500
#
# Static dielectric constant tensor:
#      x y z
#    x 2.955970 0.000000 0.000000 
#    y 0.000000 3.489570 0.000000 
#    z 0.000000 0.000000 4.172100 
# 
# 
# High freq. dielectric constant tensor:
#      x y z
#    x 1.669430 0.000000 0.000000 
#    y 0.000000 1.736010 0.000000 
#    z 0.000000 0.000000 1.752390 
# 
# From -- ./inp_files/46243.got.cif
#   From: 2010.03.12/outbox.cif.g09.slc.cpg/sg74_24_cif.got.tgz:46243.got - 2010.04.16 15:46:19.
