data_PCOD8298946
_publ_section_title
;
Structure prediction by ZEFSAII (Michael W. Deem and Ramdas Pophale) SiO2 
 PCOD8298946
Probable space group: I M M A
;
_chemical_formula_sum "Si O2"
_cell_formula_units_Z 112
_cell_length_a 17.708730
_cell_length_b 24.694819
_cell_length_c 13.385191
_cell_angle_alpha 90.000000
_cell_angle_beta 90.000000
_cell_angle_gamma 90.000000
_cell_volume 5853.529838
_symmetry_space_group_name_H-M "I M M A"
_symmetry_group_IT_number 74
_symmetry_cell_setting 'orthorhombic'
loop_
_space_group_symop_operation_xyz
x,y,z
-x,1/2-y,z
x,-y,-z
-x,1/2+y,-z
-x,-y,-z
x,1/2+y,-z
-x,y,z
x,1/2-y,z
1/2+x,1/2+y,1/2+z
1/2-x,-y,1/2+z
1/2+x,1/2-y,1/2-z
1/2-x,y,1/2-z
1/2-x,1/2-y,1/2-z
1/2+x,y,1/2-z
1/2-x,1/2+y,1/2+z
1/2+x,-y,1/2+z
loop_
_atom_site_type_symbol
_atom_site_label
_atom_site_fract_x
_atom_site_fract_y
_atom_site_fract_z
Si Si1 0.911385 0.497626 0.204517
Si Si2 0.838477 0.190166 0.731290
Si Si3 0.725293 0.688280 0.637063
Si Si4 0.414260 0.115169 0.395123
Si Si5 0.581409 0.958313 0.084541
Si Si6 0.694384 0.133636 0.959474
Si Si7 0.641338 0.896511 0.389901
O O1 0.886652 0.438587 0.164262
O O2 0.888231 0.508247 0.319437
O O3 0.865259 0.541909 0.143443
O O4 0.000000 0.505328 0.185636
O O5 0.872792 0.250000 0.751903
O O6 0.750000 0.190496 0.750000
O O7 0.847909 0.175725 0.614298
O O8 0.881358 0.146273 0.801949
O O9 0.719368 0.750000 0.600179
O O10 0.750000 0.683680 0.750000
O O11 0.641873 0.663484 0.631983
O O12 0.788276 0.659059 0.567975
O O13 0.500000 0.129897 0.363366
O O14 0.412602 0.109056 0.514663
O O15 0.500000 0.930382 0.111666
O O16 0.639963 0.917350 0.035109
O O17 0.564041 0.000000 0.000000
O O18 0.772324 0.113426 0.914379
#
# Coordination Sequence:
#
# PCOD8298946 Si02
#       7
#    16  16  16  16  16  16  16
#     4  10  20  36  56  81 119 157 189 235 292 353
#     4   9  17  31  53  80 110 148 189 229 281 345
#     4  10  23  42  62  87 117 151 197 255 304 350
#     4  10  22  38  60  87 118 158 195 234 298 369
#     4  10  22  37  55  82 114 151 196 247 300 352
#     4  10  20  36  59  83 112 152 194 244 297 358
#     4  10  19  33  54  88 119 151 188 234 287 352
#
# _framework density 19.133752999999999
#
# number of rings (size 3 to 8) (size 9 to 14) (size 15 to 20)
#    0.000    2.143    1.429    1.286    2.000    7.143 
#    0.000    0.000    0.000    5.571    0.000    0.000 
#    0.000    0.000    0.000    0.000    0.000    0.000 
#
# Total GULP energy -694025.706440 kJ/mol
# GULP energy per Si atom -12393.316186 kJ/mol
# Density = 1.909020 g / cm^3
# Si number density = 19.133753 Si / 1000 Ang^3
#
#
#
# Elastic Constant Matrix: (Units=GPa)
#
#
# Indices 1 2 3 4 5 6 
#
# 1 50.9383 40.7039 34.8242 0.0000 0.0000 0.0000
# 2 40.7039 109.8725 64.5637 0.0000 0.0000 0.0000
# 3 34.8242 64.5637 106.0004 0.0000 0.0001 0.0000
# 4 0.0000 0.0000 0.0000 34.3904 0.0000 0.0000
# 5 0.0000 0.0000 0.0001 0.0000 34.5201 0.0000
# 6 0.0000 0.0000 0.0000 0.0000 0.0000 22.5892
#
#
#
# Elastic Compliance Matrix: (Units=1/GPa)
#
#
# Indices 1 2 3 4 5 6 
#
# 1 0.029316 -0.008100 -0.004697 0.000000 0.000000 0.000000
# 2 -0.008100 0.016413 -0.007336 0.000000 0.000000 0.000000
# 3 -0.004697 -0.007336 0.015445 0.000000 0.000000 0.000000
# 4 0.000000 0.000000 0.000000 0.029078 0.000000 0.000000
# 5 0.000000 0.000000 0.000000 0.000000 0.028969 0.000000
# 6 0.000000 0.000000 0.000000 0.000000 0.000000 0.044269
#
#
# Mechanical properties :
#
#
# Convention : Reuss Voigt Hill
#
# Bulk Modulus (GPa) = 47.83014 60.77719 54.30367
# Shear Modulus (GPa) = 23.72758 26.74790 25.23774
#
# Velocity S-wave (km/s) = 3.52531 3.74296 3.63577
# Velocity P-wave (km/s) = 6.45155 7.10725 6.78732
#
# Compressibility (1/GPa) = 0.02090732
#
# Stress axis : x y z
#
# Youngs Moduli (GPa) = 34.11147 60.92733 64.74447
#
# Poissons Ratio (x) = 0.49352 0.30413
# Poissons Ratio (y) = 0.27631 0.47496
# Poissons Ratio (z) = 0.16023 0.44695
#
# Static dielectric constant tensor:
#      x y z
#    x 3.444710 0.000000 0.000000 
#    y 0.000000 3.625870 0.000000 
#    z 0.000000 0.000000 4.173820 
# 
# 
# High freq. dielectric constant tensor:
#      x y z
#    x 1.724430 0.000000 0.000000 
#    y 0.000000 1.742300 0.000000 
#    z 0.000000 0.000000 1.755380 
# 
# From -- ./inp_files/24166.got.cif
#   From: 2010.03.12/outbox.cif.g09.slc.cpg/sg74_13_cif.got.tgz:24166.got - 2010.04.16 15:46:19.
