data_PCOD8298480
_publ_section_title
;
Structure prediction by ZEFSAII (Michael W. Deem and Ramdas Pophale) SiO2 
 PCOD8298480
Probable space group: I M M A
;
_chemical_formula_sum "Si O2"
_cell_formula_units_Z 112
_cell_length_a 24.111251
_cell_length_b 14.944859
_cell_length_c 16.581097
_cell_angle_alpha 90.000000
_cell_angle_beta 90.000000
_cell_angle_gamma 90.000000
_cell_volume 5974.819999
_symmetry_space_group_name_H-M "I M M A"
_symmetry_group_IT_number 74
_symmetry_cell_setting 'orthorhombic'
loop_
_space_group_symop_operation_xyz
x,y,z
-x,1/2-y,z
x,-y,-z
-x,1/2+y,-z
-x,-y,-z
x,1/2+y,-z
-x,y,z
x,1/2-y,z
1/2+x,1/2+y,1/2+z
1/2-x,-y,1/2+z
1/2+x,1/2-y,1/2-z
1/2-x,y,1/2-z
1/2-x,1/2-y,1/2-z
1/2+x,y,1/2-z
1/2-x,1/2+y,1/2+z
1/2+x,-y,1/2+z
loop_
_atom_site_type_symbol
_atom_site_label
_atom_site_fract_x
_atom_site_fract_y
_atom_site_fract_z
Si Si1 0.615055 0.479152 0.319409
Si Si2 0.298087 0.021008 0.807984
Si Si3 0.061022 0.352227 0.297532
Si Si4 0.938800 0.410823 0.949446
Si Si5 0.161497 0.148532 0.047040
Si Si6 0.272243 0.350921 0.953096
Si Si7 0.829671 0.650738 0.615009
O O1 0.646530 0.526605 0.245355
O O2 0.571087 0.409350 0.283213
O O3 0.583446 0.560913 0.361721
O O4 0.655593 0.423162 0.380089
O O5 0.250000 0.051410 0.750000
O O6 0.296382 0.087382 0.883154
O O7 0.290176 0.919098 0.838718
O O8 0.064917 0.250000 0.269071
O O9 0.105916 0.372400 0.367412
O O10 0.000000 0.374466 0.332487
O O11 0.000000 0.364856 0.942568
O O12 0.944662 0.500000 0.000000
O O13 0.894349 0.347065 0.993075
O O14 0.172715 0.250000 0.079366
O O15 0.213338 0.116942 0.991170
O O16 0.265362 0.250000 0.920135
O O17 0.320201 0.356028 0.020053
O O18 0.814155 0.750000 0.646708
#
# Coordination Sequence:
#
# PCOD8298480 Si02
#       7
#    16  16  16  16  16  16  16
#     4  10  19  31  49  75 105 135 168 207 259 310
#     4  11  21  32  52  77 103 136 170 210 263 315
#     4   9  17  30  50  77 106 134 166 207 258 312
#     4   9  18  32  49  71 102 138 173 206 244 301
#     4  10  20  34  53  76 102 134 172 214 258 307
#     4  10  21  37  54  73 101 137 178 221 259 303
#     4   9  19  34  53  77 104 135 170 210 256 306
#
# _framework density 18.745335000000001
#
# number of rings (size 3 to 8) (size 9 to 14) (size 15 to 20)
#    0.000    2.286    0.000    3.000    0.000    4.286 
#    0.000    0.714    0.000    7.714    0.000    0.000 
#    0.000    0.000    0.000    0.000    0.000    0.000 
#
# Total GULP energy -694044.812625 kJ/mol
# GULP energy per Si atom -12393.657368 kJ/mol
# Density = 1.870267 g / cm^3
# Si number density = 18.745335 Si / 1000 Ang^3
#
#
#
# Elastic Constant Matrix: (Units=GPa)
#
#
# Indices 1 2 3 4 5 6 
#
# 1 98.9275 25.7073 44.2416 0.0000 0.0000 0.0000
# 2 25.7073 53.6535 33.1212 0.0000 0.0000 0.0000
# 3 44.2416 33.1212 92.4337 0.0000 0.0000 0.0000
# 4 0.0000 0.0000 0.0000 25.0023 0.0000 0.0000
# 5 0.0000 0.0000 0.0000 0.0000 24.5628 0.0000
# 6 0.0000 0.0000 0.0000 0.0000 0.0000 18.5673
#
#
#
# Elastic Compliance Matrix: (Units=1/GPa)
#
#
# Indices 1 2 3 4 5 6 
#
# 1 0.013258 -0.003127 -0.005225 0.000000 0.000000 0.000000
# 2 -0.003127 0.024669 -0.007343 0.000000 0.000000 0.000000
# 3 -0.005225 -0.007343 0.015951 0.000000 0.000000 0.000000
# 4 0.000000 0.000000 0.000000 0.039996 0.000000 0.000000
# 5 0.000000 0.000000 0.000000 0.000000 0.040712 0.000000
# 6 0.000000 0.000000 0.000000 0.000000 0.000000 0.053858
#
#
# Mechanical properties :
#
#
# Convention : Reuss Voigt Hill
#
# Bulk Modulus (GPa) = 44.46851 50.12829 47.29840
# Shear Modulus (GPa) = 21.99450 23.08946 22.54198
#
# Velocity S-wave (km/s) = 3.42911 3.51343 3.47153
# Velocity P-wave (km/s) = 6.28111 6.57713 6.43083
#
# Compressibility (1/GPa) = 0.02248783
#
# Stress axis : x y z
#
# Youngs Moduli (GPa) = 75.42807 40.53638 62.69326
#
# Poissons Ratio (x) = 0.12674 0.32758
# Poissons Ratio (y) = 0.23584 0.46036
# Poissons Ratio (z) = 0.39412 0.29766
#
# Static dielectric constant tensor:
#      x y z
#    x 3.707730 0.000000 0.000000 
#    y 0.000000 3.373270 0.000000 
#    z 0.000000 0.000000 3.454580 
# 
# 
# High freq. dielectric constant tensor:
#      x y z
#    x 1.728640 0.000000 0.000000 
#    y 0.000000 1.714550 0.000000 
#    z 0.000000 0.000000 1.714490 
# 
# From -- ./inp_files/36500.got.cif
#   From: 2010.03.12/outbox.cif.g09.slc.cpg/sg74_19_cif.got.tgz:36500.got - 2010.04.16 15:46:19.
