data_PCOD8298154
_publ_section_title
;
Structure prediction by ZEFSAII (Michael W. Deem and Ramdas Pophale) SiO2 
 PCOD8298154
Probable space group: I M M A
;
_chemical_formula_sum "Si O2"
_cell_formula_units_Z 80
_cell_length_a 15.650356
_cell_length_b 16.579207
_cell_length_c 15.936336
_cell_angle_alpha 90.000000
_cell_angle_beta 90.000000
_cell_angle_gamma 90.000000
_cell_volume 4135.008939
_symmetry_space_group_name_H-M "I M M A"
_symmetry_group_IT_number 74
_symmetry_cell_setting 'orthorhombic'
loop_
_space_group_symop_operation_xyz
x,y,z
-x,1/2-y,z
x,-y,-z
-x,1/2+y,-z
-x,-y,-z
x,1/2+y,-z
-x,y,z
x,1/2-y,z
1/2+x,1/2+y,1/2+z
1/2-x,-y,1/2+z
1/2+x,1/2-y,1/2-z
1/2-x,y,1/2-z
1/2-x,1/2-y,1/2-z
1/2+x,y,1/2-z
1/2-x,1/2+y,1/2+z
1/2+x,-y,1/2+z
loop_
_atom_site_type_symbol
_atom_site_label
_atom_site_fract_x
_atom_site_fract_y
_atom_site_fract_z
Si Si1 0.000000 0.339565 0.389230
Si Si2 0.278839 0.660280 0.530577
Si Si3 0.839858 0.054075 0.576583
Si Si4 0.097607 0.655127 0.836452
Si Si5 0.500000 0.840218 0.086191
Si Si6 0.171402 0.403494 0.327272
O O1 0.924373 0.392912 0.356435
O O2 0.000000 0.250000 0.347878
O O3 0.000000 0.330060 0.487653
O O4 0.277744 0.750000 0.492429
O O5 0.243059 0.602032 0.458602
O O6 0.373320 0.636786 0.566909
O O7 0.223421 0.660008 0.616320
O O8 0.913680 0.112630 0.612686
O O9 0.877383 0.000000 0.500000
O O10 0.804709 0.996737 0.651118
O O11 0.101944 0.750000 0.818181
O O12 0.168561 0.611924 0.773801
O O13 0.000000 0.623757 0.823820
O O14 0.500000 0.750000 0.126899
#
# Coordination Sequence:
#
# PCOD8298154 Si02
#       6
#     8  16  16  16   8  16
#     4  11  17  23  41  65  94 128 154 187 238 291
#     4  10  19  31  46  67  98 134 167 197 239 297
#     4  10  19  28  42  65  96 132 163 200 243 290
#     4  10  20  32  48  71 101 137 167 195 239 300
#     4  11  18  26  40  62  94 130 159 188 234 289
#     4  11  19  28  45  66  98 131 161 199 243 294
#
# _framework density 19.346997000000002
#
# number of rings (size 3 to 8) (size 9 to 14) (size 15 to 20)
#    0.000    1.600    5.000    3.900    0.000    1.600 
#    0.000    0.000    0.000    5.400    0.000    0.000 
#    0.000   88.000    0.000    0.000    0.000    0.000 
#
# Total GULP energy -495548.790905 kJ/mol
# GULP energy per Si atom -12388.719773 kJ/mol
# Density = 1.930296 g / cm^3
# Si number density = 19.346997 Si / 1000 Ang^3
#
#
#
# Elastic Constant Matrix: (Units=GPa)
#
#
# Indices 1 2 3 4 5 6 
#
# 1 16.3191 12.6382 15.6725 0.0000 0.0000 0.0000
# 2 12.6382 102.7652 32.5224 0.0000 0.0000 0.0000
# 3 15.6725 32.5224 50.0100 0.0000 0.0000 0.0000
# 4 0.0000 0.0000 0.0000 4.4529 0.0000 0.0000
# 5 0.0000 0.0000 0.0000 0.0000 13.6906 0.0000
# 6 0.0000 0.0000 0.0000 0.0000 0.0000 19.3633
#
#
#
# Elastic Compliance Matrix: (Units=1/GPa)
#
#
# Indices 1 2 3 4 5 6 
#
# 1 0.088229 -0.002644 -0.025930 0.000000 0.000000 0.000000
# 2 -0.002644 0.012332 -0.007191 0.000000 0.000000 0.000000
# 3 -0.025930 -0.007191 0.032799 0.000000 0.000000 0.000000
# 4 0.000000 0.000000 0.000000 0.224573 0.000000 0.000000
# 5 0.000000 0.000000 0.000000 0.000000 0.073043 0.000000
# 6 0.000000 0.000000 0.000000 0.000000 0.000000 0.051644
#
#
# Mechanical properties :
#
#
# Convention : Reuss Voigt Hill
#
# Bulk Modulus (GPa) = 16.17382 32.30672 24.24027
# Shear Modulus (GPa) = 8.69930 14.71876 11.70903
#
# Velocity S-wave (km/s) = 2.12279 2.76121 2.46277
# Velocity P-wave (km/s) = 3.79293 5.18657 4.54350
#
# Compressibility (1/GPa) = 0.06182831
#
# Stress axis : x y z
#
# Youngs Moduli (GPa) = 11.33420 81.09072 30.48910
#
# Poissons Ratio (x) = 0.21443 0.79059
# Poissons Ratio (y) = 0.02997 0.21925
# Poissons Ratio (z) = 0.29390 0.58312
#
# Static dielectric constant tensor:
#      x y z
#    x 3.838020 0.000000 0.000000 
#    y 0.000000 3.704170 0.000000 
#    z 0.000000 0.000000 3.333480 
# 
# 
# High freq. dielectric constant tensor:
#      x y z
#    x 1.758840 0.000000 0.000000 
#    y 0.000000 1.742840 0.000000 
#    z 0.000000 0.000000 1.699100 
# 
# From -- ./inp_files/52022.got.cif
#   From: 2010.03.12/outbox.cif.g09.slc.cpg/sg74_27_cif.got.tgz:52022.got - 2010.04.16 15:46:19.
