data_PCOD8298347
_publ_section_title
;
Structure prediction by ZEFSAII (Michael W. Deem and Ramdas Pophale) SiO2 
 PCOD8298347
Probable space group: I M M A
;
_chemical_formula_sum "Si O2"
_cell_formula_units_Z 80
_cell_length_a 25.139692
_cell_length_b 35.230924
_cell_length_c 4.883305
_cell_angle_alpha 90.000000
_cell_angle_beta 90.000000
_cell_angle_gamma 90.000000
_cell_volume 4325.116762
_symmetry_space_group_name_H-M "I M M A"
_symmetry_group_IT_number 74
_symmetry_cell_setting 'orthorhombic'
loop_
_space_group_symop_operation_xyz
x,y,z
-x,1/2-y,z
x,-y,-z
-x,1/2+y,-z
-x,-y,-z
x,1/2+y,-z
-x,y,z
x,1/2-y,z
1/2+x,1/2+y,1/2+z
1/2-x,-y,1/2+z
1/2+x,1/2-y,1/2-z
1/2-x,y,1/2-z
1/2-x,1/2-y,1/2-z
1/2+x,y,1/2-z
1/2-x,1/2+y,1/2+z
1/2+x,-y,1/2+z
loop_
_atom_site_type_symbol
_atom_site_label
_atom_site_fract_x
_atom_site_fract_y
_atom_site_fract_z
Si Si1 0.899918 0.957072 0.091982
Si Si2 0.440246 0.085194 0.105777
Si Si3 0.286815 0.291695 0.993595
Si Si4 0.656787 0.365573 0.078359
Si Si5 0.196505 0.092460 0.916717
O O1 0.916456 0.947142 0.402886
O O2 0.837927 0.945890 0.046730
O O3 0.939927 0.933056 0.905018
O O4 0.907004 0.000000 0.000000
O O5 0.500000 0.096974 0.024314
O O6 0.404362 0.123255 0.134792
O O7 0.310091 0.250000 0.909664
O O8 0.250000 0.286104 0.250000
O O9 0.334340 0.320270 0.077190
O O10 0.250000 0.308733 0.750000
O O11 0.698978 0.387099 0.283187
O O12 0.665298 0.377697 0.766865
O O13 0.250000 0.082071 0.750000
#
# Coordination Sequence:
#
# PCOD8298347 Si02
#       5
#    16  16  16  16  16
#     4  10  21  35  50  73  99 124 163 207 250 298
#     4  10  21  35  52  72  94 127 167 208 251 289
#     4  10  19  30  48  75 103 129 156 190 236 286
#     4  10  19  32  50  71  98 127 162 200 235 287
#     4  10  19  32  50  70  95 130 162 193 238 291
#
# _framework density 18.496611000000001
#
# number of rings (size 3 to 8) (size 9 to 14) (size 15 to 20)
#    0.000    2.000    0.000    4.800    0.000    2.400 
#    0.000    6.000    0.000    0.600    0.000    0.000 
#    0.000   14.400    0.000    0.000    0.000    3.200 
#
# Total GULP energy -495544.624468 kJ/mol
# GULP energy per Si atom -12388.615612 kJ/mol
# Density = 1.845451 g / cm^3
# Si number density = 18.496611 Si / 1000 Ang^3
#
#
#
# Elastic Constant Matrix: (Units=GPa)
#
#
# Indices 1 2 3 4 5 6 
#
# 1 109.7312 64.0422 8.8527 0.0000 0.0000 0.0000
# 2 64.0422 104.2352 11.3870 0.0000 0.0000 0.0000
# 3 8.8527 11.3870 77.8504 0.0000 0.0000 0.0000
# 4 0.0000 0.0000 0.0000 21.5598 0.0000 0.0000
# 5 0.0000 0.0000 0.0000 0.0000 21.5851 0.0000
# 6 0.0000 0.0000 0.0000 0.0000 0.0000 16.3211
#
#
#
# Elastic Compliance Matrix: (Units=1/GPa)
#
#
# Indices 1 2 3 4 5 6 
#
# 1 0.014217 -0.008697 -0.000345 0.000000 0.000000 0.000000
# 2 -0.008697 0.015070 -0.001215 0.000000 0.000000 0.000000
# 3 -0.000345 -0.001215 0.013062 0.000000 0.000000 0.000000
# 4 0.000000 0.000000 0.000000 0.046383 0.000000 0.000000
# 5 0.000000 0.000000 0.000000 0.000000 0.046328 0.000000
# 6 0.000000 0.000000 0.000000 0.000000 0.000000 0.061270
#
#
# Mechanical properties :
#
#
# Convention : Reuss Voigt Hill
#
# Bulk Modulus (GPa) = 45.79811 51.15338 48.47575
# Shear Modulus (GPa) = 22.30920 25.72886 24.01903
#
# Velocity S-wave (km/s) = 3.47670 3.73366 3.60747
# Velocity P-wave (km/s) = 6.39770 6.80460 6.60428
#
# Compressibility (1/GPa) = 0.02183496
#
# Stress axis : x y z
#
# Youngs Moduli (GPa) = 70.33859 66.35672 76.55745
#
# Poissons Ratio (x) = 0.57712 0.02638
# Poissons Ratio (y) = 0.61175 0.09304
# Poissons Ratio (z) = 0.02423 0.08064
#
# Static dielectric constant tensor:
#      x y z
#    x 3.284190 0.000000 0.000000 
#    y 0.000000 3.410300 0.000000 
#    z 0.000000 0.000000 3.668820 
# 
# 
# High freq. dielectric constant tensor:
#      x y z
#    x 1.689310 0.000000 0.000000 
#    y 0.000000 1.693850 0.000000 
#    z 0.000000 0.000000 1.745550 
# 
# From -- ./inp_files/4588.got.cif
#   From: 2010.03.12/outbox.cif.g09.slc.cpg/sg74_3_cif.got.tgz:4588.got - 2010.04.16 15:46:19.
