data_PCOD8298850
_publ_section_title
;
Structure prediction by ZEFSAII (Michael W. Deem and Ramdas Pophale) SiO2 
 PCOD8298850
Probable space group: I M M A
;
_chemical_formula_sum "Si O2"
_cell_formula_units_Z 112
_cell_length_a 26.367923
_cell_length_b 14.892640
_cell_length_c 16.509414
_cell_angle_alpha 90.000000
_cell_angle_beta 90.000000
_cell_angle_gamma 90.000000
_cell_volume 6483.048514
_symmetry_space_group_name_H-M "I M M A"
_symmetry_group_IT_number 74
_symmetry_cell_setting 'orthorhombic'
loop_
_space_group_symop_operation_xyz
x,y,z
-x,1/2-y,z
x,-y,-z
-x,1/2+y,-z
-x,-y,-z
x,1/2+y,-z
-x,y,z
x,1/2-y,z
1/2+x,1/2+y,1/2+z
1/2-x,-y,1/2+z
1/2+x,1/2-y,1/2-z
1/2-x,y,1/2-z
1/2-x,1/2-y,1/2-z
1/2+x,y,1/2-z
1/2-x,1/2+y,1/2+z
1/2+x,-y,1/2+z
loop_
_atom_site_type_symbol
_atom_site_label
_atom_site_fract_x
_atom_site_fract_y
_atom_site_fract_z
Si Si1 0.255459 0.250000 0.888881
Si Si2 0.673242 0.250000 0.733431
Si Si3 0.787262 0.556763 0.816569
Si Si4 0.879985 0.853592 0.892789
Si Si5 0.942256 0.999337 0.190207
Si Si6 0.712610 0.559545 0.077178
Si Si7 0.442019 0.852669 0.448162
Si Si8 0.139479 0.432500 0.714861
O O1 0.285962 0.250000 0.805411
O O2 0.197458 0.250000 0.857202
O O3 0.267440 0.160793 0.942207
O O4 0.638199 0.164192 0.743373
O O5 0.750000 0.606643 0.750000
O O6 0.820480 0.621755 0.875305
O O7 0.754596 0.490129 0.870716
O O8 0.824673 0.495202 0.767148
O O9 0.887218 0.750000 0.871877
O O10 0.916893 0.907483 0.834287
O O11 0.899159 0.873617 0.984213
O O12 0.000000 0.018199 0.207492
O O13 0.932217 0.922455 0.123544
O O14 0.917749 0.968803 0.275978
O O15 0.658620 0.568529 0.122774
O O16 0.700888 0.500000 0.000000
O O17 0.500000 0.866265 0.481962
O O18 0.435815 0.750000 0.416985
#
# Coordination Sequence:
#
# PCOD8298850 Si02
#       8
#     8   8  16  16  16  16  16  16
#     4   9  16  30  52  78  95 130 172 197 246 297
#     4   9  14  28  53  76  98 126 165 205 242 301
#     4   9  18  33  49  69  99 133 163 204 248 287
#     4  10  20  33  48  69  96 134 175 203 238 286
#     4  10  20  33  51  72  98 129 166 206 251 298
#     4  10  19  33  52  73 103 131 165 205 244 298
#     4   9  18  32  49  72 101 128 158 200 249 299
#     4   9  18  31  51  74  99 130 162 205 251 290
#
# _framework density 17.275824
#
# number of rings (size 3 to 8) (size 9 to 14) (size 15 to 20)
#    0.000    2.571    1.429    0.857    1.000    4.571 
#    1.286    0.000    6.286    0.429    0.000    0.000 
#    0.000    0.000    0.000    0.000    0.000    0.000 
#
# Total GULP energy -693806.944900 kJ/mol
# GULP energy per Si atom -12389.409730 kJ/mol
# Density = 1.723650 g / cm^3
# Si number density = 17.275824 Si / 1000 Ang^3
#
#
#
# Elastic Constant Matrix: (Units=GPa)
#
#
# Indices 1 2 3 4 5 6 
#
# 1 92.6691 34.3134 27.3236 0.0000 0.0000 0.0000
# 2 34.3134 97.7257 28.9336 0.0000 0.0000 0.0000
# 3 27.3236 28.9336 47.1483 0.0000 0.0000 0.0000
# 4 0.0000 0.0000 0.0000 26.8707 0.0000 0.0000
# 5 0.0000 0.0000 0.0000 0.0000 18.0681 0.0000
# 6 0.0000 0.0000 0.0000 0.0000 0.0000 20.2130
#
#
#
# Elastic Compliance Matrix: (Units=1/GPa)
#
#
# Indices 1 2 3 4 5 6 
#
# 1 0.013701 -0.003006 -0.006096 0.000000 0.000000 0.000000
# 2 -0.003006 0.013164 -0.006336 0.000000 0.000000 0.000000
# 3 -0.006096 -0.006336 0.028631 0.000000 0.000000 0.000000
# 4 0.000000 0.000000 0.000000 0.037215 0.000000 0.000000
# 5 0.000000 0.000000 0.000000 0.000000 0.055346 0.000000
# 6 0.000000 0.000000 0.000000 0.000000 0.000000 0.049473
#
#
# Mechanical properties :
#
#
# Convention : Reuss Voigt Hill
#
# Bulk Modulus (GPa) = 40.61705 46.52047 43.56876
# Shear Modulus (GPa) = 21.13149 22.82854 21.98001
#
# Velocity S-wave (km/s) = 3.50120 3.63907 3.57080
# Velocity P-wave (km/s) = 6.31716 6.68159 6.50193
#
# Compressibility (1/GPa) = 0.02462021
#
# Stress axis : x y z
#
# Youngs Moduli (GPa) = 72.98479 75.96336 34.92759
#
# Poissons Ratio (x) = 0.22836 0.21290
# Poissons Ratio (y) = 0.21940 0.22131
# Poissons Ratio (z) = 0.44488 0.48133
#
# Static dielectric constant tensor:
#      x y z
#    x 3.485020 0.000000 0.000000 
#    y 0.000000 3.311840 0.000000 
#    z 0.000000 0.000000 3.758520 
# 
# 
# High freq. dielectric constant tensor:
#      x y z
#    x 1.661120 0.000000 0.000000 
#    y 0.000000 1.675800 0.000000 
#    z 0.000000 0.000000 1.629020 
# 
# From -- ./inp_files/37435.got.cif
#   From: 2010.03.12/outbox.cif.g09.slc.cpg/sg74_19_cif.got.tgz:37435.got - 2010.04.16 15:46:19.
