data_PCOD8298090
_publ_section_title
;
Structure prediction by ZEFSAII (Michael W. Deem and Ramdas Pophale) SiO2 
 PCOD8298090
Probable space group: I M M A
;
_chemical_formula_sum "Si O2"
_cell_formula_units_Z 104
_cell_length_a 20.501832
_cell_length_b 8.624244
_cell_length_c 29.653899
_cell_angle_alpha 90.000000
_cell_angle_beta 90.000000
_cell_angle_gamma 90.000000
_cell_volume 5243.188961
_symmetry_space_group_name_H-M "I M M A"
_symmetry_group_IT_number 74
_symmetry_cell_setting 'orthorhombic'
loop_
_space_group_symop_operation_xyz
x,y,z
-x,1/2-y,z
x,-y,-z
-x,1/2+y,-z
-x,-y,-z
x,1/2+y,-z
-x,y,z
x,1/2-y,z
1/2+x,1/2+y,1/2+z
1/2-x,-y,1/2+z
1/2+x,1/2-y,1/2-z
1/2-x,y,1/2-z
1/2-x,1/2-y,1/2-z
1/2+x,y,1/2-z
1/2-x,1/2+y,1/2+z
1/2+x,-y,1/2+z
loop_
_atom_site_type_symbol
_atom_site_label
_atom_site_fract_x
_atom_site_fract_y
_atom_site_fract_z
Si Si1 0.687657 0.567224 0.777512
Si Si2 0.423291 0.423068 0.455118
Si Si3 0.132125 0.431870 0.549465
Si Si4 0.426564 0.433014 0.721534
Si Si5 0.000000 0.433587 0.450028
Si Si6 0.861760 0.930779 0.128443
Si Si7 0.722368 0.069628 0.122569
O O1 0.686914 0.750000 0.771390
O O2 0.750000 0.498499 0.750000
O O3 0.619717 0.500445 0.760021
O O4 0.692322 0.518127 0.829612
O O5 0.392534 0.500000 0.500000
O O6 0.500000 0.410908 0.460511
O O7 0.393721 0.250000 0.448554
O O8 0.407977 0.535190 0.413624
O O9 0.146407 0.500000 0.500000
O O10 0.123294 0.250000 0.544170
O O11 0.066486 0.503286 0.572494
O O12 0.191463 0.469975 0.582463
O O13 0.500000 0.498536 0.727844
O O14 0.426848 0.250000 0.725821
O O15 0.400174 0.484591 0.672872
O O16 0.000000 0.500000 0.500000
O O17 0.000000 0.250000 0.449094
O O18 0.842970 0.750000 0.130221
O O19 0.798631 0.036636 0.123747
O O20 0.709992 0.250000 0.113024
#
# Coordination Sequence:
#
# PCOD8298090 Si02
#       7
#    16  16  16  16   8  16  16
#     4  10  21  40  64  89 119 158 200 246 299 356
#     4  10  21  37  57  82 114 153 195 241 293 346
#     4  11  22  39  62  90 122 157 200 245 299 355
#     4  10  22  39  61  90 122 156 197 247 298 353
#     4  10  18  34  60  88 118 156 198 240 294 350
#     4  11  22  37  59  86 117 154 197 243 295 353
#     4  11  23  40  61  87 120 155 198 245 296 355
#
# _framework density 19.835255
#
# number of rings (size 3 to 8) (size 9 to 14) (size 15 to 20)
#    0.000    1.538    1.538    4.846    0.000    4.615 
#    1.385    3.077    0.000    0.000    0.000    0.000 
#    0.000    0.000    0.000    0.000    0.000    0.000 
#
# Total GULP energy -644935.413720 kJ/mol
# GULP energy per Si atom -12402.604110 kJ/mol
# Density = 1.979011 g / cm^3
# Si number density = 19.835255 Si / 1000 Ang^3
#
#
#
# Elastic Constant Matrix: (Units=GPa)
#
#
# Indices 1 2 3 4 5 6 
#
# 1 115.6639 28.0485 47.7256 0.0000 0.0000 0.0000
# 2 28.0485 86.4491 38.7091 0.0000 0.0000 0.0000
# 3 47.7256 38.7091 103.5735 0.0000 0.0000 0.0000
# 4 0.0000 0.0000 0.0000 26.0545 0.0000 0.0000
# 5 0.0000 0.0000 0.0000 0.0000 -13.5210 0.0000
# 6 0.0000 0.0000 0.0000 0.0000 0.0000 34.7823
#
#
#
# Elastic Compliance Matrix: (Units=1/GPa)
#
#
# Indices 1 2 3 4 5 6 
#
# 1 0.010843 -0.001538 -0.004422 0.000000 0.000000 0.000000
# 2 -0.001538 0.014111 -0.004565 0.000000 0.000000 0.000000
# 3 -0.004422 -0.004565 0.013398 0.000000 0.000000 0.000000
# 4 0.000000 0.000000 0.000000 0.038381 0.000000 0.000000
# 5 0.000000 0.000000 0.000000 0.000000 -0.073959 0.000000
# 6 0.000000 0.000000 0.000000 0.000000 0.000000 0.028750
#
#
# Mechanical properties :
#
#
# Convention : Reuss Voigt Hill
#
# Bulk Modulus (GPa) = 57.79357 59.40588 58.59973
# Shear Modulus (GPa) = 85.70276 22.21006 53.95641
#
# Velocity S-wave (km/s) = 6.58036 3.34986 5.22124
# Velocity P-wave (km/s) = 9.32388 6.70647 8.12132
#
# Compressibility (1/GPa) = 0.01730296
#
# Stress axis : x y z
#
# Youngs Moduli (GPa) = 92.22377 70.86891 74.63585
#
# Poissons Ratio (x) = 0.10902 0.33000
# Poissons Ratio (y) = 0.14187 0.34070
# Poissons Ratio (z) = 0.40777 0.32350
#
# Static dielectric constant tensor:
#      x y z
#    x 3.853030 0.000000 0.000000 
#    y 0.000000 3.622370 0.000000 
#    z 0.000000 0.000000 3.656860 
# 
# 
# High freq. dielectric constant tensor:
#      x y z
#    x 1.775920 0.000000 0.000000 
#    y 0.000000 1.778710 0.000000 
#    z 0.000000 0.000000 1.770110 
# 
# From -- ./inp_files/68239.got.cif
#   From: 2010.03.12/outbox.cif.g09.slc.cpg/sg74_35_cif.got.tgz:68239.got - 2010.04.16 15:46:19.
