data_PCOD8298052
_publ_section_title
;
Structure prediction by ZEFSAII (Michael W. Deem and Ramdas Pophale) SiO2 
 PCOD8298052
Probable space group: I M M A
;
_chemical_formula_sum "Si O2"
_cell_formula_units_Z 80
_cell_length_a 10.309006
_cell_length_b 22.849024
_cell_length_c 16.823865
_cell_angle_alpha 90.000000
_cell_angle_beta 90.000000
_cell_angle_gamma 90.000000
_cell_volume 3962.873607
_symmetry_space_group_name_H-M "I M M A"
_symmetry_group_IT_number 74
_symmetry_cell_setting 'orthorhombic'
loop_
_space_group_symop_operation_xyz
x,y,z
-x,1/2-y,z
x,-y,-z
-x,1/2+y,-z
-x,-y,-z
x,1/2+y,-z
-x,y,z
x,1/2-y,z
1/2+x,1/2+y,1/2+z
1/2-x,-y,1/2+z
1/2+x,1/2-y,1/2-z
1/2-x,y,1/2-z
1/2-x,1/2-y,1/2-z
1/2+x,y,1/2-z
1/2-x,1/2+y,1/2+z
1/2+x,-y,1/2+z
loop_
_atom_site_type_symbol
_atom_site_label
_atom_site_fract_x
_atom_site_fract_y
_atom_site_fract_z
Si Si1 0.149737 0.250000 0.604059
Si Si2 0.647638 0.979491 0.682882
Si Si3 0.850957 0.250000 0.038500
Si Si4 0.722588 0.449107 0.945820
Si Si5 0.352343 0.376491 0.422606
Si Si6 0.141491 0.370577 0.687875
O O1 0.250053 0.250000 0.532713
O O2 0.179080 0.306579 0.657097
O O3 0.000000 0.250000 0.573486
O O4 0.500000 0.985608 0.715174
O O5 0.750000 0.998393 0.750000
O O6 0.681204 0.912632 0.657239
O O7 0.662141 0.019948 0.604517
O O8 0.000000 0.250000 0.006055
O O9 0.825896 0.192430 0.092322
O O10 0.627683 0.417414 0.883803
O O11 0.654372 0.500000 0.000000
O O12 0.771909 0.397169 0.001447
O O13 0.500000 0.388862 0.445218
O O14 0.250000 0.391723 0.750000
O O15 0.000000 0.369141 0.729799
#
# Coordination Sequence:
#
# PCOD8298052 Si02
#       6
#     8  16   8  16  16  16
#     4  10  21  39  57  81 115 147 179 223 277 328
#     4  10  21  37  56  80 113 148 184 227 275 329
#     4  10  18  33  62  89 106 135 184 233 274 326
#     4  10  20  35  57  83 111 144 186 231 278 322
#     4   9  18  34  57  85 111 140 181 229 278 327
#     4  11  24  39  57  82 116 151 185 226 273 329
#
# _framework density 20.187372
#
# number of rings (size 3 to 8) (size 9 to 14) (size 15 to 20)
#    0.000    2.000    2.000    1.500    0.000    7.600 
#    0.000    4.500    0.000    0.000    0.000    0.000 
#    0.000    0.000    0.000    0.000    0.000    0.000 
#
# Total GULP energy -495714.889154 kJ/mol
# GULP energy per Si atom -12392.872229 kJ/mol
# Density = 2.014143 g / cm^3
# Si number density = 20.187372 Si / 1000 Ang^3
#
#
#
# Elastic Constant Matrix: (Units=GPa)
#
#
# Indices 1 2 3 4 5 6 
#
# 1 85.8907 14.1047 27.7865 0.0000 0.0000 0.0000
# 2 14.1047 133.6487 32.3063 0.0000 0.0000 0.0000
# 3 27.7865 32.3063 61.7259 0.0001 0.0000 0.0001
# 4 0.0000 0.0000 0.0001 30.4052 0.0000 0.0000
# 5 0.0000 0.0000 0.0000 0.0000 26.3875 0.0000
# 6 0.0000 0.0000 0.0001 0.0000 0.0000 0.2289
#
#
#
# Elastic Compliance Matrix: (Units=1/GPa)
#
#
# Indices 1 2 3 4 5 6 
#
# 1 0.013628 0.000051 -0.006161 0.000000 0.000000 0.000002
# 2 0.000051 0.008566 -0.004506 0.000000 0.000000 0.000001
# 3 -0.006161 -0.004506 0.021333 0.000000 0.000000 -0.000005
# 4 0.000000 0.000000 0.000000 0.032889 0.000000 -0.000004
# 5 0.000000 0.000000 0.000000 0.000000 0.037897 0.000000
# 6 0.000002 0.000001 -0.000005 -0.000004 0.000000 4.369231
#
#
# Mechanical properties :
#
#
# Convention : Reuss Voigt Hill
#
# Bulk Modulus (GPa) = 44.85644 47.74004 46.29824
# Shear Modulus (GPa) = 1.10810 25.20884 13.15847
#
# Velocity S-wave (km/s) = 0.74169 3.53759 2.55584
# Velocity P-wave (km/s) = 4.79601 6.35499 5.62973
#
# Compressibility (1/GPa) = 0.02229334
#
# Stress axis : x y z
#
# Youngs Moduli (GPa) = 73.38067 116.73753 46.87607
#
# Poissons Ratio (x) = -0.00597 0.28882
# Poissons Ratio (y) = -0.00375 0.21124
# Poissons Ratio (z) = 0.45213 0.52607
#
# Static dielectric constant tensor:
#      x y z
#    x 3.435360 0.000000 0.000000 
#    y 0.000000 4.191410 0.000000 
#    z 0.000000 0.000000 3.434820 
# 
# 
# High freq. dielectric constant tensor:
#      x y z
#    x 1.771830 0.000000 0.000000 
#    y 0.000000 1.815030 0.000000 
#    z 0.000000 0.000000 1.759780 
# 
# From -- ./inp_files/30748.got.cif
#   From: 2010.03.12/outbox.cif.g09.slc.cpg/sg74_16_cif.got.tgz:30748.got - 2010.04.16 15:46:19.
