data_PCOD8298070
_publ_section_title
;
Structure prediction by ZEFSAII (Michael W. Deem and Ramdas Pophale) SiO2 
 PCOD8298070
Probable space group: I M M A
;
_chemical_formula_sum "Si O2"
_cell_formula_units_Z 104
_cell_length_a 26.493884
_cell_length_b 9.115672
_cell_length_c 22.294828
_cell_angle_alpha 90.000000
_cell_angle_beta 90.000000
_cell_angle_gamma 90.000000
_cell_volume 5384.414024
_symmetry_space_group_name_H-M "I M M A"
_symmetry_group_IT_number 74
_symmetry_cell_setting 'orthorhombic'
loop_
_space_group_symop_operation_xyz
x,y,z
-x,1/2-y,z
x,-y,-z
-x,1/2+y,-z
-x,-y,-z
x,1/2+y,-z
-x,y,z
x,1/2-y,z
1/2+x,1/2+y,1/2+z
1/2-x,-y,1/2+z
1/2+x,1/2-y,1/2-z
1/2-x,y,1/2-z
1/2-x,1/2-y,1/2-z
1/2+x,y,1/2-z
1/2-x,1/2+y,1/2+z
1/2+x,-y,1/2+z
loop_
_atom_site_type_symbol
_atom_site_label
_atom_site_fract_x
_atom_site_fract_y
_atom_site_fract_z
Si Si1 0.186561 0.078089 0.304947
Si Si2 0.500000 0.572860 0.065039
Si Si3 0.942166 0.909033 0.777692
Si Si4 0.944337 0.916654 0.110908
Si Si5 0.842907 0.581640 0.058205
Si Si6 0.418253 0.075658 0.146822
Si Si7 0.202112 0.076329 0.171950
O O1 0.193247 0.250000 0.304746
O O2 0.141523 0.033991 0.351242
O O3 0.174694 0.033620 0.235362
O O4 0.240199 0.014912 0.326013
O O5 0.500000 0.750000 0.061228
O O6 0.551103 0.517291 0.097767
O O7 0.500000 0.500000 0.000000
O O8 0.914408 0.750000 0.777916
O O9 0.938282 0.976634 0.711536
O O10 0.000000 0.889783 0.794401
O O11 0.919304 0.005552 0.830915
O O12 0.949992 0.750000 0.130857
O O13 0.904119 0.933812 0.057341
O O14 0.000000 0.977246 0.091439
O O15 0.825699 0.750000 0.055563
O O16 0.822957 0.509203 0.118146
O O17 0.820962 0.500000 0.000000
O O18 0.427277 0.250000 0.135807
O O19 0.199689 0.250000 0.159634
#
# Coordination Sequence:
#
# PCOD8298070 Si02
#       7
#    16   8  16  16  16  16  16
#     4   8  16  31  60  92 115 141 175 220 276 332
#     4  12  26  42  58  78 108 150 193 234 281 336
#     4   9  16  27  48  79 109 137 169 207 255 308
#     4   9  19  34  50  72 105 139 175 223 271 312
#     4  11  23  37  53  74 102 143 187 225 270 319
#     4  10  18  34  57  83 113 144 179 221 268 325
#     4   9  17  35  59  86 115 144 180 222 271 328
#
# _framework density 19.315009
#
# number of rings (size 3 to 8) (size 9 to 14) (size 15 to 20)
#    0.000    2.462    0.769    3.000    0.000    3.385 
#    0.000    3.846    0.000    0.000    0.000    0.000 
#    0.000    0.000    0.000    0.000    0.000    0.000 
#
# Total GULP energy -644211.980666 kJ/mol
# GULP energy per Si atom -12388.691936 kJ/mol
# Density = 1.927105 g / cm^3
# Si number density = 19.315009 Si / 1000 Ang^3
#
#
#
# Elastic Constant Matrix: (Units=GPa)
#
#
# Indices 1 2 3 4 5 6 
#
# 1 84.1901 33.2098 44.3139 0.0000 0.0000 0.0000
# 2 33.2098 79.3330 47.6523 0.0000 0.0000 0.0000
# 3 44.3139 47.6523 101.4320 0.0000 0.0000 0.0000
# 4 0.0000 0.0000 0.0000 29.0186 0.0000 0.0000
# 5 0.0000 0.0000 0.0000 0.0000 22.5402 0.0000
# 6 0.0000 0.0000 0.0000 0.0000 0.0000 17.6242
#
#
#
# Elastic Compliance Matrix: (Units=1/GPa)
#
#
# Indices 1 2 3 4 5 6 
#
# 1 0.016094 -0.003502 -0.005386 0.000000 0.000000 0.000000
# 2 -0.003502 0.018322 -0.007078 0.000000 0.000000 0.000000
# 3 -0.005386 -0.007078 0.015537 0.000000 0.000000 0.000000
# 4 0.000000 0.000000 0.000000 0.034461 0.000000 0.000000
# 5 0.000000 0.000000 0.000000 0.000000 0.044365 0.000000
# 6 0.000000 0.000000 0.000000 0.000000 0.000000 0.056740
#
#
# Mechanical properties :
#
#
# Convention : Reuss Voigt Hill
#
# Bulk Modulus (GPa) = 55.48806 57.25633 56.37219
# Shear Modulus (GPa) = 22.37545 23.15519 22.76532
#
# Velocity S-wave (km/s) = 3.40729 3.46615 3.43685
# Velocity P-wave (km/s) = 6.65356 6.76216 6.70808
#
# Compressibility (1/GPa) = 0.01802189
#
# Stress axis : x y z
#
# Youngs Moduli (GPa) = 62.13378 54.57773 64.36236
#
# Poissons Ratio (x) = 0.19114 0.34666
# Poissons Ratio (y) = 0.21760 0.45555
# Poissons Ratio (z) = 0.33466 0.38629
#
# Static dielectric constant tensor:
#      x y z
#    x 4.092810 0.000000 0.000000 
#    y 0.000000 3.423520 0.000000 
#    z 0.000000 0.000000 3.321970 
# 
# 
# High freq. dielectric constant tensor:
#      x y z
#    x 1.763530 0.000000 0.000000 
#    y 0.000000 1.724200 0.000000 
#    z 0.000000 0.000000 1.733340 
# 
# From -- ./inp_files/55670.got.cif
#   From: 2010.03.12/outbox.cif.g09.slc.cpg/sg74_28_cif.got.tgz:55670.got - 2010.04.16 15:46:19.
