data_PCOD8298573
_publ_section_title
;
Structure prediction by ZEFSAII (Michael W. Deem and Ramdas Pophale) SiO2 
 PCOD8298573
Probable space group: I M M A
;
_chemical_formula_sum "Si O2"
_cell_formula_units_Z 112
_cell_length_a 13.987165
_cell_length_b 23.390469
_cell_length_c 25.237760
_cell_angle_alpha 90.000000
_cell_angle_beta 90.000000
_cell_angle_gamma 90.000000
_cell_volume 8256.945804
_symmetry_space_group_name_H-M "I M M A"
_symmetry_group_IT_number 74
_symmetry_cell_setting 'orthorhombic'
loop_
_space_group_symop_operation_xyz
x,y,z
-x,1/2-y,z
x,-y,-z
-x,1/2+y,-z
-x,-y,-z
x,1/2+y,-z
-x,y,z
x,1/2-y,z
1/2+x,1/2+y,1/2+z
1/2-x,-y,1/2+z
1/2+x,1/2-y,1/2-z
1/2-x,y,1/2-z
1/2-x,1/2-y,1/2-z
1/2+x,y,1/2-z
1/2-x,1/2+y,1/2+z
1/2+x,-y,1/2+z
loop_
_atom_site_type_symbol
_atom_site_label
_atom_site_fract_x
_atom_site_fract_y
_atom_site_fract_z
Si Si1 0.114015 0.931724 0.891881
Si Si2 0.895194 0.186697 0.358014
Si Si3 0.114080 0.250000 0.162195
Si Si4 0.717503 0.363432 0.308293
Si Si5 0.700902 0.866192 0.509136
Si Si6 0.894643 0.459776 0.949036
Si Si7 0.887312 0.250000 0.039165
Si Si8 0.895321 0.813768 0.517082
O O1 0.153018 0.913379 0.834396
O O2 0.169751 0.894687 0.935667
O O3 0.000000 0.919825 0.896994
O O4 0.136959 0.999332 0.900103
O O5 0.870807 0.250000 0.335207
O O6 0.815642 0.142067 0.340546
O O7 0.897101 0.189985 0.420388
O O8 0.000000 0.167375 0.336913
O O9 0.155640 0.194600 0.191686
O O10 0.147775 0.250000 0.100554
O O11 0.000000 0.250000 0.166755
O O12 0.750000 0.381731 0.250000
O O13 0.672201 0.905062 0.458649
O O14 0.651813 0.804464 0.507650
O O15 0.814583 0.859241 0.501007
O O16 0.000000 0.435070 0.938541
O O17 0.895284 0.500000 0.000000
O O18 0.000000 0.250000 0.037223
O O19 0.872780 0.750000 0.494840
O O20 0.000000 0.834223 0.496269
#
# Coordination Sequence:
#
# PCOD8298573 Si02
#       8
#    16  16   8  16  16  16   8  16
#     4  10  19  32  46  58  79 108 139 176 215 257
#     4   9  17  29  40  49  69 104 137 166 205 245
#     4  11  21  31  40  56  85 113 138 177 225 258
#     4  12  22  31  41  58  77 103 143 185 217 253
#     4  11  16  26  44  63  85 108 138 172 208 252
#     4   8  16  28  43  62  80 103 135 169 209 258
#     4  11  18  23  40  66  90 113 134 172 216 253
#     4   9  16  26  39  56  78 109 142 164 191 235
#
# _framework density 13.564337999999999
#
# number of rings (size 3 to 8) (size 9 to 14) (size 15 to 20)
#    0.000    2.000    4.286    3.643    0.000    1.143 
#    0.000    0.000    0.000    4.714    0.000    0.000 
#    0.000    0.000    0.000    0.643    0.000    0.571 
#
# Total GULP energy -693971.154797 kJ/mol
# GULP energy per Si atom -12392.342050 kJ/mol
# Density = 1.353346 g / cm^3
# Si number density = 13.564338 Si / 1000 Ang^3
#
#
#
# Elastic Constant Matrix: (Units=GPa)
#
#
# Indices 1 2 3 4 5 6 
#
# 1 101.5604 47.4331 25.0852 0.0000 0.0000 0.0000
# 2 47.4331 76.3290 36.2519 0.0000 0.0000 0.0000
# 3 25.0852 36.2519 39.8672 0.0000 0.0000 0.0000
# 4 0.0000 0.0000 0.0000 14.2374 0.0000 0.0000
# 5 0.0000 0.0000 0.0000 0.0000 13.3887 0.0000
# 6 0.0000 0.0000 0.0000 0.0000 0.0000 -25.4152
#
#
#
# Elastic Compliance Matrix: (Units=1/GPa)
#
#
# Indices 1 2 3 4 5 6 
#
# 1 0.013928 -0.007909 -0.001573 0.000000 0.000000 0.000000
# 2 -0.007909 0.027551 -0.020076 0.000000 0.000000 0.000000
# 3 -0.001573 -0.020076 0.044328 0.000000 0.000000 0.000000
# 4 0.000000 0.000000 0.000000 0.070238 0.000000 0.000000
# 5 0.000000 0.000000 0.000000 0.000000 0.074690 0.000000
# 6 0.000000 0.000000 0.000000 0.000000 0.000000 -0.039347
#
#
# Mechanical properties :
#
#
# Convention : Reuss Voigt Hill
#
# Bulk Modulus (GPa) = 37.46316 48.36631 42.91473
# Shear Modulus (GPa) = 19.27518 7.70795 13.49156
#
# Velocity S-wave (km/s) = 3.77373 2.38639 3.15720
# Velocity P-wave (km/s) = 6.83132 6.58236 6.70799
#
# Compressibility (1/GPa) = 0.02669289
#
# Stress axis : x y z
#
# Youngs Moduli (GPa) = 71.79536 36.29650 22.55891
#
# Poissons Ratio (x) = 0.28706 0.03548
# Poissons Ratio (y) = 0.56781 0.45290
# Poissons Ratio (z) = 0.11291 0.72869
#
# Static dielectric constant tensor:
#      x y z
#    x 3.217280 0.000000 0.000000 
#    y 0.000000 2.745020 0.000000 
#    z 0.000000 0.000000 2.396090 
# 
# 
# High freq. dielectric constant tensor:
#      x y z
#    x 1.535320 0.000000 0.000000 
#    y 0.000000 1.492160 0.000000 
#    z 0.000000 0.000000 1.460210 
# 
# From -- ./inp_files/72782.got.cif
#   From: 2010.03.12/outbox.cif.g09.slc.cpg/sg74_37_cif.got.tgz:72782.got - 2010.04.16 15:46:19.
