data_PCOD8298381
_publ_section_title
;
Structure prediction by ZEFSAII (Michael W. Deem and Ramdas Pophale) SiO2 
 PCOD8298381
Probable space group: I M M A
;
_chemical_formula_sum "Si O2"
_cell_formula_units_Z 104
_cell_length_a 9.291629
_cell_length_b 28.545651
_cell_length_c 24.070253
_cell_angle_alpha 90.000000
_cell_angle_beta 90.000000
_cell_angle_gamma 90.000000
_cell_volume 6384.287964
_symmetry_space_group_name_H-M "I M M A"
_symmetry_group_IT_number 74
_symmetry_cell_setting 'orthorhombic'
loop_
_space_group_symop_operation_xyz
x,y,z
-x,1/2-y,z
x,-y,-z
-x,1/2+y,-z
-x,-y,-z
x,1/2+y,-z
-x,y,z
x,1/2-y,z
1/2+x,1/2+y,1/2+z
1/2-x,-y,1/2+z
1/2+x,1/2-y,1/2-z
1/2-x,y,1/2-z
1/2-x,1/2-y,1/2-z
1/2+x,y,1/2-z
1/2-x,1/2+y,1/2+z
1/2+x,-y,1/2+z
loop_
_atom_site_type_symbol
_atom_site_label
_atom_site_fract_x
_atom_site_fract_y
_atom_site_fract_z
Si Si1 0.163993 0.974319 0.805496
Si Si2 0.166942 0.695976 0.903634
Si Si3 0.831942 0.627286 0.807863
Si Si4 0.667620 0.250000 0.692684
Si Si5 0.667656 0.424372 0.692145
Si Si6 0.668299 0.695584 0.014403
Si Si7 0.330871 0.161847 0.618406
O O1 0.250000 0.975021 0.750000
O O2 0.198457 0.924626 0.835590
O O3 0.000000 0.974244 0.787074
O O4 0.197467 0.023975 0.836180
O O5 0.192050 0.750000 0.888025
O O6 0.222644 0.665525 0.851751
O O7 0.000000 0.685817 0.917163
O O8 0.261060 0.680984 0.956266
O O9 0.750000 0.634301 0.750000
O O10 0.000000 0.634393 0.795436
O O11 0.500000 0.250000 0.706478
O O12 0.750000 0.250000 0.750000
O O13 0.712929 0.295537 0.658180
O O14 0.500000 0.416935 0.705486
O O15 0.750000 0.417739 0.750000
O O16 0.718789 0.386041 0.647859
O O17 0.500000 0.684317 0.012008
O O18 0.698730 0.750000 0.026982
O O19 0.742169 0.664683 0.061746
O O20 0.500000 0.162910 0.604353
#
# Coordination Sequence:
#
# PCOD8298381 Si02
#       7
#    16  16  16   8  16  16  16
#     4   8  14  26  43  64  90 118 150 184 216 259
#     4   9  18  32  49  68  92 122 152 183 221 268
#     4   9  17  29  47  71  97 124 150 178 219 266
#     4  10  20  30  42  62  90 120 147 180 225 272
#     4   9  17  28  44  66  91 119 151 187 226 267
#     4  10  20  33  49  68  87 113 153 195 230 265
#     4  10  19  31  46  64  88 120 153 186 227 273
#
# _framework density 16.289991000000001
#
# number of rings (size 3 to 8) (size 9 to 14) (size 15 to 20)
#    0.000    2.769    0.769    0.923    0.000    2.769 
#    0.000    0.000    0.000    0.923    0.000    6.462 
#    0.000    0.000    0.000    0.000    0.000    0.000 
#
# Total GULP energy -644380.292295 kJ/mol
# GULP energy per Si atom -12391.928698 kJ/mol
# Density = 1.625291 g / cm^3
# Si number density = 16.289991 Si / 1000 Ang^3
#
#
#
# Elastic Constant Matrix: (Units=GPa)
#
#
# Indices 1 2 3 4 5 6 
#
# 1 51.1833 41.7510 50.0233 0.0000 0.0000 0.0000
# 2 41.7510 132.1736 80.0536 0.0000 0.0000 0.0000
# 3 50.0233 80.0536 115.5003 -0.0001 0.0000 0.0000
# 4 0.0000 0.0000 -0.0001 11.4073 0.0000 0.0000
# 5 0.0000 0.0000 0.0000 0.0000 27.5808 0.0000
# 6 0.0000 0.0000 0.0000 0.0000 0.0000 15.4986
#
#
#
# Elastic Compliance Matrix: (Units=1/GPa)
#
#
# Indices 1 2 3 4 5 6 
#
# 1 0.034645 -0.003198 -0.012788 0.000000 0.000000 0.000000
# 2 -0.003198 0.013335 -0.007857 0.000000 0.000000 0.000000
# 3 -0.012788 -0.007857 0.019642 0.000000 0.000000 0.000000
# 4 0.000000 0.000000 0.000000 0.087663 0.000000 0.000000
# 5 0.000000 0.000000 0.000000 0.000000 0.036257 0.000000
# 6 0.000000 0.000000 0.000000 0.000000 0.000000 0.064522
#
#
# Mechanical properties :
#
#
# Convention : Reuss Voigt Hill
#
# Bulk Modulus (GPa) = 50.16315 71.39032 60.77674
# Shear Modulus (GPa) = 16.10844 19.36596 17.73720
#
# Velocity S-wave (km/s) = 3.14802 3.45168 3.30334
# Velocity P-wave (km/s) = 6.63883 7.73338 7.20692
#
# Compressibility (1/GPa) = 0.01993495
#
# Stress axis : x y z
#
# Youngs Moduli (GPa) = 28.86457 74.99020 50.91032
#
# Poissons Ratio (x) = 0.23984 0.65103
# Poissons Ratio (y) = 0.09232 0.40002
# Poissons Ratio (z) = 0.36912 0.58923
#
# Static dielectric constant tensor:
#      x y z
#    x 2.889130 0.000000 0.000000 
#    y 0.000000 3.730200 0.000000 
#    z 0.000000 0.000000 2.783510 
# 
# 
# High freq. dielectric constant tensor:
#      x y z
#    x 1.627550 0.000000 0.000000 
#    y 0.000000 1.636000 0.000000 
#    z 0.000000 0.000000 1.597240 
# 
# From -- ./inp_files/57622.got.cif
#   From: 2010.03.12/outbox.cif.g09.slc.cpg/sg74_29_cif.got.tgz:57622.got - 2010.04.16 15:46:19.
