data_PCOD8298285
_publ_section_title
;
Structure prediction by ZEFSAII (Michael W. Deem and Ramdas Pophale) SiO2 
 PCOD8298285
Probable space group: I M M A
;
_chemical_formula_sum "Si O2"
_cell_formula_units_Z 80
_cell_length_a 9.304103
_cell_length_b 18.462400
_cell_length_c 27.079869
_cell_angle_alpha 90.000000
_cell_angle_beta 90.000000
_cell_angle_gamma 90.000000
_cell_volume 4651.673506
_symmetry_space_group_name_H-M "I M M A"
_symmetry_group_IT_number 74
_symmetry_cell_setting 'orthorhombic'
loop_
_space_group_symop_operation_xyz
x,y,z
-x,1/2-y,z
x,-y,-z
-x,1/2+y,-z
-x,-y,-z
x,1/2+y,-z
-x,y,z
x,1/2-y,z
1/2+x,1/2+y,1/2+z
1/2-x,-y,1/2+z
1/2+x,1/2-y,1/2-z
1/2-x,y,1/2-z
1/2-x,1/2-y,1/2-z
1/2+x,y,1/2-z
1/2-x,1/2+y,1/2+z
1/2+x,-y,1/2+z
loop_
_atom_site_type_symbol
_atom_site_label
_atom_site_fract_x
_atom_site_fract_y
_atom_site_fract_z
Si Si1 0.163866 0.464522 0.860747
Si Si2 0.333972 0.830972 0.297942
Si Si3 0.168118 0.604809 0.800924
Si Si4 0.333993 0.831791 0.891024
Si Si5 0.168395 0.028010 0.447951
O O1 0.203100 0.384455 0.842435
O O2 0.191299 0.521453 0.816581
O O3 0.266474 0.476943 0.906489
O O4 0.000000 0.470545 0.878938
O O5 0.500000 0.835465 0.283835
O O6 0.288682 0.750000 0.314195
O O7 0.250000 0.856881 0.250000
O O8 0.250000 0.619996 0.750000
O O9 0.234811 0.655677 0.843337
O O10 0.000000 0.623775 0.794526
O O11 0.500000 0.843743 0.875413
O O12 0.308532 0.750000 0.910542
O O13 0.293158 0.887860 0.935306
O O14 0.000000 0.015245 0.447576
O O15 0.232947 0.000000 0.500000
#
# Coordination Sequence:
#
# PCOD8298285 Si02
#       5
#    16  16  16  16  16
#     4   9  18  31  47  68  93 122 156 192 229 272
#     4   9  17  29  45  66  94 126 157 189 226 269
#     4  10  19  30  46  69  96 125 157 191 226 268
#     4   9  18  33  51  69  92 123 155 187 226 271
#     4   9  18  33  52  72  92 116 150 192 234 274
#
# _framework density 17.198111999999998
#
# number of rings (size 3 to 8) (size 9 to 14) (size 15 to 20)
#    0.000    2.800    0.000    1.200    0.000    2.800 
#    0.000    1.000    0.000    1.200    0.000    0.000 
#    0.000    0.000    0.000    0.000    0.000    0.000 
#
# Total GULP energy -495909.106568 kJ/mol
# GULP energy per Si atom -12397.727664 kJ/mol
# Density = 1.715897 g / cm^3
# Si number density = 17.198112 Si / 1000 Ang^3
#
#
#
# Elastic Constant Matrix: (Units=GPa)
#
#
# Indices 1 2 3 4 5 6 
#
# 1 53.1723 38.9585 48.5878 0.0000 0.0000 0.0000
# 2 38.9585 104.1954 62.3538 0.0000 0.0000 0.0000
# 3 48.5878 62.3538 118.0514 0.0000 0.0000 0.0000
# 4 0.0000 0.0000 0.0000 12.5005 0.0000 0.0000
# 5 0.0000 0.0000 0.0000 0.0000 27.0198 0.0000
# 6 0.0000 0.0000 0.0000 0.0000 0.0000 22.3909
#
#
#
# Elastic Compliance Matrix: (Units=1/GPa)
#
#
# Indices 1 2 3 4 5 6 
#
# 1 0.032580 -0.006078 -0.010199 0.000000 0.000000 0.000000
# 2 -0.006078 0.015167 -0.005509 0.000000 0.000000 0.000000
# 3 -0.010199 -0.005509 0.015578 0.000000 0.000000 0.000000
# 4 0.000000 0.000000 0.000000 0.079997 0.000000 0.000000
# 5 0.000000 0.000000 0.000000 0.000000 0.037010 0.000000
# 6 0.000000 0.000000 0.000000 0.000000 0.000000 0.044661
#
#
# Mechanical properties :
#
#
# Convention : Reuss Voigt Hill
#
# Bulk Modulus (GPa) = 50.62671 63.91328 57.26999
# Shear Modulus (GPa) = 18.17195 20.75018 19.46107
#
# Velocity S-wave (km/s) = 3.25410 3.47729 3.36755
# Velocity P-wave (km/s) = 6.60456 7.30519 6.96369
#
# Compressibility (1/GPa) = 0.01975242
#
# Stress axis : x y z
#
# Youngs Moduli (GPa) = 30.69409 65.93267 64.19109
#
# Poissons Ratio (x) = 0.40076 0.65466
# Poissons Ratio (y) = 0.18657 0.35365
# Poissons Ratio (z) = 0.31304 0.36325
#
# Static dielectric constant tensor:
#      x y z
#    x 3.237470 0.000000 0.000000 
#    y 0.000000 3.391820 0.000000 
#    z 0.000000 0.000000 3.097820 
# 
# 
# High freq. dielectric constant tensor:
#      x y z
#    x 1.666060 0.000000 0.000000 
#    y 0.000000 1.668280 0.000000 
#    z 0.000000 0.000000 1.642130 
# 
# From -- ./inp_files/63907.got.cif
#   From: 2010.03.12/outbox.cif.g09.slc.cpg/sg74_32_cif.got.tgz:63907.got - 2010.04.16 15:46:19.
