data_PCOD8298901
_publ_section_title
;
Structure prediction by ZEFSAII (Michael W. Deem and Ramdas Pophale) SiO2 
 PCOD8298901
Probable space group: I M M A
;
_chemical_formula_sum "Si O2"
_cell_formula_units_Z 96
_cell_length_a 23.897532
_cell_length_b 19.190217
_cell_length_c 11.724700
_cell_angle_alpha 90.000000
_cell_angle_beta 90.000000
_cell_angle_gamma 90.000000
_cell_volume 5376.933642
_symmetry_space_group_name_H-M "I M M A"
_symmetry_group_IT_number 74
_symmetry_cell_setting 'orthorhombic'
loop_
_space_group_symop_operation_xyz
x,y,z
-x,1/2-y,z
x,-y,-z
-x,1/2+y,-z
-x,-y,-z
x,1/2+y,-z
-x,y,z
x,1/2-y,z
1/2+x,1/2+y,1/2+z
1/2-x,-y,1/2+z
1/2+x,1/2-y,1/2-z
1/2-x,y,1/2-z
1/2-x,1/2-y,1/2-z
1/2+x,y,1/2-z
1/2-x,1/2+y,1/2+z
1/2+x,-y,1/2+z
loop_
_atom_site_type_symbol
_atom_site_label
_atom_site_fract_x
_atom_site_fract_y
_atom_site_fract_z
Si Si1 0.750000 0.991607 0.250000
Si Si2 0.621110 0.500000 0.000000
Si Si3 0.371147 0.327467 0.747748
Si Si4 0.349400 0.956259 0.611823
Si Si5 0.799427 0.388307 0.566517
Si Si6 0.185349 0.670905 0.008484
Si Si7 0.934667 0.532288 0.264652
O O1 0.776522 0.945465 0.347559
O O2 0.701011 0.039462 0.298925
O O3 0.658886 0.569589 0.982558
O O4 0.582051 0.506458 0.110322
O O5 0.398437 0.250000 0.741961
O O6 0.333331 0.330739 0.861318
O O7 0.330843 0.340194 0.640140
O O8 0.418586 0.386575 0.748084
O O9 0.354485 0.875565 0.572903
O O10 0.333611 0.000000 0.500000
O O11 0.406230 0.983963 0.668433
O O12 0.750199 0.352063 0.494832
O O13 0.177740 0.750000 0.968402
O O14 0.000000 0.524099 0.246472
#
# Coordination Sequence:
#
# PCOD8298901 Si02
#       7
#     8   8  16  16  16  16  16
#     4  12  18  30  58  86 116 150 182 224 278 342
#     4  10  21  36  58  84 112 146 191 242 286 328
#     4  10  19  33  53  83 119 148 182 233 295 346
#     4  12  21  37  57  87 114 151 192 233 288 334
#     4  11  16  31  53  85 115 153 182 220 281 345
#     4  11  21  33  53  85 124 153 181 227 284 353
#     4  11  23  39  60  83 109 150 202 249 285 330
#
# _framework density 17.854042
#
# number of rings (size 3 to 8) (size 9 to 14) (size 15 to 20)
#    0.000    1.000    8.333    1.750    0.000    2.000 
#    0.000    0.417    0.000    1.500    0.000    0.000 
#    0.000    0.000    0.000    0.000    0.000    0.000 
#
# Total GULP energy -595194.160880 kJ/mol
# GULP energy per Si atom -12399.878352 kJ/mol
# Density = 1.781341 g / cm^3
# Si number density = 17.854042 Si / 1000 Ang^3
#
#
#
# Elastic Constant Matrix: (Units=GPa)
#
#
# Indices 1 2 3 4 5 6 
#
# 1 116.3293 56.9234 46.4844 0.0000 0.0000 0.0000
# 2 56.9234 138.6317 53.0556 0.0000 0.0000 0.0000
# 3 46.4844 53.0556 47.9041 0.0000 0.0000 0.0000
# 4 0.0000 0.0000 0.0000 24.9519 0.0000 0.0000
# 5 0.0000 0.0000 0.0000 0.0000 19.7003 0.0000
# 6 0.0000 0.0000 0.0000 0.0000 0.0000 10.0462
#
#
#
# Elastic Compliance Matrix: (Units=1/GPa)
#
#
# Indices 1 2 3 4 5 6 
#
# 1 0.014114 -0.000961 -0.012631 0.000000 0.000000 0.000000
# 2 -0.000961 0.012586 -0.013006 0.000000 0.000000 0.000000
# 3 -0.012631 -0.013006 0.047537 0.000000 0.000000 0.000000
# 4 0.000000 0.000000 0.000000 0.040077 0.000000 0.000000
# 5 0.000000 0.000000 0.000000 0.000000 0.050761 0.000000
# 6 0.000000 0.000000 0.000000 0.000000 0.000000 0.099540
#
#
# Mechanical properties :
#
#
# Convention : Reuss Voigt Hill
#
# Bulk Modulus (GPa) = 47.53057 68.42133 57.97595
# Shear Modulus (GPa) = 15.39292 20.69978 18.04635
#
# Velocity S-wave (km/s) = 2.93943 3.40867 3.18271
# Velocity P-wave (km/s) = 6.18060 7.34152 6.78593
#
# Compressibility (1/GPa) = 0.02103909
#
# Stress axis : x y z
#
# Youngs Moduli (GPa) = 70.85197 79.45508 21.03642
#
# Poissons Ratio (x) = 0.07638 0.26571
# Poissons Ratio (y) = 0.06811 0.27361
# Poissons Ratio (z) = 0.89493 1.03342
#
# Static dielectric constant tensor:
#      x y z
#    x 3.196270 0.000000 0.000000 
#    y 0.000000 3.434780 0.000000 
#    z 0.000000 0.000000 3.396620 
# 
# 
# High freq. dielectric constant tensor:
#      x y z
#    x 1.668810 0.000000 0.000000 
#    y 0.000000 1.687250 0.000000 
#    z 0.000000 0.000000 1.684490 
# 
# From -- ./inp_files/25205.got.cif
#   From: 2010.03.12/outbox.cif.g09.slc.cpg/sg74_13_cif.got.tgz:25205.got - 2010.04.16 15:46:19.
