data_PCOD8298362
_publ_section_title
;
Structure prediction by ZEFSAII (Michael W. Deem and Ramdas Pophale) SiO2 
 PCOD8298362
Probable space group: I M M A
;
_chemical_formula_sum "Si O2"
_cell_formula_units_Z 104
_cell_length_a 8.875673
_cell_length_b 32.154079
_cell_length_c 20.079406
_cell_angle_alpha 90.000000
_cell_angle_beta 90.000000
_cell_angle_gamma 90.000000
_cell_volume 5730.443423
_symmetry_space_group_name_H-M "I M M A"
_symmetry_group_IT_number 74
_symmetry_cell_setting 'orthorhombic'
loop_
_space_group_symop_operation_xyz
x,y,z
-x,1/2-y,z
x,-y,-z
-x,1/2+y,-z
-x,-y,-z
x,1/2+y,-z
-x,y,z
x,1/2-y,z
1/2+x,1/2+y,1/2+z
1/2-x,-y,1/2+z
1/2+x,1/2-y,1/2-z
1/2-x,y,1/2-z
1/2-x,1/2-y,1/2-z
1/2+x,y,1/2-z
1/2-x,1/2+y,1/2+z
1/2+x,-y,1/2+z
loop_
_atom_site_type_symbol
_atom_site_label
_atom_site_fract_x
_atom_site_fract_y
_atom_site_fract_z
Si Si1 0.677694 0.250000 0.321615
Si Si2 0.176941 0.047225 0.679123
Si Si3 0.672187 0.904166 0.951110
Si Si4 0.323936 0.986507 0.573974
Si Si5 0.826753 0.187203 0.416529
Si Si6 0.176019 0.125497 0.595895
Si Si7 0.673599 0.796221 0.444853
O O1 0.500000 0.250000 0.315046
O O2 0.750000 0.250000 0.250000
O O3 0.729051 0.208583 0.359625
O O4 0.250000 0.038840 0.750000
O O5 0.217223 0.093958 0.655215
O O6 0.000000 0.041229 0.685252
O O7 0.236268 0.014014 0.626783
O O8 0.500000 0.919944 0.951421
O O9 0.777208 0.938534 0.916858
O O10 0.689914 0.862322 0.908023
O O11 0.726741 0.895704 0.026614
O O12 0.500000 0.991959 0.586707
O O13 0.275900 0.000000 0.500000
O O14 0.769650 0.201790 0.488136
O O15 0.000000 0.201021 0.409795
O O16 0.265875 0.168801 0.606670
O O17 0.000000 0.136188 0.593194
O O18 0.500000 0.805310 0.461842
O O19 0.692422 0.750000 0.413397
#
# Coordination Sequence:
#
# PCOD8298362 Si02
#       7
#     8  16  16  16  16  16  16
#     4  12  24  38  56  78 106 146 189 230 279 334
#     4  11  23  40  60  83 115 152 192 236 287 345
#     4   9  18  34  56  82 110 143 184 229 281 331
#     4  11  22  35  56  87 117 149 190 236 284 336
#     4  10  20  35  54  78 108 143 182 226 277 331
#     4   9  19  34  54  80 110 148 186 225 278 335
#     4  10  19  30  50  82 115 143 176 226 279 325
#
# _framework density 18.148682999999998
#
# number of rings (size 3 to 8) (size 9 to 14) (size 15 to 20)
#    0.000    1.846    2.308    3.462    0.000    5.846 
#    0.000    0.769    0.000    4.154    0.000    0.000 
#    0.000    0.000    0.000    0.000    0.000    0.000 
#
# Total GULP energy -644889.876742 kJ/mol
# GULP energy per Si atom -12401.728399 kJ/mol
# Density = 1.810738 g / cm^3
# Si number density = 18.148683 Si / 1000 Ang^3
#
#
#
# Elastic Constant Matrix: (Units=GPa)
#
#
# Indices 1 2 3 4 5 6 
#
# 1 104.1256 59.8754 44.5989 -0.0001 0.0000 0.0000
# 2 59.8754 131.8807 47.3497 -0.0001 0.0000 0.0000
# 3 44.5989 47.3497 89.7703 -0.0007 -0.0001 0.0000
# 4 -0.0001 -0.0001 -0.0007 8.3919 0.0000 0.0000
# 5 0.0000 0.0000 -0.0001 0.0000 24.8879 0.0000
# 6 0.0000 0.0000 0.0000 0.0000 0.0000 33.0014
#
#
#
# Elastic Compliance Matrix: (Units=1/GPa)
#
#
# Indices 1 2 3 4 5 6 
#
# 1 0.014366 -0.004885 -0.004561 0.000000 0.000000 0.000000
# 2 -0.004885 0.011015 -0.003383 0.000000 0.000000 0.000000
# 3 -0.004561 -0.003383 0.015190 0.000001 0.000000 0.000000
# 4 0.000000 0.000000 0.000001 0.119163 0.000000 0.000000
# 5 0.000000 0.000000 0.000000 0.000000 0.040180 0.000000
# 6 0.000000 0.000000 0.000000 0.000000 0.000000 0.030302
#
#
# Mechanical properties :
#
#
# Convention : Reuss Voigt Hill
#
# Bulk Modulus (GPa) = 67.05281 69.93606 68.49444
# Shear Modulus (GPa) = 19.16848 24.85307 22.01078
#
# Velocity S-wave (km/s) = 3.25344 3.70457 3.48631
# Velocity P-wave (km/s) = 7.15120 7.54435 7.35041
#
# Compressibility (1/GPa) = 0.01491362
#
# Stress axis : x y z
#
# Youngs Moduli (GPa) = 69.60762 90.78461 65.83388
#
# Poissons Ratio (x) = 0.44348 0.30025
# Poissons Ratio (y) = 0.34003 0.22272
# Poissons Ratio (z) = 0.31746 0.30713
#
# Static dielectric constant tensor:
#      x y z
#    x 3.439900 0.000000 0.000000 
#    y 0.000000 4.361260 -0.000030 
#    z 0.000000 -0.000030 2.074050 
# 
# 
# High freq. dielectric constant tensor:
#      x y z
#    x 1.714920 0.000000 0.000000 
#    y 0.000000 1.717300 0.000000 
#    z 0.000000 0.000000 1.664080 
# 
# From -- ./inp_files/49635.got.cif
#   From: 2010.03.12/outbox.cif.g09.slc.cpg/sg74_25_cif.got.tgz:49635.got - 2010.04.16 15:46:19.
