data_PCOD8298304
_publ_section_title
;
Structure prediction by ZEFSAII (Michael W. Deem and Ramdas Pophale) SiO2 
 PCOD8298304
Probable space group: I M M A
;
_chemical_formula_sum "Si O2"
_cell_formula_units_Z 72
_cell_length_a 9.241276
_cell_length_b 25.533334
_cell_length_c 16.458918
_cell_angle_alpha 90.000000
_cell_angle_beta 90.000000
_cell_angle_gamma 90.000000
_cell_volume 3883.655948
_symmetry_space_group_name_H-M "I M M A"
_symmetry_group_IT_number 74
_symmetry_cell_setting 'orthorhombic'
loop_
_space_group_symop_operation_xyz
x,y,z
-x,1/2-y,z
x,-y,-z
-x,1/2+y,-z
-x,-y,-z
x,1/2+y,-z
-x,y,z
x,1/2-y,z
1/2+x,1/2+y,1/2+z
1/2-x,-y,1/2+z
1/2+x,1/2-y,1/2-z
1/2-x,y,1/2-z
1/2-x,1/2-y,1/2-z
1/2+x,y,1/2-z
1/2-x,1/2+y,1/2+z
1/2+x,-y,1/2+z
loop_
_atom_site_type_symbol
_atom_site_label
_atom_site_fract_x
_atom_site_fract_y
_atom_site_fract_z
Si Si1 0.169232 0.563559 0.826110
Si Si2 0.162301 0.193104 0.891828
Si Si3 0.836960 0.539043 0.372698
Si Si4 0.250000 0.123203 0.750000
Si Si5 0.830728 0.398326 0.998949
O O1 0.250000 0.591302 0.750000
O O2 0.240789 0.506984 0.836240
O O3 0.194062 0.599869 0.904688
O O4 0.000000 0.555826 0.807244
O O5 0.243479 0.250000 0.885592
O O6 0.157779 0.161656 0.807088
O O7 0.000000 0.205049 0.916924
O O8 0.228656 0.157157 0.964088
O O9 0.847066 0.586692 0.308137
O O10 0.761013 0.555763 0.456845
O O11 0.000000 0.520022 0.391008
O O12 0.000000 0.406816 0.976732
#
# Coordination Sequence:
#
# PCOD8298304 Si02
#       5
#    16  16  16   8  16
#     4  11  22  35  52  73 101 135 173 216 261 308
#     4   9  17  31  52  74  98 133 176 215 254 304
#     4  11  21  32  50  75 106 142 175 207 249 307
#     4  10  19  30  46  74 114 140 169 206 252 298
#     4   9  20  36  52  73 102 135 171 216 263 303
#
# _framework density 18.539232999999999
#
# number of rings (size 3 to 8) (size 9 to 14) (size 15 to 20)
#    0.000    2.000    1.111    3.000    0.000    6.222 
#    0.000    0.000    0.000    6.667    0.000    0.000 
#    0.000    0.000    0.000    0.000    0.000    0.222 
#
# Total GULP energy -446130.211193 kJ/mol
# GULP energy per Si atom -12392.505866 kJ/mol
# Density = 1.849704 g / cm^3
# Si number density = 18.539233 Si / 1000 Ang^3
#
#
#
# Elastic Constant Matrix: (Units=GPa)
#
#
# Indices 1 2 3 4 5 6 
#
# 1 88.8855 18.4633 44.0772 0.0000 0.0000 0.0000
# 2 18.4633 80.8712 45.1271 0.0000 0.0000 0.0000
# 3 44.0772 45.1271 137.1024 0.0001 0.0000 0.0000
# 4 0.0000 0.0000 0.0001 14.5634 0.0000 0.0000
# 5 0.0000 0.0000 0.0000 0.0000 28.6358 0.0000
# 6 0.0000 0.0000 0.0000 0.0000 0.0000 13.0945
#
#
#
# Elastic Compliance Matrix: (Units=1/GPa)
#
#
# Indices 1 2 3 4 5 6 
#
# 1 0.013427 -0.000804 -0.004052 0.000000 0.000000 0.000000
# 2 -0.000804 0.015196 -0.004743 0.000000 0.000000 0.000000
# 3 -0.004052 -0.004743 0.010158 0.000000 0.000000 0.000000
# 4 0.000000 0.000000 0.000000 0.068665 0.000000 0.000000
# 5 0.000000 0.000000 0.000000 0.000000 0.034921 0.000000
# 6 0.000000 0.000000 0.000000 0.000000 0.000000 0.076368
#
#
# Mechanical properties :
#
#
# Convention : Reuss Voigt Hill
#
# Bulk Modulus (GPa) = 51.06862 58.02159 54.54510
# Shear Modulus (GPa) = 20.45324 24.53818 22.49571
#
# Velocity S-wave (km/s) = 3.32511 3.64205 3.48718
# Velocity P-wave (km/s) = 6.50752 7.00362 6.76012
#
# Compressibility (1/GPa) = 0.01958150
#
# Stress axis : x y z
#
# Youngs Moduli (GPa) = 74.47815 65.80827 98.44854
#
# Poissons Ratio (x) = 0.05294 0.39889
# Poissons Ratio (y) = 0.05991 0.46694
# Poissons Ratio (z) = 0.30177 0.31213
#
# Static dielectric constant tensor:
#      x y z
#    x 3.255300 0.000000 0.000000 
#    y 0.000000 3.640650 0.000000 
#    z 0.000000 0.000000 3.594440 
# 
# 
# High freq. dielectric constant tensor:
#      x y z
#    x 1.702860 0.000000 0.000000 
#    y 0.000000 1.697730 0.000000 
#    z 0.000000 0.000000 1.723690 
# 
# From -- ./inp_files/29208.got.cif
#   From: 2010.03.12/outbox.cif.g09.slc.cpg/sg74_15_cif.got.tgz:29208.got - 2010.04.16 15:46:19.
