data_PCOD8298488
_publ_section_title
;
Structure prediction by ZEFSAII (Michael W. Deem and Ramdas Pophale) SiO2 
 PCOD8298488
Probable space group: I M M A
;
_chemical_formula_sum "Si O2"
_cell_formula_units_Z 128
_cell_length_a 17.300987
_cell_length_b 21.828850
_cell_length_c 18.638467
_cell_angle_alpha 90.000000
_cell_angle_beta 90.000000
_cell_angle_gamma 90.000000
_cell_volume 7039.015564
_symmetry_space_group_name_H-M "I M M A"
_symmetry_group_IT_number 74
_symmetry_cell_setting 'orthorhombic'
loop_
_space_group_symop_operation_xyz
x,y,z
-x,1/2-y,z
x,-y,-z
-x,1/2+y,-z
-x,-y,-z
x,1/2+y,-z
-x,y,z
x,1/2-y,z
1/2+x,1/2+y,1/2+z
1/2-x,-y,1/2+z
1/2+x,1/2-y,1/2-z
1/2-x,y,1/2-z
1/2-x,1/2-y,1/2-z
1/2+x,y,1/2-z
1/2-x,1/2+y,1/2+z
1/2+x,-y,1/2+z
loop_
_atom_site_type_symbol
_atom_site_label
_atom_site_fract_x
_atom_site_fract_y
_atom_site_fract_z
Si Si1 0.821541 0.819024 0.303278
Si Si2 0.222171 0.115273 0.908447
Si Si3 0.179106 0.494406 0.420830
Si Si4 0.591129 0.599772 0.300764
Si Si5 0.699422 0.392050 0.429970
Si Si6 0.587644 0.415393 0.176355
Si Si7 0.913464 0.961810 0.830576
Si Si8 0.215423 0.679593 0.675049
O O1 0.855794 0.750000 0.307509
O O2 0.750000 0.822333 0.250000
O O3 0.789967 0.838417 0.382186
O O4 0.886576 0.866901 0.274683
O O5 0.261343 0.048330 0.900396
O O6 0.144790 0.127880 0.862756
O O7 0.189536 0.127891 0.987799
O O8 0.140597 0.500000 0.500000
O O9 0.225061 0.432001 0.423582
O O10 0.114589 0.480331 0.360139
O O11 0.500000 0.610625 0.315278
O O12 0.614304 0.528237 0.302522
O O13 0.629811 0.432996 0.398821
O O14 0.716272 0.331390 0.383110
O O15 0.500000 0.403659 0.151911
O O16 0.594127 0.418362 0.262143
O O17 0.638268 0.357140 0.153508
O O18 0.000000 0.967604 0.858966
O O19 0.192185 0.750000 0.678209
O O20 0.250000 0.655786 0.750000
#
# Coordination Sequence:
#
# PCOD8298488 Si02
#       8
#    16  16  16  16  16  16  16  16
#     4   9  19  35  53  75 103 142 190 233 270 317
#     4  10  19  33  54  78 110 147 182 222 271 330
#     4   9  18  31  50  77 107 142 180 223 274 324
#     4  10  20  33  54  84 113 145 182 222 276 333
#     4  10  19  33  52  78 109 143 181 224 274 330
#     4  10  20  33  52  77 105 140 175 218 274 323
#     4  10  19  31  49  78 114 144 174 217 270 331
#     4  10  20  35  55  76 100 136 183 230 267 310
#
# _framework density 18.184360000000002
#
# number of rings (size 3 to 8) (size 9 to 14) (size 15 to 20)
#    0.000    2.250    2.500    0.750    0.000    1.750 
#    0.000    1.250    0.000    3.375    0.000    7.000 
#    0.000    0.000    0.000    0.000    0.000    0.000 
#
# Total GULP energy -792889.924936 kJ/mol
# GULP energy per Si atom -12388.905077 kJ/mol
# Density = 1.814297 g / cm^3
# Si number density = 18.184360 Si / 1000 Ang^3
#
#
#
# Elastic Constant Matrix: (Units=GPa)
#
#
# Indices 1 2 3 4 5 6 
#
# 1 94.5486 37.2296 46.6108 0.0000 0.0000 0.0000
# 2 37.2296 65.3534 31.5255 0.0001 0.0000 0.0000
# 3 46.6108 31.5255 105.4787 0.0001 0.0000 0.0000
# 4 0.0000 0.0001 0.0001 19.2179 0.0000 0.0000
# 5 0.0000 0.0000 0.0000 0.0000 19.4052 0.0000
# 6 0.0000 0.0000 0.0000 0.0000 0.0000 18.5597
#
#
#
# Elastic Compliance Matrix: (Units=1/GPa)
#
#
# Indices 1 2 3 4 5 6 
#
# 1 0.015565 -0.006484 -0.004940 0.000000 0.000000 0.000000
# 2 -0.006484 0.020580 -0.003286 0.000000 0.000000 0.000000
# 3 -0.004940 -0.003286 0.012646 0.000000 0.000000 0.000000
# 4 0.000000 0.000000 0.000000 0.052035 0.000000 0.000000
# 5 0.000000 0.000000 0.000000 0.000000 0.051533 0.000000
# 6 0.000000 0.000000 0.000000 0.000000 0.000000 0.053880
#
#
# Mechanical properties :
#
#
# Convention : Reuss Voigt Hill
#
# Bulk Modulus (GPa) = 51.62324 55.12360 53.37342
# Shear Modulus (GPa) = 20.65132 21.43755 21.04443
#
# Velocity S-wave (km/s) = 3.37362 3.43724 3.40558
# Velocity P-wave (km/s) = 6.60496 6.79208 6.69917
#
# Compressibility (1/GPa) = 0.01937112
#
# Stress axis : x y z
#
# Youngs Moduli (GPa) = 64.24621 48.59081 79.07792
#
# Poissons Ratio (x) = 0.31505 0.39067
# Poissons Ratio (y) = 0.41656 0.25983
# Poissons Ratio (z) = 0.31740 0.15966
#
# Static dielectric constant tensor:
#      x y z
#    x 3.257240 0.000000 0.000000 
#    y 0.000000 3.277760 0.000000 
#    z 0.000000 0.000000 3.780790 
# 
# 
# High freq. dielectric constant tensor:
#      x y z
#    x 1.689960 0.000000 0.000000 
#    y 0.000000 1.691370 0.000000 
#    z 0.000000 0.000000 1.701540 
# 
# From -- ./inp_files/44630.got.cif
#   From: 2010.03.12/outbox.cif.g09.slc.cpg/sg74_23_cif.got.tgz:44630.got - 2010.04.16 15:46:19.
