data_PCOD8298283
_publ_section_title
;
Structure prediction by ZEFSAII (Michael W. Deem and Ramdas Pophale) SiO2 
 PCOD8298283
Probable space group: I M M A
;
_chemical_formula_sum "Si O2"
_cell_formula_units_Z 80
_cell_length_a 17.797885
_cell_length_b 9.014819
_cell_length_c 28.259553
_cell_angle_alpha 90.000000
_cell_angle_beta 90.000000
_cell_angle_gamma 90.000000
_cell_volume 4534.095838
_symmetry_space_group_name_H-M "I M M A"
_symmetry_group_IT_number 74
_symmetry_cell_setting 'orthorhombic'
loop_
_space_group_symop_operation_xyz
x,y,z
-x,1/2-y,z
x,-y,-z
-x,1/2+y,-z
-x,-y,-z
x,1/2+y,-z
-x,y,z
x,1/2-y,z
1/2+x,1/2+y,1/2+z
1/2-x,-y,1/2+z
1/2+x,1/2-y,1/2-z
1/2-x,y,1/2-z
1/2-x,1/2-y,1/2-z
1/2+x,y,1/2-z
1/2-x,1/2+y,1/2+z
1/2+x,-y,1/2+z
loop_
_atom_site_type_symbol
_atom_site_label
_atom_site_fract_x
_atom_site_fract_y
_atom_site_fract_z
Si Si1 0.682733 0.584430 0.713175
Si Si2 0.915191 0.924756 0.284836
Si Si3 0.918917 0.075999 0.050557
Si Si4 0.785940 0.578963 0.353577
Si Si5 0.773653 0.422173 0.950578
O O1 0.656185 0.750000 0.700032
O O2 0.750000 0.585883 0.750000
O O3 0.612427 0.498621 0.736026
O O4 0.712953 0.506374 0.665989
O O5 0.910954 0.750000 0.277469
O O6 0.863494 0.976184 0.329327
O O7 0.000000 0.977168 0.295672
O O8 0.901784 0.250000 0.045443
O O9 0.000000 0.051789 0.076790
O O10 0.848084 0.993962 0.074272
O O11 0.924331 0.000000 0.000000
O O12 0.772843 0.750000 0.340914
O O13 0.790892 0.555752 0.410596
O O14 0.787817 0.250000 0.961331
O O15 0.750407 0.500000 0.000000
#
# Coordination Sequence:
#
# PCOD8298283 Si02
#       5
#    16  16  16  16  16
#     4   9  17  29  47  71  96 121 148 183 231 283
#     4   9  17  31  52  74  96 124 157 194 236 282
#     4   9  16  26  41  60  82 109 143 184 228 272
#     4   9  18  32  49  70  95 125 162 198 233 279
#     4  10  19  30  46  67  92 124 162 202 238 275
#
# _framework density 17.644089999999998
#
# number of rings (size 3 to 8) (size 9 to 14) (size 15 to 20)
#    0.000    2.800    0.000    3.000    0.000    5.600 
#    0.000    1.000    0.000    1.800    0.000    0.000 
#    0.000    0.000    0.000    0.000    0.000    0.800 
#
# Total GULP energy -495539.491732 kJ/mol
# GULP energy per Si atom -12388.487293 kJ/mol
# Density = 1.760393 g / cm^3
# Si number density = 17.644090 Si / 1000 Ang^3
#
#
#
# Elastic Constant Matrix: (Units=GPa)
#
#
# Indices 1 2 3 4 5 6 
#
# 1 102.7344 38.8679 49.8615 0.0000 0.0000 0.0000
# 2 38.8679 85.7467 36.2977 0.0000 0.0000 0.0000
# 3 49.8615 36.2977 89.5321 0.0000 0.0000 0.0000
# 4 0.0000 0.0000 0.0000 20.4021 0.0000 0.0000
# 5 0.0000 0.0000 0.0000 0.0000 20.0238 0.0000
# 6 0.0000 0.0000 0.0000 0.0000 0.0000 17.9215
#
#
#
# Elastic Compliance Matrix: (Units=1/GPa)
#
#
# Indices 1 2 3 4 5 6 
#
# 1 0.014272 -0.003748 -0.006429 0.000000 0.000000 0.000000
# 2 -0.003748 0.015063 -0.004019 0.000000 0.000000 0.000000
# 3 -0.006429 -0.004019 0.016379 0.000000 0.000000 0.000000
# 4 0.000000 0.000000 0.000000 0.049015 0.000000 0.000000
# 5 0.000000 0.000000 0.000000 0.000000 0.049941 0.000000
# 6 0.000000 0.000000 0.000000 0.000000 0.000000 0.055799
#
#
# Mechanical properties :
#
#
# Convention : Reuss Voigt Hill
#
# Bulk Modulus (GPa) = 57.73196 58.67417 58.20307
# Shear Modulus (GPa) = 21.30984 21.86855 21.58919
#
# Velocity S-wave (km/s) = 3.47906 3.52437 3.50178
# Velocity P-wave (km/s) = 6.99498 7.06315 7.02915
#
# Compressibility (1/GPa) = 0.01732143
#
# Stress axis : x y z
#
# Youngs Moduli (GPa) = 70.06744 66.38972 61.05408
#
# Poissons Ratio (x) = 0.24882 0.39250
# Poissons Ratio (y) = 0.26261 0.24540
# Poissons Ratio (z) = 0.45045 0.26684
#
# Static dielectric constant tensor:
#      x y z
#    x 3.637110 0.000000 0.000000 
#    y 0.000000 3.421590 0.000000 
#    z 0.000000 0.000000 2.959620 
# 
# 
# High freq. dielectric constant tensor:
#      x y z
#    x 1.661000 0.000000 0.000000 
#    y 0.000000 1.690620 0.000000 
#    z 0.000000 0.000000 1.660010 
# 
# From -- ./inp_files/67520.got.cif
#   From: 2010.03.12/outbox.cif.g09.slc.cpg/sg74_34_cif.got.tgz:67520.got - 2010.04.16 15:46:19.
