data_PCOD8298514
_publ_section_title
;
Structure prediction by ZEFSAII (Michael W. Deem and Ramdas Pophale) SiO2 
 PCOD8298514
Probable space group: I M M A
;
_chemical_formula_sum "Si O2"
_cell_formula_units_Z 96
_cell_length_a 9.380013
_cell_length_b 20.794414
_cell_length_c 24.700125
_cell_angle_alpha 90.000000
_cell_angle_beta 90.000000
_cell_angle_gamma 90.000000
_cell_volume 4817.805661
_symmetry_space_group_name_H-M "I M M A"
_symmetry_group_IT_number 74
_symmetry_cell_setting 'orthorhombic'
loop_
_space_group_symop_operation_xyz
x,y,z
-x,1/2-y,z
x,-y,-z
-x,1/2+y,-z
-x,-y,-z
x,1/2+y,-z
-x,y,z
x,1/2-y,z
1/2+x,1/2+y,1/2+z
1/2-x,-y,1/2+z
1/2+x,1/2-y,1/2-z
1/2-x,y,1/2-z
1/2-x,1/2-y,1/2-z
1/2+x,y,1/2-z
1/2-x,1/2+y,1/2+z
1/2+x,-y,1/2+z
loop_
_atom_site_type_symbol
_atom_site_label
_atom_site_fract_x
_atom_site_fract_y
_atom_site_fract_z
Si Si1 0.831660 0.176982 0.921453
Si Si2 0.339689 0.821035 0.796816
Si Si3 0.839026 0.576667 0.616712
Si Si4 0.659674 0.850146 0.300922
Si Si5 0.838761 0.497696 0.198587
Si Si6 0.666218 0.574769 0.003811
O O1 0.797796 0.250000 0.942557
O O2 0.780173 0.173925 0.858768
O O3 0.000000 0.162456 0.925017
O O4 0.752745 0.120994 0.955505
O O5 0.500000 0.819381 0.776038
O O6 0.278006 0.750000 0.806983
O O7 0.250000 0.856407 0.750000
O O8 0.322347 0.857008 0.852541
O O9 0.733117 0.524043 0.642103
O O10 0.801768 0.599014 0.556451
O O11 0.000000 0.548146 0.620005
O O12 0.500000 0.823858 0.292926
O O13 0.750000 0.823312 0.250000
O O14 0.661691 0.926414 0.301426
O O15 0.750000 0.471126 0.250000
O O16 0.000000 0.470788 0.202486
O O17 0.500000 0.578992 0.020375
O O18 0.715696 0.500000 0.000000
#
# Coordination Sequence:
#
# PCOD8298514 Si02
#       6
#    16  16  16  16  16  16
#     4  10  22  40  60  84 116 151 189 236 287 341
#     4   9  18  32  48  67  94 128 164 205 256 311
#     4  10  20  33  51  75 102 134 176 225 272 324
#     4   9  19  35  55  81 112 145 180 221 272 330
#     4  10  19  31  50  77 109 143 178 220 273 331
#     4  10  22  39  59  84 113 147 190 239 288 339
#
# _framework density 19.926082999999998
#
# number of rings (size 3 to 8) (size 9 to 14) (size 15 to 20)
#    0.000    2.333    0.000    2.000    0.000    5.667 
#    0.000    1.667    0.000    2.000    0.000    0.000 
#    0.000    0.000    0.000    0.000    0.000    0.000 
#
# Total GULP energy -594873.674272 kJ/mol
# GULP energy per Si atom -12393.201547 kJ/mol
# Density = 1.988073 g / cm^3
# Si number density = 19.926083 Si / 1000 Ang^3
#
#
#
# Elastic Constant Matrix: (Units=GPa)
#
#
# Indices 1 2 3 4 5 6 
#
# 1 95.6813 46.7619 66.7357 0.0000 0.0000 0.0000
# 2 46.7619 92.2160 54.9069 0.0000 0.0000 0.0000
# 3 66.7357 54.9069 149.9895 0.0000 0.0000 0.0000
# 4 0.0000 0.0000 0.0000 19.6626 0.0000 0.0000
# 5 0.0000 0.0000 0.0000 0.0000 35.6376 0.0000
# 6 0.0000 0.0000 0.0000 0.0000 0.0000 21.0974
#
#
#
# Elastic Compliance Matrix: (Units=1/GPa)
#
#
# Indices 1 2 3 4 5 6 
#
# 1 0.016928 -0.005242 -0.005613 0.000000 0.000000 0.000000
# 2 -0.005242 0.015490 -0.003338 0.000000 0.000000 0.000000
# 3 -0.005613 -0.003338 0.010387 0.000000 0.000000 0.000000
# 4 0.000000 0.000000 0.000000 0.050858 0.000000 0.000000
# 5 0.000000 0.000000 0.000000 0.000000 0.028060 0.000000
# 6 0.000000 0.000000 0.000000 0.000000 0.000000 0.047399
#
#
# Mechanical properties :
#
#
# Convention : Reuss Voigt Hill
#
# Bulk Modulus (GPa) = 69.35581 74.96621 72.16101
# Shear Modulus (GPa) = 24.71400 26.57832 25.64616
#
# Velocity S-wave (km/s) = 3.52559 3.65615 3.59146
# Velocity P-wave (km/s) = 7.17322 7.45165 7.31376
#
# Compressibility (1/GPa) = 0.01441840
#
# Stress axis : x y z
#
# Youngs Moduli (GPa) = 59.07278 64.55854 96.27878
#
# Poissons Ratio (x) = 0.33842 0.54041
# Poissons Ratio (y) = 0.30967 0.32138
# Poissons Ratio (z) = 0.33158 0.21550
#
# Static dielectric constant tensor:
#      x y z
#    x 3.738310 0.000000 0.000000 
#    y 0.000000 3.645730 0.000000 
#    z 0.000000 0.000000 4.249180 
# 
# 
# High freq. dielectric constant tensor:
#      x y z
#    x 1.766850 0.000000 0.000000 
#    y 0.000000 1.784730 0.000000 
#    z 0.000000 0.000000 1.778330 
# 
# From -- ./inp_files/57302.got.cif
#   From: 2010.03.12/outbox.cif.g09.slc.cpg/sg74_29_cif.got.tgz:57302.got - 2010.04.16 15:46:19.
