data_PCOD8298001
_publ_section_title
;
Structure prediction by ZEFSAII (Michael W. Deem and Ramdas Pophale) SiO2 
 PCOD8298001
Probable space group: I M M A
;
_chemical_formula_sum "Si O2"
_cell_formula_units_Z 80
_cell_length_a 23.260734
_cell_length_b 13.927161
_cell_length_c 11.922529
_cell_angle_alpha 90.000000
_cell_angle_beta 90.000000
_cell_angle_gamma 90.000000
_cell_volume 3862.374654
_symmetry_space_group_name_H-M "I M M A"
_symmetry_group_IT_number 74
_symmetry_cell_setting 'orthorhombic'
loop_
_space_group_symop_operation_xyz
x,y,z
-x,1/2-y,z
x,-y,-z
-x,1/2+y,-z
-x,-y,-z
x,1/2+y,-z
-x,y,z
x,1/2-y,z
1/2+x,1/2+y,1/2+z
1/2-x,-y,1/2+z
1/2+x,1/2-y,1/2-z
1/2-x,y,1/2-z
1/2-x,1/2-y,1/2-z
1/2+x,y,1/2-z
1/2-x,1/2+y,1/2+z
1/2+x,-y,1/2+z
loop_
_atom_site_type_symbol
_atom_site_label
_atom_site_fract_x
_atom_site_fract_y
_atom_site_fract_z
Si Si1 0.343711 0.637425 0.504744
Si Si2 0.121811 0.019266 0.379745
Si Si3 0.066179 0.861632 0.813820
Si Si4 0.232988 0.140795 0.378220
Si Si5 0.182949 0.862693 0.243499
O O1 0.340145 0.750000 0.520208
O O2 0.397747 0.600284 0.578240
O O3 0.285205 0.592394 0.553596
O O4 0.346661 0.609200 0.374844
O O5 0.079302 0.073527 0.294756
O O6 0.175592 0.085928 0.406783
O O7 0.090599 0.000000 0.500000
O O8 0.144593 0.918018 0.333203
O O9 0.080938 0.750000 0.786330
O O10 0.000000 0.873744 0.846468
O O11 0.222900 0.250000 0.416066
O O12 0.250000 0.133188 0.250000
O O13 0.178161 0.750000 0.268705
O O14 0.250000 0.894694 0.250000
#
# Coordination Sequence:
#
# PCOD8298001 Si02
#       5
#    16  16  16  16  16
#     4   9  18  36  61  86 116 154 196 247 306 366
#     4  12  24  36  57  88 122 160 204 244 299 368
#     4  10  22  42  66  90 117 154 204 260 310 355
#     4  10  18  32  56  87 120 150 191 246 307 371
#     4  10  22  39  57  85 125 162 193 236 301 368
#
# _framework density 20.712647
#
# number of rings (size 3 to 8) (size 9 to 14) (size 15 to 20)
#    0.000    1.800    2.000    2.400    0.000    4.400 
#    0.000    2.000    0.000    1.800    0.000    0.000 
#    0.000    0.000    0.000    0.000    0.000    0.000 
#
# Total GULP energy -495893.921480 kJ/mol
# GULP energy per Si atom -12397.348037 kJ/mol
# Density = 2.066550 g / cm^3
# Si number density = 20.712647 Si / 1000 Ang^3
#
#
#
# Elastic Constant Matrix: (Units=GPa)
#
#
# Indices 1 2 3 4 5 6 
#
# 1 77.5843 19.8510 38.5774 0.0000 0.0000 0.0000
# 2 19.8510 70.1265 33.8613 0.0000 0.0000 0.0000
# 3 38.5774 33.8613 134.9285 0.0000 0.0000 0.0000
# 4 0.0000 0.0000 0.0000 135.1288 0.0000 0.0000
# 5 0.0000 0.0000 0.0000 0.0000 17.8333 0.0000
# 6 0.0000 0.0000 0.0000 0.0000 0.0000 15.4387
#
#
#
# Elastic Compliance Matrix: (Units=1/GPa)
#
#
# Indices 1 2 3 4 5 6 
#
# 1 0.015414 -0.002544 -0.003769 0.000000 0.000000 0.000000
# 2 -0.002544 0.016646 -0.003450 0.000000 0.000000 0.000000
# 3 -0.003769 -0.003450 0.009355 0.000000 0.000000 0.000000
# 4 0.000000 0.000000 0.000000 0.007400 0.000000 0.000000
# 5 0.000000 0.000000 0.000000 0.000000 0.056075 0.000000
# 6 0.000000 0.000000 0.000000 0.000000 0.000000 0.064772
#
#
# Mechanical properties :
#
#
# Convention : Reuss Voigt Hill
#
# Bulk Modulus (GPa) = 45.68358 51.91320 48.79839
# Shear Modulus (GPa) = 25.44744 46.37013 35.90879
#
# Velocity S-wave (km/s) = 3.50893 4.73666 4.16825
# Velocity P-wave (km/s) = 6.20650 7.41839 6.83934
#
# Compressibility (1/GPa) = 0.02188970
#
# Stress axis : x y z
#
# Youngs Moduli (GPa) = 64.87648 60.07476 106.89832
#
# Poissons Ratio (x) = 0.15280 0.40286
# Poissons Ratio (y) = 0.16502 0.36882
# Poissons Ratio (z) = 0.24450 0.20727
#
# Static dielectric constant tensor:
#      x y z
#    x 3.502310 0.000000 0.000000 
#    y 0.000000 3.930250 0.000000 
#    z 0.000000 0.000000 3.828640 
# 
# 
# High freq. dielectric constant tensor:
#      x y z
#    x 1.776850 0.000000 0.000000 
#    y 0.000000 1.818920 0.000000 
#    z 0.000000 0.000000 1.819130 
# 
# From -- ./inp_files/20461.got.cif
#   From: 2010.03.12/outbox.cif.g09.slc.cpg/sg74_11_cif.got.tgz:20461.got - 2010.04.16 15:46:19.
