data_PCOD8298142
_publ_section_title
;
Structure prediction by ZEFSAII (Michael W. Deem and Ramdas Pophale) SiO2 
 PCOD8298142
Probable space group: I M M A
;
_chemical_formula_sum "Si O2"
_cell_formula_units_Z 96
_cell_length_a 28.693801
_cell_length_b 8.901765
_cell_length_c 26.270746
_cell_angle_alpha 90.000000
_cell_angle_beta 90.000000
_cell_angle_gamma 90.000000
_cell_volume 6710.217735
_symmetry_space_group_name_H-M "I M M A"
_symmetry_group_IT_number 74
_symmetry_cell_setting 'orthorhombic'
loop_
_space_group_symop_operation_xyz
x,y,z
-x,1/2-y,z
x,-y,-z
-x,1/2+y,-z
-x,-y,-z
x,1/2+y,-z
-x,y,z
x,1/2-y,z
1/2+x,1/2+y,1/2+z
1/2-x,-y,1/2+z
1/2+x,1/2-y,1/2-z
1/2-x,y,1/2-z
1/2-x,1/2-y,1/2-z
1/2+x,y,1/2-z
1/2-x,1/2+y,1/2+z
1/2+x,-y,1/2+z
loop_
_atom_site_type_symbol
_atom_site_label
_atom_site_fract_x
_atom_site_fract_y
_atom_site_fract_z
Si Si1 0.864599 0.422135 0.245651
Si Si2 0.223576 0.427741 0.297616
Si Si3 0.807654 0.077632 0.141411
Si Si4 0.947594 0.577613 0.203986
Si Si5 0.947091 0.424855 0.097051
Si Si6 0.639436 0.426875 0.551550
O O1 0.879991 0.250000 0.252534
O O2 0.831108 0.475044 0.293128
O O3 0.836910 0.444453 0.192905
O O4 0.910963 0.524308 0.246781
O O5 0.225373 0.250000 0.290579
O O6 0.250000 0.503349 0.250000
O O7 0.253021 0.469304 0.348495
O O8 0.811148 0.250000 0.122991
O O9 0.827075 0.970418 0.097928
O O10 0.938507 0.750000 0.189042
O O11 0.939115 0.476404 0.154661
O O12 0.000000 0.555610 0.225174
O O13 0.934424 0.250000 0.094206
O O14 0.913186 0.515177 0.059981
O O15 0.000000 0.456917 0.079652
O O16 0.659290 0.500000 0.500000
O O17 0.638525 0.250000 0.545451
#
# Coordination Sequence:
#
# PCOD8298142 Si02
#       6
#    16  16  16  16  16  16
#     4   9  15  25  44  64  82 105 133 162 195 238
#     4   7  12  23  41  64  83 102 126 155 195 239
#     4   9  16  29  46  62  82 103 128 163 201 242
#     4  10  19  28  39  58  84 111 136 165 203 241
#     4  10  20  34  49  61  74  97 131 170 212 253
#     4  12  24  35  47  61  79 102 132 167 209 251
#
# _framework density 14.30654
#
# number of rings (size 3 to 8) (size 9 to 14) (size 15 to 20)
#    0.000    2.500    1.667    4.500    0.000    2.333 
#    0.000    0.833    0.000    3.000    0.000    0.000 
#    0.000    0.000    0.000    0.000    0.000    0.833 
#
# Total GULP energy -594756.811202 kJ/mol
# GULP energy per Si atom -12390.766900 kJ/mol
# Density = 1.427398 g / cm^3
# Si number density = 14.306540 Si / 1000 Ang^3
#
#
#
# Elastic Constant Matrix: (Units=GPa)
#
#
# Indices 1 2 3 4 5 6 
#
# 1 80.7261 36.9705 38.6126 0.0000 0.0000 0.0000
# 2 36.9705 77.2876 26.7031 0.0000 0.0000 0.0000
# 3 38.6126 26.7031 38.3582 0.0000 0.0000 0.0000
# 4 0.0000 0.0000 0.0000 15.0654 0.0000 0.0000
# 5 0.0000 0.0000 0.0000 0.0000 15.5642 0.0000
# 6 0.0000 0.0000 0.0000 0.0000 0.0000 18.8457
#
#
#
# Elastic Compliance Matrix: (Units=1/GPa)
#
#
# Indices 1 2 3 4 5 6 
#
# 1 0.024923 -0.004284 -0.022106 0.000000 0.000000 0.000000
# 2 -0.004284 0.017773 -0.008060 0.000000 0.000000 0.000000
# 3 -0.022106 -0.008060 0.053934 0.000000 0.000000 0.000000
# 4 0.000000 0.000000 0.000000 0.066377 0.000000 0.000000
# 5 0.000000 0.000000 0.000000 0.000000 0.064250 0.000000
# 6 0.000000 0.000000 0.000000 0.000000 0.000000 0.053063
#
#
# Mechanical properties :
#
#
# Convention : Reuss Voigt Hill
#
# Bulk Modulus (GPa) = 36.06299 44.54935 40.30617
# Shear Modulus (GPa) = 13.94843 16.16744 15.05794
#
# Velocity S-wave (km/s) = 3.12584 3.36530 3.24778
# Velocity P-wave (km/s) = 6.18788 6.80493 6.50373
#
# Compressibility (1/GPa) = 0.02772926
#
# Stress axis : x y z
#
# Youngs Moduli (GPa) = 40.12285 56.26577 18.54131
#
# Poissons Ratio (x) = 0.24106 0.40988
# Poissons Ratio (y) = 0.17190 0.14944
# Poissons Ratio (z) = 0.88696 0.45349
#
# Static dielectric constant tensor:
#      x y z
#    x 3.121820 0.000000 0.000000 
#    y 0.000000 2.710760 0.000000 
#    z 0.000000 0.000000 2.534090 
# 
# 
# High freq. dielectric constant tensor:
#      x y z
#    x 1.546220 0.000000 0.000000 
#    y 0.000000 1.543600 0.000000 
#    z 0.000000 0.000000 1.491020 
# 
# From -- ./inp_files/64904.got.cif
#   From: 2010.03.12/outbox.cif.g09.slc.cpg/sg74_33_cif.got.tgz:64904.got - 2010.04.16 15:46:19.
