data_PCOD8298068
_publ_section_title
;
Structure prediction by ZEFSAII (Michael W. Deem and Ramdas Pophale) SiO2 
 PCOD8298068
Probable space group: I M M A
;
_chemical_formula_sum "Si O2"
_cell_formula_units_Z 104
_cell_length_a 9.604948
_cell_length_b 22.300205
_cell_length_c 25.746011
_cell_angle_alpha 90.000000
_cell_angle_beta 90.000000
_cell_angle_gamma 90.000000
_cell_volume 5514.597554
_symmetry_space_group_name_H-M "I M M A"
_symmetry_group_IT_number 74
_symmetry_cell_setting 'orthorhombic'
loop_
_space_group_symop_operation_xyz
x,y,z
-x,1/2-y,z
x,-y,-z
-x,1/2+y,-z
-x,-y,-z
x,1/2+y,-z
-x,y,z
x,1/2-y,z
1/2+x,1/2+y,1/2+z
1/2-x,-y,1/2+z
1/2+x,1/2-y,1/2-z
1/2-x,y,1/2-z
1/2-x,1/2-y,1/2-z
1/2+x,y,1/2-z
1/2-x,1/2+y,1/2+z
1/2+x,-y,1/2+z
loop_
_atom_site_type_symbol
_atom_site_label
_atom_site_fract_x
_atom_site_fract_y
_atom_site_fract_z
Si Si1 0.160770 0.318240 0.557753
Si Si2 0.766222 0.500000 0.500000
Si Si3 0.349983 0.882914 0.955698
Si Si4 0.339499 0.427021 0.595627
Si Si5 0.339080 0.001424 0.697920
Si Si6 0.340083 0.119281 0.363632
Si Si7 0.652740 0.318994 0.206296
O O1 0.209218 0.250000 0.569749
O O2 0.179110 0.329287 0.495996
O O3 0.252400 0.365943 0.589232
O O4 0.000000 0.327279 0.573790
O O5 0.867054 0.445376 0.485837
O O6 0.676078 0.523762 0.450503
O O7 0.500000 0.871357 0.927075
O O8 0.213789 0.894010 0.920988
O O9 0.500000 0.408442 0.597592
O O10 0.293023 0.454521 0.651247
O O11 0.500000 0.011276 0.712557
O O12 0.250000 0.012683 0.750000
O O13 0.315605 0.934785 0.675976
O O14 0.500000 0.139863 0.365440
O O15 0.237689 0.173465 0.346934
O O16 0.500000 0.350439 0.205384
O O17 0.629580 0.250000 0.218644
O O18 0.750000 0.349469 0.250000
#
# Coordination Sequence:
#
# PCOD8298068 Si02
#       7
#    16   8  16  16  16  16  16
#     4   9  20  38  57  81 114 149 186 230 282 341
#     4  10  18  34  56  82 114 146 182 228 280 334
#     4  10  20  33  53  80 111 147 185 224 271 330
#     4  10  20  35  58  85 114 148 187 232 284 340
#     4  10  22  38  54  81 115 149 187 233 283 336
#     4  11  22  36  53  78 111 147 187 231 281 332
#     4  10  21  37  55  74  98 134 182 233 281 327
#
# _framework density 18.859036
#
# number of rings (size 3 to 8) (size 9 to 14) (size 15 to 20)
#    0.000    2.000    1.538    1.846    0.000    8.000 
#    0.000    1.538    0.000    0.462    0.000    0.000 
#    0.000    0.000    0.000    0.000    0.000    0.000 
#
# Total GULP energy -644293.310669 kJ/mol
# GULP energy per Si atom -12390.255974 kJ/mol
# Density = 1.881611 g / cm^3
# Si number density = 18.859036 Si / 1000 Ang^3
#
#
#
# Elastic Constant Matrix: (Units=GPa)
#
#
# Indices 1 2 3 4 5 6 
#
# 1 142.0458 35.3874 59.7506 0.0000 0.0000 0.0000
# 2 35.3874 63.4003 25.1849 0.0000 0.0000 0.0000
# 3 59.7506 25.1849 104.5479 0.0000 0.0000 0.0000
# 4 0.0000 0.0000 0.0000 24.2162 0.0000 0.0000
# 5 0.0000 0.0000 0.0000 0.0000 32.9172 0.0000
# 6 0.0000 0.0000 0.0000 0.0000 0.0000 22.9797
#
#
#
# Elastic Compliance Matrix: (Units=1/GPa)
#
#
# Indices 1 2 3 4 5 6 
#
# 1 0.009979 -0.003654 -0.004823 0.000000 0.000000 0.000000
# 2 -0.003654 0.018780 -0.002436 0.000000 0.000000 0.000000
# 3 -0.004823 -0.002436 0.012908 0.000000 0.000000 0.000000
# 4 0.000000 0.000000 0.000000 0.041295 0.000000 0.000000
# 5 0.000000 0.000000 0.000000 0.000000 0.030379 0.000000
# 6 0.000000 0.000000 0.000000 0.000000 0.000000 0.043517
#
#
# Mechanical properties :
#
#
# Convention : Reuss Voigt Hill
#
# Bulk Modulus (GPa) = 50.39858 61.18220 55.79039
# Shear Modulus (GPa) = 26.98374 28.66734 27.82554
#
# Velocity S-wave (km/s) = 3.78671 3.90306 3.84532
# Velocity P-wave (km/s) = 6.77501 7.26802 7.02584
#
# Compressibility (1/GPa) = 0.01984183
#
# Stress axis : x y z
#
# Youngs Moduli (GPa) = 100.21004 53.24856 77.47080
#
# Poissons Ratio (x) = 0.19457 0.37364
# Poissons Ratio (y) = 0.36617 0.18869
# Poissons Ratio (z) = 0.48331 0.12969
#
# Static dielectric constant tensor:
#      x y z
#    x 3.562380 0.000000 0.000000 
#    y 0.000000 3.332870 0.000000 
#    z 0.000000 0.000000 3.445210 
# 
# 
# High freq. dielectric constant tensor:
#      x y z
#    x 1.743180 0.000000 0.000000 
#    y 0.000000 1.716890 0.000000 
#    z 0.000000 0.000000 1.718950 
# 
# From -- ./inp_files/70802.got.cif
#   From: 2010.03.12/outbox.cif.g09.slc.cpg/sg74_36_cif.got.tgz:70802.got - 2010.04.16 15:46:19.
