data_PCOD8298687
_publ_section_title
;
Structure prediction by ZEFSAII (Michael W. Deem and Ramdas Pophale) SiO2 
 PCOD8298687
Probable space group: I M M A
;
_chemical_formula_sum "Si O2"
_cell_formula_units_Z 104
_cell_length_a 20.477893
_cell_length_b 8.789527
_cell_length_c 29.786445
_cell_angle_alpha 90.000000
_cell_angle_beta 90.000000
_cell_angle_gamma 90.000000
_cell_volume 5361.291826
_symmetry_space_group_name_H-M "I M M A"
_symmetry_group_IT_number 74
_symmetry_cell_setting 'orthorhombic'
loop_
_space_group_symop_operation_xyz
x,y,z
-x,1/2-y,z
x,-y,-z
-x,1/2+y,-z
-x,-y,-z
x,1/2+y,-z
-x,y,z
x,1/2-y,z
1/2+x,1/2+y,1/2+z
1/2-x,-y,1/2+z
1/2+x,1/2-y,1/2-z
1/2-x,y,1/2-z
1/2-x,1/2-y,1/2-z
1/2+x,y,1/2-z
1/2-x,1/2+y,1/2+z
1/2+x,-y,1/2+z
loop_
_atom_site_type_symbol
_atom_site_label
_atom_site_fract_x
_atom_site_fract_y
_atom_site_fract_z
Si Si1 0.174857 0.070061 0.204651
Si Si2 0.180276 0.069784 0.304446
Si Si3 0.425714 0.926099 0.361629
Si Si4 0.000000 0.930978 0.449610
Si Si5 0.275886 0.928533 0.046152
Si Si6 0.619500 0.429758 0.105050
Si Si7 0.376178 0.074455 0.545164
O O1 0.176278 0.250000 0.204381
O O2 0.157826 0.012977 0.255255
O O3 0.245522 0.007336 0.188044
O O4 0.118135 0.014412 0.173020
O O5 0.183899 0.250000 0.306245
O O6 0.128000 0.017866 0.342663
O O7 0.500000 0.952285 0.347409
O O8 0.405536 0.750000 0.360623
O O9 0.414269 0.991148 0.411768
O O10 0.000000 0.750000 0.454688
O O11 0.000000 0.000000 0.500000
O O12 0.062587 0.981625 0.420816
O O13 0.293165 0.750000 0.048057
O O14 0.199804 0.960855 0.052228
O O15 0.311217 0.023253 0.084647
O O16 0.301881 0.000000 0.000000
O O17 0.606499 0.250000 0.100534
O O18 0.390495 0.250000 0.539487
O O19 0.403709 0.000000 0.500000
#
# Coordination Sequence:
#
# PCOD8298687 Si02
#       7
#    16  16  16   8  16  16  16
#     4   9  17  35  60  85 109 139 181 224 266 320
#     4   8  17  34  59  86 111 136 171 225 279 319
#     4  10  21  36  51  73 110 149 179 215 268 318
#     4  12  26  44  60  78 108 148 190 232 275 332
#     4  10  19  32  51  77 106 136 175 221 269 320
#     4  11  21  36  57  82 109 142 179 221 276 329
#     4   9  19  34  52  75 105 141 180 224 270 315
#
# _framework density 19.398309999999999
#
# number of rings (size 3 to 8) (size 9 to 14) (size 15 to 20)
#    0.000    2.308    0.000    3.923    0.000    1.846 
#    1.385    3.846    0.000    0.000    0.000    0.000 
#    0.000    0.000    0.000    0.000    0.000    0.000 
#
# Total GULP energy -644546.619259 kJ/mol
# GULP energy per Si atom -12395.127293 kJ/mol
# Density = 1.935416 g / cm^3
# Si number density = 19.398310 Si / 1000 Ang^3
#
#
#
# Elastic Constant Matrix: (Units=GPa)
#
#
# Indices 1 2 3 4 5 6 
#
# 1 59.9748 23.5241 54.3365 0.0000 0.0000 0.0000
# 2 23.5241 48.5171 31.2045 0.0000 0.0000 0.0000
# 3 54.3365 31.2045 142.1775 0.0000 0.0000 0.0000
# 4 0.0000 0.0000 0.0000 27.0302 0.0000 0.0000
# 5 0.0000 0.0000 0.0000 0.0000 19.2524 0.0000
# 6 0.0000 0.0000 0.0000 0.0000 0.0000 23.7721
#
#
#
# Elastic Compliance Matrix: (Units=1/GPa)
#
#
# Indices 1 2 3 4 5 6 
#
# 1 0.027793 -0.007736 -0.008924 0.000000 0.000000 0.000000
# 2 -0.007736 0.026152 -0.002783 0.000000 0.000000 0.000000
# 3 -0.008924 -0.002783 0.011055 0.000000 0.000000 0.000000
# 4 0.000000 0.000000 0.000000 0.036996 0.000000 0.000000
# 5 0.000000 0.000000 0.000000 0.000000 0.051942 0.000000
# 6 0.000000 0.000000 0.000000 0.000000 0.000000 0.042066
#
#
# Mechanical properties :
#
#
# Convention : Reuss Voigt Hill
#
# Bulk Modulus (GPa) = 38.29440 52.08888 45.19164
# Shear Modulus (GPa) = 20.52593 23.45125 21.98859
#
# Velocity S-wave (km/s) = 3.25642 3.48074 3.37045
# Velocity P-wave (km/s) = 5.82434 6.56237 6.20434
#
# Compressibility (1/GPa) = 0.02611348
#
# Stress axis : x y z
#
# Youngs Moduli (GPa) = 35.98035 38.23744 90.45884
#
# Poissons Ratio (x) = 0.29582 0.80724
# Poissons Ratio (y) = 0.27835 0.25177
# Poissons Ratio (z) = 0.32108 0.10642
#
# Static dielectric constant tensor:
#      x y z
#    x 3.467820 0.000000 0.000000 
#    y 0.000000 3.353040 0.000000 
#    z 0.000000 0.000000 4.121660 
# 
# 
# High freq. dielectric constant tensor:
#      x y z
#    x 1.747500 0.000000 0.000000 
#    y 0.000000 1.736030 0.000000 
#    z 0.000000 0.000000 1.770630 
# 
# From -- ./inp_files/68208.got.cif
#   From: 2010.03.12/outbox.cif.g09.slc.cpg/sg74_35_cif.got.tgz:68208.got - 2010.04.16 15:46:19.
