data_PCOD8298885
_publ_section_title
;
Structure prediction by ZEFSAII (Michael W. Deem and Ramdas Pophale) SiO2 
 PCOD8298885
Probable space group: I M M A
;
_chemical_formula_sum "Si O2"
_cell_formula_units_Z 96
_cell_length_a 17.960688
_cell_length_b 18.584002
_cell_length_c 15.405038
_cell_angle_alpha 90.000000
_cell_angle_beta 90.000000
_cell_angle_gamma 90.000000
_cell_volume 5141.916101
_symmetry_space_group_name_H-M "I M M A"
_symmetry_group_IT_number 74
_symmetry_cell_setting 'orthorhombic'
loop_
_space_group_symop_operation_xyz
x,y,z
-x,1/2-y,z
x,-y,-z
-x,1/2+y,-z
-x,-y,-z
x,1/2+y,-z
-x,y,z
x,1/2-y,z
1/2+x,1/2+y,1/2+z
1/2-x,-y,1/2+z
1/2+x,1/2-y,1/2-z
1/2-x,y,1/2-z
1/2-x,1/2-y,1/2-z
1/2+x,y,1/2-z
1/2-x,1/2+y,1/2+z
1/2+x,-y,1/2+z
loop_
_atom_site_type_symbol
_atom_site_label
_atom_site_fract_x
_atom_site_fract_y
_atom_site_fract_z
Si Si1 0.580480 0.632865 0.371663
Si Si2 0.085034 0.510938 0.268254
Si Si3 0.292812 0.528849 0.094720
Si Si4 0.582104 0.333310 0.439118
Si Si5 0.309262 0.091045 0.315496
Si Si6 0.265213 0.828158 0.346057
O O1 0.500000 0.667755 0.348570
O O2 0.591244 0.560313 0.316954
O O3 0.583948 0.616803 0.474988
O O4 0.646586 0.687118 0.349872
O O5 0.131637 0.539841 0.350416
O O6 0.120672 0.435445 0.240888
O O7 0.000000 0.500754 0.298233
O O8 0.233103 0.475853 0.139065
O O9 0.258677 0.609695 0.086450
O O10 0.313819 0.500000 0.000000
O O11 0.500000 0.344896 0.394314
O O12 0.591189 0.250000 0.465993
O O13 0.654145 0.352727 0.381519
O O14 0.250000 0.129345 0.250000
O O15 0.226352 0.750000 0.363830
O O16 0.250000 0.857759 0.250000
#
# Coordination Sequence:
#
# PCOD8298885 Si02
#       6
#    16  16  16  16  16  16
#     4  10  19  33  53  76 108 141 176 220 269 336
#     4  10  20  35  55  79 107 143 189 230 281 338
#     4  11  21  36  55  80 110 143 189 238 278 332
#     4  10  21  35  53  83 118 150 185 227 281 337
#     4  10  20  35  56  80 109 143 186 232 277 330
#     4  11  20  34  54  78 112 148 184 227 284 344
#
# _framework density 18.670083000000002
#
# number of rings (size 3 to 8) (size 9 to 14) (size 15 to 20)
#    0.000    1.667    3.333    2.500    0.000    1.667 
#    0.000    2.500    0.000    1.500    0.000    0.000 
#    0.000    0.000    0.000    0.000    0.000    0.000 
#
# Total GULP energy -594642.941082 kJ/mol
# GULP energy per Si atom -12388.394606 kJ/mol
# Density = 1.862759 g / cm^3
# Si number density = 18.670083 Si / 1000 Ang^3
#
#
#
# Elastic Constant Matrix: (Units=GPa)
#
#
# Indices 1 2 3 4 5 6 
#
# 1 142.1830 39.2687 60.4929 0.0000 0.0000 0.0000
# 2 39.2687 69.9685 41.6197 0.0000 0.0000 0.0000
# 3 60.4929 41.6197 103.6621 0.0000 0.0000 0.0000
# 4 0.0000 0.0000 0.0000 8.2374 0.0000 0.0000
# 5 0.0000 0.0000 0.0000 0.0000 33.7755 0.0000
# 6 0.0000 0.0000 0.0000 0.0000 0.0000 16.6654
#
#
#
# Elastic Compliance Matrix: (Units=1/GPa)
#
#
# Indices 1 2 3 4 5 6 
#
# 1 0.009740 -0.002740 -0.004584 0.000000 0.000000 0.000000
# 2 -0.002740 0.019547 -0.006249 0.000000 0.000000 0.000000
# 3 -0.004584 -0.006249 0.014831 0.000000 0.000000 0.000000
# 4 0.000000 0.000000 0.000000 0.121397 0.000000 0.000000
# 5 0.000000 0.000000 0.000000 0.000000 0.029607 0.000000
# 6 0.000000 0.000000 0.000000 0.000000 0.000000 0.060005
#
#
# Mechanical properties :
#
#
# Convention : Reuss Voigt Hill
#
# Bulk Modulus (GPa) = 58.92032 66.50849 62.71440
# Shear Modulus (GPa) = 17.36531 23.36448 20.36490
#
# Velocity S-wave (km/s) = 3.05309 3.54141 3.30627
# Velocity P-wave (km/s) = 6.63744 7.24033 6.94543
#
# Compressibility (1/GPa) = 0.01697207
#
# Stress axis : x y z
#
# Youngs Moduli (GPa) = 102.66780 51.15857 67.42759
#
# Poissons Ratio (x) = 0.14017 0.30908
# Poissons Ratio (y) = 0.28129 0.42137
# Poissons Ratio (z) = 0.47062 0.31970
#
# Static dielectric constant tensor:
#      x y z
#    x 3.754890 0.000000 0.000000 
#    y 0.000000 3.103820 0.000000 
#    z 0.000000 0.000000 3.348930 
# 
# 
# High freq. dielectric constant tensor:
#      x y z
#    x 1.737580 0.000000 0.000000 
#    y 0.000000 1.702490 0.000000 
#    z 0.000000 0.000000 1.706210 
# 
# From -- ./inp_files/44134.got.cif
#   From: 2010.03.12/outbox.cif.g09.slc.cpg/sg74_23_cif.got.tgz:44134.got - 2010.04.16 15:46:19.
