data_PCOD8298782
_publ_section_title
;
Structure prediction by ZEFSAII (Michael W. Deem and Ramdas Pophale) SiO2 
 PCOD8298782
Probable space group: I M M A
;
_chemical_formula_sum "Si O2"
_cell_formula_units_Z 96
_cell_length_a 14.207825
_cell_length_b 25.963292
_cell_length_c 13.235908
_cell_angle_alpha 90.000000
_cell_angle_beta 90.000000
_cell_angle_gamma 90.000000
_cell_volume 4882.487013
_symmetry_space_group_name_H-M "I M M A"
_symmetry_group_IT_number 74
_symmetry_cell_setting 'orthorhombic'
loop_
_space_group_symop_operation_xyz
x,y,z
-x,1/2-y,z
x,-y,-z
-x,1/2+y,-z
-x,-y,-z
x,1/2+y,-z
-x,y,z
x,1/2-y,z
1/2+x,1/2+y,1/2+z
1/2-x,-y,1/2+z
1/2+x,1/2-y,1/2-z
1/2-x,y,1/2-z
1/2-x,1/2-y,1/2-z
1/2+x,y,1/2-z
1/2-x,1/2+y,1/2+z
1/2+x,-y,1/2+z
loop_
_atom_site_type_symbol
_atom_site_label
_atom_site_fract_x
_atom_site_fract_y
_atom_site_fract_z
Si Si1 0.100640 0.337159 0.381418
Si Si2 0.860943 0.250000 0.236427
Si Si3 0.285583 0.650194 0.522530
Si Si4 0.611228 0.984066 0.243717
Si Si5 0.766020 0.957202 0.085586
Si Si6 0.893361 0.250000 0.001910
Si Si7 0.893023 0.597307 0.797466
O O1 0.092488 0.298725 0.287885
O O2 0.184272 0.323402 0.456936
O O3 0.118146 0.390437 0.322084
O O4 0.000000 0.337660 0.440079
O O5 0.750000 0.250000 0.250000
O O6 0.890889 0.250000 0.121599
O O7 0.262519 0.600175 0.457925
O O8 0.344083 0.695935 0.466327
O O9 0.331088 0.633055 0.629118
O O10 0.500000 0.977433 0.222981
O O11 0.667368 0.972189 0.140141
O O12 0.649204 0.948483 0.334203
O O13 0.639276 0.038421 0.295134
O O14 0.788165 0.000000 0.000000
O O15 0.000000 0.250000 0.960493
O O16 0.000000 0.602432 0.835960
#
# Coordination Sequence:
#
# PCOD8298782 Si02
#       7
#    16   8  16  16  16   8  16
#     4  11  21  31  49  78 114 159 201 235 283 355
#     4  12  18  33  51  74 115 157 195 239 299 357
#     4  12  22  36  57  84 121 160 203 248 301 362
#     4  10  23  41  61  88 121 159 205 256 314 374
#     4  11  23  39  63  91 124 162 204 256 313 370
#     4  12  24  37  54  84 122 161 205 255 306 365
#     4  10  19  32  54  81 113 153 194 239 294 359
#
# _framework density 19.662109999999998
#
# number of rings (size 3 to 8) (size 9 to 14) (size 15 to 20)
#    0.000    1.000    5.000    2.750    2.333    2.667 
#    0.000    0.000    0.000    2.000    0.000    1.167 
#    0.000    0.000    0.000    0.000    0.000    0.000 
#
# Total GULP energy -594678.886823 kJ/mol
# GULP energy per Si atom -12389.143475 kJ/mol
# Density = 1.961736 g / cm^3
# Si number density = 19.662110 Si / 1000 Ang^3
#
#
#
# Elastic Constant Matrix: (Units=GPa)
#
#
# Indices 1 2 3 4 5 6 
#
# 1 146.0593 33.6328 26.7576 0.0000 0.0000 0.0000
# 2 33.6328 90.0249 20.1720 0.0001 0.0000 0.0000
# 3 26.7576 20.1720 50.6312 0.0000 0.0000 0.0000
# 4 0.0000 0.0001 0.0000 18.2000 0.0000 0.0000
# 5 0.0000 0.0000 0.0000 0.0000 13.3618 0.0000
# 6 0.0000 0.0000 0.0000 0.0000 0.0000 29.8321
#
#
#
# Elastic Compliance Matrix: (Units=1/GPa)
#
#
# Indices 1 2 3 4 5 6 
#
# 1 0.007969 -0.002233 -0.003322 0.000000 0.000000 0.000000
# 2 -0.002233 0.012823 -0.003929 0.000000 0.000000 0.000000
# 3 -0.003322 -0.003929 0.023071 0.000000 0.000000 0.000000
# 4 0.000000 0.000000 0.000000 0.054945 0.000000 0.000000
# 5 0.000000 0.000000 0.000000 0.000000 0.074840 0.000000
# 6 0.000000 0.000000 0.000000 0.000000 0.000000 0.033521
#
#
# Mechanical properties :
#
#
# Convention : Reuss Voigt Hill
#
# Bulk Modulus (GPa) = 40.16662 49.76001 44.96331
# Shear Modulus (GPa) = 21.32785 26.02231 23.67508
#
# Velocity S-wave (km/s) = 3.29708 3.64191 3.47377
# Velocity P-wave (km/s) = 5.91330 6.56103 6.24557
#
# Compressibility (1/GPa) = 0.02489630
#
# Stress axis : x y z
#
# Youngs Moduli (GPa) = 125.48187 77.98777 43.34364
#
# Poissons Ratio (x) = 0.17414 0.14399
# Poissons Ratio (y) = 0.28019 0.17028
# Poissons Ratio (z) = 0.41685 0.30638
#
# Static dielectric constant tensor:
#      x y z
#    x 4.286090 0.000000 0.000000 
#    y 0.000000 3.768600 0.000000 
#    z 0.000000 0.000000 3.156260 
# 
# 
# High freq. dielectric constant tensor:
#      x y z
#    x 1.785900 0.000000 0.000000 
#    y 0.000000 1.773640 0.000000 
#    z 0.000000 0.000000 1.708340 
# 
# From -- ./inp_files/32855.got.cif
#   From: 2010.03.12/outbox.cif.g09.slc.cpg/sg74_17_cif.got.tgz:32855.got - 2010.04.16 15:46:19.
