data_PCOD8298815
_publ_section_title
;
Structure prediction by ZEFSAII (Michael W. Deem and Ramdas Pophale) SiO2 
 PCOD8298815
Probable space group: I M M A
;
_chemical_formula_sum "Si O2"
_cell_formula_units_Z 104
_cell_length_a 27.877268
_cell_length_b 8.830383
_cell_length_c 20.955125
_cell_angle_alpha 90.000000
_cell_angle_beta 90.000000
_cell_angle_gamma 90.000000
_cell_volume 5158.459280
_symmetry_space_group_name_H-M "I M M A"
_symmetry_group_IT_number 74
_symmetry_cell_setting 'orthorhombic'
loop_
_space_group_symop_operation_xyz
x,y,z
-x,1/2-y,z
x,-y,-z
-x,1/2+y,-z
-x,-y,-z
x,1/2+y,-z
-x,y,z
x,1/2-y,z
1/2+x,1/2+y,1/2+z
1/2-x,-y,1/2+z
1/2+x,1/2-y,1/2-z
1/2-x,y,1/2-z
1/2-x,1/2-y,1/2-z
1/2+x,y,1/2-z
1/2-x,1/2+y,1/2+z
1/2+x,-y,1/2+z
loop_
_atom_site_type_symbol
_atom_site_label
_atom_site_fract_x
_atom_site_fract_y
_atom_site_fract_z
Si Si1 0.863161 0.070243 0.660125
Si Si2 0.866732 0.568584 0.798823
Si Si3 0.446103 0.072462 0.934458
Si Si4 0.306391 0.919117 0.402840
Si Si5 0.116484 0.500000 0.000000
Si Si6 0.709622 0.569959 0.935048
Si Si7 0.052118 0.918208 0.888672
O O1 0.857739 0.250000 0.667097
O O2 0.911204 0.022951 0.622446
O O3 0.866662 0.991945 0.727919
O O4 0.817097 0.002351 0.625037
O O5 0.862346 0.750000 0.800878
O O6 0.822165 0.497222 0.836854
O O7 0.915233 0.506885 0.833353
O O8 0.500000 0.016246 0.917888
O O9 0.444758 0.250000 0.944712
O O10 0.427524 0.000000 0.000000
O O11 0.286962 0.750000 0.388817
O O12 0.349728 0.901412 0.453669
O O13 0.265252 0.024881 0.431819
O O14 0.081022 0.595610 0.955120
O O15 0.703868 0.750000 0.935819
O O16 0.687456 0.500000 0.000000
O O17 0.041443 0.750000 0.865830
O O18 0.000000 0.002549 0.895440
#
# Coordination Sequence:
#
# PCOD8298815 Si02
#       7
#    16  16  16  16   8  16  16
#     4  11  23  40  61  86 119 156 197 245 298 354
#     4  10  22  39  58  83 117 158 203 248 298 355
#     4   9  19  36  59  87 117 150 189 236 290 350
#     4  11  22  38  61  87 118 156 201 247 298 355
#     4  10  19  32  58  86 122 156 203 248 302 352
#     4  12  25  41  63  91 122 154 194 243 297 355
#     4   9  18  33  54  83 119 158 201 249 299 353
#
# _framework density 20.161057
#
# number of rings (size 3 to 8) (size 9 to 14) (size 15 to 20)
#    0.000    1.692    0.769    3.923    0.000    4.923 
#    0.000    3.077    0.000    8.769    0.000    0.000 
#    0.000    0.000    0.000    0.000    0.000    0.000 
#
# Total GULP energy -644605.115921 kJ/mol
# GULP energy per Si atom -12396.252229 kJ/mol
# Density = 2.011517 g / cm^3
# Si number density = 20.161057 Si / 1000 Ang^3
#
#
#
# Elastic Constant Matrix: (Units=GPa)
#
#
# Indices 1 2 3 4 5 6 
#
# 1 83.1614 10.5216 44.5494 0.0000 0.0000 0.0000
# 2 10.5216 75.3664 27.3458 0.0000 0.0000 0.0000
# 3 44.5494 27.3458 153.9621 0.0000 0.0000 0.0000
# 4 0.0000 0.0000 0.0000 33.0000 0.0000 0.0000
# 5 0.0000 0.0000 0.0000 0.0000 24.2694 0.0000
# 6 0.0000 0.0000 0.0000 0.0000 0.0000 22.5155
#
#
#
# Elastic Compliance Matrix: (Units=1/GPa)
#
#
# Indices 1 2 3 4 5 6 
#
# 1 0.014250 -0.000527 -0.004030 0.000000 0.000000 0.000000
# 2 -0.000527 0.014202 -0.002370 0.000000 0.000000 0.000000
# 3 -0.004030 -0.002370 0.008082 0.000000 0.000000 0.000000
# 4 0.000000 0.000000 0.000000 0.030303 0.000000 0.000000
# 5 0.000000 0.000000 0.000000 0.000000 0.041204 0.000000
# 6 0.000000 0.000000 0.000000 0.000000 0.000000 0.044414
#
#
# Mechanical properties :
#
#
# Convention : Reuss Voigt Hill
#
# Bulk Modulus (GPa) = 44.09075 53.03596 48.56336
# Shear Modulus (GPa) = 28.75724 31.29519 30.02621
#
# Velocity S-wave (km/s) = 3.78084 3.94415 3.86335
# Velocity P-wave (km/s) = 6.40128 6.86331 6.63631
#
# Compressibility (1/GPa) = 0.02268049
#
# Stress axis : x y z
#
# Youngs Moduli (GPa) = 70.17441 70.41258 123.73129
#
# Poissons Ratio (x) = 0.03713 0.49860
# Poissons Ratio (y) = 0.03700 0.29323
# Poissons Ratio (z) = 0.28278 0.16687
#
# Static dielectric constant tensor:
#      x y z
#    x 4.033250 0.000000 0.000000 
#    y 0.000000 3.502640 0.000000 
#    z 0.000000 0.000000 3.689900 
# 
# 
# High freq. dielectric constant tensor:
#      x y z
#    x 1.796690 0.000000 0.000000 
#    y 0.000000 1.778050 0.000000 
#    z 0.000000 0.000000 1.788540 
# 
# From -- ./inp_files/55261.got.cif
#   From: 2010.03.12/outbox.cif.g09.slc.cpg/sg74_28_cif.got.tgz:55261.got - 2010.04.16 15:46:19.
