data_PCOD8298334
_publ_section_title
;
Structure prediction by ZEFSAII (Michael W. Deem and Ramdas Pophale) SiO2 
 PCOD8298334
Probable space group: I M M A
;
_chemical_formula_sum "Si O2"
_cell_formula_units_Z 112
_cell_length_a 14.078798
_cell_length_b 14.452866
_cell_length_c 26.006481
_cell_angle_alpha 90.000000
_cell_angle_beta 90.000000
_cell_angle_gamma 90.000000
_cell_volume 5291.772252
_symmetry_space_group_name_H-M "I M M A"
_symmetry_group_IT_number 74
_symmetry_cell_setting 'orthorhombic'
loop_
_space_group_symop_operation_xyz
x,y,z
-x,1/2-y,z
x,-y,-z
-x,1/2+y,-z
-x,-y,-z
x,1/2+y,-z
-x,y,z
x,1/2-y,z
1/2+x,1/2+y,1/2+z
1/2-x,-y,1/2+z
1/2+x,1/2-y,1/2-z
1/2-x,y,1/2-z
1/2-x,1/2-y,1/2-z
1/2+x,y,1/2-z
1/2-x,1/2+y,1/2+z
1/2+x,-y,1/2+z
loop_
_atom_site_type_symbol
_atom_site_label
_atom_site_fract_x
_atom_site_fract_y
_atom_site_fract_z
Si Si1 0.105215 0.358396 0.464056
Si Si2 0.389621 0.355387 0.619902
Si Si3 0.107006 0.146954 0.249222
Si Si4 0.395121 0.444033 0.147023
Si Si5 0.891153 0.140816 0.083902
Si Si6 0.304255 0.517526 0.670652
Si Si7 0.209595 0.640759 0.018009
O O1 0.118340 0.250000 0.454747
O O2 0.123324 0.405239 0.409526
O O3 0.181889 0.392353 0.506615
O O4 0.000000 0.381861 0.485496
O O5 0.500000 0.361408 0.605728
O O6 0.361561 0.250000 0.633880
O O7 0.364318 0.422184 0.667616
O O8 0.329380 0.397735 0.572042
O O9 0.143618 0.250000 0.235051
O O10 0.107190 0.138379 0.311058
O O11 0.174464 0.068369 0.224562
O O12 0.000000 0.133736 0.227572
O O13 0.500000 0.493163 0.149443
O O14 0.307237 0.510409 0.163145
O O15 0.875094 0.250000 0.089563
O O16 0.831038 0.091321 0.127321
O O17 0.000000 0.112351 0.090152
O O18 0.856092 0.105279 0.028349
O O19 0.202018 0.750000 0.022277
#
# Coordination Sequence:
#
# PCOD8298334 Si02
#       7
#    16  16  16  16  16  16  16
#     4   9  16  29  51  78 110 151 195 231 266 320
#     4  10  22  40  60  81 108 145 190 240 292 340
#     4  10  21  36  57  88 124 158 188 222 272 338
#     4  10  21  36  53  78 115 154 189 225 271 334
#     4  10  19  30  47  75 111 145 177 220 274 333
#     4  12  22  35  56  82 113 148 193 234 279 332
#     4   9  17  32  52  75 107 146 186 229 278 331
#
# _framework density 21.164932
#
# number of rings (size 3 to 8) (size 9 to 14) (size 15 to 20)
#    0.000    2.000    1.429    3.000    0.000    7.429 
#    0.000    2.143    0.000    4.714    0.000    2.000 
#    0.000    0.000    0.000    0.000    0.000    0.000 
#
# Total GULP energy -694057.507097 kJ/mol
# GULP energy per Si atom -12393.884055 kJ/mol
# Density = 2.111676 g / cm^3
# Si number density = 21.164932 Si / 1000 Ang^3
#
#
#
# Elastic Constant Matrix: (Units=GPa)
#
#
# Indices 1 2 3 4 5 6 
#
# 1 142.1106 23.1675 22.3168 0.0000 0.0000 0.0000
# 2 23.1675 61.1936 23.9056 0.0000 0.0000 0.0000
# 3 22.3168 23.9056 57.8685 0.0000 0.0000 0.0000
# 4 0.0000 0.0000 0.0000 14.6918 0.0000 0.0000
# 5 0.0000 0.0000 0.0000 0.0000 30.3038 0.0000
# 6 0.0000 0.0000 0.0000 0.0000 0.0000 18.3939
#
#
#
# Elastic Compliance Matrix: (Units=1/GPa)
#
#
# Indices 1 2 3 4 5 6 
#
# 1 0.007709 -0.002095 -0.002107 0.000000 0.000000 0.000000
# 2 -0.002095 0.020056 -0.007477 0.000000 0.000000 0.000000
# 3 -0.002107 -0.007477 0.021182 0.000000 0.000000 0.000000
# 4 0.000000 0.000000 0.000000 0.068065 0.000000 0.000000
# 5 0.000000 0.000000 0.000000 0.000000 0.032999 0.000000
# 6 0.000000 0.000000 0.000000 0.000000 0.000000 0.054366
#
#
# Mechanical properties :
#
#
# Convention : Reuss Voigt Hill
#
# Bulk Modulus (GPa) = 39.08167 44.43917 41.76042
# Shear Modulus (GPa) = 21.16255 25.46342 23.31298
#
# Velocity S-wave (km/s) = 3.16553 3.47233 3.32247
# Velocity P-wave (km/s) = 5.64501 6.09248 5.87301
#
# Compressibility (1/GPa) = 0.02558744
#
# Stress axis : x y z
#
# Youngs Moduli (GPa) = 129.71299 49.86081 47.20972
#
# Poissons Ratio (x) = 0.10448 0.09949
# Poissons Ratio (y) = 0.27180 0.35299
# Poissons Ratio (z) = 0.27336 0.37281
#
# Static dielectric constant tensor:
#      x y z
#    x 4.317050 0.000000 0.000000 
#    y 0.000000 3.470140 0.000000 
#    z 0.000000 0.000000 3.762350 
# 
# 
# High freq. dielectric constant tensor:
#      x y z
#    x 1.852570 0.000000 0.000000 
#    y 0.000000 1.789740 0.000000 
#    z 0.000000 0.000000 1.814320 
# 
# From -- ./inp_files/67186.got.cif
#   From: 2010.03.12/outbox.cif.g09.slc.cpg/sg74_34_cif.got.tgz:67186.got - 2010.04.16 15:46:19.
