data_PCOD8298579
_publ_section_title
;
Structure prediction by ZEFSAII (Michael W. Deem and Ramdas Pophale) SiO2 
 PCOD8298579
Probable space group: I M M A
;
_chemical_formula_sum "Si O2"
_cell_formula_units_Z 72
_cell_length_a 16.719327
_cell_length_b 12.917613
_cell_length_c 20.843929
_cell_angle_alpha 90.000000
_cell_angle_beta 90.000000
_cell_angle_gamma 90.000000
_cell_volume 4501.742466
_symmetry_space_group_name_H-M "I M M A"
_symmetry_group_IT_number 74
_symmetry_cell_setting 'orthorhombic'
loop_
_space_group_symop_operation_xyz
x,y,z
-x,1/2-y,z
x,-y,-z
-x,1/2+y,-z
-x,-y,-z
x,1/2+y,-z
-x,y,z
x,1/2-y,z
1/2+x,1/2+y,1/2+z
1/2-x,-y,1/2+z
1/2+x,1/2-y,1/2-z
1/2-x,y,1/2-z
1/2-x,1/2-y,1/2-z
1/2+x,y,1/2-z
1/2-x,1/2+y,1/2+z
1/2+x,-y,1/2+z
loop_
_atom_site_type_symbol
_atom_site_label
_atom_site_fract_x
_atom_site_fract_y
_atom_site_fract_z
Si Si1 0.174247 0.995444 0.710144
Si Si2 0.593603 0.870585 0.106169
Si Si3 0.090141 0.631926 0.814659
Si Si4 0.740318 0.368841 0.394355
Si Si5 0.181923 0.000000 0.500000
O O1 0.250000 0.039082 0.750000
O O2 0.108274 0.945903 0.756613
O O3 0.202321 0.904182 0.663169
O O4 0.136153 0.089833 0.670850
O O5 0.500000 0.892615 0.112208
O O6 0.612790 0.750000 0.098438
O O7 0.625534 0.929128 0.043653
O O8 0.102130 0.750000 0.790446
O O9 0.148201 0.610703 0.874911
O O10 0.000000 0.612308 0.838450
O O11 0.758317 0.250000 0.408079
O O12 0.758505 0.430311 0.458749
#
# Coordination Sequence:
#
# PCOD8298579 Si02
#       5
#    16  16  16  16   8
#     4   9  17  29  46  67  90 115 141 171 211 259
#     4  10  20  32  46  65  88 114 144 178 214 252
#     4   9  16  27  45  68  91 113 139 175 218 258
#     4   9  17  29  45  65  88 114 145 179 213 252
#     4  10  19  32  47  62  84 116 150 180 213 252
#
# _framework density 15.993805999999999
#
# number of rings (size 3 to 8) (size 9 to 14) (size 15 to 20)
#    0.000    2.667    0.000    2.333    0.000    3.111 
#    0.000    0.556    0.000   10.667    0.000    0.000 
#    0.000    0.000    0.000    0.000    0.000    0.000 
#
# Total GULP energy -446412.774853 kJ/mol
# GULP energy per Si atom -12400.354857 kJ/mol
# Density = 1.595740 g / cm^3
# Si number density = 15.993806 Si / 1000 Ang^3
#
#
#
# Elastic Constant Matrix: (Units=GPa)
#
#
# Indices 1 2 3 4 5 6 
#
# 1 113.4523 63.2077 57.8698 0.0000 0.0000 0.0000
# 2 63.2077 108.2872 65.5569 0.0000 0.0000 0.0000
# 3 57.8698 65.5569 105.7448 0.0000 0.0000 0.0000
# 4 0.0000 0.0000 0.0000 21.6268 0.0000 0.0000
# 5 0.0000 0.0000 0.0000 0.0000 21.2300 0.0000
# 6 0.0000 0.0000 0.0000 0.0000 0.0000 23.6151
#
#
#
# Elastic Compliance Matrix: (Units=1/GPa)
#
#
# Indices 1 2 3 4 5 6 
#
# 1 0.014136 -0.005712 -0.004195 0.000000 0.000000 0.000000
# 2 -0.005712 0.017091 -0.007470 0.000000 0.000000 0.000000
# 3 -0.004195 -0.007470 0.016384 0.000000 0.000000 0.000000
# 4 0.000000 0.000000 0.000000 0.046239 0.000000 0.000000
# 5 0.000000 0.000000 0.000000 0.000000 0.047103 0.000000
# 6 0.000000 0.000000 0.000000 0.000000 0.000000 0.042346
#
#
# Mechanical properties :
#
#
# Convention : Reuss Voigt Hill
#
# Bulk Modulus (GPa) = 77.77674 77.86146 77.81910
# Shear Modulus (GPa) = 22.48831 22.68437 22.58634
#
# Velocity S-wave (km/s) = 3.75382 3.77015 3.76199
# Velocity P-wave (km/s) = 8.21724 8.23043 8.22384
#
# Compressibility (1/GPa) = 0.01285731
#
# Stress axis : x y z
#
# Youngs Moduli (GPa) = 70.73975 58.51108 61.03688
#
# Poissons Ratio (x) = 0.33419 0.25607
# Poissons Ratio (y) = 0.40404 0.45593
# Poissons Ratio (z) = 0.29677 0.43706
#
# Static dielectric constant tensor:
#      x y z
#    x 3.112050 0.000000 0.000000 
#    y 0.000000 2.957820 0.000000 
#    z 0.000000 0.000000 3.020030 
# 
# 
# High freq. dielectric constant tensor:
#      x y z
#    x 1.619490 0.000000 0.000000 
#    y 0.000000 1.610300 0.000000 
#    z 0.000000 0.000000 1.609560 
# 
# From -- ./inp_files/40958.got.cif
#   From: 2010.03.12/outbox.cif.g09.slc.cpg/sg74_21_cif.got.tgz:40958.got - 2010.04.16 15:46:19.
