data_PCOD8298551
_publ_section_title
;
Structure prediction by ZEFSAII (Michael W. Deem and Ramdas Pophale) SiO2 
 PCOD8298551
Probable space group: I M M A
;
_chemical_formula_sum "Si O2"
_cell_formula_units_Z 72
_cell_length_a 9.595733
_cell_length_b 16.536601
_cell_length_c 24.551889
_cell_angle_alpha 90.000000
_cell_angle_beta 90.000000
_cell_angle_gamma 90.000000
_cell_volume 3895.913583
_symmetry_space_group_name_H-M "I M M A"
_symmetry_group_IT_number 74
_symmetry_cell_setting 'orthorhombic'
loop_
_space_group_symop_operation_xyz
x,y,z
-x,1/2-y,z
x,-y,-z
-x,1/2+y,-z
-x,-y,-z
x,1/2+y,-z
-x,y,z
x,1/2-y,z
1/2+x,1/2+y,1/2+z
1/2-x,-y,1/2+z
1/2+x,1/2-y,1/2-z
1/2-x,y,1/2-z
1/2-x,1/2-y,1/2-z
1/2+x,y,1/2-z
1/2-x,1/2+y,1/2+z
1/2+x,-y,1/2+z
loop_
_atom_site_type_symbol
_atom_site_label
_atom_site_fract_x
_atom_site_fract_y
_atom_site_fract_z
Si Si1 0.842305 0.552204 0.399769
Si Si2 0.651015 0.595083 0.491647
Si Si3 0.845702 0.659637 0.295257
Si Si4 0.662200 0.394947 0.388250
Si Si5 0.664474 0.250000 0.306864
O O1 0.773042 0.606225 0.447776
O O2 0.842078 0.611150 0.349933
O O3 0.757943 0.473352 0.380892
O O4 0.000000 0.527871 0.416908
O O5 0.638437 0.500000 0.500000
O O6 0.500000 0.627710 0.470605
O O7 0.686647 0.637720 0.549737
O O8 0.790490 0.750000 0.307471
O O9 0.750000 0.616791 0.250000
O O10 0.000000 0.661495 0.270752
O O11 0.500000 0.419287 0.381243
O O12 0.704616 0.328165 0.343314
O O13 0.500000 0.250000 0.293243
O O14 0.750000 0.250000 0.250000
#
# Coordination Sequence:
#
# PCOD8298551 Si02
#       5
#    16  16  16  16   8
#     4  10  19  31  52  80 106 133 168 212 261 310
#     4   8  15  30  51  74 100 131 165 204 251 304
#     4   9  19  35  51  69  99 135 168 205 249 298
#     4   9  19  36  55  74 102 138 173 213 258 305
#     4  10  22  40  58  76 104 142 181 224 269 310
#
# _framework density 18.480903000000001
#
# number of rings (size 3 to 8) (size 9 to 14) (size 15 to 20)
#    0.000    2.889    0.000    2.000    0.000    7.556 
#    2.000    4.444    0.000    0.000    0.000    0.000 
#    0.000    0.000    0.000    0.000    0.000    0.000 
#
# Total GULP energy -446010.218268 kJ/mol
# GULP energy per Si atom -12389.172730 kJ/mol
# Density = 1.843884 g / cm^3
# Si number density = 18.480903 Si / 1000 Ang^3
#
#
#
# Elastic Constant Matrix: (Units=GPa)
#
#
# Indices 1 2 3 4 5 6 
#
# 1 121.2933 41.3159 73.8167 0.0000 0.0000 0.0000
# 2 41.3159 49.8492 41.5204 0.0000 0.0000 0.0000
# 3 73.8167 41.5204 123.3352 0.0000 0.0000 0.0000
# 4 0.0000 0.0000 0.0000 27.7739 0.0000 0.0000
# 5 0.0000 0.0000 0.0000 0.0000 38.5178 0.0000
# 6 0.0000 0.0000 0.0000 0.0000 0.0000 -10.9027
#
#
#
# Elastic Compliance Matrix: (Units=1/GPa)
#
#
# Indices 1 2 3 4 5 6 
#
# 1 0.014377 -0.006599 -0.006383 0.000000 0.000000 0.000000
# 2 -0.006599 0.030907 -0.006455 0.000000 0.000000 0.000000
# 3 -0.006383 -0.006455 0.014101 0.000000 0.000000 0.000000
# 4 0.000000 0.000000 0.000000 0.036005 0.000000 0.000000
# 5 0.000000 0.000000 0.000000 0.000000 0.025962 0.000000
# 6 0.000000 0.000000 0.000000 0.000000 0.000000 -0.091720
#
#
# Mechanical properties :
#
#
# Convention : Reuss Voigt Hill
#
# Bulk Modulus (GPa) = 48.75592 67.53150 58.14371
# Shear Modulus (GPa) = 66.36311 20.26611 43.31461
#
# Velocity S-wave (km/s) = 5.99891 3.31508 4.84648
# Velocity P-wave (km/s) = 8.62680 7.16056 7.92765
#
# Compressibility (1/GPa) = 0.02051033
#
# Stress axis : x y z
#
# Youngs Moduli (GPa) = 69.55561 32.35560 70.91551
#
# Poissons Ratio (x) = 0.21352 0.45266
# Poissons Ratio (y) = 0.45902 0.45775
# Poissons Ratio (z) = 0.44398 0.20885
#
# Static dielectric constant tensor:
#      x y z
#    x 3.909280 0.000000 0.000000 
#    y 0.000000 3.163010 0.000000 
#    z 0.000000 0.000000 3.634600 
# 
# 
# High freq. dielectric constant tensor:
#      x y z
#    x 1.723030 0.000000 0.000000 
#    y 0.000000 1.688470 0.000000 
#    z 0.000000 0.000000 1.720220 
# 
# From -- ./inp_files/48398.got.cif
#   From: 2010.03.12/outbox.cif.g09.slc.cpg/sg74_25_cif.got.tgz:48398.got - 2010.04.16 15:46:19.
