data_PCOD8298056
_publ_section_title
;
Structure prediction by ZEFSAII (Michael W. Deem and Ramdas Pophale) SiO2 
 PCOD8298056
Probable space group: I M M A
;
_chemical_formula_sum "Si O2"
_cell_formula_units_Z 104
_cell_length_a 24.153303
_cell_length_b 24.118372
_cell_length_c 9.760051
_cell_angle_alpha 90.000000
_cell_angle_beta 90.000000
_cell_angle_gamma 90.000000
_cell_volume 5685.603974
_symmetry_space_group_name_H-M "I M M A"
_symmetry_group_IT_number 74
_symmetry_cell_setting 'orthorhombic'
loop_
_space_group_symop_operation_xyz
x,y,z
-x,1/2-y,z
x,-y,-z
-x,1/2+y,-z
-x,-y,-z
x,1/2+y,-z
-x,y,z
x,1/2-y,z
1/2+x,1/2+y,1/2+z
1/2-x,-y,1/2+z
1/2+x,1/2-y,1/2-z
1/2-x,y,1/2-z
1/2-x,1/2-y,1/2-z
1/2+x,y,1/2-z
1/2-x,1/2+y,1/2+z
1/2+x,-y,1/2+z
loop_
_atom_site_type_symbol
_atom_site_label
_atom_site_fract_x
_atom_site_fract_y
_atom_site_fract_z
Si Si1 0.748123 0.386014 0.527939
Si Si2 0.669200 0.475619 0.861247
Si Si3 0.434948 0.187138 0.488094
Si Si4 0.250000 0.438632 0.250000
Si Si5 0.061404 0.815517 0.677764
Si Si6 0.863034 0.376682 0.806913
Si Si7 0.648695 0.685335 0.038420
O O1 0.779321 0.437806 0.594155
O O2 0.729354 0.401123 0.375456
O O3 0.696958 0.370466 0.623959
O O4 0.788872 0.334087 0.513680
O O5 0.694643 0.526371 0.778135
O O6 0.629433 0.438333 0.762209
O O7 0.639363 0.500000 0.000000
O O8 0.500000 0.186043 0.512181
O O9 0.412993 0.250000 0.520169
O O10 0.420129 0.170615 0.332476
O O11 0.408981 0.138760 0.581647
O O12 0.058134 0.750000 0.658873
O O13 0.106331 0.841549 0.572993
O O14 0.000000 0.840390 0.647428
O O15 0.870756 0.331336 0.689078
O O16 0.647417 0.750000 0.021408
#
# Coordination Sequence:
#
# PCOD8298056 Si02
#       7
#    16  16  16   8  16  16  16
#     4  10  21  31  50  80 108 138 179 213 267 330
#     4   9  17  33  52  74 107 134 174 218 267 320
#     4   9  19  35  54  77 108 143 182 227 270 316
#     4  10  18  34  53  72 105 138 172 226 258 322
#     4   8  16  33  53  71  98 141 185 220 257 307
#     4  11  20  32  52  81 107 138 180 225 267 321
#     4  10  20  33  48  72 111 147 174 213 263 323
#
# _framework density 18.291812
#
# number of rings (size 3 to 8) (size 9 to 14) (size 15 to 20)
#    0.000    2.462    1.538    2.769    2.154    2.462 
#    0.000    1.923    0.000    0.462    0.000    5.385 
#    0.000    0.000    0.000    0.000    0.000    0.000 
#
# Total GULP energy -644412.860398 kJ/mol
# GULP energy per Si atom -12392.555008 kJ/mol
# Density = 1.825018 g / cm^3
# Si number density = 18.291812 Si / 1000 Ang^3
#
#
#
# Elastic Constant Matrix: (Units=GPa)
#
#
# Indices 1 2 3 4 5 6 
#
# 1 61.4575 30.6696 54.5273 0.0000 0.0000 0.0000
# 2 30.6696 47.9766 46.8783 0.0000 0.0000 0.0000
# 3 54.5273 46.8783 140.7914 0.0000 0.0000 0.0000
# 4 0.0000 0.0000 0.0000 35.1135 0.0000 0.0000
# 5 0.0000 0.0000 0.0000 0.0000 32.7200 0.0000
# 6 0.0000 0.0000 0.0000 0.0000 0.0000 15.4042
#
#
#
# Elastic Compliance Matrix: (Units=1/GPa)
#
#
# Indices 1 2 3 4 5 6 
#
# 1 0.028168 -0.010890 -0.007283 0.000000 0.000000 0.000000
# 2 -0.010890 0.035105 -0.007471 0.000000 0.000000 0.000000
# 3 -0.007283 -0.007471 0.012411 0.000000 0.000000 0.000000
# 4 0.000000 0.000000 0.000000 0.028479 0.000000 0.000000
# 5 0.000000 0.000000 0.000000 0.000000 0.030562 0.000000
# 6 0.000000 0.000000 0.000000 0.000000 0.000000 0.064918
#
#
# Mechanical properties :
#
#
# Convention : Reuss Voigt Hill
#
# Bulk Modulus (GPa) = 40.99153 57.15288 49.07220
# Shear Modulus (GPa) = 19.30027 24.52423 21.91225
#
# Velocity S-wave (km/s) = 3.25180 3.66556 3.46486
# Velocity P-wave (km/s) = 6.04627 7.01627 6.54925
#
# Compressibility (1/GPa) = 0.02439529
#
# Stress axis : x y z
#
# Youngs Moduli (GPa) = 35.50135 28.48575 80.57373
#
# Poissons Ratio (x) = 0.31022 0.58683
# Poissons Ratio (y) = 0.38662 0.60197
# Poissons Ratio (z) = 0.25856 0.21282
#
# Static dielectric constant tensor:
#      x y z
#    x 3.321030 0.000000 0.000000 
#    y 0.000000 3.376540 0.000000 
#    z 0.000000 0.000000 3.840940 
# 
# 
# High freq. dielectric constant tensor:
#      x y z
#    x 1.674650 0.000000 0.000000 
#    y 0.000000 1.688450 0.000000 
#    z 0.000000 0.000000 1.731460 
# 
# From -- ./inp_files/15396.got.cif
#   From: 2010.03.12/outbox.cif.g09.slc.cpg/sg74_8_cif.got.tgz:15396.got - 2010.04.16 15:46:19.
