data_PCOD8298168
_publ_section_title
;
Structure prediction by ZEFSAII (Michael W. Deem and Ramdas Pophale) SiO2 
 PCOD8298168
Probable space group: I M M A
;
_chemical_formula_sum "Si O2"
_cell_formula_units_Z 88
_cell_length_a 9.055801
_cell_length_b 24.682276
_cell_length_c 27.963850
_cell_angle_alpha 90.000000
_cell_angle_beta 90.000000
_cell_angle_gamma 90.000000
_cell_volume 6250.417663
_symmetry_space_group_name_H-M "I M M A"
_symmetry_group_IT_number 74
_symmetry_cell_setting 'orthorhombic'
loop_
_space_group_symop_operation_xyz
x,y,z
-x,1/2-y,z
x,-y,-z
-x,1/2+y,-z
-x,-y,-z
x,1/2+y,-z
-x,y,z
x,1/2-y,z
1/2+x,1/2+y,1/2+z
1/2-x,-y,1/2+z
1/2+x,1/2-y,1/2-z
1/2-x,y,1/2-z
1/2-x,1/2-y,1/2-z
1/2+x,y,1/2-z
1/2-x,1/2+y,1/2+z
1/2+x,-y,1/2+z
loop_
_atom_site_type_symbol
_atom_site_label
_atom_site_fract_x
_atom_site_fract_y
_atom_site_fract_z
Si Si1 0.331482 0.591249 0.063025
Si Si2 0.665604 0.939867 0.521182
Si Si3 0.327928 0.535852 0.199849
Si Si4 0.333841 0.652112 0.153741
Si Si5 0.673039 0.494708 0.386638
Si Si6 0.173459 0.750000 0.199072
O O1 0.500000 0.569552 0.062940
O O2 0.321606 0.644972 0.096037
O O3 0.221630 0.548612 0.086268
O O4 0.275894 0.600223 0.008192
O O5 0.500000 0.917312 0.515346
O O6 0.706973 0.943656 0.577867
O O7 0.678467 0.000000 0.500000
O O8 0.500000 0.524576 0.205538
O O9 0.250000 0.527705 0.250000
O O10 0.296211 0.596056 0.180417
O O11 0.262143 0.491056 0.163120
O O12 0.500000 0.670652 0.167287
O O13 0.217984 0.696865 0.169756
O O14 0.500000 0.498617 0.375481
O O15 0.250000 0.750000 0.250000
O O16 0.000000 0.750000 0.206811
#
# Coordination Sequence:
#
# PCOD8298168 Si02
#       6
#    16  16  16  16  16   8
#     4   9  16  25  39  56  71  89 111 138 174 213
#     4   8  14  23  35  52  73  94 112 134 168 206
#     4  10  19  29  41  55  70  92 120 150 184 218
#     4   9  19  33  44  55  71  89 113 147 186 226
#     4   9  16  25  36  51  72  95 116 140 171 206
#     4  12  24  34  46  58  68  88 116 150 191 230
#
# _framework density 14.079059000000001
#
# number of rings (size 3 to 8) (size 9 to 14) (size 15 to 20)
#    0.000    2.727    0.000    5.182    0.000    9.818 
#    0.000    0.000    0.000    0.000    0.000    0.000 
#    0.000    0.000    0.000    0.000    0.000    0.000 
#
# Total GULP energy -545160.813157 kJ/mol
# GULP energy per Si atom -12390.018481 kJ/mol
# Density = 1.404701 g / cm^3
# Si number density = 14.079059 Si / 1000 Ang^3
#
#
#
# Elastic Constant Matrix: (Units=GPa)
#
#
# Indices 1 2 3 4 5 6 
#
# 1 96.0020 24.7612 65.7833 0.0000 0.0000 0.0000
# 2 24.7612 20.1752 34.8417 0.0000 0.0000 0.0000
# 3 65.7833 34.8417 121.3550 0.0000 0.0000 0.0000
# 4 0.0000 0.0000 0.0000 16.1084 0.0000 0.0000
# 5 0.0000 0.0000 0.0000 0.0000 29.6618 0.0000
# 6 0.0000 0.0000 0.0000 0.0000 0.0000 14.7725
#
#
#
# Elastic Compliance Matrix: (Units=1/GPa)
#
#
# Indices 1 2 3 4 5 6 
#
# 1 0.017559 -0.010141 -0.006607 0.000000 0.000000 0.000000
# 2 -0.010141 0.104166 -0.024410 0.000000 0.000000 0.000000
# 3 -0.006607 -0.024410 0.018830 0.000000 0.000000 0.000000
# 4 0.000000 0.000000 0.000000 0.062079 0.000000 0.000000
# 5 0.000000 0.000000 0.000000 0.000000 0.033713 0.000000
# 6 0.000000 0.000000 0.000000 0.000000 0.000000 0.067693
#
#
# Mechanical properties :
#
#
# Convention : Reuss Voigt Hill
#
# Bulk Modulus (GPa) = 17.17019 54.25605 35.71312
# Shear Modulus (GPa) = 12.32228 19.58494 15.95361
#
# Velocity S-wave (km/s) = 2.96162 3.73375 3.36987
# Velocity P-wave (km/s) = 4.89050 7.56361 6.36888
#
# Compressibility (1/GPa) = 0.05824046
#
# Stress axis : x y z
#
# Youngs Moduli (GPa) = 56.95010 9.60009 53.10713
#
# Poissons Ratio (x) = 0.09735 0.35088
# Poissons Ratio (y) = 0.57751 1.29632
# Poissons Ratio (z) = 0.37627 0.23433
#
# Static dielectric constant tensor:
#      x y z
#    x 2.926080 0.000000 0.000000 
#    y 0.000000 2.351190 0.000000 
#    z 0.000000 0.000000 3.335150 
# 
# 
# High freq. dielectric constant tensor:
#      x y z
#    x 1.554570 0.000000 0.000000 
#    y 0.000000 1.456840 0.000000 
#    z 0.000000 0.000000 1.546270 
# 
# From -- ./inp_files/65170.got.cif
#   From: 2010.03.12/outbox.cif.g09.slc.cpg/sg74_33_cif.got.tgz:65170.got - 2010.04.16 15:46:19.
