data_PCOD8298260
_publ_section_title
;
Structure prediction by ZEFSAII (Michael W. Deem and Ramdas Pophale) SiO2 
 PCOD8298260
Probable space group: I M M A
;
_chemical_formula_sum "Si O2"
_cell_formula_units_Z 80
_cell_length_a 26.014703
_cell_length_b 7.790615
_cell_length_c 27.787971
_cell_angle_alpha 90.000000
_cell_angle_beta 90.000000
_cell_angle_gamma 90.000000
_cell_volume 5631.802961
_symmetry_space_group_name_H-M "I M M A"
_symmetry_group_IT_number 74
_symmetry_cell_setting 'orthorhombic'
loop_
_space_group_symop_operation_xyz
x,y,z
-x,1/2-y,z
x,-y,-z
-x,1/2+y,-z
-x,-y,-z
x,1/2+y,-z
-x,y,z
x,1/2-y,z
1/2+x,1/2+y,1/2+z
1/2-x,-y,1/2+z
1/2+x,1/2-y,1/2-z
1/2-x,y,1/2-z
1/2-x,1/2-y,1/2-z
1/2+x,y,1/2-z
1/2-x,1/2+y,1/2+z
1/2+x,-y,1/2+z
loop_
_atom_site_type_symbol
_atom_site_label
_atom_site_fract_x
_atom_site_fract_y
_atom_site_fract_z
Si Si1 0.889900 0.942502 0.769319
Si Si2 0.675594 0.442385 0.362444
Si Si3 0.000000 0.055158 0.794292
Si Si4 0.168555 0.250000 0.731718
Si Si5 0.735594 0.250000 0.672727
Si Si6 0.500000 0.054407 0.400144
Si Si7 0.605212 0.548986 0.445787
O O1 0.875806 0.750000 0.751938
O O2 0.867466 0.980092 0.822221
O O3 0.950928 0.959495 0.772600
O O4 0.866559 0.078981 0.731622
O O5 0.698304 0.250000 0.356857
O O6 0.721837 0.578946 0.357495
O O7 0.648366 0.458139 0.413708
O O8 0.000000 0.250000 0.776274
O O9 0.000000 0.059065 0.852217
O O10 0.203465 0.250000 0.683704
O O11 0.204834 0.250000 0.777798
O O12 0.500000 0.250000 0.382644
O O13 0.451052 0.018559 0.433100
O O14 0.618282 0.500000 0.500000
O O15 0.607993 0.750000 0.436646
#
# Coordination Sequence:
#
# PCOD8298260 Si02
#       7
#    16  16   8   8   8   8  16
#     4  10  19  30  45  64  87 111 141 175 217 260
#     4  10  19  32  47  64  82 109 141 177 225 272
#     4  12  20  29  45  63  85 118 148 181 214 268
#     4   9  18  31  46  66  84 105 136 179 224 268
#     4   9  18  32  48  64  84 104 136 178 226 277
#     4  12  23  33  44  62  81 111 151 184 229 276
#     4  12  23  35  46  61  83 111 145 189 233 274
#
# _framework density 14.205042000000001
#
# number of rings (size 3 to 8) (size 9 to 14) (size 15 to 20)
#    0.000    1.400    4.000    3.900    0.000    0.800 
#    0.000    4.000    0.000    0.000    0.000    0.000 
#    0.000    0.000    0.000    0.000    0.000    0.000 
#
# Total GULP energy -496101.394714 kJ/mol
# GULP energy per Si atom -12402.534868 kJ/mol
# Density = 1.417271 g / cm^3
# Si number density = 14.205042 Si / 1000 Ang^3
#
#
#
# Elastic Constant Matrix: (Units=GPa)
#
#
# Indices 1 2 3 4 5 6 
#
# 1 77.2231 39.2547 42.2021 0.0000 0.0000 0.0000
# 2 39.2547 116.7774 25.2474 0.0000 0.0000 0.0000
# 3 42.2021 25.2474 44.4086 0.0000 0.0000 0.0000
# 4 0.0000 0.0000 0.0000 15.5815 0.0000 0.0000
# 5 0.0000 0.0000 0.0000 0.0000 20.4904 0.0000
# 6 0.0000 0.0000 0.0000 0.0000 0.0000 13.2566
#
#
#
# Elastic Compliance Matrix: (Units=1/GPa)
#
#
# Indices 1 2 3 4 5 6 
#
# 1 0.028700 -0.004276 -0.024842 0.000000 0.000000 0.000000
# 2 -0.004276 0.010401 -0.001849 0.000000 0.000000 0.000000
# 3 -0.024842 -0.001849 0.047177 0.000000 0.000000 0.000000
# 4 0.000000 0.000000 0.000000 0.064179 0.000000 0.000000
# 5 0.000000 0.000000 0.000000 0.000000 0.048803 0.000000
# 6 0.000000 0.000000 0.000000 0.000000 0.000000 0.075434
#
#
# Mechanical properties :
#
#
# Convention : Reuss Voigt Hill
#
# Bulk Modulus (GPa) = 41.08136 50.20195 45.64166
# Shear Modulus (GPa) = 14.50353 18.64601 16.57477
#
# Velocity S-wave (km/s) = 3.19880 3.62696 3.41958
# Velocity P-wave (km/s) = 6.52887 7.27719 6.91316
#
# Compressibility (1/GPa) = 0.02434194
#
# Stress axis : x y z
#
# Youngs Moduli (GPa) = 34.84378 96.14840 21.19658
#
# Poissons Ratio (x) = 0.41117 0.52657
# Poissons Ratio (y) = 0.14901 0.03919
# Poissons Ratio (z) = 0.86560 0.17779
#
# Static dielectric constant tensor:
#      x y z
#    x 2.690620 0.000000 0.000000 
#    y 0.000000 3.049710 0.000000 
#    z 0.000000 0.000000 2.478760 
# 
# 
# High freq. dielectric constant tensor:
#      x y z
#    x 1.516520 0.000000 0.000000 
#    y 0.000000 1.570120 0.000000 
#    z 0.000000 0.000000 1.490570 
# 
# From -- ./inp_files/57204.got.cif
#   From: 2010.03.12/outbox.cif.g09.slc.cpg/sg74_29_cif.got.tgz:57204.got - 2010.04.16 15:46:19.
