data_PCOD8298059
_publ_section_title
;
Structure prediction by ZEFSAII (Michael W. Deem and Ramdas Pophale) SiO2 
 PCOD8298059
Probable space group: I M M A
;
_chemical_formula_sum "Si O2"
_cell_formula_units_Z 112
_cell_length_a 14.392235
_cell_length_b 27.099985
_cell_length_c 16.030602
_cell_angle_alpha 90.000000
_cell_angle_beta 90.000000
_cell_angle_gamma 90.000000
_cell_volume 6252.405320
_symmetry_space_group_name_H-M "I M M A"
_symmetry_group_IT_number 74
_symmetry_cell_setting 'orthorhombic'
loop_
_space_group_symop_operation_xyz
x,y,z
-x,1/2-y,z
x,-y,-z
-x,1/2+y,-z
-x,-y,-z
x,1/2+y,-z
-x,y,z
x,1/2-y,z
1/2+x,1/2+y,1/2+z
1/2-x,-y,1/2+z
1/2+x,1/2-y,1/2-z
1/2-x,y,1/2-z
1/2-x,1/2-y,1/2-z
1/2+x,y,1/2-z
1/2-x,1/2+y,1/2+z
1/2+x,-y,1/2+z
loop_
_atom_site_type_symbol
_atom_site_label
_atom_site_fract_x
_atom_site_fract_y
_atom_site_fract_z
Si Si1 0.894126 0.193060 0.418160
Si Si2 0.231340 0.947808 0.340392
Si Si3 0.215212 0.888323 0.502794
Si Si4 0.604979 0.616613 0.597017
Si Si5 0.395133 0.972820 0.912765
Si Si6 0.396226 0.995089 0.593777
Si Si7 0.609995 0.195500 0.267822
O O1 0.887417 0.250000 0.442589
O O2 0.836239 0.163661 0.487559
O O3 0.851619 0.184142 0.325115
O O4 0.000000 0.174439 0.421757
O O5 0.250000 0.923475 0.250000
O O6 0.203994 0.906356 0.407785
O O7 0.153671 0.991405 0.344596
O O8 0.332252 0.970873 0.351897
O O9 0.324812 0.880338 0.519399
O O10 0.169368 0.924951 0.571874
O O11 0.500000 0.631475 0.568713
O O12 0.605067 0.560474 0.629541
O O13 0.642877 0.653075 0.668980
O O14 0.500000 0.958800 0.881855
O O15 0.402729 0.000000 0.000000
O O16 0.500000 0.017017 0.595502
O O17 0.355652 0.000000 0.500000
O O18 0.500000 0.196607 0.261205
O O19 0.645155 0.250000 0.297353
#
# Coordination Sequence:
#
# PCOD8298059 Si02
#       7
#    16  16  16  16  16  16  16
#     4   9  19  36  57  79 105 137 171 210 263 327
#     4  11  22  35  50  74 105 137 179 222 268 312
#     4  11  20  34  54  76 103 138 180 220 260 312
#     4  10  19  31  52  76 103 143 182 212 253 306
#     4   9  18  34  53  73 100 134 169 216 272 317
#     4  10  18  34  54  71  97 136 182 221 253 304
#     4   8  16  32  51  77 111 137 162 205 258 312
#
# _framework density 17.913105999999999
#
# number of rings (size 3 to 8) (size 9 to 14) (size 15 to 20)
#    0.000    2.286    2.857    1.714    0.000    3.429 
#    0.000    2.857    0.000    0.429    0.000    0.000 
#    0.000    2.286    0.000    0.000    0.000    0.000 
#
# Total GULP energy -694042.811767 kJ/mol
# GULP energy per Si atom -12393.621639 kJ/mol
# Density = 1.787233 g / cm^3
# Si number density = 17.913106 Si / 1000 Ang^3
#
#
#
# Elastic Constant Matrix: (Units=GPa)
#
#
# Indices 1 2 3 4 5 6 
#
# 1 88.3987 25.3147 31.2017 0.0000 0.0000 0.0000
# 2 25.3147 83.5703 45.5867 0.0000 0.0000 0.0000
# 3 31.2017 45.5867 89.1917 0.0000 -0.0001 0.0000
# 4 0.0000 0.0000 0.0000 28.7092 0.0000 0.0000
# 5 0.0000 0.0000 -0.0001 0.0000 12.9929 0.0000
# 6 0.0000 0.0000 0.0000 0.0000 0.0000 21.3444
#
#
#
# Elastic Compliance Matrix: (Units=1/GPa)
#
#
# Indices 1 2 3 4 5 6 
#
# 1 0.013153 -0.002044 -0.003556 0.000000 0.000000 0.000000
# 2 -0.002044 0.016910 -0.007927 0.000000 0.000000 0.000000
# 3 -0.003556 -0.007927 0.016508 0.000000 0.000000 0.000000
# 4 0.000000 0.000000 0.000000 0.034832 0.000000 0.000000
# 5 0.000000 0.000000 0.000000 0.000000 0.076965 0.000000
# 6 0.000000 0.000000 0.000000 0.000000 0.000000 0.046851
#
#
# Mechanical properties :
#
#
# Convention : Reuss Voigt Hill
#
# Bulk Modulus (GPa) = 51.24530 51.70745 51.47637
# Shear Modulus (GPa) = 20.93981 23.21314 22.07648
#
# Velocity S-wave (km/s) = 3.42272 3.60373 3.51439
# Velocity P-wave (km/s) = 6.65506 6.80031 6.72808
#
# Compressibility (1/GPa) = 0.01951398
#
# Stress axis : x y z
#
# Youngs Moduli (GPa) = 76.02767 59.13812 60.57755
#
# Poissons Ratio (x) = 0.12089 0.21544
# Poissons Ratio (y) = 0.15542 0.48023
# Poissons Ratio (z) = 0.27039 0.46882
#
# Static dielectric constant tensor:
#      x y z
#    x 3.510620 0.000000 0.000000 
#    y 0.000000 3.339090 0.000000 
#    z 0.000000 0.000000 3.164570 
# 
# 
# High freq. dielectric constant tensor:
#      x y z
#    x 1.710650 0.000000 0.000000 
#    y 0.000000 1.676310 0.000000 
#    z 0.000000 0.000000 1.652320 
# 
# From -- ./inp_files/32894.got.cif
#   From: 2010.03.12/outbox.cif.g09.slc.cpg/sg74_17_cif.got.tgz:32894.got - 2010.04.16 15:46:19.
