data_PCOD8298441
_publ_section_title
;
Structure prediction by ZEFSAII (Michael W. Deem and Ramdas Pophale) SiO2 
 PCOD8298441
Probable space group: I M M A
;
_chemical_formula_sum "Si O2"
_cell_formula_units_Z 128
_cell_length_a 19.819180
_cell_length_b 17.222956
_cell_length_c 21.485525
_cell_angle_alpha 90.000000
_cell_angle_beta 90.000000
_cell_angle_gamma 90.000000
_cell_volume 7333.973633
_symmetry_space_group_name_H-M "I M M A"
_symmetry_group_IT_number 74
_symmetry_cell_setting 'orthorhombic'
loop_
_space_group_symop_operation_xyz
x,y,z
-x,1/2-y,z
x,-y,-z
-x,1/2+y,-z
-x,-y,-z
x,1/2+y,-z
-x,y,z
x,1/2-y,z
1/2+x,1/2+y,1/2+z
1/2-x,-y,1/2+z
1/2+x,1/2-y,1/2-z
1/2-x,y,1/2-z
1/2-x,1/2-y,1/2-z
1/2+x,y,1/2-z
1/2-x,1/2+y,1/2+z
1/2+x,-y,1/2+z
loop_
_atom_site_type_symbol
_atom_site_label
_atom_site_fract_x
_atom_site_fract_y
_atom_site_fract_z
Si Si1 0.573891 0.002671 0.639779
Si Si2 0.576138 0.470858 0.780946
Si Si3 0.819484 0.897957 0.721913
Si Si4 0.374356 0.834626 0.654827
Si Si5 0.795706 0.029961 0.931199
Si Si6 0.260691 0.126578 0.099496
Si Si7 0.076703 0.339051 0.622443
Si Si8 0.199580 0.337970 0.537304
O O1 0.500000 0.022806 0.612585
O O2 0.578275 0.908347 0.641272
O O3 0.582580 0.041690 0.707155
O O4 0.630775 0.042113 0.598040
O O5 0.500000 0.498352 0.797508
O O6 0.628975 0.536131 0.800378
O O7 0.593659 0.391652 0.817513
O O8 0.750000 0.934657 0.750000
O O9 0.849437 0.841017 0.773914
O O10 0.805017 0.848641 0.659211
O O11 0.410841 0.750000 0.648071
O O12 0.312635 0.833581 0.605223
O O13 0.756757 0.111066 0.929580
O O14 0.750965 0.966446 0.895044
O O15 0.807868 0.000000 0.000000
O O16 0.300148 0.149915 0.037113
O O17 0.087017 0.250000 0.643472
O O18 0.125971 0.360104 0.564651
O O19 0.000000 0.353295 0.599273
O O20 0.217783 0.250000 0.553539
#
# Coordination Sequence:
#
# PCOD8298441 Si02
#       8
#    16  16  16  16  16  16  16  16
#     4   9  18  32  50  70  91 122 158 189 229 277
#     4   9  17  31  49  67  91 120 152 192 234 278
#     4   9  17  28  46  69  93 124 156 189 226 269
#     4   9  17  28  44  70  99 122 150 190 231 270
#     4   9  18  32  49  69  94 123 154 190 230 274
#     4   9  17  29  46  67  93 124 157 190 226 273
#     4   9  18  32  49  69  92 120 155 194 237 282
#     4  10  19  31  49  69  92 123 156 193 235 276
#
# _framework density 17.453021
#
# number of rings (size 3 to 8) (size 9 to 14) (size 15 to 20)
#    0.000    2.875    0.000    1.875    0.000    3.250 
#    0.000    1.250    0.000    7.875    0.000    1.750 
#    0.000    0.000    0.000    0.000    0.000    0.000 
#
# Total GULP energy -793116.938034 kJ/mol
# GULP energy per Si atom -12392.452157 kJ/mol
# Density = 1.741330 g / cm^3
# Si number density = 17.453021 Si / 1000 Ang^3
#
#
#
# Elastic Constant Matrix: (Units=GPa)
#
#
# Indices 1 2 3 4 5 6 
#
# 1 100.1723 44.6325 41.2255 0.0000 0.0000 0.0000
# 2 44.6325 83.7382 34.3798 0.0000 0.0000 0.0000
# 3 41.2255 34.3798 64.2068 0.0000 0.0000 0.0000
# 4 0.0000 0.0000 0.0000 16.0698 0.0000 0.0000
# 5 0.0000 0.0000 0.0000 0.0000 27.1707 0.0000
# 6 0.0000 0.0000 0.0000 0.0000 0.0000 16.0645
#
#
#
# Elastic Compliance Matrix: (Units=1/GPa)
#
#
# Indices 1 2 3 4 5 6 
#
# 1 0.015171 -0.005239 -0.006936 0.000000 0.000000 0.000000
# 2 -0.005239 0.017116 -0.005801 0.000000 0.000000 0.000000
# 3 -0.006936 -0.005801 0.023134 0.000000 0.000000 0.000000
# 4 0.000000 0.000000 0.000000 0.062229 0.000000 0.000000
# 5 0.000000 0.000000 0.000000 0.000000 0.036804 0.000000
# 6 0.000000 0.000000 0.000000 0.000000 0.000000 0.062249
#
#
# Mechanical properties :
#
#
# Convention : Reuss Voigt Hill
#
# Bulk Modulus (GPa) = 51.36139 54.28809 52.82474
# Shear Modulus (GPa) = 19.29416 20.38630 19.84023
#
# Velocity S-wave (km/s) = 3.32850 3.42141 3.37527
# Velocity P-wave (km/s) = 6.65313 6.83965 6.74704
#
# Compressibility (1/GPa) = 0.01946988
#
# Stress axis : x y z
#
# Youngs Moduli (GPa) = 65.91318 58.42501 43.22567
#
# Poissons Ratio (x) = 0.30607 0.29982
# Poissons Ratio (y) = 0.34530 0.25076
# Poissons Ratio (z) = 0.45718 0.33893
#
# Static dielectric constant tensor:
#      x y z
#    x 3.275370 0.000000 0.000000 
#    y 0.000000 3.196220 0.000000 
#    z 0.000000 0.000000 3.297920 
# 
# 
# High freq. dielectric constant tensor:
#      x y z
#    x 1.668400 0.000000 0.000000 
#    y 0.000000 1.660550 0.000000 
#    z 0.000000 0.000000 1.669630 
# 
# From -- ./inp_files/61110.got.cif
#   From: 2010.03.12/outbox.cif.g09.slc.cpg/sg74_31_cif.got.tgz:61110.got - 2010.04.16 15:46:19.
