data_PCOD8298990
_publ_section_title
;
Structure prediction by ZEFSAII (Michael W. Deem and Ramdas Pophale) SiO2 
 PCOD8298990
Probable space group: I M M A
;
_chemical_formula_sum "Si O2"
_cell_formula_units_Z 72
_cell_length_a 16.475326
_cell_length_b 9.198329
_cell_length_c 24.528331
_cell_angle_alpha 90.000000
_cell_angle_beta 90.000000
_cell_angle_gamma 90.000000
_cell_volume 3717.157423
_symmetry_space_group_name_H-M "I M M A"
_symmetry_group_IT_number 74
_symmetry_cell_setting 'orthorhombic'
loop_
_space_group_symop_operation_xyz
x,y,z
-x,1/2-y,z
x,-y,-z
-x,1/2+y,-z
-x,-y,-z
x,1/2+y,-z
-x,y,z
x,1/2-y,z
1/2+x,1/2+y,1/2+z
1/2-x,-y,1/2+z
1/2+x,1/2-y,1/2-z
1/2-x,y,1/2-z
1/2-x,1/2-y,1/2-z
1/2+x,y,1/2-z
1/2-x,1/2+y,1/2+z
1/2+x,-y,1/2+z
loop_
_atom_site_type_symbol
_atom_site_label
_atom_site_fract_x
_atom_site_fract_y
_atom_site_fract_z
Si Si1 0.846492 0.913212 0.753641
Si Si2 0.128180 0.414536 0.649590
Si Si3 0.320266 0.414679 0.642844
Si Si4 0.000000 0.920500 0.441170
Si Si5 0.589556 0.414055 0.444828
O O1 0.880621 0.750000 0.763005
O O2 0.750000 0.907204 0.750000
O O3 0.891041 0.979329 0.700374
O O4 0.864461 0.017884 0.804386
O O5 0.101382 0.250000 0.664544
O O6 0.223744 0.421045 0.641084
O O7 0.079343 0.464192 0.595142
O O8 0.351518 0.250000 0.637892
O O9 0.344941 0.510115 0.592201
O O10 0.000000 0.750000 0.454327
O O11 0.000000 0.000000 0.500000
O O12 0.587275 0.500000 0.500000
O O13 0.500000 0.417261 0.417757
O O14 0.618211 0.250000 0.455910
#
# Coordination Sequence:
#
# PCOD8298990 Si02
#       5
#    16  16  16   8  16
#     4   9  17  31  53  80 108 138 174 220 272 323
#     4   9  19  36  56  79 108 144 183 227 275 324
#     4  10  19  33  56  83 110 142 182 224 272 328
#     4  10  22  40  58  78 110 148 189 234 279 324
#     4  10  21  37  55  76 106 141 177 219 267 320
#
# _framework density 19.36964
#
# number of rings (size 3 to 8) (size 9 to 14) (size 15 to 20)
#    0.000    2.444    0.000    2.000    0.000    6.667 
#    2.000    2.222    0.000    0.000    0.000    0.000 
#    0.000    0.000    0.000    0.000    0.000    0.000 
#
# Total GULP energy -446194.848260 kJ/mol
# GULP energy per Si atom -12394.301341 kJ/mol
# Density = 1.932555 g / cm^3
# Si number density = 19.369640 Si / 1000 Ang^3
#
#
#
# Elastic Constant Matrix: (Units=GPa)
#
#
# Indices 1 2 3 4 5 6 
#
# 1 37.1191 36.6648 40.8462 0.0000 0.0000 0.0000
# 2 36.6648 161.6317 68.6395 0.0000 0.0000 0.0000
# 3 40.8462 68.6395 123.2506 0.0000 0.0000 0.0000
# 4 0.0000 0.0000 0.0000 43.2072 0.0000 0.0000
# 5 0.0000 0.0000 0.0000 0.0000 31.4934 0.0000
# 6 0.0000 0.0000 0.0000 0.0000 0.0000 11.0712
#
#
#
# Elastic Compliance Matrix: (Units=1/GPa)
#
#
# Indices 1 2 3 4 5 6 
#
# 1 0.045428 -0.005123 -0.012202 0.000000 0.000000 0.000000
# 2 -0.005123 0.008681 -0.003137 0.000000 0.000000 0.000000
# 3 -0.012202 -0.003137 0.013904 0.000000 0.000000 0.000000
# 4 0.000000 0.000000 0.000000 0.023144 0.000000 0.000000
# 5 0.000000 0.000000 0.000000 0.000000 0.031753 0.000000
# 6 0.000000 0.000000 0.000000 0.000000 0.000000 0.090325
#
#
# Mechanical properties :
#
#
# Convention : Reuss Voigt Hill
#
# Bulk Modulus (GPa) = 36.91465 68.25582 52.58524
# Shear Modulus (GPa) = 18.99775 28.87775 23.93775
#
# Velocity S-wave (km/s) = 3.13517 3.86538 3.51926
# Velocity P-wave (km/s) = 5.67495 7.43213 6.61217
#
# Compressibility (1/GPa) = 0.02708951
#
# Stress axis : x y z
#
# Youngs Moduli (GPa) = 22.01280 115.19242 71.92015
#
# Poissons Ratio (x) = 0.59015 0.87758
# Poissons Ratio (y) = 0.11278 0.22559
# Poissons Ratio (z) = 0.26860 0.36133
#
# Static dielectric constant tensor:
#      x y z
#    x 3.620810 0.000000 0.000000 
#    y 0.000000 3.815130 0.000000 
#    z 0.000000 0.000000 3.362750 
# 
# 
# High freq. dielectric constant tensor:
#      x y z
#    x 1.735730 0.000000 0.000000 
#    y 0.000000 1.767420 0.000000 
#    z 0.000000 0.000000 1.751400 
# 
# From -- ./inp_files/53651.got.cif
#   From: 2010.03.12/outbox.cif.g09.slc.cpg/sg74_27_cif.got.tgz:53651.got - 2010.04.16 15:46:19.
