data_PCOD8298482
_publ_section_title
;
Structure prediction by ZEFSAII (Michael W. Deem and Ramdas Pophale) SiO2 
 PCOD8298482
Probable space group: I M M A
;
_chemical_formula_sum "Si O2"
_cell_formula_units_Z 104
_cell_length_a 25.960233
_cell_length_b 8.699342
_cell_length_c 21.706424
_cell_angle_alpha 90.000000
_cell_angle_beta 90.000000
_cell_angle_gamma 90.000000
_cell_volume 4902.112489
_symmetry_space_group_name_H-M "I M M A"
_symmetry_group_IT_number 74
_symmetry_cell_setting 'orthorhombic'
loop_
_space_group_symop_operation_xyz
x,y,z
-x,1/2-y,z
x,-y,-z
-x,1/2+y,-z
-x,-y,-z
x,1/2+y,-z
-x,y,z
x,1/2-y,z
1/2+x,1/2+y,1/2+z
1/2-x,-y,1/2+z
1/2+x,1/2-y,1/2-z
1/2-x,y,1/2-z
1/2-x,1/2-y,1/2-z
1/2+x,y,1/2-z
1/2-x,1/2+y,1/2+z
1/2+x,-y,1/2+z
loop_
_atom_site_type_symbol
_atom_site_label
_atom_site_fract_x
_atom_site_fract_y
_atom_site_fract_z
Si Si1 0.206169 0.074010 0.563407
Si Si2 0.897343 0.572601 0.378010
Si Si3 0.055554 0.073821 0.167167
Si Si4 0.644057 0.432724 0.245241
Si Si5 0.869070 0.427077 0.065833
Si Si6 0.000000 0.431726 0.431620
Si Si7 0.788990 0.429903 0.843547
O O1 0.222233 0.250000 0.558296
O O2 0.144359 0.052924 0.567352
O O3 0.235057 0.010841 0.625429
O O4 0.226358 0.000000 0.500000
O O5 0.911976 0.750000 0.367522
O O6 0.866173 0.506726 0.320383
O O7 0.949355 0.481810 0.394016
O O8 0.049372 0.250000 0.186498
O O9 0.097242 0.001492 0.213247
O O10 0.074705 0.061345 0.096928
O O11 0.000000 0.990223 0.173699
O O12 0.645423 0.250000 0.240036
O O13 0.697425 0.487249 0.278229
O O14 0.850053 0.250000 0.063829
O O15 0.830749 0.529688 0.105252
O O16 0.874105 0.500000 0.000000
O O17 0.000000 0.500000 0.500000
O O18 0.000000 0.250000 0.437576
O O19 0.787789 0.250000 0.829207
#
# Coordination Sequence:
#
# PCOD8298482 Si02
#       7
#    16  16  16  16  16   8  16
#     4  10  23  40  62  90 121 159 203 253 308 368
#     4  11  24  43  65  93 126 162 205 254 309 370
#     4   8  16  31  50  72 103 143 187 240 294 348
#     4  10  21  37  59  89 121 158 203 250 305 364
#     4  10  19  31  49  75 107 145 192 242 299 362
#     4  12  26  46  70  98 130 166 207 254 311 372
#     4  10  20  37  59  84 117 158 200 248 304 360
#
# _framework density 21.215343000000001
#
# number of rings (size 3 to 8) (size 9 to 14) (size 15 to 20)
#    0.000    2.000    0.000    4.385    1.077    5.846 
#    0.000    3.077    0.000    8.769    0.000    0.000 
#    0.000    0.000    0.000    0.000    0.000    0.000 
#
# Total GULP energy -644442.193897 kJ/mol
# GULP energy per Si atom -12393.119113 kJ/mol
# Density = 2.116706 g / cm^3
# Si number density = 21.215343 Si / 1000 Ang^3
#
#
#
# Elastic Constant Matrix: (Units=GPa)
#
#
# Indices 1 2 3 4 5 6 
#
# 1 112.6797 36.3096 24.7975 0.0000 0.0000 0.0000
# 2 36.3096 87.4397 38.0360 0.0000 0.0000 0.0000
# 3 24.7975 38.0360 107.8617 0.0000 0.0000 0.0000
# 4 0.0000 0.0000 0.0000 35.1046 0.0000 0.0000
# 5 0.0000 0.0000 0.0000 0.0000 21.3419 0.0000
# 6 0.0000 0.0000 0.0000 0.0000 0.0000 25.1849
#
#
#
# Elastic Compliance Matrix: (Units=1/GPa)
#
#
# Indices 1 2 3 4 5 6 
#
# 1 0.010340 -0.003850 -0.001019 0.000000 0.000000 0.000000
# 2 -0.003850 0.014942 -0.004384 0.000000 0.000000 0.000000
# 3 -0.001019 -0.004384 0.011051 0.000000 0.000000 0.000000
# 4 0.000000 0.000000 0.000000 0.028486 0.000000 0.000000
# 5 0.000000 0.000000 0.000000 0.000000 0.046856 0.000000
# 6 0.000000 0.000000 0.000000 0.000000 0.000000 0.039706
#
#
# Mechanical properties :
#
#
# Convention : Reuss Voigt Hill
#
# Bulk Modulus (GPa) = 56.09702 56.25192 56.17447
# Shear Modulus (GPa) = 28.43632 30.24883 29.34257
#
# Velocity S-wave (km/s) = 3.66507 3.78007 3.72302
# Velocity P-wave (km/s) = 6.66404 6.75457 6.70946
#
# Compressibility (1/GPa) = 0.01782626
#
# Stress axis : x y z
#
# Youngs Moduli (GPa) = 96.71448 66.92416 90.48569
#
# Poissons Ratio (x) = 0.25767 0.09224
# Poissons Ratio (y) = 0.37237 0.39669
# Poissons Ratio (z) = 0.09859 0.29340
#
# Static dielectric constant tensor:
#      x y z
#    x 4.142550 0.000000 0.000000 
#    y 0.000000 3.680620 0.000000 
#    z 0.000000 0.000000 3.865220 
# 
# 
# High freq. dielectric constant tensor:
#      x y z
#    x 1.840220 0.000000 0.000000 
#    y 0.000000 1.817740 0.000000 
#    z 0.000000 0.000000 1.837590 
# 
# From -- ./inp_files/55269.got.cif
#   From: 2010.03.12/outbox.cif.g09.slc.cpg/sg74_28_cif.got.tgz:55269.got - 2010.04.16 15:46:19.
