data_PCOD8298100
_publ_section_title
;
Structure prediction by ZEFSAII (Michael W. Deem and Ramdas Pophale) SiO2 
 PCOD8298100
Probable space group: I M M A
;
_chemical_formula_sum "Si O2"
_cell_formula_units_Z 72
_cell_length_a 15.866289
_cell_length_b 17.788251
_cell_length_c 12.759735
_cell_angle_alpha 90.000000
_cell_angle_beta 90.000000
_cell_angle_gamma 90.000000
_cell_volume 3601.225066
_symmetry_space_group_name_H-M "I M M A"
_symmetry_group_IT_number 74
_symmetry_cell_setting 'orthorhombic'
loop_
_space_group_symop_operation_xyz
x,y,z
-x,1/2-y,z
x,-y,-z
-x,1/2+y,-z
-x,-y,-z
x,1/2+y,-z
-x,y,z
x,1/2-y,z
1/2+x,1/2+y,1/2+z
1/2-x,-y,1/2+z
1/2+x,1/2-y,1/2-z
1/2-x,y,1/2-z
1/2-x,1/2-y,1/2-z
1/2+x,y,1/2-z
1/2-x,1/2+y,1/2+z
1/2+x,-y,1/2+z
loop_
_atom_site_type_symbol
_atom_site_label
_atom_site_fract_x
_atom_site_fract_y
_atom_site_fract_z
Si Si1 0.758814 0.665659 0.570370
Si Si2 0.178813 0.334947 0.661358
Si Si3 0.095024 0.051390 0.787843
Si Si4 0.250000 0.943594 0.750000
Si Si5 0.907326 0.833101 0.026742
O O1 0.788714 0.750000 0.600470
O O2 0.788452 0.643690 0.453805
O O3 0.789902 0.607249 0.657342
O O4 0.657146 0.659549 0.569346
O O5 0.144410 0.250000 0.662907
O O6 0.250000 0.346826 0.750000
O O7 0.104353 0.393545 0.687278
O O8 0.107084 0.101865 0.890145
O O9 0.000000 0.016199 0.784917
O O10 0.169942 0.990714 0.790451
O O11 0.893588 0.750000 0.080424
O O12 0.000000 0.839164 0.977140
#
# Coordination Sequence:
#
# PCOD8298100 Si02
#       5
#    16  16  16   8  16
#     4  10  21  38  61  81 107 153 197 237 285 333
#     4  10  18  35  61  87 113 143 185 238 287 331
#     4  11  22  36  58  89 120 153 184 229 294 346
#     4  12  25  40  53  80 122 160 196 228 267 340
#     4   9  17  32  58  90 115 137 180 243 301 343
#
# _framework density 19.993198
#
# number of rings (size 3 to 8) (size 9 to 14) (size 15 to 20)
#    0.000    1.778    3.333    1.000    0.000    5.778 
#    0.000    4.444    0.000    3.333    0.000    0.000 
#    0.000    0.000    0.000    0.000    0.000    0.000 
#
# Total GULP energy -446088.885844 kJ/mol
# GULP energy per Si atom -12391.357940 kJ/mol
# Density = 1.994769 g / cm^3
# Si number density = 19.993198 Si / 1000 Ang^3
#
#
#
# Elastic Constant Matrix: (Units=GPa)
#
#
# Indices 1 2 3 4 5 6 
#
# 1 65.7234 25.0780 -4.2647 0.0000 0.0000 0.0000
# 2 25.0780 87.7605 33.2955 0.0000 0.0000 0.0000
# 3 -4.2647 33.2955 69.8338 0.0000 0.0000 0.0000
# 4 0.0000 0.0000 0.0000 21.3304 0.0000 0.0000
# 5 0.0000 0.0000 0.0000 0.0000 15.2428 0.0000
# 6 0.0000 0.0000 0.0000 0.0000 0.0000 20.6246
#
#
#
# Elastic Compliance Matrix: (Units=1/GPa)
#
#
# Indices 1 2 3 4 5 6 
#
# 1 0.018103 -0.006828 0.004361 0.000000 0.000000 0.000000
# 2 -0.006828 0.016486 -0.008277 0.000000 0.000000 0.000000
# 3 0.004361 -0.008277 0.018532 0.000000 0.000000 0.000000
# 4 0.000000 0.000000 0.000000 0.046881 0.000000 0.000000
# 5 0.000000 0.000000 0.000000 0.000000 0.065605 0.000000
# 6 0.000000 0.000000 0.000000 0.000000 0.000000 0.048486
#
#
# Mechanical properties :
#
#
# Convention : Reuss Voigt Hill
#
# Bulk Modulus (GPa) = 31.61160 36.83727 34.22443
# Shear Modulus (GPa) = 20.31477 22.72016 21.51747
#
# Velocity S-wave (km/s) = 3.19107 3.37470 3.28417
# Velocity P-wave (km/s) = 5.42427 5.80084 5.61571
#
# Compressibility (1/GPa) = 0.03163396
#
# Stress axis : x y z
#
# Youngs Moduli (GPa) = 55.23809 60.65773 53.95948
#
# Poissons Ratio (x) = 0.41415 -0.23531
# Poissons Ratio (y) = 0.37714 0.44663
# Poissons Ratio (z) = -0.24088 0.50207
#
# Static dielectric constant tensor:
#      x y z
#    x 3.782400 0.000000 0.000000 
#    y 0.000000 3.785370 0.000000 
#    z 0.000000 0.000000 3.343960 
# 
# 
# High freq. dielectric constant tensor:
#      x y z
#    x 1.764400 0.000000 0.000000 
#    y 0.000000 1.785070 0.000000 
#    z 0.000000 0.000000 1.753860 
# 
# From -- ./inp_files/21869.got.cif
#   From: 2010.03.12/outbox.cif.g09.slc.cpg/sg74_11_cif.got.tgz:21869.got - 2010.04.16 15:46:19.
