data_PCOD8298354
_publ_section_title
;
Structure prediction by ZEFSAII (Michael W. Deem and Ramdas Pophale) SiO2 
 PCOD8298354
Probable space group: I M M A
;
_chemical_formula_sum "Si O2"
_cell_formula_units_Z 112
_cell_length_a 16.914678
_cell_length_b 22.422377
_cell_length_c 16.677528
_cell_angle_alpha 90.000000
_cell_angle_beta 90.000000
_cell_angle_gamma 90.000000
_cell_volume 6325.240798
_symmetry_space_group_name_H-M "I M M A"
_symmetry_group_IT_number 74
_symmetry_cell_setting 'orthorhombic'
loop_
_space_group_symop_operation_xyz
x,y,z
-x,1/2-y,z
x,-y,-z
-x,1/2+y,-z
-x,-y,-z
x,1/2+y,-z
-x,y,z
x,1/2-y,z
1/2+x,1/2+y,1/2+z
1/2-x,-y,1/2+z
1/2+x,1/2-y,1/2-z
1/2-x,y,1/2-z
1/2-x,1/2-y,1/2-z
1/2+x,y,1/2-z
1/2-x,1/2+y,1/2+z
1/2+x,-y,1/2+z
loop_
_atom_site_type_symbol
_atom_site_label
_atom_site_fract_x
_atom_site_fract_y
_atom_site_fract_z
Si Si1 0.819258 0.398676 0.190496
Si Si2 0.675231 0.375176 0.583311
Si Si3 0.413805 0.613955 0.262107
Si Si4 0.406228 0.679742 0.568765
Si Si5 0.589147 0.012339 0.204705
Si Si6 0.198595 0.185284 0.669731
Si Si7 0.263027 0.498538 0.908050
O O1 0.750000 0.375890 0.250000
O O2 0.861531 0.342060 0.149106
O O3 0.885630 0.430309 0.244554
O O4 0.784390 0.443553 0.123225
O O5 0.616626 0.358618 0.655119
O O6 0.629387 0.361710 0.501556
O O7 0.751042 0.331943 0.590981
O O8 0.704715 0.442313 0.600226
O O9 0.500000 0.640229 0.250905
O O10 0.412139 0.542563 0.266370
O O11 0.368304 0.636125 0.182856
O O12 0.500000 0.667875 0.575501
O O13 0.389233 0.750000 0.554925
O O14 0.500000 0.022349 0.169024
O O15 0.653542 0.995276 0.137636
O O16 0.160900 0.250000 0.654378
O O17 0.250000 0.185177 0.750000
O O18 0.287214 0.500000 0.000000
#
# Coordination Sequence:
#
# PCOD8298354 Si02
#       7
#    16  16  16  16  16  16  16
#     4  10  21  37  60  85 109 141 181 227 276 330
#     4  11  19  34  52  78 108 145 178 220 266 323
#     4  10  19  30  49  76 107 142 180 222 263 307
#     4  11  24  40  57  81 113 145 181 227 277 328
#     4  10  20  34  54  81 111 140 176 225 276 320
#     4   9  18  30  47  69 100 144 186 217 250 304
#     4  11  20  34  56  82 108 140 179 222 269 328
#
# _framework density 17.706835999999999
#
# number of rings (size 3 to 8) (size 9 to 14) (size 15 to 20)
#    0.000    1.714    4.286    1.286    0.000    1.429 
#    0.000    0.714    0.000    0.000    0.000    0.000 
#    0.000    1.429    0.000    0.000    0.000    0.000 
#
# Total GULP energy -693895.290796 kJ/mol
# GULP energy per Si atom -12390.987336 kJ/mol
# Density = 1.766653 g / cm^3
# Si number density = 17.706836 Si / 1000 Ang^3
#
#
#
# Elastic Constant Matrix: (Units=GPa)
#
#
# Indices 1 2 3 4 5 6 
#
# 1 129.2043 42.6063 47.9884 0.0000 0.0000 0.0000
# 2 42.6063 63.1570 19.8785 0.0000 0.0000 0.0000
# 3 47.9884 19.8785 83.3264 0.0000 0.0000 0.0000
# 4 0.0000 0.0000 0.0000 22.2598 0.0000 0.0000
# 5 0.0000 0.0000 0.0000 0.0000 24.2853 0.0000
# 6 0.0000 0.0000 0.0000 0.0000 0.0000 17.8745
#
#
#
# Elastic Compliance Matrix: (Units=1/GPa)
#
#
# Indices 1 2 3 4 5 6 
#
# 1 0.011772 -0.006279 -0.005282 0.000000 0.000000 0.000000
# 2 -0.006279 0.020468 -0.001267 0.000000 0.000000 0.000000
# 3 -0.005282 -0.001267 0.015345 0.000000 0.000000 0.000000
# 4 0.000000 0.000000 0.000000 0.044924 0.000000 0.000000
# 5 0.000000 0.000000 0.000000 0.000000 0.041177 0.000000
# 6 0.000000 0.000000 0.000000 0.000000 0.000000 0.055946
#
#
# Mechanical properties :
#
#
# Convention : Reuss Voigt Hill
#
# Bulk Modulus (GPa) = 45.59928 55.18158 50.39043
# Shear Modulus (GPa) = 22.46212 23.89821 23.18016
#
# Velocity S-wave (km/s) = 3.56554 3.67776 3.62209
# Velocity P-wave (km/s) = 6.53904 7.01899 6.78326
#
# Compressibility (1/GPa) = 0.02193017
#
# Stress axis : x y z
#
# Youngs Moduli (GPa) = 84.94771 48.85625 65.16816
#
# Poissons Ratio (x) = 0.30677 0.34419
# Poissons Ratio (y) = 0.53340 0.08255
# Poissons Ratio (z) = 0.44866 0.06189
#
# Static dielectric constant tensor:
#      x y z
#    x 3.418130 0.000000 0.000000 
#    y 0.000000 3.235390 0.000000 
#    z 0.000000 0.000000 3.145590 
# 
# 
# High freq. dielectric constant tensor:
#      x y z
#    x 1.690850 0.000000 0.000000 
#    y 0.000000 1.677370 0.000000 
#    z 0.000000 0.000000 1.665240 
# 
# From -- ./inp_files/32915.got.cif
#   From: 2010.03.12/outbox.cif.g09.slc.cpg/sg74_17_cif.got.tgz:32915.got - 2010.04.16 15:46:19.
