data_PCOD8298685
_publ_section_title
;
Structure prediction by ZEFSAII (Michael W. Deem and Ramdas Pophale) SiO2 
 PCOD8298685
Probable space group: I M M A
;
_chemical_formula_sum "Si O2"
_cell_formula_units_Z 96
_cell_length_a 8.993791
_cell_length_b 18.385039
_cell_length_c 29.336608
_cell_angle_alpha 90.000000
_cell_angle_beta 90.000000
_cell_angle_gamma 90.000000
_cell_volume 4850.843287
_symmetry_space_group_name_H-M "I M M A"
_symmetry_group_IT_number 74
_symmetry_cell_setting 'orthorhombic'
loop_
_space_group_symop_operation_xyz
x,y,z
-x,1/2-y,z
x,-y,-z
-x,1/2+y,-z
-x,-y,-z
x,1/2+y,-z
-x,y,z
x,1/2-y,z
1/2+x,1/2+y,1/2+z
1/2-x,-y,1/2+z
1/2+x,1/2-y,1/2-z
1/2-x,y,1/2-z
1/2-x,1/2-y,1/2-z
1/2+x,y,1/2-z
1/2-x,1/2+y,1/2+z
1/2+x,-y,1/2+z
loop_
_atom_site_type_symbol
_atom_site_label
_atom_site_fract_x
_atom_site_fract_y
_atom_site_fract_z
Si Si1 0.322770 0.473873 0.298009
Si Si2 0.325281 0.502235 0.450160
Si Si3 0.332214 0.136264 0.067408
Si Si4 0.323378 0.750000 0.393763
Si Si5 0.323962 0.594371 0.369063
Si Si6 0.825630 0.250000 0.507890
Si Si7 0.331265 0.829711 0.831902
O O1 0.500000 0.474999 0.294495
O O2 0.250000 0.492233 0.250000
O O3 0.261349 0.538702 0.331051
O O4 0.275227 0.393486 0.314192
O O5 0.248418 0.500000 0.500000
O O6 0.500000 0.505964 0.455321
O O7 0.280197 0.429521 0.424189
O O8 0.269015 0.569369 0.419391
O O9 0.500000 0.107827 0.059828
O O10 0.322061 0.181823 0.113702
O O11 0.280414 0.180917 0.022953
O O12 0.500000 0.750000 0.399048
O O13 0.270148 0.678573 0.365070
O O14 0.261351 0.750000 0.444885
O O15 0.500000 0.589941 0.365988
O O16 0.000000 0.250000 0.518282
O O17 0.500000 0.849751 0.817371
O O18 0.286624 0.750000 0.811339
#
# Coordination Sequence:
#
# PCOD8298685 Si02
#       7
#    16  16  16   8  16   8  16
#     4  11  23  41  63  88 116 147 188 239 296 352
#     4  10  19  32  51  78 111 146 188 235 278 330
#     4  10  19  32  51  76 111 152 190 227 274 329
#     4  10  20  38  61  83 109 151 199 240 290 345
#     4   9  19  36  58  84 114 147 188 242 294 340
#     4  10  20  34  50  79 122 159 193 238 283 329
#     4  10  20  37  60  85 114 152 192 231 277 334
#
# _framework density 19.790374
#
# number of rings (size 3 to 8) (size 9 to 14) (size 15 to 20)
#    0.000    2.000    2.500    1.500    0.000    3.000 
#    0.000    2.917    0.000    0.000    0.000    0.000 
#    0.000    0.000    0.000    0.000    0.000    0.000 
#
# Total GULP energy -594768.936578 kJ/mol
# GULP energy per Si atom -12391.019512 kJ/mol
# Density = 1.974533 g / cm^3
# Si number density = 19.790374 Si / 1000 Ang^3
#
#
#
# Elastic Constant Matrix: (Units=GPa)
#
#
# Indices 1 2 3 4 5 6 
#
# 1 31.7357 30.3980 33.2255 0.0000 0.0000 0.0000
# 2 30.3980 165.3409 62.2846 0.0000 0.0000 0.0000
# 3 33.2255 62.2846 106.6926 0.0000 0.0000 0.0000
# 4 0.0000 0.0000 0.0000 23.7982 0.0000 0.0000
# 5 0.0000 0.0000 0.0000 0.0000 26.7336 0.0000
# 6 0.0000 0.0000 0.0000 0.0000 0.0000 21.1451
#
#
#
# Elastic Compliance Matrix: (Units=1/GPa)
#
#
# Indices 1 2 3 4 5 6 
#
# 1 0.048899 -0.004171 -0.012793 0.000000 0.000000 0.000000
# 2 -0.004171 0.008109 -0.003435 0.000000 0.000000 0.000000
# 3 -0.012793 -0.003435 0.015362 0.000000 0.000000 0.000000
# 4 0.000000 0.000000 0.000000 0.042020 0.000000 0.000000
# 5 0.000000 0.000000 0.000000 0.000000 0.037406 0.000000
# 6 0.000000 0.000000 0.000000 0.000000 0.000000 0.047292
#
#
# Mechanical properties :
#
#
# Convention : Reuss Voigt Hill
#
# Bulk Modulus (GPa) = 31.67352 61.73171 46.70261
# Shear Modulus (GPa) = 19.96731 26.19277 23.08004
#
# Velocity S-wave (km/s) = 3.17983 3.64196 3.41871
# Velocity P-wave (km/s) = 5.43332 6.99612 6.26365
#
# Compressibility (1/GPa) = 0.03157212
#
# Stress axis : x y z
#
# Youngs Moduli (GPa) = 20.45040 123.32168 65.09661
#
# Poissons Ratio (x) = 0.51437 0.83277
# Poissons Ratio (y) = 0.08530 0.22360
# Poissons Ratio (z) = 0.26162 0.42359
#
# Static dielectric constant tensor:
#      x y z
#    x 3.291540 0.000000 0.000000 
#    y 0.000000 3.856500 0.000000 
#    z 0.000000 0.000000 3.684370 
# 
# 
# High freq. dielectric constant tensor:
#      x y z
#    x 1.742410 0.000000 0.000000 
#    y 0.000000 1.781140 0.000000 
#    z 0.000000 0.000000 1.764840 
# 
# From -- ./inp_files/71839.got.cif
#   From: 2010.03.12/outbox.cif.g09.slc.cpg/sg74_36_cif.got.tgz:71839.got - 2010.04.16 15:46:19.
