data_PCOD8298787
_publ_section_title
;
Structure prediction by ZEFSAII (Michael W. Deem and Ramdas Pophale) SiO2 
 PCOD8298787
Probable space group: I M M A
;
_chemical_formula_sum "Si O2"
_cell_formula_units_Z 112
_cell_length_a 15.117079
_cell_length_b 14.337900
_cell_length_c 25.009889
_cell_angle_alpha 90.000000
_cell_angle_beta 90.000000
_cell_angle_gamma 90.000000
_cell_volume 5420.822588
_symmetry_space_group_name_H-M "I M M A"
_symmetry_group_IT_number 74
_symmetry_cell_setting 'orthorhombic'
loop_
_space_group_symop_operation_xyz
x,y,z
-x,1/2-y,z
x,-y,-z
-x,1/2+y,-z
-x,-y,-z
x,1/2+y,-z
-x,y,z
x,1/2-y,z
1/2+x,1/2+y,1/2+z
1/2-x,-y,1/2+z
1/2+x,1/2-y,1/2-z
1/2-x,y,1/2-z
1/2-x,1/2-y,1/2-z
1/2+x,y,1/2-z
1/2-x,1/2+y,1/2+z
1/2+x,-y,1/2+z
loop_
_atom_site_type_symbol
_atom_site_label
_atom_site_fract_x
_atom_site_fract_y
_atom_site_fract_z
Si Si1 0.188226 0.645631 0.903762
Si Si2 0.309195 0.353376 0.197937
Si Si3 0.239556 0.144287 0.978889
Si Si4 0.601794 0.542179 0.409240
Si Si5 0.897708 0.957983 0.300815
Si Si6 0.394668 0.355333 0.697431
Si Si7 0.399329 0.141169 0.906105
O O1 0.146526 0.750000 0.901057
O O2 0.251463 0.627444 0.854138
O O3 0.110101 0.569562 0.902528
O O4 0.246511 0.633558 0.957349
O O5 0.352532 0.250000 0.195416
O O6 0.250000 0.362722 0.250000
O O7 0.385123 0.430814 0.200614
O O8 0.215493 0.250000 0.962338
O O9 0.161469 0.077840 0.958017
O O10 0.335505 0.115938 0.955642
O O11 0.500000 0.566867 0.421571
O O12 0.637367 0.592170 0.355774
O O13 0.854031 0.909301 0.248740
O O14 0.859062 0.913174 0.354963
O O15 0.000000 0.934140 0.300026
O O16 0.500000 0.356678 0.699473
O O17 0.358124 0.250000 0.696846
O O18 0.500000 0.109873 0.920236
O O19 0.397313 0.250000 0.892271
#
# Coordination Sequence:
#
# PCOD8298787 Si02
#       7
#    16  16  16  16  16  16  16
#     4  10  22  39  57  78 107 145 188 233 280 328
#     4  10  21  38  58  77 102 141 186 232 281 331
#     4  10  21  37  57  82 114 150 187 230 279 331
#     4  11  22  36  57  83 113 151 189 229 279 331
#     4  10  19  32  54  83 112 143 180 227 281 331
#     4   9  18  33  53  80 114 147 179 219 271 332
#     4   9  18  34  57  85 116 150 187 226 273 331
#
# _framework density 20.661069999999999
#
# number of rings (size 3 to 8) (size 9 to 14) (size 15 to 20)
#    0.000    2.143    0.000    3.000    0.000    4.286 
#    0.000    2.143    0.000   15.429    0.000    0.000 
#    0.000    0.000    0.000    0.000    0.000    0.000 
#
# Total GULP energy -694394.771970 kJ/mol
# GULP energy per Si atom -12399.906642 kJ/mol
# Density = 2.061404 g / cm^3
# Si number density = 20.661070 Si / 1000 Ang^3
#
#
#
# Elastic Constant Matrix: (Units=GPa)
#
#
# Indices 1 2 3 4 5 6 
#
# 1 54.7857 30.7747 36.5155 0.0000 0.0000 0.0000
# 2 30.7747 129.6173 43.5932 0.0000 0.0000 0.0000
# 3 36.5155 43.5932 143.4599 0.0000 0.0000 0.0000
# 4 0.0000 0.0000 0.0000 -2.9487 0.0000 0.0000
# 5 0.0000 0.0000 0.0000 0.0000 19.1046 0.0000
# 6 0.0000 0.0000 0.0000 0.0000 0.0000 33.6234
#
#
#
# Elastic Compliance Matrix: (Units=1/GPa)
#
#
# Indices 1 2 3 4 5 6 
#
# 1 0.023717 -0.004011 -0.004818 0.000000 0.000000 0.000000
# 2 -0.004011 0.009271 -0.001796 0.000000 0.000000 0.000000
# 3 -0.004818 -0.001796 0.008743 0.000000 0.000000 0.000000
# 4 0.000000 0.000000 0.000000 -0.339127 0.000000 0.000000
# 5 0.000000 0.000000 0.000000 0.000000 0.052343 0.000000
# 6 0.000000 0.000000 0.000000 0.000000 0.000000 0.029741
#
#
# Mechanical properties :
#
#
# Convention : Reuss Voigt Hill
#
# Bulk Modulus (GPa) = 48.82571 61.06993 54.94782
# Shear Modulus (GPa) = -26.70461 24.42114 -1.14173
#
# Velocity S-wave (km/s) = -3.59905 3.44174 -0.74418
# Velocity P-wave (km/s) = 2.53223 6.73915 5.09060
#
# Compressibility (1/GPa) = 0.02048101
#
# Stress axis : x y z
#
# Youngs Moduli (GPa) = 42.16349 107.85795 114.37908
#
# Poissons Ratio (x) = 0.43258 0.55109
# Poissons Ratio (y) = 0.16910 0.20548
# Poissons Ratio (z) = 0.20315 0.19376
#
# Static dielectric constant tensor:
#      x y z
#    x 3.362130 0.000000 0.000000 
#    y 0.000000 3.987780 0.000000 
#    z 0.000000 0.000000 3.954440 
# 
# 
# High freq. dielectric constant tensor:
#      x y z
#    x 1.774720 0.000000 0.000000 
#    y 0.000000 1.821960 0.000000 
#    z 0.000000 0.000000 1.820890 
# 
# From -- ./inp_files/60091.got.cif
#   From: 2010.03.12/outbox.cif.g09.slc.cpg/sg74_31_cif.got.tgz:60091.got - 2010.04.16 15:46:19.
