data_PCOD8298735
_publ_section_title
;
Structure prediction by ZEFSAII (Michael W. Deem and Ramdas Pophale) SiO2 
 PCOD8298735
Probable space group: I M M A
;
_chemical_formula_sum "Si O2"
_cell_formula_units_Z 80
_cell_length_a 13.615725
_cell_length_b 14.942067
_cell_length_c 18.062763
_cell_angle_alpha 90.000000
_cell_angle_beta 90.000000
_cell_angle_gamma 90.000000
_cell_volume 3674.816302
_symmetry_space_group_name_H-M "I M M A"
_symmetry_group_IT_number 74
_symmetry_cell_setting 'orthorhombic'
loop_
_space_group_symop_operation_xyz
x,y,z
-x,1/2-y,z
x,-y,-z
-x,1/2+y,-z
-x,-y,-z
x,1/2+y,-z
-x,y,z
x,1/2-y,z
1/2+x,1/2+y,1/2+z
1/2-x,-y,1/2+z
1/2+x,1/2-y,1/2-z
1/2-x,y,1/2-z
1/2-x,1/2-y,1/2-z
1/2+x,y,1/2-z
1/2-x,1/2+y,1/2+z
1/2+x,-y,1/2+z
loop_
_atom_site_type_symbol
_atom_site_label
_atom_site_fract_x
_atom_site_fract_y
_atom_site_fract_z
Si Si1 0.891624 0.095876 0.462463
Si Si2 0.386191 0.350092 0.200037
Si Si3 0.314405 0.152184 0.472310
Si Si4 0.617586 0.461575 0.337258
Si Si5 0.112778 0.653206 0.131939
O O1 0.869698 0.091832 0.374128
O O2 0.801155 0.150604 0.497099
O O3 0.000000 0.141126 0.474955
O O4 0.892873 0.000000 0.500000
O O5 0.500000 0.339680 0.217452
O O6 0.339706 0.250000 0.192085
O O7 0.339148 0.403607 0.269276
O O8 0.338561 0.250000 0.438735
O O9 0.337773 0.076539 0.412855
O O10 0.379174 0.135518 0.544403
O O11 0.500000 0.458727 0.342167
O O12 0.655200 0.564785 0.327112
O O13 0.163580 0.750000 0.152993
O O14 0.000000 0.661601 0.153310
#
# Coordination Sequence:
#
# PCOD8298735 Si02
#       5
#    16  16  16  16  16
#     4  10  21  37  55  73  98 135 177 219 262 308
#     4   9  18  33  53  78 107 136 168 212 265 315
#     4  11  21  32  51  78 107 141 180 216 255 309
#     4  10  19  32  52  79 112 143 170 208 260 318
#     4   9  18  32  51  77 109 143 176 211 253 306
#
# _framework density 21.769794999999998
#
# number of rings (size 3 to 8) (size 9 to 14) (size 15 to 20)
#    0.000    2.200    0.000    3.600    0.000    5.600 
#    0.000    2.000    0.000    2.400    0.000   18.200 
#    0.000    0.000    0.000    0.000    0.000    0.000 
#
# Total GULP energy -495526.973524 kJ/mol
# GULP energy per Si atom -12388.174338 kJ/mol
# Density = 2.172025 g / cm^3
# Si number density = 21.769795 Si / 1000 Ang^3
#
#
#
# Elastic Constant Matrix: (Units=GPa)
#
#
# Indices 1 2 3 4 5 6 
#
# 1 35.7903 16.6481 -5.9476 0.0000 0.0000 0.0000
# 2 16.6481 189.7544 69.6393 0.0000 0.0000 0.0000
# 3 -5.9476 69.6393 73.7228 0.0000 0.0000 0.0000
# 4 0.0000 0.0000 0.0000 24.1072 0.0000 0.0000
# 5 0.0000 0.0000 0.0000 0.0000 11.8025 0.0000
# 6 0.0000 0.0000 0.0000 0.0000 0.0000 15.2969
#
#
#
# Elastic Compliance Matrix: (Units=1/GPa)
#
#
# Indices 1 2 3 4 5 6 
#
# 1 0.031937 -0.005736 0.007995 0.000000 0.000000 0.000000
# 2 -0.005736 0.009097 -0.009055 0.000000 0.000000 0.000000
# 3 0.007995 -0.009055 0.022763 0.000000 0.000000 0.000000
# 4 0.000000 0.000000 0.000000 0.041481 0.000000 0.000000
# 5 0.000000 0.000000 0.000000 0.000000 0.084728 0.000000
# 6 0.000000 0.000000 0.000000 0.000000 0.000000 0.065373
#
#
# Mechanical properties :
#
#
# Convention : Reuss Voigt Hill
#
# Bulk Modulus (GPa) = 19.91880 51.10522 35.51201
# Shear Modulus (GPa) = 17.50045 24.83651 21.16848
#
# Velocity S-wave (km/s) = 2.83837 3.38134 3.12168
# Velocity P-wave (km/s) = 4.46222 6.22663 5.41674
#
# Compressibility (1/GPa) = 0.05020383
#
# Stress axis : x y z
#
# Youngs Moduli (GPa) = 31.31128 109.93180 43.93061
#
# Poissons Ratio (x) = 0.63059 -0.35122
# Poissons Ratio (y) = 0.17961 0.39781
# Poissons Ratio (z) = -0.25033 0.99548
#
# Static dielectric constant tensor:
#      x y z
#    x 4.123890 0.000000 0.000000 
#    y 0.000000 4.445580 0.000000 
#    z 0.000000 0.000000 3.642660 
# 
# 
# High freq. dielectric constant tensor:
#      x y z
#    x 1.853510 0.000000 0.000000 
#    y 0.000000 1.864330 0.000000 
#    z 0.000000 0.000000 1.821460 
# 
# From -- ./inp_files/42686.got.cif
#   From: 2010.03.12/outbox.cif.g09.slc.cpg/sg74_22_cif.got.tgz:42686.got - 2010.04.16 15:46:19.
