data_PCOD8298444
_publ_section_title
;
Structure prediction by ZEFSAII (Michael W. Deem and Ramdas Pophale) SiO2 
 PCOD8298444
Probable space group: I M M A
;
_chemical_formula_sum "Si O2"
_cell_formula_units_Z 104
_cell_length_a 9.704319
_cell_length_b 21.764252
_cell_length_c 27.721326
_cell_angle_alpha 90.000000
_cell_angle_beta 90.000000
_cell_angle_gamma 90.000000
_cell_volume 5854.944870
_symmetry_space_group_name_H-M "I M M A"
_symmetry_group_IT_number 74
_symmetry_cell_setting 'orthorhombic'
loop_
_space_group_symop_operation_xyz
x,y,z
-x,1/2-y,z
x,-y,-z
-x,1/2+y,-z
-x,-y,-z
x,1/2+y,-z
-x,y,z
x,1/2-y,z
1/2+x,1/2+y,1/2+z
1/2-x,-y,1/2+z
1/2+x,1/2-y,1/2-z
1/2-x,y,1/2-z
1/2-x,1/2-y,1/2-z
1/2+x,y,1/2-z
1/2-x,1/2+y,1/2+z
1/2+x,-y,1/2+z
loop_
_atom_site_type_symbol
_atom_site_label
_atom_site_fract_x
_atom_site_fract_y
_atom_site_fract_z
Si Si1 0.156795 0.430336 0.482471
Si Si2 0.291180 0.177997 0.642387
Si Si3 0.654795 0.250000 0.294974
Si Si4 0.659963 0.115061 0.298604
Si Si5 0.500000 0.822096 0.278828
Si Si6 0.849588 0.585564 0.065338
Si Si7 0.660703 0.454134 0.394729
Si Si8 0.500000 0.822936 0.173446
O O1 0.158420 0.500000 0.500000
O O2 0.238239 0.395657 0.524970
O O3 0.240124 0.419510 0.432895
O O4 0.000000 0.405814 0.476881
O O5 0.307881 0.250000 0.633373
O O6 0.363077 0.158395 0.692406
O O7 0.365115 0.144412 0.598911
O O8 0.133389 0.155555 0.644197
O O9 0.500000 0.250000 0.275447
O O10 0.750000 0.250000 0.250000
O O11 0.681926 0.184388 0.321645
O O12 0.500000 0.105200 0.284366
O O13 0.750000 0.104283 0.250000
O O14 0.703161 0.067098 0.340653
O O15 0.500000 0.750000 0.270915
O O16 0.500000 0.853984 0.226513
O O17 0.810264 0.526700 0.098445
O O18 0.000000 0.573239 0.041200
O O19 0.500000 0.437588 0.404278
O O20 0.500000 0.750000 0.179032
#
# Coordination Sequence:
#
# PCOD8298444 Si02
#       8
#    16  16   8  16   8  16  16   8
#     4   9  18  32  52  76  94 119 161 208 245 289
#     4  10  19  31  49  71  95 128 167 206 252 298
#     4   8  14  26  46  72  96 126 164 194 224 270
#     4   9  17  30  50  75 104 134 164 196 234 284
#     4   9  16  30  48  66  89 122 168 211 237 286
#     4  10  19  32  51  71  97 127 167 207 248 295
#     4   9  18  33  52  72  99 131 165 200 244 289
#     4   9  18  30  46  68  93 124 164 209 255 288
#
# _framework density 17.762763
#
# number of rings (size 3 to 8) (size 9 to 14) (size 15 to 20)
#    0.000    2.769    0.769    0.923    1.077    4.308 
#    0.000    1.538    1.692    0.000    0.000    0.000 
#    0.000    0.000    0.000    0.000    0.000    0.000 
#
# Total GULP energy -644196.654290 kJ/mol
# GULP energy per Si atom -12388.397198 kJ/mol
# Density = 1.772233 g / cm^3
# Si number density = 17.762763 Si / 1000 Ang^3
#
#
#
# Elastic Constant Matrix: (Units=GPa)
#
#
# Indices 1 2 3 4 5 6 
#
# 1 105.4917 26.6519 49.1006 0.0000 0.0000 0.0000
# 2 26.6519 44.2215 37.7208 0.0000 0.0000 0.0000
# 3 49.1006 37.7208 107.6894 0.0000 0.0000 0.0000
# 4 0.0000 0.0000 0.0000 19.4282 0.0000 0.0000
# 5 0.0000 0.0000 0.0000 0.0000 35.4365 0.0000
# 6 0.0000 0.0000 0.0000 0.0000 0.0000 14.5915
#
#
#
# Elastic Compliance Matrix: (Units=1/GPa)
#
#
# Indices 1 2 3 4 5 6 
#
# 1 0.012465 -0.003800 -0.004352 0.000000 0.000000 0.000000
# 2 -0.003800 0.033407 -0.009969 0.000000 0.000000 0.000000
# 3 -0.004352 -0.009969 0.014762 0.000000 0.000000 0.000000
# 4 0.000000 0.000000 0.000000 0.051472 0.000000 0.000000
# 5 0.000000 0.000000 0.000000 0.000000 0.028220 0.000000
# 6 0.000000 0.000000 0.000000 0.000000 0.000000 0.068533
#
#
# Mechanical properties :
#
#
# Convention : Reuss Voigt Hill
#
# Bulk Modulus (GPa) = 40.99748 53.81658 47.40703
# Shear Modulus (GPa) = 19.74465 23.48651 21.61558
#
# Velocity S-wave (km/s) = 3.33765 3.64020 3.49220
# Velocity P-wave (km/s) = 6.16311 6.93046 6.55801
#
# Compressibility (1/GPa) = 0.02439174
#
# Stress axis : x y z
#
# Youngs Moduli (GPa) = 80.22253 29.93357 67.73996
#
# Poissons Ratio (x) = 0.11375 0.29483
# Poissons Ratio (y) = 0.30486 0.67530
# Poissons Ratio (z) = 0.34916 0.29841
#
# Static dielectric constant tensor:
#      x y z
#    x 3.564370 0.000000 0.000000 
#    y 0.000000 3.266530 0.000000 
#    z 0.000000 0.000000 2.840990 
# 
# 
# High freq. dielectric constant tensor:
#      x y z
#    x 1.702620 0.000000 0.000000 
#    y 0.000000 1.650540 0.000000 
#    z 0.000000 0.000000 1.669700 
# 
# From -- ./inp_files/64537.got.cif
#   From: 2010.03.12/outbox.cif.g09.slc.cpg/sg74_33_cif.got.tgz:64537.got - 2010.04.16 15:46:19.
