data_PCOD8298697
_publ_section_title
;
Structure prediction by ZEFSAII (Michael W. Deem and Ramdas Pophale) SiO2 
 PCOD8298697
Probable space group: I M M A
;
_chemical_formula_sum "Si O2"
_cell_formula_units_Z 88
_cell_length_a 10.294979
_cell_length_b 22.244304
_cell_length_c 21.032667
_cell_angle_alpha 90.000000
_cell_angle_beta 90.000000
_cell_angle_gamma 90.000000
_cell_volume 4816.578388
_symmetry_space_group_name_H-M "I M M A"
_symmetry_group_IT_number 74
_symmetry_cell_setting 'orthorhombic'
loop_
_space_group_symop_operation_xyz
x,y,z
-x,1/2-y,z
x,-y,-z
-x,1/2+y,-z
-x,-y,-z
x,1/2+y,-z
-x,y,z
x,1/2-y,z
1/2+x,1/2+y,1/2+z
1/2-x,-y,1/2+z
1/2+x,1/2-y,1/2-z
1/2-x,y,1/2-z
1/2-x,1/2-y,1/2-z
1/2+x,y,1/2-z
1/2-x,1/2+y,1/2+z
1/2+x,-y,1/2+z
loop_
_atom_site_type_symbol
_atom_site_label
_atom_site_fract_x
_atom_site_fract_y
_atom_site_fract_z
Si Si1 0.250000 0.908908 0.750000
Si Si2 0.855575 0.015200 0.134789
Si Si3 0.644803 0.181675 0.153671
Si Si4 0.151294 0.893313 0.081836
Si Si5 0.144090 0.179083 0.797573
Si Si6 0.149142 0.869164 0.943141
O O1 0.191479 0.954285 0.800818
O O2 0.348303 0.864143 0.786612
O O3 0.848458 0.061822 0.077575
O O4 0.000000 0.994319 0.150776
O O5 0.782366 0.954484 0.110413
O O6 0.500000 0.173714 0.124109
O O7 0.663547 0.250000 0.178183
O O8 0.755421 0.169786 0.100951
O O9 0.177825 0.840092 0.131135
O O10 0.000000 0.905756 0.068816
O O11 0.207715 0.870044 0.014584
O O12 0.149976 0.250000 0.794871
O O13 0.250000 0.150466 0.750000
O O14 0.000000 0.155914 0.778178
O O15 0.000000 0.843867 0.938482
#
# Coordination Sequence:
#
# PCOD8298697 Si02
#       6
#     8  16  16  16  16  16
#     4  10  19  32  52  74 103 138 176 212 248 308
#     4   9  17  29  48  74 101 131 167 210 253 297
#     4  10  21  36  53  75 107 142 173 211 260 306
#     4   9  17  30  51  75  99 129 169 209 251 300
#     4   9  18  32  49  69  96 127 160 202 249 296
#     4   9  18  33  53  76 101 131 170 212 252 299
#
# _framework density 18.270230999999999
#
# number of rings (size 3 to 8) (size 9 to 14) (size 15 to 20)
#    0.000    2.727    0.000    1.364    1.273    4.000 
#    0.000    2.727    0.000   12.000    0.000    0.000 
#    0.000    0.000    0.000    0.000    0.000    0.000 
#
# Total GULP energy -545105.555529 kJ/mol
# GULP energy per Si atom -12388.762626 kJ/mol
# Density = 1.822865 g / cm^3
# Si number density = 18.270231 Si / 1000 Ang^3
#
#
#
# Elastic Constant Matrix: (Units=GPa)
#
#
# Indices 1 2 3 4 5 6 
#
# 1 77.4528 21.3625 45.5510 0.0000 0.0000 0.0000
# 2 21.3625 21.9744 12.5685 0.0000 0.0000 0.0000
# 3 45.5510 12.5685 124.8541 0.0000 0.0000 0.0000
# 4 0.0000 0.0000 0.0000 22.3843 0.0000 0.0000
# 5 0.0000 0.0000 0.0000 0.0000 21.7344 0.0000
# 6 0.0000 0.0000 0.0000 0.0000 0.0000 15.0158
#
#
#
# Elastic Compliance Matrix: (Units=1/GPa)
#
#
# Indices 1 2 3 4 5 6 
#
# 1 0.021167 -0.017148 -0.005996 0.000000 0.000000 0.000000
# 2 -0.017148 0.062180 -0.000003 0.000000 0.000000 0.000000
# 3 -0.005996 -0.000003 0.010197 0.000000 0.000000 0.000000
# 4 0.000000 0.000000 0.000000 0.044674 0.000000 0.000000
# 5 0.000000 0.000000 0.000000 0.000000 0.046010 0.000000
# 6 0.000000 0.000000 0.000000 0.000000 0.000000 0.066596
#
#
# Mechanical properties :
#
#
# Convention : Reuss Voigt Hill
#
# Bulk Modulus (GPa) = 21.16432 42.58283 31.87358
# Shear Modulus (GPa) = 15.98106 21.48021 18.73064
#
# Velocity S-wave (km/s) = 2.96075 3.43256 3.20535
# Velocity P-wave (km/s) = 4.82672 6.25042 5.58413
#
# Compressibility (1/GPa) = 0.04724933
#
# Stress axis : x y z
#
# Youngs Moduli (GPa) = 47.24265 16.08231 98.06495
#
# Poissons Ratio (x) = 0.27578 0.58803
# Poissons Ratio (y) = 0.81013 0.00031
# Poissons Ratio (z) = 0.28328 0.00005
#
# Static dielectric constant tensor:
#      x y z
#    x 3.323000 0.000000 0.000000 
#    y 0.000000 3.386330 0.000000 
#    z 0.000000 0.000000 3.491310 
# 
# 
# High freq. dielectric constant tensor:
#      x y z
#    x 1.673600 0.000000 0.000000 
#    y 0.000000 1.712820 0.000000 
#    z 0.000000 0.000000 1.712520 
# 
# From -- ./inp_files/48727.got.cif
#   From: 2010.03.12/outbox.cif.g09.slc.cpg/sg74_25_cif.got.tgz:48727.got - 2010.04.16 15:46:19.
