data_PCOD8298147
_publ_section_title
;
Structure prediction by ZEFSAII (Michael W. Deem and Ramdas Pophale) SiO2 
 PCOD8298147
Probable space group: I M M A
;
_chemical_formula_sum "Si O2"
_cell_formula_units_Z 72
_cell_length_a 9.073894
_cell_length_b 22.807047
_cell_length_c 22.872168
_cell_angle_alpha 90.000000
_cell_angle_beta 90.000000
_cell_angle_gamma 90.000000
_cell_volume 4733.366050
_symmetry_space_group_name_H-M "I M M A"
_symmetry_group_IT_number 74
_symmetry_cell_setting 'orthorhombic'
loop_
_space_group_symop_operation_xyz
x,y,z
-x,1/2-y,z
x,-y,-z
-x,1/2+y,-z
-x,-y,-z
x,1/2+y,-z
-x,y,z
x,1/2-y,z
1/2+x,1/2+y,1/2+z
1/2-x,-y,1/2+z
1/2+x,1/2-y,1/2-z
1/2-x,y,1/2-z
1/2-x,1/2-y,1/2-z
1/2+x,y,1/2-z
1/2-x,1/2+y,1/2+z
1/2+x,-y,1/2+z
loop_
_atom_site_type_symbol
_atom_site_label
_atom_site_fract_x
_atom_site_fract_y
_atom_site_fract_z
Si Si1 0.330892 0.521217 0.310936
Si Si2 0.165832 0.091548 0.524761
Si Si3 0.324368 0.750000 0.187242
Si Si4 0.665018 0.968162 0.910913
Si Si5 0.670153 0.143954 0.625316
O O1 0.500000 0.507797 0.299915
O O2 0.250000 0.516364 0.250000
O O3 0.271220 0.471115 0.354920
O O4 0.305479 0.585576 0.337111
O O5 0.217493 0.081732 0.457343
O O6 0.278335 0.134641 0.558153
O O7 0.000000 0.117763 0.526269
O O8 0.166273 0.029789 0.556773
O O9 0.500000 0.750000 0.194235
O O10 0.250000 0.750000 0.250000
O O11 0.273769 0.692825 0.152757
O O12 0.500000 0.953771 0.889262
O O13 0.500000 0.163836 0.625550
#
# Coordination Sequence:
#
# PCOD8298147 Si02
#       5
#    16  16   8  16  16
#     4  10  19  28  40  58  81 109 139 170 205 245
#     4   8  14  26  43  61  79 102 131 164 203 244
#     4  12  24  36  48  60  78 106 141 180 217 252
#     4   8  14  25  41  59  80 104 131 163 199 241
#     4  10  20  32  45  61  80 105 138 176 213 248
#
# _framework density 15.211162
#
# number of rings (size 3 to 8) (size 9 to 14) (size 15 to 20)
#    0.000    2.667    0.000    4.333    0.000    5.333 
#    0.000    4.444    0.000    0.000    0.000    0.000 
#    0.000    0.000    0.000    1.000    0.000   13.333 
#
# Total GULP energy -446199.586959 kJ/mol
# GULP energy per Si atom -12394.432971 kJ/mol
# Density = 1.517654 g / cm^3
# Si number density = 15.211162 Si / 1000 Ang^3
#
#
#
# Elastic Constant Matrix: (Units=GPa)
#
#
# Indices 1 2 3 4 5 6 
#
# 1 119.5416 36.6557 78.3173 0.0000 0.0000 0.0000
# 2 36.6557 35.1572 40.0436 0.0000 0.0000 0.0000
# 3 78.3173 40.0436 113.9901 0.0000 0.0000 0.0000
# 4 0.0000 0.0000 0.0000 19.6034 0.0000 0.0000
# 5 0.0000 0.0000 0.0000 0.0000 31.4515 0.0000
# 6 0.0000 0.0000 0.0000 0.0000 0.0000 17.4361
#
#
#
# Elastic Compliance Matrix: (Units=1/GPa)
#
#
# Indices 1 2 3 4 5 6 
#
# 1 0.016189 -0.007019 -0.008657 0.000000 0.000000 0.000000
# 2 -0.007019 0.050458 -0.012903 0.000000 0.000000 0.000000
# 3 -0.008657 -0.012903 0.019253 0.000000 0.000000 0.000000
# 4 0.000000 0.000000 0.000000 0.051012 0.000000 0.000000
# 5 0.000000 0.000000 0.000000 0.000000 0.031795 0.000000
# 6 0.000000 0.000000 0.000000 0.000000 0.000000 0.057352
#
#
# Mechanical properties :
#
#
# Convention : Reuss Voigt Hill
#
# Bulk Modulus (GPa) = 34.79174 64.30244 49.54709
# Shear Modulus (GPa) = 17.07657 21.27636 19.17646
#
# Velocity S-wave (km/s) = 3.35421 3.74402 3.55446
# Velocity P-wave (km/s) = 6.15817 7.81378 7.03485
#
# Compressibility (1/GPa) = 0.02874245
#
# Stress axis : x y z
#
# Youngs Moduli (GPa) = 61.76922 19.81840 51.93876
#
# Poissons Ratio (x) = 0.13910 0.44965
# Poissons Ratio (y) = 0.43355 0.67017
# Poissons Ratio (z) = 0.53475 0.25572
#
# Static dielectric constant tensor:
#      x y z
#    x 3.090900 0.000000 0.000000 
#    y 0.000000 2.746730 0.000000 
#    z 0.000000 0.000000 3.208600 
# 
# 
# High freq. dielectric constant tensor:
#      x y z
#    x 1.593980 0.000000 0.000000 
#    y 0.000000 1.525300 0.000000 
#    z 0.000000 0.000000 1.584120 
# 
# From -- ./inp_files/48508.got.cif
#   From: 2010.03.12/outbox.cif.g09.slc.cpg/sg74_25_cif.got.tgz:48508.got - 2010.04.16 15:46:19.
