data_PCOD8298340
_publ_section_title
;
Structure prediction by ZEFSAII (Michael W. Deem and Ramdas Pophale) SiO2 
 PCOD8298340
Probable space group: I M M A
;
_chemical_formula_sum "Si O2"
_cell_formula_units_Z 112
_cell_length_a 25.017110
_cell_length_b 21.446766
_cell_length_c 11.811633
_cell_angle_alpha 90.000000
_cell_angle_beta 90.000000
_cell_angle_gamma 90.000000
_cell_volume 6337.367554
_symmetry_space_group_name_H-M "I M M A"
_symmetry_group_IT_number 74
_symmetry_cell_setting 'orthorhombic'
loop_
_space_group_symop_operation_xyz
x,y,z
-x,1/2-y,z
x,-y,-z
-x,1/2+y,-z
-x,-y,-z
x,1/2+y,-z
-x,y,z
x,1/2-y,z
1/2+x,1/2+y,1/2+z
1/2-x,-y,1/2+z
1/2+x,1/2-y,1/2-z
1/2-x,y,1/2-z
1/2-x,1/2-y,1/2-z
1/2+x,y,1/2-z
1/2-x,1/2+y,1/2+z
1/2+x,-y,1/2+z
loop_
_atom_site_type_symbol
_atom_site_label
_atom_site_fract_x
_atom_site_fract_y
_atom_site_fract_z
Si Si1 0.193406 0.483001 0.872834
Si Si2 0.328181 0.318006 0.517708
Si Si3 0.806954 0.382993 0.210985
Si Si4 0.273397 0.372352 0.897902
Si Si5 0.561022 0.821588 0.095205
Si Si6 0.650225 0.676556 0.920077
Si Si7 0.135329 0.625319 0.225527
O O1 0.199774 0.542540 0.791335
O O2 0.248262 0.441773 0.879998
O O3 0.144258 0.445504 0.815259
O O4 0.176420 0.500000 0.000000
O O5 0.337807 0.250000 0.467121
O O6 0.325521 0.365539 0.414638
O O7 0.273712 0.322282 0.590068
O O8 0.373570 0.334254 0.610781
O O9 0.750000 0.353446 0.250000
O O10 0.851599 0.354808 0.295778
O O11 0.310730 0.353937 0.792605
O O12 0.307602 0.366651 0.012800
O O13 0.500000 0.840587 0.073560
O O14 0.566743 0.750000 0.135869
O O15 0.584320 0.866187 0.193644
O O16 0.592141 0.830958 0.977174
O O17 0.666735 0.750000 0.915958
#
# Coordination Sequence:
#
# PCOD8298340 Si02
#       7
#    16  16  16  16  16  16  16
#     4  11  19  34  49  72 110 148 191 214 255 311
#     4  11  20  29  45  72 108 144 177 217 262 312
#     4  12  21  32  48  73 111 157 185 215 249 315
#     4  10  19  30  48  72 106 147 176 222 253 310
#     4   9  19  38  63  84 104 131 170 229 289 332
#     4  10  20  34  53  82 110 141 185 222 272 325
#     4  10  20  33  51  78 102 136 182 225 269 315
#
# _framework density 17.672953
#
# number of rings (size 3 to 8) (size 9 to 14) (size 15 to 20)
#    0.000    1.571    4.286    3.857    0.000    2.857 
#    0.000    2.143    0.000    3.000    0.000    2.000 
#    0.000    0.000    0.000    0.000    0.000    0.000 
#
# Total GULP energy -693886.973294 kJ/mol
# GULP energy per Si atom -12390.838809 kJ/mol
# Density = 1.763273 g / cm^3
# Si number density = 17.672953 Si / 1000 Ang^3
#
#
#
# Elastic Constant Matrix: (Units=GPa)
#
#
# Indices 1 2 3 4 5 6 
#
# 1 81.6450 35.9347 40.9074 0.0000 0.0000 0.0000
# 2 35.9347 101.4809 38.7497 0.0000 0.0000 0.0000
# 3 40.9074 38.7497 111.2168 0.0000 0.0000 0.0000
# 4 0.0000 0.0000 0.0000 36.1107 0.0000 0.0000
# 5 0.0000 0.0000 0.0000 0.0000 12.4881 0.0000
# 6 0.0000 0.0000 0.0000 0.0000 0.0000 16.4581
#
#
#
# Elastic Compliance Matrix: (Units=1/GPa)
#
#
# Indices 1 2 3 4 5 6 
#
# 1 0.016325 -0.004023 -0.004603 0.000000 0.000000 0.000000
# 2 -0.004023 0.012358 -0.002826 0.000000 0.000000 0.000000
# 3 -0.004603 -0.002826 0.011669 0.000000 0.000000 0.000000
# 4 0.000000 0.000000 0.000000 0.027693 0.000000 0.000000
# 5 0.000000 0.000000 0.000000 0.000000 0.080076 0.000000
# 6 0.000000 0.000000 0.000000 0.000000 0.000000 0.060760
#
#
# Mechanical properties :
#
#
# Convention : Reuss Voigt Hill
#
# Bulk Modulus (GPa) = 57.31311 58.39183 57.85247
# Shear Modulus (GPa) = 21.04369 24.92809 22.98589
#
# Velocity S-wave (km/s) = 3.45444 3.75977 3.61033
# Velocity P-wave (km/s) = 6.95781 7.20831 7.08417
#
# Compressibility (1/GPa) = 0.01744802
#
# Stress axis : x y z
#
# Youngs Moduli (GPa) = 61.25527 80.92104 85.69688
#
# Poissons Ratio (x) = 0.32556 0.39445
# Poissons Ratio (y) = 0.24644 0.24217
# Poissons Ratio (z) = 0.28195 0.22867
#
# Static dielectric constant tensor:
#      x y z
#    x 2.902820 0.000000 0.000000 
#    y 0.000000 3.289560 0.000000 
#    z 0.000000 0.000000 3.523070 
# 
# 
# High freq. dielectric constant tensor:
#      x y z
#    x 1.622750 0.000000 0.000000 
#    y 0.000000 1.680600 0.000000 
#    z 0.000000 0.000000 1.704770 
# 
# From -- ./inp_files/25386.got.cif
#   From: 2010.03.12/outbox.cif.g09.slc.cpg/sg74_13_cif.got.tgz:25386.got - 2010.04.16 15:46:19.
