data_PCOD8298124
_publ_section_title
;
Structure prediction by ZEFSAII (Michael W. Deem and Ramdas Pophale) SiO2 
 PCOD8298124
Probable space group: I M M A
;
_chemical_formula_sum "Si O2"
_cell_formula_units_Z 96
_cell_length_a 9.177301
_cell_length_b 31.532394
_cell_length_c 27.157945
_cell_angle_alpha 90.000000
_cell_angle_beta 90.000000
_cell_angle_gamma 90.000000
_cell_volume 7859.027799
_symmetry_space_group_name_H-M "I M M A"
_symmetry_group_IT_number 74
_symmetry_cell_setting 'orthorhombic'
loop_
_space_group_symop_operation_xyz
x,y,z
-x,1/2-y,z
x,-y,-z
-x,1/2+y,-z
-x,-y,-z
x,1/2+y,-z
-x,y,z
x,1/2-y,z
1/2+x,1/2+y,1/2+z
1/2-x,-y,1/2+z
1/2+x,1/2-y,1/2-z
1/2-x,y,1/2-z
1/2-x,1/2-y,1/2-z
1/2+x,y,1/2-z
1/2-x,1/2+y,1/2+z
1/2+x,-y,1/2+z
loop_
_atom_site_type_symbol
_atom_site_label
_atom_site_fract_x
_atom_site_fract_y
_atom_site_fract_z
Si Si1 0.836300 0.092365 0.555361
Si Si2 0.826963 0.961332 0.529886
Si Si3 0.668199 0.637070 0.365214
Si Si4 0.163517 0.492076 0.620388
Si Si5 0.832129 0.053731 0.801026
Si Si6 0.331782 0.200351 0.799630
O O1 0.783733 0.082469 0.498621
O O2 0.727240 0.125854 0.580336
O O3 0.000000 0.111393 0.555862
O O4 0.834783 0.048387 0.584789
O O5 0.782371 0.966893 0.587738
O O6 0.000000 0.965680 0.527071
O O7 0.753515 0.000000 0.500000
O O8 0.500000 0.649857 0.369402
O O9 0.692939 0.597831 0.328827
O O10 0.759183 0.676836 0.345538
O O11 0.269625 0.485131 0.666595
O O12 0.000000 0.499452 0.640662
O O13 0.750000 0.056681 0.750000
O O14 0.000000 0.044475 0.790875
O O15 0.500000 0.186886 0.794369
O O16 0.314625 0.250000 0.809488
O O17 0.250000 0.186451 0.750000
#
# Coordination Sequence:
#
# PCOD8298124 Si02
#       6
#    16  16  16  16  16  16
#     4   8  13  22  36  51  66  83 102 124 151 185
#     4   7  10  18  33  50  64  80 102 124 148 182
#     4  10  19  28  38  52  68  84 103 128 160 197
#     4   8  13  22  35  48  62  81 104 128 154 185
#     4  10  19  27  34  46  63  83 107 133 162 194
#     4  10  20  32  44  55  65  79 101 129 162 200
#
# _framework density 12.215251
#
# number of rings (size 3 to 8) (size 9 to 14) (size 15 to 20)
#    0.000    3.167    0.000    4.000    0.000    4.333 
#    0.000    0.833    0.000    5.000    0.000    0.000 
#    0.000    0.000    0.000    0.000    0.000    0.000 
#
# Total GULP energy -594659.445411 kJ/mol
# GULP energy per Si atom -12388.738446 kJ/mol
# Density = 1.218745 g / cm^3
# Si number density = 12.215251 Si / 1000 Ang^3
#
#
#
# Elastic Constant Matrix: (Units=GPa)
#
#
# Indices 1 2 3 4 5 6 
#
# 1 77.0234 26.0617 33.1003 0.0000 0.0000 0.0000
# 2 26.0617 29.0547 22.2292 0.0000 0.0000 0.0000
# 3 33.1003 22.2292 33.3552 0.0000 0.0000 0.0000
# 4 0.0000 0.0000 0.0000 20.5615 0.0000 0.0000
# 5 0.0000 0.0000 0.0000 0.0000 17.5724 0.0000
# 6 0.0000 0.0000 0.0000 0.0000 0.0000 10.1885
#
#
#
# Elastic Compliance Matrix: (Units=1/GPa)
#
#
# Indices 1 2 3 4 5 6 
#
# 1 0.023228 -0.006529 -0.018700 0.000000 0.000000 0.000000
# 2 -0.006529 0.072058 -0.041544 0.000000 0.000000 0.000000
# 3 -0.018700 -0.041544 0.076223 0.000000 0.000000 0.000000
# 4 0.000000 0.000000 0.000000 0.048635 0.000000 0.000000
# 5 0.000000 0.000000 0.000000 0.000000 0.056907 0.000000
# 6 0.000000 0.000000 0.000000 0.000000 0.000000 0.098150
#
#
# Mechanical properties :
#
#
# Convention : Reuss Voigt Hill
#
# Bulk Modulus (GPa) = 26.33947 33.57951 29.95949
# Shear Modulus (GPa) = 9.58955 13.53395 11.56175
#
# Velocity S-wave (km/s) = 2.80491 3.33221 3.07986
# Velocity P-wave (km/s) = 5.66565 6.50802 6.10139
#
# Compressibility (1/GPa) = 0.03796583
#
# Stress axis : x y z
#
# Youngs Moduli (GPa) = 43.05112 13.87770 13.11933
#
# Poissons Ratio (x) = 0.09060 0.24533
# Poissons Ratio (y) = 0.28106 0.54502
# Poissons Ratio (z) = 0.80505 0.57653
#
# Static dielectric constant tensor:
#      x y z
#    x 2.539250 0.000000 0.000000 
#    y 0.000000 2.282260 0.000000 
#    z 0.000000 0.000000 2.661320 
# 
# 
# High freq. dielectric constant tensor:
#      x y z
#    x 1.464350 0.000000 0.000000 
#    y 0.000000 1.411410 0.000000 
#    z 0.000000 0.000000 1.450270 
# 
# From -- ./inp_files/64924.got.cif
#   From: 2010.03.12/outbox.cif.g09.slc.cpg/sg74_33_cif.got.tgz:64924.got - 2010.04.16 15:46:19.
