data_PCOD8298517
_publ_section_title
;
Structure prediction by ZEFSAII (Michael W. Deem and Ramdas Pophale) SiO2 
 PCOD8298517
Probable space group: I M M A
;
_chemical_formula_sum "Si O2"
_cell_formula_units_Z 72
_cell_length_a 8.886297
_cell_length_b 28.704109
_cell_length_c 14.013992
_cell_angle_alpha 90.000000
_cell_angle_beta 90.000000
_cell_angle_gamma 90.000000
_cell_volume 3574.594312
_symmetry_space_group_name_H-M "I M M A"
_symmetry_group_IT_number 74
_symmetry_cell_setting 'orthorhombic'
loop_
_space_group_symop_operation_xyz
x,y,z
-x,1/2-y,z
x,-y,-z
-x,1/2+y,-z
-x,-y,-z
x,1/2+y,-z
-x,y,z
x,1/2-y,z
1/2+x,1/2+y,1/2+z
1/2-x,-y,1/2+z
1/2+x,1/2-y,1/2-z
1/2-x,y,1/2-z
1/2-x,1/2-y,1/2-z
1/2+x,y,1/2-z
1/2-x,1/2+y,1/2+z
1/2+x,-y,1/2+z
loop_
_atom_site_type_symbol
_atom_site_label
_atom_site_fract_x
_atom_site_fract_y
_atom_site_fract_z
Si Si1 0.322185 0.069197 0.353608
Si Si2 0.323447 0.660332 0.530119
Si Si3 0.176057 0.375686 0.647851
Si Si4 0.677821 0.250000 0.353135
Si Si5 0.823201 0.020737 0.646899
O O1 0.500000 0.063679 0.344059
O O2 0.250000 0.075656 0.250000
O O3 0.276093 0.114239 0.413405
O O4 0.253625 0.023133 0.408146
O O5 0.500000 0.662735 0.511176
O O6 0.241668 0.660895 0.427749
O O7 0.266779 0.704703 0.589521
O O8 0.250000 0.366893 0.750000
O O9 0.212136 0.427765 0.606645
O O10 0.000000 0.367995 0.660619
O O11 0.500000 0.250000 0.340056
O O12 0.750000 0.250000 0.250000
O O13 0.750000 0.018415 0.750000
O O14 0.000000 0.011527 0.652050
#
# Coordination Sequence:
#
# PCOD8298517 Si02
#       5
#    16  16  16   8  16
#     4  10  19  31  50  78 111 147 185 228 274 325
#     4  10  22  38  57  82 111 144 185 229 277 330
#     4  10  21  37  58  82 111 147 186 228 273 322
#     4  10  22  42  65  88 115 146 179 224 278 330
#     4   9  17  30  49  75 108 146 184 223 269 322
#
# _framework density 20.142144999999999
#
# number of rings (size 3 to 8) (size 9 to 14) (size 15 to 20)
#    0.000    2.222    0.000    4.000    0.000    6.222 
#    0.000    5.000    0.000    0.000    0.000    0.000 
#    0.000    0.000    0.000    0.000    0.000    0.000 
#
# Total GULP energy -446266.019333 kJ/mol
# GULP energy per Si atom -12396.278315 kJ/mol
# Density = 2.009630 g / cm^3
# Si number density = 20.142145 Si / 1000 Ang^3
#
#
#
# Elastic Constant Matrix: (Units=GPa)
#
#
# Indices 1 2 3 4 5 6 
#
# 1 81.1833 52.5645 51.6227 0.0004 0.0000 0.0000
# 2 52.5645 130.4795 80.3267 0.0007 0.0000 0.0000
# 3 51.6227 80.3267 119.2871 0.0025 -0.0001 0.0000
# 4 0.0004 0.0007 0.0025 31.3465 0.0000 0.0000
# 5 0.0000 0.0000 -0.0001 0.0000 30.3450 0.0003
# 6 0.0000 0.0000 0.0000 0.0000 0.0003 26.5154
#
#
#
# Elastic Compliance Matrix: (Units=1/GPa)
#
#
# Indices 1 2 3 4 5 6 
#
# 1 0.018283 -0.004261 -0.005043 0.000000 0.000000 0.000000
# 2 -0.004261 0.014084 -0.007640 0.000000 0.000000 0.000000
# 3 -0.005043 -0.007640 0.015710 -0.000001 0.000000 0.000000
# 4 0.000000 0.000000 -0.000001 0.031901 0.000000 0.000000
# 5 0.000000 0.000000 0.000000 0.000000 0.032954 0.000000
# 6 0.000000 0.000000 0.000000 0.000000 0.000000 0.037714
#
#
# Mechanical properties :
#
#
# Convention : Reuss Voigt Hill
#
# Bulk Modulus (GPa) = 70.47406 77.77531 74.12469
# Shear Modulus (GPa) = 26.41788 27.40376 26.91082
#
# Velocity S-wave (km/s) = 3.62549 3.69252 3.65916
# Velocity P-wave (km/s) = 7.25189 7.54166 7.39820
#
# Compressibility (1/GPa) = 0.01418962
#
# Stress axis : x y z
#
# Youngs Moduli (GPa) = 54.69421 71.00238 63.65246
#
# Poissons Ratio (x) = 0.30254 0.32100
# Poissons Ratio (y) = 0.23305 0.48631
# Poissons Ratio (z) = 0.27583 0.54246
#
# Static dielectric constant tensor:
#      x y z
#    x 3.635880 0.000000 0.000000 
#    y 0.000000 4.227470 0.000000 
#    z 0.000000 0.000000 3.464090 
# 
# 
# High freq. dielectric constant tensor:
#      x y z
#    x 1.788910 0.000000 0.000000 
#    y 0.000000 1.784870 0.000000 
#    z 0.000000 0.000000 1.780210 
# 
# From -- ./inp_files/29149.got.cif
#   From: 2010.03.12/outbox.cif.g09.slc.cpg/sg74_15_cif.got.tgz:29149.got - 2010.04.16 15:46:19.
