data_PCOD8298914
_publ_section_title
;
Structure prediction by ZEFSAII (Michael W. Deem and Ramdas Pophale) SiO2 
 PCOD8298914
Probable space group: I M M A
;
_chemical_formula_sum "Si O2"
_cell_formula_units_Z 88
_cell_length_a 19.396442
_cell_length_b 8.932329
_cell_length_c 26.844995
_cell_angle_alpha 90.000000
_cell_angle_beta 90.000000
_cell_angle_gamma 90.000000
_cell_volume 4651.040384
_symmetry_space_group_name_H-M "I M M A"
_symmetry_group_IT_number 74
_symmetry_cell_setting 'orthorhombic'
loop_
_space_group_symop_operation_xyz
x,y,z
-x,1/2-y,z
x,-y,-z
-x,1/2+y,-z
-x,-y,-z
x,1/2+y,-z
-x,y,z
x,1/2-y,z
1/2+x,1/2+y,1/2+z
1/2-x,-y,1/2+z
1/2+x,1/2-y,1/2-z
1/2-x,y,1/2-z
1/2-x,1/2-y,1/2-z
1/2+x,y,1/2-z
1/2-x,1/2+y,1/2+z
1/2+x,-y,1/2+z
loop_
_atom_site_type_symbol
_atom_site_label
_atom_site_fract_x
_atom_site_fract_y
_atom_site_fract_z
Si Si1 0.232952 0.072454 0.548963
Si Si2 0.181278 0.416105 0.195527
Si Si3 0.000000 0.072420 0.946309
Si Si4 0.577612 0.575958 0.231957
Si Si5 0.634596 0.918377 0.583087
Si Si6 0.808715 0.577248 0.342453
O O1 0.234913 0.250000 0.543050
O O2 0.193652 0.022867 0.599928
O O3 0.196020 0.000000 0.500000
O O4 0.309724 0.005145 0.549817
O O5 0.189159 0.250000 0.218009
O O6 0.122021 0.501446 0.224956
O O7 0.159002 0.409209 0.138983
O O8 0.256380 0.494552 0.195723
O O9 0.000000 0.250000 0.949601
O O10 0.065784 0.015154 0.916500
O O11 0.000000 0.000000 0.000000
O O12 0.500000 0.508599 0.229776
O O13 0.574248 0.750000 0.244632
O O14 0.614311 0.549368 0.178366
O O15 0.623289 0.750000 0.561610
O O16 0.786930 0.750000 0.340538
#
# Coordination Sequence:
#
# PCOD8298914 Si02
#       6
#    16  16   8  16  16  16
#     4  10  19  33  54  78 102 131 170 216 263 312
#     4  10  21  35  54  79 107 139 175 217 264 311
#     4  12  24  36  50  68  96 136 178 218 263 310
#     4  10  21  36  55  79 107 141 179 218 261 313
#     4  10  21  36  51  71 102 136 172 215 259 310
#     4   9  19  36  56  78 106 140 178 217 259 312
#
# _framework density 18.920497999999998
#
# number of rings (size 3 to 8) (size 9 to 14) (size 15 to 20)
#    0.000    2.000    0.000    3.545    1.273    6.182 
#    0.000    0.000    0.000    0.545    0.000    0.000 
#    0.000    0.000    0.000    0.000    0.000    0.545 
#
# Total GULP energy -545509.216378 kJ/mol
# GULP energy per Si atom -12397.936736 kJ/mol
# Density = 1.887743 g / cm^3
# Si number density = 18.920498 Si / 1000 Ang^3
#
#
#
# Elastic Constant Matrix: (Units=GPa)
#
#
# Indices 1 2 3 4 5 6 
#
# 1 110.4967 38.0531 42.8907 0.0000 0.0000 0.0000
# 2 38.0531 94.1924 31.6027 0.0000 0.0000 0.0000
# 3 42.8907 31.6027 80.3512 0.0000 0.0000 0.0000
# 4 0.0000 0.0000 0.0000 29.4351 0.0000 0.0000
# 5 0.0000 0.0000 0.0000 0.0000 13.0417 0.0000
# 6 0.0000 0.0000 0.0000 0.0000 0.0000 13.6042
#
#
#
# Elastic Compliance Matrix: (Units=1/GPa)
#
#
# Indices 1 2 3 4 5 6 
#
# 1 0.012178 -0.003155 -0.005260 0.000000 0.000000 0.000000
# 2 -0.003155 0.013048 -0.003448 0.000000 0.000000 0.000000
# 3 -0.005260 -0.003448 0.016609 0.000000 0.000000 0.000000
# 4 0.000000 0.000000 0.000000 0.033973 0.000000 0.000000
# 5 0.000000 0.000000 0.000000 0.000000 0.076677 0.000000
# 6 0.000000 0.000000 0.000000 0.000000 0.000000 0.073507
#
#
# Mechanical properties :
#
#
# Convention : Reuss Voigt Hill
#
# Bulk Modulus (GPa) = 55.21787 56.68148 55.94968
# Shear Modulus (GPa) = 19.55005 22.71578 21.13291
#
# Velocity S-wave (km/s) = 3.21794 3.46871 3.34568
# Velocity P-wave (km/s) = 6.56158 6.78715 6.67532
#
# Compressibility (1/GPa) = 0.01811008
#
# Stress axis : x y z
#
# Youngs Moduli (GPa) = 82.11351 76.64017 60.20877
#
# Poissons Ratio (x) = 0.24182 0.31668
# Poissons Ratio (y) = 0.25909 0.20758
# Poissons Ratio (z) = 0.43189 0.26423
#
# Static dielectric constant tensor:
#      x y z
#    x 3.218570 0.000000 0.000000 
#    y 0.000000 3.761210 0.000000 
#    z 0.000000 0.000000 3.596100 
# 
# 
# High freq. dielectric constant tensor:
#      x y z
#    x 1.711540 0.000000 0.000000 
#    y 0.000000 1.742850 0.000000 
#    z 0.000000 0.000000 1.745610 
# 
# From -- ./inp_files/70302.got.cif
#   From: 2010.03.12/outbox.cif.g09.slc.cpg/sg74_36_cif.got.tgz:70302.got - 2010.04.16 15:46:19.
