data_PCOD8298110
_publ_section_title
;
Structure prediction by ZEFSAII (Michael W. Deem and Ramdas Pophale) SiO2 
 PCOD8298110
Probable space group: I M M A
;
_chemical_formula_sum "Si O2"
_cell_formula_units_Z 88
_cell_length_a 9.852673
_cell_length_b 21.322824
_cell_length_c 22.349133
_cell_angle_alpha 90.000000
_cell_angle_beta 90.000000
_cell_angle_gamma 90.000000
_cell_volume 4695.258110
_symmetry_space_group_name_H-M "I M M A"
_symmetry_group_IT_number 74
_symmetry_cell_setting 'orthorhombic'
loop_
_space_group_symop_operation_xyz
x,y,z
-x,1/2-y,z
x,-y,-z
-x,1/2+y,-z
-x,-y,-z
x,1/2+y,-z
-x,y,z
x,1/2-y,z
1/2+x,1/2+y,1/2+z
1/2-x,-y,1/2+z
1/2+x,1/2-y,1/2-z
1/2-x,y,1/2-z
1/2-x,1/2-y,1/2-z
1/2+x,y,1/2-z
1/2-x,1/2+y,1/2+z
1/2+x,-y,1/2+z
loop_
_atom_site_type_symbol
_atom_site_label
_atom_site_fract_x
_atom_site_fract_y
_atom_site_fract_z
Si Si1 0.158857 0.500885 0.193924
Si Si2 0.842738 0.374961 0.873280
Si Si3 0.768583 0.386387 0.121346
Si Si4 0.000000 0.674648 0.666668
Si Si5 0.500000 0.176559 0.304140
Si Si6 0.336373 0.750000 0.310165
Si Si7 0.160988 0.929253 0.004650
O O1 0.250000 0.482554 0.250000
O O2 0.183029 0.572885 0.177300
O O3 0.213314 0.458974 0.139430
O O4 0.000000 0.486389 0.206518
O O5 0.785764 0.309665 0.848443
O O6 0.000000 0.366198 0.885705
O O7 0.775803 0.395837 0.936272
O O8 0.623982 0.356374 0.132223
O O9 0.868373 0.345502 0.161326
O O10 0.799154 0.384799 0.050819
O O11 0.000000 0.652328 0.735746
O O12 0.000000 0.750000 0.660403
O O13 0.500000 0.250000 0.302864
O O14 0.500000 0.750000 0.297467
O O15 0.250000 0.750000 0.250000
O O16 0.000000 0.934128 0.009854
O O17 0.220810 0.000000 0.000000
#
# Coordination Sequence:
#
# PCOD8298110 Si02
#       7
#    16  16  16   8   8   8  16
#     4  11  21  34  57  89 119 148 196 252 303 356
#     4   9  19  35  58  89 118 158 199 244 301 348
#     4  12  22  38  61  88 113 158 202 237 303 358
#     4  11  26  44  59  80 128 163 186 245 311 353
#     4  11  22  40  61  90 114 149 206 249 287 361
#     4  10  20  38  62  88 122 160 201 245 298 358
#     4  10  18  36  61  87 120 151 194 250 296 346
#
# _framework density 18.742312999999999
#
# number of rings (size 3 to 8) (size 9 to 14) (size 15 to 20)
#    0.000    1.455    3.636    2.727    1.273    1.455 
#    3.273    0.455    4.000    0.000    0.000    0.000 
#    0.000    0.000    0.000    0.000    0.000    0.000 
#
# Total GULP energy -545516.376273 kJ/mol
# GULP energy per Si atom -12398.099461 kJ/mol
# Density = 1.869966 g / cm^3
# Si number density = 18.742313 Si / 1000 Ang^3
#
#
#
# Elastic Constant Matrix: (Units=GPa)
#
#
# Indices 1 2 3 4 5 6 
#
# 1 59.5997 33.3487 16.9777 0.0000 0.0000 0.0000
# 2 33.3487 108.5457 46.1255 0.0000 0.0000 0.0000
# 3 16.9777 46.1255 120.0630 0.0000 0.0000 0.0000
# 4 0.0000 0.0000 0.0000 22.6431 0.0000 0.0000
# 5 0.0000 0.0000 0.0000 0.0000 20.5906 0.0000
# 6 0.0000 0.0000 0.0000 0.0000 0.0000 19.8933
#
#
#
# Elastic Compliance Matrix: (Units=1/GPa)
#
#
# Indices 1 2 3 4 5 6 
#
# 1 0.020294 -0.005994 -0.000567 0.000000 0.000000 0.000000
# 2 -0.005994 0.012781 -0.004062 0.000000 0.000000 0.000000
# 3 -0.000567 -0.004062 0.009970 0.000000 0.000000 0.000000
# 4 0.000000 0.000000 0.000000 0.044164 0.000000 0.000000
# 5 0.000000 0.000000 0.000000 0.000000 0.048566 0.000000
# 6 0.000000 0.000000 0.000000 0.000000 0.000000 0.050268
#
#
# Mechanical properties :
#
#
# Convention : Reuss Voigt Hill
#
# Bulk Modulus (GPa) = 45.87657 53.45693 49.66675
# Shear Modulus (GPa) = 23.30409 25.40917 24.35663
#
# Velocity S-wave (km/s) = 3.53001 3.68599 3.60884
# Velocity P-wave (km/s) = 6.41446 6.83369 6.62739
#
# Compressibility (1/GPa) = 0.02179762
#
# Stress axis : x y z
#
# Youngs Moduli (GPa) = 49.27546 78.24378 100.30285
#
# Poissons Ratio (x) = 0.46900 0.05686
# Poissons Ratio (y) = 0.29536 0.40747
# Poissons Ratio (z) = 0.02794 0.31786
#
# Static dielectric constant tensor:
#      x y z
#    x 3.069520 0.000000 0.000000 
#    y 0.000000 3.741900 0.000000 
#    z 0.000000 0.000000 3.581840 
# 
# 
# High freq. dielectric constant tensor:
#      x y z
#    x 1.695160 0.000000 0.000000 
#    y 0.000000 1.739660 0.000000 
#    z 0.000000 0.000000 1.736270 
# 
# From -- ./inp_files/48831.got.cif
#   From: 2010.03.12/outbox.cif.g09.slc.cpg/sg74_25_cif.got.tgz:48831.got - 2010.04.16 15:46:19.
