data_PCOD8298238
_publ_section_title
;
Structure prediction by ZEFSAII (Michael W. Deem and Ramdas Pophale) SiO2 
 PCOD8298238
Probable space group: I M M A
;
_chemical_formula_sum "Si O2"
_cell_formula_units_Z 104
_cell_length_a 9.378325
_cell_length_b 29.778208
_cell_length_c 24.200171
_cell_angle_alpha 90.000000
_cell_angle_beta 90.000000
_cell_angle_gamma 90.000000
_cell_volume 6758.374799
_symmetry_space_group_name_H-M "I M M A"
_symmetry_group_IT_number 74
_symmetry_cell_setting 'orthorhombic'
loop_
_space_group_symop_operation_xyz
x,y,z
-x,1/2-y,z
x,-y,-z
-x,1/2+y,-z
-x,-y,-z
x,1/2+y,-z
-x,y,z
x,1/2-y,z
1/2+x,1/2+y,1/2+z
1/2-x,-y,1/2+z
1/2+x,1/2-y,1/2-z
1/2-x,y,1/2-z
1/2-x,1/2-y,1/2-z
1/2+x,y,1/2-z
1/2-x,1/2+y,1/2+z
1/2+x,-y,1/2+z
loop_
_atom_site_type_symbol
_atom_site_label
_atom_site_fract_x
_atom_site_fract_y
_atom_site_fract_z
Si Si1 0.834383 0.495421 0.590295
Si Si2 0.330617 0.651733 0.547315
Si Si3 0.348967 0.750000 0.828213
Si Si4 0.335798 0.572620 0.993785
Si Si5 0.657873 0.387164 0.338970
Si Si6 0.667692 0.250000 0.433301
Si Si7 0.250000 0.322930 0.250000
Si Si8 0.328104 0.016435 0.305878
O O1 0.789865 0.540794 0.557477
O O2 0.809351 0.452897 0.550971
O O3 0.731747 0.487186 0.642912
O O4 0.000000 0.498277 0.608266
O O5 0.500000 0.647638 0.541912
O O6 0.256810 0.618305 0.503853
O O7 0.270861 0.636839 0.607847
O O8 0.282994 0.703854 0.536332
O O9 0.500000 0.750000 0.860516
O O10 0.219787 0.750000 0.870414
O O11 0.348970 0.706695 0.789095
O O12 0.500000 0.586042 0.987413
O O13 0.500000 0.400546 0.357498
O O14 0.649633 0.353588 0.287685
O O15 0.731014 0.433416 0.319528
O O16 0.500000 0.250000 0.426928
O O17 0.500000 0.012248 0.300031
O O18 0.250000 0.000042 0.250000
#
# Coordination Sequence:
#
# PCOD8298238 Si02
#       8
#    16  16   8  16  16   8   8  16
#     4   9  18  33  49  69  93 119 149 184 233 283
#     4  10  19  33  48  64  84 115 153 190 233 279
#     4  11  23  31  44  62  74 104 152 199 238 276
#     4   9  18  32  51  70  91 116 146 191 238 277
#     4  10  19  30  43  59  81 113 151 188 230 277
#     4  10  21  35  48  59  86 120 145 187 239 282
#     4  11  20  34  42  52  82 112 148 194 240 277
#     4  11  21  32  46  68  94 121 153 189 229 272
#
# _framework density 15.388315
#
# number of rings (size 3 to 8) (size 9 to 14) (size 15 to 20)
#    0.000    2.000    3.846    1.846    0.000    2.462 
#    0.000    1.538    0.000    0.000    0.000    0.000 
#    0.000    0.000    0.000    0.692    0.000    8.923 
#
# Total GULP energy -644436.636522 kJ/mol
# GULP energy per Si atom -12393.012241 kJ/mol
# Density = 1.535329 g / cm^3
# Si number density = 15.388315 Si / 1000 Ang^3
#
#
#
# Elastic Constant Matrix: (Units=GPa)
#
#
# Indices 1 2 3 4 5 6 
#
# 1 56.0979 33.6904 35.5753 0.0000 0.0000 0.0000
# 2 33.6904 89.1535 35.8327 0.0000 0.0000 0.0000
# 3 35.5753 35.8327 71.7015 -0.0002 0.0000 0.0000
# 4 0.0000 0.0000 -0.0002 17.4933 0.0000 0.0000
# 5 0.0000 0.0000 0.0000 0.0000 23.5189 0.0000
# 6 0.0000 0.0000 0.0000 0.0000 0.0000 23.8563
#
#
#
# Elastic Compliance Matrix: (Units=1/GPa)
#
#
# Indices 1 2 3 4 5 6 
#
# 1 0.028659 -0.006400 -0.011021 0.000000 0.000000 0.000000
# 2 -0.006400 0.015465 -0.004553 0.000000 0.000000 0.000000
# 3 -0.011021 -0.004553 0.021690 0.000000 0.000000 0.000000
# 4 0.000000 0.000000 0.000000 0.057165 0.000000 0.000000
# 5 0.000000 0.000000 0.000000 0.000000 0.042519 0.000000
# 6 0.000000 0.000000 0.000000 0.000000 0.000000 0.041918
#
#
# Mechanical properties :
#
#
# Convention : Reuss Voigt Hill
#
# Bulk Modulus (GPa) = 45.73376 47.46108 46.59742
# Shear Modulus (GPa) = 19.33095 20.43067 19.88081
#
# Velocity S-wave (km/s) = 3.54815 3.64768 3.59826
# Velocity P-wave (km/s) = 6.82423 6.97495 6.90000
#
# Compressibility (1/GPa) = 0.02186569
#
# Stress axis : x y z
#
# Youngs Moduli (GPa) = 34.89334 64.66103 46.10399
#
# Poissons Ratio (x) = 0.41386 0.50810
# Poissons Ratio (y) = 0.22333 0.20992
# Poissons Ratio (z) = 0.38455 0.29441
#
# Static dielectric constant tensor:
#      x y z
#    x 2.792250 0.000000 0.000000 
#    y 0.000000 2.952710 0.000000 
#    z 0.000000 0.000000 2.710290 
# 
# 
# High freq. dielectric constant tensor:
#      x y z
#    x 1.586230 0.000000 0.000000 
#    y 0.000000 1.572520 0.000000 
#    z 0.000000 0.000000 1.556300 
# 
# From -- ./inp_files/57875.got.cif
#   From: 2010.03.12/outbox.cif.g09.slc.cpg/sg74_29_cif.got.tgz:57875.got - 2010.04.16 15:46:19.
