data_PCOD8298003
_publ_section_title
;
Structure prediction by ZEFSAII (Michael W. Deem and Ramdas Pophale) SiO2 
 PCOD8298003
Probable space group: I M M A
;
_chemical_formula_sum "Si O2"
_cell_formula_units_Z 88
_cell_length_a 18.304228
_cell_length_b 10.112577
_cell_length_c 21.860158
_cell_angle_alpha 90.000000
_cell_angle_beta 90.000000
_cell_angle_gamma 90.000000
_cell_volume 4046.378970
_symmetry_space_group_name_H-M "I M M A"
_symmetry_group_IT_number 74
_symmetry_cell_setting 'orthorhombic'
loop_
_space_group_symop_operation_xyz
x,y,z
-x,1/2-y,z
x,-y,-z
-x,1/2+y,-z
-x,-y,-z
x,1/2+y,-z
-x,y,z
x,1/2-y,z
1/2+x,1/2+y,1/2+z
1/2-x,-y,1/2+z
1/2+x,1/2-y,1/2-z
1/2-x,y,1/2-z
1/2-x,1/2-y,1/2-z
1/2+x,y,1/2-z
1/2-x,1/2+y,1/2+z
1/2+x,-y,1/2+z
loop_
_atom_site_type_symbol
_atom_site_label
_atom_site_fract_x
_atom_site_fract_y
_atom_site_fract_z
Si Si1 0.637953 0.750000 0.461741
Si Si2 0.080334 0.750000 0.712786
Si Si3 0.360149 0.966670 0.363921
Si Si4 0.085226 0.032142 0.736830
Si Si5 0.652811 0.250000 0.096621
Si Si6 0.307565 0.750000 0.036031
Si Si7 0.415312 0.250000 0.404792
Si Si8 0.694149 0.463686 0.866396
O O1 0.617799 0.619352 0.422894
O O2 0.722383 0.750000 0.483197
O O3 0.588886 0.750000 0.521922
O O4 0.116515 0.881433 0.739770
O O5 0.079155 0.750000 0.637864
O O6 0.000000 0.750000 0.738794
O O7 0.404738 0.911354 0.304937
O O8 0.376463 0.119973 0.377537
O O9 0.276611 0.934729 0.346033
O O10 0.000000 0.045053 0.716631
O O11 0.137547 0.093117 0.684725
O O12 0.694921 0.381592 0.117457
O O13 0.640931 0.250000 0.024034
O O14 0.326274 0.882255 0.072966
O O15 0.500000 0.250000 0.384999
#
# Coordination Sequence:
#
# PCOD8298003 Si02
#       8
#     8   8  16  16   8   8   8  16
#     4  10  24  40  57  82 116 154 191 229 275 333
#     4   8  17  33  52  78 111 142 176 228 282 329
#     4  11  22  39  61  84 112 153 195 230 278 339
#     4  10  20  36  57  83 115 148 187 236 290 339
#     4  10  18  32  57  83 106 141 185 227 277 331
#     4  10  20  37  57  82 114 150 190 233 279 329
#     4  12  25  40  60  89 120 147 186 239 283 326
#     4  10  21  36  58  85 114 147 190 239 279 330
#
# _framework density 21.74784
#
# number of rings (size 3 to 8) (size 9 to 14) (size 15 to 20)
#    0.000    1.818    0.000    4.364    0.000    6.545 
#    0.000    8.636    0.000    4.364    0.000    0.000 
#    0.000    0.000    0.000    0.000    0.000    0.000 
#
# Total GULP energy -545193.330555 kJ/mol
# GULP energy per Si atom -12390.757513 kJ/mol
# Density = 2.169834 g / cm^3
# Si number density = 21.747840 Si / 1000 Ang^3
#
#
#
# Elastic Constant Matrix: (Units=GPa)
#
#
# Indices 1 2 3 4 5 6 
#
# 1 88.0838 8.8342 42.5048 0.0000 0.0000 0.0000
# 2 8.8342 83.2419 17.9629 0.0000 0.0000 0.0000
# 3 42.5048 17.9629 142.4821 0.0000 0.0000 0.0000
# 4 0.0000 0.0000 0.0000 5.1466 0.0000 0.0000
# 5 0.0000 0.0000 0.0000 0.0000 31.5356 0.0000
# 6 0.0000 0.0000 0.0000 0.0000 0.0000 12.0249
#
#
#
# Elastic Compliance Matrix: (Units=1/GPa)
#
#
# Indices 1 2 3 4 5 6 
#
# 1 0.013288 -0.000570 -0.003892 0.000000 0.000000 0.000000
# 2 -0.000570 0.012374 -0.001390 0.000000 0.000000 0.000000
# 3 -0.003892 -0.001390 0.008355 0.000000 0.000000 0.000000
# 4 0.000000 0.000000 0.000000 0.194304 0.000000 0.000000
# 5 0.000000 0.000000 0.000000 0.000000 0.031710 0.000000
# 6 0.000000 0.000000 0.000000 0.000000 0.000000 0.083160
#
#
# Mechanical properties :
#
#
# Convention : Reuss Voigt Hill
#
# Bulk Modulus (GPa) = 44.81915 50.26794 47.54355
# Shear Modulus (GPa) = 13.79946 26.04182 19.92064
#
# Velocity S-wave (km/s) = 2.52170 3.46416 3.02980
# Velocity P-wave (km/s) = 5.39740 6.25817 5.84366
#
# Compressibility (1/GPa) = 0.02231189
#
# Stress axis : x y z
#
# Youngs Moduli (GPa) = 75.25475 80.81706 119.69243
#
# Poissons Ratio (x) = 0.04609 0.46587
# Poissons Ratio (y) = 0.04292 0.16635
# Poissons Ratio (z) = 0.29291 0.11232
#
# Static dielectric constant tensor:
#      x y z
#    x 3.682280 0.000000 0.000000 
#    y 0.000000 4.126690 0.000000 
#    z 0.000000 0.000000 4.006930 
# 
# 
# High freq. dielectric constant tensor:
#      x y z
#    x 1.830190 0.000000 0.000000 
#    y 0.000000 1.861120 0.000000 
#    z 0.000000 0.000000 1.862910 
# 
# From -- ./inp_files/52927.got.cif
#   From: 2010.03.12/outbox.cif.g09.slc.cpg/sg74_27_cif.got.tgz:52927.got - 2010.04.16 15:46:19.
