data_PCOD8298750
_publ_section_title
;
Structure prediction by ZEFSAII (Michael W. Deem and Ramdas Pophale) SiO2 
 PCOD8298750
Probable space group: I M M A
;
_chemical_formula_sum "Si O2"
_cell_formula_units_Z 96
_cell_length_a 29.887114
_cell_length_b 9.164920
_cell_length_c 19.624098
_cell_angle_alpha 90.000000
_cell_angle_beta 90.000000
_cell_angle_gamma 90.000000
_cell_volume 5375.295729
_symmetry_space_group_name_H-M "I M M A"
_symmetry_group_IT_number 74
_symmetry_cell_setting 'orthorhombic'
loop_
_space_group_symop_operation_xyz
x,y,z
-x,1/2-y,z
x,-y,-z
-x,1/2+y,-z
-x,-y,-z
x,1/2+y,-z
-x,y,z
x,1/2-y,z
1/2+x,1/2+y,1/2+z
1/2-x,-y,1/2+z
1/2+x,1/2-y,1/2-z
1/2-x,y,1/2-z
1/2-x,1/2-y,1/2-z
1/2+x,y,1/2-z
1/2-x,1/2+y,1/2+z
1/2+x,-y,1/2+z
loop_
_atom_site_type_symbol
_atom_site_label
_atom_site_fract_x
_atom_site_fract_y
_atom_site_fract_z
Si Si1 0.446767 0.584918 0.565841
Si Si2 0.292674 0.577023 0.710553
Si Si3 0.120346 0.922459 0.710701
Si Si4 0.761026 0.579398 0.933513
Si Si5 0.552462 0.919478 0.298966
Si Si6 0.158394 0.580102 0.566542
O O1 0.427682 0.500000 0.500000
O O2 0.500000 0.587874 0.562729
O O3 0.427696 0.750000 0.566778
O O4 0.430391 0.501139 0.633152
O O5 0.290744 0.750000 0.718455
O O6 0.250000 0.509581 0.750000
O O7 0.338364 0.519320 0.743629
O O8 0.290373 0.530270 0.631410
O O9 0.112993 0.750000 0.719979
O O10 0.129205 0.963213 0.632132
O O11 0.076414 0.009108 0.733870
O O12 0.764916 0.750000 0.946299
O O13 0.709656 0.533540 0.919752
O O14 0.780509 0.500000 0.000000
O O15 0.500000 0.942750 0.288128
O O16 0.564706 0.750000 0.305687
O O17 0.138842 0.500000 0.500000
O O18 0.155248 0.750000 0.551945
#
# Coordination Sequence:
#
# PCOD8298750 Si02
#       6
#    16  16  16  16  16  16
#     4   9  16  28  49  75 100 127 163 207 252 300
#     4   9  15  28  50  73  98 130 166 202 241 294
#     4  10  19  32  53  78 100 129 172 214 253 301
#     4   9  16  28  47  70  99 134 168 201 239 289
#     4  10  21  36  52  72 101 136 172 214 264 311
#     4   9  17  29  48  74 101 129 163 204 247 298
#
# _framework density 17.859482
#
# number of rings (size 3 to 8) (size 9 to 14) (size 15 to 20)
#    0.000    2.667    1.667    1.000    0.000    3.667 
#    0.000    1.667    0.000    3.500    0.000    0.000 
#    0.000    0.000    0.000    0.000    0.000    0.000 
#
# Total GULP energy -595171.226218 kJ/mol
# GULP energy per Si atom -12399.400546 kJ/mol
# Density = 1.781883 g / cm^3
# Si number density = 17.859482 Si / 1000 Ang^3
#
#
#
# Elastic Constant Matrix: (Units=GPa)
#
#
# Indices 1 2 3 4 5 6 
#
# 1 47.3671 32.3423 47.7770 0.0000 0.0000 0.0000
# 2 32.3423 77.9533 63.8040 0.0000 0.0000 0.0000
# 3 47.7770 63.8040 155.8556 0.0000 0.0000 0.0000
# 4 0.0000 0.0000 0.0000 34.9874 0.0000 0.0000
# 5 0.0000 0.0000 0.0000 0.0000 27.4470 0.0000
# 6 0.0000 0.0000 0.0000 0.0000 0.0000 13.3374
#
#
#
# Elastic Compliance Matrix: (Units=1/GPa)
#
#
# Indices 1 2 3 4 5 6 
#
# 1 0.033820 -0.008341 -0.006953 0.000000 0.000000 0.000000
# 2 -0.008341 0.021350 -0.006183 0.000000 0.000000 0.000000
# 3 -0.006953 -0.006183 0.011079 0.000000 0.000000 0.000000
# 4 0.000000 0.000000 0.000000 0.028582 0.000000 0.000000
# 5 0.000000 0.000000 0.000000 0.000000 0.036434 0.000000
# 6 0.000000 0.000000 0.000000 0.000000 0.000000 0.074977
#
#
# Mechanical properties :
#
#
# Convention : Reuss Voigt Hill
#
# Bulk Modulus (GPa) = 42.92845 63.22474 53.07660
# Shear Modulus (GPa) = 19.45833 24.30454 21.88143
#
# Velocity S-wave (km/s) = 3.30437 3.69301 3.50408
# Velocity P-wave (km/s) = 6.21671 7.32547 6.79375
#
# Compressibility (1/GPa) = 0.02329458
#
# Stress axis : x y z
#
# Youngs Moduli (GPa) = 29.56852 46.83915 90.26213
#
# Poissons Ratio (x) = 0.39068 0.62757
# Poissons Ratio (y) = 0.24662 0.55811
# Poissons Ratio (z) = 0.20558 0.28962
#
# Static dielectric constant tensor:
#      x y z
#    x 3.014250 0.000000 0.000000 
#    y 0.000000 3.154540 0.000000 
#    z 0.000000 0.000000 3.457020 
# 
# 
# High freq. dielectric constant tensor:
#      x y z
#    x 1.655790 0.000000 0.000000 
#    y 0.000000 1.673840 0.000000 
#    z 0.000000 0.000000 1.700660 
# 
# From -- ./inp_files/55071.got.cif
#   From: 2010.03.12/outbox.cif.g09.slc.cpg/sg74_28_cif.got.tgz:55071.got - 2010.04.16 15:46:19.
