data_PCOD8298485
_publ_section_title
;
Structure prediction by ZEFSAII (Michael W. Deem and Ramdas Pophale) SiO2 
 PCOD8298485
Probable space group: I M M A
;
_chemical_formula_sum "Si O2"
_cell_formula_units_Z 96
_cell_length_a 18.661733
_cell_length_b 17.223902
_cell_length_c 17.216973
_cell_angle_alpha 90.000000
_cell_angle_beta 90.000000
_cell_angle_gamma 90.000000
_cell_volume 5534.014793
_symmetry_space_group_name_H-M "I M M A"
_symmetry_group_IT_number 74
_symmetry_cell_setting 'orthorhombic'
loop_
_space_group_symop_operation_xyz
x,y,z
-x,1/2-y,z
x,-y,-z
-x,1/2+y,-z
-x,-y,-z
x,1/2+y,-z
-x,y,z
x,1/2-y,z
1/2+x,1/2+y,1/2+z
1/2-x,-y,1/2+z
1/2+x,1/2-y,1/2-z
1/2-x,y,1/2-z
1/2-x,1/2-y,1/2-z
1/2+x,y,1/2-z
1/2-x,1/2+y,1/2+z
1/2+x,-y,1/2+z
loop_
_atom_site_type_symbol
_atom_site_label
_atom_site_fract_x
_atom_site_fract_y
_atom_site_fract_z
Si Si1 0.314170 0.837227 0.191731
Si Si2 0.079867 0.839577 0.873127
Si Si3 0.685232 0.459786 0.308043
Si Si4 0.917699 0.596516 0.201834
Si Si5 0.365379 0.159626 0.541380
Si Si6 0.763275 0.946044 0.434162
O O1 0.299862 0.750000 0.160860
O O2 0.250000 0.863888 0.250000
O O3 0.388417 0.837215 0.239641
O O4 0.318364 0.898377 0.120343
O O5 0.088901 0.750000 0.852428
O O6 0.140658 0.882008 0.823784
O O7 0.000000 0.869060 0.850555
O O8 0.087582 0.853636 0.965100
O O9 0.750000 0.440602 0.250000
O O10 0.629039 0.521714 0.273880
O O11 0.716246 0.492198 0.387683
O O12 0.908234 0.622172 0.113003
O O13 0.000000 0.579400 0.218998
O O14 0.351720 0.250000 0.558570
O O15 0.289075 0.118350 0.528876
O O16 0.802072 0.000000 0.500000
#
# Coordination Sequence:
#
# PCOD8298485 Si02
#       6
#    16  16  16  16  16  16
#     4  11  20  34  54  77 109 144 178 220 268 319
#     4  10  21  35  51  76 110 144 176 215 262 310
#     4  11  20  36  53  75 105 139 180 218 256 310
#     4  11  21  32  52  81 110 140 172 213 268 328
#     4  10  19  31  49  76 111 145 173 203 249 319
#     4  11  19  33  52  75 101 139 181 217 253 308
#
# _framework density 17.347261
#
# number of rings (size 3 to 8) (size 9 to 14) (size 15 to 20)
#    0.000    1.333    6.667    2.000    0.000    2.333 
#    0.000    2.500    0.000    0.500    0.000    0.000 
#    0.000    0.000    0.000    0.000    0.000    0.000 
#
# Total GULP energy -595005.215131 kJ/mol
# GULP energy per Si atom -12395.941982 kJ/mol
# Density = 1.730778 g / cm^3
# Si number density = 17.347261 Si / 1000 Ang^3
#
#
#
# Elastic Constant Matrix: (Units=GPa)
#
#
# Indices 1 2 3 4 5 6 
#
# 1 104.3912 48.8059 49.2722 0.0000 0.0000 0.0000
# 2 48.8059 88.2961 49.8255 0.0000 0.0000 0.0000
# 3 49.2722 49.8255 69.5507 0.0000 0.0000 0.0000
# 4 0.0000 0.0000 0.0000 31.6882 0.0000 0.0000
# 5 0.0000 0.0000 0.0000 0.0000 23.7539 0.0000
# 6 0.0000 0.0000 0.0000 0.0000 0.0000 20.6205
#
#
#
# Elastic Compliance Matrix: (Units=1/GPa)
#
#
# Indices 1 2 3 4 5 6 
#
# 1 0.015148 -0.003890 -0.007945 0.000000 0.000000 0.000000
# 2 -0.003890 0.020010 -0.011579 0.000000 0.000000 0.000000
# 3 -0.007945 -0.011579 0.028301 0.000000 0.000000 0.000000
# 4 0.000000 0.000000 0.000000 0.031557 0.000000 0.000000
# 5 0.000000 0.000000 0.000000 0.000000 0.042098 0.000000
# 6 0.000000 0.000000 0.000000 0.000000 0.000000 0.048495
#
#
# Mechanical properties :
#
#
# Convention : Reuss Voigt Hill
#
# Bulk Modulus (GPa) = 60.12554 62.00503 61.06528
# Shear Modulus (GPa) = 21.01006 22.83481 21.92243
#
# Velocity S-wave (km/s) = 3.48393 3.63207 3.55877
# Velocity P-wave (km/s) = 7.13575 7.30823 7.22250
#
# Compressibility (1/GPa) = 0.01663187
#
# Stress axis : x y z
#
# Youngs Moduli (GPa) = 66.01621 49.97567 35.33392
#
# Poissons Ratio (x) = 0.19440 0.28071
# Poissons Ratio (y) = 0.25679 0.40913
# Poissons Ratio (z) = 0.52447 0.57867
#
# Static dielectric constant tensor:
#      x y z
#    x 3.066260 0.000000 0.000000 
#    y 0.000000 3.352210 0.000000 
#    z 0.000000 0.000000 3.083770 
# 
# 
# High freq. dielectric constant tensor:
#      x y z
#    x 1.643920 0.000000 0.000000 
#    y 0.000000 1.681120 0.000000 
#    z 0.000000 0.000000 1.647540 
# 
# From -- ./inp_files/44097.got.cif
#   From: 2010.03.12/outbox.cif.g09.slc.cpg/sg74_23_cif.got.tgz:44097.got - 2010.04.16 15:46:19.
