data_PCOD8298781
_publ_section_title
;
Structure prediction by ZEFSAII (Michael W. Deem and Ramdas Pophale) SiO2 
 PCOD8298781
Probable space group: I M M A
;
_chemical_formula_sum "Si O2"
_cell_formula_units_Z 104
_cell_length_a 8.731332
_cell_length_b 19.682138
_cell_length_c 32.814410
_cell_angle_alpha 90.000000
_cell_angle_beta 90.000000
_cell_angle_gamma 90.000000
_cell_volume 5639.198405
_symmetry_space_group_name_H-M "I M M A"
_symmetry_group_IT_number 74
_symmetry_cell_setting 'orthorhombic'
loop_
_space_group_symop_operation_xyz
x,y,z
-x,1/2-y,z
x,-y,-z
-x,1/2+y,-z
-x,-y,-z
x,1/2+y,-z
-x,y,z
x,1/2-y,z
1/2+x,1/2+y,1/2+z
1/2-x,-y,1/2+z
1/2+x,1/2-y,1/2-z
1/2-x,y,1/2-z
1/2-x,1/2-y,1/2-z
1/2+x,y,1/2-z
1/2-x,1/2+y,1/2+z
1/2+x,-y,1/2+z
loop_
_atom_site_type_symbol
_atom_site_label
_atom_site_fract_x
_atom_site_fract_y
_atom_site_fract_z
Si Si1 0.317771 0.479017 0.207105
Si Si2 0.680227 0.075538 0.992864
Si Si3 0.318258 0.078098 0.372077
Si Si4 0.319289 0.671782 0.935407
Si Si5 0.828008 0.059556 0.912237
Si Si6 0.180130 0.250000 0.705919
Si Si7 0.325166 0.615593 0.324731
O O1 0.500000 0.479300 0.208642
O O2 0.250000 0.453047 0.250000
O O3 0.260775 0.427397 0.172072
O O4 0.256909 0.554651 0.198835
O O5 0.500000 0.075320 0.996340
O O6 0.744684 0.129086 0.025898
O O7 0.728190 0.095982 0.947158
O O8 0.748230 0.000000 0.000000
O O9 0.500000 0.076045 0.365447
O O10 0.264245 0.146720 0.394261
O O11 0.263607 0.015060 0.400359
O O12 0.500000 0.661949 0.929718
O O13 0.275782 0.750000 0.942680
O O14 0.820532 0.106772 0.872997
O O15 0.000000 0.052641 0.928738
O O16 0.250000 0.250000 0.750000
O O17 0.235202 0.315820 0.682308
O O18 0.000000 0.250000 0.708990
O O19 0.500000 0.619769 0.308838
#
# Coordination Sequence:
#
# PCOD8298781 Si02
#       7
#    16  16  16  16  16   8  16
#     4  11  21  35  57  85 114 142 179 226 277 330
#     4  10  19  32  54  81 109 144 186 230 275 327
#     4  10  20  35  56  82 110 142 182 225 275 329
#     4  10  21  37  55  79 112 148 186 229 280 333
#     4   9  19  34  54  78 105 139 179 227 278 326
#     4  12  24  38  56  78 104 146 192 234 286 342
#     4  10  21  38  55  77 110 146 186 233 283 335
#
# _framework density 18.442336999999998
#
# number of rings (size 3 to 8) (size 9 to 14) (size 15 to 20)
#    0.000    1.846    1.538    4.385    0.000    4.308 
#    1.385    0.000    0.000    0.462    0.000    0.000 
#    0.000    0.000    0.000    0.000    0.000    0.000 
#
# Total GULP energy -644889.836136 kJ/mol
# GULP energy per Si atom -12401.727618 kJ/mol
# Density = 1.840036 g / cm^3
# Si number density = 18.442337 Si / 1000 Ang^3
#
#
#
# Elastic Constant Matrix: (Units=GPa)
#
#
# Indices 1 2 3 4 5 6 
#
# 1 100.0407 41.1854 48.9355 0.0000 0.0000 0.0000
# 2 41.1854 103.4129 56.1313 0.0000 0.0000 0.0000
# 3 48.9355 56.1313 131.1431 0.0000 0.0000 0.0000
# 4 0.0000 0.0000 0.0000 26.7819 0.0000 0.0000
# 5 0.0000 0.0000 0.0000 0.0000 36.2604 0.0000
# 6 0.0000 0.0000 0.0000 0.0000 0.0000 25.2195
#
#
#
# Elastic Compliance Matrix: (Units=1/GPa)
#
#
# Indices 1 2 3 4 5 6 
#
# 1 0.013051 -0.003327 -0.003446 0.000000 0.000000 0.000000
# 2 -0.003327 0.013445 -0.004513 0.000000 0.000000 0.000000
# 3 -0.003446 -0.004513 0.010843 0.000000 0.000000 0.000000
# 4 0.000000 0.000000 0.000000 0.037339 0.000000 0.000000
# 5 0.000000 0.000000 0.000000 0.000000 0.027578 0.000000
# 6 0.000000 0.000000 0.000000 0.000000 0.000000 0.039652
#
#
# Mechanical properties :
#
#
# Convention : Reuss Voigt Hill
#
# Bulk Modulus (GPa) = 67.72196 69.67789 68.69992
# Shear Modulus (GPa) = 29.51555 30.20866 29.86210
#
# Velocity S-wave (km/s) = 4.00487 4.05162 4.02831
# Velocity P-wave (km/s) = 7.62797 7.72988 7.67909
#
# Compressibility (1/GPa) = 0.01476626
#
# Stress axis : x y z
#
# Youngs Moduli (GPa) = 76.62028 74.37845 92.22823
#
# Poissons Ratio (x) = 0.24749 0.31780
# Poissons Ratio (y) = 0.25495 0.41622
# Poissons Ratio (z) = 0.26402 0.33566
#
# Static dielectric constant tensor:
#      x y z
#    x 3.410880 0.000000 0.000000 
#    y 0.000000 3.244010 0.000000 
#    z 0.000000 0.000000 3.487050 
# 
# 
# High freq. dielectric constant tensor:
#      x y z
#    x 1.720050 0.000000 0.000000 
#    y 0.000000 1.690060 0.000000 
#    z 0.000000 0.000000 1.724850 
# 
# From -- ./inp_files/70629.got.cif
#   From: 2010.03.12/outbox.cif.g09.slc.cpg/sg74_36_cif.got.tgz:70629.got - 2010.04.16 15:46:19.
