data_PCOD8298409
_publ_section_title
;
Structure prediction by ZEFSAII (Michael W. Deem and Ramdas Pophale) SiO2 
 PCOD8298409
Probable space group: I M M A
;
_chemical_formula_sum "Si O2"
_cell_formula_units_Z 112
_cell_length_a 17.978624
_cell_length_b 18.139350
_cell_length_c 19.072063
_cell_angle_alpha 90.000000
_cell_angle_beta 90.000000
_cell_angle_gamma 90.000000
_cell_volume 6219.791737
_symmetry_space_group_name_H-M "I M M A"
_symmetry_group_IT_number 74
_symmetry_cell_setting 'orthorhombic'
loop_
_space_group_symop_operation_xyz
x,y,z
-x,1/2-y,z
x,-y,-z
-x,1/2+y,-z
-x,-y,-z
x,1/2+y,-z
-x,y,z
x,1/2-y,z
1/2+x,1/2+y,1/2+z
1/2-x,-y,1/2+z
1/2+x,1/2-y,1/2-z
1/2-x,y,1/2-z
1/2-x,1/2-y,1/2-z
1/2+x,y,1/2-z
1/2-x,1/2+y,1/2+z
1/2+x,-y,1/2+z
loop_
_atom_site_type_symbol
_atom_site_label
_atom_site_fract_x
_atom_site_fract_y
_atom_site_fract_z
Si Si1 0.157001 0.038419 0.186720
Si Si2 0.328370 0.668688 0.491172
Si Si3 0.915747 0.451613 0.931374
Si Si4 0.173536 0.970043 0.653868
Si Si5 0.417011 0.433127 0.947060
Si Si6 0.082858 0.332026 0.129045
Si Si7 0.331514 0.162326 0.050612
O O1 0.141370 0.024268 0.268015
O O2 0.238380 0.018165 0.158876
O O3 0.142198 0.125055 0.176264
O O4 0.096416 0.996598 0.139762
O O5 0.318386 0.750000 0.458853
O O6 0.356070 0.615019 0.429653
O O7 0.393587 0.666558 0.548246
O O8 0.251594 0.643150 0.526112
O O9 0.000000 0.422201 0.932222
O O10 0.898224 0.500000 0.000000
O O11 0.152903 0.890864 0.617861
O O12 0.138261 0.040424 0.614388
O O13 0.500000 0.414986 0.918099
O O14 0.422131 0.500000 0.000000
O O15 0.385961 0.360437 0.986695
O O16 0.083571 0.250000 0.159300
O O17 0.000000 0.366250 0.133401
O O18 0.341760 0.250000 0.068698
#
# Coordination Sequence:
#
# PCOD8298409 Si02
#       7
#    16  16  16  16  16  16  16
#     4  11  21  33  51  78 109 146 187 221 259 312
#     4  10  19  32  52  77 106 140 177 219 266 311
#     4  11  20  31  50  75 105 142 185 228 261 304
#     4  10  21  35  54  77 109 147 178 218 270 323
#     4   9  19  36  56  77 102 136 177 226 279 322
#     4  10  19  31  47  71 107 145 176 210 257 309
#     4  10  19  34  58  84 107 137 178 222 265 320
#
# _framework density 18.007034000000001
#
# number of rings (size 3 to 8) (size 9 to 14) (size 15 to 20)
#    0.000    1.857    2.857    1.714    0.000    4.000 
#    0.000    1.429    0.000    0.857    0.000    6.000 
#    0.000    0.000    0.000    0.000    0.000    0.000 
#
# Total GULP energy -694139.675115 kJ/mol
# GULP energy per Si atom -12395.351341 kJ/mol
# Density = 1.796605 g / cm^3
# Si number density = 18.007034 Si / 1000 Ang^3
#
#
#
# Elastic Constant Matrix: (Units=GPa)
#
#
# Indices 1 2 3 4 5 6 
#
# 1 96.3179 27.9395 39.3161 0.0000 0.0000 0.0000
# 2 27.9395 60.4080 41.2927 0.0000 0.0000 0.0000
# 3 39.3161 41.2927 98.0802 0.0000 0.0000 0.0000
# 4 0.0000 0.0000 0.0000 18.9799 0.0000 0.0000
# 5 0.0000 0.0000 0.0000 0.0000 16.5144 0.0000
# 6 0.0000 0.0000 0.0000 0.0000 0.0000 23.3141
#
#
#
# Elastic Compliance Matrix: (Units=1/GPa)
#
#
# Indices 1 2 3 4 5 6 
#
# 1 0.012896 -0.003413 -0.003732 0.000000 0.000000 0.000000
# 2 -0.003413 0.024147 -0.008798 0.000000 0.000000 0.000000
# 3 -0.003732 -0.008798 0.015396 0.000000 0.000000 0.000000
# 4 0.000000 0.000000 0.000000 0.052687 0.000000 0.000000
# 5 0.000000 0.000000 0.000000 0.000000 0.060553 0.000000
# 6 0.000000 0.000000 0.000000 0.000000 0.000000 0.042893
#
#
# Mechanical properties :
#
#
# Convention : Reuss Voigt Hill
#
# Bulk Modulus (GPa) = 48.65798 52.43363 50.54581
# Shear Modulus (GPa) = 20.21767 21.51221 20.86494
#
# Velocity S-wave (km/s) = 3.35440 3.46013 3.40768
# Velocity P-wave (km/s) = 6.48714 6.71900 6.60409
#
# Compressibility (1/GPa) = 0.02055161
#
# Stress axis : x y z
#
# Youngs Moduli (GPa) = 77.54399 41.41378 64.95261
#
# Poissons Ratio (x) = 0.14135 0.24243
# Poissons Ratio (y) = 0.26467 0.57144
# Poissons Ratio (z) = 0.28943 0.36435
#
# Static dielectric constant tensor:
#      x y z
#    x 3.459450 0.000000 0.000000 
#    y 0.000000 3.456440 0.000000 
#    z 0.000000 0.000000 3.124070 
# 
# 
# High freq. dielectric constant tensor:
#      x y z
#    x 1.708560 0.000000 0.000000 
#    y 0.000000 1.687440 0.000000 
#    z 0.000000 0.000000 1.665640 
# 
# From -- ./inp_files/53261.got.cif
#   From: 2010.03.12/outbox.cif.g09.slc.cpg/sg74_27_cif.got.tgz:53261.got - 2010.04.16 15:46:19.
