data_PCOD8298032
_publ_section_title
;
Structure prediction by ZEFSAII (Michael W. Deem and Ramdas Pophale) SiO2 
 PCOD8298032
Probable space group: I M M A
;
_chemical_formula_sum "Si O2"
_cell_formula_units_Z 128
_cell_length_a 23.041111
_cell_length_b 25.623416
_cell_length_c 11.699534
_cell_angle_alpha 90.000000
_cell_angle_beta 90.000000
_cell_angle_gamma 90.000000
_cell_volume 6907.310953
_symmetry_space_group_name_H-M "I M M A"
_symmetry_group_IT_number 74
_symmetry_cell_setting 'orthorhombic'
loop_
_space_group_symop_operation_xyz
x,y,z
-x,1/2-y,z
x,-y,-z
-x,1/2+y,-z
-x,-y,-z
x,1/2+y,-z
-x,y,z
x,1/2-y,z
1/2+x,1/2+y,1/2+z
1/2-x,-y,1/2+z
1/2+x,1/2-y,1/2-z
1/2-x,y,1/2-z
1/2-x,1/2-y,1/2-z
1/2+x,y,1/2-z
1/2-x,1/2+y,1/2+z
1/2+x,-y,1/2+z
loop_
_atom_site_type_symbol
_atom_site_label
_atom_site_fract_x
_atom_site_fract_y
_atom_site_fract_z
Si Si1 0.567418 0.809805 0.721079
Si Si2 0.379236 0.903961 0.589100
Si Si3 0.065311 0.485021 0.225254
Si Si4 0.738238 0.963714 0.615896
Si Si5 0.933856 0.849221 0.530554
Si Si6 0.432484 0.194457 0.794553
Si Si7 0.636345 0.447196 0.068678
Si Si8 0.568924 0.900847 0.351952
O O1 0.500000 0.821010 0.692244
O O2 0.583244 0.750000 0.689254
O O3 0.607932 0.849746 0.653200
O O4 0.580283 0.818576 0.854183
O O5 0.426149 0.950383 0.611705
O O6 0.314577 0.923108 0.620744
O O7 0.388323 0.892582 0.456957
O O8 0.107523 0.454651 0.309057
O O9 0.084217 0.544357 0.207240
O O10 0.000000 0.481950 0.270862
O O11 0.750000 0.987230 0.750000
O O12 0.796556 0.932658 0.585123
O O13 0.727438 0.000000 0.500000
O O14 0.921333 0.809022 0.429445
O O15 0.894125 0.899366 0.506090
O O16 0.000000 0.869436 0.528506
O O17 0.500000 0.195360 0.766733
O O18 0.405163 0.250000 0.753145
O O19 0.407319 0.144299 0.730868
O O20 0.626445 0.500000 0.000000
O O21 0.500000 0.897790 0.381364
#
# Coordination Sequence:
#
# PCOD8298032 Si02
#       8
#    16  16  16  16  16  16  16  16
#     4  10  20  34  56  87 118 151 195 244 296 355
#     4  12  22  37  58  81 115 154 194 238 293 349
#     4  11  20  33  53  82 117 148 182 229 292 360
#     4  11  23  41  62  85 116 158 206 249 295 353
#     4  10  18  33  55  82 116 151 191 239 298 359
#     4   9  18  33  53  79 114 154 192 232 283 347
#     4  11  22  34  54  83 116 150 191 240 293 354
#     4  10  21  33  51  82 116 150 188 230 288 355
#
# _framework density 18.531089000000001
#
# number of rings (size 3 to 8) (size 9 to 14) (size 15 to 20)
#    0.000    1.500    2.500    3.750    0.000    5.000 
#    0.000    1.250    0.000    4.125    0.000    0.875 
#    0.000    0.000    0.000    0.000    0.000    0.000 
#
# Total GULP energy -792848.521568 kJ/mol
# GULP energy per Si atom -12388.258149 kJ/mol
# Density = 1.848891 g / cm^3
# Si number density = 18.531089 Si / 1000 Ang^3
#
#
#
# Elastic Constant Matrix: (Units=GPa)
#
#
# Indices 1 2 3 4 5 6 
#
# 1 74.4028 40.6470 23.3110 0.0000 0.0000 0.0000
# 2 40.6470 138.1188 28.3260 0.0000 0.0000 0.0000
# 3 23.3110 28.3260 68.3563 0.0000 0.0000 0.0000
# 4 0.0000 0.0000 0.0000 15.0867 0.0000 0.0000
# 5 0.0000 0.0000 0.0000 0.0000 5.7148 0.0000
# 6 0.0000 0.0000 0.0000 0.0000 0.0000 19.0692
#
#
#
# Elastic Compliance Matrix: (Units=1/GPa)
#
#
# Indices 1 2 3 4 5 6 
#
# 1 0.016991 -0.004166 -0.004068 0.000000 0.000000 0.000000
# 2 -0.004166 0.008934 -0.002281 0.000000 0.000000 0.000000
# 3 -0.004068 -0.002281 0.016962 0.000000 0.000000 0.000000
# 4 0.000000 0.000000 0.000000 0.066284 0.000000 0.000000
# 5 0.000000 0.000000 0.000000 0.000000 0.174983 0.000000
# 6 0.000000 0.000000 0.000000 0.000000 0.000000 0.052441
#
#
# Mechanical properties :
#
#
# Convention : Reuss Voigt Hill
#
# Bulk Modulus (GPa) = 45.75398 51.71623 48.73510
# Shear Modulus (GPa) = 13.70200 20.54706 17.12453
#
# Velocity S-wave (km/s) = 2.72215 3.33346 3.04319
# Velocity P-wave (km/s) = 5.88423 6.54097 6.22127
#
# Compressibility (1/GPa) = 0.02185602
#
# Stress axis : x y z
#
# Youngs Moduli (GPa) = 58.85549 111.93142 58.95566
#
# Poissons Ratio (x) = 0.46630 0.23983
# Poissons Ratio (y) = 0.24519 0.13451
# Poissons Ratio (z) = 0.23942 0.25537
#
# Static dielectric constant tensor:
#      x y z
#    x 3.261930 0.000000 0.000000 
#    y 0.000000 3.665160 0.000000 
#    z 0.000000 0.000000 3.840990 
# 
# 
# High freq. dielectric constant tensor:
#      x y z
#    x 1.687620 0.000000 0.000000 
#    y 0.000000 1.715790 0.000000 
#    z 0.000000 0.000000 1.731370 
# 
# From -- ./inp_files/25568.got.cif
#   From: 2010.03.12/outbox.cif.g09.slc.cpg/sg74_13_cif.got.tgz:25568.got - 2010.04.16 15:46:19.
