data_PCOD8298157
_publ_section_title
;
Structure prediction by ZEFSAII (Michael W. Deem and Ramdas Pophale) SiO2 
 PCOD8298157
Probable space group: I M M A
;
_chemical_formula_sum "Si O2"
_cell_formula_units_Z 60
_cell_length_a 7.454610
_cell_length_b 15.529165
_cell_length_c 25.210952
_cell_angle_alpha 90.000000
_cell_angle_beta 90.000000
_cell_angle_gamma 90.000000
_cell_volume 2918.517337
_symmetry_space_group_name_H-M "I M M A"
_symmetry_group_IT_number 74
_symmetry_cell_setting 'orthorhombic'
loop_
_space_group_symop_operation_xyz
x,y,z
-x,1/2-y,z
x,-y,-z
-x,1/2+y,-z
-x,-y,-z
x,1/2+y,-z
-x,y,z
x,1/2-y,z
1/2+x,1/2+y,1/2+z
1/2-x,-y,1/2+z
1/2+x,1/2-y,1/2-z
1/2-x,y,1/2-z
1/2-x,1/2-y,1/2-z
1/2+x,y,1/2-z
1/2-x,1/2+y,1/2+z
1/2+x,-y,1/2+z
loop_
_atom_site_type_symbol
_atom_site_label
_atom_site_fract_x
_atom_site_fract_y
_atom_site_fract_z
Si Si1 0.214469 0.750000 0.361064
Si Si2 0.207592 0.750000 0.688770
Si Si3 0.500000 0.653489 0.551101
Si Si4 0.708228 0.074550 0.810664
Si Si5 0.500000 0.250000 0.549976
Si Si6 0.786305 0.912490 0.623648
O O1 0.283895 0.667549 0.327715
O O2 0.316551 0.750000 0.416823
O O3 0.000000 0.750000 0.371153
O O4 0.250000 0.750000 0.750000
O O5 0.282507 0.663271 0.662458
O O6 0.000000 0.750000 0.678009
O O7 0.500000 0.750000 0.576385
O O8 0.500000 0.663856 0.487022
O O9 0.320797 0.601418 0.568669
O O10 0.500000 0.075983 0.819569
O O11 0.750000 0.053483 0.750000
O O12 0.784276 0.000064 0.848776
O O13 0.000000 0.912143 0.612604
#
# Coordination Sequence:
#
# PCOD8298157 Si02
#       6
#     8   8   8  16   4  16
#     4  10  23  43  63  88 127 158 210 270 309 366
#     4  10  19  28  46  72 110 155 188 236 290 353
#     4  10  22  39  64  88 113 164 212 247 317 358
#     4  10  22  38  61  93 124 169 205 247 316 370
#     4  10  24  42  68  96 110 170 222 254 330 358
#     4  10  21  37  55  86 124 157 200 251 304 372
#
# _framework density 20.558384
#
# number of rings (size 3 to 8) (size 9 to 14) (size 15 to 20)
#    0.400    1.600    1.333    1.200    5.600    1.067 
#    0.000    2.667    0.000    4.800    0.000    0.000 
#    0.000    0.000    0.000    0.000    0.000    0.000 
#
# Total GULP energy -371825.596433 kJ/mol
# GULP energy per Si atom -12394.186548 kJ/mol
# Density = 2.051159 g / cm^3
# Si number density = 20.558384 Si / 1000 Ang^3
#
#
#
# Elastic Constant Matrix: (Units=GPa)
#
#
# Indices 1 2 3 4 5 6 
#
# 1 72.1036 23.8022 30.4143 0.0000 0.0000 0.0000
# 2 23.8022 136.7582 25.3204 0.0000 0.0000 0.0000
# 3 30.4143 25.3204 94.3902 0.0000 0.0000 0.0000
# 4 0.0000 0.0000 0.0000 36.7365 0.0000 0.0000
# 5 0.0000 0.0000 0.0000 0.0000 36.8140 0.0000
# 6 0.0000 0.0000 0.0000 0.0000 0.0000 11.4643
#
#
#
# Elastic Compliance Matrix: (Units=1/GPa)
#
#
# Indices 1 2 3 4 5 6 
#
# 1 0.016551 -0.001992 -0.004799 0.000000 0.000000 0.000000
# 2 -0.001992 0.007934 -0.001486 0.000000 0.000000 0.000000
# 3 -0.004799 -0.001486 0.012539 0.000000 0.000000 0.000000
# 4 0.000000 0.000000 0.000000 0.027221 0.000000 0.000000
# 5 0.000000 0.000000 0.000000 0.000000 0.027164 0.000000
# 6 0.000000 0.000000 0.000000 0.000000 0.000000 0.087227
#
#
# Mechanical properties :
#
#
# Convention : Reuss Voigt Hill
#
# Bulk Modulus (GPa) = 48.85251 51.36953 50.11102
# Shear Modulus (GPa) = 24.75090 31.91731 28.33410
#
# Velocity S-wave (km/s) = 3.47354 3.94448 3.71647
# Velocity P-wave (km/s) = 6.31678 6.76658 6.54554
#
# Compressibility (1/GPa) = 0.02046978
#
# Stress axis : x y z
#
# Youngs Moduli (GPa) = 60.42058 126.03810 79.74967
#
# Poissons Ratio (x) = 0.25109 0.38268
# Poissons Ratio (y) = 0.12037 0.11854
# Poissons Ratio (z) = 0.28993 0.18735
#
# Static dielectric constant tensor:
#      x y z
#    x 4.141810 0.000000 0.000000 
#    y 0.000000 4.414980 0.000000 
#    z 0.000000 0.000000 3.356400 
# 
# 
# High freq. dielectric constant tensor:
#      x y z
#    x 1.805310 0.000000 0.000000 
#    y 0.000000 1.813590 0.000000 
#    z 0.000000 0.000000 1.782150 
# 
# From -- ./inp_files/56355.got.cif
#   From: 2010.03.12/outbox.cif.g09.slc.cpg/sg74_29_cif.got.tgz:56355.got - 2010.04.16 15:46:19.
