data_PCOD8298600
_publ_section_title
;
Structure prediction by ZEFSAII (Michael W. Deem and Ramdas Pophale) SiO2 
 PCOD8298600
Probable space group: I M M A
;
_chemical_formula_sum "Si O2"
_cell_formula_units_Z 80
_cell_length_a 9.077510
_cell_length_b 22.929592
_cell_length_c 24.644133
_cell_angle_alpha 90.000000
_cell_angle_beta 90.000000
_cell_angle_gamma 90.000000
_cell_volume 5129.518578
_symmetry_space_group_name_H-M "I M M A"
_symmetry_group_IT_number 74
_symmetry_cell_setting 'orthorhombic'
loop_
_space_group_symop_operation_xyz
x,y,z
-x,1/2-y,z
x,-y,-z
-x,1/2+y,-z
-x,-y,-z
x,1/2+y,-z
-x,y,z
x,1/2-y,z
1/2+x,1/2+y,1/2+z
1/2-x,-y,1/2+z
1/2+x,1/2-y,1/2-z
1/2-x,y,1/2-z
1/2-x,1/2-y,1/2-z
1/2+x,y,1/2-z
1/2-x,1/2+y,1/2+z
1/2+x,-y,1/2+z
loop_
_atom_site_type_symbol
_atom_site_label
_atom_site_fract_x
_atom_site_fract_y
_atom_site_fract_z
Si Si1 0.171597 0.636617 0.695671
Si Si2 0.331043 0.682392 0.590691
Si Si3 0.325674 0.091956 0.020745
Si Si4 0.173915 0.523359 0.419176
Si Si5 0.669737 0.500319 0.196931
O O1 0.250000 0.659927 0.750000
O O2 0.240754 0.669345 0.644872
O O3 0.198764 0.568040 0.689044
O O4 0.000000 0.652037 0.698978
O O5 0.500000 0.663304 0.599245
O O6 0.318342 0.750000 0.576413
O O7 0.261935 0.648851 0.539343
O O8 0.500000 0.102317 0.027960
O O9 0.267604 0.037486 0.056324
O O10 0.284666 0.077945 0.957720
O O11 0.232607 0.531972 0.357531
O O12 0.000000 0.516140 0.417133
O O13 0.500000 0.514369 0.205643
O O14 0.750000 0.525299 0.250000
#
# Coordination Sequence:
#
# PCOD8298600 Si02
#       5
#    16  16  16  16  16
#     4  10  19  32  49  65  85 116 154 193 228 264
#     4  11  23  35  45  61  89 120 152 192 230 265
#     4   9  16  30  50  67  84 113 150 185 223 268
#     4   8  14  27  48  69  89 112 143 182 224 268
#     4   9  16  27  43  66  92 117 143 176 217 261
#
# _framework density 15.596005999999999
#
# number of rings (size 3 to 8) (size 9 to 14) (size 15 to 20)
#    0.000    2.600    2.000    2.400    0.000    2.800 
#    0.000    3.000    0.000    0.000    0.000    0.000 
#    0.000    0.800    0.000    1.800    0.000    3.200 
#
# Total GULP energy -495814.646332 kJ/mol
# GULP energy per Si atom -12395.366158 kJ/mol
# Density = 1.556051 g / cm^3
# Si number density = 15.596006 Si / 1000 Ang^3
#
#
#
# Elastic Constant Matrix: (Units=GPa)
#
#
# Indices 1 2 3 4 5 6 
#
# 1 72.2491 36.6511 49.8301 0.0000 0.0000 0.0000
# 2 36.6511 50.5043 50.1813 0.0000 0.0000 0.0000
# 3 49.8301 50.1813 149.6403 0.0000 0.0000 0.0000
# 4 0.0000 0.0000 0.0000 21.0486 0.0000 0.0000
# 5 0.0000 0.0000 0.0000 0.0000 26.4113 0.0000
# 6 0.0000 0.0000 0.0000 0.0000 0.0000 17.8320
#
#
#
# Elastic Compliance Matrix: (Units=1/GPa)
#
#
# Indices 1 2 3 4 5 6 
#
# 1 0.022806 -0.013504 -0.003066 0.000000 0.000000 0.000000
# 2 -0.013504 0.037691 -0.008143 0.000000 0.000000 0.000000
# 3 -0.003066 -0.008143 0.010434 0.000000 0.000000 0.000000
# 4 0.000000 0.000000 0.000000 0.047509 0.000000 0.000000
# 5 0.000000 0.000000 0.000000 0.000000 0.037863 0.000000
# 6 0.000000 0.000000 0.000000 0.000000 0.000000 0.056079
#
#
# Mechanical properties :
#
#
# Convention : Reuss Voigt Hill
#
# Bulk Modulus (GPa) = 46.49895 60.63541 53.56718
# Shear Modulus (GPa) = 18.58906 22.10713 20.34809
#
# Velocity S-wave (km/s) = 3.45615 3.76904 3.61598
# Velocity P-wave (km/s) = 6.76802 7.60947 7.20104
#
# Compressibility (1/GPa) = 0.02150586
#
# Stress axis : x y z
#
# Youngs Moduli (GPa) = 43.84808 26.53164 95.83879
#
# Poissons Ratio (x) = 0.35829 0.29382
# Poissons Ratio (y) = 0.59213 0.78038
# Poissons Ratio (z) = 0.13443 0.21604
#
# Static dielectric constant tensor:
#      x y z
#    x 2.901110 0.000000 0.000000 
#    y 0.000000 2.667920 0.000000 
#    z 0.000000 0.000000 3.385670 
# 
# 
# High freq. dielectric constant tensor:
#      x y z
#    x 1.588750 0.000000 0.000000 
#    y 0.000000 1.550310 0.000000 
#    z 0.000000 0.000000 1.607320 
# 
# From -- ./inp_files/63958.got.cif
#   From: 2010.03.12/outbox.cif.g09.slc.cpg/sg74_32_cif.got.tgz:63958.got - 2010.04.16 15:46:19.
