data_PCOD8298123
_publ_section_title
;
Structure prediction by ZEFSAII (Michael W. Deem and Ramdas Pophale) SiO2 
 PCOD8298123
Probable space group: I M M A
;
_chemical_formula_sum "Si O2"
_cell_formula_units_Z 92
_cell_length_a 11.436578
_cell_length_b 22.522691
_cell_length_c 17.235560
_cell_angle_alpha 90.000000
_cell_angle_beta 90.000000
_cell_angle_gamma 90.000000
_cell_volume 4439.578847
_symmetry_space_group_name_H-M "I M M A"
_symmetry_group_IT_number 74
_symmetry_cell_setting 'orthorhombic'
loop_
_space_group_symop_operation_xyz
x,y,z
-x,1/2-y,z
x,-y,-z
-x,1/2+y,-z
-x,-y,-z
x,1/2+y,-z
-x,y,z
x,1/2-y,z
1/2+x,1/2+y,1/2+z
1/2-x,-y,1/2+z
1/2+x,1/2-y,1/2-z
1/2-x,y,1/2-z
1/2-x,1/2-y,1/2-z
1/2+x,y,1/2-z
1/2-x,1/2+y,1/2+z
1/2+x,-y,1/2+z
loop_
_atom_site_type_symbol
_atom_site_label
_atom_site_fract_x
_atom_site_fract_y
_atom_site_fract_z
Si Si1 0.500000 0.371907 0.473365
Si Si2 0.241485 0.498418 0.160642
Si Si3 0.262573 0.250000 0.341852
Si Si4 0.130371 0.902965 0.433348
Si Si5 0.631326 0.319949 0.792649
Si Si6 0.000000 0.750000 0.926405
Si Si7 0.746746 0.876638 0.592307
Si Si8 0.000000 0.470196 0.915784
O O1 0.500000 0.302045 0.489353
O O2 0.391559 0.385822 0.417305
O O3 0.500000 0.400761 0.559523
O O4 0.250000 0.516574 0.250000
O O5 0.327191 0.537950 0.109411
O O6 0.282955 0.429842 0.150400
O O7 0.110441 0.511452 0.133927
O O8 0.250000 0.250000 0.250000
O O9 0.395989 0.250000 0.365547
O O10 0.209236 0.312095 0.375760
O O11 0.137697 0.846275 0.378116
O O12 0.205124 0.886950 0.507301
O O13 0.000000 0.915658 0.461702
O O14 0.500000 0.336827 0.756768
O O15 0.640583 0.250000 0.799933
O O16 0.750000 0.344209 0.750000
O O17 0.000000 0.500000 0.000000
#
# Coordination Sequence:
#
# PCOD8298123 Si02
#       8
#     8  16   8  16  16   4  16   8
#     4  10  18  40  68  92 120 163 219 274 310 372
#     4  12  25  40  65  97 131 167 213 273 330 385
#     4  10  22  42  66  96 130 164 209 269 327 388
#     4  11  24  41  61  90 130 171 211 260 318 394
#     4   9  19  39  64  89 127 170 216 272 331 386
#     4   8  20  36  68  96 126 158 210 274 318 372
#     4  11  22  42  66  93 127 168 217 262 322 389
#     4  12  20  42  70  94 124 174 223 268 320 396
#
# _framework density 20.722687000000001
#
# number of rings (size 3 to 8) (size 9 to 14) (size 15 to 20)
#    0.000    1.391    3.478    1.565    2.435    1.391 
#    4.696    0.000    0.000    0.000    0.000    0.000 
#    0.000    0.000    0.000    0.000    0.000    0.000 
#
# Total GULP energy -569939.928066 kJ/mol
# GULP energy per Si atom -12389.998436 kJ/mol
# Density = 2.067552 g / cm^3
# Si number density = 20.722687 Si / 1000 Ang^3
#
#
#
# Elastic Constant Matrix: (Units=GPa)
#
#
# Indices 1 2 3 4 5 6 
#
# 1 104.9005 19.5289 41.0262 0.0000 0.0000 0.0000
# 2 19.5289 118.3343 63.1331 0.0000 0.0000 0.0000
# 3 41.0262 63.1331 128.3306 0.0000 0.0000 -0.0001
# 4 0.0000 0.0000 0.0000 34.9637 0.0000 0.0000
# 5 0.0000 0.0000 0.0000 0.0000 17.7518 0.0000
# 6 0.0000 0.0000 -0.0001 0.0000 0.0000 -9.0895
#
#
#
# Elastic Compliance Matrix: (Units=1/GPa)
#
#
# Indices 1 2 3 4 5 6 
#
# 1 0.010896 0.000082 -0.003523 0.000000 0.000000 0.000000
# 2 0.000082 0.011459 -0.005663 0.000000 0.000000 0.000000
# 3 -0.003523 -0.005663 0.011705 0.000000 0.000000 0.000000
# 4 0.000000 0.000000 0.000000 0.028601 0.000000 0.000000
# 5 0.000000 0.000000 0.000000 0.000000 0.056332 0.000000
# 6 0.000000 0.000000 0.000000 0.000000 0.000000 -0.110017
#
#
# Mechanical properties :
#
#
# Convention : Reuss Voigt Hill
#
# Bulk Modulus (GPa) = 63.09510 66.54910 64.82210
# Shear Modulus (GPa) = 153.99678 23.91702 88.95690
#
# Velocity S-wave (km/s) = 8.62986 3.40096 6.55900
# Velocity P-wave (km/s) = 11.39354 6.89970 9.41856
#
# Compressibility (1/GPa) = 0.01584909
#
# Stress axis : x y z
#
# Youngs Moduli (GPa) = 91.77987 87.27084 85.43458
#
# Poissons Ratio (x) = -0.00713 0.30102
# Poissons Ratio (y) = -0.00750 0.48384
# Poissons Ratio (z) = 0.32338 0.49424
#
# Static dielectric constant tensor:
#      x y z
#    x 4.210390 0.000000 0.000000 
#    y 0.000000 4.513870 0.000000 
#    z 0.000000 0.000000 3.548100 
# 
# 
# High freq. dielectric constant tensor:
#      x y z
#    x 1.815320 0.000000 0.000000 
#    y 0.000000 1.833370 0.000000 
#    z 0.000000 0.000000 1.793860 
# 
# From -- ./inp_files/41352.got.cif
#   From: 2010.03.12/outbox.cif.g09.slc.cpg/sg74_21_cif.got.tgz:41352.got - 2010.04.16 15:46:19.
