data_PCOD8298116
_publ_section_title
;
Structure prediction by ZEFSAII (Michael W. Deem and Ramdas Pophale) SiO2 
 PCOD8298116
Probable space group: I M M A
;
_chemical_formula_sum "Si O2"
_cell_formula_units_Z 72
_cell_length_a 26.793499
_cell_length_b 14.497250
_cell_length_c 9.554022
_cell_angle_alpha 90.000000
_cell_angle_beta 90.000000
_cell_angle_gamma 90.000000
_cell_volume 3711.088383
_symmetry_space_group_name_H-M "I M M A"
_symmetry_group_IT_number 74
_symmetry_cell_setting 'orthorhombic'
loop_
_space_group_symop_operation_xyz
x,y,z
-x,1/2-y,z
x,-y,-z
-x,1/2+y,-z
-x,-y,-z
x,1/2+y,-z
-x,y,z
x,1/2-y,z
1/2+x,1/2+y,1/2+z
1/2-x,-y,1/2+z
1/2+x,1/2-y,1/2-z
1/2-x,y,1/2-z
1/2-x,1/2-y,1/2-z
1/2+x,y,1/2-z
1/2-x,1/2+y,1/2+z
1/2+x,-y,1/2+z
loop_
_atom_site_type_symbol
_atom_site_label
_atom_site_fract_x
_atom_site_fract_y
_atom_site_fract_z
Si Si1 0.691693 0.250000 0.221603
Si Si2 0.307769 0.750000 0.218546
Si Si3 0.055949 0.597072 0.071214
Si Si4 0.444059 0.857692 0.119146
Si Si5 0.656765 0.393947 0.001142
Si Si6 0.629888 0.250000 0.500868
O O1 0.750000 0.250000 0.250000
O O2 0.665593 0.250000 0.369568
O O3 0.676224 0.342700 0.139357
O O4 0.250000 0.750000 0.250000
O O5 0.321494 0.842559 0.134511
O O6 0.336891 0.750000 0.362090
O O7 0.066383 0.587943 0.237024
O O8 0.095070 0.661262 0.993749
O O9 0.000000 0.636289 0.049761
O O10 0.062749 0.500000 0.000000
O O11 0.500000 0.877252 0.061190
O O12 0.436657 0.750000 0.154053
O O13 0.403930 0.889748 0.003419
O O14 0.674999 0.500000 0.000000
#
# Coordination Sequence:
#
# PCOD8298116 Si02
#       6
#     8   8  16  16  16   8
#     4  11  27  46  60  90 131 159 201 277 325 357
#     4  11  23  44  67  88 116 164 217 260 311 376
#     4  10  20  34  58  94 129 160 200 250 302 364
#     4  10  18  37  65  90 125 171 209 244 301 377
#     4  11  23  43  66  94 126 163 206 256 316 375
#     4  12  21  38  67  88 117 167 207 251 311 368
#
# _framework density 19.401316000000001
#
# number of rings (size 3 to 8) (size 9 to 14) (size 15 to 20)
#    0.000    1.333    5.556    1.667    3.111    1.333 
#    0.000    4.444    0.000    0.000    0.000    0.000 
#    0.000    0.000    0.000    0.000    0.000    0.000 
#
# Total GULP energy -446460.382718 kJ/mol
# GULP energy per Si atom -12401.677298 kJ/mol
# Density = 1.935716 g / cm^3
# Si number density = 19.401316 Si / 1000 Ang^3
#
#
#
# Elastic Constant Matrix: (Units=GPa)
#
#
# Indices 1 2 3 4 5 6 
#
# 1 163.4972 55.2649 69.4249 0.0000 0.0000 0.0000
# 2 55.2649 125.5586 58.3805 0.0000 0.0000 0.0000
# 3 69.4249 58.3805 124.3927 0.0000 0.0000 0.0000
# 4 0.0000 0.0000 0.0000 16.7022 0.0000 0.0000
# 5 0.0000 0.0000 0.0000 0.0000 56.2954 0.0000
# 6 0.0000 0.0000 0.0000 0.0000 0.0000 10.8338
#
#
#
# Elastic Compliance Matrix: (Units=1/GPa)
#
#
# Indices 1 2 3 4 5 6 
#
# 1 0.008368 -0.001934 -0.003763 0.000000 0.000000 0.000000
# 2 -0.001934 0.010634 -0.003912 0.000000 0.000000 0.000000
# 3 -0.003763 -0.003912 0.011975 0.000000 0.000000 0.000000
# 4 0.000000 0.000000 0.000000 0.059873 0.000000 0.000000
# 5 0.000000 0.000000 0.000000 0.000000 0.017763 0.000000
# 6 0.000000 0.000000 0.000000 0.000000 0.000000 0.092304
#
#
# Mechanical properties :
#
#
# Convention : Reuss Voigt Hill
#
# Bulk Modulus (GPa) = 85.02724 86.62100 85.82412
# Shear Modulus (GPa) = 22.31621 32.12482 27.22052
#
# Velocity S-wave (km/s) = 3.39520 4.07357 3.74976
# Velocity P-wave (km/s) = 7.70003 8.17736 7.94228
#
# Compressibility (1/GPa) = 0.01176094
#
# Stress axis : x y z
#
# Youngs Moduli (GPa) = 119.50913 94.03521 83.50805
#
# Poissons Ratio (x) = 0.18182 0.31421
# Poissons Ratio (y) = 0.23107 0.32667
# Poissons Ratio (z) = 0.44966 0.36785
#
# Static dielectric constant tensor:
#      x y z
#    x 3.829330 0.000000 0.000000 
#    y 0.000000 3.530520 0.000000 
#    z 0.000000 0.000000 3.400680 
# 
# 
# High freq. dielectric constant tensor:
#      x y z
#    x 1.769720 0.000000 0.000000 
#    y 0.000000 1.753030 0.000000 
#    z 0.000000 0.000000 1.745680 
# 
# From -- ./inp_files/9197.got.cif
#   From: 2010.03.12/outbox.cif.g09.slc.cpg/sg74_5_cif.got.tgz:9197.got - 2010.04.16 15:46:19.
