data_PCOD8298534
_publ_section_title
;
Structure prediction by ZEFSAII (Michael W. Deem and Ramdas Pophale) SiO2 
 PCOD8298534
Probable space group: I M M A
;
_chemical_formula_sum "Si O2"
_cell_formula_units_Z 96
_cell_length_a 9.815657
_cell_length_b 30.024359
_cell_length_c 19.232533
_cell_angle_alpha 90.000000
_cell_angle_beta 90.000000
_cell_angle_gamma 90.000000
_cell_volume 5667.996906
_symmetry_space_group_name_H-M "I M M A"
_symmetry_group_IT_number 74
_symmetry_cell_setting 'orthorhombic'
loop_
_space_group_symop_operation_xyz
x,y,z
-x,1/2-y,z
x,-y,-z
-x,1/2+y,-z
-x,-y,-z
x,1/2+y,-z
-x,y,z
x,1/2-y,z
1/2+x,1/2+y,1/2+z
1/2-x,-y,1/2+z
1/2+x,1/2-y,1/2-z
1/2-x,y,1/2-z
1/2-x,1/2-y,1/2-z
1/2+x,y,1/2-z
1/2-x,1/2+y,1/2+z
1/2+x,-y,1/2+z
loop_
_atom_site_type_symbol
_atom_site_label
_atom_site_fract_x
_atom_site_fract_y
_atom_site_fract_z
Si Si1 0.660300 0.542720 0.461429
Si Si2 0.843631 0.511701 0.187525
Si Si3 0.842223 0.697990 0.464682
Si Si4 0.659477 0.129604 0.461188
Si Si5 0.655250 0.408665 0.312305
Si Si6 0.650921 0.802918 0.191513
O O1 0.726610 0.500000 0.500000
O O2 0.500000 0.541570 0.475580
O O3 0.694547 0.540788 0.379805
O O4 0.717608 0.588341 0.493545
O O5 0.750000 0.529002 0.250000
O O6 0.814483 0.460140 0.169803
O O7 0.000000 0.518727 0.209204
O O8 0.817195 0.750000 0.476503
O O9 0.745614 0.672774 0.518591
O O10 0.800443 0.684047 0.385996
O O11 0.000000 0.685977 0.478203
O O12 0.500000 0.138200 0.475890
O O13 0.685975 0.120336 0.380201
O O14 0.500000 0.402688 0.288001
O O15 0.750000 0.391307 0.250000
O O16 0.500000 0.822051 0.205538
O O17 0.647315 0.750000 0.197644
O O18 0.750000 0.823788 0.250000
#
# Coordination Sequence:
#
# PCOD8298534 Si02
#       6
#    16  16  16  16  16  16
#     4   9  15  28  49  70  95 128 160 192 234 285
#     4   9  16  28  47  68  95 131 165 196 233 281
#     4   9  19  35  51  69  98 133 163 198 252 304
#     4  10  19  31  51  77  98 123 166 208 240 283
#     4   9  17  29  47  72  98 124 158 200 240 285
#     4   8  14  26  45  67  89 116 153 194 235 281
#
# _framework density 16.937199
#
# number of rings (size 3 to 8) (size 9 to 14) (size 15 to 20)
#    0.000    3.000    1.667    1.000    0.000    1.667 
#    0.000    3.333    0.000    5.500    0.000    0.000 
#    0.000    0.000    0.000    0.000    0.000    0.000 
#
# Total GULP energy -595085.393477 kJ/mol
# GULP energy per Si atom -12397.612364 kJ/mol
# Density = 1.689865 g / cm^3
# Si number density = 16.937199 Si / 1000 Ang^3
#
#
#
# Elastic Constant Matrix: (Units=GPa)
#
#
# Indices 1 2 3 4 5 6 
#
# 1 75.0429 38.6581 67.3875 0.0000 0.0000 0.0000
# 2 38.6581 56.8920 44.8008 -0.0001 0.0000 0.0000
# 3 67.3875 44.8008 112.3995 -0.0003 0.0000 0.0000
# 4 0.0000 -0.0001 -0.0003 24.3707 0.0000 0.0000
# 5 0.0000 0.0000 0.0000 0.0000 33.9569 0.0000
# 6 0.0000 0.0000 0.0000 0.0000 0.0000 15.0311
#
#
#
# Elastic Compliance Matrix: (Units=1/GPa)
#
#
# Indices 1 2 3 4 5 6 
#
# 1 0.032180 -0.009726 -0.015416 0.000000 0.000000 0.000000
# 2 -0.009726 0.028558 -0.005551 0.000000 0.000000 0.000000
# 3 -0.015416 -0.005551 0.020352 0.000000 0.000000 0.000000
# 4 0.000000 0.000000 0.000000 0.041033 0.000000 0.000000
# 5 0.000000 0.000000 0.000000 0.000000 0.029449 0.000000
# 6 0.000000 0.000000 0.000000 0.000000 0.000000 0.066529
#
#
# Mechanical properties :
#
#
# Convention : Reuss Voigt Hill
#
# Bulk Modulus (GPa) = 50.75682 60.66971 55.71326
# Shear Modulus (GPa) = 17.47915 20.90427 19.19171
#
# Velocity S-wave (km/s) = 3.21596 3.51696 3.36982
# Velocity P-wave (km/s) = 6.61986 7.23811 6.93588
#
# Compressibility (1/GPa) = 0.01970179
#
# Stress axis : x y z
#
# Youngs Moduli (GPa) = 31.07556 35.01669 49.13513
#
# Poissons Ratio (x) = 0.34058 0.75747
# Poissons Ratio (y) = 0.30225 0.27277
# Poissons Ratio (z) = 0.47906 0.19439
#
# Static dielectric constant tensor:
#      x y z
#    x 3.077820 0.000000 0.000000 
#    y 0.000000 2.866370 0.000000 
#    z 0.000000 0.000000 3.208160 
# 
# 
# High freq. dielectric constant tensor:
#      x y z
#    x 1.635590 0.000000 0.000000 
#    y 0.000000 1.621200 0.000000 
#    z 0.000000 0.000000 1.656940 
# 
# From -- ./inp_files/41477.got.cif
#   From: 2010.03.12/outbox.cif.g09.slc.cpg/sg74_21_cif.got.tgz:41477.got - 2010.04.16 15:46:19.
