data_PCOD8298765
_publ_section_title
;
Structure prediction by ZEFSAII (Michael W. Deem and Ramdas Pophale) SiO2 
 PCOD8298765
Probable space group: I M M A
;
_chemical_formula_sum "Si O2"
_cell_formula_units_Z 72
_cell_length_a 19.566657
_cell_length_b 24.908648
_cell_length_c 7.564785
_cell_angle_alpha 90.000000
_cell_angle_beta 90.000000
_cell_angle_gamma 90.000000
_cell_volume 3686.917135
_symmetry_space_group_name_H-M "I M M A"
_symmetry_group_IT_number 74
_symmetry_cell_setting 'orthorhombic'
loop_
_space_group_symop_operation_xyz
x,y,z
-x,1/2-y,z
x,-y,-z
-x,1/2+y,-z
-x,-y,-z
x,1/2+y,-z
-x,y,z
x,1/2-y,z
1/2+x,1/2+y,1/2+z
1/2-x,-y,1/2+z
1/2+x,1/2-y,1/2-z
1/2-x,y,1/2-z
1/2-x,1/2-y,1/2-z
1/2+x,y,1/2-z
1/2-x,1/2+y,1/2+z
1/2+x,-y,1/2+z
loop_
_atom_site_type_symbol
_atom_site_label
_atom_site_fract_x
_atom_site_fract_y
_atom_site_fract_z
Si Si1 0.922800 0.113540 0.577426
Si Si2 0.892216 0.687891 0.736543
Si Si3 0.716593 0.940262 0.060402
Si Si4 0.077397 0.691449 0.127888
Si Si5 0.250000 0.363339 0.250000
O O1 0.929574 0.150843 0.405671
O O2 0.866325 0.066870 0.554576
O O3 0.890490 0.148141 0.739357
O O4 0.000000 0.090569 0.615730
O O5 0.907899 0.750000 0.693122
O O6 0.812226 0.677318 0.737651
O O7 0.921104 0.671044 0.927215
O O8 0.750000 0.929191 0.250000
O O9 0.753388 0.900077 0.924336
O O10 0.733765 0.000000 0.000000
O O11 0.114351 0.750000 0.143698
O O12 0.000000 0.697824 0.191040
#
# Coordination Sequence:
#
# PCOD8298765 Si02
#       5
#    16  16  16  16   8
#     4  10  21  35  54  82 113 142 181 229 274 327
#     4  10  19  32  53  80 112 147 180 217 266 325
#     4  11  22  39  61  79 102 143 187 232 286 335
#     4   9  17  30  49  74 107 144 175 206 254 318
#     4  10  21  36  54  80 108 138 183 232 272 324
#
# _framework density 19.528510000000001
#
# number of rings (size 3 to 8) (size 9 to 14) (size 15 to 20)
#    0.000    2.000    1.111    3.000    0.000    2.667 
#    0.000    0.000    0.000   11.333    0.000    0.000 
#    0.000    0.000    0.000    0.000    0.000    0.000 
#
# Total GULP energy -446263.730046 kJ/mol
# GULP energy per Si atom -12396.214723 kJ/mol
# Density = 1.948406 g / cm^3
# Si number density = 19.528510 Si / 1000 Ang^3
#
#
#
# Elastic Constant Matrix: (Units=GPa)
#
#
# Indices 1 2 3 4 5 6 
#
# 1 71.8249 1.8875 8.3560 0.0000 0.0000 0.0000
# 2 1.8875 37.9950 21.5619 0.0000 0.0000 0.0000
# 3 8.3560 21.5619 115.1984 0.0000 0.0000 0.0000
# 4 0.0000 0.0000 0.0000 14.1713 0.0000 0.0000
# 5 0.0000 0.0000 0.0000 0.0000 19.5784 0.0000
# 6 0.0000 0.0000 0.0000 0.0000 0.0000 32.1972
#
#
#
# Elastic Compliance Matrix: (Units=1/GPa)
#
#
# Indices 1 2 3 4 5 6 
#
# 1 0.014042 -0.000134 -0.000994 0.000000 0.000000 0.000000
# 2 -0.000134 0.029448 -0.005502 0.000000 0.000000 0.000000
# 3 -0.000994 -0.005502 0.009783 0.000000 0.000000 0.000000
# 4 0.000000 0.000000 0.000000 0.070565 0.000000 0.000000
# 5 0.000000 0.000000 0.000000 0.000000 0.051077 0.000000
# 6 0.000000 0.000000 0.000000 0.000000 0.000000 0.031059
#
#
# Mechanical properties :
#
#
# Convention : Reuss Voigt Hill
#
# Bulk Modulus (GPa) = 24.99132 32.06989 28.53061
# Shear Modulus (GPa) = 21.49891 26.07025 23.78458
#
# Velocity S-wave (km/s) = 3.32158 3.65771 3.49369
# Velocity P-wave (km/s) = 5.24744 5.85629 5.56021
#
# Compressibility (1/GPa) = 0.04001390
#
# Stress axis : x y z
#
# Youngs Moduli (GPa) = 71.21570 33.95772 102.22233
#
# Poissons Ratio (x) = 0.00454 0.10156
# Poissons Ratio (y) = 0.00953 0.56245
# Poissons Ratio (z) = 0.07075 0.18684
#
# Static dielectric constant tensor:
#      x y z
#    x 4.023410 0.000000 0.000000 
#    y 0.000000 3.409270 0.000000 
#    z 0.000000 0.000000 3.741360 
# 
# 
# High freq. dielectric constant tensor:
#      x y z
#    x 1.754180 0.000000 0.000000 
#    y 0.000000 1.740170 0.000000 
#    z 0.000000 0.000000 1.776700 
# 
# From -- ./inp_files/10665.got.cif
#   From: 2010.03.12/outbox.cif.g09.slc.cpg/sg74_6_cif.got.tgz:10665.got - 2010.04.16 15:46:19.
