data_PCOD8298261
_publ_section_title
;
Structure prediction by ZEFSAII (Michael W. Deem and Ramdas Pophale) SiO2 
 PCOD8298261
Probable space group: I M M A
;
_chemical_formula_sum "Si O2"
_cell_formula_units_Z 80
_cell_length_a 19.639915
_cell_length_b 10.424166
_cell_length_c 24.972044
_cell_angle_alpha 90.000000
_cell_angle_beta 90.000000
_cell_angle_gamma 90.000000
_cell_volume 5112.519930
_symmetry_space_group_name_H-M "I M M A"
_symmetry_group_IT_number 74
_symmetry_cell_setting 'orthorhombic'
loop_
_space_group_symop_operation_xyz
x,y,z
-x,1/2-y,z
x,-y,-z
-x,1/2+y,-z
-x,-y,-z
x,1/2+y,-z
-x,y,z
x,1/2-y,z
1/2+x,1/2+y,1/2+z
1/2-x,-y,1/2+z
1/2+x,1/2-y,1/2-z
1/2-x,y,1/2-z
1/2-x,1/2-y,1/2-z
1/2+x,y,1/2-z
1/2-x,1/2+y,1/2+z
1/2+x,-y,1/2+z
loop_
_atom_site_type_symbol
_atom_site_label
_atom_site_fract_x
_atom_site_fract_y
_atom_site_fract_z
Si Si1 0.873335 0.250000 0.565562
Si Si2 0.259378 0.099536 0.335802
Si Si3 0.139608 0.599371 0.743385
Si Si4 0.500000 0.750000 0.868417
Si Si5 0.500000 0.250000 0.856364
Si Si6 0.122984 0.750000 0.553013
Si Si7 0.285659 0.502062 0.940296
Si Si8 0.000000 0.009620 0.291985
O O1 0.907453 0.250000 0.506846
O O2 0.826251 0.126451 0.572398
O O3 0.932685 0.250000 0.608269
O O4 0.260723 0.250000 0.347608
O O5 0.188030 0.062972 0.306811
O O6 0.322399 0.061135 0.298180
O O7 0.268184 0.022258 0.391903
O O8 0.123365 0.750000 0.741558
O O9 0.068802 0.521660 0.743046
O O10 0.565244 0.750000 0.904222
O O11 0.500000 0.621543 0.834939
O O12 0.500000 0.372956 0.819309
O O13 0.165053 0.622523 0.562830
O O14 0.251444 0.500000 0.000000
#
# Coordination Sequence:
#
# PCOD8298261 Si02
#       8
#     8  16  16   4   4   8  16   8
#     4  10  21  32  41  62  97 126 166 193 224 270
#     4   9  16  29  51  71  94 118 155 198 246 277
#     4   9  17  30  49  74  91 117 157 205 238 277
#     4  12  19  28  50  64  86 124 167 206 222 260
#     4  12  23  32  42  60  98 140 151 188 234 278
#     4  10  19  30  45  64  87 126 166 199 228 258
#     4  10  19  31  47  67  92 124 159 199 234 275
#     4  12  22  32  47  70  97 120 163 194 235 284
#
# _framework density 15.647862
#
# number of rings (size 3 to 8) (size 9 to 14) (size 15 to 20)
#    0.000    2.000    2.000    5.100    0.000    0.000 
#    0.000    5.000    0.000    3.600    0.000    0.700 
#    0.000    0.000    0.000    0.000    0.000    0.000 
#
# Total GULP energy -495809.250290 kJ/mol
# GULP energy per Si atom -12395.231257 kJ/mol
# Density = 1.561225 g / cm^3
# Si number density = 15.647862 Si / 1000 Ang^3
#
#
#
# Elastic Constant Matrix: (Units=GPa)
#
#
# Indices 1 2 3 4 5 6 
#
# 1 84.2459 32.7918 57.3139 0.0000 0.0000 0.0000
# 2 32.7918 97.3578 43.7802 0.0000 0.0000 0.0000
# 3 57.3139 43.7802 132.4538 0.0000 0.0000 0.0000
# 4 0.0000 0.0000 0.0000 36.3478 0.0000 0.0000
# 5 0.0000 0.0000 0.0000 0.0000 31.9259 0.0000
# 6 0.0000 0.0000 0.0000 0.0000 0.0000 19.5095
#
#
#
# Elastic Compliance Matrix: (Units=1/GPa)
#
#
# Indices 1 2 3 4 5 6 
#
# 1 0.017503 -0.002924 -0.006607 0.000000 0.000000 0.000000
# 2 -0.002924 0.012553 -0.002884 0.000000 0.000000 0.000000
# 3 -0.006607 -0.002884 0.011362 0.000000 0.000000 0.000000
# 4 0.000000 0.000000 0.000000 0.027512 0.000000 0.000000
# 5 0.000000 0.000000 0.000000 0.000000 0.031323 0.000000
# 6 0.000000 0.000000 0.000000 0.000000 0.000000 0.051257
#
#
# Mechanical properties :
#
#
# Convention : Reuss Voigt Hill
#
# Bulk Modulus (GPa) = 60.28554 64.64767 62.46661
# Shear Modulus (GPa) = 27.49218 29.56809 28.53014
#
# Velocity S-wave (km/s) = 4.19612 4.35166 4.27460
# Velocity P-wave (km/s) = 7.87950 8.16413 8.02308
#
# Compressibility (1/GPa) = 0.01658772
#
# Stress axis : x y z
#
# Youngs Moduli (GPa) = 57.13223 79.66124 88.01247
#
# Poissons Ratio (x) = 0.23295 0.58152
# Poissons Ratio (y) = 0.16707 0.25382
# Poissons Ratio (z) = 0.37749 0.22973
#
# Static dielectric constant tensor:
#      x y z
#    x 2.849740 0.000000 0.000000 
#    y 0.000000 3.000600 0.000000 
#    z 0.000000 0.000000 3.314460 
# 
# 
# High freq. dielectric constant tensor:
#      x y z
#    x 1.566180 0.000000 0.000000 
#    y 0.000000 1.598420 0.000000 
#    z 0.000000 0.000000 1.606310 
# 
# From -- ./inp_files/61401.got.cif
#   From: 2010.03.12/outbox.cif.g09.slc.cpg/sg74_31_cif.got.tgz:61401.got - 2010.04.16 15:46:19.
