data_PCOD8298822
_publ_section_title
;
Structure prediction by ZEFSAII (Michael W. Deem and Ramdas Pophale) SiO2 
 PCOD8298822
Probable space group: I M M A
;
_chemical_formula_sum "Si O2"
_cell_formula_units_Z 72
_cell_length_a 22.832719
_cell_length_b 9.267368
_cell_length_c 18.594332
_cell_angle_alpha 90.000000
_cell_angle_beta 90.000000
_cell_angle_gamma 90.000000
_cell_volume 3934.545951
_symmetry_space_group_name_H-M "I M M A"
_symmetry_group_IT_number 74
_symmetry_cell_setting 'orthorhombic'
loop_
_space_group_symop_operation_xyz
x,y,z
-x,1/2-y,z
x,-y,-z
-x,1/2+y,-z
-x,-y,-z
x,1/2+y,-z
-x,y,z
x,1/2-y,z
1/2+x,1/2+y,1/2+z
1/2-x,-y,1/2+z
1/2+x,1/2-y,1/2-z
1/2-x,y,1/2-z
1/2-x,1/2-y,1/2-z
1/2+x,y,1/2-z
1/2-x,1/2+y,1/2+z
1/2+x,-y,1/2+z
loop_
_atom_site_type_symbol
_atom_site_label
_atom_site_fract_x
_atom_site_fract_y
_atom_site_fract_z
Si Si1 0.176046 0.409450 0.374460
Si Si2 0.000000 0.595897 0.400335
Si Si3 0.599859 0.500000 0.000000
Si Si4 0.278292 0.087265 0.671939
Si Si5 0.884065 0.420344 0.226100
Si Si6 0.500000 0.924026 0.255141
O O1 0.201467 0.250000 0.359153
O O2 0.140117 0.402806 0.448823
O O3 0.230081 0.520188 0.382193
O O4 0.133518 0.453451 0.308785
O O5 0.057847 0.591263 0.448714
O O6 0.000000 0.504577 0.326710
O O7 0.000000 0.750000 0.363144
O O8 0.293890 0.250000 0.646982
O O9 0.250000 0.088491 0.750000
O O10 0.335303 0.985772 0.672356
O O11 0.891674 0.250000 0.211555
O O12 0.942972 0.507669 0.207409
O O13 0.500000 0.750000 0.264465
#
# Coordination Sequence:
#
# PCOD8298822 Si02
#       6
#    16   8   8  16  16   8
#     4  10  20  32  48  68  93 127 166 208 249 292
#     4  10  21  32  44  63  96 138 175 210 238 276
#     4  11  20  34  46  68  96 137 176 208 242 287
#     4   9  18  32  50  69  89 118 157 204 254 300
#     4  10  19  33  49  69  94 124 162 205 251 297
#     4  11  20  32  48  70  98 131 169 205 244 289
#
# _framework density 18.299443
#
# number of rings (size 3 to 8) (size 9 to 14) (size 15 to 20)
#    0.000    2.000    2.222    2.333    0.000    5.333 
#    0.000    0.000    0.000    0.000    0.000    0.000 
#    0.000    0.889    0.000    2.778    0.000    3.444 
#
# Total GULP energy -446085.325005 kJ/mol
# GULP energy per Si atom -12391.259028 kJ/mol
# Density = 1.825779 g / cm^3
# Si number density = 18.299443 Si / 1000 Ang^3
#
#
#
# Elastic Constant Matrix: (Units=GPa)
#
#
# Indices 1 2 3 4 5 6 
#
# 1 135.1388 67.6747 24.8975 0.0000 0.0000 0.0000
# 2 67.6747 128.2122 9.8793 0.0000 0.0000 0.0000
# 3 24.8975 9.8793 23.5243 0.0000 0.0000 0.0000
# 4 0.0000 0.0000 0.0000 14.6228 0.0000 0.0000
# 5 0.0000 0.0000 0.0000 0.0000 32.2381 0.0000
# 6 0.0000 0.0000 0.0000 0.0000 0.0000 -479.9804
#
#
#
# Elastic Compliance Matrix: (Units=1/GPa)
#
#
# Indices 1 2 3 4 5 6 
#
# 1 0.012136 -0.005597 -0.010494 0.000000 0.000000 0.000000
# 2 -0.005597 0.010642 0.001455 0.000000 0.000000 0.000000
# 3 -0.010494 0.001455 0.053005 0.000000 0.000000 0.000000
# 4 0.000000 0.000000 0.000000 0.068387 0.000000 0.000000
# 5 0.000000 0.000000 0.000000 0.000000 0.031019 0.000000
# 6 0.000000 0.000000 0.000000 0.000000 0.000000 -0.002083
#
#
# Mechanical properties :
#
#
# Convention : Reuss Voigt Hill
#
# Bulk Modulus (GPa) = 21.50070 54.64204 38.07137
# Shear Modulus (GPa) = 22.94823 -74.32900 -25.69038
#
# Velocity S-wave (km/s) = 3.54508 -6.38015 -3.75092
# Velocity P-wave (km/s) = 5.34151 4.93461 1.44592
#
# Compressibility (1/GPa) = 0.04651012
#
# Stress axis : x y z
#
# Youngs Moduli (GPa) = 82.39827 93.96819 18.86616
#
# Poissons Ratio (x) = 0.52597 0.19798
# Poissons Ratio (y) = 0.46121 -0.02745
# Poissons Ratio (z) = 0.86469 -0.13671
#
# Static dielectric constant tensor:
#      x y z
#    x 3.388600 0.000000 0.000000 
#    y 0.000000 3.368510 0.000000 
#    z 0.000000 0.000000 2.846630 
# 
# 
# High freq. dielectric constant tensor:
#      x y z
#    x 1.711540 0.000000 0.000000 
#    y 0.000000 1.716720 0.000000 
#    z 0.000000 0.000000 1.646510 
# 
# From -- ./inp_files/61302.got.cif
#   From: 2010.03.12/outbox.cif.g09.slc.cpg/sg74_31_cif.got.tgz:61302.got - 2010.04.16 15:46:19.
