data_PCOD8298118
_publ_section_title
;
Structure prediction by ZEFSAII (Michael W. Deem and Ramdas Pophale) SiO2 
 PCOD8298118
Probable space group: I M M A
;
_chemical_formula_sum "Si O2"
_cell_formula_units_Z 72
_cell_length_a 19.860200
_cell_length_b 20.464857
_cell_length_c 9.545349
_cell_angle_alpha 90.000000
_cell_angle_beta 90.000000
_cell_angle_gamma 90.000000
_cell_volume 3879.574927
_symmetry_space_group_name_H-M "I M M A"
_symmetry_group_IT_number 74
_symmetry_cell_setting 'orthorhombic'
loop_
_space_group_symop_operation_xyz
x,y,z
-x,1/2-y,z
x,-y,-z
-x,1/2+y,-z
-x,-y,-z
x,1/2+y,-z
-x,y,z
x,1/2-y,z
1/2+x,1/2+y,1/2+z
1/2-x,-y,1/2+z
1/2+x,1/2-y,1/2-z
1/2-x,y,1/2-z
1/2-x,1/2-y,1/2-z
1/2+x,y,1/2-z
1/2-x,1/2+y,1/2+z
1/2+x,-y,1/2+z
loop_
_atom_site_type_symbol
_atom_site_label
_atom_site_fract_x
_atom_site_fract_y
_atom_site_fract_z
Si Si1 0.245976 0.826620 0.456092
Si Si2 0.360259 0.373907 0.740508
Si Si3 0.133702 0.482307 0.160895
Si Si4 0.500000 0.566196 0.588179
Si Si5 0.500000 0.824853 0.356074
Si Si6 0.250000 0.890277 0.750000
O O1 0.251318 0.750000 0.432267
O O2 0.314109 0.858508 0.395022
O O3 0.179074 0.852509 0.379469
O O4 0.239539 0.843248 0.618385
O O5 0.374081 0.451080 0.747799
O O6 0.432462 0.337994 0.733883
O O7 0.188682 0.438704 0.233313
O O8 0.067308 0.437256 0.179660
O O9 0.150698 0.500000 0.000000
O O10 0.500000 0.500000 0.500000
O O11 0.500000 0.630468 0.493572
O O12 0.500000 0.750000 0.405648
#
# Coordination Sequence:
#
# PCOD8298118 Si02
#       6
#    16  16  16   8   8   8
#     4  11  23  39  55  82 120 155 191 240 296 353
#     4  11  21  37  61  85 115 152 195 244 290 349
#     4  11  20  36  60  87 114 148 194 248 289 338
#     4  10  18  38  57  85 120 153 189 246 289 338
#     4  12  20  32  59  91 117 155 200 242 294 350
#     4  12  23  36  60  86 111 154 198 240 294 352
#
# _framework density 18.558734999999999
#
# number of rings (size 3 to 8) (size 9 to 14) (size 15 to 20)
#    0.000    0.889    6.667    4.333    0.000    0.000 
#    0.000    2.222    0.000    2.667    0.000    4.667 
#    0.000    0.000    0.000    0.000    0.000    0.000 
#
# Total GULP energy -446393.663409 kJ/mol
# GULP energy per Si atom -12399.823984 kJ/mol
# Density = 1.851649 g / cm^3
# Si number density = 18.558735 Si / 1000 Ang^3
#
#
#
# Elastic Constant Matrix: (Units=GPa)
#
#
# Indices 1 2 3 4 5 6 
#
# 1 162.2790 37.1866 42.8276 0.0000 0.0000 0.0000
# 2 37.1866 104.2022 24.6546 0.0000 0.0000 0.0000
# 3 42.8276 24.6546 96.6079 0.0000 0.0000 0.0000
# 4 0.0000 0.0000 0.0000 26.2972 0.0000 0.0000
# 5 0.0000 0.0000 0.0000 0.0000 24.1131 0.0000
# 6 0.0000 0.0000 0.0000 0.0000 0.0000 20.2125
#
#
#
# Elastic Compliance Matrix: (Units=1/GPa)
#
#
# Indices 1 2 3 4 5 6 
#
# 1 0.007339 -0.001968 -0.002751 0.000000 0.000000 0.000000
# 2 -0.001968 0.010741 -0.001869 0.000000 0.000000 0.000000
# 3 -0.002751 -0.001869 0.012048 0.000000 0.000000 0.000000
# 4 0.000000 0.000000 0.000000 0.038027 0.000000 0.000000
# 5 0.000000 0.000000 0.000000 0.000000 0.041471 0.000000
# 6 0.000000 0.000000 0.000000 0.000000 0.000000 0.049474
#
#
# Mechanical properties :
#
#
# Convention : Reuss Voigt Hill
#
# Bulk Modulus (GPa) = 58.99049 63.60298 61.29674
# Shear Modulus (GPa) = 28.10128 31.35258 29.72693
#
# Velocity S-wave (km/s) = 3.89547 4.11465 4.00656
# Velocity P-wave (km/s) = 7.21718 7.54450 7.38265
#
# Compressibility (1/GPa) = 0.01695188
#
# Stress axis : x y z
#
# Youngs Moduli (GPa) = 136.25160 93.09897 83.00333
#
# Poissons Ratio (x) = 0.18324 0.22837
# Poissons Ratio (y) = 0.26817 0.15510
# Poissons Ratio (z) = 0.37487 0.17397
#
# Static dielectric constant tensor:
#      x y z
#    x 3.793890 0.000000 0.000000 
#    y 0.000000 3.675430 0.000000 
#    z 0.000000 0.000000 3.158030 
# 
# 
# High freq. dielectric constant tensor:
#      x y z
#    x 1.737860 0.000000 0.000000 
#    y 0.000000 1.735400 0.000000 
#    z 0.000000 0.000000 1.686650 
# 
# From -- ./inp_files/12195.got.cif
#   From: 2010.03.12/outbox.cif.g09.slc.cpg/sg74_7_cif.got.tgz:12195.got - 2010.04.16 15:46:19.
