data_PCOD8298464
_publ_section_title
;
Structure prediction by ZEFSAII (Michael W. Deem and Ramdas Pophale) SiO2 
 PCOD8298464
Probable space group: I M M A
;
_chemical_formula_sum "Si O2"
_cell_formula_units_Z 96
_cell_length_a 14.348390
_cell_length_b 14.165233
_cell_length_c 24.810432
_cell_angle_alpha 90.000000
_cell_angle_beta 90.000000
_cell_angle_gamma 90.000000
_cell_volume 5042.677817
_symmetry_space_group_name_H-M "I M M A"
_symmetry_group_IT_number 74
_symmetry_cell_setting 'orthorhombic'
loop_
_space_group_symop_operation_xyz
x,y,z
-x,1/2-y,z
x,-y,-z
-x,1/2+y,-z
-x,-y,-z
x,1/2+y,-z
-x,y,z
x,1/2-y,z
1/2+x,1/2+y,1/2+z
1/2-x,-y,1/2+z
1/2+x,1/2-y,1/2-z
1/2-x,y,1/2-z
1/2-x,1/2-y,1/2-z
1/2+x,y,1/2-z
1/2-x,1/2+y,1/2+z
1/2+x,-y,1/2+z
loop_
_atom_site_type_symbol
_atom_site_label
_atom_site_fract_x
_atom_site_fract_y
_atom_site_fract_z
Si Si1 0.602450 0.139703 0.280049
Si Si2 0.607660 0.017965 0.437546
Si Si3 0.263773 0.860772 0.624284
Si Si4 0.889329 0.855794 0.143781
Si Si5 0.107429 0.968967 0.671540
Si Si6 0.110588 0.645446 0.264423
O O1 0.500000 0.106044 0.300627
O O2 0.604531 0.250000 0.271311
O O3 0.679551 0.108833 0.322488
O O4 0.624047 0.096571 0.222719
O O5 0.500000 0.040522 0.424718
O O6 0.645453 0.930326 0.401179
O O7 0.622403 0.000000 0.500000
O O8 0.670624 0.109849 0.425438
O O9 0.240851 0.750000 0.620755
O O10 0.169005 0.923097 0.623822
O O11 0.853436 0.750000 0.129121
O O12 0.853165 0.883448 0.204334
O O13 0.000000 0.855059 0.143761
O O14 0.000000 0.970452 0.652416
O O15 0.143479 0.073266 0.688981
O O16 0.147318 0.750000 0.279595
O O17 0.000000 0.643563 0.262158
#
# Coordination Sequence:
#
# PCOD8298464 Si02
#       6
#    16  16  16  16  16  16
#     4   9  17  29  46  70 101 137 174 208 246 297
#     4  10  21  36  54  75  98 127 166 213 265 315
#     4  11  22  34  50  74 104 136 171 211 254 302
#     4   8  14  27  48  72  98 129 164 203 249 301
#     4  10  19  31  49  73 104 140 173 206 245 295
#     4   8  14  26  46  71  98 130 166 201 240 289
#
# _framework density 19.037504999999999
#
# number of rings (size 3 to 8) (size 9 to 14) (size 15 to 20)
#    0.000    2.667    0.000    3.500    0.000    6.667 
#    0.000    2.500    0.000    4.500    0.000    0.000 
#    0.000    0.000    0.000    0.000    0.000    0.000 
#
# Total GULP energy -594906.292960 kJ/mol
# GULP energy per Si atom -12393.881103 kJ/mol
# Density = 1.899417 g / cm^3
# Si number density = 19.037505 Si / 1000 Ang^3
#
#
#
# Elastic Constant Matrix: (Units=GPa)
#
#
# Indices 1 2 3 4 5 6 
#
# 1 66.5207 82.8102 17.5492 0.0000 0.0000 0.0000
# 2 82.8102 -141.2954 121.7508 0.0000 0.0000 0.0000
# 3 17.5492 121.7508 33.3254 0.0000 0.0000 0.0000
# 4 0.0000 0.0000 0.0000 17.5192 0.0000 0.0000
# 5 0.0000 0.0000 0.0000 0.0000 20.1249 0.0000
# 6 0.0000 0.0000 0.0000 0.0000 0.0000 22.2397
#
#
#
# Elastic Compliance Matrix: (Units=1/GPa)
#
#
# Indices 1 2 3 4 5 6 
#
# 1 0.017278 0.000551 -0.011112 0.000000 0.000000 0.000000
# 2 0.000551 -0.001689 0.005879 0.000000 0.000000 0.000000
# 3 -0.011112 0.005879 0.014381 0.000000 0.000000 0.000000
# 4 0.000000 0.000000 0.000000 0.057080 0.000000 0.000000
# 5 0.000000 0.000000 0.000000 0.000000 0.049690 0.000000
# 6 0.000000 0.000000 0.000000 0.000000 0.000000 0.044965
#
#
# Mechanical properties :
#
#
# Convention : Reuss Voigt Hill
#
# Bulk Modulus (GPa) = 48.52954 44.75233 46.64093
# Shear Modulus (GPa) = 25.26031 -5.59389 9.83321
#
# Velocity S-wave (km/s) = 3.64658 -1.71602 2.27517
# Velocity P-wave (km/s) = 6.57852 4.43082 5.60843
#
# Compressibility (1/GPa) = 0.02060601
#
# Stress axis : x y z
#
# Youngs Moduli (GPa) = 57.87564 -592.20099 69.53645
#
# Poissons Ratio (x) = 0.32640 0.77272
# Poissons Ratio (y) = -0.03190 -0.40880
# Poissons Ratio (z) = 0.64314 3.48151
#
# Static dielectric constant tensor:
#      x y z
#    x 3.466270 0.000000 0.000000 
#    y 0.000000 4.017220 0.000000 
#    z 0.000000 0.000000 2.601160 
# 
# 
# High freq. dielectric constant tensor:
#      x y z
#    x 1.726560 0.000000 0.000000 
#    y 0.000000 1.756430 0.000000 
#    z 0.000000 0.000000 1.684060 
# 
# From -- ./inp_files/51842.got.cif
#   From: 2010.03.12/outbox.cif.g09.slc.cpg/sg74_26_cif.got.tgz:51842.got - 2010.04.16 15:46:19.
