data_PCOD8298127
_publ_section_title
;
Structure prediction by ZEFSAII (Michael W. Deem and Ramdas Pophale) SiO2 
 PCOD8298127
Probable space group: I M M A
;
_chemical_formula_sum "Si O2"
_cell_formula_units_Z 96
_cell_length_a 33.076378
_cell_length_b 8.031993
_cell_length_c 29.754327
_cell_angle_alpha 90.000000
_cell_angle_beta 90.000000
_cell_angle_gamma 90.000000
_cell_volume 7904.809338
_symmetry_space_group_name_H-M "I M M A"
_symmetry_group_IT_number 74
_symmetry_cell_setting 'orthorhombic'
loop_
_space_group_symop_operation_xyz
x,y,z
-x,1/2-y,z
x,-y,-z
-x,1/2+y,-z
-x,-y,-z
x,1/2+y,-z
-x,y,z
x,1/2-y,z
1/2+x,1/2+y,1/2+z
1/2-x,-y,1/2+z
1/2+x,1/2-y,1/2-z
1/2-x,y,1/2-z
1/2-x,1/2-y,1/2-z
1/2+x,y,1/2-z
1/2-x,1/2+y,1/2+z
1/2+x,-y,1/2+z
loop_
_atom_site_type_symbol
_atom_site_label
_atom_site_fract_x
_atom_site_fract_y
_atom_site_fract_z
Si Si1 0.684996 0.250000 0.266838
Si Si2 0.242635 0.064847 0.867864
Si Si3 0.768169 0.750000 0.678730
Si Si4 0.954159 0.554272 0.048970
Si Si5 0.339192 0.931688 0.312824
Si Si6 0.117950 0.062654 0.104975
Si Si7 0.309931 0.442384 0.549172
O O1 0.725064 0.250000 0.296911
O O2 0.695506 0.250000 0.214286
O O3 0.658832 0.416935 0.277078
O O4 0.263254 0.250000 0.866419
O O5 0.204393 0.066977 0.835447
O O6 0.227965 0.021043 0.918194
O O7 0.272626 0.917767 0.851492
O O8 0.950818 0.750000 0.053496
O O9 0.926879 0.471637 0.087146
O O10 0.000000 0.491103 0.056233
O O11 0.938480 0.500000 0.000000
O O12 0.346109 0.750000 0.289524
O O13 0.372708 0.949032 0.351866
O O14 0.121200 0.250000 0.122352
O O15 0.150031 0.038301 0.064881
O O16 0.296640 0.500000 0.500000
O O17 0.321485 0.250000 0.549920
#
# Coordination Sequence:
#
# PCOD8298127 Si02
#       7
#     8  16   8  16  16  16  16
#     4   9  16  26  36  58  65  86 110 124 161 192
#     4   8  16  26  35  49  67  88 108 132 161 190
#     4   9  16  24  40  48  70  88 106 130 154 201
#     4  10  20  32  42  52  67  86 110 139 170 205
#     4   9  16  27  39  52  71  85 104 133 159 195
#     4  11  19  28  41  53  68  87 108 135 171 207
#     4  10  19  27  37  52  67  86 113 140 169 201
#
# _framework density 12.144506
#
# number of rings (size 3 to 8) (size 9 to 14) (size 15 to 20)
#    0.000    2.500    0.833    4.000    4.667    1.667 
#    0.000    3.333    0.000    0.000    0.000    0.000 
#    0.000    0.000    0.000    0.000    0.000    0.000 
#
# Total GULP energy -594999.623021 kJ/mol
# GULP energy per Si atom -12395.825480 kJ/mol
# Density = 1.211686 g / cm^3
# Si number density = 12.144506 Si / 1000 Ang^3
#
#
#
# Elastic Constant Matrix: (Units=GPa)
#
#
# Indices 1 2 3 4 5 6 
#
# 1 26.1156 22.5646 26.6826 0.0000 0.0000 0.0000
# 2 22.5646 97.3549 35.5622 0.0000 0.0000 0.0000
# 3 26.6826 35.5622 52.4297 0.0000 0.0000 0.0000
# 4 0.0000 0.0000 0.0000 17.4124 0.0000 0.0000
# 5 0.0000 0.0000 0.0000 0.0000 16.1705 0.0000
# 6 0.0000 0.0000 0.0000 0.0000 0.0000 11.3627
#
#
#
# Elastic Compliance Matrix: (Units=1/GPa)
#
#
# Indices 1 2 3 4 5 6 
#
# 1 0.081540 -0.004973 -0.038124 0.000000 0.000000 0.000000
# 2 -0.004973 0.013958 -0.006937 0.000000 0.000000 0.000000
# 3 -0.038124 -0.006937 0.043181 0.000000 0.000000 0.000000
# 4 0.000000 0.000000 0.000000 0.057430 0.000000 0.000000
# 5 0.000000 0.000000 0.000000 0.000000 0.061841 0.000000
# 6 0.000000 0.000000 0.000000 0.000000 0.000000 0.088008
#
#
# Mechanical properties :
#
#
# Convention : Reuss Voigt Hill
#
# Bulk Modulus (GPa) = 25.89960 38.39098 32.14529
# Shear Modulus (GPa) = 10.89571 15.06184 12.97877
#
# Velocity S-wave (km/s) = 2.99853 3.52549 3.27264
# Velocity P-wave (km/s) = 5.77588 6.94641 6.38801
#
# Compressibility (1/GPa) = 0.03861064
#
# Stress axis : x y z
#
# Youngs Moduli (GPa) = 12.26393 71.64256 23.15854
#
# Poissons Ratio (x) = 0.35626 0.88291
# Poissons Ratio (y) = 0.06099 0.16065
# Poissons Ratio (z) = 0.46756 0.49697
#
# Static dielectric constant tensor:
#      x y z
#    x 2.150260 0.000000 0.000000 
#    y 0.000000 2.835130 0.000000 
#    z 0.000000 0.000000 2.456270 
# 
# 
# High freq. dielectric constant tensor:
#      x y z
#    x 1.398390 0.000000 0.000000 
#    y 0.000000 1.487650 0.000000 
#    z 0.000000 0.000000 1.434380 
# 
# From -- ./inp_files/74003.got.cif
#   From: 2010.03.12/outbox.cif.g09.slc.cpg/sg74_38_cif.got.tgz:74003.got - 2010.04.16 15:46:19.
