data_PCOD8298254
_publ_section_title
;
Structure prediction by ZEFSAII (Michael W. Deem and Ramdas Pophale) SiO2 
 PCOD8298254
Probable space group: I M M A
;
_chemical_formula_sum "Si O2"
_cell_formula_units_Z 128
_cell_length_a 19.202673
_cell_length_b 19.481244
_cell_length_c 20.606003
_cell_angle_alpha 90.000000
_cell_angle_beta 90.000000
_cell_angle_gamma 90.000000
_cell_volume 7708.540012
_symmetry_space_group_name_H-M "I M M A"
_symmetry_group_IT_number 74
_symmetry_cell_setting 'orthorhombic'
loop_
_space_group_symop_operation_xyz
x,y,z
-x,1/2-y,z
x,-y,-z
-x,1/2+y,-z
-x,-y,-z
x,1/2+y,-z
-x,y,z
x,1/2-y,z
1/2+x,1/2+y,1/2+z
1/2-x,-y,1/2+z
1/2+x,1/2-y,1/2-z
1/2-x,y,1/2-z
1/2-x,1/2-y,1/2-z
1/2+x,y,1/2-z
1/2-x,1/2+y,1/2+z
1/2+x,-y,1/2+z
loop_
_atom_site_type_symbol
_atom_site_label
_atom_site_fract_x
_atom_site_fract_y
_atom_site_fract_z
Si Si1 0.300556 0.470694 0.187772
Si Si2 0.921046 0.457206 0.751314
Si Si3 0.637905 0.326067 0.406456
Si Si4 0.077398 0.467542 0.115770
Si Si5 0.176590 0.825409 0.054367
Si Si6 0.216994 0.028708 0.932256
Si Si7 0.580194 0.825800 0.324722
Si Si8 0.725241 0.676333 0.822894
O O1 0.250000 0.475917 0.250000
O O2 0.370256 0.515406 0.195287
O O3 0.260116 0.498474 0.126237
O O4 0.323420 0.391279 0.173759
O O5 0.916050 0.510290 0.809960
O O6 0.891965 0.382671 0.774277
O O7 0.000000 0.451930 0.724189
O O8 0.608569 0.250000 0.389013
O O9 0.585649 0.385110 0.383586
O O10 0.645580 0.333569 0.483246
O O11 0.711324 0.337992 0.371584
O O12 0.135573 0.506653 0.073309
O O13 0.000000 0.486005 0.089196
O O14 0.213332 0.750000 0.061644
O O15 0.228199 0.888765 0.068211
O O16 0.114313 0.831946 0.105272
O O17 0.246449 0.000000 0.000000
O O18 0.500000 0.842036 0.337690
O O19 0.592280 0.750000 0.294438
O O20 0.689054 0.750000 0.842244
O O21 0.750000 0.684250 0.750000
#
# Coordination Sequence:
#
# PCOD8298254 Si02
#       8
#    16  16  16  16  16  16  16  16
#     4  11  18  32  55  73  95 131 168 206 245 297
#     4  10  20  34  52  75  99 126 165 210 253 293
#     4  10  19  32  44  64  98 134 167 203 240 288
#     4  11  20  31  47  69  99 133 163 203 244 285
#     4  10  19  30  44  64  99 133 163 203 242 284
#     4  12  21  34  50  74 100 129 171 209 249 297
#     4   9  17  30  47  67  94 129 164 196 237 294
#     4   9  16  27  46  67  89 119 162 206 243 284
#
# _framework density 16.604959999999998
#
# number of rings (size 3 to 8) (size 9 to 14) (size 15 to 20)
#    0.000    1.750    5.000    0.750    0.000    1.000 
#    0.000    1.875    0.000    3.750    0.000    0.000 
#    0.000    0.000    0.000    0.000    0.000    0.125 
#
# Total GULP energy -793043.209816 kJ/mol
# GULP energy per Si atom -12391.300153 kJ/mol
# Density = 1.656717 g / cm^3
# Si number density = 16.604960 Si / 1000 Ang^3
#
#
#
# Elastic Constant Matrix: (Units=GPa)
#
#
# Indices 1 2 3 4 5 6 
#
# 1 52.6717 37.0861 38.6170 0.0000 0.0000 0.0000
# 2 37.0861 166.2720 48.0702 0.0000 0.0000 0.0000
# 3 38.6170 48.0702 73.6224 0.0000 0.0000 0.0000
# 4 0.0000 0.0000 0.0000 23.2119 0.0000 0.0000
# 5 0.0000 0.0000 0.0000 0.0000 17.3401 0.0000
# 6 0.0000 0.0000 0.0000 0.0000 0.0000 13.2893
#
#
#
# Elastic Compliance Matrix: (Units=1/GPa)
#
#
# Indices 1 2 3 4 5 6 
#
# 1 0.031877 -0.002806 -0.014888 0.000000 0.000000 0.000000
# 2 -0.002806 0.007661 -0.003530 0.000000 0.000000 0.000000
# 3 -0.014888 -0.003530 0.023697 0.000000 0.000000 0.000000
# 4 0.000000 0.000000 0.000000 0.043081 0.000000 0.000000
# 5 0.000000 0.000000 0.000000 0.000000 0.057670 0.000000
# 6 0.000000 0.000000 0.000000 0.000000 0.000000 0.075248
#
#
# Mechanical properties :
#
#
# Convention : Reuss Voigt Hill
#
# Bulk Modulus (GPa) = 48.10914 60.01252 54.06083
# Shear Modulus (GPa) = 17.32438 22.02112 19.67275
#
# Velocity S-wave (km/s) = 3.23356 3.64562 3.44576
# Velocity P-wave (km/s) = 6.55567 7.34442 6.96123
#
# Compressibility (1/GPa) = 0.02078607
#
# Stress axis : x y z
#
# Youngs Moduli (GPa) = 31.37106 130.53766 42.19920
#
# Poissons Ratio (x) = 0.36624 0.62827
# Poissons Ratio (y) = 0.08801 0.14897
# Poissons Ratio (z) = 0.46706 0.46083
#
# Static dielectric constant tensor:
#      x y z
#    x 2.755940 0.000000 0.000000 
#    y 0.000000 3.852730 0.000000 
#    z 0.000000 0.000000 2.966030 
# 
# 
# High freq. dielectric constant tensor:
#      x y z
#    x 1.583100 0.000000 0.000000 
#    y 0.000000 1.674680 0.000000 
#    z 0.000000 0.000000 1.621630 
# 
# From -- ./inp_files/53440.got.cif
#   From: 2010.03.12/outbox.cif.g09.slc.cpg/sg74_27_cif.got.tgz:53440.got - 2010.04.16 15:46:19.
