data_PCOD8298402
_publ_section_title
;
Structure prediction by ZEFSAII (Michael W. Deem and Ramdas Pophale) SiO2 
 PCOD8298402
Probable space group: I M M A
;
_chemical_formula_sum "Si O2"
_cell_formula_units_Z 96
_cell_length_a 9.901932
_cell_length_b 20.566185
_cell_length_c 29.371606
_cell_angle_alpha 90.000000
_cell_angle_beta 90.000000
_cell_angle_gamma 90.000000
_cell_volume 5981.379687
_symmetry_space_group_name_H-M "I M M A"
_symmetry_group_IT_number 74
_symmetry_cell_setting 'orthorhombic'
loop_
_space_group_symop_operation_xyz
x,y,z
-x,1/2-y,z
x,-y,-z
-x,1/2+y,-z
-x,-y,-z
x,1/2+y,-z
-x,y,z
x,1/2-y,z
1/2+x,1/2+y,1/2+z
1/2-x,-y,1/2+z
1/2+x,1/2-y,1/2-z
1/2-x,y,1/2-z
1/2-x,1/2-y,1/2-z
1/2+x,y,1/2-z
1/2-x,1/2+y,1/2+z
1/2+x,-y,1/2+z
loop_
_atom_site_type_symbol
_atom_site_label
_atom_site_fract_x
_atom_site_fract_y
_atom_site_fract_z
Si Si1 0.843045 0.061342 0.468768
Si Si2 0.649332 0.630711 0.287413
Si Si3 0.153049 0.823076 0.465525
Si Si4 0.843412 0.629486 0.110596
Si Si5 0.343037 0.478099 0.389986
Si Si6 0.649619 0.024100 0.287742
O O1 0.804798 0.127269 0.494971
O O2 0.752028 0.062094 0.423723
O O3 0.000000 0.058982 0.454606
O O4 0.804806 0.000000 0.500000
O O5 0.500000 0.657191 0.276244
O O6 0.750000 0.660935 0.250000
O O7 0.692143 0.652203 0.338116
O O8 0.649132 0.553272 0.285217
O O9 0.164809 0.750000 0.485019
O O10 0.250641 0.828870 0.422496
O O11 0.000000 0.838471 0.449544
O O12 0.810162 0.553874 0.103973
O O13 0.000000 0.643339 0.099796
O O14 0.500000 0.464392 0.400921
O O15 0.307425 0.454976 0.338700
O O16 0.500000 0.050673 0.276867
O O17 0.750000 0.054174 0.250000
#
# Coordination Sequence:
#
# PCOD8298402 Si02
#       6
#    16  16  16  16  16  16
#     4  10  19  31  47  68  90 115 152 190 222 266
#     4   8  14  24  38  59  85 112 143 181 222 262
#     4  10  21  35  48  64  89 118 148 187 231 269
#     4   9  17  29  45  65  89 116 149 187 225 266
#     4   9  17  28  44  67  93 120 150 185 224 264
#     4   8  14  24  37  58  89 120 147 175 214 262
#
# _framework density 16.049809
#
# number of rings (size 3 to 8) (size 9 to 14) (size 15 to 20)
#    0.000    3.000    1.667    2.000    0.000    2.667 
#    0.000    3.333    0.000    0.500    0.000    0.000 
#    0.000    0.667    0.000    1.500    0.000    2.333 
#
# Total GULP energy -595040.270925 kJ/mol
# GULP energy per Si atom -12396.672311 kJ/mol
# Density = 1.601328 g / cm^3
# Si number density = 16.049809 Si / 1000 Ang^3
#
#
#
# Elastic Constant Matrix: (Units=GPa)
#
#
# Indices 1 2 3 4 5 6 
#
# 1 85.1214 31.1115 78.1243 0.0000 0.0000 0.0000
# 2 31.1115 54.8776 39.6106 0.0000 0.0000 0.0000
# 3 78.1243 39.6106 123.9867 0.0000 0.0000 0.0000
# 4 0.0000 0.0000 0.0000 11.7925 0.0000 0.0000
# 5 0.0000 0.0000 0.0000 0.0000 38.7535 0.0000
# 6 0.0000 0.0000 0.0000 0.0000 0.0000 13.0057
#
#
#
# Elastic Compliance Matrix: (Units=1/GPa)
#
#
# Indices 1 2 3 4 5 6 
#
# 1 0.028573 -0.004164 -0.016674 0.000000 0.000000 0.000000
# 2 -0.004164 0.024290 -0.005137 0.000000 0.000000 0.000000
# 3 -0.016674 -0.005137 0.020212 0.000000 0.000000 0.000000
# 4 0.000000 0.000000 0.000000 0.084800 0.000000 0.000000
# 5 0.000000 0.000000 0.000000 0.000000 0.025804 0.000000
# 6 0.000000 0.000000 0.000000 0.000000 0.000000 0.076890
#
#
# Mechanical properties :
#
#
# Convention : Reuss Voigt Hill
#
# Bulk Modulus (GPa) = 47.33071 62.40872 54.86971
# Shear Modulus (GPa) = 15.64653 20.38629 18.01641
#
# Velocity S-wave (km/s) = 3.12568 3.56784 3.35405
# Velocity P-wave (km/s) = 6.52537 7.47940 7.01861
#
# Compressibility (1/GPa) = 0.02112793
#
# Stress axis : x y z
#
# Youngs Moduli (GPa) = 34.99848 41.16839 49.47445
#
# Poissons Ratio (x) = 0.17141 0.82491
# Poissons Ratio (y) = 0.14572 0.25413
# Poissons Ratio (z) = 0.58355 0.21147
#
# Static dielectric constant tensor:
#      x y z
#    x 3.211670 0.000000 0.000000 
#    y 0.000000 2.620740 0.000000 
#    z 0.000000 0.000000 3.114180 
# 
# 
# High freq. dielectric constant tensor:
#      x y z
#    x 1.622900 0.000000 0.000000 
#    y 0.000000 1.564240 0.000000 
#    z 0.000000 0.000000 1.616400 
# 
# From -- ./inp_files/58858.got.cif
#   From: 2010.03.12/outbox.cif.g09.slc.cpg/sg74_30_cif.got.tgz:58858.got - 2010.04.16 15:46:19.
