data_PCOD8298166
_publ_section_title
;
Structure prediction by ZEFSAII (Michael W. Deem and Ramdas Pophale) SiO2 
 PCOD8298166
Probable space group: I M M A
;
_chemical_formula_sum "Si O2"
_cell_formula_units_Z 80
_cell_length_a 22.611445
_cell_length_b 9.960711
_cell_length_c 24.057579
_cell_angle_alpha 90.000000
_cell_angle_beta 90.000000
_cell_angle_gamma 90.000000
_cell_volume 5418.393946
_symmetry_space_group_name_H-M "I M M A"
_symmetry_group_IT_number 74
_symmetry_cell_setting 'orthorhombic'
loop_
_space_group_symop_operation_xyz
x,y,z
-x,1/2-y,z
x,-y,-z
-x,1/2+y,-z
-x,-y,-z
x,1/2+y,-z
-x,y,z
x,1/2-y,z
1/2+x,1/2+y,1/2+z
1/2-x,-y,1/2+z
1/2+x,1/2-y,1/2-z
1/2-x,y,1/2-z
1/2-x,1/2-y,1/2-z
1/2+x,y,1/2-z
1/2-x,1/2+y,1/2+z
1/2+x,-y,1/2+z
loop_
_atom_site_type_symbol
_atom_site_label
_atom_site_fract_x
_atom_site_fract_y
_atom_site_fract_z
Si Si1 0.659410 0.900269 0.781841
Si Si2 0.569074 0.250000 0.417670
Si Si3 0.067718 0.097712 0.759255
Si Si4 0.776854 0.900598 0.836058
Si Si5 0.615814 0.025757 0.622401
Si Si6 0.070892 0.750000 0.043556
O O1 0.636994 0.750000 0.796506
O O2 0.708979 0.947186 0.826845
O O3 0.688988 0.898347 0.721951
O O4 0.604670 0.002860 0.782463
O O5 0.500000 0.250000 0.422989
O O6 0.588557 0.378618 0.383128
O O7 0.593845 0.250000 0.480441
O O8 0.074251 0.250000 0.737964
O O9 0.090782 0.092937 0.822187
O O10 0.000000 0.049850 0.757490
O O11 0.777718 0.750000 0.861659
O O12 0.812509 0.005719 0.875154
O O13 0.598222 0.116904 0.570581
O O14 0.000000 0.750000 0.050044
#
# Coordination Sequence:
#
# PCOD8298166 Si02
#       6
#    16   8  16  16  16   8
#     4   8  15  27  43  60  79 102 131 167 201 236
#     4  11  22  32  46  59  74 106 145 178 215 257
#     4  10  19  29  40  59  87 111 134 168 206 242
#     4   8  14  28  44  60  78  98 131 172 204 237
#     4  11  19  32  45  60  77 106 141 176 213 246
#     4  11  22  34  42  57  84 106 133 182 225 247
#
# _framework density 14.764523000000001
#
# number of rings (size 3 to 8) (size 9 to 14) (size 15 to 20)
#    0.000    2.400    2.000    3.600    1.400    2.000 
#    1.800    2.000    0.000    0.000    0.000    0.000 
#    0.000    0.000    0.000    0.000    0.000    6.000 
#
# Total GULP energy -495778.953030 kJ/mol
# GULP energy per Si atom -12394.473826 kJ/mol
# Density = 1.473092 g / cm^3
# Si number density = 14.764523 Si / 1000 Ang^3
#
#
#
# Elastic Constant Matrix: (Units=GPa)
#
#
# Indices 1 2 3 4 5 6 
#
# 1 91.5951 37.1283 21.6171 0.0000 0.0000 0.0000
# 2 37.1283 72.5666 9.4957 0.0000 0.0000 0.0000
# 3 21.6171 9.4957 20.7331 0.0000 0.0000 0.0000
# 4 0.0000 0.0000 0.0000 16.1488 0.0000 0.0000
# 5 0.0000 0.0000 0.0000 0.0000 17.3651 0.0000
# 6 0.0000 0.0000 0.0000 0.0000 0.0000 28.5569
#
#
#
# Elastic Compliance Matrix: (Units=1/GPa)
#
#
# Indices 1 2 3 4 5 6 
#
# 1 0.017185 -0.006859 -0.014777 0.000000 0.000000 0.000000
# 2 -0.006859 0.017397 -0.000816 0.000000 0.000000 0.000000
# 3 -0.014777 -0.000816 0.064012 0.000000 0.000000 0.000000
# 4 0.000000 0.000000 0.000000 0.061924 0.000000 0.000000
# 5 0.000000 0.000000 0.000000 0.000000 0.057587 0.000000
# 6 0.000000 0.000000 0.000000 0.000000 0.000000 0.035018
#
#
# Mechanical properties :
#
#
# Convention : Reuss Voigt Hill
#
# Bulk Modulus (GPa) = 18.62514 35.70853 27.16683
# Shear Modulus (GPa) = 15.82660 20.19106 18.00883
#
# Velocity S-wave (km/s) = 3.27759 3.70204 3.49626
# Velocity P-wave (km/s) = 5.19285 6.52007 5.89394
#
# Compressibility (1/GPa) = 0.05369088
#
# Stress axis : x y z
#
# Youngs Moduli (GPa) = 58.18898 57.48217 15.62200
#
# Poissons Ratio (x) = 0.39428 0.23084
# Poissons Ratio (y) = 0.39913 0.01275
# Poissons Ratio (z) = 0.85983 0.04690
#
# Static dielectric constant tensor:
#      x y z
#    x 3.092350 0.000000 0.000000 
#    y 0.000000 2.976120 0.000000 
#    z 0.000000 0.000000 2.649250 
# 
# 
# High freq. dielectric constant tensor:
#      x y z
#    x 1.558610 0.000000 0.000000 
#    y 0.000000 1.574680 0.000000 
#    z 0.000000 0.000000 1.508890 
# 
# From -- ./inp_files/54438.got.cif
#   From: 2010.03.12/outbox.cif.g09.slc.cpg/sg74_28_cif.got.tgz:54438.got - 2010.04.16 15:46:19.
