data_PCOD8298175
_publ_section_title
;
Structure prediction by ZEFSAII (Michael W. Deem and Ramdas Pophale) SiO2 
 PCOD8298175
Probable space group: I M M A
;
_chemical_formula_sum "Si O2"
_cell_formula_units_Z 96
_cell_length_a 24.558251
_cell_length_b 9.646681
_cell_length_c 24.960414
_cell_angle_alpha 90.000000
_cell_angle_beta 90.000000
_cell_angle_gamma 90.000000
_cell_volume 5913.262187
_symmetry_space_group_name_H-M "I M M A"
_symmetry_group_IT_number 74
_symmetry_cell_setting 'orthorhombic'
loop_
_space_group_symop_operation_xyz
x,y,z
-x,1/2-y,z
x,-y,-z
-x,1/2+y,-z
-x,-y,-z
x,1/2+y,-z
-x,y,z
x,1/2-y,z
1/2+x,1/2+y,1/2+z
1/2-x,-y,1/2+z
1/2+x,1/2-y,1/2-z
1/2-x,y,1/2-z
1/2-x,1/2-y,1/2-z
1/2+x,y,1/2-z
1/2-x,1/2+y,1/2+z
1/2+x,-y,1/2+z
loop_
_atom_site_type_symbol
_atom_site_label
_atom_site_fract_x
_atom_site_fract_y
_atom_site_fract_z
Si Si1 0.730783 0.903675 0.046459
Si Si2 0.939223 0.092242 0.245652
Si Si3 0.837691 0.086981 0.760585
Si Si4 0.061427 0.903089 0.628260
Si Si5 0.395262 0.402883 0.954649
Si Si6 0.237250 0.412795 0.665837
O O1 0.758247 0.750000 0.044875
O O2 0.667806 0.885667 0.032847
O O3 0.737105 0.974695 0.105495
O O4 0.757695 0.000000 0.000000
O O5 0.926901 0.250000 0.227984
O O6 0.937176 0.077520 0.308889
O O7 0.000000 0.049325 0.225422
O O8 0.892967 0.991354 0.222475
O O9 0.849938 0.250000 0.757477
O O10 0.812039 0.031903 0.703998
O O11 0.794881 0.052859 0.807334
O O12 0.083818 0.750000 0.612499
O O13 0.000000 0.919062 0.607047
O O14 0.097864 0.023410 0.602618
O O15 0.422703 0.250000 0.954151
O O16 0.423000 0.500000 0.000000
O O17 0.227946 0.250000 0.660988
#
# Coordination Sequence:
#
# PCOD8298175 Si02
#       6
#    16  16  16  16  16  16
#     4   9  17  29  43  60  83 110 138 168 205 249
#     4   9  18  31  44  60  86 115 138 169 215 255
#     4   9  16  28  47  67  86 113 147 178 211 256
#     4   9  18  31  43  54  72 101 135 170 209 248
#     4  10  19  29  42  58  75  99 133 172 211 248
#     4   8  15  28  45  65  90 115 139 176 222 255
#
# _framework density 16.234694999999999
#
# number of rings (size 3 to 8) (size 9 to 14) (size 15 to 20)
#    0.000    3.000    0.000    3.500    0.000    3.667 
#    0.000    5.000    0.000    0.000    0.000    0.000 
#    0.000    0.667    0.000    1.500    0.000    2.667 
#
# Total GULP energy -594786.103138 kJ/mol
# GULP energy per Si atom -12391.377149 kJ/mol
# Density = 1.619774 g / cm^3
# Si number density = 16.234695 Si / 1000 Ang^3
#
#
#
# Elastic Constant Matrix: (Units=GPa)
#
#
# Indices 1 2 3 4 5 6 
#
# 1 70.1899 29.6483 10.3901 0.0000 0.0000 0.0000
# 2 29.6483 74.0471 18.8349 0.0000 0.0000 0.0000
# 3 10.3901 18.8349 66.9902 0.0000 0.0000 0.0000
# 4 0.0000 0.0000 0.0000 21.8769 0.0000 0.0000
# 5 0.0000 0.0000 0.0000 0.0000 17.1822 0.0000
# 6 0.0000 0.0000 0.0000 0.0000 0.0000 20.9479
#
#
#
# Elastic Compliance Matrix: (Units=1/GPa)
#
#
# Indices 1 2 3 4 5 6 
#
# 1 0.017186 -0.006681 -0.000787 0.000000 0.000000 0.000000
# 2 -0.006681 0.017142 -0.003784 0.000000 0.000000 0.000000
# 3 -0.000787 -0.003784 0.016113 0.000000 0.000000 0.000000
# 4 0.000000 0.000000 0.000000 0.045710 0.000000 0.000000
# 5 0.000000 0.000000 0.000000 0.000000 0.058200 0.000000
# 6 0.000000 0.000000 0.000000 0.000000 0.000000 0.047738
#
#
# Mechanical properties :
#
#
# Convention : Reuss Voigt Hill
#
# Bulk Modulus (GPa) = 35.79307 36.55263 36.17285
# Shear Modulus (GPa) = 21.37621 22.15830 21.76726
#
# Velocity S-wave (km/s) = 3.63257 3.69843 3.66565
# Velocity P-wave (km/s) = 6.29994 6.38763 6.34394
#
# Compressibility (1/GPa) = 0.02793837
#
# Stress axis : x y z
#
# Youngs Moduli (GPa) = 58.18830 58.33519 62.06015
#
# Poissons Ratio (x) = 0.38973 0.04885
# Poissons Ratio (y) = 0.38875 0.23480
# Poissons Ratio (z) = 0.04580 0.22071
#
# Static dielectric constant tensor:
#      x y z
#    x 2.960580 0.000000 0.000000 
#    y 0.000000 3.198610 0.000000 
#    z 0.000000 0.000000 3.068260 
# 
# 
# High freq. dielectric constant tensor:
#      x y z
#    x 1.592700 0.000000 0.000000 
#    y 0.000000 1.616870 0.000000 
#    z 0.000000 0.000000 1.600770 
# 
# From -- ./inp_files/61905.got.cif
#   From: 2010.03.12/outbox.cif.g09.slc.cpg/sg74_31_cif.got.tgz:61905.got - 2010.04.16 15:46:19.
