data_PCOD8298613
_publ_section_title
;
Structure prediction by ZEFSAII (Michael W. Deem and Ramdas Pophale) SiO2 
 PCOD8298613
Probable space group: I M M A
;
_chemical_formula_sum "Si O2"
_cell_formula_units_Z 88
_cell_length_a 9.377781
_cell_length_b 22.254277
_cell_length_c 24.149489
_cell_angle_alpha 90.000000
_cell_angle_beta 90.000000
_cell_angle_gamma 90.000000
_cell_volume 5039.895381
_symmetry_space_group_name_H-M "I M M A"
_symmetry_group_IT_number 74
_symmetry_cell_setting 'orthorhombic'
loop_
_space_group_symop_operation_xyz
x,y,z
-x,1/2-y,z
x,-y,-z
-x,1/2+y,-z
-x,-y,-z
x,1/2+y,-z
-x,y,z
x,1/2-y,z
1/2+x,1/2+y,1/2+z
1/2-x,-y,1/2+z
1/2+x,1/2-y,1/2-z
1/2-x,y,1/2-z
1/2-x,1/2-y,1/2-z
1/2+x,y,1/2-z
1/2-x,1/2+y,1/2+z
1/2+x,-y,1/2+z
loop_
_atom_site_type_symbol
_atom_site_label
_atom_site_fract_x
_atom_site_fract_y
_atom_site_fract_z
Si Si1 0.667804 0.750000 0.307438
Si Si2 0.334783 0.181774 0.981325
Si Si3 0.835721 0.967982 0.196509
Si Si4 0.667359 0.605709 0.694742
Si Si5 0.161935 0.820660 0.607405
Si Si6 0.666097 0.137735 0.617802
O O1 0.500000 0.750000 0.294906
O O2 0.750000 0.750000 0.250000
O O3 0.714821 0.808518 0.341931
O O4 0.500000 0.176886 0.966178
O O5 0.281228 0.250000 0.973780
O O6 0.247357 0.139212 0.940414
O O7 0.307918 0.160666 0.044110
O O8 0.750000 0.946602 0.250000
O O9 0.793503 0.925827 0.145297
O O10 0.000000 0.959792 0.212115
O O11 0.800025 0.036393 0.180425
O O12 0.500000 0.617756 0.703193
O O13 0.750000 0.625455 0.750000
O O14 0.724104 0.644982 0.644363
O O15 0.183984 0.750000 0.615432
O O16 0.000000 0.838442 0.623836
O O17 0.500000 0.143092 0.604714
#
# Coordination Sequence:
#
# PCOD8298613 Si02
#       6
#     8  16  16  16  16  16
#     4  10  20  30  44  70 100 130 167 212 255 294
#     4   9  18  33  52  74 100 132 169 208 253 301
#     4   9  19  34  51  72 101 135 171 210 251 298
#     4  10  20  35  55  78 103 134 168 203 249 302
#     4   9  19  36  56  78 104 131 163 207 253 299
#     4  10  19  32  49  72 101 133 171 212 254 298
#
# _framework density 17.46068
#
# number of rings (size 3 to 8) (size 9 to 14) (size 15 to 20)
#    0.000    2.545    0.909    2.182    0.000    3.636 
#    0.000    2.727    0.000    5.455    0.000    0.000 
#    0.000    0.000    0.000    0.000    0.000    0.000 
#
# Total GULP energy -545691.126343 kJ/mol
# GULP energy per Si atom -12402.071053 kJ/mol
# Density = 1.742094 g / cm^3
# Si number density = 17.460680 Si / 1000 Ang^3
#
#
#
# Elastic Constant Matrix: (Units=GPa)
#
#
# Indices 1 2 3 4 5 6 
#
# 1 77.8921 41.9255 68.1316 0.0000 0.0000 0.0000
# 2 41.9255 65.0140 56.6550 0.0000 0.0000 0.0000
# 3 68.1316 56.6550 124.3297 0.0000 0.0000 0.0000
# 4 0.0000 0.0000 0.0000 28.6458 0.0000 0.0000
# 5 0.0000 0.0000 0.0000 0.0000 40.1267 0.0000
# 6 0.0000 0.0000 0.0000 0.0000 0.0000 24.2832
#
#
#
# Elastic Compliance Matrix: (Units=1/GPa)
#
#
# Indices 1 2 3 4 5 6 
#
# 1 0.026640 -0.007394 -0.011229 0.000000 0.000000 0.000000
# 2 -0.007394 0.027564 -0.008509 0.000000 0.000000 0.000000
# 3 -0.011229 -0.008509 0.018074 0.000000 0.000000 0.000000
# 4 0.000000 0.000000 0.000000 0.034909 0.000000 0.000000
# 5 0.000000 0.000000 0.000000 0.000000 0.024921 0.000000
# 6 0.000000 0.000000 0.000000 0.000000 0.000000 0.041181
#
#
# Mechanical properties :
#
#
# Convention : Reuss Voigt Hill
#
# Bulk Modulus (GPa) = 55.51105 66.74000 61.12553
# Shear Modulus (GPa) = 21.40795 25.31273 23.36034
#
# Velocity S-wave (km/s) = 3.50532 3.81162 3.66168
# Velocity P-wave (km/s) = 6.94580 7.59456 7.27741
#
# Compressibility (1/GPa) = 0.01801443
#
# Stress axis : x y z
#
# Youngs Moduli (GPa) = 37.53708 36.27903 55.32811
#
# Poissons Ratio (x) = 0.26825 0.62130
# Poissons Ratio (y) = 0.27755 0.47077
# Poissons Ratio (z) = 0.42152 0.30869
#
# Static dielectric constant tensor:
#      x y z
#    x 3.200290 0.000000 0.000000 
#    y 0.000000 3.205980 0.000000 
#    z 0.000000 0.000000 3.176640 
# 
# 
# High freq. dielectric constant tensor:
#      x y z
#    x 1.675640 0.000000 0.000000 
#    y 0.000000 1.665620 0.000000 
#    z 0.000000 0.000000 1.674600 
# 
# From -- ./inp_files/48760.got.cif
#   From: 2010.03.12/outbox.cif.g09.slc.cpg/sg74_25_cif.got.tgz:48760.got - 2010.04.16 15:46:19.
