data_PCOD8298777
_publ_section_title
;
Structure prediction by ZEFSAII (Michael W. Deem and Ramdas Pophale) SiO2 
 PCOD8298777
Probable space group: I M M A
;
_chemical_formula_sum "Si O2"
_cell_formula_units_Z 112
_cell_length_a 18.114359
_cell_length_b 16.980244
_cell_length_c 19.412464
_cell_angle_alpha 90.000000
_cell_angle_beta 90.000000
_cell_angle_gamma 90.000000
_cell_volume 5971.006728
_symmetry_space_group_name_H-M "I M M A"
_symmetry_group_IT_number 74
_symmetry_cell_setting 'orthorhombic'
loop_
_space_group_symop_operation_xyz
x,y,z
-x,1/2-y,z
x,-y,-z
-x,1/2+y,-z
-x,-y,-z
x,1/2+y,-z
-x,y,z
x,1/2-y,z
1/2+x,1/2+y,1/2+z
1/2-x,-y,1/2+z
1/2+x,1/2-y,1/2-z
1/2-x,y,1/2-z
1/2-x,1/2-y,1/2-z
1/2+x,y,1/2-z
1/2-x,1/2+y,1/2+z
1/2+x,-y,1/2+z
loop_
_atom_site_type_symbol
_atom_site_label
_atom_site_fract_x
_atom_site_fract_y
_atom_site_fract_z
Si Si1 0.656756 0.537144 0.931907
Si Si2 0.916084 0.018588 0.173623
Si Si3 0.738602 0.838328 0.545363
Si Si4 0.417567 0.551573 0.179694
Si Si5 0.816344 0.337999 0.199625
Si Si6 0.783663 0.341135 0.680210
Si Si7 0.698505 0.934539 0.420790
O O1 0.677036 0.628315 0.948193
O O2 0.604297 0.526045 0.865586
O O3 0.736338 0.497832 0.916705
O O4 0.618783 0.500000 0.000000
O O5 0.883104 0.100569 0.201908
O O6 0.000000 0.033337 0.149376
O O7 0.913068 0.961621 0.239060
O O8 0.874224 0.976680 0.109758
O O9 0.741424 0.750000 0.513822
O O10 0.706699 0.835226 0.620939
O O11 0.688525 0.898277 0.497876
O O12 0.500000 0.577143 0.158952
O O13 0.361701 0.620692 0.159536
O O14 0.841855 0.250000 0.222916
O O15 0.750000 0.366756 0.250000
O O16 0.798966 0.250000 0.688607
O O17 0.750000 0.377952 0.750000
O O18 0.722392 0.358112 0.622775
#
# Coordination Sequence:
#
# PCOD8298777 Si02
#       7
#    16  16  16  16  16  16  16
#     4   9  18  32  56  81 105 143 184 231 281 331
#     4  11  22  35  55  80 112 152 189 233 287 339
#     4  10  19  33  56  83 109 140 186 237 282 329
#     4  10  21  35  53  82 114 147 186 231 288 348
#     4  10  21  36  58  84 109 143 185 234 289 342
#     4  10  19  32  54  79 105 145 187 232 277 318
#     4  10  19  34  54  79 111 140 186 233 269 332
#
# _framework density 18.757304999999999
#
# number of rings (size 3 to 8) (size 9 to 14) (size 15 to 20)
#    0.000    2.000    2.857    1.286    2.000    0.857 
#    0.000    1.429    0.000    3.857    0.000    0.000 
#    0.000    0.000    0.000    0.000    0.000    0.000 
#
# Total GULP energy -693921.386148 kJ/mol
# GULP energy per Si atom -12391.453324 kJ/mol
# Density = 1.871461 g / cm^3
# Si number density = 18.757305 Si / 1000 Ang^3
#
#
#
# Elastic Constant Matrix: (Units=GPa)
#
#
# Indices 1 2 3 4 5 6 
#
# 1 112.9243 47.7659 39.7893 0.0000 0.0000 0.0000
# 2 47.7659 79.1096 14.8535 0.0000 0.0000 0.0000
# 3 39.7893 14.8535 91.0441 0.0000 0.0000 0.0000
# 4 0.0000 0.0000 0.0000 28.9787 0.0000 0.0000
# 5 0.0000 0.0000 0.0000 0.0000 21.3257 0.0000
# 6 0.0000 0.0000 0.0000 0.0000 0.0000 16.8596
#
#
#
# Elastic Compliance Matrix: (Units=1/GPa)
#
#
# Indices 1 2 3 4 5 6 
#
# 1 0.013639 -0.007341 -0.004763 0.000000 0.000000 0.000000
# 2 -0.007341 0.016991 0.000436 0.000000 0.000000 0.000000
# 3 -0.004763 0.000436 0.012994 0.000000 0.000000 0.000000
# 4 0.000000 0.000000 0.000000 0.034508 0.000000 0.000000
# 5 0.000000 0.000000 0.000000 0.000000 0.046892 0.000000
# 6 0.000000 0.000000 0.000000 0.000000 0.000000 0.059313
#
#
# Mechanical properties :
#
#
# Convention : Reuss Voigt Hill
#
# Bulk Modulus (GPa) = 49.28832 54.21060 51.74946
# Shear Modulus (GPa) = 23.31704 25.47743 24.39723
#
# Velocity S-wave (km/s) = 3.52957 3.68947 3.61041
# Velocity P-wave (km/s) = 6.55320 6.86392 6.71036
#
# Compressibility (1/GPa) = 0.02028878
#
# Stress axis : x y z
#
# Youngs Moduli (GPa) = 73.32020 58.85438 76.95791
#
# Poissons Ratio (x) = 0.43203 0.36655
# Poissons Ratio (y) = 0.53822 -0.03356
# Poissons Ratio (z) = 0.34922 -0.02567
#
# Static dielectric constant tensor:
#      x y z
#    x 3.233340 0.000000 0.000000 
#    y 0.000000 3.696750 0.000000 
#    z 0.000000 0.000000 3.738220 
# 
# 
# High freq. dielectric constant tensor:
#      x y z
#    x 1.688040 0.000000 0.000000 
#    y 0.000000 1.725860 0.000000 
#    z 0.000000 0.000000 1.746620 
# 
# From -- ./inp_files/53238.got.cif
#   From: 2010.03.12/outbox.cif.g09.slc.cpg/sg74_27_cif.got.tgz:53238.got - 2010.04.16 15:46:19.
