data_PCOD8298921
_publ_section_title
;
Structure prediction by ZEFSAII (Michael W. Deem and Ramdas Pophale) SiO2 
 PCOD8298921
Probable space group: I M M A
;
_chemical_formula_sum "Si O2"
_cell_formula_units_Z 104
_cell_length_a 9.425938
_cell_length_b 30.845414
_cell_length_c 19.339882
_cell_angle_alpha 90.000000
_cell_angle_beta 90.000000
_cell_angle_gamma 90.000000
_cell_volume 5623.011897
_symmetry_space_group_name_H-M "I M M A"
_symmetry_group_IT_number 74
_symmetry_cell_setting 'orthorhombic'
loop_
_space_group_symop_operation_xyz
x,y,z
-x,1/2-y,z
x,-y,-z
-x,1/2+y,-z
-x,-y,-z
x,1/2+y,-z
-x,y,z
x,1/2-y,z
1/2+x,1/2+y,1/2+z
1/2-x,-y,1/2+z
1/2+x,1/2-y,1/2-z
1/2-x,y,1/2-z
1/2-x,1/2-y,1/2-z
1/2+x,y,1/2-z
1/2-x,1/2+y,1/2+z
1/2+x,-y,1/2+z
loop_
_atom_site_type_symbol
_atom_site_label
_atom_site_fract_x
_atom_site_fract_y
_atom_site_fract_z
Si Si1 0.339709 0.250000 0.317124
Si Si2 0.333649 0.829263 0.182511
Si Si3 0.166571 0.955263 0.465742
Si Si4 0.664038 0.655928 0.680045
Si Si5 0.662768 0.569730 0.184544
Si Si6 0.335096 0.379217 0.462359
Si Si7 0.838505 0.701285 0.055579
O O1 0.500000 0.250000 0.292015
O O2 0.250000 0.250000 0.250000
O O3 0.307538 0.204017 0.354251
O O4 0.500000 0.818893 0.190489
O O5 0.250000 0.813174 0.250000
O O6 0.304999 0.880015 0.170163
O O7 0.270398 0.803208 0.118497
O O8 0.206924 0.956364 0.384473
O O9 0.244188 0.916425 0.503404
O O10 0.000000 0.947294 0.474950
O O11 0.216419 0.000000 0.500000
O O12 0.500000 0.650588 0.699971
O O13 0.750000 0.646299 0.750000
O O14 0.705888 0.622811 0.619011
O O15 0.500000 0.562131 0.203383
O O16 0.750000 0.551883 0.250000
O O17 0.500000 0.390430 0.471940
O O18 0.298475 0.333007 0.496559
O O19 0.823606 0.750000 0.024891
O O20 0.000000 0.693313 0.081657
#
# Coordination Sequence:
#
# PCOD8298921 Si02
#       7
#     8  16  16  16  16  16  16
#     4   8  14  26  46  70 100 134 175 218 255 302
#     4  10  19  33  54  78 107 143 185 229 271 317
#     4  10  21  39  61  84 111 143 179 220 275 333
#     4   9  18  32  51  76 105 141 181 221 266 316
#     4   9  18  33  55  82 108 139 178 220 266 319
#     4  10  21  36  56  81 110 142 180 226 273 322
#     4  10  21  35  52  77 110 148 186 223 270 324
#
# _framework density 18.495425000000001
#
# number of rings (size 3 to 8) (size 9 to 14) (size 15 to 20)
#    0.000    2.462    1.538    0.462    1.077    2.769 
#    0.000    0.769    0.000    3.692    0.000    0.000 
#    0.000    0.000    0.000    0.000    0.000    0.000 
#
# Total GULP energy -644516.720285 kJ/mol
# GULP energy per Si atom -12394.552313 kJ/mol
# Density = 1.845333 g / cm^3
# Si number density = 18.495425 Si / 1000 Ang^3
#
#
#
# Elastic Constant Matrix: (Units=GPa)
#
#
# Indices 1 2 3 4 5 6 
#
# 1 70.5949 45.2357 57.1348 0.0000 0.0000 0.0000
# 2 45.2357 95.6188 64.2513 -0.0001 0.0000 0.0000
# 3 57.1348 64.2513 130.2284 -0.0001 0.0000 0.0000
# 4 0.0000 -0.0001 -0.0001 26.8851 0.0000 0.0000
# 5 0.0000 0.0000 0.0000 0.0000 30.9974 0.0000
# 6 0.0000 0.0000 0.0000 0.0000 0.0000 19.1382
#
#
#
# Elastic Compliance Matrix: (Units=1/GPa)
#
#
# Indices 1 2 3 4 5 6 
#
# 1 0.024401 -0.006508 -0.007495 0.000000 0.000000 0.000000
# 2 -0.006508 0.017380 -0.005720 0.000000 0.000000 0.000000
# 3 -0.007495 -0.005720 0.013789 0.000000 0.000000 0.000000
# 4 0.000000 0.000000 0.000000 0.037195 0.000000 0.000000
# 5 0.000000 0.000000 0.000000 0.000000 0.032261 0.000000
# 6 0.000000 0.000000 0.000000 0.000000 0.000000 0.052252
#
#
# Mechanical properties :
#
#
# Convention : Reuss Voigt Hill
#
# Bulk Modulus (GPa) = 62.01229 69.96507 65.98868
# Shear Modulus (GPa) = 22.51260 24.05883 23.28572
#
# Velocity S-wave (km/s) = 3.49262 3.61057 3.55209
# Velocity P-wave (km/s) = 7.06157 7.43586 7.25113
#
# Compressibility (1/GPa) = 0.01612584
#
# Stress axis : x y z
#
# Youngs Moduli (GPa) = 40.98200 57.53611 72.52153
#
# Poissons Ratio (x) = 0.37442 0.54352
# Poissons Ratio (y) = 0.26670 0.41482
# Poissons Ratio (z) = 0.30715 0.32910
#
# Static dielectric constant tensor:
#      x y z
#    x 3.363830 0.000000 0.000000 
#    y 0.000000 3.174060 0.000000 
#    z 0.000000 0.000000 3.389940 
# 
# 
# High freq. dielectric constant tensor:
#      x y z
#    x 1.714620 0.000000 0.000000 
#    y 0.000000 1.699740 0.000000 
#    z 0.000000 0.000000 1.718220 
# 
# From -- ./inp_files/49590.got.cif
#   From: 2010.03.12/outbox.cif.g09.slc.cpg/sg74_25_cif.got.tgz:49590.got - 2010.04.16 15:46:19.
