data_PCOD8298321
_publ_section_title
;
Structure prediction by ZEFSAII (Michael W. Deem and Ramdas Pophale) SiO2 
 PCOD8298321
Probable space group: I M M A
;
_chemical_formula_sum "Si O2"
_cell_formula_units_Z 120
_cell_length_a 14.132192
_cell_length_b 19.831969
_cell_length_c 25.508951
_cell_angle_alpha 90.000000
_cell_angle_beta 90.000000
_cell_angle_gamma 90.000000
_cell_volume 7149.373128
_symmetry_space_group_name_H-M "I M M A"
_symmetry_group_IT_number 74
_symmetry_cell_setting 'orthorhombic'
loop_
_space_group_symop_operation_xyz
x,y,z
-x,1/2-y,z
x,-y,-z
-x,1/2+y,-z
-x,-y,-z
x,1/2+y,-z
-x,y,z
x,1/2-y,z
1/2+x,1/2+y,1/2+z
1/2-x,-y,1/2+z
1/2+x,1/2-y,1/2-z
1/2-x,y,1/2-z
1/2-x,1/2-y,1/2-z
1/2+x,y,1/2-z
1/2-x,1/2+y,1/2+z
1/2+x,-y,1/2+z
loop_
_atom_site_type_symbol
_atom_site_label
_atom_site_fract_x
_atom_site_fract_y
_atom_site_fract_z
Si Si1 0.602875 0.404487 0.103953
Si Si2 0.250000 0.425866 0.250000
Si Si3 0.207816 0.547344 0.862540
Si Si4 0.691564 0.674466 0.476452
Si Si5 0.110594 0.537951 0.052039
Si Si6 0.392494 0.824236 0.795887
Si Si7 0.102519 0.325689 0.500639
Si Si8 0.110831 0.826469 0.908161
O O1 0.500000 0.439175 0.114190
O O2 0.686996 0.457244 0.112923
O O3 0.615949 0.341038 0.142599
O O4 0.607427 0.378996 0.045305
O O5 0.218129 0.470334 0.199479
O O6 0.339040 0.379666 0.237456
O O7 0.146685 0.493163 0.893587
O O8 0.160257 0.621871 0.867861
O O9 0.660966 0.750000 0.457977
O O10 0.635297 0.617124 0.445457
O O11 0.803727 0.663019 0.464255
O O12 0.667382 0.665925 0.537649
O O13 0.000000 0.528166 0.051447
O O14 0.152774 0.500000 0.000000
O O15 0.500000 0.825895 0.776292
O O16 0.349011 0.750000 0.787151
O O17 0.107742 0.250000 0.477556
O O18 0.000000 0.335222 0.530384
O O19 0.120143 0.750000 0.886379
O O20 0.000000 0.845008 0.916816
#
# Coordination Sequence:
#
# PCOD8298321 Si02
#       8
#    16   8  16  16  16  16  16  16
#     4   9  16  27  43  62  87 122 164 205 245 285
#     4  10  23  34  46  64  91 134 172 216 258 308
#     4  11  21  35  49  68  98 132 175 216 260 305
#     4  10  19  32  50  76 109 139 168 210 259 311
#     4  11  21  34  54  79 105 136 174 215 261 315
#     4   9  17  28  42  61  86 120 166 214 249 282
#     4   9  15  24  42  68  96 128 165 200 239 290
#     4  10  19  30  47  72 102 138 177 217 261 303
#
# _framework density 16.784689
#
# number of rings (size 3 to 8) (size 9 to 14) (size 15 to 20)
#    0.000    2.133    2.667    1.400    0.000    6.133 
#    0.000    2.000    0.000    2.400    0.000    0.467 
#    0.000    0.000    0.000    0.000    0.000    0.000 
#
# Total GULP energy -743446.738152 kJ/mol
# GULP energy per Si atom -12390.778969 kJ/mol
# Density = 1.674649 g / cm^3
# Si number density = 16.784689 Si / 1000 Ang^3
#
#
#
# Elastic Constant Matrix: (Units=GPa)
#
#
# Indices 1 2 3 4 5 6 
#
# 1 86.5240 22.9925 17.3820 0.0000 0.0000 0.0000
# 2 22.9925 72.6279 37.4355 0.0000 0.0000 0.0000
# 3 17.3820 37.4355 62.6003 0.0000 0.0000 0.0000
# 4 0.0000 0.0000 0.0000 12.9258 0.0000 0.0000
# 5 0.0000 0.0000 0.0000 0.0000 17.5224 0.0000
# 6 0.0000 0.0000 0.0000 0.0000 0.0000 22.0240
#
#
#
# Elastic Compliance Matrix: (Units=1/GPa)
#
#
# Indices 1 2 3 4 5 6 
#
# 1 0.012733 -0.003193 -0.001626 0.000000 0.000000 0.000000
# 2 -0.003193 0.020705 -0.011495 0.000000 0.000000 0.000000
# 3 -0.001626 -0.011495 0.023300 0.000000 0.000000 0.000000
# 4 0.000000 0.000000 0.000000 0.077364 0.000000 0.000000
# 5 0.000000 0.000000 0.000000 0.000000 0.057070 0.000000
# 6 0.000000 0.000000 0.000000 0.000000 0.000000 0.045405
#
#
# Mechanical properties :
#
#
# Convention : Reuss Voigt Hill
#
# Bulk Modulus (GPa) = 41.47750 41.93025 41.70387
# Shear Modulus (GPa) = 18.03490 20.09061 19.06276
#
# Velocity S-wave (km/s) = 3.28149 3.46347 3.37370
# Velocity P-wave (km/s) = 6.25482 6.40544 6.33057
#
# Compressibility (1/GPa) = 0.02410946
#
# Stress axis : x y z
#
# Youngs Moduli (GPa) = 78.53867 48.29860 42.91854
#
# Poissons Ratio (x) = 0.15420 0.06979
# Poissons Ratio (y) = 0.25075 0.49335
# Poissons Ratio (z) = 0.12772 0.55519
#
# Static dielectric constant tensor:
#      x y z
#    x 3.651550 0.000000 0.000000 
#    y 0.000000 2.905820 0.000000 
#    z 0.000000 0.000000 2.791470 
# 
# 
# High freq. dielectric constant tensor:
#      x y z
#    x 1.675220 0.000000 0.000000 
#    y 0.000000 1.608140 0.000000 
#    z 0.000000 0.000000 1.593370 
# 
# From -- ./inp_files/67375.got.cif
#   From: 2010.03.12/outbox.cif.g09.slc.cpg/sg74_34_cif.got.tgz:67375.got - 2010.04.16 15:46:19.
