data_PCOD8298746
_publ_section_title
;
Structure prediction by ZEFSAII (Michael W. Deem and Ramdas Pophale) SiO2 
 PCOD8298746
Probable space group: I M M A
;
_chemical_formula_sum "Si O2"
_cell_formula_units_Z 80
_cell_length_a 14.394673
_cell_length_b 23.917811
_cell_length_c 10.885892
_cell_angle_alpha 90.000000
_cell_angle_beta 90.000000
_cell_angle_gamma 90.000000
_cell_volume 3747.893613
_symmetry_space_group_name_H-M "I M M A"
_symmetry_group_IT_number 74
_symmetry_cell_setting 'orthorhombic'
loop_
_space_group_symop_operation_xyz
x,y,z
-x,1/2-y,z
x,-y,-z
-x,1/2+y,-z
-x,-y,-z
x,1/2+y,-z
-x,y,z
x,1/2-y,z
1/2+x,1/2+y,1/2+z
1/2-x,-y,1/2+z
1/2+x,1/2-y,1/2-z
1/2-x,y,1/2-z
1/2-x,1/2-y,1/2-z
1/2+x,y,1/2-z
1/2-x,1/2+y,1/2+z
1/2+x,-y,1/2+z
loop_
_atom_site_type_symbol
_atom_site_label
_atom_site_fract_x
_atom_site_fract_y
_atom_site_fract_z
Si Si1 0.204113 0.637331 0.471984
Si Si2 0.304888 0.978556 0.126679
Si Si3 0.888300 0.750000 0.491804
Si Si4 0.898157 0.916093 0.684186
Si Si5 0.393651 0.857499 0.577306
Si Si6 0.107439 0.750000 0.767602
O O1 0.169944 0.587131 0.382157
O O2 0.156041 0.694854 0.426952
O O3 0.173847 0.622988 0.611210
O O4 0.317653 0.638706 0.467810
O O5 0.250000 0.991533 0.250000
O O6 0.394178 0.018999 0.142397
O O7 0.253674 0.000000 0.000000
O O8 0.848432 0.750000 0.631412
O O9 0.000000 0.750000 0.476844
O O10 0.883166 0.910425 0.831003
O O11 0.000000 0.892567 0.650721
O O12 0.500000 0.853307 0.525098
O O13 0.363722 0.803714 0.655487
O O14 0.000000 0.750000 0.740519
#
# Coordination Sequence:
#
# PCOD8298746 Si02
#       6
#    16  16   8  16  16   8
#     4  11  21  33  55  80 116 159 192 242 293 351
#     4  10  22  40  61  86 117 155 200 245 297 353
#     4  11  21  33  53  88 121 154 198 246 294 348
#     4  10  19  32  54  84 115 150 193 244 297 350
#     4  10  19  32  52  83 119 156 196 240 295 352
#     4   9  17  29  49  80 118 150 186 235 287 341
#
# _framework density 21.345323
#
# number of rings (size 3 to 8) (size 9 to 14) (size 15 to 20)
#    0.000    1.800    2.000    4.200    0.000    5.200 
#    0.000    1.500    0.000    8.400    0.000    1.400 
#    0.000    0.000    0.000    0.000    0.000    0.000 
#
# Total GULP energy -495552.740376 kJ/mol
# GULP energy per Si atom -12388.818509 kJ/mol
# Density = 2.129674 g / cm^3
# Si number density = 21.345323 Si / 1000 Ang^3
#
#
#
# Elastic Constant Matrix: (Units=GPa)
#
#
# Indices 1 2 3 4 5 6 
#
# 1 116.6491 38.7375 13.0987 0.0000 0.0000 0.0000
# 2 38.7375 161.8124 21.0103 0.0000 0.0000 0.0000
# 3 13.0987 21.0103 50.5043 -0.0003 0.0002 0.0001
# 4 0.0000 0.0000 -0.0003 19.9373 0.0000 0.0000
# 5 0.0000 0.0000 0.0002 0.0000 9.6738 0.0000
# 6 0.0000 0.0000 0.0001 0.0000 0.0000 27.4444
#
#
#
# Elastic Compliance Matrix: (Units=1/GPa)
#
#
# Indices 1 2 3 4 5 6 
#
# 1 0.009433 -0.002051 -0.001593 0.000000 0.000000 0.000000
# 2 -0.002051 0.006979 -0.002371 0.000000 0.000000 0.000000
# 3 -0.001593 -0.002371 0.021200 0.000000 0.000000 0.000000
# 4 0.000000 0.000000 0.000000 0.050157 0.000000 0.000000
# 5 0.000000 0.000000 0.000000 0.000000 0.103372 0.000000
# 6 0.000000 0.000000 0.000000 0.000000 0.000000 0.036437
#
#
# Mechanical properties :
#
#
# Convention : Reuss Voigt Hill
#
# Bulk Modulus (GPa) = 39.09260 52.73986 45.91623
# Shear Modulus (GPa) = 20.15018 28.48573 24.31795
#
# Velocity S-wave (km/s) = 3.07581 3.65707 3.37896
# Velocity P-wave (km/s) = 5.56491 6.52639 6.06473
#
# Compressibility (1/GPa) = 0.02558029
#
# Stress axis : x y z
#
# Youngs Moduli (GPa) = 106.01271 143.28745 47.16991
#
# Poissons Ratio (x) = 0.29393 0.07515
# Poissons Ratio (y) = 0.21747 0.11185
# Poissons Ratio (z) = 0.16889 0.33978
#
# Static dielectric constant tensor:
#      x y z
#    x 3.785250 0.000000 0.000000 
#    y 0.000000 4.012770 0.000000 
#    z 0.000000 0.000000 3.395980 
# 
# 
# High freq. dielectric constant tensor:
#      x y z
#    x 1.826330 0.000000 0.000000 
#    y 0.000000 1.852990 0.000000 
#    z 0.000000 0.000000 1.776240 
# 
# From -- ./inp_files/20532.got.cif
#   From: 2010.03.12/outbox.cif.g09.slc.cpg/sg74_11_cif.got.tgz:20532.got - 2010.04.16 15:46:19.
