data_PCOD8298658
_publ_section_title
;
Structure prediction by ZEFSAII (Michael W. Deem and Ramdas Pophale) SiO2 
 PCOD8298658
Probable space group: I M M A
;
_chemical_formula_sum "Si O2"
_cell_formula_units_Z 88
_cell_length_a 30.659285
_cell_length_b 9.107096
_cell_length_c 18.022412
_cell_angle_alpha 90.000000
_cell_angle_beta 90.000000
_cell_angle_gamma 90.000000
_cell_volume 5032.164745
_symmetry_space_group_name_H-M "I M M A"
_symmetry_group_IT_number 74
_symmetry_cell_setting 'orthorhombic'
loop_
_space_group_symop_operation_xyz
x,y,z
-x,1/2-y,z
x,-y,-z
-x,1/2+y,-z
-x,-y,-z
x,1/2+y,-z
-x,y,z
x,1/2-y,z
1/2+x,1/2+y,1/2+z
1/2-x,-y,1/2+z
1/2+x,1/2-y,1/2-z
1/2-x,y,1/2-z
1/2-x,1/2-y,1/2-z
1/2+x,y,1/2-z
1/2-x,1/2+y,1/2+z
1/2+x,-y,1/2+z
loop_
_atom_site_type_symbol
_atom_site_label
_atom_site_fract_x
_atom_site_fract_y
_atom_site_fract_z
Si Si1 0.166440 0.924760 0.573294
Si Si2 0.703703 0.921871 0.771057
Si Si3 0.909955 0.921182 0.356795
Si Si4 0.000000 0.584282 0.425126
Si Si5 0.950391 0.421706 0.076591
Si Si6 0.113090 0.421934 0.209712
O O1 0.166289 0.750000 0.564141
O O2 0.191719 0.979782 0.646870
O O3 0.187360 0.000000 0.500000
O O4 0.117669 0.985733 0.583640
O O5 0.710497 0.750000 0.777799
O O6 0.750000 0.996957 0.750000
O O7 0.665669 0.954558 0.709622
O O8 0.897037 0.750000 0.361907
O O9 0.959392 0.954675 0.374691
O O10 0.905841 0.978216 0.273776
O O11 0.000000 0.500000 0.500000
O O12 0.000000 0.750000 0.450922
O O13 0.947682 0.250000 0.061747
O O14 0.912889 0.468616 0.135411
O O15 0.000000 0.464089 0.102778
O O16 0.938539 0.500000 0.000000
O O17 0.105248 0.250000 0.227321
#
# Coordination Sequence:
#
# PCOD8298658 Si02
#       6
#    16  16  16   8  16  16
#     4  10  19  32  51  73  96 126 164 201 244 292
#     4   8  15  30  51  72  95 125 161 200 243 293
#     4  10  20  33  48  69  97 127 162 200 239 284
#     4  10  22  34  44  64  93 126 159 192 233 278
#     4   9  18  32  49  71  99 130 165 204 247 295
#     4   9  18  32  51  74  96 126 166 202 243 295
#
# _framework density 17.487503
#
# number of rings (size 3 to 8) (size 9 to 14) (size 15 to 20)
#    0.000    2.727    0.000    2.727    1.273    3.636 
#    0.000    0.909    0.000   13.636    0.000    0.000 
#    0.000    0.000    0.000    0.000    0.000    0.000 
#
# Total GULP energy -545220.017712 kJ/mol
# GULP energy per Si atom -12391.364039 kJ/mol
# Density = 1.744770 g / cm^3
# Si number density = 17.487503 Si / 1000 Ang^3
#
#
#
# Elastic Constant Matrix: (Units=GPa)
#
#
# Indices 1 2 3 4 5 6 
#
# 1 134.1549 31.8499 65.8045 0.0000 0.0000 0.0000
# 2 31.8499 44.9946 30.3433 0.0000 0.0000 0.0000
# 3 65.8045 30.3433 111.4079 0.0000 0.0000 0.0000
# 4 0.0000 0.0000 0.0000 33.2117 0.0000 0.0000
# 5 0.0000 0.0000 0.0000 0.0000 31.8927 0.0000
# 6 0.0000 0.0000 0.0000 0.0000 0.0000 14.9942
#
#
#
# Elastic Compliance Matrix: (Units=1/GPa)
#
#
# Indices 1 2 3 4 5 6 
#
# 1 0.011110 -0.004213 -0.005415 0.000000 0.000000 0.000000
# 2 -0.004213 0.028823 -0.005362 0.000000 0.000000 0.000000
# 3 -0.005415 -0.005362 0.013635 0.000000 0.000000 0.000000
# 4 0.000000 0.000000 0.000000 0.030110 0.000000 0.000000
# 5 0.000000 0.000000 0.000000 0.000000 0.031355 0.000000
# 6 0.000000 0.000000 0.000000 0.000000 0.000000 0.066693
#
#
# Mechanical properties :
#
#
# Convention : Reuss Voigt Hill
#
# Bulk Modulus (GPa) = 42.39339 60.72807 51.56073
# Shear Modulus (GPa) = 22.77196 26.85703 24.81450
#
# Velocity S-wave (km/s) = 3.61249 3.92316 3.77103
# Velocity P-wave (km/s) = 6.45716 7.43798 6.96486
#
# Compressibility (1/GPa) = 0.02358858
#
# Stress axis : x y z
#
# Youngs Moduli (GPa) = 90.00578 34.69461 73.34119
#
# Poissons Ratio (x) = 0.14616 0.39715
# Poissons Ratio (y) = 0.37918 0.39325
# Poissons Ratio (z) = 0.48739 0.18603
#
# Static dielectric constant tensor:
#      x y z
#    x 3.711270 0.000000 0.000000 
#    y 0.000000 3.145440 0.000000 
#    z 0.000000 0.000000 3.225450 
# 
# 
# High freq. dielectric constant tensor:
#      x y z
#    x 1.673040 0.000000 0.000000 
#    y 0.000000 1.664230 0.000000 
#    z 0.000000 0.000000 1.671590 
# 
# From -- ./inp_files/40120.got.cif
#   From: 2010.03.12/outbox.cif.g09.slc.cpg/sg74_21_cif.got.tgz:40120.got - 2010.04.16 15:46:19.
