data_PCOD8298075
_publ_section_title
;
Structure prediction by ZEFSAII (Michael W. Deem and Ramdas Pophale) SiO2 
 PCOD8298075
Probable space group: I M M A
;
_chemical_formula_sum "Si O2"
_cell_formula_units_Z 96
_cell_length_a 14.242439
_cell_length_b 22.111228
_cell_length_c 15.701536
_cell_angle_alpha 90.000000
_cell_angle_beta 90.000000
_cell_angle_gamma 90.000000
_cell_volume 4944.693425
_symmetry_space_group_name_H-M "I M M A"
_symmetry_group_IT_number 74
_symmetry_cell_setting 'orthorhombic'
loop_
_space_group_symop_operation_xyz
x,y,z
-x,1/2-y,z
x,-y,-z
-x,1/2+y,-z
-x,-y,-z
x,1/2+y,-z
-x,y,z
x,1/2-y,z
1/2+x,1/2+y,1/2+z
1/2-x,-y,1/2+z
1/2+x,1/2-y,1/2-z
1/2-x,y,1/2-z
1/2-x,1/2-y,1/2-z
1/2+x,y,1/2-z
1/2-x,1/2+y,1/2+z
1/2+x,-y,1/2+z
loop_
_atom_site_type_symbol
_atom_site_label
_atom_site_fract_x
_atom_site_fract_y
_atom_site_fract_z
Si Si1 0.394585 0.007878 0.596031
Si Si2 0.889183 0.250000 0.573144
Si Si3 0.390580 0.250000 0.736819
Si Si4 0.267908 0.432304 0.158941
Si Si5 0.395152 0.030534 0.909285
Si Si6 0.712674 0.136999 0.988838
Si Si7 0.893645 0.853651 0.108262
O O1 0.500000 0.982535 0.598348
O O2 0.331496 0.965095 0.651547
O O3 0.354423 0.000000 0.500000
O O4 0.390356 0.075847 0.633024
O O5 0.843449 0.250000 0.669039
O O6 0.856953 0.192679 0.519339
O O7 0.000000 0.250000 0.578265
O O8 0.500000 0.250000 0.751996
O O9 0.361777 0.311183 0.686844
O O10 0.250000 0.399971 0.250000
O O11 0.350137 0.483278 0.157626
O O12 0.289616 0.383253 0.086854
O O13 0.500000 0.050116 0.876991
O O14 0.324277 0.086812 0.921354
O O15 0.406263 0.000000 0.000000
O O16 0.819479 0.156715 0.967623
O O17 0.000000 0.836245 0.078373
#
# Coordination Sequence:
#
# PCOD8298075 Si02
#       7
#    16   8   8  16  16  16  16
#     4  10  18  34  58  83 114 155 195 231 288 359
#     4  11  25  43  63  82 113 154 198 244 296 362
#     4   9  21  39  57  90 120 144 186 238 293 345
#     4  11  22  36  55  85 118 152 197 249 294 341
#     4   9  18  35  57  80 112 151 196 244 291 346
#     4  11  21  38  60  84 112 160 201 236 292 356
#     4  10  19  34  59  86 122 157 187 234 290 358
#
# _framework density 19.414753000000001
#
# number of rings (size 3 to 8) (size 9 to 14) (size 15 to 20)
#    0.000    1.833    3.333    1.500    0.000    4.000 
#    0.000    2.083    0.000    0.000    0.000    1.167 
#    0.000    0.000    0.000    0.000    0.000    0.000 
#
# Total GULP energy -594916.713148 kJ/mol
# GULP energy per Si atom -12394.098191 kJ/mol
# Density = 1.937056 g / cm^3
# Si number density = 19.414753 Si / 1000 Ang^3
#
#
#
# Elastic Constant Matrix: (Units=GPa)
#
#
# Indices 1 2 3 4 5 6 
#
# 1 108.8714 27.7559 42.1775 0.0003 0.0000 0.0000
# 2 27.7559 107.9694 56.6920 0.0001 0.0000 -0.0001
# 3 42.1775 56.6920 117.8026 0.0000 -0.0001 -0.0001
# 4 0.0003 0.0001 0.0000 -14.3162 0.0001 -0.0001
# 5 0.0000 0.0000 -0.0001 0.0001 15.5165 0.0000
# 6 0.0000 -0.0001 -0.0001 -0.0001 0.0000 26.0782
#
#
#
# Elastic Compliance Matrix: (Units=1/GPa)
#
#
# Indices 1 2 3 4 5 6 
#
# 1 0.010743 -0.000993 -0.003369 0.000000 0.000000 0.000000
# 2 -0.000993 0.012485 -0.005653 0.000000 0.000000 0.000000
# 3 -0.003369 -0.005653 0.012415 0.000000 0.000000 0.000000
# 4 0.000000 0.000000 0.000000 -0.069851 0.000000 0.000000
# 5 0.000000 0.000000 0.000000 0.000000 0.064448 0.000000
# 6 0.000000 0.000000 0.000000 0.000000 0.000000 0.038346
#
#
# Mechanical properties :
#
#
# Convention : Reuss Voigt Hill
#
# Bulk Modulus (GPa) = 64.04184 65.32159 64.68171
# Shear Modulus (GPa) = 53.29294 19.32357 36.30826
#
# Velocity S-wave (km/s) = 5.24493 3.15827 4.32920
# Velocity P-wave (km/s) = 8.35086 6.85696 7.64051
#
# Compressibility (1/GPa) = 0.01561479
#
# Stress axis : x y z
#
# Youngs Moduli (GPa) = 93.08095 80.09346 80.54556
#
# Poissons Ratio (x) = 0.07954 0.27133
# Poissons Ratio (y) = 0.09243 0.45532
# Poissons Ratio (z) = 0.31355 0.45277
#
# Static dielectric constant tensor:
#      x y z
#    x 3.846540 0.000000 0.000000 
#    y 0.000000 3.534360 0.000000 
#    z 0.000000 0.000000 3.440930 
# 
# 
# High freq. dielectric constant tensor:
#      x y z
#    x 1.778230 0.000000 0.000000 
#    y 0.000000 1.736070 0.000000 
#    z 0.000000 0.000000 1.725920 
# 
# From -- ./inp_files/32469.got.cif
#   From: 2010.03.12/outbox.cif.g09.slc.cpg/sg74_17_cif.got.tgz:32469.got - 2010.04.16 15:46:19.
