data_PCOD8298633
_publ_section_title
;
Structure prediction by ZEFSAII (Michael W. Deem and Ramdas Pophale) SiO2 
 PCOD8298633
Probable space group: I M M A
;
_chemical_formula_sum "Si O2"
_cell_formula_units_Z 128
_cell_length_a 22.403534
_cell_length_b 18.136723
_cell_length_c 17.904237
_cell_angle_alpha 90.000000
_cell_angle_beta 90.000000
_cell_angle_gamma 90.000000
_cell_volume 7274.969364
_symmetry_space_group_name_H-M "I M M A"
_symmetry_group_IT_number 74
_symmetry_cell_setting 'orthorhombic'
loop_
_space_group_symop_operation_xyz
x,y,z
-x,1/2-y,z
x,-y,-z
-x,1/2+y,-z
-x,-y,-z
x,1/2+y,-z
-x,y,z
x,1/2-y,z
1/2+x,1/2+y,1/2+z
1/2-x,-y,1/2+z
1/2+x,1/2-y,1/2-z
1/2-x,y,1/2-z
1/2-x,1/2-y,1/2-z
1/2+x,y,1/2-z
1/2-x,1/2+y,1/2+z
1/2+x,-y,1/2+z
loop_
_atom_site_type_symbol
_atom_site_label
_atom_site_fract_x
_atom_site_fract_y
_atom_site_fract_z
Si Si1 0.070737 0.582778 0.496172
Si Si2 0.068471 0.915615 0.773220
Si Si3 0.124910 0.335800 0.364910
Si Si4 0.930601 0.164219 0.939441
Si Si5 0.071210 0.666956 0.351309
Si Si6 0.877075 0.662826 0.904735
Si Si7 0.429113 0.918041 0.292628
Si Si8 0.756308 0.335447 0.167468
O O1 0.096810 0.500000 0.500000
O O2 0.089325 0.628514 0.567948
O O3 0.096279 0.622022 0.422254
O O4 0.000000 0.580343 0.493346
O O5 0.107875 0.873832 0.712525
O O6 0.073474 0.873769 0.851718
O O7 0.000000 0.916370 0.746488
O O8 0.093176 0.998446 0.783292
O O9 0.107994 0.250000 0.359520
O O10 0.195453 0.347299 0.378666
O O11 0.921726 0.250000 0.920043
O O12 0.905758 0.116788 0.869973
O O13 0.000000 0.147473 0.956207
O O14 0.891271 0.139564 0.010453
O O15 0.095947 0.750000 0.355656
O O16 0.096419 0.629235 0.276470
O O17 0.000000 0.666665 0.351484
O O18 0.883011 0.750000 0.896561
O O19 0.811674 0.632091 0.880273
O O20 0.500000 0.914233 0.292604
O O21 0.770556 0.250000 0.179753
O O22 0.750000 0.372191 0.250000
#
# Coordination Sequence:
#
# PCOD8298633 Si02
#       8
#    16  16  16  16  16  16  16  16
#     4  10  20  33  49  73 108 139 160 197 256 312
#     4  11  21  30  45  72 106 137 159 194 253 312
#     4  11  21  33  53  76 100 132 172 214 250 296
#     4   9  17  30  50  75 102 132 168 210 250 294
#     4   9  16  28  47  68  93 128 169 205 236 285
#     4  10  19  32  50  72  98 131 170 208 248 296
#     4   9  18  31  46  69 100 134 168 199 244 302
#     4   9  17  33  53  71  93 129 172 211 250 291
#
# _framework density 17.594576
#
# number of rings (size 3 to 8) (size 9 to 14) (size 15 to 20)
#    0.000    2.250    1.250    2.625    0.000    6.750 
#    0.000    1.875    2.750    0.000    0.000    0.000 
#    0.000    5.000    0.000    0.000    0.000    0.000 
#
# Total GULP energy -793569.406820 kJ/mol
# GULP energy per Si atom -12399.521982 kJ/mol
# Density = 1.755453 g / cm^3
# Si number density = 17.594576 Si / 1000 Ang^3
#
#
#
# Elastic Constant Matrix: (Units=GPa)
#
#
# Indices 1 2 3 4 5 6 
#
# 1 27.8996 30.1467 7.7378 0.0000 0.0000 0.0000
# 2 30.1467 112.4271 81.7961 0.0000 0.0000 0.0000
# 3 7.7378 81.7961 127.4017 0.0000 0.0000 0.0000
# 4 0.0000 0.0000 0.0000 23.1875 0.0000 0.0000
# 5 0.0000 0.0000 0.0000 0.0000 13.9703 0.0000
# 6 0.0000 0.0000 0.0000 0.0000 0.0000 8.4344
#
#
#
# Elastic Compliance Matrix: (Units=1/GPa)
#
#
# Indices 1 2 3 4 5 6 
#
# 1 0.059355 -0.024945 0.012411 0.000000 0.000000 0.000000
# 2 -0.024945 0.027175 -0.015932 0.000000 0.000000 0.000000
# 3 0.012411 -0.015932 0.017324 0.000000 0.000000 0.000000
# 4 0.000000 0.000000 0.000000 0.043127 0.000000 0.000000
# 5 0.000000 0.000000 0.000000 0.000000 0.071581 0.000000
# 6 0.000000 0.000000 0.000000 0.000000 0.000000 0.118563
#
#
# Mechanical properties :
#
#
# Convention : Reuss Voigt Hill
#
# Bulk Modulus (GPa) = 21.31239 56.34328 38.82784
# Shear Modulus (GPa) = 12.20413 18.98829 15.59621
#
# Velocity S-wave (km/s) = 2.63654 3.28870 2.98051
# Velocity P-wave (km/s) = 4.62686 6.82007 5.82757
#
# Compressibility (1/GPa) = 0.04692107
#
# Stress axis : x y z
#
# Youngs Moduli (GPa) = 16.84783 36.79865 57.72205
#
# Poissons Ratio (x) = 0.91794 -0.71636
# Poissons Ratio (y) = 0.42027 0.91964
# Poissons Ratio (z) = -0.20909 0.58628
#
# Static dielectric constant tensor:
#      x y z
#    x 2.984270 0.000000 0.000000 
#    y 0.000000 3.325010 0.000000 
#    z 0.000000 0.000000 3.443900 
# 
# 
# High freq. dielectric constant tensor:
#      x y z
#    x 1.636420 0.000000 0.000000 
#    y 0.000000 1.676460 0.000000 
#    z 0.000000 0.000000 1.691030 
# 
# From -- ./inp_files/46316.got.cif
#   From: 2010.03.12/outbox.cif.g09.slc.cpg/sg74_24_cif.got.tgz:46316.got - 2010.04.16 15:46:19.
