data_PCOD8298624
_publ_section_title
;
Structure prediction by ZEFSAII (Michael W. Deem and Ramdas Pophale) SiO2 
 PCOD8298624
Probable space group: I M M A
;
_chemical_formula_sum "Si O2"
_cell_formula_units_Z 96
_cell_length_a 8.662573
_cell_length_b 25.400424
_cell_length_c 24.888351
_cell_angle_alpha 90.000000
_cell_angle_beta 90.000000
_cell_angle_gamma 90.000000
_cell_volume 5476.259211
_symmetry_space_group_name_H-M "I M M A"
_symmetry_group_IT_number 74
_symmetry_cell_setting 'orthorhombic'
loop_
_space_group_symop_operation_xyz
x,y,z
-x,1/2-y,z
x,-y,-z
-x,1/2+y,-z
-x,-y,-z
x,1/2+y,-z
-x,y,z
x,1/2-y,z
1/2+x,1/2+y,1/2+z
1/2-x,-y,1/2+z
1/2+x,1/2-y,1/2-z
1/2-x,y,1/2-z
1/2-x,1/2-y,1/2-z
1/2+x,y,1/2-z
1/2-x,1/2+y,1/2+z
1/2+x,-y,1/2+z
loop_
_atom_site_type_symbol
_atom_site_label
_atom_site_fract_x
_atom_site_fract_y
_atom_site_fract_z
Si Si1 0.184730 0.077976 0.012795
Si Si2 0.669056 0.142973 0.698422
Si Si3 0.320738 0.306556 0.492013
Si Si4 0.817515 0.014966 0.581104
Si Si5 0.827746 0.808245 0.396960
Si Si6 0.329606 0.479241 0.696771
O O1 0.240081 0.137287 0.030711
O O2 0.239660 0.063378 0.951953
O O3 0.000000 0.072623 0.014487
O O4 0.263686 0.039670 0.055043
O O5 0.500000 0.168912 0.689779
O O6 0.750000 0.169533 0.750000
O O7 0.777727 0.150063 0.647279
O O8 0.649123 0.081732 0.708729
O O9 0.500000 0.303329 0.480072
O O10 0.246670 0.250000 0.470639
O O11 0.293689 0.310339 0.555224
O O12 0.770684 0.012743 0.643264
O O13 0.000000 0.020849 0.576216
O O14 0.826289 0.750000 0.371103
O O15 0.000000 0.822745 0.417556
O O16 0.500000 0.504802 0.688906
O O17 0.250000 0.505002 0.750000
#
# Coordination Sequence:
#
# PCOD8298624 Si02
#       6
#    16  16  16  16  16  16
#     4  10  19  32  50  71  97 128 161 198 239 283
#     4  10  20  32  46  61  79 107 143 185 229 272
#     4   9  18  32  49  68  90 118 152 189 230 276
#     4  11  21  32  48  71  99 129 161 197 237 282
#     4  10  20  31  43  60  82 110 145 185 228 272
#     4  10  20  34  50  69  92 119 153 190 232 280
#
# _framework density 17.530214999999998
#
# number of rings (size 3 to 8) (size 9 to 14) (size 15 to 20)
#    0.000    2.000    0.000    5.500    0.000    8.667 
#    0.000    0.000    0.000    0.000    0.000    0.000 
#    0.000    0.667    0.000    1.833    0.000    2.667 
#
# Total GULP energy -594666.474170 kJ/mol
# GULP energy per Si atom -12388.884879 kJ/mol
# Density = 1.749032 g / cm^3
# Si number density = 17.530215 Si / 1000 Ang^3
#
#
#
# Elastic Constant Matrix: (Units=GPa)
#
#
# Indices 1 2 3 4 5 6 
#
# 1 82.1701 19.1725 19.6646 0.0000 0.0000 0.0000
# 2 19.1725 86.5224 6.9845 0.0000 0.0000 0.0000
# 3 19.6646 6.9845 62.0914 0.0000 0.0000 0.0000
# 4 0.0000 0.0000 0.0000 16.0423 0.0000 0.0000
# 5 0.0000 0.0000 0.0000 0.0000 27.7226 0.0000
# 6 0.0000 0.0000 0.0000 0.0000 0.0000 11.4627
#
#
#
# Elastic Compliance Matrix: (Units=1/GPa)
#
#
# Indices 1 2 3 4 5 6 
#
# 1 0.013777 -0.002725 -0.004057 0.000000 0.000000 0.000000
# 2 -0.002725 0.012203 -0.000510 0.000000 0.000000 0.000000
# 3 -0.004057 -0.000510 0.017447 0.000000 0.000000 0.000000
# 4 0.000000 0.000000 0.000000 0.062335 0.000000 0.000000
# 5 0.000000 0.000000 0.000000 0.000000 0.036072 0.000000
# 6 0.000000 0.000000 0.000000 0.000000 0.000000 0.087239
#
#
# Mechanical properties :
#
#
# Convention : Reuss Voigt Hill
#
# Bulk Modulus (GPa) = 34.66935 35.82520 35.24728
# Shear Modulus (GPa) = 19.74178 23.37636 21.55907
#
# Velocity S-wave (km/s) = 3.35947 3.65566 3.51069
# Velocity P-wave (km/s) = 5.90490 6.18863 6.04843
#
# Compressibility (1/GPa) = 0.02884392
#
# Stress axis : x y z
#
# Youngs Moduli (GPa) = 72.58717 81.94887 57.31536
#
# Poissons Ratio (x) = 0.22333 0.23250
# Poissons Ratio (y) = 0.19782 0.02920
# Poissons Ratio (z) = 0.29445 0.04176
#
# Static dielectric constant tensor:
#      x y z
#    x 3.520450 0.000000 0.000000 
#    y 0.000000 3.498650 0.000000 
#    z 0.000000 0.000000 2.985320 
# 
# 
# High freq. dielectric constant tensor:
#      x y z
#    x 1.691850 0.000000 0.000000 
#    y 0.000000 1.660630 0.000000 
#    z 0.000000 0.000000 1.640130 
# 
# From -- ./inp_files/55026.got.cif
#   From: 2010.03.12/outbox.cif.g09.slc.cpg/sg74_28_cif.got.tgz:55026.got - 2010.04.16 15:46:19.
