data_PCOD8298525
_publ_section_title
;
Structure prediction by ZEFSAII (Michael W. Deem and Ramdas Pophale) SiO2 
 PCOD8298525
Probable space group: I M M A
;
_chemical_formula_sum "Si O2"
_cell_formula_units_Z 104
_cell_length_a 20.197312
_cell_length_b 9.058676
_cell_length_c 31.973701
_cell_angle_alpha 90.000000
_cell_angle_beta 90.000000
_cell_angle_gamma 90.000000
_cell_volume 5849.937286
_symmetry_space_group_name_H-M "I M M A"
_symmetry_group_IT_number 74
_symmetry_cell_setting 'orthorhombic'
loop_
_space_group_symop_operation_xyz
x,y,z
-x,1/2-y,z
x,-y,-z
-x,1/2+y,-z
-x,-y,-z
x,1/2+y,-z
-x,y,z
x,1/2-y,z
1/2+x,1/2+y,1/2+z
1/2-x,-y,1/2+z
1/2+x,1/2-y,1/2-z
1/2-x,y,1/2-z
1/2-x,1/2-y,1/2-z
1/2+x,y,1/2-z
1/2-x,1/2+y,1/2+z
1/2+x,-y,1/2+z
loop_
_atom_site_type_symbol
_atom_site_label
_atom_site_fract_x
_atom_site_fract_y
_atom_site_fract_z
Si Si1 0.365193 0.918691 0.916049
Si Si2 0.190268 0.425171 0.133017
Si Si3 0.732962 0.916952 0.541675
Si Si4 0.926515 0.425135 0.727202
Si Si5 0.000000 0.920810 0.542992
Si Si6 0.316278 0.424297 0.837077
Si Si7 0.576307 0.080370 0.677863
O O1 0.364309 0.750000 0.898525
O O2 0.312416 0.930914 0.953769
O O3 0.436307 0.968980 0.931344
O O4 0.349176 0.037017 0.880897
O O5 0.197710 0.250000 0.135810
O O6 0.200835 0.478429 0.084911
O O7 0.244753 0.496227 0.164490
O O8 0.118143 0.477225 0.147090
O O9 0.710074 0.750000 0.535129
O O10 0.708515 0.000000 0.500000
O O11 0.928553 0.250000 0.724434
O O12 0.866599 0.485908 0.698539
O O13 0.912240 0.474065 0.774689
O O14 0.000000 0.484639 0.713392
O O15 0.000000 0.750000 0.533113
O O16 0.000000 0.000000 0.500000
O O17 0.305345 0.250000 0.832550
O O18 0.500000 0.061958 0.665091
O O19 0.598795 0.250000 0.672770
#
# Coordination Sequence:
#
# PCOD8298525 Si02
#       7
#    16  16  16  16   8  16  16
#     4   9  19  33  45  65  99 133 164 209 266 307
#     4  10  21  36  52  75 109 137 162 204 257 307
#     4   9  18  32  50  70  95 127 162 203 248 295
#     4   8  16  31  50  74 104 135 171 218 260 291
#     4  10  20  32  46  64  92 130 172 218 266 312
#     4  10  19  31  51  75  99 133 177 217 252 297
#     4   9  18  35  58  80 102 131 168 208 250 299
#
# _framework density 17.777968999999999
#
# number of rings (size 3 to 8) (size 9 to 14) (size 15 to 20)
#    0.000    2.769    0.000    3.231    1.077    4.615 
#    0.000    4.615    0.000    2.308    0.000    0.000 
#    0.000    0.000    0.000    0.000    0.000    0.000 
#
# Total GULP energy -644538.233910 kJ/mol
# GULP energy per Si atom -12394.966037 kJ/mol
# Density = 1.773751 g / cm^3
# Si number density = 17.777969 Si / 1000 Ang^3
#
#
#
# Elastic Constant Matrix: (Units=GPa)
#
#
# Indices 1 2 3 4 5 6 
#
# 1 98.6452 32.3664 53.7848 0.0000 0.0000 0.0000
# 2 32.3664 45.6131 31.0978 0.0000 0.0000 0.0000
# 3 53.7848 31.0978 85.3348 0.0000 0.0000 0.0000
# 4 0.0000 0.0000 0.0000 23.4559 0.0000 0.0000
# 5 0.0000 0.0000 0.0000 0.0000 11.0229 0.0000
# 6 0.0000 0.0000 0.0000 0.0000 0.0000 26.2576
#
#
#
# Elastic Compliance Matrix: (Units=1/GPa)
#
#
# Indices 1 2 3 4 5 6 
#
# 1 0.016669 -0.006208 -0.008244 0.000000 0.000000 0.000000
# 2 -0.006208 0.031483 -0.007561 0.000000 0.000000 0.000000
# 3 -0.008244 -0.007561 0.019670 0.000000 0.000000 0.000000
# 4 0.000000 0.000000 0.000000 0.042633 0.000000 0.000000
# 5 0.000000 0.000000 0.000000 0.000000 0.090720 0.000000
# 6 0.000000 0.000000 0.000000 0.000000 0.000000 0.038084
#
#
# Mechanical properties :
#
#
# Convention : Reuss Voigt Hill
#
# Bulk Modulus (GPa) = 42.02113 51.56566 46.79339
# Shear Modulus (GPa) = 17.16941 19.63689 18.40315
#
# Velocity S-wave (km/s) = 3.11105 3.32710 3.22089
# Velocity P-wave (km/s) = 6.04920 6.62026 6.34116
#
# Compressibility (1/GPa) = 0.02379755
#
# Stress axis : x y z
#
# Youngs Moduli (GPa) = 59.99157 31.76329 50.83944
#
# Poissons Ratio (x) = 0.19717 0.41912
# Poissons Ratio (y) = 0.37240 0.38437
# Poissons Ratio (z) = 0.49457 0.24015
#
# Static dielectric constant tensor:
#      x y z
#    x 3.423770 0.000000 0.000000 
#    y 0.000000 3.142060 0.000000 
#    z 0.000000 0.000000 3.212440 
# 
# 
# High freq. dielectric constant tensor:
#      x y z
#    x 1.685230 0.000000 0.000000 
#    y 0.000000 1.671790 0.000000 
#    z 0.000000 0.000000 1.677810 
# 
# From -- ./inp_files/73346.got.cif
#   From: 2010.03.12/outbox.cif.g09.slc.cpg/sg74_37_cif.got.tgz:73346.got - 2010.04.16 15:46:19.
