data_PCOD8298018
_publ_section_title
;
Structure prediction by ZEFSAII (Michael W. Deem and Ramdas Pophale) SiO2 
 PCOD8298018
Probable space group: I M M A
;
_chemical_formula_sum "Si O2"
_cell_formula_units_Z 60
_cell_length_a 23.326788
_cell_length_b 19.764720
_cell_length_c 6.937270
_cell_angle_alpha 90.000000
_cell_angle_beta 90.000000
_cell_angle_gamma 90.000000
_cell_volume 3198.410528
_symmetry_space_group_name_H-M "I M M A"
_symmetry_group_IT_number 74
_symmetry_cell_setting 'orthorhombic'
loop_
_space_group_symop_operation_xyz
x,y,z
-x,1/2-y,z
x,-y,-z
-x,1/2+y,-z
-x,-y,-z
x,1/2+y,-z
-x,y,z
x,1/2-y,z
1/2+x,1/2+y,1/2+z
1/2-x,-y,1/2+z
1/2+x,1/2-y,1/2-z
1/2-x,y,1/2-z
1/2-x,1/2-y,1/2-z
1/2+x,y,1/2-z
1/2-x,1/2+y,1/2+z
1/2+x,-y,1/2+z
loop_
_atom_site_type_symbol
_atom_site_label
_atom_site_fract_x
_atom_site_fract_y
_atom_site_fract_z
Si Si1 0.875499 0.250000 0.305625
Si Si2 0.378080 0.350351 0.522086
Si Si3 0.000000 0.154591 0.829550
Si Si4 0.316870 0.750000 0.212718
Si Si5 0.000000 0.250000 0.481659
Si Si6 0.903608 0.000000 0.000000
Si Si7 0.000000 0.497795 0.726737
O O1 0.860127 0.182208 0.182759
O O2 0.833555 0.250000 0.488153
O O3 0.942752 0.250000 0.355661
O O4 0.443570 0.325447 0.552674
O O5 0.341412 0.318333 0.693859
O O6 0.366894 0.431900 0.540758
O O7 0.000000 0.184271 0.615747
O O8 0.000000 0.076016 0.809304
O O9 0.250000 0.750000 0.250000
O O10 0.941855 0.972123 0.818318
O O11 0.000000 0.500000 0.500000
#
# Coordination Sequence:
#
# PCOD8298018 Si02
#       7
#     8  16   8   8   4   8   8
#     4  11  22  34  62  85 110 156 189 230 293 354
#     4  10  21  38  57  86 120 149 190 241 292 350
#     4  10  18  33  50  84 121 145 179 238 283 339
#     4  11  24  42  61  80 112 151 201 251 287 333
#     4  12  18  28  56  86 114 142 192 224 282 334
#     4   9  20  34  54  82 122 150 184 237 280 340
#     4   9  19  29  49  77 121 164 181 205 275 357
#
# _framework density 18.759318
#
# number of rings (size 3 to 8) (size 9 to 14) (size 15 to 20)
#    0.000    1.867    2.667    2.400    3.733    2.133 
#    0.000    0.000    5.867    0.000    0.000    0.000 
#    0.000    0.000    0.000    0.000    0.000    0.000 
#
# Total GULP energy -371730.960209 kJ/mol
# GULP energy per Si atom -12391.032007 kJ/mol
# Density = 1.871662 g / cm^3
# Si number density = 18.759318 Si / 1000 Ang^3
#
#
#
# Elastic Constant Matrix: (Units=GPa)
#
#
# Indices 1 2 3 4 5 6 
#
# 1 89.8571 29.7796 34.5811 0.0000 0.0000 0.0000
# 2 29.7796 126.2646 31.0394 0.0000 0.0000 0.0000
# 3 34.5811 31.0394 143.1587 0.0000 0.0000 0.0000
# 4 0.0000 0.0000 0.0000 33.1117 0.0000 0.0000
# 5 0.0000 0.0000 0.0000 0.0000 13.5221 0.0000
# 6 0.0000 0.0000 0.0000 0.0000 0.0000 7.8753
#
#
#
# Elastic Compliance Matrix: (Units=1/GPa)
#
#
# Indices 1 2 3 4 5 6 
#
# 1 0.012928 -0.002410 -0.002600 0.000000 0.000000 0.000000
# 2 -0.002410 0.008815 -0.001329 0.000000 0.000000 0.000000
# 3 -0.002600 -0.001329 0.007902 0.000000 0.000000 0.000000
# 4 0.000000 0.000000 0.000000 0.030201 0.000000 0.000000
# 5 0.000000 0.000000 0.000000 0.000000 0.073953 0.000000
# 6 0.000000 0.000000 0.000000 0.000000 0.000000 0.126979
#
#
# Mechanical properties :
#
#
# Convention : Reuss Voigt Hill
#
# Bulk Modulus (GPa) = 58.94154 61.12005 60.03080
# Shear Modulus (GPa) = 17.91399 28.49384 23.20391
#
# Velocity S-wave (km/s) = 3.09356 3.90156 3.52081
# Velocity P-wave (km/s) = 6.65193 7.27654 6.97124
#
# Compressibility (1/GPa) = 0.01696596
#
# Stress axis : x y z
#
# Youngs Moduli (GPa) = 77.35031 113.44324 126.55694
#
# Poissons Ratio (x) = 0.27338 0.32910
# Poissons Ratio (y) = 0.18640 0.16821
# Poissons Ratio (z) = 0.20114 0.15078
#
# Static dielectric constant tensor:
#      x y z
#    x 5.818670 0.000000 0.000000 
#    y 0.000000 3.643970 0.000000 
#    z 0.000000 0.000000 5.096840 
# 
# 
# High freq. dielectric constant tensor:
#      x y z
#    x 1.685720 0.000000 0.000000 
#    y 0.000000 1.737340 0.000000 
#    z 0.000000 0.000000 1.736250 
# 
# From -- ./inp_files/2962.got.cif
#   From: 2010.03.12/outbox.cif.g09.slc.cpg/sg74_2_cif.got.tgz:2962.got - 2010.04.16 15:46:19.
