data_PCOD8298312
_publ_section_title
;
Structure prediction by ZEFSAII (Michael W. Deem and Ramdas Pophale) SiO2 
 PCOD8298312
Probable space group: I M M A
;
_chemical_formula_sum "Si O2"
_cell_formula_units_Z 128
_cell_length_a 19.946999
_cell_length_b 18.184155
_cell_length_c 20.080213
_cell_angle_alpha 90.000000
_cell_angle_beta 90.000000
_cell_angle_gamma 90.000000
_cell_volume 7283.481237
_symmetry_space_group_name_H-M "I M M A"
_symmetry_group_IT_number 74
_symmetry_cell_setting 'orthorhombic'
loop_
_space_group_symop_operation_xyz
x,y,z
-x,1/2-y,z
x,-y,-z
-x,1/2+y,-z
-x,-y,-z
x,1/2+y,-z
-x,y,z
x,1/2-y,z
1/2+x,1/2+y,1/2+z
1/2-x,-y,1/2+z
1/2+x,1/2-y,1/2-z
1/2-x,y,1/2-z
1/2-x,1/2-y,1/2-z
1/2+x,y,1/2-z
1/2-x,1/2+y,1/2+z
1/2+x,-y,1/2+z
loop_
_atom_site_type_symbol
_atom_site_label
_atom_site_fract_x
_atom_site_fract_y
_atom_site_fract_z
Si Si1 0.850473 0.084930 0.509907
Si Si2 0.300855 0.413867 0.487434
Si Si3 0.922784 0.330735 0.402457
Si Si4 0.164109 0.836658 0.711443
Si Si5 0.330938 0.336352 0.857287
Si Si6 0.196165 0.662771 0.852411
Si Si7 0.677783 0.836194 0.378850
Si Si8 0.576905 0.836978 0.267034
O O1 0.777204 0.107163 0.484453
O O2 0.907170 0.123210 0.467099
O O3 0.860067 0.112233 0.584880
O O4 0.863512 0.000000 0.500000
O O5 0.313129 0.500000 0.500000
O O6 0.329046 0.384133 0.416666
O O7 0.334499 0.372633 0.549419
O O8 0.889472 0.250000 0.410975
O O9 0.896338 0.366658 0.333789
O O10 0.000000 0.323206 0.393678
O O11 0.168633 0.750000 0.718676
O O12 0.152827 0.863408 0.787766
O O13 0.230163 0.862123 0.671634
O O14 0.339979 0.250000 0.874416
O O15 0.251471 0.354157 0.847232
O O16 0.376520 0.360103 0.795050
O O17 0.190733 0.750000 0.869006
O O18 0.670966 0.750000 0.388926
O O19 0.618028 0.865933 0.331411
O O20 0.500000 0.868969 0.263907
O O21 0.571988 0.750000 0.269606
#
# Coordination Sequence:
#
# PCOD8298312 Si02
#       8
#    16  16  16  16  16  16  16  16
#     4  10  20  32  45  66  97 128 160 196 235 277
#     4  10  19  30  47  71 101 125 155 199 242 280
#     4  10  19  31  48  68  95 129 159 191 232 285
#     4   8  15  27  46  71  91 113 153 196 234 274
#     4   9  17  30  50  72  95 126 162 201 240 283
#     4   9  15  27  50  72  91 117 152 198 239 277
#     4   9  17  30  50  73  97 127 158 196 246 292
#     4   9  17  30  50  74  97 121 158 206 245 283
#
# _framework density 17.574013999999998
#
# number of rings (size 3 to 8) (size 9 to 14) (size 15 to 20)
#    0.000    2.750    1.250    1.875    0.000    3.250 
#    0.000    2.500    2.750    1.125    0.000    3.500 
#    0.000    0.000    0.000    0.000    0.000    0.000 
#
# Total GULP energy -792869.063340 kJ/mol
# GULP energy per Si atom -12388.579115 kJ/mol
# Density = 1.753401 g / cm^3
# Si number density = 17.574014 Si / 1000 Ang^3
#
#
#
# Elastic Constant Matrix: (Units=GPa)
#
#
# Indices 1 2 3 4 5 6 
#
# 1 74.0083 20.3473 59.6785 0.0000 0.0000 0.0000
# 2 20.3473 43.1997 47.9253 0.0000 0.0000 0.0000
# 3 59.6785 47.9253 163.7328 0.0000 0.0000 0.0000
# 4 0.0000 0.0000 0.0000 6.9109 0.0000 0.0000
# 5 0.0000 0.0000 0.0000 0.0000 18.9938 0.0000
# 6 0.0000 0.0000 0.0000 0.0000 0.0000 12.8579
#
#
#
# Elastic Compliance Matrix: (Units=1/GPa)
#
#
# Indices 1 2 3 4 5 6 
#
# 1 0.019241 -0.001899 -0.006457 0.000000 0.000000 0.000000
# 2 -0.001899 0.034467 -0.009397 0.000000 0.000000 0.000000
# 3 -0.006457 -0.009397 0.011212 0.000000 0.000000 0.000000
# 4 0.000000 0.000000 0.000000 0.144699 0.000000 0.000000
# 5 0.000000 0.000000 0.000000 0.000000 0.052649 0.000000
# 6 0.000000 0.000000 0.000000 0.000000 0.000000 0.077773
#
#
# Mechanical properties :
#
#
# Convention : Reuss Voigt Hill
#
# Bulk Modulus (GPa) = 33.99724 59.64923 46.82323
# Shear Modulus (GPa) = 12.97520 17.95184 15.46352
#
# Velocity S-wave (km/s) = 2.72015 3.19956 2.96954
# Velocity P-wave (km/s) = 5.40858 6.90398 6.20152
#
# Compressibility (1/GPa) = 0.02941416
#
# Stress axis : x y z
#
# Youngs Moduli (GPa) = 51.97210 29.01310 89.19397
#
# Poissons Ratio (x) = 0.05510 0.57595
# Poissons Ratio (y) = 0.09869 0.83811
# Poissons Ratio (z) = 0.33560 0.27262
#
# Static dielectric constant tensor:
#      x y z
#    x 3.189230 0.000000 0.000000 
#    y 0.000000 2.973210 0.000000 
#    z 0.000000 0.000000 3.511260 
# 
# 
# High freq. dielectric constant tensor:
#      x y z
#    x 1.648600 0.000000 0.000000 
#    y 0.000000 1.647180 0.000000 
#    z 0.000000 0.000000 1.694160 
# 
# From -- ./inp_files/54185.got.cif
#   From: 2010.03.12/outbox.cif.g09.slc.cpg/sg74_28_cif.got.tgz:54185.got - 2010.04.16 15:46:19.
