data_PCOD8298915
_publ_section_title
;
Structure prediction by ZEFSAII (Michael W. Deem and Ramdas Pophale) SiO2 
 PCOD8298915
Probable space group: I M M A
;
_chemical_formula_sum "Si O2"
_cell_formula_units_Z 88
_cell_length_a 8.873130
_cell_length_b 30.415784
_cell_length_c 17.528214
_cell_angle_alpha 90.000000
_cell_angle_beta 90.000000
_cell_angle_gamma 90.000000
_cell_volume 4730.570581
_symmetry_space_group_name_H-M "I M M A"
_symmetry_group_IT_number 74
_symmetry_cell_setting 'orthorhombic'
loop_
_space_group_symop_operation_xyz
x,y,z
-x,1/2-y,z
x,-y,-z
-x,1/2+y,-z
-x,-y,-z
x,1/2+y,-z
-x,y,z
x,1/2-y,z
1/2+x,1/2+y,1/2+z
1/2-x,-y,1/2+z
1/2+x,1/2-y,1/2-z
1/2-x,y,1/2-z
1/2-x,1/2-y,1/2-z
1/2+x,y,1/2-z
1/2-x,1/2+y,1/2+z
1/2+x,-y,1/2+z
loop_
_atom_site_type_symbol
_atom_site_label
_atom_site_fract_x
_atom_site_fract_y
_atom_site_fract_z
Si Si1 0.676852 0.415607 0.176109
Si Si2 0.676599 0.549261 0.988548
Si Si3 0.829766 0.666464 0.884763
Si Si4 0.329355 0.868755 0.445651
Si Si5 0.822056 0.800228 0.331536
Si Si6 0.823816 0.250000 0.332044
O O1 0.500000 0.409979 0.187601
O O2 0.750000 0.440003 0.250000
O O3 0.757062 0.368527 0.172185
O O4 0.715859 0.441587 0.099397
O O5 0.500000 0.553341 0.004964
O O6 0.756238 0.582589 0.048025
O O7 0.736804 0.500000 0.000000
O O8 0.727278 0.708997 0.881626
O O9 0.000000 0.676164 0.857594
O O10 0.825545 0.651255 0.971057
O O11 0.500000 0.873443 0.415233
O O12 0.238935 0.836009 0.390914
O O13 0.780872 0.750000 0.356896
O O14 0.750000 0.810647 0.250000
O O15 0.000000 0.805957 0.324953
O O16 0.750000 0.250000 0.250000
O O17 0.000000 0.250000 0.321454
#
# Coordination Sequence:
#
# PCOD8298915 Si02
#       6
#    16  16  16  16  16   8
#     4  10  19  33  54  78 104 136 175 218 266 320
#     4   9  19  37  59  81 108 144 185 230 280 334
#     4  10  21  36  52  74 104 139 178 218 261 309
#     4  10  21  36  57  83 111 144 181 226 277 332
#     4  10  21  37  58  84 114 150 190 234 283 338
#     4  12  24  36  50  70 101 138 177 218 262 306
#
# _framework density 18.602408
#
# number of rings (size 3 to 8) (size 9 to 14) (size 15 to 20)
#    0.000    2.000    0.000    3.545    1.273    4.364 
#    0.000    0.909    0.000    2.182    0.000    0.000 
#    0.000    0.000    0.000    0.000    0.000    0.000 
#
# Total GULP energy -545551.000151 kJ/mol
# GULP energy per Si atom -12398.886367 kJ/mol
# Density = 1.856007 g / cm^3
# Si number density = 18.602408 Si / 1000 Ang^3
#
#
#
# Elastic Constant Matrix: (Units=GPa)
#
#
# Indices 1 2 3 4 5 6 
#
# 1 125.2512 60.0778 46.8274 0.0000 0.0000 0.0000
# 2 60.0778 137.2707 46.8684 -0.0001 0.0000 0.0000
# 3 46.8274 46.8684 78.9082 -0.0004 -0.0001 -0.0001
# 4 0.0000 -0.0001 -0.0004 19.6649 0.0000 0.0000
# 5 0.0000 0.0000 -0.0001 0.0000 34.7018 -0.0001
# 6 0.0000 0.0000 -0.0001 0.0000 -0.0001 27.2018
#
#
#
# Elastic Compliance Matrix: (Units=1/GPa)
#
#
# Indices 1 2 3 4 5 6 
#
# 1 0.011370 -0.003352 -0.004756 0.000000 0.000000 0.000000
# 2 -0.003352 0.010126 -0.004025 0.000000 0.000000 0.000000
# 3 -0.004756 -0.004025 0.017886 0.000000 0.000000 0.000000
# 4 0.000000 0.000000 0.000000 0.050852 0.000000 0.000000
# 5 0.000000 0.000000 0.000000 0.000000 0.028817 0.000000
# 6 0.000000 0.000000 0.000000 0.000000 0.000000 0.036762
#
#
# Mechanical properties :
#
#
# Convention : Reuss Voigt Hill
#
# Bulk Modulus (GPa) = 66.15918 72.10859 69.13388
# Shear Modulus (GPa) = 27.00941 28.82414 27.91678
#
# Velocity S-wave (km/s) = 3.81456 3.94062 3.87810
# Velocity P-wave (km/s) = 7.41911 7.71698 7.56951
#
# Compressibility (1/GPa) = 0.01511506
#
# Stress axis : x y z
#
# Youngs Moduli (GPa) = 87.94943 98.75187 55.90819
#
# Poissons Ratio (x) = 0.33104 0.26592
# Poissons Ratio (y) = 0.29483 0.22505
# Poissons Ratio (z) = 0.41832 0.39751
#
# Static dielectric constant tensor:
#      x y z
#    x 3.654690 0.000000 0.000000 
#    y 0.000000 3.635170 0.000000 
#    z 0.000000 0.000000 3.383440 
# 
# 
# High freq. dielectric constant tensor:
#      x y z
#    x 1.736870 0.000000 0.000000 
#    y 0.000000 1.714270 0.000000 
#    z 0.000000 0.000000 1.720430 
# 
# From -- ./inp_files/40138.got.cif
#   From: 2010.03.12/outbox.cif.g09.slc.cpg/sg74_21_cif.got.tgz:40138.got - 2010.04.16 15:46:19.
