data_PCOD8298158
_publ_section_title
;
Structure prediction by ZEFSAII (Michael W. Deem and Ramdas Pophale) SiO2 
 PCOD8298158
Probable space group: I M M A
;
_chemical_formula_sum "Si O2"
_cell_formula_units_Z 112
_cell_length_a 9.900029
_cell_length_b 33.113728
_cell_length_c 28.457753
_cell_angle_alpha 90.000000
_cell_angle_beta 90.000000
_cell_angle_gamma 90.000000
_cell_volume 9329.216022
_symmetry_space_group_name_H-M "I M M A"
_symmetry_group_IT_number 74
_symmetry_cell_setting 'orthorhombic'
loop_
_space_group_symop_operation_xyz
x,y,z
-x,1/2-y,z
x,-y,-z
-x,1/2+y,-z
-x,-y,-z
x,1/2+y,-z
-x,y,z
x,1/2-y,z
1/2+x,1/2+y,1/2+z
1/2-x,-y,1/2+z
1/2+x,1/2-y,1/2-z
1/2-x,y,1/2-z
1/2-x,1/2-y,1/2-z
1/2+x,y,1/2-z
1/2-x,1/2+y,1/2+z
1/2+x,-y,1/2+z
loop_
_atom_site_type_symbol
_atom_site_label
_atom_site_fract_x
_atom_site_fract_y
_atom_site_fract_z
Si Si1 0.340200 0.205727 0.338296
Si Si2 0.153190 0.926648 0.884597
Si Si3 0.155951 0.622636 0.978908
Si Si4 0.848344 0.936995 0.478797
Si Si5 0.158210 0.624712 0.792560
Si Si6 0.848556 0.486162 0.425318
Si Si7 0.660220 0.705957 0.556757
O O1 0.500000 0.201757 0.342127
O O2 0.298809 0.250000 0.318008
O O3 0.288411 0.169904 0.304849
O O4 0.279316 0.200851 0.390761
O O5 0.186927 0.903889 0.836660
O O6 0.246746 0.966423 0.887915
O O7 0.000000 0.942220 0.885292
O O8 0.178944 0.896059 0.927408
O O9 0.243969 0.600191 0.018728
O O10 0.000000 0.619428 0.994188
O O11 0.208057 0.669166 0.976513
O O12 0.840962 0.961517 0.526765
O O13 0.000000 0.920286 0.471056
O O14 0.808236 0.967260 0.436217
O O15 0.250000 0.608607 0.750000
O O16 0.000000 0.624182 0.778698
O O17 0.000000 0.484327 0.404589
O O18 0.500000 0.703519 0.560750
O O19 0.704390 0.750000 0.536221
#
# Coordination Sequence:
#
# PCOD8298158 Si02
#       7
#    16  16  16  16  16  16  16
#     4   8  13  23  38  50  60  77 101 130 166 204
#     4   9  16  25  36  49  64  79  99 129 161 189
#     4   9  14  21  35  52  65  79 103 131 156 185
#     4   8  14  23  33  48  68  86  99 116 145 184
#     4  10  19  29  38  50  65  80 102 132 166 204
#     4   8  14  24  36  48  64  84 103 117 140 186
#     4   8  12  19  33  50  64  80 105 134 161 191
#
# _framework density 12.005296
#
# number of rings (size 3 to 8) (size 9 to 14) (size 15 to 20)
#    0.000    3.429    1.429    1.714    0.000    1.429 
#    0.000    2.857    0.000    0.429    0.000    2.000 
#    0.000    0.000    0.000    0.000    0.000    0.000 
#
# Total GULP energy -693819.021614 kJ/mol
# GULP energy per Si atom -12389.625386 kJ/mol
# Density = 1.197797 g / cm^3
# Si number density = 12.005296 Si / 1000 Ang^3
#
#
#
# Elastic Constant Matrix: (Units=GPa)
#
#
# Indices 1 2 3 4 5 6 
#
# 1 52.1339 46.4629 27.7163 0.0000 0.0000 0.0000
# 2 46.4629 81.8467 36.4895 0.0000 0.0000 0.0000
# 3 27.7163 36.4895 29.9149 0.0001 0.0000 0.0000
# 4 0.0000 0.0000 0.0001 15.0881 0.0000 0.0000
# 5 0.0000 0.0000 0.0000 0.0000 14.5496 0.0000
# 6 0.0000 0.0000 0.0000 0.0000 0.0000 11.7956
#
#
#
# Elastic Compliance Matrix: (Units=1/GPa)
#
#
# Indices 1 2 3 4 5 6 
#
# 1 0.045116 -0.015291 -0.023148 0.000000 0.000000 0.000000
# 2 -0.015291 0.031965 -0.024823 0.000000 0.000000 0.000000
# 3 -0.023148 -0.024823 0.085153 0.000000 0.000000 0.000000
# 4 0.000000 0.000000 0.000000 0.066277 0.000000 0.000000
# 5 0.000000 0.000000 0.000000 0.000000 0.068730 0.000000
# 6 0.000000 0.000000 0.000000 0.000000 0.000000 0.084777
#
#
# Mechanical properties :
#
#
# Convention : Reuss Voigt Hill
#
# Bulk Modulus (GPa) = 28.00349 42.80365 35.40357
# Shear Modulus (GPa) = 9.60714 11.83514 10.72114
#
# Velocity S-wave (km/s) = 2.83192 3.14319 2.99161
# Velocity P-wave (km/s) = 5.83692 6.99316 6.44104
#
# Compressibility (1/GPa) = 0.03570984
#
# Stress axis : x y z
#
# Youngs Moduli (GPa) = 22.16528 31.28380 11.74354
#
# Poissons Ratio (x) = 0.47837 0.27184
# Poissons Ratio (y) = 0.33894 0.29151
# Poissons Ratio (z) = 0.51308 0.77656
#
# Static dielectric constant tensor:
#      x y z
#    x 2.408430 0.000000 0.000000 
#    y 0.000000 2.726070 0.000000 
#    z 0.000000 0.000000 2.163190 
# 
# 
# High freq. dielectric constant tensor:
#      x y z
#    x 1.440470 0.000000 0.000000 
#    y 0.000000 1.450280 0.000000 
#    z 0.000000 0.000000 1.400640 
# 
# From -- ./inp_files/59260.got.cif
#   From: 2010.03.12/outbox.cif.g09.slc.cpg/sg74_30_cif.got.tgz:59260.got - 2010.04.16 15:46:19.
