data_PCOD8298405
_publ_section_title
;
Structure prediction by ZEFSAII (Michael W. Deem and Ramdas Pophale) SiO2 
 PCOD8298405
Probable space group: I M M A
;
_chemical_formula_sum "Si O2"
_cell_formula_units_Z 128
_cell_length_a 20.108060
_cell_length_b 19.899297
_cell_length_c 19.792820
_cell_angle_alpha 90.000000
_cell_angle_beta 90.000000
_cell_angle_gamma 90.000000
_cell_volume 7919.824931
_symmetry_space_group_name_H-M "I M M A"
_symmetry_group_IT_number 74
_symmetry_cell_setting 'orthorhombic'
loop_
_space_group_symop_operation_xyz
x,y,z
-x,1/2-y,z
x,-y,-z
-x,1/2+y,-z
-x,-y,-z
x,1/2+y,-z
-x,y,z
x,1/2-y,z
1/2+x,1/2+y,1/2+z
1/2-x,-y,1/2+z
1/2+x,1/2-y,1/2-z
1/2-x,y,1/2-z
1/2-x,1/2-y,1/2-z
1/2+x,y,1/2-z
1/2-x,1/2+y,1/2+z
1/2+x,-y,1/2+z
loop_
_atom_site_type_symbol
_atom_site_label
_atom_site_fract_x
_atom_site_fract_y
_atom_site_fract_z
Si Si1 0.173095 0.612487 0.826075
Si Si2 0.678638 0.446488 0.818223
Si Si3 0.577361 0.435243 0.544135
Si Si4 0.574168 0.410353 0.068781
Si Si5 0.426074 0.429897 0.919992
Si Si6 0.822749 0.105763 0.325040
Si Si7 0.924536 0.672886 0.933084
Si Si8 0.827524 0.954048 0.166600
O O1 0.158372 0.634441 0.748725
O O2 0.249168 0.630542 0.845523
O O3 0.123627 0.654300 0.872075
O O4 0.162164 0.533706 0.836313
O O5 0.626982 0.405972 0.864766
O O6 0.673753 0.526170 0.820330
O O7 0.751960 0.429895 0.847074
O O8 0.659899 0.425039 0.741877
O O9 0.599262 0.500000 0.500000
O O10 0.500000 0.441786 0.565575
O O11 0.591498 0.369833 0.499522
O O12 0.621761 0.424809 0.611209
O O13 0.500000 0.385414 0.086767
O O14 0.578372 0.490098 0.075652
O O15 0.624847 0.370697 0.117907
O O16 0.591638 0.394162 0.990922
O O17 0.500000 0.408492 0.897188
O O18 0.913979 0.750000 0.953063
O O19 0.000000 0.658591 0.908953
#
# Coordination Sequence:
#
# PCOD8298405 Si02
#       8
#    16  16  16  16  16  16  16  16
#     4   9  16  28  43  61  86 115 149 185 221 266
#     4   8  15  25  37  59  89 119 145 177 224 271
#     4  10  19  31  47  69  92 116 153 196 232 273
#     4   8  13  21  32  49  76 109 142 175 211 253
#     4   8  13  21  31  47  75 110 146 175 205 257
#     4   8  15  25  38  59  86 114 149 188 220 258
#     4  10  21  35  48  64  90 122 154 192 237 279
#     4   9  16  27  42  63  91 115 144 185 225 268
#
# _framework density 16.161973
#
# number of rings (size 3 to 8) (size 9 to 14) (size 15 to 20)
#    0.000    3.250    1.250    2.250    0.000    2.000 
#    2.250    3.750    0.000    0.000    0.000    1.750 
#    0.000    0.000    0.000    0.250    0.000    2.000 
#
# Total GULP energy -792981.741256 kJ/mol
# GULP energy per Si atom -12390.339707 kJ/mol
# Density = 1.612519 g / cm^3
# Si number density = 16.161973 Si / 1000 Ang^3
#
#
#
# Elastic Constant Matrix: (Units=GPa)
#
#
# Indices 1 2 3 4 5 6 
#
# 1 126.0971 27.1216 98.4559 0.0000 0.0000 0.0000
# 2 27.1216 38.0379 28.5670 0.0000 0.0000 0.0000
# 3 98.4559 28.5670 121.1399 0.0000 0.0000 0.0000
# 4 0.0000 0.0000 0.0000 11.1321 0.0000 0.0000
# 5 0.0000 0.0000 0.0000 0.0000 41.8674 0.0000
# 6 0.0000 0.0000 0.0000 0.0000 0.0000 9.8718
#
#
#
# Elastic Compliance Matrix: (Units=1/GPa)
#
#
# Indices 1 2 3 4 5 6 
#
# 1 0.021934 -0.002736 -0.017182 0.000000 0.000000 0.000000
# 2 -0.002736 0.032289 -0.005391 0.000000 0.000000 0.000000
# 3 -0.017182 -0.005391 0.023491 0.000000 0.000000 0.000000
# 4 0.000000 0.000000 0.000000 0.089831 0.000000 0.000000
# 5 0.000000 0.000000 0.000000 0.000000 0.023885 0.000000
# 6 0.000000 0.000000 0.000000 0.000000 0.000000 0.101298
#
#
# Mechanical properties :
#
#
# Convention : Reuss Voigt Hill
#
# Bulk Modulus (GPa) = 36.90459 65.95153 51.42806
# Shear Modulus (GPa) = 14.18936 21.31629 17.75282
#
# Velocity S-wave (km/s) = 2.96623 3.63563 3.31786
# Velocity P-wave (km/s) = 5.88346 7.64977 6.82400
#
# Compressibility (1/GPa) = 0.02709690
#
# Stress axis : x y z
#
# Youngs Moduli (GPa) = 45.59069 30.97052 42.57002
#
# Poissons Ratio (x) = 0.08472 0.73143
# Poissons Ratio (y) = 0.12472 0.22949
# Poissons Ratio (z) = 0.78333 0.16696
#
# Static dielectric constant tensor:
#      x y z
#    x 3.348660 0.000000 0.000000 
#    y 0.000000 2.468330 0.000000 
#    z 0.000000 0.000000 3.384820 
# 
# 
# High freq. dielectric constant tensor:
#      x y z
#    x 1.630730 0.000000 0.000000 
#    y 0.000000 1.549120 0.000000 
#    z 0.000000 0.000000 1.626830 
# 
# From -- ./inp_files/45652.got.cif
#   From: 2010.03.12/outbox.cif.g09.slc.cpg/sg74_23_cif.got.tgz:45652.got - 2010.04.16 15:46:19.
