data_PCOD8298135
_publ_section_title
;
Structure prediction by ZEFSAII (Michael W. Deem and Ramdas Pophale) SiO2 
 PCOD8298135
Probable space group: I M M A
;
_chemical_formula_sum "Si O2"
_cell_formula_units_Z 80
_cell_length_a 9.004386
_cell_length_b 17.967939
_cell_length_c 37.062438
_cell_angle_alpha 90.000000
_cell_angle_beta 90.000000
_cell_angle_gamma 90.000000
_cell_volume 5996.341420
_symmetry_space_group_name_H-M "I M M A"
_symmetry_group_IT_number 74
_symmetry_cell_setting 'orthorhombic'
loop_
_space_group_symop_operation_xyz
x,y,z
-x,1/2-y,z
x,-y,-z
-x,1/2+y,-z
-x,-y,-z
x,1/2+y,-z
-x,y,z
x,1/2-y,z
1/2+x,1/2+y,1/2+z
1/2-x,-y,1/2+z
1/2+x,1/2-y,1/2-z
1/2-x,y,1/2-z
1/2-x,1/2-y,1/2-z
1/2+x,y,1/2-z
1/2-x,1/2+y,1/2+z
1/2+x,-y,1/2+z
loop_
_atom_site_type_symbol
_atom_site_label
_atom_site_fract_x
_atom_site_fract_y
_atom_site_fract_z
Si Si1 0.163173 0.950385 0.964575
Si Si2 0.824257 0.405983 0.926197
Si Si3 0.670278 0.664232 0.006254
Si Si4 0.825706 0.836516 0.357878
Si Si5 0.332656 0.661520 0.285196
O O1 0.277035 0.882852 0.971213
O O2 0.000000 0.917120 0.955908
O O3 0.214878 0.006695 0.932901
O O4 0.153167 0.000000 0.000000
O O5 0.746662 0.384234 0.889305
O O6 0.000000 0.393457 0.923564
O O7 0.765145 0.354250 0.958407
O O8 0.500000 0.644659 0.014647
O O9 0.691541 0.750000 0.996203
O O10 0.789761 0.750000 0.364666
O O11 0.755875 0.864827 0.320478
O O12 0.000000 0.851275 0.356627
O O13 0.500000 0.629888 0.286534
O O14 0.335138 0.750000 0.283168
O O15 0.250000 0.628909 0.250000
#
# Coordination Sequence:
#
# PCOD8298135 Si02
#       5
#    16  16  16  16  16
#     4   8  16  29  41  53  69  91 119 148 180 220
#     4  10  19  29  40  54  72  94 121 152 186 222
#     4  10  19  28  39  56  74  92 118 151 185 221
#     4  10  19  28  38  54  74  95 122 154 186 220
#     4   9  16  26  39  53  70  93 120 150 183 216
#
# _framework density 13.341468000000001
#
# number of rings (size 3 to 8) (size 9 to 14) (size 15 to 20)
#    0.000    2.600    0.000    4.200    0.000   12.000 
#    0.000    0.000    0.000    0.000    0.000    0.000 
#    0.000    0.000    0.000    0.000    0.000    1.000 
#
# Total GULP energy -495878.254133 kJ/mol
# GULP energy per Si atom -12396.956353 kJ/mol
# Density = 1.331110 g / cm^3
# Si number density = 13.341468 Si / 1000 Ang^3
#
#
#
# Elastic Constant Matrix: (Units=GPa)
#
#
# Indices 1 2 3 4 5 6 
#
# 1 97.4140 39.0126 54.3639 0.0000 0.0000 0.0000
# 2 39.0126 51.0836 39.3748 0.0000 0.0000 0.0000
# 3 54.3639 39.3748 99.1651 0.0000 0.0000 0.0000
# 4 0.0000 0.0000 0.0000 15.3357 0.0000 0.0000
# 5 0.0000 0.0000 0.0000 0.0000 25.9847 0.0000
# 6 0.0000 0.0000 0.0000 0.0000 0.0000 18.3618
#
#
#
# Elastic Compliance Matrix: (Units=1/GPa)
#
#
# Indices 1 2 3 4 5 6 
#
# 1 0.016937 -0.008326 -0.005979 0.000000 0.000000 0.000000
# 2 -0.008326 0.032302 -0.008262 0.000000 0.000000 0.000000
# 3 -0.005979 -0.008262 0.016642 0.000000 0.000000 0.000000
# 4 0.000000 0.000000 0.000000 0.065207 0.000000 0.000000
# 5 0.000000 0.000000 0.000000 0.000000 0.038484 0.000000
# 6 0.000000 0.000000 0.000000 0.000000 0.000000 0.054461
#
#
# Mechanical properties :
#
#
# Convention : Reuss Voigt Hill
#
# Bulk Modulus (GPa) = 48.19717 57.01837 52.60777
# Shear Modulus (GPa) = 18.11054 19.59721 18.85387
#
# Velocity S-wave (km/s) = 3.68837 3.83677 3.76330
# Velocity P-wave (km/s) = 7.37177 7.90305 7.64203
#
# Compressibility (1/GPa) = 0.02074810
#
# Stress axis : x y z
#
# Youngs Moduli (GPa) = 59.04390 30.95763 60.08777
#
# Poissons Ratio (x) = 0.25775 0.35926
# Poissons Ratio (y) = 0.49160 0.49642
# Poissons Ratio (z) = 0.35302 0.25576
#
# Static dielectric constant tensor:
#      x y z
#    x 2.867020 0.000000 0.000000 
#    y 0.000000 2.563830 0.000000 
#    z 0.000000 0.000000 2.675690 
# 
# 
# High freq. dielectric constant tensor:
#      x y z
#    x 1.528770 0.000000 0.000000 
#    y 0.000000 1.465120 0.000000 
#    z 0.000000 0.000000 1.489290 
# 
# From -- ./inp_files/70120.got.cif
#   From: 2010.03.12/outbox.cif.g09.slc.cpg/sg74_36_cif.got.tgz:70120.got - 2010.04.16 15:46:19.
