data_PCOD8298940
_publ_section_title
;
Structure prediction by ZEFSAII (Michael W. Deem and Ramdas Pophale) SiO2 
 PCOD8298940
Probable space group: I M M A
;
_chemical_formula_sum "Si O2"
_cell_formula_units_Z 72
_cell_length_a 10.688158
_cell_length_b 14.913675
_cell_length_c 24.413722
_cell_angle_alpha 90.000000
_cell_angle_beta 90.000000
_cell_angle_gamma 90.000000
_cell_volume 3891.540323
_symmetry_space_group_name_H-M "I M M A"
_symmetry_group_IT_number 74
_symmetry_cell_setting 'orthorhombic'
loop_
_space_group_symop_operation_xyz
x,y,z
-x,1/2-y,z
x,-y,-z
-x,1/2+y,-z
-x,-y,-z
x,1/2+y,-z
-x,y,z
x,1/2-y,z
1/2+x,1/2+y,1/2+z
1/2-x,-y,1/2+z
1/2+x,1/2-y,1/2-z
1/2-x,y,1/2-z
1/2-x,1/2-y,1/2-z
1/2+x,y,1/2-z
1/2-x,1/2+y,1/2+z
1/2+x,-y,1/2+z
loop_
_atom_site_type_symbol
_atom_site_label
_atom_site_fract_x
_atom_site_fract_y
_atom_site_fract_z
Si Si1 0.250000 0.552793 0.250000
Si Si2 0.000000 0.355753 0.717494
Si Si3 0.000000 0.144880 0.595863
Si Si4 0.852616 0.650442 0.942896
Si Si5 0.145170 0.497186 0.141103
Si Si6 0.768507 0.644369 0.062135
O O1 0.374511 0.612926 0.247800
O O2 0.230526 0.492660 0.195701
O O3 0.000000 0.250000 0.717624
O O4 0.000000 0.397720 0.656499
O O5 0.877000 0.115499 0.563006
O O6 0.000000 0.250000 0.604198
O O7 0.795110 0.750000 0.933184
O O8 0.800815 0.581970 0.897565
O O9 0.000000 0.654535 0.938325
O O10 0.818588 0.614798 0.003115
O O11 0.157998 0.592136 0.109809
O O12 0.000000 0.481999 0.156174
O O13 0.789287 0.750000 0.073051
#
# Coordination Sequence:
#
# PCOD8298940 Si02
#       6
#     8   8   8  16  16  16
#     4  12  23  38  55  82 112 150 192 232 270 322
#     4  11  22  38  55  79 116 156 191 224 265 326
#     4   9  18  32  50  74 112 147 175 208 261 330
#     4   9  19  37  59  80 104 137 182 232 280 325
#     4  11  22  36  55  80 109 144 183 230 275 324
#     4  10  19  33  54  82 112 143 175 217 271 336
#
# _framework density 18.501671000000002
#
# number of rings (size 3 to 8) (size 9 to 14) (size 15 to 20)
#    0.000    1.778    3.333    1.667    0.000    4.000 
#    0.000    3.889    0.000    0.000    0.000    0.000 
#    0.000    0.000    0.000    0.000    0.000    0.000 
#
# Total GULP energy -446359.319803 kJ/mol
# GULP energy per Si atom -12398.869995 kJ/mol
# Density = 1.845956 g / cm^3
# Si number density = 18.501671 Si / 1000 Ang^3
#
#
#
# Elastic Constant Matrix: (Units=GPa)
#
#
# Indices 1 2 3 4 5 6 
#
# 1 64.0052 16.8337 22.2059 0.0000 0.0000 0.0000
# 2 16.8337 65.8387 54.7612 0.0000 0.0000 0.0000
# 3 22.2059 54.7612 140.9336 0.0000 0.0000 0.0000
# 4 0.0000 0.0000 0.0000 28.2019 0.0000 0.0000
# 5 0.0000 0.0000 0.0000 0.0000 35.0820 0.0000
# 6 0.0000 0.0000 0.0000 0.0000 0.0000 15.0403
#
#
#
# Elastic Compliance Matrix: (Units=1/GPa)
#
#
# Indices 1 2 3 4 5 6 
#
# 1 0.016950 -0.003121 -0.001458 0.000000 0.000000 0.000000
# 2 -0.003121 0.023016 -0.008451 0.000000 0.000000 0.000000
# 3 -0.001458 -0.008451 0.010609 0.000000 0.000000 0.000000
# 4 0.000000 0.000000 0.000000 0.035459 0.000000 0.000000
# 5 0.000000 0.000000 0.000000 0.000000 0.028505 0.000000
# 6 0.000000 0.000000 0.000000 0.000000 0.000000 0.066488
#
#
# Mechanical properties :
#
#
# Convention : Reuss Voigt Hill
#
# Bulk Modulus (GPa) = 40.79211 50.93101 45.86156
# Shear Modulus (GPa) = 23.22779 27.46330 25.34554
#
# Velocity S-wave (km/s) = 3.54707 3.85693 3.70524
# Velocity P-wave (km/s) = 6.23468 6.88637 6.56861
#
# Compressibility (1/GPa) = 0.02451455
#
# Stress axis : x y z
#
# Youngs Moduli (GPa) = 58.99546 43.44789 94.25845
#
# Poissons Ratio (x) = 0.13561 0.13743
# Poissons Ratio (y) = 0.18414 0.79661
# Poissons Ratio (z) = 0.08601 0.36719
#
# Static dielectric constant tensor:
#      x y z
#    x 3.480500 0.000000 0.000000 
#    y 0.000000 3.448560 0.000000 
#    z 0.000000 0.000000 3.519690 
# 
# 
# High freq. dielectric constant tensor:
#      x y z
#    x 1.714240 0.000000 0.000000 
#    y 0.000000 1.694520 0.000000 
#    z 0.000000 0.000000 1.720940 
# 
# From -- ./inp_files/58431.got.cif
#   From: 2010.03.12/outbox.cif.g09.slc.cpg/sg74_30_cif.got.tgz:58431.got - 2010.04.16 15:46:19.
