data_PCOD8298875
_publ_section_title
;
Structure prediction by ZEFSAII (Michael W. Deem and Ramdas Pophale) SiO2 
 PCOD8298875
Probable space group: I M M A
;
_chemical_formula_sum "Si O2"
_cell_formula_units_Z 88
_cell_length_a 19.309335
_cell_length_b 8.659716
_cell_length_c 27.899785
_cell_angle_alpha 90.000000
_cell_angle_beta 90.000000
_cell_angle_gamma 90.000000
_cell_volume 4665.216716
_symmetry_space_group_name_H-M "I M M A"
_symmetry_group_IT_number 74
_symmetry_cell_setting 'orthorhombic'
loop_
_space_group_symop_operation_xyz
x,y,z
-x,1/2-y,z
x,-y,-z
-x,1/2+y,-z
-x,-y,-z
x,1/2+y,-z
-x,y,z
x,1/2-y,z
1/2+x,1/2+y,1/2+z
1/2-x,-y,1/2+z
1/2+x,1/2-y,1/2-z
1/2-x,y,1/2-z
1/2-x,1/2-y,1/2-z
1/2+x,y,1/2-z
1/2-x,1/2+y,1/2+z
1/2+x,-y,1/2+z
loop_
_atom_site_type_symbol
_atom_site_label
_atom_site_fract_x
_atom_site_fract_y
_atom_site_fract_z
Si Si1 0.226406 0.066610 0.549246
Si Si2 0.172808 0.571829 0.182259
Si Si3 0.000000 0.931349 0.051823
Si Si4 0.578208 0.566158 0.229339
Si Si5 0.638379 0.929123 0.585541
Si Si6 0.822202 0.572671 0.348944
O O1 0.223583 0.250000 0.547855
O O2 0.188693 0.999524 0.597646
O O3 0.192559 0.000000 0.500000
O O4 0.305741 0.011259 0.551320
O O5 0.153882 0.750000 0.169142
O O6 0.129290 0.514329 0.227985
O O7 0.154966 0.452224 0.140891
O O8 0.256177 0.557556 0.187100
O O9 0.000000 0.750000 0.049007
O O10 0.934192 0.989352 0.079957
O O11 0.000000 0.000000 0.000000
O O12 0.500000 0.499807 0.235592
O O13 0.575955 0.750000 0.227750
O O14 0.611905 0.501327 0.179621
O O15 0.635255 0.750000 0.571861
O O16 0.837693 0.750000 0.359005
#
# Coordination Sequence:
#
# PCOD8298875 Si02
#       6
#    16  16   8  16  16  16
#     4  10  19  33  53  75  98 128 165 210 257 305
#     4   9  17  30  49  73 100 134 170 211 255 299
#     4  12  24  38  52  68  96 134 174 212 255 302
#     4   9  16  26  46  76 103 130 170 218 259 300
#     4  11  22  35  50  72 101 133 169 210 252 301
#     4   8  15  28  46  70 101 133 167 209 260 306
#
# _framework density 18.863005000000001
#
# number of rings (size 3 to 8) (size 9 to 14) (size 15 to 20)
#    0.000    2.364    0.000    5.182    1.273    2.182 
#    0.000    0.000    0.000   10.364    0.000    0.000 
#    0.000    0.000    0.000    0.000    0.000    0.727 
#
# Total GULP energy -545176.712247 kJ/mol
# GULP energy per Si atom -12390.379824 kJ/mol
# Density = 1.882007 g / cm^3
# Si number density = 18.863005 Si / 1000 Ang^3
#
#
#
# Elastic Constant Matrix: (Units=GPa)
#
#
# Indices 1 2 3 4 5 6 
#
# 1 76.3898 11.1492 50.9056 0.0000 0.0000 0.0000
# 2 11.1492 62.8845 17.2842 0.0000 0.0000 0.0000
# 3 50.9056 17.2842 124.0509 0.0000 0.0000 0.0000
# 4 0.0000 0.0000 0.0000 23.0091 0.0000 0.0000
# 5 0.0000 0.0000 0.0000 0.0000 18.6762 0.0000
# 6 0.0000 0.0000 0.0000 0.0000 0.0000 8.9848
#
#
#
# Elastic Compliance Matrix: (Units=1/GPa)
#
#
# Indices 1 2 3 4 5 6 
#
# 1 0.018107 -0.001215 -0.007261 0.000000 0.000000 0.000000
# 2 -0.001215 0.016617 -0.001817 0.000000 0.000000 0.000000
# 3 -0.007261 -0.001817 0.011294 0.000000 0.000000 0.000000
# 4 0.000000 0.000000 0.000000 0.043461 0.000000 0.000000
# 5 0.000000 0.000000 0.000000 0.000000 0.053544 0.000000
# 6 0.000000 0.000000 0.000000 0.000000 0.000000 0.111300
#
#
# Mechanical properties :
#
#
# Convention : Reuss Voigt Hill
#
# Bulk Modulus (GPa) = 39.31942 46.88925 43.10433
# Shear Modulus (GPa) = 17.64384 22.39976 20.02180
#
# Velocity S-wave (km/s) = 3.06170 3.44975 3.26150
# Velocity P-wave (km/s) = 5.77829 6.38588 6.08966
#
# Compressibility (1/GPa) = 0.02543272
#
# Stress axis : x y z
#
# Youngs Moduli (GPa) = 55.22806 60.17976 88.54245
#
# Poissons Ratio (x) = 0.07309 0.64291
# Poissons Ratio (y) = 0.06708 0.16087
# Poissons Ratio (z) = 0.40102 0.10934
#
# Static dielectric constant tensor:
#      x y z
#    x 3.503410 0.000000 0.000000 
#    y 0.000000 3.096720 0.000000 
#    z 0.000000 0.000000 3.754670 
# 
# 
# High freq. dielectric constant tensor:
#      x y z
#    x 1.713240 0.000000 0.000000 
#    y 0.000000 1.695630 0.000000 
#    z 0.000000 0.000000 1.742500 
# 
# From -- ./inp_files/70213.got.cif
#   From: 2010.03.12/outbox.cif.g09.slc.cpg/sg74_36_cif.got.tgz:70213.got - 2010.04.16 15:46:19.
