data_PCOD8298159
_publ_section_title
;
Structure prediction by ZEFSAII (Michael W. Deem and Ramdas Pophale) SiO2 
 PCOD8298159
Probable space group: I M M A
;
_chemical_formula_sum "Si O2"
_cell_formula_units_Z 96
_cell_length_a 8.909944
_cell_length_b 30.669726
_cell_length_c 27.638638
_cell_angle_alpha 90.000000
_cell_angle_beta 90.000000
_cell_angle_gamma 90.000000
_cell_volume 7552.687370
_symmetry_space_group_name_H-M "I M M A"
_symmetry_group_IT_number 74
_symmetry_cell_setting 'orthorhombic'
loop_
_space_group_symop_operation_xyz
x,y,z
-x,1/2-y,z
x,-y,-z
-x,1/2+y,-z
-x,-y,-z
x,1/2+y,-z
-x,y,z
x,1/2-y,z
1/2+x,1/2+y,1/2+z
1/2-x,-y,1/2+z
1/2+x,1/2-y,1/2-z
1/2-x,y,1/2-z
1/2-x,1/2-y,1/2-z
1/2+x,y,1/2-z
1/2-x,1/2+y,1/2+z
1/2+x,-y,1/2+z
loop_
_atom_site_type_symbol
_atom_site_label
_atom_site_fract_x
_atom_site_fract_y
_atom_site_fract_z
Si Si1 0.178968 0.453203 0.300987
Si Si2 0.165470 0.994769 0.390995
Si Si3 0.321621 0.374036 0.356885
Si Si4 0.825607 0.699330 0.699353
Si Si5 0.832719 0.913715 0.555401
Si Si6 0.832484 0.954164 0.027412
O O1 0.250000 0.465882 0.250000
O O2 0.221851 0.493096 0.337072
O O3 0.249929 0.408398 0.319747
O O4 0.000000 0.447115 0.297843
O O5 0.272145 0.960144 0.417807
O O6 0.000000 0.973895 0.388978
O O7 0.159858 0.039164 0.420840
O O8 0.500000 0.376268 0.353243
O O9 0.260310 0.326563 0.342714
O O10 0.271589 0.382698 0.412056
O O11 0.804742 0.750000 0.687445
O O12 0.750000 0.686841 0.750000
O O13 0.000000 0.686057 0.701413
O O14 0.764634 0.918391 0.501571
O O15 0.000000 0.893735 0.551694
O O16 0.000000 0.935911 0.031004
O O17 0.828125 0.000000 0.000000
#
# Coordination Sequence:
#
# PCOD8298159 Si02
#       6
#    16  16  16  16  16  16
#     4  10  19  29  39  51  68  89 114 141 171 205
#     4   8  15  25  35  47  64  87 110 133 162 196
#     4  11  20  29  41  55  71  87 107 136 170 207
#     4  10  20  33  46  57  69  86 109 136 168 207
#     4   9  16  26  38  51  68  87 107 130 160 198
#     4   9  15  22  34  51  68  85 106 131 159 193
#
# _framework density 12.710708
#
# number of rings (size 3 to 8) (size 9 to 14) (size 15 to 20)
#    0.000    2.500    0.000    5.000    0.000    7.667 
#    0.000    0.000    0.000    0.000    0.000    0.000 
#    0.000    0.000    0.000    0.000    0.000    0.000 
#
# Total GULP energy -595054.199263 kJ/mol
# GULP energy per Si atom -12396.962485 kJ/mol
# Density = 1.268178 g / cm^3
# Si number density = 12.710708 Si / 1000 Ang^3
#
#
#
# Elastic Constant Matrix: (Units=GPa)
#
#
# Indices 1 2 3 4 5 6 
#
# 1 108.7334 28.5752 49.7530 0.0000 0.0000 0.0000
# 2 28.5752 30.1030 35.3694 0.0000 0.0000 0.0000
# 3 49.7530 35.3694 82.1682 0.0000 0.0000 0.0000
# 4 0.0000 0.0000 0.0000 15.8529 0.0000 0.0000
# 5 0.0000 0.0000 0.0000 0.0000 23.1619 0.0000
# 6 0.0000 0.0000 0.0000 0.0000 0.0000 14.6951
#
#
#
# Elastic Compliance Matrix: (Units=1/GPa)
#
#
# Indices 1 2 3 4 5 6 
#
# 1 0.013304 -0.006402 -0.005300 0.000000 0.000000 0.000000
# 2 -0.006402 0.070293 -0.026381 0.000000 0.000000 0.000000
# 3 -0.005300 -0.026381 0.026735 0.000000 0.000000 0.000000
# 4 0.000000 0.000000 0.000000 0.063080 0.000000 0.000000
# 5 0.000000 0.000000 0.000000 0.000000 0.043174 0.000000
# 6 0.000000 0.000000 0.000000 0.000000 0.000000 0.068050
#
#
# Mechanical properties :
#
#
# Convention : Reuss Voigt Hill
#
# Bulk Modulus (GPa) = 29.26888 49.82221 39.54555
# Shear Modulus (GPa) = 13.43393 17.89578 15.66485
#
# Velocity S-wave (km/s) = 3.25452 3.75631 3.51438
# Velocity P-wave (km/s) = 6.09914 7.62203 6.90271
#
# Compressibility (1/GPa) = 0.03416598
#
# Stress axis : x y z
#
# Youngs Moduli (GPa) = 75.16310 14.22619 37.40367
#
# Poissons Ratio (x) = 0.09107 0.19825
# Poissons Ratio (y) = 0.48117 0.98676
# Poissons Ratio (z) = 0.39838 0.37531
#
# Static dielectric constant tensor:
#      x y z
#    x 2.792290 0.000000 0.000000 
#    y 0.000000 2.219630 0.000000 
#    z 0.000000 0.000000 2.675990 
# 
# 
# High freq. dielectric constant tensor:
#      x y z
#    x 1.504400 0.000000 0.000000 
#    y 0.000000 1.421290 0.000000 
#    z 0.000000 0.000000 1.472090 
# 
# From -- ./inp_files/64917.got.cif
#   From: 2010.03.12/outbox.cif.g09.slc.cpg/sg74_33_cif.got.tgz:64917.got - 2010.04.16 15:46:19.
