data_PCOD8298629
_publ_section_title
;
Structure prediction by ZEFSAII (Michael W. Deem and Ramdas Pophale) SiO2 
 PCOD8298629
Probable space group: I M M A
;
_chemical_formula_sum "Si O2"
_cell_formula_units_Z 104
_cell_length_a 25.709376
_cell_length_b 9.280132
_cell_length_c 21.422931
_cell_angle_alpha 90.000000
_cell_angle_beta 90.000000
_cell_angle_gamma 90.000000
_cell_volume 5111.220047
_symmetry_space_group_name_H-M "I M M A"
_symmetry_group_IT_number 74
_symmetry_cell_setting 'orthorhombic'
loop_
_space_group_symop_operation_xyz
x,y,z
-x,1/2-y,z
x,-y,-z
-x,1/2+y,-z
-x,-y,-z
x,1/2+y,-z
-x,y,z
x,1/2-y,z
1/2+x,1/2+y,1/2+z
1/2-x,-y,1/2+z
1/2+x,1/2-y,1/2-z
1/2-x,y,1/2-z
1/2-x,1/2-y,1/2-z
1/2+x,y,1/2-z
1/2-x,1/2+y,1/2+z
1/2+x,-y,1/2+z
loop_
_atom_site_type_symbol
_atom_site_label
_atom_site_fract_x
_atom_site_fract_y
_atom_site_fract_z
Si Si1 0.111314 0.080760 0.383376
Si Si2 0.121967 0.088104 0.940846
Si Si3 0.644890 0.582668 0.745885
Si Si4 0.000000 0.583001 0.564758
Si Si5 0.441375 0.585007 0.647382
Si Si6 0.787123 0.911073 0.159112
Si Si7 0.202969 0.922505 0.438674
O O1 0.122062 0.250000 0.394847
O O2 0.129163 0.032164 0.314660
O O3 0.050700 0.043549 0.394111
O O4 0.144802 0.984679 0.431066
O O5 0.107905 0.250000 0.960823
O O6 0.167052 0.084287 0.890554
O O7 0.070637 0.013156 0.912609
O O8 0.142094 0.000000 0.000000
O O9 0.657764 0.750000 0.743444
O O10 0.595189 0.541089 0.704586
O O11 0.696975 0.504050 0.719998
O O12 0.000000 0.500000 0.500000
O O13 0.000000 0.750000 0.547330
O O14 0.500000 0.557720 0.669628
O O15 0.432055 0.750000 0.627732
O O16 0.777402 0.750000 0.183470
O O17 0.736018 0.968717 0.122832
O O18 0.203291 0.750000 0.447832
O O19 0.227095 0.000000 0.500000
#
# Coordination Sequence:
#
# PCOD8298629 Si02
#       7
#    16  16  16   8  16  16  16
#     4  10  22  39  60  88 118 152 190 235 287 340
#     4  10  19  32  50  72 101 137 180 227 277 333
#     4   9  19  35  57  84 112 145 188 232 278 333
#     4  10  22  40  62  86 118 154 191 236 287 340
#     4   9  18  32  51  74 101 136 179 228 277 330
#     4   9  20  37  56  80 112 149 185 228 283 335
#     4  11  23  39  60  86 116 151 191 236 285 340
#
# _framework density 20.347391999999999
#
# number of rings (size 3 to 8) (size 9 to 14) (size 15 to 20)
#    0.000    2.308    0.000    1.846    1.077    5.538 
#    0.000    3.077    0.000    0.000    0.000    0.000 
#    0.000    0.000    0.000    0.000    0.000    0.000 
#
# Total GULP energy -644772.168873 kJ/mol
# GULP energy per Si atom -12399.464786 kJ/mol
# Density = 2.030108 g / cm^3
# Si number density = 20.347392 Si / 1000 Ang^3
#
#
#
# Elastic Constant Matrix: (Units=GPa)
#
#
# Indices 1 2 3 4 5 6 
#
# 1 109.8163 39.8815 35.6692 0.0000 0.0000 0.0000
# 2 39.8815 84.4395 47.5911 0.0000 0.0000 0.0000
# 3 35.6692 47.5911 104.9834 0.0000 0.0000 0.0000
# 4 0.0000 0.0000 0.0000 31.2223 0.0000 0.0000
# 5 0.0000 0.0000 0.0000 0.0000 24.2899 0.0000
# 6 0.0000 0.0000 0.0000 0.0000 0.0000 28.0076
#
#
#
# Elastic Compliance Matrix: (Units=1/GPa)
#
#
# Indices 1 2 3 4 5 6 
#
# 1 0.011267 -0.004250 -0.001902 0.000000 0.000000 0.000000
# 2 -0.004250 0.017510 -0.006494 0.000000 0.000000 0.000000
# 3 -0.001902 -0.006494 0.013115 0.000000 0.000000 0.000000
# 4 0.000000 0.000000 0.000000 0.032028 0.000000 0.000000
# 5 0.000000 0.000000 0.000000 0.000000 0.041169 0.000000
# 6 0.000000 0.000000 0.000000 0.000000 0.000000 0.035705
#
#
# Mechanical properties :
#
#
# Convention : Reuss Voigt Hill
#
# Bulk Modulus (GPa) = 60.23367 60.61364 60.42366
# Shear Modulus (GPa) = 27.53018 28.44378 27.98698
#
# Velocity S-wave (km/s) = 3.68232 3.74292 3.71274
# Velocity P-wave (km/s) = 6.90986 6.96658 6.93828
#
# Compressibility (1/GPa) = 0.01660201
#
# Stress axis : x y z
#
# Youngs Moduli (GPa) = 88.75353 57.11043 76.24775
#
# Poissons Ratio (x) = 0.24271 0.14499
# Poissons Ratio (y) = 0.37718 0.49513
# Poissons Ratio (z) = 0.16878 0.37086
#
# Static dielectric constant tensor:
#      x y z
#    x 3.744790 0.000000 0.000000 
#    y 0.000000 3.736920 0.000000 
#    z 0.000000 0.000000 3.775380 
# 
# 
# High freq. dielectric constant tensor:
#      x y z
#    x 1.796380 0.000000 0.000000 
#    y 0.000000 1.787810 0.000000 
#    z 0.000000 0.000000 1.798300 
# 
# From -- ./inp_files/49338.got.cif
#   From: 2010.03.12/outbox.cif.g09.slc.cpg/sg74_25_cif.got.tgz:49338.got - 2010.04.16 15:46:19.
