data_PCOD8298571
_publ_section_title
;
Structure prediction by ZEFSAII (Michael W. Deem and Ramdas Pophale) SiO2 
 PCOD8298571
Probable space group: I M M A
;
_chemical_formula_sum "Si O2"
_cell_formula_units_Z 56
_cell_length_a 14.677213
_cell_length_b 18.064439
_cell_length_c 12.084108
_cell_angle_alpha 90.000000
_cell_angle_beta 90.000000
_cell_angle_gamma 90.000000
_cell_volume 3203.927454
_symmetry_space_group_name_H-M "I M M A"
_symmetry_group_IT_number 74
_symmetry_cell_setting 'orthorhombic'
loop_
_space_group_symop_operation_xyz
x,y,z
-x,1/2-y,z
x,-y,-z
-x,1/2+y,-z
-x,-y,-z
x,1/2+y,-z
-x,y,z
x,1/2-y,z
1/2+x,1/2+y,1/2+z
1/2-x,-y,1/2+z
1/2+x,1/2-y,1/2-z
1/2-x,y,1/2-z
1/2-x,1/2-y,1/2-z
1/2+x,y,1/2-z
1/2-x,1/2+y,1/2+z
1/2+x,-y,1/2+z
loop_
_atom_site_type_symbol
_atom_site_label
_atom_site_fract_x
_atom_site_fract_y
_atom_site_fract_z
Si Si1 0.600002 0.956480 0.294579
Si Si2 0.500000 0.836757 0.921838
Si Si3 0.500000 0.162605 0.819852
Si Si4 0.790534 0.000000 0.000000
Si Si5 0.320041 0.913439 0.837448
O O1 0.500000 0.992068 0.311568
O O2 0.589206 0.874247 0.239274
O O3 0.648719 0.955110 0.412342
O O4 0.655343 0.006560 0.210421
O O5 0.500000 0.750000 0.909024
O O6 0.409343 0.865263 0.860575
O O7 0.500000 0.859632 0.050613
O O8 0.500000 0.250000 0.800552
O O9 0.731570 0.067449 0.049380
O O10 0.250000 0.873581 0.750000
#
# Coordination Sequence:
#
# PCOD8298571 Si02
#       5
#    16   8   8   8  16
#     4   9  18  33  56  77 108 140 178 219 262 306
#     4  11  21  37  55  74 108 147 176 217 269 317
#     4   9  19  32  53  79 106 144 178 207 263 326
#     4  10  19  31  54  84 106 132 176 226 264 306
#     4  10  20  34  56  82 103 135 184 223 264 312
#
# _framework density 17.478546999999999
#
# number of rings (size 3 to 8) (size 9 to 14) (size 15 to 20)
#    0.857    1.429    1.429    2.143    0.000    2.286 
#    0.000    1.429    0.000   19.714    0.000    0.000 
#    0.000    0.000    0.000    0.000    0.000    0.000 
#
# Total GULP energy -346903.975438 kJ/mol
# GULP energy per Si atom -12389.427694 kJ/mol
# Density = 1.743877 g / cm^3
# Si number density = 17.478547 Si / 1000 Ang^3
#
#
#
# Elastic Constant Matrix: (Units=GPa)
#
#
# Indices 1 2 3 4 5 6 
#
# 1 117.0889 37.0809 61.9076 0.0000 0.0000 0.0000
# 2 37.0809 78.4243 51.6562 0.0000 0.0000 0.0000
# 3 61.9076 51.6562 123.5165 0.0000 0.0000 0.0000
# 4 0.0000 0.0000 0.0000 19.1569 0.0000 0.0000
# 5 0.0000 0.0000 0.0000 0.0000 39.4667 0.0000
# 6 0.0000 0.0000 0.0000 0.0000 0.0000 5.2070
#
#
#
# Elastic Compliance Matrix: (Units=1/GPa)
#
#
# Indices 1 2 3 4 5 6 
#
# 1 0.011925 -0.002349 -0.004995 0.000000 0.000000 0.000000
# 2 -0.002349 0.018062 -0.006376 0.000000 0.000000 0.000000
# 3 -0.004995 -0.006376 0.013266 0.000000 0.000000 0.000000
# 4 0.000000 0.000000 0.000000 0.052200 0.000000 0.000000
# 5 0.000000 0.000000 0.000000 0.000000 0.025338 0.000000
# 6 0.000000 0.000000 0.000000 0.000000 0.000000 0.192048
#
#
# Mechanical properties :
#
#
# Convention : Reuss Voigt Hill
#
# Bulk Modulus (GPa) = 63.23770 68.92436 66.08103
# Shear Modulus (GPa) = 14.46967 23.99180 19.23074
#
# Velocity S-wave (km/s) = 2.88037 3.70894 3.32060
# Velocity P-wave (km/s) = 6.87901 7.60664 7.25195
#
# Compressibility (1/GPa) = 0.01581335
#
# Stress axis : x y z
#
# Youngs Moduli (GPa) = 83.85641 55.36598 75.37916
#
# Poissons Ratio (x) = 0.13003 0.37650
# Poissons Ratio (y) = 0.19694 0.48066
# Poissons Ratio (z) = 0.41885 0.35304
#
# Static dielectric constant tensor:
#      x y z
#    x 3.540180 0.000000 0.000000 
#    y 0.000000 2.830310 0.000000 
#    z 0.000000 0.000000 3.580070 
# 
# 
# High freq. dielectric constant tensor:
#      x y z
#    x 1.690150 0.000000 0.000000 
#    y 0.000000 1.636140 0.000000 
#    z 0.000000 0.000000 1.688640 
# 
# From -- ./inp_files/19849.got.cif
#   From: 2010.03.12/outbox.cif.g09.slc.cpg/sg74_10_cif.got.tgz:19849.got - 2010.04.16 15:46:19.
