data_PCOD8298725
_publ_section_title
;
Structure prediction by ZEFSAII (Michael W. Deem and Ramdas Pophale) SiO2 
 PCOD8298725
Probable space group: I M M A
;
_chemical_formula_sum "Si O2"
_cell_formula_units_Z 80
_cell_length_a 9.057254
_cell_length_b 26.816543
_cell_length_c 18.288817
_cell_angle_alpha 90.000000
_cell_angle_beta 90.000000
_cell_angle_gamma 90.000000
_cell_volume 4442.065442
_symmetry_space_group_name_H-M "I M M A"
_symmetry_group_IT_number 74
_symmetry_cell_setting 'orthorhombic'
loop_
_space_group_symop_operation_xyz
x,y,z
-x,1/2-y,z
x,-y,-z
-x,1/2+y,-z
-x,-y,-z
x,1/2+y,-z
-x,y,z
x,1/2-y,z
1/2+x,1/2+y,1/2+z
1/2-x,-y,1/2+z
1/2+x,1/2-y,1/2-z
1/2-x,y,1/2-z
1/2-x,1/2-y,1/2-z
1/2+x,y,1/2-z
1/2-x,1/2+y,1/2+z
1/2+x,-y,1/2+z
loop_
_atom_site_type_symbol
_atom_site_label
_atom_site_fract_x
_atom_site_fract_y
_atom_site_fract_z
Si Si1 0.172986 0.307351 0.323141
Si Si2 0.828700 0.101830 0.677551
Si Si3 0.829425 0.645056 0.957700
Si Si4 0.330242 0.444432 0.974745
Si Si5 0.670667 0.193196 0.609715
O O1 0.215904 0.250000 0.336427
O O2 0.250000 0.327566 0.250000
O O3 0.230488 0.338895 0.390431
O O4 0.000000 0.315207 0.314673
O O5 0.750000 0.080592 0.750000
O O6 0.798063 0.063020 0.611662
O O7 0.768438 0.156891 0.659055
O O8 0.000000 0.107257 0.694472
O O9 0.000000 0.644424 0.934538
O O10 0.779786 0.589829 0.979571
O O11 0.800367 0.682947 0.024224
O O12 0.500000 0.429903 0.991488
O O13 0.294937 0.500000 0.000000
O O14 0.500000 0.183390 0.628704
O O15 0.716777 0.250000 0.626648
#
# Coordination Sequence:
#
# PCOD8298725 Si02
#       5
#    16  16  16  16  16
#     4  10  20  33  50  73 103 139 176 213 255 305
#     4  10  20  34  53  76 102 132 165 204 250 298
#     4  10  19  32  52  77 104 133 168 212 259 308
#     4   9  19  37  58  77  99 131 171 214 259 305
#     4   9  18  32  50  73 102 136 171 205 242 289
#
# _framework density 18.009640000000001
#
# number of rings (size 3 to 8) (size 9 to 14) (size 15 to 20)
#    0.000    2.400    0.000    2.400    0.000    4.800 
#    0.000    1.000    0.000    2.400    0.000    0.000 
#    0.000    0.000    0.000    0.000    0.000    0.000 
#
# Total GULP energy -496110.033699 kJ/mol
# GULP energy per Si atom -12402.750842 kJ/mol
# Density = 1.796865 g / cm^3
# Si number density = 18.009640 Si / 1000 Ang^3
#
#
#
# Elastic Constant Matrix: (Units=GPa)
#
#
# Indices 1 2 3 4 5 6 
#
# 1 81.3551 37.2562 52.2011 0.0001 0.0000 0.0000
# 2 37.2562 89.7212 45.9644 0.0001 0.0000 0.0000
# 3 52.2011 45.9644 115.1769 0.0007 -0.0001 0.0000
# 4 0.0001 0.0001 0.0007 15.3510 0.0000 0.0000
# 5 0.0000 0.0000 -0.0001 0.0000 36.3900 0.0000
# 6 0.0000 0.0000 0.0000 0.0000 0.0000 26.7200
#
#
#
# Elastic Compliance Matrix: (Units=1/GPa)
#
#
# Indices 1 2 3 4 5 6 
#
# 1 0.018547 -0.004268 -0.006703 0.000000 0.000000 0.000000
# 2 -0.004268 0.014992 -0.004049 0.000000 0.000000 0.000000
# 3 -0.006703 -0.004049 0.013336 -0.000001 0.000000 0.000000
# 4 0.000000 0.000000 -0.000001 0.065142 0.000000 0.000000
# 5 0.000000 0.000000 0.000000 0.000000 0.027480 0.000000
# 6 0.000000 0.000000 0.000000 0.000000 0.000000 0.037425
#
#
# Mechanical properties :
#
#
# Convention : Reuss Voigt Hill
#
# Bulk Modulus (GPa) = 59.39501 61.89963 60.64732
# Shear Modulus (GPa) = 23.52132 25.74763 24.63448
#
# Velocity S-wave (km/s) = 3.61784 3.78518 3.70246
# Velocity P-wave (km/s) = 7.10654 7.31768 7.21288
#
# Compressibility (1/GPa) = 0.01683643
#
# Stress axis : x y z
#
# Youngs Moduli (GPa) = 53.91712 66.70262 74.98534
#
# Poissons Ratio (x) = 0.28466 0.50262
# Poissons Ratio (y) = 0.23010 0.30359
# Poissons Ratio (z) = 0.36140 0.27006
#
# Static dielectric constant tensor:
#      x y z
#    x 3.398260 0.000000 0.000000 
#    y 0.000000 3.148580 0.000000 
#    z 0.000000 0.000000 3.381290 
# 
# 
# High freq. dielectric constant tensor:
#      x y z
#    x 1.707720 0.000000 0.000000 
#    y 0.000000 1.677370 0.000000 
#    z 0.000000 0.000000 1.701380 
# 
# From -- ./inp_files/39708.got.cif
#   From: 2010.03.12/outbox.cif.g09.slc.cpg/sg74_20_cif.got.tgz:39708.got - 2010.04.16 15:46:19.
