data_PCOD8298207
_publ_section_title
;
Structure prediction by ZEFSAII (Michael W. Deem and Ramdas Pophale) SiO2 
 PCOD8298207
Probable space group: I M M A
;
_chemical_formula_sum "Si O2"
_cell_formula_units_Z 96
_cell_length_a 14.212169
_cell_length_b 14.420274
_cell_length_c 27.584169
_cell_angle_alpha 90.000000
_cell_angle_beta 90.000000
_cell_angle_gamma 90.000000
_cell_volume 5653.192584
_symmetry_space_group_name_H-M "I M M A"
_symmetry_group_IT_number 74
_symmetry_cell_setting 'orthorhombic'
loop_
_space_group_symop_operation_xyz
x,y,z
-x,1/2-y,z
x,-y,-z
-x,1/2+y,-z
-x,-y,-z
x,1/2+y,-z
-x,y,z
x,1/2-y,z
1/2+x,1/2+y,1/2+z
1/2-x,-y,1/2+z
1/2+x,1/2-y,1/2-z
1/2-x,y,1/2-z
1/2-x,1/2-y,1/2-z
1/2+x,y,1/2-z
1/2-x,1/2+y,1/2+z
1/2+x,-y,1/2+z
loop_
_atom_site_type_symbol
_atom_site_label
_atom_site_fract_x
_atom_site_fract_y
_atom_site_fract_z
Si Si1 0.896118 0.946697 0.276486
Si Si2 0.205924 0.858877 0.367885
Si Si3 0.105411 0.642680 0.178623
Si Si4 0.107217 0.149794 0.382424
Si Si5 0.345656 0.648855 0.778360
Si Si6 0.110956 0.478502 0.554332
O O1 0.839413 0.918141 0.324326
O O2 0.852972 0.905056 0.227167
O O3 0.000000 0.905398 0.283567
O O4 0.906291 0.057548 0.267789
O O5 0.180756 0.750000 0.362761
O O6 0.319214 0.874713 0.364584
O O7 0.167889 0.894889 0.419911
O O8 0.099306 0.750000 0.190906
O O9 0.000000 0.605590 0.164499
O O10 0.114171 0.250000 0.408699
O O11 0.174991 0.148310 0.335920
O O12 0.139772 0.072593 0.419317
O O13 0.000000 0.131343 0.364589
O O14 0.393005 0.750000 0.765082
O O15 0.250000 0.637850 0.750000
O O16 0.144418 0.500000 0.500000
O O17 0.000000 0.455440 0.556654
#
# Coordination Sequence:
#
# PCOD8298207 Si02
#       6
#    16  16  16  16  16  16
#     4  11  20  30  47  73 106 139 166 197 240 293
#     4  11  21  33  52  75 101 132 167 205 245 292
#     4   9  19  34  51  74 103 133 165 200 243 295
#     4   9  17  31  49  66  89 126 165 197 236 287
#     4  10  19  29  44  67  94 127 170 208 237 277
#     4  10  21  35  50  72 101 129 161 204 248 291
#
# _framework density 16.981555
#
# number of rings (size 3 to 8) (size 9 to 14) (size 15 to 20)
#    0.000    2.000    1.667    3.000    0.000    5.000 
#    0.000    1.667    0.000    0.500    0.000    0.000 
#    0.000    0.000    0.000    0.000    0.000    0.000 
#
# Total GULP energy -594645.606194 kJ/mol
# GULP energy per Si atom -12388.450129 kJ/mol
# Density = 1.694290 g / cm^3
# Si number density = 16.981555 Si / 1000 Ang^3
#
#
#
# Elastic Constant Matrix: (Units=GPa)
#
#
# Indices 1 2 3 4 5 6 
#
# 1 61.9938 32.0213 45.9698 0.0000 0.0000 0.0000
# 2 32.0213 94.1155 37.2501 0.0000 0.0000 0.0000
# 3 45.9698 37.2501 94.7234 0.0000 0.0000 0.0000
# 4 0.0000 0.0000 0.0000 21.9480 0.0000 0.0000
# 5 0.0000 0.0000 0.0000 0.0000 23.1499 0.0000
# 6 0.0000 0.0000 0.0000 0.0000 0.0000 19.6488
#
#
#
# Elastic Compliance Matrix: (Units=1/GPa)
#
#
# Indices 1 2 3 4 5 6 
#
# 1 0.026854 -0.004712 -0.011180 0.000000 0.000000 0.000000
# 2 -0.004712 0.013411 -0.002987 0.000000 0.000000 0.000000
# 3 -0.011180 -0.002987 0.017157 0.000000 0.000000 0.000000
# 4 0.000000 0.000000 0.000000 0.045562 0.000000 0.000000
# 5 0.000000 0.000000 0.000000 0.000000 0.043197 0.000000
# 6 0.000000 0.000000 0.000000 0.000000 0.000000 0.050894
#
#
# Mechanical properties :
#
#
# Convention : Reuss Voigt Hill
#
# Bulk Modulus (GPa) = 50.85150 53.47946 52.16548
# Shear Modulus (GPa) = 20.71359 21.98876 21.35118
#
# Velocity S-wave (km/s) = 3.49631 3.60232 3.54971
# Velocity P-wave (km/s) = 6.80508 6.99023 6.89828
#
# Compressibility (1/GPa) = 0.01966510
#
# Stress axis : x y z
#
# Youngs Moduli (GPa) = 37.23776 74.56764 58.28446
#
# Poissons Ratio (x) = 0.35136 0.65160
# Poissons Ratio (y) = 0.17546 0.17410
# Poissons Ratio (z) = 0.41630 0.22273
#
# Static dielectric constant tensor:
#      x y z
#    x 3.234660 0.000000 0.000000 
#    y 0.000000 3.487260 0.000000 
#    z 0.000000 0.000000 3.020540 
# 
# 
# High freq. dielectric constant tensor:
#      x y z
#    x 1.634250 0.000000 0.000000 
#    y 0.000000 1.674390 0.000000 
#    z 0.000000 0.000000 1.624490 
# 
# From -- ./inp_files/72576.got.cif
#   From: 2010.03.12/outbox.cif.g09.slc.cpg/sg74_37_cif.got.tgz:72576.got - 2010.04.16 15:46:19.
