data_PCOD8298103
_publ_section_title
;
Structure prediction by ZEFSAII (Michael W. Deem and Ramdas Pophale) SiO2 
 PCOD8298103
Probable space group: I M M A
;
_chemical_formula_sum "Si O2"
_cell_formula_units_Z 96
_cell_length_a 13.667448
_cell_length_b 15.293316
_cell_length_c 21.015062
_cell_angle_alpha 90.000000
_cell_angle_beta 90.000000
_cell_angle_gamma 90.000000
_cell_volume 4392.580893
_symmetry_space_group_name_H-M "I M M A"
_symmetry_group_IT_number 74
_symmetry_cell_setting 'orthorhombic'
loop_
_space_group_symop_operation_xyz
x,y,z
-x,1/2-y,z
x,-y,-z
-x,1/2+y,-z
-x,-y,-z
x,1/2+y,-z
-x,y,z
x,1/2-y,z
1/2+x,1/2+y,1/2+z
1/2-x,-y,1/2+z
1/2+x,1/2-y,1/2-z
1/2-x,y,1/2-z
1/2-x,1/2-y,1/2-z
1/2+x,y,1/2-z
1/2-x,1/2+y,1/2+z
1/2+x,-y,1/2+z
loop_
_atom_site_type_symbol
_atom_site_label
_atom_site_fract_x
_atom_site_fract_y
_atom_site_fract_z
Si Si1 0.192631 0.596130 0.974151
Si Si2 0.612636 0.593095 0.793652
Si Si3 0.393010 0.092798 0.853362
Si Si4 0.757213 0.250000 0.675720
Si Si5 0.813021 0.849440 0.836867
Si Si6 0.615026 0.750000 0.437928
Si Si7 0.893788 0.148947 0.510063
O O1 0.150833 0.607728 0.903180
O O2 0.169642 0.500000 0.000000
O O3 0.147459 0.664046 0.023833
O O4 0.308345 0.615822 0.964324
O O5 0.500000 0.622097 0.808546
O O6 0.634371 0.496537 0.819068
O O7 0.694496 0.653043 0.827694
O O8 0.632019 0.595812 0.717907
O O9 0.500000 0.124594 0.829999
O O10 0.312061 0.161947 0.838701
O O11 0.393446 0.083674 0.929732
O O12 0.750000 0.250000 0.750000
O O13 0.658664 0.250000 0.633543
O O14 0.850162 0.750000 0.834976
O O15 0.500000 0.750000 0.429639
O O16 0.875117 0.250000 0.532021
O O17 0.000000 0.141989 0.475431
#
# Coordination Sequence:
#
# PCOD8298103 Si02
#       7
#    16  16  16   8  16   8  16
#     4  12  24  44  73  99 136 180 226 286 343 400
#     4  10  23  40  64  97 134 172 224 286 335 398
#     4  10  19  37  64  95 131 168 210 263 334 405
#     4  12  25  39  70  97 132 182 214 268 332 390
#     4  11  24  42  67  95 129 179 228 274 340 402
#     4  12  28  51  70 100 141 180 235 285 327 397
#     4  10  18  35  66 101 136 174 215 266 343 422
#
# _framework density 21.855034
#
# number of rings (size 3 to 8) (size 9 to 14) (size 15 to 20)
#    0.000    1.167    4.167    2.250    2.333    4.000 
#    0.000    1.667    0.000    0.000    0.000    0.000 
#    0.000    0.000    0.000    0.000    0.000    0.000 
#
# Total GULP energy -594964.105357 kJ/mol
# GULP energy per Si atom -12395.085528 kJ/mol
# Density = 2.180529 g / cm^3
# Si number density = 21.855034 Si / 1000 Ang^3
#
#
#
# Elastic Constant Matrix: (Units=GPa)
#
#
# Indices 1 2 3 4 5 6 
#
# 1 85.2159 23.7665 7.5019 0.0000 0.0000 0.0000
# 2 23.7665 115.9453 30.9400 0.0000 0.0000 0.0000
# 3 7.5019 30.9400 114.4948 0.0000 0.0000 0.0000
# 4 0.0000 0.0000 0.0000 10.3528 0.0000 0.0000
# 5 0.0000 0.0000 0.0000 0.0000 20.6267 0.0000
# 6 0.0000 0.0000 0.0000 0.0000 0.0000 11.9402
#
#
#
# Elastic Compliance Matrix: (Units=1/GPa)
#
#
# Indices 1 2 3 4 5 6 
#
# 1 0.012448 -0.002515 -0.000136 0.000000 0.000000 0.000000
# 2 -0.002515 0.009803 -0.002484 0.000000 0.000000 0.000000
# 3 -0.000136 -0.002484 0.009414 0.000000 0.000000 0.000000
# 4 0.000000 0.000000 0.000000 0.096592 0.000000 0.000000
# 5 0.000000 0.000000 0.000000 0.000000 0.048481 0.000000
# 6 0.000000 0.000000 0.000000 0.000000 0.000000 0.083750
#
#
# Mechanical properties :
#
#
# Convention : Reuss Voigt Hill
#
# Bulk Modulus (GPa) = 46.74060 48.89698 47.81879
# Shear Modulus (GPa) = 17.99256 25.48046 21.73651
#
# Velocity S-wave (km/s) = 2.87238 3.41821 3.15711
# Velocity P-wave (km/s) = 5.69507 6.16448 5.93442
#
# Compressibility (1/GPa) = 0.02139468
#
# Stress axis : x y z
#
# Youngs Moduli (GPa) = 80.33160 102.00633 106.22177
#
# Poissons Ratio (x) = 0.25659 0.01444
# Poissons Ratio (y) = 0.20207 0.26389
# Poissons Ratio (z) = 0.01092 0.25342
#
# Static dielectric constant tensor:
#      x y z
#    x 4.000400 0.000000 0.000000 
#    y 0.000000 3.897760 0.000000 
#    z 0.000000 0.000000 3.241460 
# 
# 
# High freq. dielectric constant tensor:
#      x y z
#    x 1.854270 0.000000 0.000000 
#    y 0.000000 1.860040 0.000000 
#    z 0.000000 0.000000 1.858560 
# 
# From -- ./inp_files/51950.got.cif
#   From: 2010.03.12/outbox.cif.g09.slc.cpg/sg74_26_cif.got.tgz:51950.got - 2010.04.16 15:46:19.
