data_PCOD8298931
_publ_section_title
;
Structure prediction by ZEFSAII (Michael W. Deem and Ramdas Pophale) SiO2 
 PCOD8298931
Probable space group: I M M A
;
_chemical_formula_sum "Si O2"
_cell_formula_units_Z 128
_cell_length_a 19.937984
_cell_length_b 18.484369
_cell_length_c 19.788731
_cell_angle_alpha 90.000000
_cell_angle_beta 90.000000
_cell_angle_gamma 90.000000
_cell_volume 7292.959768
_symmetry_space_group_name_H-M "I M M A"
_symmetry_group_IT_number 74
_symmetry_cell_setting 'orthorhombic'
loop_
_space_group_symop_operation_xyz
x,y,z
-x,1/2-y,z
x,-y,-z
-x,1/2+y,-z
-x,-y,-z
x,1/2+y,-z
-x,y,z
x,1/2-y,z
1/2+x,1/2+y,1/2+z
1/2-x,-y,1/2+z
1/2+x,1/2-y,1/2-z
1/2-x,y,1/2-z
1/2-x,1/2-y,1/2-z
1/2+x,y,1/2-z
1/2-x,1/2+y,1/2+z
1/2+x,-y,1/2+z
loop_
_atom_site_type_symbol
_atom_site_label
_atom_site_fract_x
_atom_site_fract_y
_atom_site_fract_z
Si Si1 0.822079 0.571813 0.181664
Si Si2 0.824675 0.047054 0.670667
Si Si3 0.576127 0.580771 0.807023
Si Si4 0.318462 0.082433 0.976588
Si Si5 0.075798 0.050365 0.160297
Si Si6 0.076949 0.082212 0.014728
Si Si7 0.310621 0.165025 0.557246
Si Si8 0.422863 0.832122 0.934122
O O1 0.837137 0.593245 0.260225
O O2 0.753838 0.524539 0.172854
O O3 0.881363 0.522385 0.154290
O O4 0.813355 0.643749 0.136681
O O5 0.840746 0.090497 0.602007
O O6 0.871316 0.977655 0.667578
O O7 0.500000 0.550885 0.814971
O O8 0.591296 0.597534 0.727890
O O9 0.585939 0.650892 0.854119
O O10 0.248788 0.125585 0.984374
O O11 0.377017 0.116213 0.021231
O O12 0.306664 0.000000 0.000000
O O13 0.087847 0.099318 0.094424
O O14 0.000000 0.021616 0.161045
O O15 0.000000 0.092393 0.992668
O O16 0.119350 0.141252 0.974942
O O17 0.100521 0.000000 0.000000
O O18 0.300177 0.250000 0.551277
O O19 0.500000 0.844492 0.955966
O O20 0.400533 0.750000 0.945875
#
# Coordination Sequence:
#
# PCOD8298931 Si02
#       8
#    16  16  16  16  16  16  16  16
#     4   9  18  33  52  74 104 132 172 216 264 307
#     4   9  18  32  51  80  99 130 173 223 262 293
#     4   9  17  31  51  77 104 133 171 213 255 308
#     4  11  21  35  56  80 106 135 181 224 264 307
#     4   9  17  30  52  79 102 130 173 219 258 299
#     4  10  19  33  54  80 105 135 176 220 263 309
#     4  11  23  36  52  77 109 145 177 215 270 323
#     4  10  21  36  53  77 111 144 170 208 267 324
#
# _framework density 17.551172999999999
#
# number of rings (size 3 to 8) (size 9 to 14) (size 15 to 20)
#    0.000    2.250    2.500    0.750    1.750    1.000 
#    0.000    6.250    0.000    2.250    0.000    4.375 
#    0.000    0.000    0.000    0.000    0.000    0.000 
#
# Total GULP energy -793132.913426 kJ/mol
# GULP energy per Si atom -12392.701772 kJ/mol
# Density = 1.751123 g / cm^3
# Si number density = 17.551173 Si / 1000 Ang^3
#
#
#
# Elastic Constant Matrix: (Units=GPa)
#
#
# Indices 1 2 3 4 5 6 
#
# 1 79.5886 47.9654 42.3143 0.0000 0.0000 0.0000
# 2 47.9654 102.3892 44.0413 0.0000 0.0000 0.0000
# 3 42.3143 44.0413 108.6665 0.0000 0.0000 0.0000
# 4 0.0000 0.0000 0.0000 16.8757 0.0000 0.0000
# 5 0.0000 0.0000 0.0000 0.0000 25.7523 0.0000
# 6 0.0000 0.0000 0.0000 0.0000 0.0000 21.2726
#
#
#
# Elastic Compliance Matrix: (Units=1/GPa)
#
#
# Indices 1 2 3 4 5 6 
#
# 1 0.019276 -0.007026 -0.004658 0.000000 0.000000 0.000000
# 2 -0.007026 0.014390 -0.003096 0.000000 0.000000 0.000000
# 3 -0.004658 -0.003096 0.012271 0.000000 0.000000 0.000000
# 4 0.000000 0.000000 0.000000 0.059257 0.000000 0.000000
# 5 0.000000 0.000000 0.000000 0.000000 0.038831 0.000000
# 6 0.000000 0.000000 0.000000 0.000000 0.000000 0.047009
#
#
# Mechanical properties :
#
#
# Convention : Reuss Voigt Hill
#
# Bulk Modulus (GPa) = 61.06615 62.14293 61.60454
# Shear Modulus (GPa) = 22.11865 23.20167 22.66016
#
# Velocity S-wave (km/s) = 3.55383 3.63980 3.59707
# Velocity P-wave (km/s) = 7.19085 7.29025 7.24072
#
# Compressibility (1/GPa) = 0.01637569
#
# Stress axis : x y z
#
# Youngs Moduli (GPa) = 51.87873 69.49297 81.49188
#
# Poissons Ratio (x) = 0.48828 0.37961
# Poissons Ratio (y) = 0.36451 0.25231
# Poissons Ratio (z) = 0.24166 0.21516
#
# Static dielectric constant tensor:
#      x y z
#    x 3.382840 0.000000 0.000000 
#    y 0.000000 2.843640 0.000000 
#    z 0.000000 0.000000 3.683290 
# 
# 
# High freq. dielectric constant tensor:
#      x y z
#    x 1.689600 0.000000 0.000000 
#    y 0.000000 1.627890 0.000000 
#    z 0.000000 0.000000 1.700210 
# 
# From -- ./inp_files/54160.got.cif
#   From: 2010.03.12/outbox.cif.g09.slc.cpg/sg74_28_cif.got.tgz:54160.got - 2010.04.16 15:46:19.
