data_PCOD8298315
_publ_section_title
;
Structure prediction by ZEFSAII (Michael W. Deem and Ramdas Pophale) SiO2 
 PCOD8298315
Probable space group: I M M A
;
_chemical_formula_sum "Si O2"
_cell_formula_units_Z 80
_cell_length_a 27.831439
_cell_length_b 8.830020
_cell_length_c 18.157120
_cell_angle_alpha 90.000000
_cell_angle_beta 90.000000
_cell_angle_gamma 90.000000
_cell_volume 4462.151514
_symmetry_space_group_name_H-M "I M M A"
_symmetry_group_IT_number 74
_symmetry_cell_setting 'orthorhombic'
loop_
_space_group_symop_operation_xyz
x,y,z
-x,1/2-y,z
x,-y,-z
-x,1/2+y,-z
-x,-y,-z
x,1/2+y,-z
-x,y,z
x,1/2-y,z
1/2+x,1/2+y,1/2+z
1/2-x,-y,1/2+z
1/2+x,1/2-y,1/2-z
1/2-x,y,1/2-z
1/2-x,1/2-y,1/2-z
1/2+x,y,1/2-z
1/2-x,1/2+y,1/2+z
1/2+x,-y,1/2+z
loop_
_atom_site_type_symbol
_atom_site_label
_atom_site_fract_x
_atom_site_fract_y
_atom_site_fract_z
Si Si1 0.708905 0.070311 0.422227
Si Si2 0.446629 0.426383 0.216895
Si Si3 0.813645 0.071400 0.369372
Si Si4 0.907717 0.071274 0.574491
Si Si5 0.149202 0.927842 0.787214
O O1 0.705916 0.250000 0.428056
O O2 0.761947 0.018702 0.397934
O O3 0.671792 0.002156 0.361522
O O4 0.694570 0.000000 0.500000
O O5 0.500000 0.455712 0.249326
O O6 0.438253 0.250000 0.198495
O O7 0.440893 0.517928 0.141651
O O8 0.406392 0.480277 0.276045
O O9 0.821954 0.250000 0.379323
O O10 0.819282 0.024249 0.283699
O O11 0.852968 0.983737 0.416900
O O12 0.909238 0.250000 0.569007
O O13 0.929244 0.000000 0.500000
O O14 0.152144 0.750000 0.796839
#
# Coordination Sequence:
#
# PCOD8298315 Si02
#       5
#    16  16  16  16  16
#     4  10  19  30  47  71  99 129 159 194 236 281
#     4   9  18  34  55  74  90 115 157 205 246 283
#     4   9  17  31  50  70  94 127 166 200 230 271
#     4  11  21  32  47  69 100 133 161 192 231 277
#     4   8  15  30  51  72  93 121 158 197 237 282
#
# _framework density 17.928571999999999
#
# number of rings (size 3 to 8) (size 9 to 14) (size 15 to 20)
#    0.000    2.600    0.000    4.200    0.000    5.600 
#    0.000    4.000    0.000    6.600    0.000    0.000 
#    0.000    0.000    0.000    0.000    0.000    0.000 
#
# Total GULP energy -495874.552832 kJ/mol
# GULP energy per Si atom -12396.863821 kJ/mol
# Density = 1.788777 g / cm^3
# Si number density = 17.928572 Si / 1000 Ang^3
#
#
#
# Elastic Constant Matrix: (Units=GPa)
#
#
# Indices 1 2 3 4 5 6 
#
# 1 101.6777 21.9332 42.5314 0.0000 0.0000 0.0000
# 2 21.9332 51.5977 17.6473 0.0000 0.0000 0.0000
# 3 42.5314 17.6473 97.3212 0.0000 0.0000 0.0000
# 4 0.0000 0.0000 0.0000 24.6059 0.0000 0.0000
# 5 0.0000 0.0000 0.0000 0.0000 5.5816 0.0000
# 6 0.0000 0.0000 0.0000 0.0000 0.0000 13.0767
#
#
#
# Elastic Compliance Matrix: (Units=1/GPa)
#
#
# Indices 1 2 3 4 5 6 
#
# 1 0.012672 -0.003724 -0.004863 0.000000 0.000000 0.000000
# 2 -0.003724 0.021756 -0.002318 0.000000 0.000000 0.000000
# 3 -0.004863 -0.002318 0.012821 0.000000 0.000000 0.000000
# 4 0.000000 0.000000 0.000000 0.040641 0.000000 0.000000
# 5 0.000000 0.000000 0.000000 0.000000 0.179161 0.000000
# 6 0.000000 0.000000 0.000000 0.000000 0.000000 0.076472
#
#
# Mechanical properties :
#
#
# Convention : Reuss Voigt Hill
#
# Bulk Modulus (GPa) = 39.30695 46.09117 42.69906
# Shear Modulus (GPa) = 13.37573 19.88515 16.63044
#
# Velocity S-wave (km/s) = 2.73437 3.33398 3.04895
# Velocity P-wave (km/s) = 5.65162 6.37060 6.02185
#
# Compressibility (1/GPa) = 0.02544080
#
# Stress axis : x y z
#
# Youngs Moduli (GPa) = 78.91200 45.96381 77.99873
#
# Poissons Ratio (x) = 0.17115 0.37930
# Poissons Ratio (y) = 0.29384 0.18079
# Poissons Ratio (z) = 0.38374 0.10653
#
# Static dielectric constant tensor:
#      x y z
#    x 3.471160 0.000000 0.000000 
#    y 0.000000 3.019260 0.000000 
#    z 0.000000 0.000000 3.450210 
# 
# 
# High freq. dielectric constant tensor:
#      x y z
#    x 1.691570 0.000000 0.000000 
#    y 0.000000 1.667290 0.000000 
#    z 0.000000 0.000000 1.682780 
# 
# From -- ./inp_files/39707.got.cif
#   From: 2010.03.12/outbox.cif.g09.slc.cpg/sg74_20_cif.got.tgz:39707.got - 2010.04.16 15:46:19.
