data_PCOD8298671
_publ_section_title
;
Structure prediction by ZEFSAII (Michael W. Deem and Ramdas Pophale) SiO2 
 PCOD8298671
Probable space group: I M M A
;
_chemical_formula_sum "Si O2"
_cell_formula_units_Z 88
_cell_length_a 9.852394
_cell_length_b 15.829466
_cell_length_c 30.558708
_cell_angle_alpha 90.000000
_cell_angle_beta 90.000000
_cell_angle_gamma 90.000000
_cell_volume 4765.879133
_symmetry_space_group_name_H-M "I M M A"
_symmetry_group_IT_number 74
_symmetry_cell_setting 'orthorhombic'
loop_
_space_group_symop_operation_xyz
x,y,z
-x,1/2-y,z
x,-y,-z
-x,1/2+y,-z
-x,-y,-z
x,1/2+y,-z
-x,y,z
x,1/2-y,z
1/2+x,1/2+y,1/2+z
1/2-x,-y,1/2+z
1/2+x,1/2-y,1/2-z
1/2-x,y,1/2-z
1/2-x,1/2-y,1/2-z
1/2+x,y,1/2-z
1/2-x,1/2+y,1/2+z
1/2+x,-y,1/2+z
loop_
_atom_site_type_symbol
_atom_site_label
_atom_site_fract_x
_atom_site_fract_y
_atom_site_fract_z
Si Si1 0.152835 0.086807 0.614189
Si Si2 0.850199 0.843603 0.183004
Si Si3 0.354624 0.423210 0.171646
Si Si4 0.656866 0.498017 0.550972
Si Si5 0.654708 0.655334 0.610360
Si Si6 0.250000 0.975200 0.250000
O O1 0.233307 0.149273 0.646500
O O2 0.000000 0.121702 0.603671
O O3 0.140459 0.997372 0.636775
O O4 0.243742 0.073730 0.570721
O O5 0.835988 0.750000 0.203861
O O6 0.843259 0.914238 0.220674
O O7 0.000000 0.854407 0.161446
O O8 0.500000 0.375841 0.171849
O O9 0.238788 0.359520 0.155219
O O10 0.335225 0.462210 0.219587
O O11 0.688813 0.500000 0.500000
O O12 0.500000 0.473278 0.560018
O O13 0.689972 0.590103 0.571518
O O14 0.500000 0.644439 0.625082
O O15 0.683886 0.750000 0.592794
#
# Coordination Sequence:
#
# PCOD8298671 Si02
#       6
#    16  16  16  16  16   8
#     4   9  18  32  49  70  99 133 167 204 247 295
#     4  10  20  33  50  72  99 133 171 209 250 298
#     4   9  18  31  49  72  96 126 162 199 241 290
#     4   9  17  31  53  78 102 130 166 205 246 297
#     4   9  18  33  52  73  98 128 161 199 244 291
#     4  10  19  32  51  74  98 126 164 210 253 296
#
# _framework density 18.464587999999999
#
# number of rings (size 3 to 8) (size 9 to 14) (size 15 to 20)
#    0.000    2.727    0.000    1.364    0.000    6.909 
#    0.000    1.364    0.000    3.273    0.000    0.000 
#    0.000    0.000    0.000    0.000    0.000    0.000 
#
# Total GULP energy -545203.141584 kJ/mol
# GULP energy per Si atom -12390.980491 kJ/mol
# Density = 1.842256 g / cm^3
# Si number density = 18.464588 Si / 1000 Ang^3
#
#
#
# Elastic Constant Matrix: (Units=GPa)
#
#
# Indices 1 2 3 4 5 6 
#
# 1 134.3172 38.5876 58.9835 0.0000 0.0000 0.0000
# 2 38.5876 66.3096 34.6901 0.0000 0.0000 0.0004
# 3 58.9835 34.6901 112.6481 0.0000 0.0000 0.0002
# 4 0.0000 0.0000 0.0000 16.2545 0.0000 0.0004
# 5 0.0000 0.0000 0.0000 0.0000 20.0144 0.0000
# 6 0.0000 0.0004 0.0002 0.0004 0.0000 -337.6268
#
#
#
# Elastic Compliance Matrix: (Units=1/GPa)
#
#
# Indices 1 2 3 4 5 6 
#
# 1 0.010424 -0.003827 -0.004279 0.000000 0.000000 0.000000
# 2 -0.003827 0.019382 -0.003965 0.000000 0.000000 0.000000
# 3 -0.004279 -0.003965 0.012339 0.000000 0.000000 0.000000
# 4 0.000000 0.000000 0.000000 0.061522 0.000000 0.000000
# 5 0.000000 0.000000 0.000000 0.000000 0.049964 0.000000
# 6 0.000000 0.000000 0.000000 0.000000 0.000000 -0.002962
#
#
# Mechanical properties :
#
#
# Convention : Reuss Voigt Hill
#
# Bulk Modulus (GPa) = 55.54915 64.19970 59.87443
# Shear Modulus (GPa) = 27.65303 -48.20400 -10.27549
#
# Velocity S-wave (km/s) = 3.87411 -5.11496 -2.36158
# Velocity P-wave (km/s) = 7.08245 0.19809 5.00609
#
# Compressibility (1/GPa) = 0.01800207
#
# Stress axis : x y z
#
# Youngs Moduli (GPa) = 95.93432 51.59397 81.04438
#
# Poissons Ratio (x) = 0.19746 0.34682
# Poissons Ratio (y) = 0.36715 0.32133
# Poissons Ratio (z) = 0.41054 0.20456
#
# Static dielectric constant tensor:
#      x y z
#    x 3.845960 0.000000 0.000000 
#    y 0.000000 3.224240 0.000000 
#    z 0.000000 0.000000 3.230250 
# 
# 
# High freq. dielectric constant tensor:
#      x y z
#    x 1.728370 0.000000 0.000000 
#    y 0.000000 1.693040 0.000000 
#    z 0.000000 0.000000 1.694180 
# 
# From -- ./inp_files/70243.got.cif
#   From: 2010.03.12/outbox.cif.g09.slc.cpg/sg74_36_cif.got.tgz:70243.got - 2010.04.16 15:46:19.
