data_PCOD8298437
_publ_section_title
;
Structure prediction by ZEFSAII (Michael W. Deem and Ramdas Pophale) SiO2 
 PCOD8298437
Probable space group: I M M A
;
_chemical_formula_sum "Si O2"
_cell_formula_units_Z 96
_cell_length_a 8.868806
_cell_length_b 30.835517
_cell_length_c 19.979194
_cell_angle_alpha 90.000000
_cell_angle_beta 90.000000
_cell_angle_gamma 90.000000
_cell_volume 5463.794459
_symmetry_space_group_name_H-M "I M M A"
_symmetry_group_IT_number 74
_symmetry_cell_setting 'orthorhombic'
loop_
_space_group_symop_operation_xyz
x,y,z
-x,1/2-y,z
x,-y,-z
-x,1/2+y,-z
-x,-y,-z
x,1/2+y,-z
-x,y,z
x,1/2-y,z
1/2+x,1/2+y,1/2+z
1/2-x,-y,1/2+z
1/2+x,1/2-y,1/2-z
1/2-x,y,1/2-z
1/2-x,1/2-y,1/2-z
1/2+x,y,1/2-z
1/2-x,1/2+y,1/2+z
1/2+x,-y,1/2+z
loop_
_atom_site_type_symbol
_atom_site_label
_atom_site_fract_x
_atom_site_fract_y
_atom_site_fract_z
Si Si1 0.668850 0.702576 0.427141
Si Si2 0.180781 0.111225 0.077162
Si Si3 0.322692 0.116710 0.933789
Si Si4 0.831268 0.704286 0.913930
Si Si5 0.676072 0.447536 0.818009
Si Si6 0.822049 0.453034 0.319175
O O1 0.500000 0.693487 0.399935
O O2 0.725181 0.750000 0.400992
O O3 0.780141 0.664157 0.404044
O O4 0.664482 0.703313 0.506619
O O5 0.240819 0.157957 0.107564
O O6 0.252031 0.073288 0.120002
O O7 0.000000 0.109441 0.078975
O O8 0.234077 0.105394 0.001217
O O9 0.500000 0.114727 0.947963
O O10 0.269135 0.081200 0.880094
O O11 0.749061 0.750000 0.890778
O O12 0.000000 0.706188 0.885176
O O13 0.500000 0.443037 0.807751
O O14 0.750000 0.430121 0.750000
O O15 0.722770 0.497143 0.832055
O O16 0.750000 0.436387 0.250000
O O17 0.000000 0.445807 0.316413
#
# Coordination Sequence:
#
# PCOD8298437 Si02
#       6
#    16  16  16  16  16  16
#     4   8  14  26  44  67  96 129 162 195 235 285
#     4  10  19  31  49  75 102 129 162 199 241 288
#     4  10  19  31  48  74 103 128 159 202 248 288
#     4   7  11  22  41  64  91 122 154 188 226 270
#     4   9  20  36  53  71  94 127 164 202 246 296
#     4  10  20  36  54  71  94 126 163 202 246 296
#
# _framework density 17.570205999999999
#
# number of rings (size 3 to 8) (size 9 to 14) (size 15 to 20)
#    0.000    3.000    0.000    3.500    0.000    3.000 
#    0.000    3.333    0.000    2.500    0.000    0.000 
#    0.000    0.000    0.000    0.000    0.000    0.000 
#
# Total GULP energy -594626.731260 kJ/mol
# GULP energy per Si atom -12388.056901 kJ/mol
# Density = 1.753022 g / cm^3
# Si number density = 17.570206 Si / 1000 Ang^3
#
#
#
# Elastic Constant Matrix: (Units=GPa)
#
#
# Indices 1 2 3 4 5 6 
#
# 1 57.9479 41.6756 33.2594 0.0000 0.0000 0.0000
# 2 41.6756 125.4226 65.0108 -0.0002 0.0000 0.0000
# 3 33.2594 65.0108 77.1389 -0.0003 0.0000 0.0000
# 4 0.0000 -0.0002 -0.0003 1.8208 0.0000 0.0000
# 5 0.0000 0.0000 0.0000 0.0000 24.6783 0.0000
# 6 0.0000 0.0000 0.0000 0.0000 0.0000 27.9893
#
#
#
# Elastic Compliance Matrix: (Units=1/GPa)
#
#
# Indices 1 2 3 4 5 6 
#
# 1 0.024407 -0.004715 -0.006550 -0.000001 0.000000 0.000000
# 2 -0.004715 0.015069 -0.010666 0.000000 0.000000 0.000000
# 3 -0.006550 -0.010666 0.024777 0.000003 0.000000 0.000000
# 4 -0.000001 0.000000 0.000003 0.549221 -0.000001 0.000000
# 5 0.000000 0.000000 0.000000 -0.000001 0.040521 0.000000
# 6 0.000000 0.000000 0.000000 0.000000 0.000000 0.035728
#
#
# Mechanical properties :
#
#
# Convention : Reuss Voigt Hill
#
# Bulk Modulus (GPa) = 49.04296 60.04457 54.54377
# Shear Modulus (GPa) = 6.75327 18.93524 12.84426
#
# Velocity S-wave (km/s) = 1.96264 3.28638 2.70668
# Velocity P-wave (km/s) = 5.75405 6.97486 6.39366
#
# Compressibility (1/GPa) = 0.02039028
#
# Stress axis : x y z
#
# Youngs Moduli (GPa) = 40.97153 66.36333 40.36002
#
# Poissons Ratio (x) = 0.31291 0.26434
# Poissons Ratio (y) = 0.19319 0.43050
# Poissons Ratio (z) = 0.26835 0.70786
#
# Static dielectric constant tensor:
#      x y z
#    x 3.153710 0.000000 0.000000 
#    y 0.000000 4.017430 0.000000 
#    z 0.000000 0.000000 2.927190 
# 
# 
# High freq. dielectric constant tensor:
#      x y z
#    x 1.666100 0.000000 0.000000 
#    y 0.000000 1.700850 0.000000 
#    z 0.000000 0.000000 1.635750 
# 
# From -- ./inp_files/49159.got.cif
#   From: 2010.03.12/outbox.cif.g09.slc.cpg/sg74_25_cif.got.tgz:49159.got - 2010.04.16 15:46:19.
