data_PCOD8298805
_publ_section_title
;
Structure prediction by ZEFSAII (Michael W. Deem and Ramdas Pophale) SiO2 
 PCOD8298805
Probable space group: I M M A
;
_chemical_formula_sum "Si O2"
_cell_formula_units_Z 96
_cell_length_a 13.313991
_cell_length_b 15.383915
_cell_length_c 21.291615
_cell_angle_alpha 90.000000
_cell_angle_beta 90.000000
_cell_angle_gamma 90.000000
_cell_volume 4360.976388
_symmetry_space_group_name_H-M "I M M A"
_symmetry_group_IT_number 74
_symmetry_cell_setting 'orthorhombic'
loop_
_space_group_symop_operation_xyz
x,y,z
-x,1/2-y,z
x,-y,-z
-x,1/2+y,-z
-x,-y,-z
x,1/2+y,-z
-x,y,z
x,1/2-y,z
1/2+x,1/2+y,1/2+z
1/2-x,-y,1/2+z
1/2+x,1/2-y,1/2-z
1/2-x,y,1/2-z
1/2-x,1/2-y,1/2-z
1/2+x,y,1/2-z
1/2-x,1/2+y,1/2+z
1/2+x,-y,1/2+z
loop_
_atom_site_type_symbol
_atom_site_label
_atom_site_fract_x
_atom_site_fract_y
_atom_site_fract_z
Si Si1 0.616307 0.156561 0.853287
Si Si2 0.113696 0.898275 0.489245
Si Si3 0.888212 0.010802 0.286306
Si Si4 0.311010 0.979992 0.652031
Si Si5 0.383570 0.150087 0.590233
Si Si6 0.690201 0.652987 0.547076
O O1 0.500000 0.168131 0.866485
O O2 0.665655 0.250000 0.837364
O O3 0.658611 0.120390 0.919726
O O4 0.632132 0.092586 0.794430
O O5 0.189186 0.852547 0.537847
O O6 0.000000 0.863447 0.499752
O O7 0.118534 0.000000 0.500000
O O8 0.802538 0.051916 0.330749
O O9 0.878590 0.035214 0.213663
O O10 0.000000 0.037194 0.310387
O O11 0.350219 0.916320 0.597814
O O12 0.318659 0.081793 0.631906
O O13 0.500000 0.135055 0.606620
O O14 0.351721 0.250000 0.605907
O O15 0.367394 0.130408 0.516927
O O16 0.663243 0.750000 0.570363
#
# Coordination Sequence:
#
# PCOD8298805 Si02
#       6
#    16  16  16  16  16  16
#     4   9  17  30  50  78 112 147 181 221 277 347
#     4  10  19  32  55  88 125 161 195 237 295 363
#     4  10  22  39  58  82 113 151 197 246 296 353
#     4  11  23  39  61  86 115 155 198 244 298 350
#     4  10  22  40  63  92 123 154 190 234 289 356
#     4  11  23  38  58  86 119 156 202 250 296 349
#
# _framework density 22.013418999999999
#
# number of rings (size 3 to 8) (size 9 to 14) (size 15 to 20)
#    0.000    1.833    0.000    4.500    0.000    7.667 
#    0.000    5.000    0.000    1.000    0.000    0.000 
#    0.000    0.000    0.000    0.000    0.000    0.000 
#
# Total GULP energy -594899.110827 kJ/mol
# GULP energy per Si atom -12393.731476 kJ/mol
# Density = 2.196332 g / cm^3
# Si number density = 22.013419 Si / 1000 Ang^3
#
#
#
# Elastic Constant Matrix: (Units=GPa)
#
#
# Indices 1 2 3 4 5 6 
#
# 1 77.0083 3.5264 21.0749 0.0000 0.0000 0.0000
# 2 3.5264 66.0070 28.1266 0.0000 0.0000 0.0000
# 3 21.0749 28.1266 86.4933 0.0000 0.0000 0.0000
# 4 0.0000 0.0000 0.0000 20.8909 0.0000 0.0000
# 5 0.0000 0.0000 0.0000 0.0000 17.1097 0.0000
# 6 0.0000 0.0000 0.0000 0.0000 0.0000 2.0494
#
#
#
# Elastic Compliance Matrix: (Units=1/GPa)
#
#
# Indices 1 2 3 4 5 6 
#
# 1 0.013951 0.000816 -0.003665 0.000000 0.000000 0.000000
# 2 0.000816 0.017635 -0.005933 0.000000 0.000000 0.000000
# 3 -0.003665 -0.005933 0.014384 0.000000 0.000000 0.000000
# 4 0.000000 0.000000 0.000000 0.047868 0.000000 0.000000
# 5 0.000000 0.000000 0.000000 0.000000 0.058446 0.000000
# 6 0.000000 0.000000 0.000000 0.000000 0.000000 0.487940
#
#
# Mechanical properties :
#
#
# Convention : Reuss Voigt Hill
#
# Bulk Modulus (GPa) = 35.20395 37.21828 36.21112
# Shear Modulus (GPa) = 7.49337 19.79539 13.64438
#
# Velocity S-wave (km/s) = 1.84699 3.00199 2.49232
# Velocity P-wave (km/s) = 4.53600 5.38142 4.97670
#
# Compressibility (1/GPa) = 0.02840590
#
# Stress axis : x y z
#
# Youngs Moduli (GPa) = 71.67859 56.70657 69.52146
#
# Poissons Ratio (x) = -0.04629 0.25478
# Poissons Ratio (y) = -0.05851 0.41250
# Poissons Ratio (z) = 0.26269 0.33647
#
# Static dielectric constant tensor:
#      x y z
#    x 4.147390 0.000000 0.000000 
#    y 0.000000 3.979810 0.000000 
#    z 0.000000 0.000000 3.734700 
# 
# 
# High freq. dielectric constant tensor:
#      x y z
#    x 1.880050 0.000000 0.000000 
#    y 0.000000 1.839190 0.000000 
#    z 0.000000 0.000000 1.848460 
# 
# From -- ./inp_files/51881.got.cif
#   From: 2010.03.12/outbox.cif.g09.slc.cpg/sg74_26_cif.got.tgz:51881.got - 2010.04.16 15:46:19.
