data_PCOD8298214
_publ_section_title
;
Structure prediction by ZEFSAII (Michael W. Deem and Ramdas Pophale) SiO2 
 PCOD8298214
Probable space group: I M M A
;
_chemical_formula_sum "Si O2"
_cell_formula_units_Z 112
_cell_length_a 26.724422
_cell_length_b 14.331810
_cell_length_c 15.073985
_cell_angle_alpha 90.000000
_cell_angle_beta 90.000000
_cell_angle_gamma 90.000000
_cell_volume 5773.477023
_symmetry_space_group_name_H-M "I M M A"
_symmetry_group_IT_number 74
_symmetry_cell_setting 'orthorhombic'
loop_
_space_group_symop_operation_xyz
x,y,z
-x,1/2-y,z
x,-y,-z
-x,1/2+y,-z
-x,-y,-z
x,1/2+y,-z
-x,y,z
x,1/2-y,z
1/2+x,1/2+y,1/2+z
1/2-x,-y,1/2+z
1/2+x,1/2-y,1/2-z
1/2-x,y,1/2-z
1/2-x,1/2-y,1/2-z
1/2+x,y,1/2-z
1/2-x,1/2+y,1/2+z
1/2+x,-y,1/2+z
loop_
_atom_site_type_symbol
_atom_site_label
_atom_site_fract_x
_atom_site_fract_y
_atom_site_fract_z
Si Si1 0.557764 0.646923 0.143017
Si Si2 0.708600 0.910179 0.548260
Si Si3 0.941661 0.046489 0.288383
Si Si4 0.356288 0.642764 0.704091
Si Si5 0.212667 0.009480 0.320866
Si Si6 0.799477 0.352986 0.548691
Si Si7 0.605369 0.855872 0.954592
O O1 0.500000 0.645268 0.117121
O O2 0.572779 0.750000 0.180766
O O3 0.568301 0.565583 0.215834
O O4 0.585984 0.623654 0.052742
O O5 0.664536 0.859281 0.602826
O O6 0.753140 0.931896 0.614277
O O7 0.739743 0.851767 0.474538
O O8 0.684560 0.000000 0.500000
O O9 0.912391 0.100082 0.208875
O O10 0.921480 0.079066 0.383918
O O11 0.000000 0.070815 0.277944
O O12 0.355742 0.750000 0.736456
O O13 0.325760 0.579705 0.773410
O O14 0.250000 0.962303 0.250000
O O15 0.186070 0.925142 0.373186
O O16 0.814251 0.250000 0.582972
O O17 0.834562 0.376963 0.462393
O O18 0.594928 0.750000 0.924890
#
# Coordination Sequence:
#
# PCOD8298214 Si02
#       7
#    16  16  16  16  16  16  16
#     4   9  18  32  49  69  97 138 180 210 242 292
#     4   9  19  35  53  74 101 131 168 212 254 302
#     4  11  22  34  50  74 104 134 167 214 265 308
#     4  11  22  35  54  77 104 139 174 209 253 305
#     4   9  19  33  50  76 106 134 167 211 256 299
#     4  10  19  32  52  75 102 139 178 213 251 298
#     4  10  19  29  44  70 105 143 179 212 246 292
#
# _framework density 19.399056000000002
#
# number of rings (size 3 to 8) (size 9 to 14) (size 15 to 20)
#    0.000    2.143    0.000    3.429    0.000    9.714 
#    0.000    0.000    0.000    4.714    0.000    0.000 
#    0.000    0.000    0.000    0.000    0.000    0.000 
#
# Total GULP energy -693790.170501 kJ/mol
# GULP energy per Si atom -12389.110188 kJ/mol
# Density = 1.935490 g / cm^3
# Si number density = 19.399056 Si / 1000 Ang^3
#
#
#
# Elastic Constant Matrix: (Units=GPa)
#
#
# Indices 1 2 3 4 5 6 
#
# 1 98.2192 53.2089 31.8030 0.0000 0.0000 0.0000
# 2 53.2089 119.4312 31.6752 0.0000 0.0000 0.0000
# 3 31.8030 31.6752 43.3598 0.0000 0.0000 0.0000
# 4 0.0000 0.0000 0.0000 16.2116 0.0000 0.0000
# 5 0.0000 0.0000 0.0000 0.0000 27.0905 0.0000
# 6 0.0000 0.0000 0.0000 0.0000 0.0000 22.1914
#
#
#
# Elastic Compliance Matrix: (Units=1/GPa)
#
#
# Indices 1 2 3 4 5 6 
#
# 1 0.015253 -0.004748 -0.007719 0.000000 0.000000 0.000000
# 2 -0.004748 0.011863 -0.005184 0.000000 0.000000 0.000000
# 3 -0.007719 -0.005184 0.032511 0.000000 0.000000 0.000000
# 4 0.000000 0.000000 0.000000 0.061684 0.000000 0.000000
# 5 0.000000 0.000000 0.000000 0.000000 0.036913 0.000000
# 6 0.000000 0.000000 0.000000 0.000000 0.000000 0.045062
#
#
# Mechanical properties :
#
#
# Convention : Reuss Voigt Hill
#
# Bulk Modulus (GPa) = 41.10862 54.93162 48.02012
# Shear Modulus (GPa) = 20.26775 22.72025 21.49400
#
# Velocity S-wave (km/s) = 3.23581 3.42600 3.33226
# Velocity P-wave (km/s) = 5.93276 6.63537 6.29388
#
# Compressibility (1/GPa) = 0.02432580
#
# Stress axis : x y z
#
# Youngs Moduli (GPa) = 65.56099 84.29370 30.75879
#
# Poissons Ratio (x) = 0.40026 0.23742
# Poissons Ratio (y) = 0.31131 0.15944
# Poissons Ratio (z) = 0.50605 0.43695
#
# Static dielectric constant tensor:
#      x y z
#    x 3.814820 0.000000 0.000000 
#    y 0.000000 3.726860 0.000000 
#    z 0.000000 0.000000 3.696970 
# 
# 
# High freq. dielectric constant tensor:
#      x y z
#    x 1.749960 0.000000 0.000000 
#    y 0.000000 1.766590 0.000000 
#    z 0.000000 0.000000 1.706080 
# 
# From -- ./inp_files/37378.got.cif
#   From: 2010.03.12/outbox.cif.g09.slc.cpg/sg74_19_cif.got.tgz:37378.got - 2010.04.16 15:46:19.
