data_PCOD8298374
_publ_section_title
;
Structure prediction by ZEFSAII (Michael W. Deem and Ramdas Pophale) SiO2 
 PCOD8298374
Probable space group: I M M A
;
_chemical_formula_sum "Si O2"
_cell_formula_units_Z 96
_cell_length_a 8.688447
_cell_length_b 24.650177
_cell_length_c 25.147385
_cell_angle_alpha 90.000000
_cell_angle_beta 90.000000
_cell_angle_gamma 90.000000
_cell_volume 5385.859614
_symmetry_space_group_name_H-M "I M M A"
_symmetry_group_IT_number 74
_symmetry_cell_setting 'orthorhombic'
loop_
_space_group_symop_operation_xyz
x,y,z
-x,1/2-y,z
x,-y,-z
-x,1/2+y,-z
-x,-y,-z
x,1/2+y,-z
-x,y,z
x,1/2-y,z
1/2+x,1/2+y,1/2+z
1/2-x,-y,1/2+z
1/2+x,1/2-y,1/2-z
1/2-x,y,1/2-z
1/2-x,1/2-y,1/2-z
1/2+x,y,1/2-z
1/2-x,1/2+y,1/2+z
1/2+x,-y,1/2+z
loop_
_atom_site_type_symbol
_atom_site_label
_atom_site_fract_x
_atom_site_fract_y
_atom_site_fract_z
Si Si1 0.816386 0.982796 0.420231
Si Si2 0.319019 0.921007 0.514001
Si Si3 0.828363 0.189531 0.897649
Si Si4 0.167903 0.854277 0.300386
Si Si5 0.321386 0.310364 0.007487
Si Si6 0.166638 0.479521 0.698737
O O1 0.734781 0.933564 0.453055
O O2 0.752601 0.985540 0.359397
O O3 0.000000 0.972667 0.421076
O O4 0.774620 0.039525 0.447411
O O5 0.500000 0.931469 0.519806
O O6 0.278209 0.859480 0.532414
O O7 0.832654 0.250000 0.873682
O O8 0.774407 0.149569 0.851816
O O9 0.000000 0.172475 0.917719
O O10 0.706349 0.187073 0.944770
O O11 0.250000 0.825824 0.250000
O O12 0.144990 0.916917 0.287693
O O13 0.000000 0.827101 0.309605
O O14 0.500000 0.320261 0.019682
O O15 0.271091 0.250000 0.028678
O O16 0.250000 0.506998 0.750000
O O17 0.000000 0.508060 0.695039
#
# Coordination Sequence:
#
# PCOD8298374 Si02
#       6
#    16  16  16  16  16  16
#     4  10  19  33  51  72 100 132 165 200 241 290
#     4  11  21  32  49  74 101 130 163 201 245 287
#     4  10  20  32  45  62  83 109 145 190 237 281
#     4  10  19  31  45  61  82 111 149 190 234 279
#     4  10  20  34  51  69  91 122 157 192 234 285
#     4   9  19  32  48  68  90 119 153 191 233 278
#
# _framework density 17.824453999999999
#
# number of rings (size 3 to 8) (size 9 to 14) (size 15 to 20)
#    0.000    2.000    0.000    5.500    0.000    5.667 
#    0.000    0.000    0.000    0.000    0.000    0.000 
#    0.000    0.667    0.000    2.167    0.000    2.667 
#
# Total GULP energy -594803.257463 kJ/mol
# GULP energy per Si atom -12391.734530 kJ/mol
# Density = 1.778388 g / cm^3
# Si number density = 17.824454 Si / 1000 Ang^3
#
#
#
# Elastic Constant Matrix: (Units=GPa)
#
#
# Indices 1 2 3 4 5 6 
#
# 1 69.4486 12.7336 12.8691 0.0000 0.0000 0.0000
# 2 12.7336 66.6457 0.3726 0.0000 0.0000 0.0000
# 3 12.8691 0.3726 68.1821 0.0000 0.0000 0.0000
# 4 0.0000 0.0000 0.0000 15.5262 0.0000 0.0000
# 5 0.0000 0.0000 0.0000 0.0000 23.5676 0.0000
# 6 0.0000 0.0000 0.0000 0.0000 0.0000 18.1720
#
#
#
# Elastic Compliance Matrix: (Units=1/GPa)
#
#
# Indices 1 2 3 4 5 6 
#
# 1 0.015477 -0.002941 -0.002905 0.000000 0.000000 0.000000
# 2 -0.002941 0.015564 0.000470 0.000000 0.000000 0.000000
# 3 -0.002905 0.000470 0.015212 0.000000 0.000000 0.000000
# 4 0.000000 0.000000 0.000000 0.064407 0.000000 0.000000
# 5 0.000000 0.000000 0.000000 0.000000 0.042431 0.000000
# 6 0.000000 0.000000 0.000000 0.000000 0.000000 0.055030
#
#
# Mechanical properties :
#
#
# Convention : Reuss Voigt Hill
#
# Bulk Modulus (GPa) = 28.16802 28.46967 28.31885
# Shear Modulus (GPa) = 21.67257 23.33991 22.50624
#
# Velocity S-wave (km/s) = 3.49074 3.62253 3.55725
# Velocity P-wave (km/s) = 5.66431 5.78826 5.72662
#
# Compressibility (1/GPa) = 0.03550125
#
# Stress axis : x y z
#
# Youngs Moduli (GPa) = 64.61341 64.25094 65.73598
#
# Poissons Ratio (x) = 0.18895 0.19097
# Poissons Ratio (y) = 0.19001 -0.03090
# Poissons Ratio (z) = 0.18771 -0.03020
#
# Static dielectric constant tensor:
#      x y z
#    x 3.591700 0.000000 0.000000 
#    y 0.000000 3.264660 0.000000 
#    z 0.000000 0.000000 3.108950 
# 
# 
# High freq. dielectric constant tensor:
#      x y z
#    x 1.702490 0.000000 0.000000 
#    y 0.000000 1.664230 0.000000 
#    z 0.000000 0.000000 1.656320 
# 
# From -- ./inp_files/57489.got.cif
#   From: 2010.03.12/outbox.cif.g09.slc.cpg/sg74_29_cif.got.tgz:57489.got - 2010.04.16 15:46:19.
