data_PCOD8298080
_publ_section_title
;
Structure prediction by ZEFSAII (Michael W. Deem and Ramdas Pophale) SiO2 
 PCOD8298080
Probable space group: I M M A
;
_chemical_formula_sum "Si O2"
_cell_formula_units_Z 100
_cell_length_a 7.934169
_cell_length_b 22.034755
_cell_length_c 29.455858
_cell_angle_alpha 90.000000
_cell_angle_beta 90.000000
_cell_angle_gamma 90.000000
_cell_volume 5149.693132
_symmetry_space_group_name_H-M "I M M A"
_symmetry_group_IT_number 74
_symmetry_cell_setting 'orthorhombic'
loop_
_space_group_symop_operation_xyz
x,y,z
-x,1/2-y,z
x,-y,-z
-x,1/2+y,-z
-x,-y,-z
x,1/2+y,-z
-x,y,z
x,1/2-y,z
1/2+x,1/2+y,1/2+z
1/2-x,-y,1/2+z
1/2+x,1/2-y,1/2-z
1/2-x,y,1/2-z
1/2-x,1/2-y,1/2-z
1/2+x,y,1/2-z
1/2-x,1/2+y,1/2+z
1/2+x,-y,1/2+z
loop_
_atom_site_type_symbol
_atom_site_label
_atom_site_fract_x
_atom_site_fract_y
_atom_site_fract_z
Si Si1 0.500000 0.750000 0.005452
Si Si2 0.802094 0.490491 0.552126
Si Si3 0.697693 0.926828 0.202165
Si Si4 0.500000 0.317220 0.079508
Si Si5 0.698761 0.063719 0.201854
Si Si6 0.311967 0.603233 0.608103
Si Si7 0.300774 0.627385 0.108638
Si Si8 0.813411 0.250000 0.930094
O O1 0.671469 0.750000 0.032407
O O2 0.500000 0.689010 0.975169
O O3 0.742835 0.500000 0.500000
O O4 0.709233 0.538248 0.584254
O O5 0.755892 0.423285 0.570444
O O6 0.000000 0.502880 0.556851
O O7 0.500000 0.929030 0.197817
O O8 0.750000 0.895116 0.250000
O O9 0.768072 0.892096 0.158213
O O10 0.769050 0.995033 0.201471
O O11 0.500000 0.250000 0.102428
O O12 0.328498 0.350590 0.091398
O O13 0.500000 0.067518 0.193002
O O14 0.750000 0.093815 0.250000
O O15 0.794293 0.098724 0.162209
O O16 0.500000 0.627825 0.597157
O O17 0.500000 0.639653 0.108363
O O18 0.204544 0.689689 0.099768
O O19 0.000000 0.250000 0.952136
#
# Coordination Sequence:
#
# PCOD8298080 Si02
#       8
#     4  16  16   8  16  16  16   8
#     4  10  26  50  68  88 120 172 212 274 316 364
#     4  10  21  36  62  89 125 167 205 259 327 379
#     4   9  18  32  56  86 124 166 206 260 318 375
#     4  10  26  46  68  87 127 171 205 262 321 366
#     4  10  18  34  58  93 133 166 207 257 317 375
#     4  12  23  39  65  98 128 163 213 260 318 386
#     4  10  20  39  61  86 126 172 210 262 324 381
#     4  12  26  42  67  93 123 167 223 266 317 386
#
# _framework density 19.418633
#
# number of rings (size 3 to 8) (size 9 to 14) (size 15 to 20)
#    0.240    1.440    4.000    0.480    2.240    3.200 
#    0.000    0.400    0.000    0.480    0.000    0.000 
#    0.000    0.000    0.000    0.000    0.000    0.000 
#
# Total GULP energy -619845.263361 kJ/mol
# GULP energy per Si atom -12396.905267 kJ/mol
# Density = 1.937443 g / cm^3
# Si number density = 19.418633 Si / 1000 Ang^3
#
#
#
# Elastic Constant Matrix: (Units=GPa)
#
#
# Indices 1 2 3 4 5 6 
#
# 1 111.8500 42.9644 37.4720 0.0000 0.0000 0.0000
# 2 42.9644 93.1568 39.2444 0.0000 0.0000 0.0000
# 3 37.4720 39.2444 147.9531 0.0000 0.0000 0.0000
# 4 0.0000 0.0000 0.0000 27.9840 0.0000 0.0000
# 5 0.0000 0.0000 0.0000 0.0000 16.8907 0.0000
# 6 0.0000 0.0000 0.0000 0.0000 0.0000 9.4851
#
#
#
# Elastic Compliance Matrix: (Units=1/GPa)
#
#
# Indices 1 2 3 4 5 6 
#
# 1 0.011213 -0.004475 -0.001653 0.000000 0.000000 0.000000
# 2 -0.004475 0.013871 -0.002546 0.000000 0.000000 0.000000
# 3 -0.001653 -0.002546 0.007853 0.000000 0.000000 0.000000
# 4 0.000000 0.000000 0.000000 0.035735 0.000000 0.000000
# 5 0.000000 0.000000 0.000000 0.000000 0.059204 0.000000
# 6 0.000000 0.000000 0.000000 0.000000 0.000000 0.105429
#
#
# Mechanical properties :
#
#
# Convention : Reuss Voigt Hill
#
# Bulk Modulus (GPa) = 64.14725 65.81348 64.98036
# Shear Modulus (GPa) = 19.54273 26.42390 22.98331
#
# Velocity S-wave (km/s) = 3.17581 3.69284 3.44404
# Velocity P-wave (km/s) = 6.82299 7.22137 7.02501
#
# Compressibility (1/GPa) = 0.01558913
#
# Stress axis : x y z
#
# Youngs Moduli (GPa) = 89.17904 72.09215 127.34283
#
# Poissons Ratio (x) = 0.32264 0.21049
# Poissons Ratio (y) = 0.39911 0.32419
# Poissons Ratio (z) = 0.14741 0.18353
#
# Static dielectric constant tensor:
#      x y z
#    x 3.468060 0.000000 0.000000 
#    y 0.000000 3.003960 0.000000 
#    z 0.000000 0.000000 3.970110 
# 
# 
# High freq. dielectric constant tensor:
#      x y z
#    x 1.754810 0.000000 0.000000 
#    y 0.000000 1.725640 0.000000 
#    z 0.000000 0.000000 1.768480 
# 
# From -- ./inp_files/70674.got.cif
#   From: 2010.03.12/outbox.cif.g09.slc.cpg/sg74_36_cif.got.tgz:70674.got - 2010.04.16 15:46:19.
