data_PCOD8298191
_publ_section_title
;
Structure prediction by ZEFSAII (Michael W. Deem and Ramdas Pophale) SiO2 
 PCOD8298191
Probable space group: I M M A
;
_chemical_formula_sum "Si O2"
_cell_formula_units_Z 96
_cell_length_a 15.179316
_cell_length_b 24.197872
_cell_length_c 17.179531
_cell_angle_alpha 90.000000
_cell_angle_beta 90.000000
_cell_angle_gamma 90.000000
_cell_volume 6310.164495
_symmetry_space_group_name_H-M "I M M A"
_symmetry_group_IT_number 74
_symmetry_cell_setting 'orthorhombic'
loop_
_space_group_symop_operation_xyz
x,y,z
-x,1/2-y,z
x,-y,-z
-x,1/2+y,-z
-x,-y,-z
x,1/2+y,-z
-x,y,z
x,1/2-y,z
1/2+x,1/2+y,1/2+z
1/2-x,-y,1/2+z
1/2+x,1/2-y,1/2-z
1/2-x,y,1/2-z
1/2-x,1/2-y,1/2-z
1/2+x,y,1/2-z
1/2-x,1/2+y,1/2+z
1/2+x,-y,1/2+z
loop_
_atom_site_type_symbol
_atom_site_label
_atom_site_fract_x
_atom_site_fract_y
_atom_site_fract_z
Si Si1 0.103323 0.189359 0.101955
Si Si2 0.323772 0.088876 0.308327
Si Si3 0.101374 0.421886 0.857129
Si Si4 0.250087 0.499776 0.911900
Si Si5 0.604132 0.810301 0.428964
Si Si6 0.401099 0.509523 0.210726
O O1 0.139413 0.250000 0.128275
O O2 0.125434 0.142947 0.164832
O O3 0.000000 0.192319 0.096105
O O4 0.140680 0.175387 0.015631
O O5 0.250000 0.110622 0.250000
O O6 0.385134 0.045203 0.262632
O O7 0.280806 0.060142 0.384004
O O8 0.166763 0.459026 0.908173
O O9 0.131860 0.358289 0.868667
O O10 0.109804 0.437200 0.766365
O O11 0.000000 0.431281 0.885794
O O12 0.331487 0.481188 0.857823
O O13 0.284727 0.500000 0.000000
O O14 0.500000 0.806718 0.432499
O O15 0.641235 0.750000 0.402034
O O16 0.500000 0.506284 0.176261
#
# Coordination Sequence:
#
# PCOD8298191 Si02
#       6
#    16  16  16  16  16  16
#     4   9  16  25  38  57  82 110 135 160 194 241
#     4   9  17  28  41  59  81 104 134 171 209 246
#     4   9  16  27  44  64  87 112 135 165 206 248
#     4  10  19  29  43  63  85 109 139 174 209 247
#     4   8  14  24  39  61  86 109 132 158 195 245
#     4   9  18  31  45  60  81 111 142 174 209 243
#
# _framework density 15.213549
#
# number of rings (size 3 to 8) (size 9 to 14) (size 15 to 20)
#    0.000    3.000    0.000    4.000    0.000    1.667 
#    0.000    0.000    0.000    2.000    0.000    0.000 
#    0.000    0.000    0.000   19.333    0.000    0.000 
#
# Total GULP energy -594743.679684 kJ/mol
# GULP energy per Si atom -12390.493327 kJ/mol
# Density = 1.517892 g / cm^3
# Si number density = 15.213549 Si / 1000 Ang^3
#
#
#
# Elastic Constant Matrix: (Units=GPa)
#
#
# Indices 1 2 3 4 5 6 
#
# 1 60.6305 32.1657 35.1889 0.0000 0.0000 0.0000
# 2 32.1657 111.2580 53.8587 -0.0002 0.0000 0.0000
# 3 35.1889 53.8587 89.6235 -0.0003 0.0000 0.0000
# 4 0.0000 -0.0002 -0.0003 3.9202 0.0000 0.0000
# 5 0.0000 0.0000 0.0000 0.0000 19.4543 0.0000
# 6 0.0000 0.0000 0.0000 0.0000 0.0000 14.9391
#
#
#
# Elastic Compliance Matrix: (Units=1/GPa)
#
#
# Indices 1 2 3 4 5 6 
#
# 1 0.022087 -0.003085 -0.006818 -0.000001 0.000000 0.000000
# 2 -0.003085 0.013106 -0.006665 0.000000 0.000000 0.000000
# 3 -0.006818 -0.006665 0.017840 0.000001 0.000000 0.000000
# 4 -0.000001 0.000000 0.000001 0.255090 0.000000 0.000000
# 5 0.000000 0.000000 0.000000 0.000000 0.051403 0.000000
# 6 0.000000 0.000000 0.000000 0.000000 0.000000 0.066938
#
#
# Mechanical properties :
#
#
# Convention : Reuss Voigt Hill
#
# Bulk Modulus (GPa) = 50.25782 55.99314 53.12548
# Shear Modulus (GPa) = 10.72423 17.01596 13.87009
#
# Velocity S-wave (km/s) = 2.65790 3.34799 3.02270
# Velocity P-wave (km/s) = 6.52119 7.19931 6.86862
#
# Compressibility (1/GPa) = 0.01989740
#
# Stress axis : x y z
#
# Youngs Moduli (GPa) = 45.27521 76.29828 56.05358
#
# Poissons Ratio (x) = 0.23538 0.38218
# Poissons Ratio (y) = 0.13967 0.37360
# Poissons Ratio (z) = 0.30869 0.50853
#
# Static dielectric constant tensor:
#      x y z
#    x 2.763080 0.000000 0.000000 
#    y 0.000000 3.128000 0.000000 
#    z 0.000000 0.000000 2.832660 
# 
# 
# High freq. dielectric constant tensor:
#      x y z
#    x 1.560190 0.000000 0.000000 
#    y 0.000000 1.582940 0.000000 
#    z 0.000000 0.000000 1.567630 
# 
# From -- ./inp_files/44532.got.cif
#   From: 2010.03.12/outbox.cif.g09.slc.cpg/sg74_23_cif.got.tgz:44532.got - 2010.04.16 15:46:19.
