data_PCOD8298160
_publ_section_title
;
Structure prediction by ZEFSAII (Michael W. Deem and Ramdas Pophale) SiO2 
 PCOD8298160
Probable space group: I M M A
;
_chemical_formula_sum "Si O2"
_cell_formula_units_Z 96
_cell_length_a 9.910667
_cell_length_b 27.563498
_cell_length_c 28.427244
_cell_angle_alpha 90.000000
_cell_angle_beta 90.000000
_cell_angle_gamma 90.000000
_cell_volume 7765.545577
_symmetry_space_group_name_H-M "I M M A"
_symmetry_group_IT_number 74
_symmetry_cell_setting 'orthorhombic'
loop_
_space_group_symop_operation_xyz
x,y,z
-x,1/2-y,z
x,-y,-z
-x,1/2+y,-z
-x,-y,-z
x,1/2+y,-z
-x,y,z
x,1/2-y,z
1/2+x,1/2+y,1/2+z
1/2-x,-y,1/2+z
1/2+x,1/2-y,1/2-z
1/2-x,y,1/2-z
1/2-x,1/2-y,1/2-z
1/2+x,y,1/2-z
1/2-x,1/2+y,1/2+z
1/2+x,-y,1/2+z
loop_
_atom_site_type_symbol
_atom_site_label
_atom_site_fract_x
_atom_site_fract_y
_atom_site_fract_z
Si Si1 0.652927 0.584796 0.117275
Si Si2 0.342413 0.649798 0.206696
Si Si3 0.844256 0.353319 0.524888
Si Si4 0.659818 0.750000 0.056955
Si Si5 0.151556 0.923694 0.980774
Si Si6 0.848762 0.514510 0.075134
Si Si7 0.840155 0.750000 0.338232
O O1 0.500000 0.566026 0.115112
O O2 0.684182 0.610935 0.166035
O O3 0.680083 0.623109 0.075832
O O4 0.747020 0.537259 0.113159
O O5 0.500000 0.650934 0.221095
O O6 0.250000 0.633529 0.250000
O O7 0.291710 0.702491 0.189585
O O8 0.794828 0.297647 0.528299
O O9 0.755959 0.379177 0.484378
O O10 0.000000 0.357341 0.509744
O O11 0.500000 0.750000 0.062950
O O12 0.723815 0.750000 0.109365
O O13 0.000000 0.903390 0.973710
O O14 0.191231 0.958844 0.937145
O O15 0.159187 0.954595 0.027946
O O16 0.000000 0.516282 0.095948
O O17 0.000000 0.750000 0.342955
#
# Coordination Sequence:
#
# PCOD8298160 Si02
#       7
#    16  16  16   8  16  16   8
#     4   9  16  25  37  52  66  82 107 140 174 206
#     4  10  19  29  40  52  66  86 112 145 184 220
#     4   9  15  23  37  52  65  85 113 140 167 201
#     4   9  14  23  38  52  66  88 116 144 175 211
#     4   8  14  24  35  49  69  88 103 126 163 203
#     4   8  14  24  37  50  66  87 105 124 161 208
#     4   9  15  27  42  50  62  86 114 146 184 219
#
# _framework density 12.362299
#
# number of rings (size 3 to 8) (size 9 to 14) (size 15 to 20)
#    0.000    3.167    1.667    1.250    0.000    1.333 
#    0.000    3.750    0.000    1.000    0.000    0.000 
#    0.000    0.000    0.000    0.000    0.000    0.000 
#
# Total GULP energy -594934.805021 kJ/mol
# GULP energy per Si atom -12394.475105 kJ/mol
# Density = 1.233416 g / cm^3
# Si number density = 12.362299 Si / 1000 Ang^3
#
#
#
# Elastic Constant Matrix: (Units=GPa)
#
#
# Indices 1 2 3 4 5 6 
#
# 1 67.3792 53.6891 36.9049 0.0000 0.0000 0.0000
# 2 53.6891 80.4960 41.7026 0.0000 0.0000 0.0000
# 3 36.9049 41.7026 39.0924 0.0000 0.0000 0.0000
# 4 0.0000 0.0000 0.0000 13.3822 0.0000 0.0000
# 5 0.0000 0.0000 0.0000 0.0000 17.5527 0.0000
# 6 0.0000 0.0000 0.0000 0.0000 0.0000 17.3953
#
#
#
# Elastic Compliance Matrix: (Units=1/GPa)
#
#
# Indices 1 2 3 4 5 6 
#
# 1 0.037251 -0.014814 -0.019364 0.000000 0.000000 0.000000
# 2 -0.014814 0.033662 -0.021925 0.000000 0.000000 0.000000
# 3 -0.019364 -0.021925 0.067249 0.000000 0.000000 0.000000
# 4 0.000000 0.000000 0.000000 0.074726 0.000000 0.000000
# 5 0.000000 0.000000 0.000000 0.000000 0.056971 0.000000
# 6 0.000000 0.000000 0.000000 0.000000 0.000000 0.057487
#
#
# Mechanical properties :
#
#
# Convention : Reuss Voigt Hill
#
# Bulk Modulus (GPa) = 38.52396 50.17340 44.34868
# Shear Modulus (GPa) = 11.15562 13.31078 12.23320
#
# Velocity S-wave (km/s) = 3.00724 3.28491 3.14914
# Velocity P-wave (km/s) = 6.57937 7.42034 7.01247
#
# Compressibility (1/GPa) = 0.02595787
#
# Stress axis : x y z
#
# Youngs Moduli (GPa) = 26.84458 29.70680 14.87008
#
# Poissons Ratio (x) = 0.44008 0.28794
# Poissons Ratio (y) = 0.39768 0.32602
# Poissons Ratio (z) = 0.51981 0.65131
#
# Static dielectric constant tensor:
#      x y z
#    x 2.554490 0.000000 0.000000 
#    y 0.000000 2.648730 0.000000 
#    z 0.000000 0.000000 2.262400 
# 
# 
# High freq. dielectric constant tensor:
#      x y z
#    x 1.464730 0.000000 0.000000 
#    y 0.000000 1.456930 0.000000 
#    z 0.000000 0.000000 1.422800 
# 
# From -- ./inp_files/54689.got.cif
#   From: 2010.03.12/outbox.cif.g09.slc.cpg/sg74_28_cif.got.tgz:54689.got - 2010.04.16 15:46:19.
