data_PCOD8298734
_publ_section_title
;
Structure prediction by ZEFSAII (Michael W. Deem and Ramdas Pophale) SiO2 
 PCOD8298734
Probable space group: I M M A
;
_chemical_formula_sum "Si O2"
_cell_formula_units_Z 72
_cell_length_a 8.751664
_cell_length_b 14.561075
_cell_length_c 29.155406
_cell_angle_alpha 90.000000
_cell_angle_beta 90.000000
_cell_angle_gamma 90.000000
_cell_volume 3715.379392
_symmetry_space_group_name_H-M "I M M A"
_symmetry_group_IT_number 74
_symmetry_cell_setting 'orthorhombic'
loop_
_space_group_symop_operation_xyz
x,y,z
-x,1/2-y,z
x,-y,-z
-x,1/2+y,-z
-x,-y,-z
x,1/2+y,-z
-x,y,z
x,1/2-y,z
1/2+x,1/2+y,1/2+z
1/2-x,-y,1/2+z
1/2+x,1/2-y,1/2-z
1/2-x,y,1/2-z
1/2-x,1/2-y,1/2-z
1/2+x,y,1/2-z
1/2-x,1/2+y,1/2+z
1/2+x,-y,1/2+z
loop_
_atom_site_type_symbol
_atom_site_label
_atom_site_fract_x
_atom_site_fract_y
_atom_site_fract_z
Si Si1 0.320153 0.594762 0.617451
Si Si2 0.179145 0.250000 0.948262
Si Si3 0.818127 0.388858 0.872279
Si Si4 0.682970 0.250000 0.449875
Si Si5 0.334078 0.645489 0.792483
Si Si6 0.817516 0.750000 0.301321
O O1 0.500000 0.589136 0.613551
O O2 0.254322 0.491432 0.619591
O O3 0.256851 0.657245 0.575520
O O4 0.273817 0.644279 0.663817
O O5 0.229259 0.161270 0.919371
O O6 0.000000 0.250000 0.956030
O O7 0.254122 0.250000 0.998899
O O8 0.738978 0.341087 0.828425
O O9 0.000000 0.384448 0.864004
O O10 0.500000 0.250000 0.449412
O O11 0.500000 0.598643 0.801518
O O12 0.362413 0.750000 0.778312
O O13 0.250000 0.594264 0.750000
O O14 0.750000 0.750000 0.250000
O O15 0.000000 0.750000 0.298705
#
# Coordination Sequence:
#
# PCOD8298734 Si02
#       6
#    16   8  16   8  16   8
#     4  10  19  32  52  79 111 143 179 221 265 314
#     4   8  15  31  52  77 108 139 177 222 270 317
#     4   9  19  35  55  80 111 144 177 220 268 316
#     4   9  17  29  51  81 110 142 179 221 264 313
#     4  10  20  33  50  71  99 137 176 215 259 309
#     4  11  22  38  61  84 108 139 176 221 267 318
#
# _framework density 19.378910000000001
#
# number of rings (size 3 to 8) (size 9 to 14) (size 15 to 20)
#    0.000    2.444    1.111    2.333    0.000    3.556 
#    0.000    4.444    0.000    5.333    0.000    7.778 
#    0.000    0.000    0.000    0.000    0.000    0.000 
#
# Total GULP energy -446102.745071 kJ/mol
# GULP energy per Si atom -12391.742919 kJ/mol
# Density = 1.933480 g / cm^3
# Si number density = 19.378910 Si / 1000 Ang^3
#
#
#
# Elastic Constant Matrix: (Units=GPa)
#
#
# Indices 1 2 3 4 5 6 
#
# 1 23.7588 39.6514 25.9865 0.0000 0.0000 0.0000
# 2 39.6514 129.1524 67.6955 0.0000 0.0000 0.0000
# 3 25.9865 67.6955 182.1828 0.0000 0.0000 0.0000
# 4 0.0000 0.0000 0.0000 9.3669 0.0000 0.0000
# 5 0.0000 0.0000 0.0000 0.0000 19.8040 0.0000
# 6 0.0000 0.0000 0.0000 0.0000 0.0000 16.2713
#
#
#
# Elastic Compliance Matrix: (Units=1/GPa)
#
#
# Indices 1 2 3 4 5 6 
#
# 1 0.087713 -0.025298 -0.003111 0.000000 0.000000 0.000000
# 2 -0.025298 0.016912 -0.002676 0.000000 0.000000 0.000000
# 3 -0.003111 -0.002676 0.006927 0.000000 0.000000 0.000000
# 4 0.000000 0.000000 0.000000 0.106759 0.000000 0.000000
# 5 0.000000 0.000000 0.000000 0.000000 0.050495 0.000000
# 6 0.000000 0.000000 0.000000 0.000000 0.000000 0.061458
#
#
# Mechanical properties :
#
#
# Convention : Reuss Voigt Hill
#
# Bulk Modulus (GPa) = 20.25026 66.86230 43.55628
# Shear Modulus (GPa) = 12.22810 22.53916 17.38363
#
# Velocity S-wave (km/s) = 2.51470 3.41409 2.99831
# Velocity P-wave (km/s) = 4.34786 7.07947 5.87464
#
# Compressibility (1/GPa) = 0.04938209
#
# Stress axis : x y z
#
# Youngs Moduli (GPa) = 11.40083 59.12917 144.36334
#
# Poissons Ratio (x) = 1.49587 0.44911
# Poissons Ratio (y) = 0.28842 0.38627
# Poissons Ratio (z) = 0.03547 0.15821
#
# Static dielectric constant tensor:
#      x y z
#    x 3.385670 0.000000 0.000000 
#    y 0.000000 4.113880 0.000000 
#    z 0.000000 0.000000 3.693290 
# 
# 
# High freq. dielectric constant tensor:
#      x y z
#    x 1.725600 0.000000 0.000000 
#    y 0.000000 1.748170 0.000000 
#    z 0.000000 0.000000 1.758380 
# 
# From -- ./inp_files/63706.got.cif
#   From: 2010.03.12/outbox.cif.g09.slc.cpg/sg74_32_cif.got.tgz:63706.got - 2010.04.16 15:46:19.
