data_PCOD8298395
_publ_section_title
;
Structure prediction by ZEFSAII (Michael W. Deem and Ramdas Pophale) SiO2 
 PCOD8298395
Probable space group: I M M A
;
_chemical_formula_sum "Si O2"
_cell_formula_units_Z 80
_cell_length_a 8.653491
_cell_length_b 23.628346
_cell_length_c 25.747449
_cell_angle_alpha 90.000000
_cell_angle_beta 90.000000
_cell_angle_gamma 90.000000
_cell_volume 5264.521149
_symmetry_space_group_name_H-M "I M M A"
_symmetry_group_IT_number 74
_symmetry_cell_setting 'orthorhombic'
loop_
_space_group_symop_operation_xyz
x,y,z
-x,1/2-y,z
x,-y,-z
-x,1/2+y,-z
-x,-y,-z
x,1/2+y,-z
-x,y,z
x,1/2-y,z
1/2+x,1/2+y,1/2+z
1/2-x,-y,1/2+z
1/2+x,1/2-y,1/2-z
1/2-x,y,1/2-z
1/2-x,1/2-y,1/2-z
1/2+x,y,1/2-z
1/2-x,1/2+y,1/2+z
1/2+x,-y,1/2+z
loop_
_atom_site_type_symbol
_atom_site_label
_atom_site_fract_x
_atom_site_fract_y
_atom_site_fract_z
Si Si1 0.170357 0.030863 0.054861
Si Si2 0.679772 0.068645 0.894474
Si Si3 0.317730 0.750000 0.145839
Si Si4 0.681984 0.137133 0.694220
Si Si5 0.682542 0.750000 0.025459
Si Si6 0.317159 0.633173 0.491234
O O1 0.000000 0.030303 0.080581
O O2 0.286772 0.997438 0.092650
O O3 0.223916 0.095184 0.042236
O O4 0.162644 0.000000 0.000000
O O5 0.500000 0.077413 0.884100
O O6 0.773127 0.085381 0.843202
O O7 0.729884 0.109655 0.940925
O O8 0.500000 0.750000 0.152481
O O9 0.250924 0.695262 0.173315
O O10 0.269001 0.750000 0.085713
O O11 0.500000 0.143349 0.697867
O O12 0.750000 0.122532 0.750000
O O13 0.500000 0.750000 0.017653
O O14 0.756861 0.804118 0.997197
O O15 0.500000 0.631811 0.480185
#
# Coordination Sequence:
#
# PCOD8298395 Si02
#       6
#    16  16   8  16   8  16
#     4   8  16  30  46  65  86 112 144 179 219 267
#     4  11  20  31  47  67  88 112 145 185 227 270
#     4  11  22  36  49  65  87 115 152 193 233 273
#     4  12  24  37  51  65  85 115 151 193 234 273
#     4  11  21  30  46  67  92 119 151 190 227 268
#     4  10  19  31  47  65  88 117 150 182 221 268
#
# _framework density 15.196065000000001
#
# number of rings (size 3 to 8) (size 9 to 14) (size 15 to 20)
#    0.000    1.600    2.000    6.300    0.000    5.200 
#    0.000    0.000    0.000    0.000    0.000    0.000 
#    0.000    0.000    0.000    0.900    0.000   11.800 
#
# Total GULP energy -495989.460824 kJ/mol
# GULP energy per Si atom -12399.736521 kJ/mol
# Density = 1.516148 g / cm^3
# Si number density = 15.196065 Si / 1000 Ang^3
#
#
#
# Elastic Constant Matrix: (Units=GPa)
#
#
# Indices 1 2 3 4 5 6 
#
# 1 75.9327 29.7719 23.3914 0.0000 0.0000 0.0000
# 2 29.7719 109.2708 44.3083 0.0000 0.0000 0.0000
# 3 23.3914 44.3083 50.4397 0.0000 0.0000 0.0000
# 4 0.0000 0.0000 0.0000 12.8147 0.0000 0.0000
# 5 0.0000 0.0000 0.0000 0.0000 20.4109 0.0000
# 6 0.0000 0.0000 0.0000 0.0000 0.0000 24.1250
#
#
#
# Elastic Compliance Matrix: (Units=1/GPa)
#
#
# Indices 1 2 3 4 5 6 
#
# 1 0.015655 -0.002053 -0.005457 0.000000 0.000000 0.000000
# 2 -0.002053 0.014484 -0.011771 0.000000 0.000000 0.000000
# 3 -0.005457 -0.011771 0.032697 0.000000 0.000000 0.000000
# 4 0.000000 0.000000 0.000000 0.078035 0.000000 0.000000
# 5 0.000000 0.000000 0.000000 0.000000 0.048994 0.000000
# 6 0.000000 0.000000 0.000000 0.000000 0.000000 0.041451
#
#
# Mechanical properties :
#
#
# Convention : Reuss Voigt Hill
#
# Bulk Modulus (GPa) = 41.19631 47.84293 44.51962
# Shear Modulus (GPa) = 17.98759 20.68157 19.33458
#
# Velocity S-wave (km/s) = 3.44423 3.69315 3.57086
# Velocity P-wave (km/s) = 6.55634 7.05251 6.80895
#
# Compressibility (1/GPa) = 0.02427402
#
# Stress axis : x y z
#
# Youngs Moduli (GPa) = 63.87558 69.04134 30.58397
#
# Poissons Ratio (x) = 0.14172 0.16690
# Poissons Ratio (y) = 0.13112 0.36002
# Poissons Ratio (z) = 0.34857 0.81272
#
# Static dielectric constant tensor:
#      x y z
#    x 3.036000 0.000000 0.000000 
#    y 0.000000 3.287720 0.000000 
#    z 0.000000 0.000000 2.861920 
# 
# 
# High freq. dielectric constant tensor:
#      x y z
#    x 1.600290 0.000000 0.000000 
#    y 0.000000 1.579490 0.000000 
#    z 0.000000 0.000000 1.535460 
# 
# From -- ./inp_files/48621.got.cif
#   From: 2010.03.12/outbox.cif.g09.slc.cpg/sg74_25_cif.got.tgz:48621.got - 2010.04.16 15:46:19.
