data_PCOD8298731
_publ_section_title
;
Structure prediction by ZEFSAII (Michael W. Deem and Ramdas Pophale) SiO2 
 PCOD8298731
Probable space group: I M M A
;
_chemical_formula_sum "Si O2"
_cell_formula_units_Z 112
_cell_length_a 15.135903
_cell_length_b 15.394448
_cell_length_c 24.249334
_cell_angle_alpha 90.000000
_cell_angle_beta 90.000000
_cell_angle_gamma 90.000000
_cell_volume 5650.309954
_symmetry_space_group_name_H-M "I M M A"
_symmetry_group_IT_number 74
_symmetry_cell_setting 'orthorhombic'
loop_
_space_group_symop_operation_xyz
x,y,z
-x,1/2-y,z
x,-y,-z
-x,1/2+y,-z
-x,-y,-z
x,1/2+y,-z
-x,y,z
x,1/2-y,z
1/2+x,1/2+y,1/2+z
1/2-x,-y,1/2+z
1/2+x,1/2-y,1/2-z
1/2-x,y,1/2-z
1/2-x,1/2-y,1/2-z
1/2+x,y,1/2-z
1/2-x,1/2+y,1/2+z
1/2+x,-y,1/2+z
loop_
_atom_site_type_symbol
_atom_site_label
_atom_site_fract_x
_atom_site_fract_y
_atom_site_fract_z
Si Si1 0.398769 0.968349 0.696184
Si Si2 0.189838 0.094527 0.607540
Si Si3 0.400634 0.153624 0.202417
Si Si4 0.500000 0.155939 0.024758
Si Si5 0.687711 0.351860 0.014636
Si Si6 0.500000 0.843659 0.105252
Si Si7 0.311956 0.346586 0.698039
Si Si8 0.246135 0.594792 0.624951
O O1 0.500000 0.955836 0.678994
O O2 0.378947 0.923454 0.754833
O O3 0.342262 0.912473 0.652353
O O4 0.379672 0.072127 0.696954
O O5 0.213647 0.103630 0.542751
O O6 0.088378 0.108703 0.624051
O O7 0.253771 0.156958 0.642278
O O8 0.204331 0.998663 0.627137
O O9 0.500000 0.138802 0.177506
O O10 0.397670 0.250000 0.230202
O O11 0.324226 0.155526 0.156232
O O12 0.500000 0.250000 0.054597
O O13 0.406744 0.108326 0.038185
O O14 0.500000 0.168205 0.959547
O O15 0.675794 0.250000 0.002534
O O16 0.759545 0.370574 0.062092
O O17 0.500000 0.750000 0.134366
O O18 0.357752 0.250000 0.702141
O O19 0.250000 0.362724 0.750000
#
# Coordination Sequence:
#
# PCOD8298731 Si02
#       8
#    16  16  16   8  16   8  16  16
#     4  10  22  41  60  80 112 151 196 247 297 343
#     4  10  20  34  53  79 118 154 183 226 282 347
#     4  10  22  39  61  87 117 152 186 229 292 354
#     4   7  14  27  43  67 103 141 177 215 258 325
#     4  10  19  32  52  78 112 152 188 227 278 341
#     4   9  16  29  49  73 104 149 185 205 255 339
#     4  10  20  37  60  87 115 146 190 242 292 346
#     4  11  22  34  55  85 112 146 193 240 281 333
#
# _framework density 19.821922000000001
#
# number of rings (size 3 to 8) (size 9 to 14) (size 15 to 20)
#    0.000    2.143    0.000    5.143    2.000    2.000 
#    1.286    2.143    0.000    6.857    0.000    0.000 
#    0.000    0.000    0.000    0.000    0.000    0.000 
#
# Total GULP energy -693846.593727 kJ/mol
# GULP energy per Si atom -12390.117745 kJ/mol
# Density = 1.977681 g / cm^3
# Si number density = 19.821922 Si / 1000 Ang^3
#
#
#
# Elastic Constant Matrix: (Units=GPa)
#
#
# Indices 1 2 3 4 5 6 
#
# 1 94.4876 27.5581 47.6825 0.0000 0.0000 0.0000
# 2 27.5581 67.0367 14.2194 0.0000 0.0000 0.0000
# 3 47.6825 14.2194 93.7259 0.0000 0.0000 0.0000
# 4 0.0000 0.0000 0.0000 23.7376 0.0000 0.0000
# 5 0.0000 0.0000 0.0000 0.0000 26.6182 0.0000
# 6 0.0000 0.0000 0.0000 0.0000 0.0000 5.9311
#
#
#
# Elastic Compliance Matrix: (Units=1/GPa)
#
#
# Indices 1 2 3 4 5 6 
#
# 1 0.015659 -0.004905 -0.007222 0.000000 0.000000 0.000000
# 2 -0.004905 0.016950 -0.000076 0.000000 0.000000 0.000000
# 3 -0.007222 -0.000076 0.014355 0.000000 0.000000 0.000000
# 4 0.000000 0.000000 0.000000 0.042127 0.000000 0.000000
# 5 0.000000 0.000000 0.000000 0.000000 0.037568 0.000000
# 6 0.000000 0.000000 0.000000 0.000000 0.000000 0.168604
#
#
# Mechanical properties :
#
#
# Convention : Reuss Voigt Hill
#
# Bulk Modulus (GPa) = 44.33210 48.24113 46.28662
# Shear Modulus (GPa) = 15.28170 22.31006 18.79588
#
# Velocity S-wave (km/s) = 2.77961 3.35852 3.08269
# Velocity P-wave (km/s) = 5.71974 6.27930 6.00604
#
# Compressibility (1/GPa) = 0.02255702
#
# Stress axis : x y z
#
# Youngs Moduli (GPa) = 63.86268 58.99772 69.66160
#
# Poissons Ratio (x) = 0.28940 0.50310
# Poissons Ratio (y) = 0.31326 0.00530
# Poissons Ratio (z) = 0.46122 0.00448
#
# Static dielectric constant tensor:
#      x y z
#    x 3.807940 0.000000 0.000000 
#    y 0.000000 3.819190 0.000000 
#    z 0.000000 0.000000 3.573150 
# 
# 
# High freq. dielectric constant tensor:
#      x y z
#    x 1.744430 0.000000 0.000000 
#    y 0.000000 1.785420 0.000000 
#    z 0.000000 0.000000 1.762070 
# 
# From -- ./inp_files/67266.got.cif
#   From: 2010.03.12/outbox.cif.g09.slc.cpg/sg74_34_cif.got.tgz:67266.got - 2010.04.16 15:46:19.
