data_PCOD8298783
_publ_section_title
;
Structure prediction by ZEFSAII (Michael W. Deem and Ramdas Pophale) SiO2 
 PCOD8298783
Probable space group: I M M A
;
_chemical_formula_sum "Si O2"
_cell_formula_units_Z 104
_cell_length_a 31.156217
_cell_length_b 8.869001
_cell_length_c 20.578303
_cell_angle_alpha 90.000000
_cell_angle_beta 90.000000
_cell_angle_gamma 90.000000
_cell_volume 5686.289693
_symmetry_space_group_name_H-M "I M M A"
_symmetry_group_IT_number 74
_symmetry_cell_setting 'orthorhombic'
loop_
_space_group_symop_operation_xyz
x,y,z
-x,1/2-y,z
x,-y,-z
-x,1/2+y,-z
-x,-y,-z
x,1/2+y,-z
-x,y,z
x,1/2-y,z
1/2+x,1/2+y,1/2+z
1/2-x,-y,1/2+z
1/2+x,1/2-y,1/2-z
1/2-x,y,1/2-z
1/2-x,1/2-y,1/2-z
1/2+x,y,1/2-z
1/2-x,1/2+y,1/2+z
1/2+x,-y,1/2+z
loop_
_atom_site_type_symbol
_atom_site_label
_atom_site_fract_x
_atom_site_fract_y
_atom_site_fract_z
Si Si1 0.312537 0.074661 0.566640
Si Si2 0.547900 0.573431 0.293215
Si Si3 0.340316 0.919317 0.822105
Si Si4 0.133629 0.429579 0.179192
Si Si5 0.500000 0.574509 0.067942
Si Si6 0.436900 0.579790 0.842470
Si Si7 0.211616 0.922940 0.433326
O O1 0.325659 0.250000 0.568160
O O2 0.262043 0.051851 0.574224
O O3 0.328912 0.000000 0.500000
O O4 0.334091 0.983961 0.624643
O O5 0.500000 0.548375 0.324291
O O6 0.556496 0.750000 0.282898
O O7 0.586798 0.503490 0.335643
O O8 0.549045 0.488426 0.225494
O O9 0.321674 0.750000 0.819286
O O10 0.346149 0.982734 0.748473
O O11 0.386491 0.922215 0.855608
O O12 0.308846 0.016283 0.866727
O O13 0.127926 0.250000 0.179091
O O14 0.500000 0.750000 0.059994
O O15 0.456928 0.523781 0.102993
O O16 0.500000 0.500000 0.000000
O O17 0.454629 0.750000 0.845919
O O18 0.199001 0.750000 0.439896
O O19 0.194841 0.000000 0.500000
#
# Coordination Sequence:
#
# PCOD8298783 Si02
#       7
#    16  16  16  16   8  16  16
#     4  10  21  38  59  83 111 144 183 225 273 332
#     4  10  19  32  54  82 110 141 177 218 266 320
#     4   9  20  36  54  79 110 143 181 226 275 325
#     4  10  21  36  56  84 114 147 185 226 276 326
#     4  12  24  36  50  70  96 134 181 228 277 328
#     4  10  20  35  53  73 101 137 176 222 273 324
#     4  10  21  36  56  79 106 145 187 229 277 330
#
# _framework density 18.289607
#
# number of rings (size 3 to 8) (size 9 to 14) (size 15 to 20)
#    0.000    2.000    0.769    3.923    0.000    7.692 
#    0.000    3.077    0.000    0.462    0.000    0.000 
#    0.000    0.000    0.000    0.000    0.000    0.000 
#
# Total GULP energy -644647.871156 kJ/mol
# GULP energy per Si atom -12397.074445 kJ/mol
# Density = 1.824798 g / cm^3
# Si number density = 18.289607 Si / 1000 Ang^3
#
#
#
# Elastic Constant Matrix: (Units=GPa)
#
#
# Indices 1 2 3 4 5 6 
#
# 1 54.2924 37.3419 36.0630 0.0000 0.0000 0.0000
# 2 37.3419 119.5302 37.6212 0.0000 0.0000 0.0000
# 3 36.0630 37.6212 88.7054 0.0000 0.0000 0.0000
# 4 0.0000 0.0000 0.0000 33.4145 0.0000 0.0000
# 5 0.0000 0.0000 0.0000 0.0000 33.4678 0.0000
# 6 0.0000 0.0000 0.0000 0.0000 0.0000 31.5479
#
#
#
# Elastic Compliance Matrix: (Units=1/GPa)
#
#
# Indices 1 2 3 4 5 6 
#
# 1 0.028622 -0.006093 -0.009052 0.000000 0.000000 0.000000
# 2 -0.006093 0.010952 -0.002168 0.000000 0.000000 0.000000
# 3 -0.009052 -0.002168 0.015873 0.000000 0.000000 0.000000
# 4 0.000000 0.000000 0.000000 0.029927 0.000000 0.000000
# 5 0.000000 0.000000 0.000000 0.000000 0.029879 0.000000
# 6 0.000000 0.000000 0.000000 0.000000 0.000000 0.031698
#
#
# Mechanical properties :
#
#
# Convention : Reuss Voigt Hill
#
# Bulk Modulus (GPa) = 48.02784 53.84223 50.93503
# Shear Modulus (GPa) = 26.52281 29.78617 28.15449
#
# Velocity S-wave (km/s) = 3.81222 4.03995 3.92774
# Velocity P-wave (km/s) = 6.75974 7.15990 6.96270
#
# Compressibility (1/GPa) = 0.02082126
#
# Stress axis : x y z
#
# Youngs Moduli (GPa) = 34.93808 91.30954 63.00048
#
# Poissons Ratio (x) = 0.55631 0.57030
# Poissons Ratio (y) = 0.21286 0.13658
# Poissons Ratio (z) = 0.31627 0.19795
#
# Static dielectric constant tensor:
#      x y z
#    x 3.480840 0.000000 0.000000 
#    y 0.000000 3.453260 0.000000 
#    z 0.000000 0.000000 3.241830 
# 
# 
# High freq. dielectric constant tensor:
#      x y z
#    x 1.710440 0.000000 0.000000 
#    y 0.000000 1.725330 0.000000 
#    z 0.000000 0.000000 1.691320 
# 
# From -- ./inp_files/55227.got.cif
#   From: 2010.03.12/outbox.cif.g09.slc.cpg/sg74_28_cif.got.tgz:55227.got - 2010.04.16 15:46:19.
