data_PCOD8298530
_publ_section_title
;
Structure prediction by ZEFSAII (Michael W. Deem and Ramdas Pophale) SiO2 
 PCOD8298530
Probable space group: I M M A
;
_chemical_formula_sum "Si O2"
_cell_formula_units_Z 128
_cell_length_a 19.663232
_cell_length_b 17.311669
_cell_length_c 21.435678
_cell_angle_alpha 90.000000
_cell_angle_beta 90.000000
_cell_angle_gamma 90.000000
_cell_volume 7296.776898
_symmetry_space_group_name_H-M "I M M A"
_symmetry_group_IT_number 74
_symmetry_cell_setting 'orthorhombic'
loop_
_space_group_symop_operation_xyz
x,y,z
-x,1/2-y,z
x,-y,-z
-x,1/2+y,-z
-x,-y,-z
x,1/2+y,-z
-x,y,z
x,1/2-y,z
1/2+x,1/2+y,1/2+z
1/2-x,-y,1/2+z
1/2+x,1/2-y,1/2-z
1/2-x,y,1/2-z
1/2-x,1/2-y,1/2-z
1/2+x,y,1/2-z
1/2-x,1/2+y,1/2+z
1/2+x,-y,1/2+z
loop_
_atom_site_type_symbol
_atom_site_label
_atom_site_fract_x
_atom_site_fract_y
_atom_site_fract_z
Si Si1 0.753167 0.662457 0.839251
Si Si2 0.689588 0.839024 0.425911
Si Si3 0.924020 0.431356 0.450571
Si Si4 0.921968 0.034881 0.933354
Si Si5 0.640200 0.538959 0.818979
Si Si6 0.862325 0.954967 0.818723
Si Si7 0.205563 0.835838 0.522709
Si Si8 0.748150 0.916528 0.181950
O O1 0.747550 0.750000 0.812692
O O2 0.694312 0.608961 0.809628
O O3 0.828860 0.629951 0.826038
O O4 0.743075 0.662291 0.912355
O O5 0.670755 0.750000 0.439346
O O6 0.620480 0.887297 0.422038
O O7 0.740446 0.876892 0.477041
O O8 0.733187 0.845949 0.362738
O O9 0.919630 0.500000 0.500000
O O10 0.910191 0.451233 0.377598
O O11 0.868744 0.372022 0.475365
O O12 0.000000 0.395641 0.452560
O O13 0.000000 0.060300 0.935485
O O14 0.913089 0.973345 0.876309
O O15 0.899582 0.000000 0.000000
O O16 0.602767 0.537102 0.750597
O O17 0.675684 0.456394 0.832360
O O18 0.801736 0.015179 0.824666
O O19 0.193543 0.750000 0.497452
O O20 0.750000 0.879259 0.250000
#
# Coordination Sequence:
#
# PCOD8298530 Si02
#       8
#    16  16  16  16  16  16  16  16
#     4   9  16  27  46  72  99 125 158 204 250 283
#     4  10  19  31  51  76  96 119 156 200 243 286
#     4  10  20  32  47  68  93 124 161 198 235 274
#     4  10  21  36  52  70  95 128 161 194 240 296
#     4   9  17  29  46  69  97 128 161 198 238 282
#     4   9  17  29  47  70  95 125 161 197 235 284
#     4   9  18  31  47  69  95 123 155 192 236 284
#     4   8  15  28  45  68  97 125 153 190 238 285
#
# _framework density 17.541992
#
# number of rings (size 3 to 8) (size 9 to 14) (size 15 to 20)
#    0.000    2.750    0.000    2.625    0.000    4.750 
#    0.000    0.000    0.000    1.125    0.000    1.750 
#    0.000    6.000    0.000    0.000    0.000    0.000 
#
# Total GULP energy -792888.105244 kJ/mol
# GULP energy per Si atom -12388.876644 kJ/mol
# Density = 1.750207 g / cm^3
# Si number density = 17.541992 Si / 1000 Ang^3
#
#
#
# Elastic Constant Matrix: (Units=GPa)
#
#
# Indices 1 2 3 4 5 6 
#
# 1 79.3665 30.4468 37.5848 0.0000 0.0000 0.0000
# 2 30.4468 58.3328 35.0237 0.0000 0.0000 0.0000
# 3 37.5848 35.0237 105.6282 0.0000 0.0000 0.0000
# 4 0.0000 0.0000 0.0000 16.2249 0.0000 0.0000
# 5 0.0000 0.0000 0.0000 0.0000 18.5947 0.0000
# 6 0.0000 0.0000 0.0000 0.0000 0.0000 30.1810
#
#
#
# Elastic Compliance Matrix: (Units=1/GPa)
#
#
# Indices 1 2 3 4 5 6 
#
# 1 0.016929 -0.006517 -0.003863 0.000000 0.000000 0.000000
# 2 -0.006517 0.023913 -0.005610 0.000000 0.000000 0.000000
# 3 -0.003863 -0.005610 0.012702 0.000000 0.000000 0.000000
# 4 0.000000 0.000000 0.000000 0.061634 0.000000 0.000000
# 5 0.000000 0.000000 0.000000 0.000000 0.053779 0.000000
# 6 0.000000 0.000000 0.000000 0.000000 0.000000 0.033133
#
#
# Mechanical properties :
#
#
# Convention : Reuss Voigt Hill
#
# Bulk Modulus (GPa) = 46.37329 49.93758 48.15543
# Shear Modulus (GPa) = 20.72475 22.35159 21.53817
#
# Velocity S-wave (km/s) = 3.44093 3.57343 3.50781
# Velocity P-wave (km/s) = 6.50228 6.74946 6.62702
#
# Compressibility (1/GPa) = 0.02156414
#
# Stress axis : x y z
#
# Youngs Moduli (GPa) = 59.06987 41.81861 78.72867
#
# Poissons Ratio (x) = 0.27252 0.30412
# Poissons Ratio (y) = 0.38495 0.44167
# Poissons Ratio (z) = 0.22818 0.23461
#
# Static dielectric constant tensor:
#      x y z
#    x 3.097450 0.000000 0.000000 
#    y 0.000000 3.449500 0.000000 
#    z 0.000000 0.000000 3.663090 
# 
# 
# High freq. dielectric constant tensor:
#      x y z
#    x 1.650240 0.000000 0.000000 
#    y 0.000000 1.657480 0.000000 
#    z 0.000000 0.000000 1.701960 
# 
# From -- ./inp_files/54164.got.cif
#   From: 2010.03.12/outbox.cif.g09.slc.cpg/sg74_28_cif.got.tgz:54164.got - 2010.04.16 15:46:19.
