data_PCOD8298674
_publ_section_title
;
Structure prediction by ZEFSAII (Michael W. Deem and Ramdas Pophale) SiO2 
 PCOD8298674
Probable space group: I M M A
;
_chemical_formula_sum "Si O2"
_cell_formula_units_Z 72
_cell_length_a 15.648160
_cell_length_b 9.033778
_cell_length_c 28.302968
_cell_angle_alpha 90.000000
_cell_angle_beta 90.000000
_cell_angle_gamma 90.000000
_cell_volume 4000.964263
_symmetry_space_group_name_H-M "I M M A"
_symmetry_group_IT_number 74
_symmetry_cell_setting 'orthorhombic'
loop_
_space_group_symop_operation_xyz
x,y,z
-x,1/2-y,z
x,-y,-z
-x,1/2+y,-z
-x,-y,-z
x,1/2+y,-z
-x,y,z
x,1/2-y,z
1/2+x,1/2+y,1/2+z
1/2-x,-y,1/2+z
1/2+x,1/2-y,1/2-z
1/2-x,y,1/2-z
1/2-x,1/2-y,1/2-z
1/2+x,y,1/2-z
1/2-x,1/2+y,1/2+z
1/2+x,-y,1/2+z
loop_
_atom_site_type_symbol
_atom_site_label
_atom_site_fract_x
_atom_site_fract_y
_atom_site_fract_z
Si Si1 0.168031 0.578307 0.278009
Si Si2 0.500000 0.418063 0.110779
Si Si3 0.829380 0.076888 0.611465
Si Si4 0.500000 0.581450 0.548359
Si Si5 0.500000 0.915882 0.776844
Si Si6 0.685493 0.924666 0.551091
O O1 0.153778 0.750000 0.267576
O O2 0.250000 0.516785 0.250000
O O3 0.181584 0.547339 0.333116
O O4 0.084722 0.496017 0.257777
O O5 0.500000 0.250000 0.091454
O O6 0.416533 0.503661 0.091982
O O7 0.500000 0.420526 0.166945
O O8 0.831537 0.250000 0.599431
O O9 0.750473 0.999254 0.586685
O O10 0.500000 0.750000 0.533439
O O11 0.500000 0.500000 0.500000
O O12 0.409597 0.545620 0.574137
O O13 0.500000 0.750000 0.757094
O O14 0.704693 0.750000 0.546409
O O15 0.694195 0.000000 0.500000
#
# Coordination Sequence:
#
# PCOD8298674 Si02
#       6
#    16   8  16   8   8  16
#     4   9  18  33  52  72  97 131 168 203 240 288
#     4   9  17  31  50  71  96 129 165 199 241 294
#     4  10  19  32  51  75 100 128 164 204 245 289
#     4   8  16  30  49  70  93 125 162 196 233 282
#     4   9  17  29  48  73  98 126 162 203 246 292
#     4  10  19  33  52  74 100 130 164 202 244 290
#
# _framework density 17.995663
#
# number of rings (size 3 to 8) (size 9 to 14) (size 15 to 20)
#    0.000    2.667    0.000    2.000    0.000    4.889 
#    0.000    1.667    0.000    4.000    0.000    0.000 
#    0.000    0.000    0.000    0.000    0.000    0.000 
#
# Total GULP energy -446182.181042 kJ/mol
# GULP energy per Si atom -12393.949473 kJ/mol
# Density = 1.795470 g / cm^3
# Si number density = 17.995663 Si / 1000 Ang^3
#
#
#
# Elastic Constant Matrix: (Units=GPa)
#
#
# Indices 1 2 3 4 5 6 
#
# 1 210.2105 96.6745 50.7395 0.0000 0.0000 0.0000
# 2 96.6745 121.2220 37.4761 0.0000 0.0000 0.0000
# 3 50.7395 37.4761 32.3980 0.0000 0.0000 0.0000
# 4 0.0000 0.0000 0.0000 21.8244 0.0000 0.0000
# 5 0.0000 0.0000 0.0000 0.0000 23.8881 0.0000
# 6 0.0000 0.0000 0.0000 0.0000 0.0000 30.6417
#
#
#
# Elastic Compliance Matrix: (Units=1/GPa)
#
#
# Indices 1 2 3 4 5 6 
#
# 1 0.008911 -0.004346 -0.008928 0.000000 0.000000 0.000000
# 2 -0.004346 0.014962 -0.010500 0.000000 0.000000 0.000000
# 3 -0.008928 -0.010500 0.056994 0.000000 0.000000 0.000000
# 4 0.000000 0.000000 0.000000 0.045820 0.000000 0.000000
# 5 0.000000 0.000000 0.000000 0.000000 0.041862 0.000000
# 6 0.000000 0.000000 0.000000 0.000000 0.000000 0.032635
#
#
# Mechanical properties :
#
#
# Convention : Reuss Voigt Hill
#
# Bulk Modulus (GPa) = 30.01346 81.51231 55.76289
# Shear Modulus (GPa) = 19.24267 27.20019 23.22143
#
# Velocity S-wave (km/s) = 3.27355 3.89200 3.59610
# Velocity P-wave (km/s) = 5.56800 8.09881 6.94958
#
# Compressibility (1/GPa) = 0.03331838
#
# Stress axis : x y z
#
# Youngs Moduli (GPa) = 112.21990 66.83789 17.54558
#
# Poissons Ratio (x) = 0.29050 0.15665
# Poissons Ratio (y) = 0.48775 0.18422
# Poissons Ratio (z) = 1.00193 0.70178
#
# Static dielectric constant tensor:
#      x y z
#    x 3.995580 0.000000 0.000000 
#    y 0.000000 3.496090 0.000000 
#    z 0.000000 0.000000 2.884620 
# 
# 
# High freq. dielectric constant tensor:
#      x y z
#    x 1.720940 0.000000 0.000000 
#    y 0.000000 1.710480 0.000000 
#    z 0.000000 0.000000 1.646390 
# 
# From -- ./inp_files/63667.got.cif
#   From: 2010.03.12/outbox.cif.g09.slc.cpg/sg74_32_cif.got.tgz:63667.got - 2010.04.16 15:46:19.
