data_PCOD8298975
_publ_section_title
;
Structure prediction by ZEFSAII (Michael W. Deem and Ramdas Pophale) SiO2 
 PCOD8298975
Probable space group: I M M A
;
_chemical_formula_sum "Si O2"
_cell_formula_units_Z 112
_cell_length_a 14.509536
_cell_length_b 31.015653
_cell_length_c 11.764721
_cell_angle_alpha 90.000000
_cell_angle_beta 90.000000
_cell_angle_gamma 90.000000
_cell_volume 5294.391906
_symmetry_space_group_name_H-M "I M M A"
_symmetry_group_IT_number 74
_symmetry_cell_setting 'orthorhombic'
loop_
_space_group_symop_operation_xyz
x,y,z
-x,1/2-y,z
x,-y,-z
-x,1/2+y,-z
-x,-y,-z
x,1/2+y,-z
-x,y,z
x,1/2-y,z
1/2+x,1/2+y,1/2+z
1/2-x,-y,1/2+z
1/2+x,1/2-y,1/2-z
1/2-x,y,1/2-z
1/2-x,1/2-y,1/2-z
1/2+x,y,1/2-z
1/2-x,1/2+y,1/2+z
1/2+x,-y,1/2+z
loop_
_atom_site_type_symbol
_atom_site_label
_atom_site_fract_x
_atom_site_fract_y
_atom_site_fract_z
Si Si1 0.105116 0.841744 0.532724
Si Si2 0.109314 0.048122 0.109998
Si Si3 0.895244 0.865055 0.784484
Si Si4 0.109717 0.545590 0.144663
Si Si5 0.712615 0.298133 0.432576
Si Si6 0.898469 0.881300 0.304793
Si Si7 0.654082 0.298193 0.685337
O O1 0.106299 0.868059 0.649004
O O2 0.177259 0.802790 0.547799
O O3 0.144128 0.871857 0.429697
O O4 0.000000 0.825037 0.506735
O O5 0.145178 0.088851 0.179700
O O6 0.000000 0.046964 0.103063
O O7 0.140341 0.003680 0.173014
O O8 0.148108 0.053766 0.982275
O O9 0.828012 0.828893 0.835285
O O10 0.000000 0.856767 0.828111
O O11 0.153835 0.580801 0.233145
O O12 0.000000 0.551326 0.146177
O O13 0.694428 0.250000 0.388866
O O14 0.661742 0.306537 0.551295
O O15 0.907682 0.836538 0.234616
O O16 0.000000 0.898926 0.328301
O O17 0.612488 0.250000 0.706926
O O18 0.750000 0.302061 0.750000
#
# Coordination Sequence:
#
# PCOD8298975 Si02
#       7
#    16  16  16  16  16  16  16
#     4  10  22  38  55  79 112 153 196 235 281 344
#     4   8  14  28  51  81 113 142 178 224 277 336
#     4  10  21  37  57  83 114 150 190 237 290 341
#     4   8  14  26  50  83 111 138 179 228 277 337
#     4  11  23  39  60  83 109 148 195 243 295 343
#     4  10  19  33  55  83 113 147 188 232 283 343
#     4  10  20  35  53  76 107 140 178 226 284 341
#
# _framework density 21.15446
#
# number of rings (size 3 to 8) (size 9 to 14) (size 15 to 20)
#    0.000    2.429    1.429    2.143    0.000    3.714 
#    0.000    5.000    0.000    6.000    3.714    0.000 
#    0.000    0.000    0.000    0.000    0.000    0.000 
#
# Total GULP energy -693753.504728 kJ/mol
# GULP energy per Si atom -12388.455442 kJ/mol
# Density = 2.110631 g / cm^3
# Si number density = 21.154460 Si / 1000 Ang^3
#
#
#
# Elastic Constant Matrix: (Units=GPa)
#
#
# Indices 1 2 3 4 5 6 
#
# 1 48.2708 24.7830 17.3954 0.0005 -0.0002 0.0008
# 2 24.7830 168.5017 82.7895 -0.0011 0.0000 -0.0012
# 3 17.3954 82.7895 128.3442 -0.0036 -0.0011 -0.0057
# 4 0.0005 -0.0011 -0.0036 9.9966 0.0003 -0.0019
# 5 -0.0002 0.0000 -0.0011 0.0003 21.0790 -0.0012
# 6 0.0008 -0.0012 -0.0057 -0.0019 -0.0012 -1.7086
#
#
#
# Elastic Compliance Matrix: (Units=1/GPa)
#
#
# Indices 1 2 3 4 5 6 
#
# 1 0.022566 -0.002659 -0.001343 -0.000002 0.000000 0.000016
# 2 -0.002659 0.009002 -0.005446 -0.000001 0.000000 0.000011
# 3 -0.001343 -0.005446 0.011487 0.000004 0.000001 -0.000035
# 4 -0.000002 -0.000001 0.000004 0.100034 -0.000002 -0.000111
# 5 0.000000 0.000000 0.000001 -0.000002 0.047441 -0.000032
# 6 0.000016 0.000011 -0.000035 -0.000111 -0.000032 -0.585285
#
#
# Mechanical properties :
#
#
# Convention : Reuss Voigt Hill
#
# Bulk Modulus (GPa) = 41.39560 66.11697 53.75629
# Shear Modulus (GPa) = -13.59407 20.54999 3.47796
#
# Velocity S-wave (km/s) = -2.53773 3.12015 1.28361
# Velocity P-wave (km/s) = 3.32024 6.65603 5.25960
#
# Compressibility (1/GPa) = 0.02415716
#
# Stress axis : x y z
#
# Youngs Moduli (GPa) = 44.31504 111.09169 87.05715
#
# Poissons Ratio (x) = 0.29538 0.11695
# Poissons Ratio (y) = 0.11783 0.47413
# Poissons Ratio (z) = 0.05953 0.60502
#
# Static dielectric constant tensor:
#      x y z
#    x 3.518080 0.000000 0.000000 
#    y 0.000000 4.086440 0.000000 
#    z 0.000000 0.000000 3.994830 
# 
# 
# High freq. dielectric constant tensor:
#      x y z
#    x 1.797220 0.000000 0.000000 
#    y 0.000000 1.823290 0.000000 
#    z 0.000000 0.000000 1.835350 
# 
# From -- ./inp_files/21142.got.cif
#   From: 2010.03.12/outbox.cif.g09.slc.cpg/sg74_11_cif.got.tgz:21142.got - 2010.04.16 15:46:19.
