data_PCOD8298692
_publ_section_title
;
Structure prediction by ZEFSAII (Michael W. Deem and Ramdas Pophale) SiO2 
 PCOD8298692
Probable space group: I M M A
;
_chemical_formula_sum "Si O2"
_cell_formula_units_Z 96
_cell_length_a 8.478307
_cell_length_b 31.227581
_cell_length_c 19.598527
_cell_angle_alpha 90.000000
_cell_angle_beta 90.000000
_cell_angle_gamma 90.000000
_cell_volume 5188.847577
_symmetry_space_group_name_H-M "I M M A"
_symmetry_group_IT_number 74
_symmetry_cell_setting 'orthorhombic'
loop_
_space_group_symop_operation_xyz
x,y,z
-x,1/2-y,z
x,-y,-z
-x,1/2+y,-z
-x,-y,-z
x,1/2+y,-z
-x,y,z
x,1/2-y,z
1/2+x,1/2+y,1/2+z
1/2-x,-y,1/2+z
1/2+x,1/2-y,1/2-z
1/2-x,y,1/2-z
1/2-x,1/2-y,1/2-z
1/2+x,y,1/2-z
1/2-x,1/2+y,1/2+z
1/2+x,-y,1/2+z
loop_
_atom_site_type_symbol
_atom_site_label
_atom_site_fract_x
_atom_site_fract_y
_atom_site_fract_z
Si Si1 0.816467 0.951445 0.929885
Si Si2 0.182857 0.457359 0.573877
Si Si3 0.184671 0.796425 0.825446
Si Si4 0.814604 0.795044 0.174743
Si Si5 0.687186 0.387686 0.673535
Si Si6 0.814813 0.616686 0.673357
O O1 0.765256 0.920643 0.869290
O O2 0.000000 0.945754 0.944492
O O3 0.781777 0.000220 0.908465
O O4 0.723668 0.939555 0.998863
O O5 0.222641 0.421903 0.628883
O O6 0.000000 0.469283 0.577262
O O7 0.216031 0.750000 0.862233
O O8 0.250000 0.792516 0.750000
O O9 0.271400 0.836942 0.860732
O O10 0.000000 0.806584 0.823130
O O11 0.759665 0.750000 0.137328
O O12 0.750000 0.794257 0.250000
O O13 0.765422 0.840646 0.141609
O O14 0.000000 0.795055 0.180390
O O15 0.500000 0.395546 0.671515
O O16 0.750000 0.392032 0.750000
O O17 0.750000 0.614554 0.750000
O O18 0.000000 0.609710 0.673171
#
# Coordination Sequence:
#
# PCOD8298692 Si02
#       6
#    16  16  16  16  16  16
#     4  11  22  39  59  78 101 133 172 212 258 312
#     4  11  22  38  57  78 103 134 172 211 256 312
#     4   9  16  27  45  71 103 138 174 211 253 302
#     4   8  14  25  43  68  99 133 168 206 248 295
#     4  10  19  32  51  78 108 138 173 214 259 303
#     4  11  21  34  53  80 110 139 173 215 261 306
#
# _framework density 18.501218999999999
#
# number of rings (size 3 to 8) (size 9 to 14) (size 15 to 20)
#    0.000    2.000    0.000    7.500    0.000    2.333 
#    0.000    3.333    0.000    1.000    0.000    2.333 
#    0.000    0.000    0.000    0.000    0.000    0.000 
#
# Total GULP energy -594651.254439 kJ/mol
# GULP energy per Si atom -12388.567801 kJ/mol
# Density = 1.845911 g / cm^3
# Si number density = 18.501219 Si / 1000 Ang^3
#
#
#
# Elastic Constant Matrix: (Units=GPa)
#
#
# Indices 1 2 3 4 5 6 
#
# 1 77.1248 23.9525 11.6029 0.0000 0.0000 0.0000
# 2 23.9525 129.6381 55.5293 0.0000 0.0000 0.0000
# 3 11.6029 55.5293 53.4239 -0.0001 0.0000 -0.0002
# 4 0.0000 0.0000 -0.0001 -8.8492 0.0000 0.0000
# 5 0.0000 0.0000 0.0000 0.0000 24.6901 0.0000
# 6 0.0000 0.0000 -0.0002 0.0000 0.0000 24.1741
#
#
#
# Elastic Compliance Matrix: (Units=1/GPa)
#
#
# Indices 1 2 3 4 5 6 
#
# 1 0.013767 -0.002276 -0.000624 0.000000 0.000000 0.000000
# 2 -0.002276 0.014281 -0.014349 0.000000 0.000000 0.000000
# 3 -0.000624 -0.014349 0.033768 0.000000 0.000000 0.000000
# 4 0.000000 0.000000 0.000000 -0.113005 0.000000 0.000000
# 5 0.000000 0.000000 0.000000 0.000000 0.040502 0.000000
# 6 0.000000 0.000000 0.000000 0.000000 0.000000 0.041367
#
#
# Mechanical properties :
#
#
# Convention : Reuss Voigt Hill
#
# Bulk Modulus (GPa) = 36.60704 49.15068 42.87886
# Shear Modulus (GPa) = 67.30961 19.27649 43.29305
#
# Velocity S-wave (km/s) = 6.03822 3.23136 4.84261
# Velocity P-wave (km/s) = 8.27302 6.36758 7.38203
#
# Compressibility (1/GPa) = 0.02731715
#
# Stress axis : x y z
#
# Youngs Moduli (GPa) = 72.63841 70.02470 29.61359
#
# Poissons Ratio (x) = 0.15940 0.01847
# Poissons Ratio (y) = 0.16535 0.42493
# Poissons Ratio (z) = 0.04531 1.00479
#
# Static dielectric constant tensor:
#      x y z
#    x 3.759440 0.000000 0.000000 
#    y 0.000000 4.302040 0.000000 
#    z 0.000000 0.000000 2.946230 
# 
# 
# High freq. dielectric constant tensor:
#      x y z
#    x 1.734550 0.000000 0.000000 
#    y 0.000000 1.747850 0.000000 
#    z 0.000000 0.000000 1.661810 
# 
# From -- ./inp_files/49115.got.cif
#   From: 2010.03.12/outbox.cif.g09.slc.cpg/sg74_25_cif.got.tgz:49115.got - 2010.04.16 15:46:19.
