data_PCOD8298829
_publ_section_title
;
Structure prediction by ZEFSAII (Michael W. Deem and Ramdas Pophale) SiO2 
 PCOD8298829
Probable space group: I M M A
;
_chemical_formula_sum "Si O2"
_cell_formula_units_Z 88
_cell_length_a 27.348460
_cell_length_b 8.853388
_cell_length_c 18.634104
_cell_angle_alpha 90.000000
_cell_angle_beta 90.000000
_cell_angle_gamma 90.000000
_cell_volume 4511.810896
_symmetry_space_group_name_H-M "I M M A"
_symmetry_group_IT_number 74
_symmetry_cell_setting 'orthorhombic'
loop_
_space_group_symop_operation_xyz
x,y,z
-x,1/2-y,z
x,-y,-z
-x,1/2+y,-z
-x,-y,-z
x,1/2+y,-z
-x,y,z
x,1/2-y,z
1/2+x,1/2+y,1/2+z
1/2-x,-y,1/2+z
1/2+x,1/2-y,1/2-z
1/2-x,y,1/2-z
1/2-x,1/2-y,1/2-z
1/2+x,y,1/2-z
1/2-x,1/2+y,1/2+z
1/2+x,-y,1/2+z
loop_
_atom_site_type_symbol
_atom_site_label
_atom_site_fract_x
_atom_site_fract_y
_atom_site_fract_z
Si Si1 0.254422 0.571967 0.924664
Si Si2 0.554307 0.423060 0.814690
Si Si3 0.339346 0.575745 0.147061
Si Si4 0.085110 0.073536 0.174325
Si Si5 0.500000 0.573694 0.574707
Si Si6 0.183451 0.426144 0.811257
O O1 0.248711 0.750000 0.931109
O O2 0.310972 0.526380 0.910773
O O3 0.224956 0.513886 0.855055
O O4 0.236188 0.500000 0.000000
O O5 0.500000 0.448497 0.851052
O O6 0.558451 0.250000 0.787179
O O7 0.602102 0.454325 0.864412
O O8 0.558958 0.537069 0.749145
O O9 0.327030 0.750000 0.131865
O O10 0.319736 0.531277 0.226784
O O11 0.098541 0.250000 0.172622
O O12 0.048309 0.019625 0.114035
O O13 0.131975 0.973796 0.155752
O O14 0.500000 0.750000 0.567893
O O15 0.500000 0.500000 0.500000
O O16 0.193452 0.250000 0.821550
#
# Coordination Sequence:
#
# PCOD8298829 Si02
#       6
#    16  16  16  16   8  16
#     4  12  25  40  59  82 111 149 189 233 284 341
#     4   9  17  31  55  84 112 144 179 219 274 331
#     4   9  19  36  58  86 118 149 184 230 279 331
#     4  10  19  33  50  75 107 139 180 230 275 319
#     4  10  22  34  46  66  98 142 183 224 271 318
#     4  10  21  38  60  85 112 146 185 231 282 334
#
# _framework density 19.504363000000001
#
# number of rings (size 3 to 8) (size 9 to 14) (size 15 to 20)
#    0.000    2.000    0.909    4.364    0.000    8.000 
#    0.000    1.818    0.000    0.545    0.000    0.000 
#    0.000    0.000    0.000    0.000    0.000    0.000 
#
# Total GULP energy -545284.414825 kJ/mol
# GULP energy per Si atom -12392.827610 kJ/mol
# Density = 1.945997 g / cm^3
# Si number density = 19.504363 Si / 1000 Ang^3
#
#
#
# Elastic Constant Matrix: (Units=GPa)
#
#
# Indices 1 2 3 4 5 6 
#
# 1 114.8423 32.8620 22.7265 0.0000 0.0000 0.0000
# 2 32.8620 68.1939 21.9638 0.0000 0.0000 0.0000
# 3 22.7265 21.9638 37.0908 0.0000 0.0000 0.0000
# 4 0.0000 0.0000 0.0000 28.3121 0.0000 0.0000
# 5 0.0000 0.0000 0.0000 0.0000 19.9758 0.0000
# 6 0.0000 0.0000 0.0000 0.0000 0.0000 33.0230
#
#
#
# Elastic Compliance Matrix: (Units=1/GPa)
#
#
# Indices 1 2 3 4 5 6 
#
# 1 0.010628 -0.003737 -0.004299 0.000000 0.000000 0.000000
# 2 -0.003737 0.019434 -0.009218 0.000000 0.000000 0.000000
# 3 -0.004299 -0.009218 0.035054 0.000000 0.000000 0.000000
# 4 0.000000 0.000000 0.000000 0.035321 0.000000 0.000000
# 5 0.000000 0.000000 0.000000 0.000000 0.050061 0.000000
# 6 0.000000 0.000000 0.000000 0.000000 0.000000 0.030282
#
#
# Mechanical properties :
#
#
# Convention : Reuss Voigt Hill
#
# Bulk Modulus (GPa) = 32.67242 41.69240 37.18241
# Shear Modulus (GPa) = 22.17406 25.76717 23.97062
#
# Velocity S-wave (km/s) = 3.37542 3.63863 3.50949
# Velocity P-wave (km/s) = 5.65500 6.25102 5.96046
#
# Compressibility (1/GPa) = 0.03060685
#
# Stress axis : x y z
#
# Youngs Moduli (GPa) = 94.09467 51.45683 28.52764
#
# Poissons Ratio (x) = 0.19228 0.12264
# Poissons Ratio (y) = 0.35160 0.26298
# Poissons Ratio (z) = 0.40452 0.47435
#
# Static dielectric constant tensor:
#      x y z
#    x 3.873290 0.000000 0.000000 
#    y 0.000000 3.390460 0.000000 
#    z 0.000000 0.000000 3.247460 
# 
# 
# High freq. dielectric constant tensor:
#      x y z
#    x 1.780260 0.000000 0.000000 
#    y 0.000000 1.760450 0.000000 
#    z 0.000000 0.000000 1.720360 
# 
# From -- ./inp_files/47003.got.cif
#   From: 2010.03.12/outbox.cif.g09.slc.cpg/sg74_24_cif.got.tgz:47003.got - 2010.04.16 15:46:19.
