data_PCOD8298748
_publ_section_title
;
Structure prediction by ZEFSAII (Michael W. Deem and Ramdas Pophale) SiO2 
 PCOD8298748
Probable space group: I M M A
;
_chemical_formula_sum "Si O2"
_cell_formula_units_Z 120
_cell_length_a 9.128867
_cell_length_b 26.932836
_cell_length_c 27.884070
_cell_angle_alpha 90.000000
_cell_angle_beta 90.000000
_cell_angle_gamma 90.000000
_cell_volume 6855.752500
_symmetry_space_group_name_H-M "I M M A"
_symmetry_group_IT_number 74
_symmetry_cell_setting 'orthorhombic'
loop_
_space_group_symop_operation_xyz
x,y,z
-x,1/2-y,z
x,-y,-z
-x,1/2+y,-z
-x,-y,-z
x,1/2+y,-z
-x,y,z
x,1/2-y,z
1/2+x,1/2+y,1/2+z
1/2-x,-y,1/2+z
1/2+x,1/2-y,1/2-z
1/2-x,y,1/2-z
1/2-x,1/2-y,1/2-z
1/2+x,y,1/2-z
1/2-x,1/2+y,1/2+z
1/2+x,-y,1/2+z
loop_
_atom_site_type_symbol
_atom_site_label
_atom_site_fract_x
_atom_site_fract_y
_atom_site_fract_z
Si Si1 0.171791 0.947860 0.132065
Si Si2 0.669019 0.250000 0.700791
Si Si3 0.671552 0.357849 0.699125
Si Si4 0.827619 0.952185 0.648982
Si Si5 0.668810 0.193243 0.390621
Si Si6 0.329318 0.867976 0.702892
Si Si7 0.829121 0.110756 0.443600
Si Si8 0.171066 0.552569 0.020932
O O1 0.221690 0.898509 0.160297
O O2 0.211616 0.941602 0.076427
O O3 0.000000 0.959397 0.138377
O O4 0.265203 0.992682 0.153669
O O5 0.500000 0.250000 0.713221
O O6 0.750000 0.250000 0.750000
O O7 0.708599 0.302989 0.675634
O O8 0.500000 0.363078 0.709255
O O9 0.750000 0.366470 0.750000
O O10 0.746339 0.919724 0.688845
O O11 0.790698 0.930403 0.596503
O O12 0.000000 0.951892 0.659395
O O13 0.500000 0.186351 0.405063
O O14 0.718497 0.250000 0.392180
O O15 0.697157 0.173339 0.337329
O O16 0.766370 0.163997 0.428715
O O17 0.500000 0.877527 0.712493
O O18 0.250000 0.847037 0.750000
O O19 0.756136 0.095787 0.493507
O O20 0.000000 0.116317 0.451548
O O21 0.000000 0.559503 0.011257
O O22 0.225403 0.500000 0.000000
#
# Coordination Sequence:
#
# PCOD8298748 Si02
#       8
#    16   8  16  16  16  16  16  16
#     4  10  20  33  50  75 104 135 171 212 256 302
#     4   8  14  28  50  72  92 120 156 194 234 282
#     4   9  18  32  51  74 100 129 163 201 244 294
#     4  10  20  33  49  71 100 134 171 209 255 311
#     4   9  19  36  57  78 101 134 177 220 263 316
#     4  10  20  34  52  74 103 137 174 216 263 313
#     4  10  20  33  52  77 103 132 169 215 264 311
#     4  10  19  32  53  76 101 136 175 212 253 304
#
# _framework density 17.503547999999999
#
# number of rings (size 3 to 8) (size 9 to 14) (size 15 to 20)
#    0.000    2.400    1.333    1.200    0.000    4.000 
#    0.000    1.333    1.467    0.000    0.000    0.000 
#    0.000    0.000    0.000    0.000    0.000    0.000 
#
# Total GULP energy -743919.449278 kJ/mol
# GULP energy per Si atom -12398.657488 kJ/mol
# Density = 1.746371 g / cm^3
# Si number density = 17.503548 Si / 1000 Ang^3
#
#
#
# Elastic Constant Matrix: (Units=GPa)
#
#
# Indices 1 2 3 4 5 6 
#
# 1 58.7946 47.6137 34.8019 0.0000 0.0000 0.0000
# 2 47.6137 151.4088 56.3333 0.0000 0.0000 0.0000
# 3 34.8019 56.3333 84.5631 0.0000 0.0000 0.0000
# 4 0.0000 0.0000 0.0000 20.6959 0.0000 0.0000
# 5 0.0000 0.0000 0.0000 0.0000 28.1939 0.0000
# 6 0.0000 0.0000 0.0000 0.0000 0.0000 19.3379
#
#
#
# Elastic Compliance Matrix: (Units=1/GPa)
#
#
# Indices 1 2 3 4 5 6 
#
# 1 0.025490 -0.005468 -0.006848 0.000000 0.000000 0.000000
# 2 -0.005468 0.009954 -0.004381 0.000000 0.000000 0.000000
# 3 -0.006848 -0.004381 0.017562 0.000000 0.000000 0.000000
# 4 0.000000 0.000000 0.000000 0.048319 0.000000 0.000000
# 5 0.000000 0.000000 0.000000 0.000000 0.035469 0.000000
# 6 0.000000 0.000000 0.000000 0.000000 0.000000 0.051712
#
#
# Mechanical properties :
#
#
# Convention : Reuss Voigt Hill
#
# Bulk Modulus (GPa) = 50.98669 63.58492 57.28580
# Shear Modulus (GPa) = 21.88796 24.04670 22.96733
#
# Velocity S-wave (km/s) = 3.54006 3.71053 3.62629
# Velocity P-wave (km/s) = 6.77510 7.40021 7.09454
#
# Compressibility (1/GPa) = 0.01961296
#
# Stress axis : x y z
#
# Youngs Moduli (GPa) = 39.23123 100.46131 56.94126
#
# Poissons Ratio (x) = 0.54933 0.38992
# Poissons Ratio (y) = 0.21452 0.24944
# Poissons Ratio (z) = 0.26864 0.44009
#
# Static dielectric constant tensor:
#      x y z
#    x 3.319810 0.000000 0.000000 
#    y 0.000000 3.496250 0.000000 
#    z 0.000000 0.000000 3.113000 
# 
# 
# High freq. dielectric constant tensor:
#      x y z
#    x 1.679810 0.000000 0.000000 
#    y 0.000000 1.678230 0.000000 
#    z 0.000000 0.000000 1.658430 
# 
# From -- ./inp_files/65044.got.cif
#   From: 2010.03.12/outbox.cif.g09.slc.cpg/sg74_33_cif.got.tgz:65044.got - 2010.04.16 15:46:19.
