data_PCOD8298339
_publ_section_title
;
Structure prediction by ZEFSAII (Michael W. Deem and Ramdas Pophale) SiO2 
 PCOD8298339
Probable space group: I M M A
;
_chemical_formula_sum "Si O2"
_cell_formula_units_Z 80
_cell_length_a 26.371603
_cell_length_b 13.142166
_cell_length_c 12.123652
_cell_angle_alpha 90.000000
_cell_angle_beta 90.000000
_cell_angle_gamma 90.000000
_cell_volume 4201.815120
_symmetry_space_group_name_H-M "I M M A"
_symmetry_group_IT_number 74
_symmetry_cell_setting 'orthorhombic'
loop_
_space_group_symop_operation_xyz
x,y,z
-x,1/2-y,z
x,-y,-z
-x,1/2+y,-z
-x,-y,-z
x,1/2+y,-z
-x,y,z
x,1/2-y,z
1/2+x,1/2+y,1/2+z
1/2-x,-y,1/2+z
1/2+x,1/2-y,1/2-z
1/2-x,y,1/2-z
1/2-x,1/2-y,1/2-z
1/2+x,y,1/2-z
1/2-x,1/2+y,1/2+z
1/2+x,-y,1/2+z
loop_
_atom_site_type_symbol
_atom_site_label
_atom_site_fract_x
_atom_site_fract_y
_atom_site_fract_z
Si Si1 0.054645 0.033255 0.875293
Si Si2 0.291956 0.069106 0.163317
Si Si3 0.350319 0.367918 0.546614
Si Si4 0.381918 0.131325 0.307835
Si Si5 0.762465 0.365969 0.576091
O O1 0.102614 0.110926 0.870048
O O2 0.000000 0.079941 0.835552
O O3 0.066737 0.935325 0.796702
O O4 0.047072 0.000000 0.000000
O O5 0.250000 0.104256 0.250000
O O6 0.345952 0.109200 0.204764
O O7 0.294641 0.946072 0.148564
O O8 0.278926 0.126504 0.050580
O O9 0.346163 0.250000 0.524297
O O10 0.358196 0.415011 0.423158
O O11 0.295852 0.403213 0.593189
O O12 0.395689 0.250000 0.315025
O O13 0.771392 0.250000 0.617949
#
# Coordination Sequence:
#
# PCOD8298339 Si02
#       5
#    16  16  16  16  16
#     4   9  18  31  48  71 101 132 163 207 264 316
#     4  11  20  31  51  72 101 139 177 219 259 308
#     4   9  17  30  48  69  97 132 171 207 246 302
#     4  10  19  30  48  71  96 130 172 211 251 302
#     4  10  21  33  48  74 104 139 178 215 261 312
#
# _framework density 19.039390999999998
#
# number of rings (size 3 to 8) (size 9 to 14) (size 15 to 20)
#    0.000    2.200    2.000    1.800    5.600    2.000 
#    0.000    5.000    0.000    1.200    0.000    2.800 
#    0.000    1.600    0.000    0.000    0.000    0.000 
#
# Total GULP energy -495651.381343 kJ/mol
# GULP energy per Si atom -12391.284534 kJ/mol
# Density = 1.899606 g / cm^3
# Si number density = 19.039391 Si / 1000 Ang^3
#
#
#
# Elastic Constant Matrix: (Units=GPa)
#
#
# Indices 1 2 3 4 5 6 
#
# 1 93.9371 16.4234 25.3440 0.0000 0.0000 0.0000
# 2 16.4234 44.5463 -0.2040 0.0000 0.0000 0.0000
# 3 25.3440 -0.2040 45.5545 0.0000 0.0000 0.0000
# 4 0.0000 0.0000 0.0000 21.1011 0.0000 0.0000
# 5 0.0000 0.0000 0.0000 0.0000 -0.7774 0.0000
# 6 0.0000 0.0000 0.0000 0.0000 0.0000 12.0532
#
#
#
# Elastic Compliance Matrix: (Units=1/GPa)
#
#
# Indices 1 2 3 4 5 6 
#
# 1 0.013569 -0.005037 -0.007572 0.000000 0.000000 0.000000
# 2 -0.005037 0.024319 0.002911 0.000000 0.000000 0.000000
# 3 -0.007572 0.002911 0.026177 0.000000 0.000000 0.000000
# 4 0.000000 0.000000 0.000000 0.047391 0.000000 0.000000
# 5 0.000000 0.000000 0.000000 0.000000 -1.286331 0.000000
# 6 0.000000 0.000000 0.000000 0.000000 0.000000 0.082965
#
#
# Mechanical properties :
#
#
# Convention : Reuss Voigt Hill
#
# Bulk Modulus (GPa) = 22.38631 29.68497 26.03564
# Shear Modulus (GPa) = -4.72758 15.97367 5.62305
#
# Velocity S-wave (km/s) = -1.57748 2.89966 1.72040
# Velocity P-wave (km/s) = 2.90955 5.18034 4.20127
#
# Compressibility (1/GPa) = 0.04467015
#
# Stress axis : x y z
#
# Youngs Moduli (GPa) = 73.69802 41.12007 38.20130
#
# Poissons Ratio (x) = 0.20713 0.28924
# Poissons Ratio (y) = 0.37124 -0.11122
# Poissons Ratio (z) = 0.55801 -0.11972
#
# Static dielectric constant tensor:
#      x y z
#    x 3.745980 0.000000 0.000000 
#    y 0.000000 3.595410 0.000000 
#    z 0.000000 0.000000 3.174330 
# 
# 
# High freq. dielectric constant tensor:
#      x y z
#    x 1.719290 0.000000 0.000000 
#    y 0.000000 1.753880 0.000000 
#    z 0.000000 0.000000 1.694470 
# 
# From -- ./inp_files/20468.got.cif
#   From: 2010.03.12/outbox.cif.g09.slc.cpg/sg74_11_cif.got.tgz:20468.got - 2010.04.16 15:46:19.
