data_PCOD8298146
_publ_section_title
;
Structure prediction by ZEFSAII (Michael W. Deem and Ramdas Pophale) SiO2 
 PCOD8298146
Probable space group: I M M A
;
_chemical_formula_sum "Si O2"
_cell_formula_units_Z 128
_cell_length_a 16.883371
_cell_length_b 20.772168
_cell_length_c 21.723585
_cell_angle_alpha 90.000000
_cell_angle_beta 90.000000
_cell_angle_gamma 90.000000
_cell_volume 7618.552907
_symmetry_space_group_name_H-M "I M M A"
_symmetry_group_IT_number 74
_symmetry_cell_setting 'orthorhombic'
loop_
_space_group_symop_operation_xyz
x,y,z
-x,1/2-y,z
x,-y,-z
-x,1/2+y,-z
-x,-y,-z
x,1/2+y,-z
-x,y,z
x,1/2-y,z
1/2+x,1/2+y,1/2+z
1/2-x,-y,1/2+z
1/2+x,1/2-y,1/2-z
1/2-x,y,1/2-z
1/2-x,1/2-y,1/2-z
1/2+x,y,1/2-z
1/2-x,1/2+y,1/2+z
1/2+x,-y,1/2+z
loop_
_atom_site_type_symbol
_atom_site_label
_atom_site_fract_x
_atom_site_fract_y
_atom_site_fract_z
Si Si1 0.823515 0.117413 0.877119
Si Si2 0.812972 0.576266 0.304940
Si Si3 0.909193 0.677885 0.014200
Si Si4 0.094230 0.679281 0.748469
Si Si5 0.091482 0.322759 0.766980
Si Si6 0.592561 0.853571 0.618879
Si Si7 0.911264 0.456052 0.291845
Si Si8 0.086568 0.992021 0.850037
O O1 0.729272 0.110614 0.863861
O O2 0.846954 0.136118 0.946289
O O3 0.862585 0.168777 0.831094
O O4 0.850696 0.045745 0.863182
O O5 0.750000 0.565303 0.250000
O O6 0.880255 0.626275 0.283758
O O7 0.852614 0.507643 0.324618
O O8 0.907862 0.750000 0.040014
O O9 0.000000 0.650679 0.018232
O O10 0.876574 0.678685 0.944021
O O11 0.118582 0.750000 0.721226
O O12 0.130457 0.674900 0.818101
O O13 0.122686 0.618330 0.706152
O O14 0.000000 0.672555 0.752433
O O15 0.106033 0.250000 0.743166
O O16 0.000000 0.336333 0.780399
O O17 0.500000 0.840175 0.623789
O O18 0.611644 0.929027 0.612221
O O19 0.915879 0.475647 0.221303
O O20 0.000000 0.459640 0.321096
O O21 0.000000 0.016146 0.871314
#
# Coordination Sequence:
#
# PCOD8298146 Si02
#       8
#    16  16  16  16  16  16  16  16
#     4  11  20  27  38  56  78 108 142 175 209 241
#     4  10  19  28  40  56  75 106 142 177 212 247
#     4  10  19  29  40  55  80 113 145 178 213 245
#     4   8  13  22  40  65  86 104 134 173 205 236
#     4  10  19  30  43  56  72  98 137 181 217 250
#     4   8  15  25  39  59  81 107 138 172 203 233
#     4   9  15  26  43  60  80 107 138 171 209 252
#     4   9  15  25  41  59  78 103 136 173 206 240
#
# _framework density 16.801091
#
# number of rings (size 3 to 8) (size 9 to 14) (size 15 to 20)
#    0.000    2.625    2.500    3.750    0.000    5.750 
#    0.000    1.875    0.000    0.375    0.000    0.000 
#    0.000    0.000    0.000    9.000    1.000    2.000 
#
# Total GULP energy -792847.298686 kJ/mol
# GULP energy per Si atom -12388.239042 kJ/mol
# Density = 1.676285 g / cm^3
# Si number density = 16.801091 Si / 1000 Ang^3
#
#
#
# Elastic Constant Matrix: (Units=GPa)
#
#
# Indices 1 2 3 4 5 6 
#
# 1 52.4608 34.8361 15.0944 0.0000 0.0000 0.0000
# 2 34.8361 94.7974 15.7488 0.0000 0.0000 0.0000
# 3 15.0944 15.7488 23.6687 0.0000 0.0000 0.0000
# 4 0.0000 0.0000 0.0000 15.8256 0.0000 0.0000
# 5 0.0000 0.0000 0.0000 0.0000 3.0852 0.0000
# 6 0.0000 0.0000 0.0000 0.0000 0.0000 8.0915
#
#
#
# Elastic Compliance Matrix: (Units=1/GPa)
#
#
# Indices 1 2 3 4 5 6 
#
# 1 0.028134 -0.008272 -0.012438 0.000000 0.000000 0.000000
# 2 -0.008272 0.014292 -0.004234 0.000000 0.000000 0.000000
# 3 -0.012438 -0.004234 0.052999 0.000000 0.000000 0.000000
# 4 0.000000 0.000000 0.000000 0.063189 0.000000 0.000000
# 5 0.000000 0.000000 0.000000 0.000000 0.324127 0.000000
# 6 0.000000 0.000000 0.000000 0.000000 0.000000 0.123587
#
#
# Mechanical properties :
#
#
# Convention : Reuss Voigt Hill
#
# Bulk Modulus (GPa) = 21.96030 33.58726 27.77378
# Shear Modulus (GPa) = 7.44719 12.41698 9.93208
#
# Velocity S-wave (km/s) = 2.10765 2.72151 2.43401
# Velocity P-wave (km/s) = 4.36143 5.46901 4.94632
#
# Compressibility (1/GPa) = 0.04553672
#
# Stress axis : x y z
#
# Youngs Moduli (GPa) = 35.54478 69.96863 18.86825
#
# Poissons Ratio (x) = 0.57880 0.23467
# Poissons Ratio (y) = 0.29403 0.07989
# Poissons Ratio (z) = 0.44209 0.29626
#
# Static dielectric constant tensor:
#      x y z
#    x 3.178260 0.000000 0.000000 
#    y 0.000000 3.605230 0.000000 
#    z 0.000000 0.000000 3.070160 
# 
# 
# High freq. dielectric constant tensor:
#      x y z
#    x 1.608890 0.000000 0.000000 
#    y 0.000000 1.669760 0.000000 
#    z 0.000000 0.000000 1.584980 
# 
# From -- ./inp_files/61186.got.cif
#   From: 2010.03.12/outbox.cif.g09.slc.cpg/sg74_31_cif.got.tgz:61186.got - 2010.04.16 15:46:19.
