data_PCOD8298111
_publ_section_title
;
Structure prediction by ZEFSAII (Michael W. Deem and Ramdas Pophale) SiO2 
 PCOD8298111
Probable space group: I M M A
;
_chemical_formula_sum "Si O2"
_cell_formula_units_Z 72
_cell_length_a 14.651974
_cell_length_b 27.138755
_cell_length_c 8.722256
_cell_angle_alpha 90.000000
_cell_angle_beta 90.000000
_cell_angle_gamma 90.000000
_cell_volume 3468.285888
_symmetry_space_group_name_H-M "I M M A"
_symmetry_group_IT_number 74
_symmetry_cell_setting 'orthorhombic'
loop_
_space_group_symop_operation_xyz
x,y,z
-x,1/2-y,z
x,-y,-z
-x,1/2+y,-z
-x,-y,-z
x,1/2+y,-z
-x,y,z
x,1/2-y,z
1/2+x,1/2+y,1/2+z
1/2-x,-y,1/2+z
1/2+x,1/2-y,1/2-z
1/2-x,y,1/2-z
1/2-x,1/2-y,1/2-z
1/2+x,y,1/2-z
1/2-x,1/2+y,1/2+z
1/2+x,-y,1/2+z
loop_
_atom_site_type_symbol
_atom_site_label
_atom_site_fract_x
_atom_site_fract_y
_atom_site_fract_z
Si Si1 0.806771 0.612329 0.601911
Si Si2 0.341407 0.557918 0.193714
Si Si3 0.000000 0.804290 0.000918
Si Si4 0.500000 0.509527 0.820645
Si Si5 0.679357 0.340222 0.635683
Si Si6 0.500000 0.375883 0.221114
O O1 0.750000 0.593198 0.750000
O O2 0.836259 0.566933 0.491028
O O3 0.736703 0.649417 0.519138
O O4 0.904361 0.639234 0.639358
O O5 0.250000 0.532109 0.250000
O O6 0.414676 0.518969 0.248751
O O7 0.354657 0.609786 0.281450
O O8 0.000000 0.849348 0.884096
O O9 0.000000 0.750000 0.922700
O O10 0.090888 0.807338 0.104414
O O11 0.500000 0.565057 0.760181
O O12 0.500000 0.500000 0.000000
O O13 0.750000 0.312318 0.750000
#
# Coordination Sequence:
#
# PCOD8298111 Si02
#       6
#    16  16   8   8  16   8
#     4  10  18  36  63  90 129 171 206 262 318 385
#     4   9  20  38  60  92 127 170 213 254 312 390
#     4  12  25  44  68  97 128 166 222 279 340 387
#     4  12  21  37  58  94 128 177 211 253 312 395
#     4   9  21  41  69  93 127 168 210 271 330 378
#     4  12  24  37  61  91 133 170 215 265 330 375
#
# _framework density 20.759533999999999
#
# number of rings (size 3 to 8) (size 9 to 14) (size 15 to 20)
#    0.000    2.222    4.444    0.667    0.000    4.000 
#    0.000    4.444    0.000    6.667    0.000    0.000 
#    0.000    0.000    0.000    0.000    0.000    0.000 
#
# Total GULP energy -445970.916475 kJ/mol
# GULP energy per Si atom -12388.081013 kJ/mol
# Density = 2.071228 g / cm^3
# Si number density = 20.759534 Si / 1000 Ang^3
#
#
#
# Elastic Constant Matrix: (Units=GPa)
#
#
# Indices 1 2 3 4 5 6 
#
# 1 174.2752 49.9615 51.1671 0.0006 -0.0016 -0.0013
# 2 49.9615 84.7083 33.5962 -0.0027 0.0000 -0.0047
# 3 51.1671 33.5962 106.2991 -0.0004 -0.0045 -0.0178
# 4 0.0006 -0.0027 -0.0004 14.1001 0.0008 -0.0043
# 5 -0.0016 0.0000 -0.0045 0.0008 33.5724 0.0022
# 6 -0.0013 -0.0047 -0.0178 -0.0043 0.0022 -54.5949
#
#
#
# Elastic Compliance Matrix: (Units=1/GPa)
#
#
# Indices 1 2 3 4 5 6 
#
# 1 0.007450 -0.003398 -0.002512 -0.000001 0.000000 0.000001
# 2 -0.003398 0.015047 -0.003120 0.000003 -0.000001 0.000000
# 3 -0.002512 -0.003120 0.011603 0.000000 0.000001 -0.000003
# 4 -0.000001 0.000003 0.000000 0.070921 -0.000002 -0.000006
# 5 0.000000 -0.000001 0.000001 -0.000002 0.029786 0.000001
# 6 0.000001 0.000000 -0.000003 -0.000006 0.000001 -0.018317
#
#
# Mechanical properties :
#
#
# Convention : Reuss Voigt Hill
#
# Bulk Modulus (GPa) = 62.34616 70.52580 66.43598
# Shear Modulus (GPa) = 35.74088 13.98605 24.86346
#
# Velocity S-wave (km/s) = 4.15379 2.59842 3.46452
# Velocity P-wave (km/s) = 7.28718 6.56116 6.93368
#
# Compressibility (1/GPa) = 0.01603948
#
# Stress axis : x y z
#
# Youngs Moduli (GPa) = 134.23548 66.46035 86.18657
#
# Poissons Ratio (x) = 0.22580 0.21651
# Poissons Ratio (y) = 0.45607 0.26891
# Poissons Ratio (z) = 0.33721 0.20737
#
# Static dielectric constant tensor:
#      x y z
#    x 4.285470 0.000000 0.000000 
#    y 0.000000 3.215480 -0.000010 
#    z 0.000000 -0.000010 3.780660 
# 
# 
# High freq. dielectric constant tensor:
#      x y z
#    x 1.846370 0.000000 0.000000 
#    y 0.000000 1.761950 0.000000 
#    z 0.000000 0.000000 1.807170 
# 
# From -- ./inp_files/9362.got.cif
#   From: 2010.03.12/outbox.cif.g09.slc.cpg/sg74_5_cif.got.tgz:9362.got - 2010.04.16 15:46:19.
