data_PCOD8298824
_publ_section_title
;
Structure prediction by ZEFSAII (Michael W. Deem and Ramdas Pophale) SiO2 
 PCOD8298824
Probable space group: I M M A
;
_chemical_formula_sum "Si O2"
_cell_formula_units_Z 104
_cell_length_a 31.640825
_cell_length_b 9.078294
_cell_length_c 20.383815
_cell_angle_alpha 90.000000
_cell_angle_beta 90.000000
_cell_angle_gamma 90.000000
_cell_volume 5855.143064
_symmetry_space_group_name_H-M "I M M A"
_symmetry_group_IT_number 74
_symmetry_cell_setting 'orthorhombic'
loop_
_space_group_symop_operation_xyz
x,y,z
-x,1/2-y,z
x,-y,-z
-x,1/2+y,-z
-x,-y,-z
x,1/2+y,-z
-x,y,z
x,1/2-y,z
1/2+x,1/2+y,1/2+z
1/2-x,-y,1/2+z
1/2+x,1/2-y,1/2-z
1/2-x,y,1/2-z
1/2-x,1/2-y,1/2-z
1/2+x,y,1/2-z
1/2-x,1/2+y,1/2+z
1/2+x,-y,1/2+z
loop_
_atom_site_type_symbol
_atom_site_label
_atom_site_fract_x
_atom_site_fract_y
_atom_site_fract_z
Si Si1 0.073575 0.578166 0.660302
Si Si2 0.686892 0.579820 0.565106
Si Si3 0.453220 0.582738 0.285081
Si Si4 0.342417 0.077268 0.828043
Si Si5 0.785525 0.422901 0.432531
Si Si6 0.000000 0.081360 0.433972
Si Si7 0.138634 0.418098 0.822482
O O1 0.085560 0.750000 0.663676
O O2 0.050520 0.533908 0.727244
O O3 0.113974 0.480956 0.642504
O O4 0.041819 0.536399 0.603638
O O5 0.670057 0.500000 0.500000
O O6 0.677387 0.750000 0.555606
O O7 0.736045 0.547479 0.576018
O O8 0.661632 0.525025 0.627886
O O9 0.500000 0.560643 0.318988
O O10 0.449799 0.750000 0.257384
O O11 0.412231 0.557243 0.331354
O O12 0.337226 0.250000 0.840815
O O13 0.343971 0.041544 0.750201
O O14 0.305513 0.992955 0.866890
O O15 0.801761 0.500000 0.500000
O O16 0.796422 0.250000 0.436527
O O17 0.000000 0.250000 0.450037
O O18 0.000000 0.000000 0.500000
O O19 0.150427 0.250000 0.838939
#
# Coordination Sequence:
#
# PCOD8298824 Si02
#       7
#    16  16  16  16  16   8  16
#     4  10  19  33  49  70  99 131 171 219 266 310
#     4  10  21  37  58  81 107 140 177 217 266 322
#     4   9  17  31  53  78 104 137 173 210 257 314
#     4  10  21  36  54  79 108 141 178 220 270 318
#     4  10  21  37  56  78 104 140 182 223 268 321
#     4  10  22  34  46  66  92 128 173 216 261 308
#     4   9  19  34  53  81 112 141 177 218 266 317
#
# _framework density 17.762160999999999
#
# number of rings (size 3 to 8) (size 9 to 14) (size 15 to 20)
#    0.000    2.308    0.769    2.769    0.000    7.385 
#    0.000    4.615    0.000    0.462    0.000    0.000 
#    0.000    0.000    0.000    0.000    0.000    0.000 
#
# Total GULP energy -644538.040077 kJ/mol
# GULP energy per Si atom -12394.962309 kJ/mol
# Density = 1.772173 g / cm^3
# Si number density = 17.762161 Si / 1000 Ang^3
#
#
#
# Elastic Constant Matrix: (Units=GPa)
#
#
# Indices 1 2 3 4 5 6 
#
# 1 92.8317 58.6011 60.8189 0.0000 0.0000 0.0000
# 2 58.6011 80.6818 58.9530 0.0000 0.0000 0.0000
# 3 60.8189 58.9530 98.7462 0.0000 0.0000 0.0000
# 4 0.0000 0.0000 0.0000 35.2336 0.0000 0.0000
# 5 0.0000 0.0000 0.0000 0.0000 16.6150 0.0000
# 6 0.0000 0.0000 0.0000 0.0000 0.0000 31.2432
#
#
#
# Elastic Compliance Matrix: (Units=1/GPa)
#
#
# Indices 1 2 3 4 5 6 
#
# 1 0.022498 -0.011026 -0.007274 0.000000 0.000000 0.000000
# 2 -0.011026 0.027388 -0.009560 0.000000 0.000000 0.000000
# 3 -0.007274 -0.009560 0.020315 0.000000 0.000000 0.000000
# 4 0.000000 0.000000 0.000000 0.028382 0.000000 0.000000
# 5 0.000000 0.000000 0.000000 0.000000 0.060186 0.000000
# 6 0.000000 0.000000 0.000000 0.000000 0.000000 0.032007
#
#
# Mechanical properties :
#
#
# Convention : Reuss Voigt Hill
#
# Bulk Modulus (GPa) = 69.05798 69.88952 69.47375
# Shear Modulus (GPa) = 19.89464 22.87748 21.38606
#
# Velocity S-wave (km/s) = 3.35036 3.59275 3.47367
# Velocity P-wave (km/s) = 7.34372 7.52618 7.43551
#
# Compressibility (1/GPa) = 0.01448059
#
# Stress axis : x y z
#
# Youngs Moduli (GPa) = 44.44826 36.51219 49.22475
#
# Poissons Ratio (x) = 0.40257 0.35808
# Poissons Ratio (y) = 0.49007 0.47060
# Poissons Ratio (z) = 0.32333 0.34907
#
# Static dielectric constant tensor:
#      x y z
#    x 3.390860 0.000000 0.000000 
#    y 0.000000 3.334990 0.000000 
#    z 0.000000 0.000000 3.095910 
# 
# 
# High freq. dielectric constant tensor:
#      x y z
#    x 1.692820 0.000000 0.000000 
#    y 0.000000 1.699970 0.000000 
#    z 0.000000 0.000000 1.662880 
# 
# From -- ./inp_files/55646.got.cif
#   From: 2010.03.12/outbox.cif.g09.slc.cpg/sg74_28_cif.got.tgz:55646.got - 2010.04.16 15:46:19.
