data_PCOD8298184
_publ_section_title
;
Structure prediction by ZEFSAII (Michael W. Deem and Ramdas Pophale) SiO2 
 PCOD8298184
Probable space group: I M M A
;
_chemical_formula_sum "Si O2"
_cell_formula_units_Z 96
_cell_length_a 9.147398
_cell_length_b 22.798821
_cell_length_c 26.577450
_cell_angle_alpha 90.000000
_cell_angle_beta 90.000000
_cell_angle_gamma 90.000000
_cell_volume 5542.724264
_symmetry_space_group_name_H-M "I M M A"
_symmetry_group_IT_number 74
_symmetry_cell_setting 'orthorhombic'
loop_
_space_group_symop_operation_xyz
x,y,z
-x,1/2-y,z
x,-y,-z
-x,1/2+y,-z
-x,-y,-z
x,1/2+y,-z
-x,y,z
x,1/2-y,z
1/2+x,1/2+y,1/2+z
1/2-x,-y,1/2+z
1/2+x,1/2-y,1/2-z
1/2-x,y,1/2-z
1/2-x,1/2-y,1/2-z
1/2+x,y,1/2-z
1/2-x,1/2+y,1/2+z
1/2+x,-y,1/2+z
loop_
_atom_site_type_symbol
_atom_site_label
_atom_site_fract_x
_atom_site_fract_y
_atom_site_fract_z
Si Si1 0.828890 0.424420 0.636670
Si Si2 0.841003 0.895172 0.874781
Si Si3 0.169968 0.683935 0.300583
Si Si4 0.167453 0.318971 0.300786
Si Si5 0.659014 0.006480 0.294413
Si Si6 0.173453 0.997356 0.942419
O O1 0.798252 0.355921 0.649633
O O2 0.763527 0.455836 0.685352
O O3 0.748887 0.448140 0.586537
O O4 0.000000 0.438066 0.630802
O O5 0.731208 0.847036 0.852186
O O6 0.000000 0.865984 0.887557
O O7 0.870209 0.944224 0.834226
O O8 0.777507 0.932323 0.922358
O O9 0.220670 0.750000 0.314287
O O10 0.250000 0.661501 0.250000
O O11 0.000000 0.681258 0.287523
O O12 0.183014 0.250000 0.308223
O O13 0.250000 0.339151 0.250000
O O14 0.000000 0.338726 0.294836
O O15 0.500000 0.981377 0.277535
O O16 0.750000 0.036725 0.250000
O O17 0.000000 0.004786 0.935493
O O18 0.222879 0.000000 0.000000
#
# Coordination Sequence:
#
# PCOD8298184 Si02
#       6
#    16  16  16  16  16  16
#     4  10  19  30  47  70  94 123 158 194 235 284
#     4   9  18  31  48  69  91 120 155 190 233 282
#     4   9  18  31  46  67  97 131 164 195 227 268
#     4  10  20  32  47  69  98 131 163 194 228 269
#     4  10  19  29  42  64  95 126 155 190 233 280
#     4   9  19  36  55  73  94 120 152 196 248 293
#
# _framework density 17.320001999999999
#
# number of rings (size 3 to 8) (size 9 to 14) (size 15 to 20)
#    0.000    2.500    0.000    3.500    0.000    8.667 
#    0.000    0.000    0.000    1.000    0.000    4.667 
#    0.000    0.000    0.000    0.000    0.000    0.000 
#
# Total GULP energy -594703.855005 kJ/mol
# GULP energy per Si atom -12389.663646 kJ/mol
# Density = 1.728058 g / cm^3
# Si number density = 17.320002 Si / 1000 Ang^3
#
#
#
# Elastic Constant Matrix: (Units=GPa)
#
#
# Indices 1 2 3 4 5 6 
#
# 1 90.8676 39.4499 49.5184 0.0000 0.0000 0.0000
# 2 39.4499 66.7184 36.4829 0.0000 0.0000 0.0000
# 3 49.5184 36.4829 97.1020 0.0000 0.0000 0.0000
# 4 0.0000 0.0000 0.0000 39.1723 0.0000 0.0000
# 5 0.0000 0.0000 0.0000 0.0000 20.5750 0.0000
# 6 0.0000 0.0000 0.0000 0.0000 0.0000 26.5570
#
#
#
# Elastic Compliance Matrix: (Units=1/GPa)
#
#
# Indices 1 2 3 4 5 6 
#
# 1 0.017416 -0.006848 -0.006308 0.000000 0.000000 0.000000
# 2 -0.006848 0.021557 -0.004607 0.000000 0.000000 0.000000
# 3 -0.006308 -0.004607 0.015246 0.000000 0.000000 0.000000
# 4 0.000000 0.000000 0.000000 0.025528 0.000000 0.000000
# 5 0.000000 0.000000 0.000000 0.000000 0.048603 0.000000
# 6 0.000000 0.000000 0.000000 0.000000 0.000000 0.037655
#
#
# Mechanical properties :
#
#
# Convention : Reuss Voigt Hill
#
# Bulk Modulus (GPa) = 53.49909 56.17669 54.83789
# Shear Modulus (GPa) = 24.06589 25.87667 24.97128
#
# Velocity S-wave (km/s) = 3.73162 3.86947 3.80117
# Velocity P-wave (km/s) = 7.03721 7.24353 7.14111
#
# Compressibility (1/GPa) = 0.01869191
#
# Stress axis : x y z
#
# Youngs Moduli (GPa) = 57.41848 46.38903 65.58912
#
# Poissons Ratio (x) = 0.31769 0.41377
# Poissons Ratio (y) = 0.39322 0.30216
# Poissons Ratio (z) = 0.36222 0.21371
#
# Static dielectric constant tensor:
#      x y z
#    x 3.377800 0.000000 0.000000 
#    y 0.000000 3.452280 0.000000 
#    z 0.000000 0.000000 -2.979460 
# 
# 
# High freq. dielectric constant tensor:
#      x y z
#    x 1.679080 0.000000 0.000000 
#    y 0.000000 1.658270 0.000000 
#    z 0.000000 0.000000 1.641210 
# 
# From -- ./inp_files/64689.got.cif
#   From: 2010.03.12/outbox.cif.g09.slc.cpg/sg74_33_cif.got.tgz:64689.got - 2010.04.16 15:46:19.
