data_PCOD8298023
_publ_section_title
;
Structure prediction by ZEFSAII (Michael W. Deem and Ramdas Pophale) SiO2 
 PCOD8298023
Probable space group: I M M A
;
_chemical_formula_sum "Si O2"
_cell_formula_units_Z 80
_cell_length_a 24.744926
_cell_length_b 8.911080
_cell_length_c 20.329864
_cell_angle_alpha 90.000000
_cell_angle_beta 90.000000
_cell_angle_gamma 90.000000
_cell_volume 4482.816640
_symmetry_space_group_name_H-M "I M M A"
_symmetry_group_IT_number 74
_symmetry_cell_setting 'orthorhombic'
loop_
_space_group_symop_operation_xyz
x,y,z
-x,1/2-y,z
x,-y,-z
-x,1/2+y,-z
-x,-y,-z
x,1/2+y,-z
-x,y,z
x,1/2-y,z
1/2+x,1/2+y,1/2+z
1/2-x,-y,1/2+z
1/2+x,1/2-y,1/2-z
1/2-x,y,1/2-z
1/2-x,1/2-y,1/2-z
1/2+x,y,1/2-z
1/2-x,1/2+y,1/2+z
1/2+x,-y,1/2+z
loop_
_atom_site_type_symbol
_atom_site_label
_atom_site_fract_x
_atom_site_fract_y
_atom_site_fract_z
Si Si1 0.278042 0.576345 0.317853
Si Si2 0.109262 0.572143 0.381946
Si Si3 0.605530 0.922164 0.268546
Si Si4 0.284252 0.927883 0.933360
Si Si5 0.500000 0.582399 0.725962
Si Si6 0.000000 0.921431 0.617501
O O1 0.264319 0.750000 0.333509
O O2 0.250000 0.528838 0.250000
O O3 0.342092 0.548504 0.313009
O O4 0.256049 0.471180 0.374915
O O5 0.111403 0.750000 0.392299
O O6 0.117736 0.525292 0.305877
O O7 0.156339 0.494537 0.422784
O O8 0.052672 0.507755 0.409297
O O9 0.588883 0.750000 0.266687
O O10 0.554737 0.006905 0.301041
O O11 0.287465 0.750000 0.939546
O O12 0.260595 0.000000 0.000000
O O13 0.500000 0.750000 0.699413
O O14 0.500000 0.570434 0.804149
O O15 0.000000 0.750000 0.592516
#
# Coordination Sequence:
#
# PCOD8298023 Si02
#       6
#    16  16  16  16   8   8
#     4  10  19  36  58  82 109 140 179 224 270 322
#     4  10  18  33  53  75 103 141 182 222 268 319
#     4   9  17  30  52  77 106 141 175 213 264 320
#     4  12  25  39  55  77 107 144 182 226 273 324
#     4   9  17  27  43  72 111 140 171 218 261 305
#     4   9  17  29  46  74 105 138 178 224 268 311
#
# _framework density 17.845922999999999
#
# number of rings (size 3 to 8) (size 9 to 14) (size 15 to 20)
#    0.000    2.000    2.000    3.000    0.000    4.400 
#    0.000    0.500    0.000    0.000    0.000    0.700 
#    0.000    0.000    0.000    0.000    0.000    0.000 
#
# Total GULP energy -496081.483579 kJ/mol
# GULP energy per Si atom -12402.037089 kJ/mol
# Density = 1.780530 g / cm^3
# Si number density = 17.845923 Si / 1000 Ang^3
#
#
#
# Elastic Constant Matrix: (Units=GPa)
#
#
# Indices 1 2 3 4 5 6 
#
# 1 103.5551 53.9323 37.6456 0.0000 0.0000 0.0000
# 2 53.9323 116.7506 42.6406 0.0000 0.0000 0.0000
# 3 37.6456 42.6406 67.5064 0.0000 0.0000 0.0000
# 4 0.0000 0.0000 0.0000 23.2501 0.0000 0.0000
# 5 0.0000 0.0000 0.0000 0.0000 13.8095 0.0000
# 6 0.0000 0.0000 0.0000 0.0000 0.0000 34.5169
#
#
#
# Elastic Compliance Matrix: (Units=1/GPa)
#
#
# Indices 1 2 3 4 5 6 
#
# 1 0.013805 -0.004635 -0.004771 0.000000 0.000000 0.000000
# 2 -0.004635 0.012690 -0.005431 0.000000 0.000000 0.000000
# 3 -0.004771 -0.005431 0.020904 0.000000 0.000000 0.000000
# 4 0.000000 0.000000 0.000000 0.043011 0.000000 0.000000
# 5 0.000000 0.000000 0.000000 0.000000 0.072414 0.000000
# 6 0.000000 0.000000 0.000000 0.000000 0.000000 0.028971
#
#
# Mechanical properties :
#
#
# Convention : Reuss Voigt Hill
#
# Bulk Modulus (GPa) = 56.41432 61.80546 59.10989
# Shear Modulus (GPa) = 21.98999 24.55489 23.27244
#
# Velocity S-wave (km/s) = 3.51410 3.71339 3.61512
# Velocity P-wave (km/s) = 6.93871 7.28654 7.11475
#
# Compressibility (1/GPa) = 0.01772600
#
# Stress axis : x y z
#
# Youngs Moduli (GPa) = 72.43853 78.80389 47.83669
#
# Poissons Ratio (x) = 0.36522 0.22823
# Poissons Ratio (y) = 0.33572 0.25980
# Poissons Ratio (z) = 0.34560 0.42798
#
# Static dielectric constant tensor:
#      x y z
#    x 3.444420 0.000000 0.000000 
#    y 0.000000 3.329070 0.000000 
#    z 0.000000 0.000000 2.962520 
# 
# 
# High freq. dielectric constant tensor:
#      x y z
#    x 1.700070 0.000000 0.000000 
#    y 0.000000 1.697030 0.000000 
#    z 0.000000 0.000000 1.644320 
# 
# From -- ./inp_files/39840.got.cif
#   From: 2010.03.12/outbox.cif.g09.slc.cpg/sg74_20_cif.got.tgz:39840.got - 2010.04.16 15:46:19.
