data_PCOD8298446
_publ_section_title
;
Structure prediction by ZEFSAII (Michael W. Deem and Ramdas Pophale) SiO2 
 PCOD8298446
Probable space group: I M M A
;
_chemical_formula_sum "Si O2"
_cell_formula_units_Z 72
_cell_length_a 32.132490
_cell_length_b 9.300375
_cell_length_c 13.040624
_cell_angle_alpha 90.000000
_cell_angle_beta 90.000000
_cell_angle_gamma 90.000000
_cell_volume 3897.114934
_symmetry_space_group_name_H-M "I M M A"
_symmetry_group_IT_number 74
_symmetry_cell_setting 'orthorhombic'
loop_
_space_group_symop_operation_xyz
x,y,z
-x,1/2-y,z
x,-y,-z
-x,1/2+y,-z
-x,-y,-z
x,1/2+y,-z
-x,y,z
x,1/2-y,z
1/2+x,1/2+y,1/2+z
1/2-x,-y,1/2+z
1/2+x,1/2-y,1/2-z
1/2-x,y,1/2-z
1/2-x,1/2-y,1/2-z
1/2+x,y,1/2-z
1/2-x,1/2+y,1/2+z
1/2+x,-y,1/2+z
loop_
_atom_site_type_symbol
_atom_site_label
_atom_site_fract_x
_atom_site_fract_y
_atom_site_fract_z
Si Si1 0.797495 0.085051 0.231111
Si Si2 0.349863 0.592752 0.408841
Si Si3 0.000000 0.921049 0.109837
Si Si4 0.576789 0.590856 0.252001
Si Si5 0.131216 0.418782 0.393820
O O1 0.802507 0.250000 0.198731
O O2 0.750000 0.044068 0.250000
O O3 0.826881 0.052396 0.328706
O O4 0.809591 0.988423 0.134219
O O5 0.369721 0.500000 0.500000
O O6 0.336517 0.750000 0.448899
O O7 0.383422 0.608060 0.321792
O O8 0.960559 0.970008 0.178018
O O9 0.000000 0.750000 0.089093
O O10 0.000000 0.000000 0.000000
O O11 0.565126 0.750000 0.207686
O O12 0.589490 0.481485 0.161196
O O13 0.137868 0.500000 0.500000
O O14 0.123940 0.250000 0.412582
#
# Coordination Sequence:
#
# PCOD8298446 Si02
#       5
#    16  16   8  16  16
#     4   9  19  35  52  73 101 131 167 211 256 303
#     4  10  19  31  49  72 100 133 166 202 246 298
#     4  10  20  34  55  82 111 140 169 208 256 308
#     4   9  19  35  53  76 105 135 170 210 252 301
#     4  10  20  35  56  77 101 136 175 216 260 307
#
# _framework density 18.475207000000001
#
# number of rings (size 3 to 8) (size 9 to 14) (size 15 to 20)
#    0.000    2.444    0.000    2.000    0.000    4.000 
#    0.000    2.778    0.000    0.000    0.000    0.000 
#    0.000    0.000    0.000    0.000    0.000    0.000 
#
# Total GULP energy -446240.791892 kJ/mol
# GULP energy per Si atom -12395.577553 kJ/mol
# Density = 1.843316 g / cm^3
# Si number density = 18.475207 Si / 1000 Ang^3
#
#
#
# Elastic Constant Matrix: (Units=GPa)
#
#
# Indices 1 2 3 4 5 6 
#
# 1 94.7999 31.4187 21.9134 0.0000 0.0000 0.0000
# 2 31.4187 109.2253 47.6011 0.0000 0.0000 0.0000
# 3 21.9134 47.6011 70.3923 0.0000 0.0000 0.0000
# 4 0.0000 0.0000 0.0000 38.0945 0.0000 0.0000
# 5 0.0000 0.0000 0.0000 0.0000 11.7952 0.0000
# 6 0.0000 0.0000 0.0000 0.0000 0.0000 26.0427
#
#
#
# Elastic Compliance Matrix: (Units=1/GPa)
#
#
# Indices 1 2 3 4 5 6 
#
# 1 0.011848 -0.002553 -0.001962 0.000000 0.000000 0.000000
# 2 -0.002553 0.013531 -0.008355 0.000000 0.000000 0.000000
# 3 -0.001962 -0.008355 0.020467 0.000000 0.000000 0.000000
# 4 0.000000 0.000000 0.000000 0.026250 0.000000 0.000000
# 5 0.000000 0.000000 0.000000 0.000000 0.084780 0.000000
# 6 0.000000 0.000000 0.000000 0.000000 0.000000 0.038399
#
#
# Mechanical properties :
#
#
# Convention : Reuss Voigt Hill
#
# Bulk Modulus (GPa) = 49.73742 52.92043 51.32892
# Shear Modulus (GPa) = 21.95699 26.75209 24.35454
#
# Velocity S-wave (km/s) = 3.45114 3.80939 3.63468
# Velocity P-wave (km/s) = 6.54676 6.93216 6.74221
#
# Compressibility (1/GPa) = 0.02010559
#
# Stress axis : x y z
#
# Youngs Moduli (GPa) = 84.40102 73.90387 48.85939
#
# Poissons Ratio (x) = 0.18869 0.09586
# Poissons Ratio (y) = 0.21549 0.40823
# Poissons Ratio (z) = 0.16558 0.61749
#
# Static dielectric constant tensor:
#      x y z
#    x 3.383050 0.000000 0.000000 
#    y 0.000000 3.820190 0.000000 
#    z 0.000000 0.000000 3.315640 
# 
# 
# High freq. dielectric constant tensor:
#      x y z
#    x 1.706340 0.000000 0.000000 
#    y 0.000000 1.725870 0.000000 
#    z 0.000000 0.000000 1.709090 
# 
# From -- ./inp_files/29397.got.cif
#   From: 2010.03.12/outbox.cif.g09.slc.cpg/sg74_15_cif.got.tgz:29397.got - 2010.04.16 15:46:19.
