data_PCOD8298500
_publ_section_title
;
Structure prediction by ZEFSAII (Michael W. Deem and Ramdas Pophale) SiO2 
 PCOD8298500
Probable space group: I M M A
;
_chemical_formula_sum "Si O2"
_cell_formula_units_Z 64
_cell_length_a 8.887006
_cell_length_b 29.738152
_cell_length_c 15.083420
_cell_angle_alpha 90.000000
_cell_angle_beta 90.000000
_cell_angle_gamma 90.000000
_cell_volume 3986.293528
_symmetry_space_group_name_H-M "I M M A"
_symmetry_group_IT_number 74
_symmetry_cell_setting 'orthorhombic'
loop_
_space_group_symop_operation_xyz
x,y,z
-x,1/2-y,z
x,-y,-z
-x,1/2+y,-z
-x,-y,-z
x,1/2+y,-z
-x,y,z
x,1/2-y,z
1/2+x,1/2+y,1/2+z
1/2-x,-y,1/2+z
1/2+x,1/2-y,1/2-z
1/2-x,y,1/2-z
1/2-x,1/2-y,1/2-z
1/2+x,y,1/2-z
1/2-x,1/2+y,1/2+z
1/2+x,-y,1/2+z
loop_
_atom_site_type_symbol
_atom_site_label
_atom_site_fract_x
_atom_site_fract_y
_atom_site_fract_z
Si Si1 0.177848 0.863035 0.513072
Si Si2 0.673624 0.802892 0.659154
Si Si3 0.670127 0.384924 0.656485
Si Si4 0.329443 0.549640 0.489060
O O1 0.243086 0.825973 0.577966
O O2 0.242236 0.852855 0.413865
O O3 0.231889 0.913301 0.543416
O O4 0.000000 0.860293 0.512512
O O5 0.500000 0.817324 0.660863
O O6 0.693477 0.750000 0.646377
O O7 0.750000 0.819168 0.750000
O O8 0.500000 0.367236 0.667705
O O9 0.750000 0.384763 0.750000
O O10 0.671525 0.435612 0.615065
O O11 0.258024 0.500000 0.500000
O O12 0.500000 0.549836 0.526622
#
# Coordination Sequence:
#
# PCOD8298500 Si02
#       4
#    16  16  16  16
#     4  10  19  31  50  75 103 135 169 208 252 304
#     4  10  20  35  55  78 104 135 172 213 259 311
#     4   9  17  30  49  72  97 130 170 207 249 299
#     4   8  16  31  49  68  97 134 169 210 254 299
#
# _framework density 16.055015000000001
#
# number of rings (size 3 to 8) (size 9 to 14) (size 15 to 20)
#    1.500    1.250    0.000    3.000    0.000    2.000 
#    0.000    1.250    0.000    3.750    0.000    0.000 
#    0.000    0.000    0.000    0.000    0.000    0.000 
#
# Total GULP energy -396430.903822 kJ/mol
# GULP energy per Si atom -12388.465744 kJ/mol
# Density = 1.601847 g / cm^3
# Si number density = 16.055015 Si / 1000 Ang^3
#
#
#
# Elastic Constant Matrix: (Units=GPa)
#
#
# Indices 1 2 3 4 5 6 
#
# 1 148.8061 41.1492 62.6229 0.0000 0.0000 0.0000
# 2 41.1492 40.2441 37.7601 0.0001 0.0000 0.0000
# 3 62.6229 37.7601 112.5681 0.0005 0.0002 -0.0001
# 4 0.0000 0.0001 0.0005 23.6411 0.0001 -0.0001
# 5 0.0000 0.0000 0.0002 0.0001 32.7610 0.0000
# 6 0.0000 0.0000 -0.0001 -0.0001 0.0000 17.7743
#
#
#
# Elastic Compliance Matrix: (Units=1/GPa)
#
#
# Indices 1 2 3 4 5 6 
#
# 1 0.010075 -0.007359 -0.003136 0.000000 0.000000 0.000000
# 2 -0.007359 0.041636 -0.009873 0.000000 0.000000 0.000000
# 3 -0.003136 -0.009873 0.013940 0.000000 0.000000 0.000000
# 4 0.000000 0.000000 0.000000 0.042299 0.000000 0.000000
# 5 0.000000 0.000000 0.000000 0.000000 0.030524 0.000000
# 6 0.000000 0.000000 0.000000 0.000000 0.000000 0.056261
#
#
# Mechanical properties :
#
#
# Convention : Reuss Voigt Hill
#
# Bulk Modulus (GPa) = 40.13606 64.96475 52.55040
# Shear Modulus (GPa) = 20.51064 25.50770 23.00917
#
# Velocity S-wave (km/s) = 3.57812 3.99026 3.78980
# Velocity P-wave (km/s) = 6.49030 7.86010 7.20782
#
# Compressibility (1/GPa) = 0.02491525
#
# Stress axis : x y z
#
# Youngs Moduli (GPa) = 99.25598 24.01774 71.73585
#
# Poissons Ratio (x) = 0.17674 0.22499
# Poissons Ratio (y) = 0.73040 0.70823
# Poissons Ratio (z) = 0.31130 0.23712
#
# Static dielectric constant tensor:
#      x y z
#    x 3.172880 0.000000 0.000000 
#    y 0.000000 2.855850 0.000000 
#    z 0.000000 0.000000 2.868200 
# 
# 
# High freq. dielectric constant tensor:
#      x y z
#    x 1.632320 0.000000 0.000000 
#    y 0.000000 1.591330 0.000000 
#    z 0.000000 0.000000 1.601200 
# 
# From -- ./inp_files/28826.got.cif
#   From: 2010.03.12/outbox.cif.g09.slc.cpg/sg74_15_cif.got.tgz:28826.got - 2010.04.16 15:46:19.
