data_PCOD8298599
_publ_section_title
;
Structure prediction by ZEFSAII (Michael W. Deem and Ramdas Pophale) SiO2 
 PCOD8298599
Probable space group: I M M A
;
_chemical_formula_sum "Si O2"
_cell_formula_units_Z 128
_cell_length_a 17.273798
_cell_length_b 25.750001
_cell_length_c 18.345772
_cell_angle_alpha 90.000000
_cell_angle_beta 90.000000
_cell_angle_gamma 90.000000
_cell_volume 8160.205179
_symmetry_space_group_name_H-M "I M M A"
_symmetry_group_IT_number 74
_symmetry_cell_setting 'orthorhombic'
loop_
_space_group_symop_operation_xyz
x,y,z
-x,1/2-y,z
x,-y,-z
-x,1/2+y,-z
-x,-y,-z
x,1/2+y,-z
-x,y,z
x,1/2-y,z
1/2+x,1/2+y,1/2+z
1/2-x,-y,1/2+z
1/2+x,1/2-y,1/2-z
1/2-x,y,1/2-z
1/2-x,1/2-y,1/2-z
1/2+x,y,1/2-z
1/2-x,1/2+y,1/2+z
1/2+x,-y,1/2+z
loop_
_atom_site_type_symbol
_atom_site_label
_atom_site_fract_x
_atom_site_fract_y
_atom_site_fract_z
Si Si1 0.322107 0.946496 0.456695
Si Si2 0.324388 0.309271 0.199481
Si Si3 0.909779 0.499964 0.668545
Si Si4 0.352009 0.443854 0.963823
Si Si5 0.909141 0.596575 0.917538
Si Si6 0.591042 0.993259 0.331409
Si Si7 0.410103 0.694475 0.661687
Si Si8 0.408115 0.891455 0.898287
O O1 0.235411 0.925550 0.449789
O O2 0.371838 0.906227 0.503158
O O3 0.361126 0.951104 0.377550
O O4 0.324844 0.000000 0.500000
O O5 0.311755 0.250000 0.170612
O O6 0.250000 0.326240 0.250000
O O7 0.398211 0.312819 0.252308
O O8 0.349562 0.346682 0.131976
O O9 0.890727 0.451309 0.615770
O O10 0.876629 0.489342 0.749235
O O11 0.878862 0.555619 0.640518
O O12 0.000000 0.506242 0.675576
O O13 0.357373 0.500000 0.000000
O O14 0.394442 0.400834 0.014544
O O15 0.889124 0.549936 0.862863
O O16 0.870852 0.648097 0.882896
O O17 0.000000 0.600670 0.928682
O O18 0.500000 0.981066 0.337902
O O19 0.500000 0.693617 0.645792
O O20 0.373875 0.750000 0.636765
O O21 0.500000 0.879067 0.885936
#
# Coordination Sequence:
#
# PCOD8298599 Si02
#       8
#    16  16  16  16  16  16  16  16
#     4   9  17  27  39  58  87 113 145 182 222 266
#     4  10  21  33  45  66  93 118 146 187 229 261
#     4   9  17  30  45  63  87 115 152 192 226 267
#     4   9  18  30  42  62  85 114 148 189 230 264
#     4   9  16  26  42  61  84 116 149 180 214 261
#     4   9  16  26  41  61  85 116 148 180 220 266
#     4   9  17  29  44  61  83 113 146 178 212 252
#     4  10  19  32  49  65  84 120 158 185 222 269
#
# _framework density 15.685879999999999
#
# number of rings (size 3 to 8) (size 9 to 14) (size 15 to 20)
#    0.000    2.750    0.000    1.875    1.750    6.250 
#    4.500    0.000    0.000    0.000    0.000    0.000 
#    0.000    1.000    0.000    8.125    0.000    2.750 
#
# Total GULP energy -792906.625162 kJ/mol
# GULP energy per Si atom -12389.166018 kJ/mol
# Density = 1.565018 g / cm^3
# Si number density = 15.685880 Si / 1000 Ang^3
#
#
#
# Elastic Constant Matrix: (Units=GPa)
#
#
# Indices 1 2 3 4 5 6 
#
# 1 41.3779 23.6873 30.3865 0.0000 0.0000 0.0000
# 2 23.6873 63.5903 41.7944 0.0000 0.0000 0.0000
# 3 30.3865 41.7944 106.5885 0.0001 0.0000 0.0000
# 4 0.0000 0.0000 0.0001 24.2001 0.0000 0.0000
# 5 0.0000 0.0000 0.0000 0.0000 14.9517 0.0000
# 6 0.0000 0.0000 0.0000 0.0000 0.0000 11.9601
#
#
#
# Elastic Compliance Matrix: (Units=1/GPa)
#
#
# Indices 1 2 3 4 5 6 
#
# 1 0.033581 -0.008375 -0.006289 0.000000 0.000000 0.000000
# 2 -0.008375 0.023274 -0.006738 0.000000 0.000000 0.000000
# 3 -0.006289 -0.006738 0.013817 0.000000 0.000000 0.000000
# 4 0.000000 0.000000 0.000000 0.041322 0.000000 0.000000
# 5 0.000000 0.000000 0.000000 0.000000 0.066882 0.000000
# 6 0.000000 0.000000 0.000000 0.000000 0.000000 0.083611
#
#
# Mechanical properties :
#
#
# Convention : Reuss Voigt Hill
#
# Bulk Modulus (GPa) = 35.88582 44.81034 40.34808
# Shear Modulus (GPa) = 15.89411 17.93494 16.91453
#
# Velocity S-wave (km/s) = 3.18665 3.38506 3.28735
# Velocity P-wave (km/s) = 6.03880 6.62627 6.33935
#
# Compressibility (1/GPa) = 0.02786616
#
# Stress axis : x y z
#
# Youngs Moduli (GPa) = 29.77911 42.96602 72.37443
#
# Poissons Ratio (x) = 0.35985 0.45518
# Poissons Ratio (y) = 0.24940 0.48769
# Poissons Ratio (z) = 0.18729 0.28952
#
# Static dielectric constant tensor:
#      x y z
#    x 3.003320 0.000000 0.000000 
#    y 0.000000 2.969450 0.000000 
#    z 0.000000 0.000000 3.131670 
# 
# 
# High freq. dielectric constant tensor:
#      x y z
#    x 1.607380 0.000000 0.000000 
#    y 0.000000 1.560280 0.000000 
#    z 0.000000 0.000000 1.590250 
# 
# From -- ./inp_files/44643.got.cif
#   From: 2010.03.12/outbox.cif.g09.slc.cpg/sg74_23_cif.got.tgz:44643.got - 2010.04.16 15:46:19.
