data_PCOD8298181
_publ_section_title
;
Structure prediction by ZEFSAII (Michael W. Deem and Ramdas Pophale) SiO2 
 PCOD8298181
Probable space group: I M M A
;
_chemical_formula_sum "Si O2"
_cell_formula_units_Z 120
_cell_length_a 26.288421
_cell_length_b 9.031096
_cell_length_c 28.608205
_cell_angle_alpha 90.000000
_cell_angle_beta 90.000000
_cell_angle_gamma 90.000000
_cell_volume 6791.967033
_symmetry_space_group_name_H-M "I M M A"
_symmetry_group_IT_number 74
_symmetry_cell_setting 'orthorhombic'
loop_
_space_group_symop_operation_xyz
x,y,z
-x,1/2-y,z
x,-y,-z
-x,1/2+y,-z
-x,-y,-z
x,1/2+y,-z
-x,y,z
x,1/2-y,z
1/2+x,1/2+y,1/2+z
1/2-x,-y,1/2+z
1/2+x,1/2-y,1/2-z
1/2-x,y,1/2-z
1/2-x,1/2-y,1/2-z
1/2+x,y,1/2-z
1/2-x,1/2+y,1/2+z
1/2+x,-y,1/2+z
loop_
_atom_site_type_symbol
_atom_site_label
_atom_site_fract_x
_atom_site_fract_y
_atom_site_fract_z
Si Si1 0.558678 0.923764 0.861848
Si Si2 0.060505 0.083914 0.544985
Si Si3 0.055592 0.582198 0.807733
Si Si4 0.000000 0.079976 0.951877
Si Si5 0.401193 0.579555 0.225684
Si Si6 0.888396 0.425116 0.949333
Si Si7 0.654428 0.576711 0.635689
Si Si8 0.702052 0.578211 0.279664
O O1 0.500000 0.966006 0.851946
O O2 0.565920 0.750000 0.866655
O O3 0.578726 0.997357 0.909291
O O4 0.594128 0.985144 0.821107
O O5 0.082496 0.250000 0.546222
O O6 0.000000 0.086554 0.542199
O O7 0.083180 0.000000 0.500000
O O8 0.063029 0.750000 0.789591
O O9 0.057535 0.474966 0.763137
O O10 0.098523 0.541859 0.844597
O O11 0.000000 0.561489 0.831415
O O12 0.054486 0.041757 0.927542
O O13 0.000000 0.250000 0.964719
O O14 0.000000 0.000000 0.000000
O O15 0.411380 0.750000 0.213953
O O16 0.345727 0.550496 0.246456
O O17 0.878493 0.250000 0.953811
O O18 0.846004 0.494999 0.914534
O O19 0.881930 0.500000 0.000000
O O20 0.665333 0.750000 0.628869
O O21 0.696347 0.510553 0.671436
O O22 0.708488 0.750000 0.292833
O O23 0.750000 0.519187 0.250000
#
# Coordination Sequence:
#
# PCOD8298181 Si02
#       8
#    16  16  16   8  16  16  16  16
#     4  10  19  29  42  62  92 129 161 189 225 271
#     4   9  16  26  40  59  85 118 157 196 228 260
#     4   9  18  31  44  61  91 130 163 192 230 277
#     4   8  16  28  42  62  90 130 174 212 246 282
#     4  10  19  30  46  69  92 116 152 194 235 282
#     4  10  19  32  48  69  99 135 174 214 252 291
#     4  10  20  32  49  74 100 128 165 205 246 294
#     4   9  19  37  57  74  95 123 155 198 251 302
#
# _framework density 17.667929000000001
#
# number of rings (size 3 to 8) (size 9 to 14) (size 15 to 20)
#    0.000    2.533    0.000    2.400    0.933    6.133 
#    0.000    0.000    0.000    0.000    0.000    0.933 
#    0.000    0.000    0.000    0.000    0.000    0.000 
#
# Total GULP energy -743701.106061 kJ/mol
# GULP energy per Si atom -12395.018434 kJ/mol
# Density = 1.762772 g / cm^3
# Si number density = 17.667929 Si / 1000 Ang^3
#
#
#
# Elastic Constant Matrix: (Units=GPa)
#
#
# Indices 1 2 3 4 5 6 
#
# 1 48.5047 21.1053 26.9832 0.0000 0.0000 0.0000
# 2 21.1053 95.9651 58.9054 0.0000 0.0000 0.0000
# 3 26.9832 58.9054 107.4475 0.0000 0.0000 0.0000
# 4 0.0000 0.0000 0.0000 36.0040 0.0000 0.0000
# 5 0.0000 0.0000 0.0000 0.0000 21.3977 0.0000
# 6 0.0000 0.0000 0.0000 0.0000 0.0000 17.6638
#
#
#
# Elastic Compliance Matrix: (Units=1/GPa)
#
#
# Indices 1 2 3 4 5 6 
#
# 1 0.024329 -0.002412 -0.004787 0.000000 0.000000 0.000000
# 2 -0.002412 0.015945 -0.008136 0.000000 0.000000 0.000000
# 3 -0.004787 -0.008136 0.014969 0.000000 0.000000 0.000000
# 4 0.000000 0.000000 0.000000 0.027775 0.000000 0.000000
# 5 0.000000 0.000000 0.000000 0.000000 0.046734 0.000000
# 6 0.000000 0.000000 0.000000 0.000000 0.000000 0.056613
#
#
# Mechanical properties :
#
#
# Convention : Reuss Voigt Hill
#
# Bulk Modulus (GPa) = 40.69473 51.76723 46.23098
# Shear Modulus (GPa) = 22.19990 24.67465 23.43727
#
# Velocity S-wave (km/s) = 3.54857 3.74114 3.64613
# Velocity P-wave (km/s) = 6.31450 6.93002 6.62941
#
# Compressibility (1/GPa) = 0.02457321
#
# Stress axis : x y z
#
# Youngs Moduli (GPa) = 41.10257 62.71678 66.80356
#
# Poissons Ratio (x) = 0.15127 0.31982
# Poissons Ratio (y) = 0.09914 0.54348
# Poissons Ratio (z) = 0.19678 0.51024
#
# Static dielectric constant tensor:
#      x y z
#    x 3.013210 0.000000 0.000000 
#    y 0.000000 3.337980 0.000000 
#    z 0.000000 0.000000 3.243580 
# 
# 
# High freq. dielectric constant tensor:
#      x y z
#    x 1.630550 0.000000 0.000000 
#    y 0.000000 1.697210 0.000000 
#    z 0.000000 0.000000 1.683190 
# 
# From -- ./inp_files/68977.got.cif
#   From: 2010.03.12/outbox.cif.g09.slc.cpg/sg74_35_cif.got.tgz:68977.got - 2010.04.16 15:46:19.
