data_PCOD8298065
_publ_section_title
;
Structure prediction by ZEFSAII (Michael W. Deem and Ramdas Pophale) SiO2 
 PCOD8298065
Probable space group: I M M A
;
_chemical_formula_sum "Si O2"
_cell_formula_units_Z 88
_cell_length_a 22.401200
_cell_length_b 7.859460
_cell_length_c 25.153934
_cell_angle_alpha 90.000000
_cell_angle_beta 90.000000
_cell_angle_gamma 90.000000
_cell_volume 4428.635209
_symmetry_space_group_name_H-M "I M M A"
_symmetry_group_IT_number 74
_symmetry_cell_setting 'orthorhombic'
loop_
_space_group_symop_operation_xyz
x,y,z
-x,1/2-y,z
x,-y,-z
-x,1/2+y,-z
-x,-y,-z
x,1/2+y,-z
-x,y,z
x,1/2-y,z
1/2+x,1/2+y,1/2+z
1/2-x,-y,1/2+z
1/2+x,1/2-y,1/2-z
1/2-x,y,1/2-z
1/2-x,1/2-y,1/2-z
1/2+x,y,1/2-z
1/2-x,1/2+y,1/2+z
1/2+x,-y,1/2+z
loop_
_atom_site_type_symbol
_atom_site_label
_atom_site_fract_x
_atom_site_fract_y
_atom_site_fract_z
Si Si1 0.566893 0.250000 0.145568
Si Si2 0.500000 0.550331 0.560982
Si Si3 0.855617 0.560877 0.228546
Si Si4 0.565709 0.250000 0.271791
Si Si5 0.275649 0.556221 0.640107
Si Si6 0.850476 0.942836 0.351902
Si Si7 0.627288 0.445100 0.560955
O O1 0.500000 0.250000 0.121023
O O2 0.562224 0.250000 0.208625
O O3 0.600897 0.421664 0.126351
O O4 0.500000 0.750000 0.568400
O O5 0.500000 0.500000 0.500000
O O6 0.561177 0.476010 0.586025
O O7 0.883480 0.750000 0.222245
O O8 0.902021 0.419920 0.207382
O O9 0.797028 0.547138 0.192096
O O10 0.839079 0.525870 0.289440
O O11 0.500000 0.250000 0.297265
O O12 0.264187 0.750000 0.656823
O O13 0.213238 0.475129 0.620022
O O14 0.323716 0.551326 0.592908
O O15 0.872835 0.750000 0.363695
O O16 0.628961 0.500000 0.500000
O O17 0.644615 0.250000 0.567148
#
# Coordination Sequence:
#
# PCOD8298065 Si02
#       7
#     8   8  16   8  16  16  16
#     4   9  18  33  53  77 107 143 177 211 257 314
#     4  10  18  34  56  76  98 134 180 220 270 320
#     4  10  20  34  51  74 103 138 180 221 270 317
#     4   9  18  33  49  69 101 140 178 222 268 314
#     4  12  22  35  54  77 104 138 177 223 272 319
#     4  10  20  34  54  79 108 142 177 221 264 315
#     4  11  22  38  56  77 104 137 177 225 272 319
#
# _framework density 19.870681999999999
#
# number of rings (size 3 to 8) (size 9 to 14) (size 15 to 20)
#    0.000    1.636    1.818    5.727    0.000    2.909 
#    1.636    3.636    0.000    0.000    0.000    0.000 
#    0.000    0.727    0.364    0.000    0.000    0.000 
#
# Total GULP energy -545557.402352 kJ/mol
# GULP energy per Si atom -12399.031872 kJ/mol
# Density = 1.982546 g / cm^3
# Si number density = 19.870682 Si / 1000 Ang^3
#
#
#
# Elastic Constant Matrix: (Units=GPa)
#
#
# Indices 1 2 3 4 5 6 
#
# 1 155.7718 55.4007 15.8922 0.0000 0.0000 0.0000
# 2 55.4007 156.6568 4.8940 0.0000 0.0000 0.0000
# 3 15.8922 4.8940 26.8968 0.0000 0.0000 0.0000
# 4 0.0000 0.0000 0.0000 17.8716 0.0000 0.0000
# 5 0.0000 0.0000 0.0000 0.0000 -847.2835 0.0000
# 6 0.0000 0.0000 0.0000 0.0000 0.0000 24.8691
#
#
#
# Elastic Compliance Matrix: (Units=1/GPa)
#
#
# Indices 1 2 3 4 5 6 
#
# 1 0.007771 -0.002620 -0.004115 0.000000 0.000000 0.000000
# 2 -0.002620 0.007303 0.000219 0.000000 0.000000 0.000000
# 3 -0.004115 0.000219 0.039571 0.000000 0.000000 0.000000
# 4 0.000000 0.000000 0.000000 0.055955 0.000000 0.000000
# 5 0.000000 0.000000 0.000000 0.000000 -0.001180 0.000000
# 6 0.000000 0.000000 0.000000 0.000000 0.000000 0.040211
#
#
# Mechanical properties :
#
#
# Convention : Reuss Voigt Hill
#
# Bulk Modulus (GPa) = 24.03060 54.63325 39.33193
# Shear Modulus (GPa) = 28.32339 -143.36601 -57.52131
#
# Velocity S-wave (km/s) = 3.77952 -8.50330 -5.38616
# Velocity P-wave (km/s) = 5.58267 8.29784 4.34096
#
# Compressibility (1/GPa) = 0.04161360
#
# Stress axis : x y z
#
# Youngs Moduli (GPa) = 128.68095 136.93066 25.27120
#
# Poissons Ratio (x) = 0.35871 0.10399
# Poissons Ratio (y) = 0.33710 -0.00554
# Poissons Ratio (z) = 0.52952 -0.02999
#
# Static dielectric constant tensor:
#      x y z
#    x 3.878240 0.000000 0.000000 
#    y 0.000000 3.868770 0.000000 
#    z 0.000000 0.000000 3.114450 
# 
# 
# High freq. dielectric constant tensor:
#      x y z
#    x 1.772340 0.000000 0.000000 
#    y 0.000000 1.797260 0.000000 
#    z 0.000000 0.000000 1.714560 
# 
# From -- ./inp_files/61479.got.cif
#   From: 2010.03.12/outbox.cif.g09.slc.cpg/sg74_31_cif.got.tgz:61479.got - 2010.04.16 15:46:19.
