data_PCOD8298247
_publ_section_title
;
Structure prediction by ZEFSAII (Michael W. Deem and Ramdas Pophale) SiO2 
 PCOD8298247
Probable space group: I M M A
;
_chemical_formula_sum "Si O2"
_cell_formula_units_Z 96
_cell_length_a 18.467677
_cell_length_b 8.970854
_cell_length_c 32.185024
_cell_angle_alpha 90.000000
_cell_angle_beta 90.000000
_cell_angle_gamma 90.000000
_cell_volume 5332.119771
_symmetry_space_group_name_H-M "I M M A"
_symmetry_group_IT_number 74
_symmetry_cell_setting 'orthorhombic'
loop_
_space_group_symop_operation_xyz
x,y,z
-x,1/2-y,z
x,-y,-z
-x,1/2+y,-z
-x,-y,-z
x,1/2+y,-z
-x,y,z
x,1/2-y,z
1/2+x,1/2+y,1/2+z
1/2-x,-y,1/2+z
1/2+x,1/2-y,1/2-z
1/2-x,y,1/2-z
1/2-x,1/2-y,1/2-z
1/2+x,y,1/2-z
1/2-x,1/2+y,1/2+z
1/2+x,-y,1/2+z
loop_
_atom_site_type_symbol
_atom_site_label
_atom_site_fract_x
_atom_site_fract_y
_atom_site_fract_z
Si Si1 0.784721 0.427410 0.095174
Si Si2 0.356796 0.072673 0.045102
Si Si3 0.718294 0.927215 0.687429
Si Si4 0.500000 0.428502 0.188011
Si Si5 0.919700 0.575526 0.956349
Si Si6 0.000000 0.073277 0.406486
Si Si7 0.140494 0.427045 0.266363
O O1 0.783420 0.250000 0.096912
O O2 0.713489 0.483238 0.070719
O O3 0.788271 0.496023 0.141494
O O4 0.858001 0.487342 0.073951
O O5 0.356759 0.250000 0.040022
O O6 0.428346 0.016956 0.069521
O O7 0.355451 0.000000 0.000000
O O8 0.720905 0.750000 0.684548
O O9 0.792609 0.988032 0.706822
O O10 0.651761 0.975243 0.717932
O O11 0.500000 0.250000 0.187437
O O12 0.500000 0.489430 0.140696
O O13 0.431800 0.493891 0.213379
O O14 0.909913 0.750000 0.963059
O O15 0.000000 0.538730 0.938451
O O16 0.907432 0.500000 0.000000
O O17 0.000000 0.250000 0.404722
O O18 0.138012 0.250000 0.269111
#
# Coordination Sequence:
#
# PCOD8298247 Si02
#       7
#    16  16  16   8  16   8  16
#     4   9  16  26  40  57  77 106 141 170 201 246
#     4  10  19  30  44  62  84 113 144 175 210 246
#     4   8  13  22  33  47  70 101 133 162 192 235
#     4   9  14  21  33  52  74 102 137 167 193 239
#     4   9  17  29  43  59  79 105 135 167 203 241
#     4   9  17  27  40  58  82 112 144 173 205 247
#     4   8  13  20  31  47  70 100 133 162 192 231
#
# _framework density 18.004096000000001
#
# number of rings (size 3 to 8) (size 9 to 14) (size 15 to 20)
#    0.000    3.167    0.000    2.750    0.000    4.000 
#    1.500    0.000    0.000    0.000    0.000    0.000 
#    0.000    0.000    0.000   31.500    0.667   35.000 
#
# Total GULP energy -594804.976177 kJ/mol
# GULP energy per Si atom -12391.770337 kJ/mol
# Density = 1.796312 g / cm^3
# Si number density = 18.004096 Si / 1000 Ang^3
#
#
#
# Elastic Constant Matrix: (Units=GPa)
#
#
# Indices 1 2 3 4 5 6 
#
# 1 167.1115 11.4205 116.8896 0.0000 0.0000 0.0000
# 2 11.4205 5.0544 14.4031 0.0000 0.0000 0.0000
# 3 116.8896 14.4031 183.7358 0.0000 0.0000 0.0000
# 4 0.0000 0.0000 0.0000 14.9682 0.0000 0.0000
# 5 0.0000 0.0000 0.0000 0.0000 33.3457 0.0000
# 6 0.0000 0.0000 0.0000 0.0000 0.0000 7.5672
#
#
#
# Elastic Compliance Matrix: (Units=1/GPa)
#
#
# Indices 1 2 3 4 5 6 
#
# 1 0.010935 -0.006289 -0.006464 0.000000 0.000000 0.000000
# 2 -0.006289 0.258374 -0.016253 0.000000 0.000000 0.000000
# 3 -0.006464 -0.016253 0.010829 0.000000 0.000000 0.000000
# 4 0.000000 0.000000 0.000000 0.066808 0.000000 0.000000
# 5 0.000000 0.000000 0.000000 0.000000 0.029989 0.000000
# 6 0.000000 0.000000 0.000000 0.000000 0.000000 0.132150
#
#
# Mechanical properties :
#
#
# Convention : Reuss Voigt Hill
#
# Bulk Modulus (GPa) = 4.50194 71.25865 37.88030
# Shear Modulus (GPa) = 7.79864 25.38878 16.59371
#
# Velocity S-wave (km/s) = 2.08350 3.75929 3.03918
# Velocity P-wave (km/s) = 2.87992 7.64906 5.77936
#
# Compressibility (1/GPa) = 0.22212624
#
# Stress axis : x y z
#
# Youngs Moduli (GPa) = 91.45001 3.87036 92.34695
#
# Poissons Ratio (x) = 0.02434 0.59690
# Poissons Ratio (y) = 0.57512 1.50092
# Poissons Ratio (z) = 0.59110 0.06291
#
# Static dielectric constant tensor:
#      x y z
#    x 3.713130 0.000000 0.000000 
#    y 0.000000 2.610940 0.000000 
#    z 0.000000 0.000000 3.602990 
# 
# 
# High freq. dielectric constant tensor:
#      x y z
#    x 1.709140 0.000000 0.000000 
#    y 0.000000 1.615910 0.000000 
#    z 0.000000 0.000000 1.709420 
# 
# From -- ./inp_files/61600.got.cif
#   From: 2010.03.12/outbox.cif.g09.slc.cpg/sg74_31_cif.got.tgz:61600.got - 2010.04.16 15:46:19.
