data_PCOD8298919
_publ_section_title
;
Structure prediction by ZEFSAII (Michael W. Deem and Ramdas Pophale) SiO2 
 PCOD8298919
Probable space group: I M M A
;
_chemical_formula_sum "Si O2"
_cell_formula_units_Z 80
_cell_length_a 8.620445
_cell_length_b 18.380598
_cell_length_c 25.703817
_cell_angle_alpha 90.000000
_cell_angle_beta 90.000000
_cell_angle_gamma 90.000000
_cell_volume 4072.742407
_symmetry_space_group_name_H-M "I M M A"
_symmetry_group_IT_number 74
_symmetry_cell_setting 'orthorhombic'
loop_
_space_group_symop_operation_xyz
x,y,z
-x,1/2-y,z
x,-y,-z
-x,1/2+y,-z
-x,-y,-z
x,1/2+y,-z
-x,y,z
x,1/2-y,z
1/2+x,1/2+y,1/2+z
1/2-x,-y,1/2+z
1/2+x,1/2-y,1/2-z
1/2-x,y,1/2-z
1/2-x,1/2-y,1/2-z
1/2+x,y,1/2-z
1/2-x,1/2+y,1/2+z
1/2+x,-y,1/2+z
loop_
_atom_site_type_symbol
_atom_site_label
_atom_site_fract_x
_atom_site_fract_y
_atom_site_fract_z
Si Si1 0.683816 0.571552 0.805348
Si Si2 0.184688 0.082110 0.500547
Si Si3 0.315246 0.668077 0.900776
Si Si4 0.181952 0.915500 0.195303
Si Si5 0.179270 0.165618 0.602291
O O1 0.500000 0.568846 0.802223
O O2 0.750000 0.597174 0.750000
O O3 0.742668 0.628254 0.848575
O O4 0.743585 0.492070 0.821230
O O5 0.251267 0.125188 0.450728
O O6 0.242904 0.121323 0.552783
O O7 0.000000 0.082297 0.498530
O O8 0.249660 0.000000 0.500000
O O9 0.500000 0.669020 0.902757
O O10 0.249040 0.750000 0.901039
O O11 0.250000 0.887902 0.250000
O O12 0.220403 0.855441 0.152306
O O13 0.000000 0.925893 0.201379
O O14 0.202549 0.250000 0.589936
O O15 0.000000 0.146917 0.613394
#
# Coordination Sequence:
#
# PCOD8298919 Si02
#       5
#    16  16  16  16  16
#     4  10  19  33  54  78 106 139 178 221 263 310
#     4   9  16  28  50  79 108 138 175 218 260 305
#     4   9  17  29  48  77 110 141 175 218 265 311
#     4  11  22  37  57  78 104 138 177 219 262 311
#     4  10  20  34  54  81 111 140 172 214 264 314
#
# _framework density 19.642783000000001
#
# number of rings (size 3 to 8) (size 9 to 14) (size 15 to 20)
#    0.000    2.200    0.000    5.400    0.000    6.800 
#    0.000    0.000    0.000    8.400    0.000    0.000 
#    0.000    0.000    0.000    0.000    0.000    0.000 
#
# Total GULP energy -496103.075961 kJ/mol
# GULP energy per Si atom -12402.576899 kJ/mol
# Density = 1.959808 g / cm^3
# Si number density = 19.642783 Si / 1000 Ang^3
#
#
#
# Elastic Constant Matrix: (Units=GPa)
#
#
# Indices 1 2 3 4 5 6 
#
# 1 58.4591 21.6365 32.7955 0.0000 0.0000 0.0000
# 2 21.6365 129.7277 85.0585 0.0000 0.0000 0.0000
# 3 32.7955 85.0585 159.0864 0.0000 0.0000 0.0000
# 4 0.0000 0.0000 0.0000 36.5903 0.0000 0.0000
# 5 0.0000 0.0000 0.0000 0.0000 21.3965 0.0000
# 6 0.0000 0.0000 0.0000 0.0000 0.0000 13.9905
#
#
#
# Elastic Compliance Matrix: (Units=1/GPa)
#
#
# Indices 1 2 3 4 5 6 
#
# 1 0.019418 -0.000945 -0.003498 0.000000 0.000000 0.000000
# 2 -0.000945 0.011916 -0.006176 0.000000 0.000000 0.000000
# 3 -0.003498 -0.006176 0.010309 0.000000 0.000000 0.000000
# 4 0.000000 0.000000 0.000000 0.027330 0.000000 0.000000
# 5 0.000000 0.000000 0.000000 0.000000 0.046737 0.000000
# 6 0.000000 0.000000 0.000000 0.000000 0.000000 0.071477
#
#
# Mechanical properties :
#
#
# Convention : Reuss Voigt Hill
#
# Bulk Modulus (GPa) = 49.00818 69.58380 59.29599
# Shear Modulus (GPa) = 23.23146 28.24763 25.73955
#
# Velocity S-wave (km/s) = 3.44277 3.79630 3.62385
# Velocity P-wave (km/s) = 6.38807 7.39712 6.91103
#
# Compressibility (1/GPa) = 0.02040476
#
# Stress axis : x y z
#
# Youngs Moduli (GPa) = 51.49862 83.92413 97.00266
#
# Poissons Ratio (x) = 0.07934 0.33927
# Poissons Ratio (y) = 0.04869 0.59909
# Poissons Ratio (z) = 0.18012 0.51831
#
# Static dielectric constant tensor:
#      x y z
#    x 3.157460 0.000000 0.000000 
#    y 0.000000 3.667710 0.000000 
#    z 0.000000 0.000000 3.765950 
# 
# 
# High freq. dielectric constant tensor:
#      x y z
#    x 1.723050 0.000000 0.000000 
#    y 0.000000 1.770210 0.000000 
#    z 0.000000 0.000000 1.781610 
# 
# From -- ./inp_files/63977.got.cif
#   From: 2010.03.12/outbox.cif.g09.slc.cpg/sg74_32_cif.got.tgz:63977.got - 2010.04.16 15:46:19.
