data_PCOD8298617
_publ_section_title
;
Structure prediction by ZEFSAII (Michael W. Deem and Ramdas Pophale) SiO2 
 PCOD8298617
Probable space group: I M M A
;
_chemical_formula_sum "Si O2"
_cell_formula_units_Z 96
_cell_length_a 11.315932
_cell_length_b 13.726861
_cell_length_c 32.453402
_cell_angle_alpha 90.000000
_cell_angle_beta 90.000000
_cell_angle_gamma 90.000000
_cell_volume 5041.059163
_symmetry_space_group_name_H-M "I M M A"
_symmetry_group_IT_number 74
_symmetry_cell_setting 'orthorhombic'
loop_
_space_group_symop_operation_xyz
x,y,z
-x,1/2-y,z
x,-y,-z
-x,1/2+y,-z
-x,-y,-z
x,1/2+y,-z
-x,y,z
x,1/2-y,z
1/2+x,1/2+y,1/2+z
1/2-x,-y,1/2+z
1/2+x,1/2-y,1/2-z
1/2-x,y,1/2-z
1/2-x,1/2-y,1/2-z
1/2+x,y,1/2-z
1/2-x,1/2+y,1/2+z
1/2+x,-y,1/2+z
loop_
_atom_site_type_symbol
_atom_site_label
_atom_site_fract_x
_atom_site_fract_y
_atom_site_fract_z
Si Si1 0.370005 0.365825 0.480935
Si Si2 0.135842 0.535525 0.135929
Si Si3 0.747307 0.863113 0.898372
Si Si4 0.757311 0.634374 0.439388
Si Si5 0.000000 0.633944 0.477857
Si Si6 0.000000 0.135950 0.429197
Si Si7 0.134953 0.136524 0.777336
O O1 0.500000 0.405814 0.472593
O O2 0.365493 0.250000 0.483576
O O3 0.290193 0.399573 0.443095
O O4 0.325526 0.408803 0.524330
O O5 0.182870 0.423936 0.136387
O O6 0.217892 0.594730 0.104595
O O7 0.151901 0.576923 0.181169
O O8 0.000000 0.540896 0.121743
O O9 0.772840 0.750000 0.889546
O O10 0.609786 0.890682 0.899916
O O11 0.748667 0.750000 0.437275
O O12 0.888808 0.599255 0.450848
O O13 0.000000 0.587504 0.524609
O O14 0.000000 0.750000 0.482632
O O15 0.000000 0.250000 0.438675
O O16 0.143452 0.250000 0.787853
O O17 0.250000 0.106344 0.750000
O O18 0.000000 0.115042 0.759127
#
# Coordination Sequence:
#
# PCOD8298617 Si02
#       7
#    16  16  16  16   8   8  16
#     4   9  16  27  45  66  95 140 183 219 261 308
#     4  11  23  36  54  82 111 140 176 221 272 323
#     4  10  20  35  53  74 104 143 189 232 269 312
#     4  10  19  32  49  73 106 141 180 226 275 323
#     4   9  16  31  51  69 100 147 189 230 279 323
#     4   9  16  33  55  69  96 149 197 232 277 319
#     4   9  19  40  67  91 117 146 173 207 261 332
#
# _framework density 19.043617000000001
#
# number of rings (size 3 to 8) (size 9 to 14) (size 15 to 20)
#    0.000    2.333    1.667    1.500    0.000    4.000 
#    3.000    2.500    0.000    0.500    0.000    0.000 
#    0.000    0.000    0.000    0.000    0.000    0.000 
#
# Total GULP energy -594910.000801 kJ/mol
# GULP energy per Si atom -12393.958350 kJ/mol
# Density = 1.900027 g / cm^3
# Si number density = 19.043617 Si / 1000 Ang^3
#
#
#
# Elastic Constant Matrix: (Units=GPa)
#
#
# Indices 1 2 3 4 5 6 
#
# 1 155.6186 32.4132 58.3732 0.0000 0.0000 0.0000
# 2 32.4132 44.0294 35.0958 0.0000 0.0000 0.0000
# 3 58.3732 35.0958 79.6733 0.0000 0.0000 0.0000
# 4 0.0000 0.0000 0.0000 26.5963 0.0000 0.0000
# 5 0.0000 0.0000 0.0000 0.0000 20.0728 0.0000
# 6 0.0000 0.0000 0.0000 0.0000 0.0000 22.3116
#
#
#
# Elastic Compliance Matrix: (Units=1/GPa)
#
#
# Indices 1 2 3 4 5 6 
#
# 1 0.008986 -0.002107 -0.005656 0.000000 0.000000 0.000000
# 2 -0.002107 0.035496 -0.014092 0.000000 0.000000 0.000000
# 3 -0.005656 -0.014092 0.022902 0.000000 0.000000 0.000000
# 4 0.000000 0.000000 0.000000 0.037599 0.000000 0.000000
# 5 0.000000 0.000000 0.000000 0.000000 0.049819 0.000000
# 6 0.000000 0.000000 0.000000 0.000000 0.000000 0.044820
#
#
# Mechanical properties :
#
#
# Convention : Reuss Voigt Hill
#
# Bulk Modulus (GPa) = 42.23874 59.00953 50.62414
# Shear Modulus (GPa) = 19.90255 24.02542 21.96399
#
# Velocity S-wave (km/s) = 3.23631 3.55575 3.39979
# Velocity P-wave (km/s) = 6.01607 6.92182 6.48478
#
# Compressibility (1/GPa) = 0.02367495
#
# Stress axis : x y z
#
# Youngs Moduli (GPa) = 111.27987 28.17202 43.66363
#
# Poissons Ratio (x) = 0.05937 0.24694
# Poissons Ratio (y) = 0.23451 0.61531
# Poissons Ratio (z) = 0.62936 0.39700
#
# Static dielectric constant tensor:
#      x y z
#    x 4.117170 0.000000 0.000000 
#    y 0.000000 3.542690 0.000000 
#    z 0.000000 0.000000 3.068120 
# 
# 
# High freq. dielectric constant tensor:
#      x y z
#    x 1.763190 0.000000 0.000000 
#    y 0.000000 1.745870 0.000000 
#    z 0.000000 0.000000 1.687470 
# 
# From -- ./inp_files/71813.got.cif
#   From: 2010.03.12/outbox.cif.g09.slc.cpg/sg74_36_cif.got.tgz:71813.got - 2010.04.16 15:46:19.
