data_PCOD8298911
_publ_section_title
;
Structure prediction by ZEFSAII (Michael W. Deem and Ramdas Pophale) SiO2 
 PCOD8298911
Probable space group: I M M A
;
_chemical_formula_sum "Si O2"
_cell_formula_units_Z 64
_cell_length_a 14.953654
_cell_length_b 10.431364
_cell_length_c 17.544192
_cell_angle_alpha 90.000000
_cell_angle_beta 90.000000
_cell_angle_gamma 90.000000
_cell_volume 2736.666018
_symmetry_space_group_name_H-M "I M M A"
_symmetry_group_IT_number 74
_symmetry_cell_setting 'orthorhombic'
loop_
_space_group_symop_operation_xyz
x,y,z
-x,1/2-y,z
x,-y,-z
-x,1/2+y,-z
-x,-y,-z
x,1/2+y,-z
-x,y,z
x,1/2-y,z
1/2+x,1/2+y,1/2+z
1/2-x,-y,1/2+z
1/2+x,1/2-y,1/2-z
1/2-x,y,1/2-z
1/2-x,1/2-y,1/2-z
1/2+x,y,1/2-z
1/2-x,1/2+y,1/2+z
1/2+x,-y,1/2+z
loop_
_atom_site_type_symbol
_atom_site_label
_atom_site_fract_x
_atom_site_fract_y
_atom_site_fract_z
Si Si1 0.394261 0.012917 0.411182
Si Si2 0.106882 0.499895 0.413982
Si Si3 0.394099 0.750000 0.337041
Si Si4 0.393263 0.250000 0.832527
Si Si5 0.902098 0.250000 0.337867
Si Si6 0.332420 0.750000 0.685909
O O1 0.500000 0.038534 0.399243
O O2 0.338782 0.125643 0.368832
O O3 0.370679 0.000000 0.500000
O O4 0.360412 0.878571 0.377358
O O5 0.141515 0.500000 0.500000
O O6 0.146106 0.625773 0.374339
O O7 0.147905 0.376358 0.370097
O O8 0.000000 0.500465 0.409077
O O9 0.500000 0.750000 0.337095
O O10 0.355222 0.750000 0.252240
O O11 0.500000 0.250000 0.834181
O O12 0.913895 0.250000 0.246206
O O13 0.000000 0.250000 0.375103
O O14 0.250000 0.750000 0.750000
#
# Coordination Sequence:
#
# PCOD8298911 Si02
#       6
#    16  16   8   8   8   8
#     4  10  20  38  67  98 125 160 216 285 342 389
#     4   9  16  26  43  69  99 133 178 230 280 331
#     4   9  17  30  54  89 118 143 190 260 332 384
#     4   9  15  23  37  62  98 131 160 212 285 351
#     4  10  19  33  54  77 105 147 199 256 308 364
#     4  12  25  40  58  90 133 173 208 254 337 431
#
# _framework density 23.386120999999999
#
# number of rings (size 3 to 8) (size 9 to 14) (size 15 to 20)
#    0.000    2.250    0.000    4.125    0.000    9.000 
#    0.000    1.875    0.000    0.000    0.000    0.000 
#    0.000    0.000    0.000    0.000    0.000    0.000 
#
# Total GULP energy -396520.481109 kJ/mol
# GULP energy per Si atom -12391.265035 kJ/mol
# Density = 2.333289 g / cm^3
# Si number density = 23.386121 Si / 1000 Ang^3
#
#
#
# Elastic Constant Matrix: (Units=GPa)
#
#
# Indices 1 2 3 4 5 6 
#
# 1 58.6911 15.5856 11.9998 0.0000 0.0000 0.0000
# 2 15.5856 270.8392 139.0945 0.0000 0.0000 0.0000
# 3 11.9998 139.0945 236.2226 0.0000 0.0000 0.0000
# 4 0.0000 0.0000 0.0000 47.4929 0.0000 0.0000
# 5 0.0000 0.0000 0.0000 0.0000 9.3176 0.0000
# 6 0.0000 0.0000 0.0000 0.0000 0.0000 -7.7888
#
#
#
# Elastic Compliance Matrix: (Units=1/GPa)
#
#
# Indices 1 2 3 4 5 6 
#
# 1 0.017332 -0.000782 -0.000420 0.000000 0.000000 0.000000
# 2 -0.000782 0.005328 -0.003098 0.000000 0.000000 0.000000
# 3 -0.000420 -0.003098 0.006079 0.000000 0.000000 0.000000
# 4 0.000000 0.000000 0.000000 0.021056 0.000000 0.000000
# 5 0.000000 0.000000 0.000000 0.000000 0.107324 0.000000
# 6 0.000000 0.000000 0.000000 0.000000 0.000000 -0.128390
#
#
# Mechanical properties :
#
#
# Convention : Reuss Voigt Hill
#
# Bulk Modulus (GPa) = 49.65319 99.90142 74.77731
# Shear Modulus (GPa) = 113.53408 36.40921 74.97164
#
# Velocity S-wave (km/s) = 6.97517 3.95000 5.66814
# Velocity P-wave (km/s) = 9.28163 7.97586 8.65341
#
# Compressibility (1/GPa) = 0.02013969
#
# Stress axis : x y z
#
# Youngs Moduli (GPa) = 57.69732 187.68667 164.51179
#
# Poissons Ratio (x) = 0.14669 0.06913
# Poissons Ratio (y) = 0.04509 0.50959
# Poissons Ratio (z) = 0.02425 0.58138
#
# Static dielectric constant tensor:
#      x y z
#    x 3.741780 0.000000 0.000000 
#    y 0.000000 4.420770 0.000000 
#    z 0.000000 0.000000 4.526960 
# 
# 
# High freq. dielectric constant tensor:
#      x y z
#    x 1.891630 0.000000 0.000000 
#    y 0.000000 1.941420 0.000000 
#    z 0.000000 0.000000 1.937900 
# 
# From -- ./inp_files/33653.got.cif
#   From: 2010.03.12/outbox.cif.g09.slc.cpg/sg74_17_cif.got.tgz:33653.got - 2010.04.16 15:46:19.
