data_PCOD8298587
_publ_section_title
;
Structure prediction by ZEFSAII (Michael W. Deem and Ramdas Pophale) SiO2 
 PCOD8298587
Probable space group: I M M A
;
_chemical_formula_sum "Si O2"
_cell_formula_units_Z 104
_cell_length_a 18.154730
_cell_length_b 8.282324
_cell_length_c 34.425725
_cell_angle_alpha 90.000000
_cell_angle_beta 90.000000
_cell_angle_gamma 90.000000
_cell_volume 5176.367543
_symmetry_space_group_name_H-M "I M M A"
_symmetry_group_IT_number 74
_symmetry_cell_setting 'orthorhombic'
loop_
_space_group_symop_operation_xyz
x,y,z
-x,1/2-y,z
x,-y,-z
-x,1/2+y,-z
-x,-y,-z
x,1/2+y,-z
-x,y,z
x,1/2-y,z
1/2+x,1/2+y,1/2+z
1/2-x,-y,1/2+z
1/2+x,1/2-y,1/2-z
1/2-x,y,1/2-z
1/2-x,1/2-y,1/2-z
1/2+x,y,1/2-z
1/2-x,1/2+y,1/2+z
1/2+x,-y,1/2+z
loop_
_atom_site_type_symbol
_atom_site_label
_atom_site_fract_x
_atom_site_fract_y
_atom_site_fract_z
Si Si1 0.417688 0.442332 0.101991
Si Si2 0.845377 0.442413 0.319267
Si Si3 0.417091 0.942657 0.740341
Si Si4 0.794621 0.058661 0.456727
Si Si5 0.680545 0.557563 0.669754
Si Si6 0.147317 0.442384 0.084113
Si Si7 0.500000 0.558437 0.543657
O O1 0.500000 0.507235 0.093273
O O2 0.416596 0.250000 0.101955
O O3 0.392281 0.506174 0.144152
O O4 0.361801 0.509238 0.069360
O O5 0.845065 0.250000 0.318717
O O6 0.880978 0.510639 0.279800
O O7 0.762458 0.508752 0.322700
O O8 0.500000 0.008086 0.737308
O O9 0.415667 0.750000 0.740671
O O10 0.372347 0.010323 0.703432
O O11 0.793838 0.250000 0.455244
O O12 0.717305 0.991137 0.440085
O O13 0.807327 0.000000 0.500000
O O14 0.680937 0.750000 0.670030
O O15 0.651829 0.493568 0.628238
O O16 0.147643 0.250000 0.083612
O O17 0.072560 0.510656 0.065019
O O18 0.500000 0.750000 0.545007
O O19 0.500000 0.500000 0.500000
#
# Coordination Sequence:
#
# PCOD8298587 Si02
#       7
#    16  16  16  16  16  16   8
#     4   9  16  26  41  59  81 111 147 182 217 263
#     4   9  14  23  35  50  74 108 146 179 211 254
#     4   9  16  21  29  49  76 107 143 179 212 251
#     4  10  19  32  48  66  88 115 148 185 225 268
#     4   9  15  23  35  51  75 108 145 179 213 257
#     4   9  17  29  44  62  84 114 150 184 221 268
#     4  10  20  32  48  68  90 118 154 192 228 270
#
# _framework density 20.091308999999999
#
# number of rings (size 3 to 8) (size 9 to 14) (size 15 to 20)
#    0.000    2.769    1.538    1.385    1.077    4.000 
#    0.000    0.000    0.000    0.000    0.000    0.000 
#    0.000    0.000    0.000    4.154    0.615    5.077 
#
# Total GULP energy -644693.421882 kJ/mol
# GULP energy per Si atom -12397.950421 kJ/mol
# Density = 2.004558 g / cm^3
# Si number density = 20.091309 Si / 1000 Ang^3
#
#
#
# Elastic Constant Matrix: (Units=GPa)
#
#
# Indices 1 2 3 4 5 6 
#
# 1 226.1157 4.4150 121.8708 0.0000 0.0000 0.0000
# 2 4.4150 2.1375 1.5313 0.0000 0.0000 0.0000
# 3 121.8708 1.5313 212.1279 0.0000 0.0000 0.0000
# 4 0.0000 0.0000 0.0000 14.9961 0.0000 0.0000
# 5 0.0000 0.0000 0.0000 0.0000 38.2579 0.0000
# 6 0.0000 0.0000 0.0000 0.0000 0.0000 3.1225
#
#
#
# Elastic Compliance Matrix: (Units=1/GPa)
#
#
# Indices 1 2 3 4 5 6 
#
# 1 0.006657 -0.011067 -0.003745 0.000000 0.000000 0.000000
# 2 -0.011067 0.488678 0.002831 0.000000 0.000000 0.000000
# 3 -0.003745 0.002831 0.006845 0.000000 0.000000 0.000000
# 4 0.000000 0.000000 0.000000 0.066684 0.000000 0.000000
# 5 0.000000 0.000000 0.000000 0.000000 0.026138 0.000000
# 6 0.000000 0.000000 0.000000 0.000000 0.000000 0.320259
#
#
# Mechanical properties :
#
#
# Convention : Reuss Voigt Hill
#
# Bulk Modulus (GPa) = 2.09110 77.33504 39.71307
# Shear Modulus (GPa) = 4.55113 32.11290 18.33201
#
# Velocity S-wave (km/s) = 1.50670 4.00227 3.02393
# Velocity P-wave (km/s) = 2.01740 7.74164 5.65698
#
# Compressibility (1/GPa) = 0.47821734
#
# Stress axis : x y z
#
# Youngs Moduli (GPa) = 150.22150 2.04634 146.09179
#
# Poissons Ratio (x) = 0.02265 0.54705
# Poissons Ratio (y) = 1.66255 -0.41353
# Poissons Ratio (z) = 0.56251 -0.00579
#
# Static dielectric constant tensor:
#      x y z
#    x 4.028370 0.000000 0.000000 
#    y 0.000000 2.769510 0.000000 
#    z 0.000000 0.000000 4.186330 
# 
# 
# High freq. dielectric constant tensor:
#      x y z
#    x 1.801590 0.000000 0.000000 
#    y 0.000000 1.697110 0.000000 
#    z 0.000000 0.000000 1.800170 
# 
# From -- ./inp_files/66198.got.cif
#   From: 2010.03.12/outbox.cif.g09.slc.cpg/sg74_34_cif.got.tgz:66198.got - 2010.04.16 15:46:19.
