data_PCOD8298793
_publ_section_title
;
Structure prediction by ZEFSAII (Michael W. Deem and Ramdas Pophale) SiO2 
 PCOD8298793
Probable space group: I M M A
;
_chemical_formula_sum "Si O2"
_cell_formula_units_Z 104
_cell_length_a 17.509266
_cell_length_b 21.339502
_cell_length_c 14.776613
_cell_angle_alpha 90.000000
_cell_angle_beta 90.000000
_cell_angle_gamma 90.000000
_cell_volume 5521.119153
_symmetry_space_group_name_H-M "I M M A"
_symmetry_group_IT_number 74
_symmetry_cell_setting 'orthorhombic'
loop_
_space_group_symop_operation_xyz
x,y,z
-x,1/2-y,z
x,-y,-z
-x,1/2+y,-z
-x,-y,-z
x,1/2+y,-z
-x,y,z
x,1/2-y,z
1/2+x,1/2+y,1/2+z
1/2-x,-y,1/2+z
1/2+x,1/2-y,1/2-z
1/2-x,y,1/2-z
1/2-x,1/2-y,1/2-z
1/2+x,y,1/2-z
1/2-x,1/2+y,1/2+z
1/2+x,-y,1/2+z
loop_
_atom_site_type_symbol
_atom_site_label
_atom_site_fract_x
_atom_site_fract_y
_atom_site_fract_z
Si Si1 0.864655 0.820726 0.054869
Si Si2 0.415560 0.063251 0.445555
Si Si3 0.335060 0.000000 0.000000
Si Si4 0.288072 0.680661 0.951618
Si Si5 0.237587 0.066668 0.148496
Si Si6 0.663715 0.821985 0.240890
Si Si7 0.589622 0.876967 0.068936
O O1 0.890120 0.750000 0.024961
O O2 0.876452 0.827894 0.161915
O O3 0.914333 0.874660 0.008184
O O4 0.775765 0.831136 0.029050
O O5 0.500000 0.059527 0.401846
O O6 0.353432 0.068589 0.366634
O O7 0.397991 0.000000 0.500000
O O8 0.279077 0.019987 0.080336
O O9 0.389997 0.947011 0.039050
O O10 0.285017 0.750000 0.911264
O O11 0.273645 0.635438 0.866526
O O12 0.369324 0.670023 0.999243
O O13 0.250000 0.043630 0.250000
O O14 0.663720 0.750000 0.206436
O O15 0.750000 0.846961 0.250000
O O16 0.616897 0.864720 0.171332
O O17 0.500000 0.865389 0.061949
#
# Coordination Sequence:
#
# PCOD8298793 Si02
#       7
#    16  16   8  16  16  16  16
#     4   9  18  34  56  81 114 156 194 233 294 362
#     4  10  21  37  57  85 117 147 189 243 294 345
#     4  10  23  42  57  80 114 154 202 238 287 348
#     4   9  18  35  57  80 108 146 192 238 286 343
#     4  10  21  39  62  85 109 151 196 236 285 349
#     4  10  19  32  54  85 118 153 194 238 287 354
#     4  11  22  35  54  80 115 155 195 243 293 344
#
# _framework density 18.836760999999999
#
# number of rings (size 3 to 8) (size 9 to 14) (size 15 to 20)
#    0.000    2.154    2.308    0.692    0.000    4.308 
#    0.000    6.923    0.000    0.000    0.000    0.000 
#    0.000    0.000    0.000    0.000    0.000    0.000 
#
# Total GULP energy -644768.176404 kJ/mol
# GULP energy per Si atom -12399.388008 kJ/mol
# Density = 1.879389 g / cm^3
# Si number density = 18.836761 Si / 1000 Ang^3
#
#
#
# Elastic Constant Matrix: (Units=GPa)
#
#
# Indices 1 2 3 4 5 6 
#
# 1 122.3319 20.4785 40.6271 0.0000 0.0000 0.0000
# 2 20.4785 87.6983 31.6617 0.0000 0.0000 0.0000
# 3 40.6271 31.6617 102.9880 0.0000 0.0000 0.0000
# 4 0.0000 0.0000 0.0000 20.6224 0.0000 0.0000
# 5 0.0000 0.0000 0.0000 0.0000 18.6306 0.0000
# 6 0.0000 0.0000 0.0000 0.0000 0.0000 -0.0837
#
#
#
# Elastic Compliance Matrix: (Units=1/GPa)
#
#
# Indices 1 2 3 4 5 6 
#
# 1 0.009480 -0.000971 -0.003441 0.000000 0.000000 0.000000
# 2 -0.000971 0.012926 -0.003591 0.000000 0.000000 0.000000
# 3 -0.003441 -0.003591 0.012171 0.000000 0.000000 0.000000
# 4 0.000000 0.000000 0.000000 0.048491 0.000000 -0.000001
# 5 0.000000 0.000000 0.000000 0.000000 0.053675 -0.000001
# 6 0.000000 0.000000 0.000000 -0.000001 -0.000001-11.942651
#
#
# Mechanical properties :
#
#
# Convention : Reuss Voigt Hill
#
# Bulk Modulus (GPa) = 53.84768 55.39475 54.62121
# Shear Modulus (GPa) = -0.42431 22.51725 11.04647
#
# Velocity S-wave (km/s) = -0.47513 3.46119 2.42426
# Velocity P-wave (km/s) = 5.32424 6.74127 6.07422
#
# Compressibility (1/GPa) = 0.01857090
#
# Stress axis : x y z
#
# Youngs Moduli (GPa) = 105.48663 77.36421 82.16139
#
# Poissons Ratio (x) = 0.07515 0.28272
# Poissons Ratio (y) = 0.10246 0.29501
# Poissons Ratio (z) = 0.36298 0.27779
#
# Static dielectric constant tensor:
#      x y z
#    x 3.354770 0.000000 0.000000 
#    y 0.000000 3.620680 0.000000 
#    z 0.000000 0.000000 3.167010 
# 
# 
# High freq. dielectric constant tensor:
#      x y z
#    x 1.726480 0.000000 0.000000 
#    y 0.000000 1.742780 0.000000 
#    z 0.000000 0.000000 1.706490 
# 
# From -- ./inp_files/34327.got.cif
#   From: 2010.03.12/outbox.cif.g09.slc.cpg/sg74_18_cif.got.tgz:34327.got - 2010.04.16 15:46:19.
