data_PCOD8298343
_publ_section_title
;
Structure prediction by ZEFSAII (Michael W. Deem and Ramdas Pophale) SiO2 
 PCOD8298343
Probable space group: I M M A
;
_chemical_formula_sum "Si O2"
_cell_formula_units_Z 80
_cell_length_a 18.251188
_cell_length_b 18.767973
_cell_length_c 12.956473
_cell_angle_alpha 90.000000
_cell_angle_beta 90.000000
_cell_angle_gamma 90.000000
_cell_volume 4438.081804
_symmetry_space_group_name_H-M "I M M A"
_symmetry_group_IT_number 74
_symmetry_cell_setting 'orthorhombic'
loop_
_space_group_symop_operation_xyz
x,y,z
-x,1/2-y,z
x,-y,-z
-x,1/2+y,-z
-x,-y,-z
x,1/2+y,-z
-x,y,z
x,1/2-y,z
1/2+x,1/2+y,1/2+z
1/2-x,-y,1/2+z
1/2+x,1/2-y,1/2-z
1/2-x,y,1/2-z
1/2-x,1/2-y,1/2-z
1/2+x,y,1/2-z
1/2-x,1/2+y,1/2+z
1/2+x,-y,1/2+z
loop_
_atom_site_type_symbol
_atom_site_label
_atom_site_fract_x
_atom_site_fract_y
_atom_site_fract_z
Si Si1 0.701295 0.477898 0.888793
Si Si2 0.654603 0.535586 0.680923
Si Si3 0.845423 0.329124 0.047159
Si Si4 0.500000 0.329048 0.553485
Si Si5 0.500000 0.020425 0.618412
Si Si6 0.770958 0.673201 0.368432
O O1 0.668447 0.531641 0.803879
O O2 0.790302 0.481216 0.877947
O O3 0.675724 0.395297 0.876524
O O4 0.672500 0.500000 0.000000
O O5 0.672542 0.614266 0.637109
O O6 0.571359 0.512970 0.668653
O O7 0.830700 0.250000 0.092020
O O8 0.930096 0.338173 0.019180
O O9 0.797956 0.341334 0.943805
O O10 0.500000 0.250000 0.607031
O O11 0.500000 0.393650 0.636066
O O12 0.500000 0.000000 0.500000
O O13 0.807607 0.750000 0.398953
O O14 0.750000 0.678560 0.250000
#
# Coordination Sequence:
#
# PCOD8298343 Si02
#       6
#    16  16  16   8   8  16
#     4  11  21  36  54  75 107 140 179 220 267 321
#     4  11  21  34  55  80 100 143 177 218 272 312
#     4  10  19  33  50  77 111 135 170 217 263 321
#     4  10  20  30  48  78 110 138 157 208 273 313
#     4  12  20  32  55  80 109 132 179 222 259 313
#     4  10  19  30  48  74 104 138 170 214 265 312
#
# _framework density 18.025804999999998
#
# number of rings (size 3 to 8) (size 9 to 14) (size 15 to 20)
#    0.000    1.400    6.000    1.800    0.000    0.000 
#    0.000    3.500    0.000    0.000    0.000    0.000 
#    0.000    0.000    0.000    0.000    0.000    0.000 
#
# Total GULP energy -495560.137366 kJ/mol
# GULP energy per Si atom -12389.003434 kJ/mol
# Density = 1.798478 g / cm^3
# Si number density = 18.025805 Si / 1000 Ang^3
#
#
#
# Elastic Constant Matrix: (Units=GPa)
#
#
# Indices 1 2 3 4 5 6 
#
# 1 62.0210 21.7995 29.6448 0.0000 0.0000 0.0000
# 2 21.7995 168.0961 67.2287 0.0000 0.0000 0.0000
# 3 29.6448 67.2287 130.7342 0.0000 0.0000 0.0000
# 4 0.0000 0.0000 0.0000 25.9537 0.0000 0.0000
# 5 0.0000 0.0000 0.0000 0.0000 9.8620 0.0000
# 6 0.0000 0.0000 0.0000 0.0000 0.0000 16.1623
#
#
#
# Elastic Compliance Matrix: (Units=1/GPa)
#
#
# Indices 1 2 3 4 5 6 
#
# 1 0.018189 -0.000893 -0.003665 0.000000 0.000000 0.000000
# 2 -0.000893 0.007533 -0.003671 0.000000 0.000000 0.000000
# 3 -0.003665 -0.003671 0.010368 0.000000 0.000000 0.000000
# 4 0.000000 0.000000 0.000000 0.038530 0.000000 0.000000
# 5 0.000000 0.000000 0.000000 0.000000 0.101400 0.000000
# 6 0.000000 0.000000 0.000000 0.000000 0.000000 0.061872
#
#
# Mechanical properties :
#
#
# Convention : Reuss Voigt Hill
#
# Bulk Modulus (GPa) = 50.93882 66.46635 58.70259
# Shear Modulus (GPa) = 19.16472 26.54082 22.85277
#
# Velocity S-wave (km/s) = 3.26419 3.84132 3.56445
# Velocity P-wave (km/s) = 6.52125 7.52511 7.04109
#
# Compressibility (1/GPa) = 0.01963139
#
# Stress axis : x y z
#
# Youngs Moduli (GPa) = 54.97709 132.74738 96.44872
#
# Poissons Ratio (x) = 0.11854 0.35352
# Poissons Ratio (y) = 0.04909 0.35410
# Poissons Ratio (z) = 0.20151 0.48736
#
# Static dielectric constant tensor:
#      x y z
#    x 2.133790 0.000000 0.000000 
#    y 0.000000 4.136880 0.000000 
#    z 0.000000 0.000000 3.182160 
# 
# 
# High freq. dielectric constant tensor:
#      x y z
#    x 1.658990 0.000000 0.000000 
#    y 0.000000 1.728130 0.000000 
#    z 0.000000 0.000000 1.676660 
# 
# From -- ./inp_files/22100.got.cif
#   From: 2010.03.12/outbox.cif.g09.slc.cpg/sg74_12_cif.got.tgz:22100.got - 2010.04.16 15:46:19.
