data_PCOD8298669
_publ_section_title
;
Structure prediction by ZEFSAII (Michael W. Deem and Ramdas Pophale) SiO2 
 PCOD8298669
Probable space group: I M M A
;
_chemical_formula_sum "Si O2"
_cell_formula_units_Z 72
_cell_length_a 32.413344
_cell_length_b 8.836539
_cell_length_c 13.257962
_cell_angle_alpha 90.000000
_cell_angle_beta 90.000000
_cell_angle_gamma 90.000000
_cell_volume 3797.369054
_symmetry_space_group_name_H-M "I M M A"
_symmetry_group_IT_number 74
_symmetry_cell_setting 'orthorhombic'
loop_
_space_group_symop_operation_xyz
x,y,z
-x,1/2-y,z
x,-y,-z
-x,1/2+y,-z
-x,-y,-z
x,1/2+y,-z
-x,y,z
x,1/2-y,z
1/2+x,1/2+y,1/2+z
1/2-x,-y,1/2+z
1/2+x,1/2-y,1/2-z
1/2-x,y,1/2-z
1/2-x,1/2-y,1/2-z
1/2+x,y,1/2-z
1/2-x,1/2+y,1/2+z
1/2+x,-y,1/2+z
loop_
_atom_site_type_symbol
_atom_site_label
_atom_site_fract_x
_atom_site_fract_y
_atom_site_fract_z
Si Si1 0.793713 0.919175 0.282283
Si Si2 0.351079 0.581793 0.406772
Si Si3 0.000000 0.929332 0.112687
Si Si4 0.579246 0.427448 0.295270
Si Si5 0.134610 0.428119 0.394061
O O1 0.786491 0.750000 0.326907
O O2 0.750000 0.994465 0.250000
O O3 0.818897 0.908648 0.181062
O O4 0.819488 0.016008 0.363177
O O5 0.328378 0.500000 0.500000
O O6 0.367137 0.750000 0.433490
O O7 0.389191 0.472189 0.382632
O O8 0.000000 0.750000 0.099234
O O9 0.038141 0.979827 0.182057
O O10 0.000000 0.000000 0.000000
O O11 0.569599 0.250000 0.298932
O O12 0.599669 0.474795 0.187691
O O13 0.121219 0.500000 0.500000
O O14 0.136939 0.250000 0.405782
#
# Coordination Sequence:
#
# PCOD8298669 Si02
#       5
#    16  16   8  16  16
#     4   9  19  35  53  76 107 141 180 226 272 319
#     4  10  19  32  51  74 103 138 174 214 262 317
#     4  12  24  38  59  86 115 146 177 216 268 324
#     4  10  21  38  57  80 109 140 178 221 265 317
#     4  10  21  37  59  82 108 145 186 229 275 325
#
# _framework density 18.960495999999999
#
# number of rings (size 3 to 8) (size 9 to 14) (size 15 to 20)
#    0.000    2.000    0.000    3.667    0.000    4.889 
#    0.000    2.778    0.000    0.000    0.000    0.000 
#    0.000    0.000    0.000    0.000    0.000    0.000 
#
# Total GULP energy -446252.055993 kJ/mol
# GULP energy per Si atom -12395.890444 kJ/mol
# Density = 1.891734 g / cm^3
# Si number density = 18.960496 Si / 1000 Ang^3
#
#
#
# Elastic Constant Matrix: (Units=GPa)
#
#
# Indices 1 2 3 4 5 6 
#
# 1 113.4562 47.4626 29.9067 0.0000 0.0000 0.0000
# 2 47.4626 109.5474 58.5633 0.0000 0.0000 0.0000
# 3 29.9067 58.5633 98.3464 0.0000 0.0000 0.0000
# 4 0.0000 0.0000 0.0000 31.7057 0.0000 0.0000
# 5 0.0000 0.0000 0.0000 0.0000 9.0802 0.0000
# 6 0.0000 0.0000 0.0000 0.0000 0.0000 31.5785
#
#
#
# Elastic Compliance Matrix: (Units=1/GPa)
#
#
# Indices 1 2 3 4 5 6 
#
# 1 0.010801 -0.004289 -0.000730 0.000000 0.000000 0.000000
# 2 -0.004289 0.015095 -0.007684 0.000000 0.000000 0.000000
# 3 -0.000730 -0.007684 0.014966 0.000000 0.000000 0.000000
# 4 0.000000 0.000000 0.000000 0.031540 0.000000 0.000000
# 5 0.000000 0.000000 0.000000 0.000000 0.110129 0.000000
# 6 0.000000 0.000000 0.000000 0.000000 0.000000 0.031667
#
#
# Mechanical properties :
#
#
# Convention : Reuss Voigt Hill
#
# Bulk Modulus (GPa) = 64.70812 65.91279 65.31045
# Shear Modulus (GPa) = 20.42842 26.83406 23.63124
#
# Velocity S-wave (km/s) = 3.28597 3.76608 3.53419
# Velocity P-wave (km/s) = 6.97128 7.33143 7.15362
#
# Compressibility (1/GPa) = 0.01545401
#
# Stress axis : x y z
#
# Youngs Moduli (GPa) = 92.58596 66.24824 66.81767
#
# Poissons Ratio (x) = 0.28414 0.04880
# Poissons Ratio (y) = 0.39711 0.51345
# Poissons Ratio (z) = 0.06762 0.50907
#
# Static dielectric constant tensor:
#      x y z
#    x 3.610700 0.000000 0.000000 
#    y 0.000000 3.698640 0.000000 
#    z 0.000000 0.000000 3.534400 
# 
# 
# High freq. dielectric constant tensor:
#      x y z
#    x 1.729380 0.000000 0.000000 
#    y 0.000000 1.747080 0.000000 
#    z 0.000000 0.000000 1.736810 
# 
# From -- ./inp_files/37650.got.cif
#   From: 2010.03.12/outbox.cif.g09.slc.cpg/sg74_19_cif.got.tgz:37650.got - 2010.04.16 15:46:19.
