data_PCOD8298344
_publ_section_title
;
Structure prediction by ZEFSAII (Michael W. Deem and Ramdas Pophale) SiO2 
 PCOD8298344
Probable space group: I M M A
;
_chemical_formula_sum "Si O2"
_cell_formula_units_Z 120
_cell_length_a 30.094732
_cell_length_b 19.822357
_cell_length_c 11.593139
_cell_angle_alpha 90.000000
_cell_angle_beta 90.000000
_cell_angle_gamma 90.000000
_cell_volume 6915.869930
_symmetry_space_group_name_H-M "I M M A"
_symmetry_group_IT_number 74
_symmetry_cell_setting 'orthorhombic'
loop_
_space_group_symop_operation_xyz
x,y,z
-x,1/2-y,z
x,-y,-z
-x,1/2+y,-z
-x,-y,-z
x,1/2+y,-z
-x,y,z
x,1/2-y,z
1/2+x,1/2+y,1/2+z
1/2-x,-y,1/2+z
1/2+x,1/2-y,1/2-z
1/2-x,y,1/2-z
1/2-x,1/2-y,1/2-z
1/2+x,y,1/2-z
1/2-x,1/2+y,1/2+z
1/2+x,-y,1/2+z
loop_
_atom_site_type_symbol
_atom_site_label
_atom_site_fract_x
_atom_site_fract_y
_atom_site_fract_z
Si Si1 0.823968 0.174869 0.876384
Si Si2 0.105466 0.673781 0.922678
Si Si3 0.765642 0.325738 0.500084
Si Si4 0.051643 0.070830 0.941102
Si Si5 0.848409 0.081251 0.256580
Si Si6 0.877493 0.566557 0.248150
Si Si7 0.156263 0.074854 0.511341
Si Si8 0.250000 0.873587 0.750000
O O1 0.823574 0.250000 0.820624
O O2 0.839386 0.119770 0.784905
O O3 0.856277 0.174360 0.984219
O O4 0.775803 0.153944 0.921224
O O5 0.089505 0.750000 0.893856
O O6 0.126306 0.640269 0.809708
O O7 0.063962 0.630537 0.970145
O O8 0.781189 0.250000 0.526165
O O9 0.804331 0.374652 0.541699
O O10 0.753040 0.328750 0.364896
O O11 0.076660 0.081372 0.818616
O O12 0.000000 0.074617 0.911991
O O13 0.064671 0.000000 0.000000
O O14 0.864749 0.094060 0.388072
O O15 0.794902 0.082088 0.244129
O O16 0.862746 0.008190 0.210720
O O17 0.881421 0.574293 0.387557
O O18 0.177289 0.000000 0.500000
#
# Coordination Sequence:
#
# PCOD8298344 Si02
#       8
#    16  16  16  16  16  16  16   8
#     4   9  19  31  48  73 102 138 179 226 274 315
#     4  10  19  34  54  82 113 139 174 225 282 326
#     4  10  19  31  47  70 101 139 188 233 267 306
#     4  10  20  36  62  90 108 131 173 221 277 343
#     4  10  19  33  52  77 104 148 190 225 265 309
#     4  10  20  36  54  72 108 144 172 223 270 331
#     4   9  21  35  48  70 104 145 186 221 258 313
#     4  10  19  30  48  74 109 144 188 236 263 308
#
# _framework density 17.351396999999999
#
# number of rings (size 3 to 8) (size 9 to 14) (size 15 to 20)
#    0.000    2.267    2.667    0.200    0.000    6.667 
#    0.000    1.333    0.000    4.400    0.000    0.000 
#    0.000    0.000    0.000    0.000    0.000    0.000 
#
# Total GULP energy -743710.417654 kJ/mol
# GULP energy per Si atom -12395.173628 kJ/mol
# Density = 1.731190 g / cm^3
# Si number density = 17.351397 Si / 1000 Ang^3
#
#
#
# Elastic Constant Matrix: (Units=GPa)
#
#
# Indices 1 2 3 4 5 6 
#
# 1 77.6572 38.4656 42.4170 0.0000 0.0000 0.0000
# 2 38.4656 107.7950 37.6884 0.0000 0.0000 0.0000
# 3 42.4170 37.6884 92.6659 0.0000 0.0000 0.0000
# 4 0.0000 0.0000 0.0000 18.2221 0.0000 0.0000
# 5 0.0000 0.0000 0.0000 0.0000 18.2620 0.0000
# 6 0.0000 0.0000 0.0000 0.0000 0.0000 18.0611
#
#
#
# Elastic Compliance Matrix: (Units=1/GPa)
#
#
# Indices 1 2 3 4 5 6 
#
# 1 0.018736 -0.004298 -0.006828 0.000000 0.000000 0.000000
# 2 -0.004298 0.011801 -0.002832 0.000000 0.000000 0.000000
# 3 -0.006828 -0.002832 0.015069 0.000000 0.000000 0.000000
# 4 0.000000 0.000000 0.000000 0.054878 0.000000 0.000000
# 5 0.000000 0.000000 0.000000 0.000000 0.054759 0.000000
# 6 0.000000 0.000000 0.000000 0.000000 0.000000 0.055368
#
#
# Mechanical properties :
#
#
# Convention : Reuss Voigt Hill
#
# Bulk Modulus (GPa) = 56.53351 57.25114 56.89232
# Shear Modulus (GPa) = 20.45638 21.54551 21.00094
#
# Velocity S-wave (km/s) = 3.43730 3.52762 3.48276
# Velocity P-wave (km/s) = 6.95742 7.04691 7.00231
#
# Compressibility (1/GPa) = 0.01768863
#
# Stress axis : x y z
#
# Youngs Moduli (GPa) = 53.37416 84.73955 66.36287
#
# Poissons Ratio (x) = 0.36424 0.45312
# Poissons Ratio (y) = 0.22942 0.18794
# Poissons Ratio (z) = 0.36443 0.23998
#
# Static dielectric constant tensor:
#      x y z
#    x 2.920830 0.000000 0.000000 
#    y 0.000000 3.519290 0.000000 
#    z 0.000000 0.000000 3.314460 
# 
# 
# High freq. dielectric constant tensor:
#      x y z
#    x 1.634430 0.000000 0.000000 
#    y 0.000000 1.681430 0.000000 
#    z 0.000000 0.000000 1.674180 
# 
# From -- ./inp_files/26514.got.cif
#   From: 2010.03.12/outbox.cif.g09.slc.cpg/sg74_14_cif.got.tgz:26514.got - 2010.04.16 15:46:19.
