data_PCOD8298227
_publ_section_title
;
Structure prediction by ZEFSAII (Michael W. Deem and Ramdas Pophale) SiO2 
 PCOD8298227
Probable space group: I M M A
;
_chemical_formula_sum "Si O2"
_cell_formula_units_Z 96
_cell_length_a 13.687587
_cell_length_b 26.114352
_cell_length_c 17.964865
_cell_angle_alpha 90.000000
_cell_angle_beta 90.000000
_cell_angle_gamma 90.000000
_cell_volume 6421.405628
_symmetry_space_group_name_H-M "I M M A"
_symmetry_group_IT_number 74
_symmetry_cell_setting 'orthorhombic'
loop_
_space_group_symop_operation_xyz
x,y,z
-x,1/2-y,z
x,-y,-z
-x,1/2+y,-z
-x,-y,-z
x,1/2+y,-z
-x,y,z
x,1/2-y,z
1/2+x,1/2+y,1/2+z
1/2-x,-y,1/2+z
1/2+x,1/2-y,1/2-z
1/2-x,y,1/2-z
1/2-x,1/2-y,1/2-z
1/2+x,y,1/2-z
1/2-x,1/2+y,1/2+z
1/2+x,-y,1/2+z
loop_
_atom_site_type_symbol
_atom_site_label
_atom_site_fract_x
_atom_site_fract_y
_atom_site_fract_z
Si Si1 0.000000 0.592391 0.539994
Si Si2 0.289634 0.514659 0.172215
Si Si3 0.500000 0.169754 0.166533
Si Si4 0.500000 0.591810 0.697005
Si Si5 0.196840 0.556640 0.477894
Si Si6 0.287114 0.194550 0.168818
Si Si7 0.500000 0.985598 0.823474
Si Si8 0.296052 0.909567 0.616415
O O1 0.000000 0.645077 0.584587
O O2 0.902536 0.589653 0.488617
O O3 0.000000 0.551208 0.605905
O O4 0.250000 0.536039 0.250000
O O5 0.257632 0.553111 0.105580
O O6 0.405698 0.520811 0.172362
O O7 0.258886 0.454634 0.162528
O O8 0.500000 0.133845 0.239127
O O9 0.403082 0.203305 0.171041
O O10 0.500000 0.538841 0.740985
O O11 0.593023 0.595738 0.642700
O O12 0.163132 0.500000 0.500000
O O13 0.286388 0.576335 0.529262
O O14 0.243254 0.250000 0.141595
O O15 0.250000 0.180845 0.250000
O O16 0.257978 0.145259 0.120754
#
# Coordination Sequence:
#
# PCOD8298227 Si02
#       8
#     8  16   8   8  16  16   8  16
#     4  11  16  27  48  68  88 114 149 195 229 263
#     4  11  20  31  47  66  91 117 154 190 229 274
#     4  11  19  30  49  68  91 120 156 189 231 261
#     4  11  20  28  48  63  85 128 161 191 216 262
#     4  10  19  29  46  66  87 115 152 191 226 269
#     4  11  21  32  46  66  94 124 154 188 225 265
#     4  11  17  26  45  67  86 115 152 191 225 266
#     4  11  19  34  45  63  88 123 157 186 225 264
#
# _framework density 14.949997
#
# number of rings (size 3 to 8) (size 9 to 14) (size 15 to 20)
#    0.000    1.167    8.333    2.500    0.000    0.000 
#    0.000    5.000    0.000    0.000    0.000    0.000 
#    0.000    0.667    0.000    0.000    0.667    0.000 
#
# Total GULP energy -594638.481834 kJ/mol
# GULP energy per Si atom -12388.301705 kJ/mol
# Density = 1.491597 g / cm^3
# Si number density = 14.949997 Si / 1000 Ang^3
#
#
#
# Elastic Constant Matrix: (Units=GPa)
#
#
# Indices 1 2 3 4 5 6 
#
# 1 77.4618 18.8019 28.7036 0.0000 0.0000 0.0000
# 2 18.8019 53.9307 35.3183 0.0001 0.0000 0.0000
# 3 28.7036 35.3183 106.4773 0.0003 0.0000 0.0000
# 4 0.0000 0.0001 0.0003 -7.0760 0.0000 0.0000
# 5 0.0000 0.0000 0.0000 0.0000 -3.7570 0.0000
# 6 0.0000 0.0000 0.0000 0.0000 0.0000 5.2855
#
#
#
# Elastic Compliance Matrix: (Units=1/GPa)
#
#
# Indices 1 2 3 4 5 6 
#
# 1 0.014775 -0.003248 -0.002905 0.000000 0.000000 0.000000
# 2 -0.003248 0.024402 -0.007218 0.000000 0.000000 0.000000
# 3 -0.002905 -0.007218 0.012569 0.000001 0.000000 0.000000
# 4 0.000000 0.000000 0.000001 -0.141322 0.000000 0.000000
# 5 0.000000 0.000000 0.000000 0.000000 -0.266172 0.000000
# 6 0.000000 0.000000 0.000000 0.000000 0.000000 0.189198
#
#
# Mechanical properties :
#
#
# Convention : Reuss Voigt Hill
#
# Bulk Modulus (GPa) = 39.99729 44.83528 42.41628
# Shear Modulus (GPa) = -38.03091 9.22689 -14.40201
#
# Velocity S-wave (km/s) = -5.04916 2.48701 -3.10715
# Velocity P-wave (km/s) = 2.67952 6.18888 3.94477
#
# Compressibility (1/GPa) = 0.02500169
#
# Stress axis : x y z
#
# Youngs Moduli (GPa) = 67.68358 40.98036 79.55922
#
# Poissons Ratio (x) = 0.13311 0.23116
# Poissons Ratio (y) = 0.21985 0.57429
# Poissons Ratio (z) = 0.19665 0.29581
#
# Static dielectric constant tensor:
#      x y z
#    x 2.986020 0.000000 0.000000 
#    y 0.000000 2.673650 0.000000 
#    z 0.000000 0.000000 3.080970 
# 
# 
# High freq. dielectric constant tensor:
#      x y z
#    x 1.577550 0.000000 0.000000 
#    y 0.000000 1.533100 0.000000 
#    z 0.000000 0.000000 1.556250 
# 
# From -- ./inp_files/41684.got.cif
#   From: 2010.03.12/outbox.cif.g09.slc.cpg/sg74_21_cif.got.tgz:41684.got - 2010.04.16 15:46:19.
