data_PCOD8298511
_publ_section_title
;
Structure prediction by ZEFSAII (Michael W. Deem and Ramdas Pophale) SiO2 
 PCOD8298511
Probable space group: I M M A
;
_chemical_formula_sum "Si O2"
_cell_formula_units_Z 96
_cell_length_a 14.188923
_cell_length_b 14.805700
_cell_length_c 23.597977
_cell_angle_alpha 90.000000
_cell_angle_beta 90.000000
_cell_angle_gamma 90.000000
_cell_volume 4957.390734
_symmetry_space_group_name_H-M "I M M A"
_symmetry_group_IT_number 74
_symmetry_cell_setting 'orthorhombic'
loop_
_space_group_symop_operation_xyz
x,y,z
-x,1/2-y,z
x,-y,-z
-x,1/2+y,-z
-x,-y,-z
x,1/2+y,-z
-x,y,z
x,1/2-y,z
1/2+x,1/2+y,1/2+z
1/2-x,-y,1/2+z
1/2+x,1/2-y,1/2-z
1/2-x,y,1/2-z
1/2-x,1/2-y,1/2-z
1/2+x,y,1/2-z
1/2-x,1/2+y,1/2+z
1/2+x,-y,1/2+z
loop_
_atom_site_type_symbol
_atom_site_label
_atom_site_fract_x
_atom_site_fract_y
_atom_site_fract_z
Si Si1 0.857619 0.352313 0.234033
Si Si2 0.393604 0.522367 0.335702
Si Si3 0.389308 0.250000 0.077186
Si Si4 0.896755 0.914852 0.644375
Si Si5 0.104761 0.651731 0.266877
Si Si6 0.708297 0.901547 0.127467
Si Si7 0.113384 0.750000 0.444928
O O1 0.892827 0.250000 0.220132
O O2 0.750000 0.351582 0.250000
O O3 0.875316 0.416399 0.178945
O O4 0.909188 0.391739 0.289227
O O5 0.500000 0.535061 0.359673
O O6 0.378217 0.572433 0.276627
O O7 0.319505 0.570934 0.378761
O O8 0.500000 0.250000 0.089985
O O9 0.344071 0.336161 0.108928
O O10 0.367257 0.250000 0.011271
O O11 0.000000 0.929259 0.618770
O O12 0.842704 0.004345 0.630542
O O13 0.110541 0.750000 0.236840
O O14 0.186108 0.650096 0.314116
O O15 0.000000 0.639683 0.294609
O O16 0.667460 0.839319 0.077354
O O17 0.000000 0.750000 0.430819
#
# Coordination Sequence:
#
# PCOD8298511 Si02
#       7
#    16  16   8  16  16  16   8
#     4  11  20  33  55  84 121 161 195 227 275 339
#     4  11  23  36  50  80 120 157 196 234 272 332
#     4   9  22  40  59  87 115 145 186 237 289 355
#     4  11  20  34  57  84 118 152 185 227 287 344
#     4  10  19  31  50  76 111 153 189 227 280 339
#     4  12  22  35  55  82 112 154 190 236 282 340
#     4  11  24  42  62  85 113 145 192 243 295 347
#
# _framework density 19.365027000000001
#
# number of rings (size 3 to 8) (size 9 to 14) (size 15 to 20)
#    0.000    1.167    5.000    2.500    1.167    2.333 
#    0.000    2.500    0.000    0.000    0.000    3.500 
#    0.000    0.000    0.000    0.000    0.000    0.000 
#
# Total GULP energy -594729.267690 kJ/mol
# GULP energy per Si atom -12390.193077 kJ/mol
# Density = 1.932095 g / cm^3
# Si number density = 19.365027 Si / 1000 Ang^3
#
#
#
# Elastic Constant Matrix: (Units=GPa)
#
#
# Indices 1 2 3 4 5 6 
#
# 1 111.0936 30.8190 12.2251 0.0000 0.0000 0.0000
# 2 30.8190 131.1142 24.7773 0.0000 0.0000 0.0000
# 3 12.2251 24.7773 45.5375 0.0000 0.0000 0.0000
# 4 0.0000 0.0000 0.0000 19.4205 0.0000 0.0000
# 5 0.0000 0.0000 0.0000 0.0000 -10.1327 0.0000
# 6 0.0000 0.0000 0.0000 0.0000 0.0000 4.8919
#
#
#
# Elastic Compliance Matrix: (Units=1/GPa)
#
#
# Indices 1 2 3 4 5 6 
#
# 1 0.009723 -0.001998 -0.001523 0.000000 0.000000 0.000000
# 2 -0.001998 0.008911 -0.004313 0.000000 0.000000 0.000000
# 3 -0.001523 -0.004313 0.024715 0.000000 0.000000 0.000000
# 4 0.000000 0.000000 0.000000 0.051492 0.000000 0.000000
# 5 0.000000 0.000000 0.000000 0.000000 -0.098690 0.000000
# 6 0.000000 0.000000 0.000000 0.000000 0.000000 0.204418
#
#
# Mechanical properties :
#
#
# Convention : Reuss Voigt Hill
#
# Bulk Modulus (GPa) = 36.12324 47.04312 41.58318
# Shear Modulus (GPa) = 22.17640 17.49753 19.83697
#
# Velocity S-wave (km/s) = 3.38772 3.00919 3.20405
# Velocity P-wave (km/s) = 5.83066 6.03483 5.93362
#
# Compressibility (1/GPa) = 0.02768301
#
# Stress axis : x y z
#
# Youngs Moduli (GPa) = 102.84656 112.21536 40.46061
#
# Poissons Ratio (x) = 0.22416 0.06164
# Poissons Ratio (y) = 0.20545 0.17449
# Poissons Ratio (z) = 0.15668 0.48393
#
# Static dielectric constant tensor:
#      x y z
#    x 4.351150 0.000000 0.000000 
#    y 0.000000 4.202550 0.000000 
#    z 0.000000 0.000000 3.070720 
# 
# 
# High freq. dielectric constant tensor:
#      x y z
#    x 1.755330 0.000000 0.000000 
#    y 0.000000 1.783640 0.000000 
#    z 0.000000 0.000000 1.680700 
# 
# From -- ./inp_files/60046.got.cif
#   From: 2010.03.12/outbox.cif.g09.slc.cpg/sg74_31_cif.got.tgz:60046.got - 2010.04.16 15:46:19.
