data_PCOD8298140
_publ_section_title
;
Structure prediction by ZEFSAII (Michael W. Deem and Ramdas Pophale) SiO2 
 PCOD8298140
Probable space group: I M M A
;
_chemical_formula_sum "Si O2"
_cell_formula_units_Z 80
_cell_length_a 18.311785
_cell_length_b 9.685841
_cell_length_c 32.414108
_cell_angle_alpha 90.000000
_cell_angle_beta 90.000000
_cell_angle_gamma 90.000000
_cell_volume 5749.129495
_symmetry_space_group_name_H-M "I M M A"
_symmetry_group_IT_number 74
_symmetry_cell_setting 'orthorhombic'
loop_
_space_group_symop_operation_xyz
x,y,z
-x,1/2-y,z
x,-y,-z
-x,1/2+y,-z
-x,-y,-z
x,1/2+y,-z
-x,y,z
x,1/2-y,z
1/2+x,1/2+y,1/2+z
1/2-x,-y,1/2+z
1/2+x,1/2-y,1/2-z
1/2-x,y,1/2-z
1/2-x,1/2-y,1/2-z
1/2+x,y,1/2-z
1/2-x,1/2+y,1/2+z
1/2+x,-y,1/2+z
loop_
_atom_site_type_symbol
_atom_site_label
_atom_site_fract_x
_atom_site_fract_y
_atom_site_fract_z
Si Si1 0.413897 0.963564 0.096181
Si Si2 0.086367 0.750000 0.562335
Si Si3 0.083225 0.089757 0.253436
Si Si4 0.414218 0.750000 0.028939
Si Si5 0.716588 0.902184 0.704605
Si Si6 0.337956 0.407259 0.820173
O O1 0.500000 0.947494 0.104894
O O2 0.390716 0.884592 0.054560
O O3 0.370653 0.901034 0.134324
O O4 0.388757 0.119973 0.089189
O O5 0.122572 0.750000 0.516503
O O6 0.000000 0.750000 0.556717
O O7 0.093056 0.250000 0.267258
O O8 0.131102 0.060172 0.212047
O O9 0.000000 0.056102 0.242108
O O10 0.107348 0.992371 0.291068
O O11 0.500000 0.750000 0.022514
O O12 0.724584 0.750000 0.683878
O O13 0.750000 0.898847 0.750000
O O14 0.758472 0.018083 0.678027
O O15 0.328646 0.250000 0.803989
#
# Coordination Sequence:
#
# PCOD8298140 Si02
#       6
#    16   8  16   8  16  16
#     4  10  19  28  39  57  77 100 133 169 201 229
#     4   9  18  28  42  56  69  98 135 167 198 233
#     4   9  18  31  46  60  76 100 132 167 200 234
#     4   9  16  30  42  52  75 100 127 165 202 233
#     4   8  16  30  44  57  75 101 130 160 195 237
#     4  11  20  28  39  58  83 106 130 165 203 233
#
# _framework density 13.915150000000001
#
# number of rings (size 3 to 8) (size 9 to 14) (size 15 to 20)
#    0.000    2.600    1.000    3.000    2.800    7.200 
#    0.000    0.000    0.000    0.000    0.000    0.000 
#    0.000    0.000    0.000    0.000    0.000    6.000 
#
# Total GULP energy -495729.726295 kJ/mol
# GULP energy per Si atom -12393.243157 kJ/mol
# Density = 1.388348 g / cm^3
# Si number density = 13.915150 Si / 1000 Ang^3
#
#
#
# Elastic Constant Matrix: (Units=GPa)
#
#
# Indices 1 2 3 4 5 6 
#
# 1 77.3904 30.8015 22.5830 0.0000 0.0000 0.0000
# 2 30.8015 97.9377 20.3229 0.0000 0.0000 0.0000
# 3 22.5830 20.3229 39.4954 0.0000 0.0000 0.0000
# 4 0.0000 0.0000 0.0000 36.6854 0.0000 0.0000
# 5 0.0000 0.0000 0.0000 0.0000 11.3914 0.0000
# 6 0.0000 0.0000 0.0000 0.0000 0.0000 13.0441
#
#
#
# Elastic Compliance Matrix: (Units=1/GPa)
#
#
# Indices 1 2 3 4 5 6 
#
# 1 0.016591 -0.003638 -0.007615 0.000000 0.000000 0.000000
# 2 -0.003638 0.012229 -0.004212 0.000000 0.000000 0.000000
# 3 -0.007615 -0.004212 0.031841 0.000000 0.000000 0.000000
# 4 0.000000 0.000000 0.000000 0.027259 0.000000 0.000000
# 5 0.000000 0.000000 0.000000 0.000000 0.087786 0.000000
# 6 0.000000 0.000000 0.000000 0.000000 0.000000 0.076663
#
#
# Mechanical properties :
#
#
# Convention : Reuss Voigt Hill
#
# Bulk Modulus (GPa) = 33.63493 40.24869 36.94181
# Shear Modulus (GPa) = 17.05265 21.63192 19.34229
#
# Velocity S-wave (km/s) = 3.50447 3.94707 3.73234
# Velocity P-wave (km/s) = 6.37174 7.05405 6.72156
#
# Compressibility (1/GPa) = 0.02973100
#
# Stress axis : x y z
#
# Youngs Moduli (GPa) = 60.27208 81.77418 31.40605
#
# Poissons Ratio (x) = 0.29748 0.23915
# Poissons Ratio (y) = 0.21926 0.13229
# Poissons Ratio (z) = 0.45896 0.34446
#
# Static dielectric constant tensor:
#      x y z
#    x 2.894530 0.000000 0.000000 
#    y 0.000000 0.827600 0.000000 
#    z 0.000000 0.000000 2.565330 
# 
# 
# High freq. dielectric constant tensor:
#      x y z
#    x 1.494120 0.000000 0.000000 
#    y 0.000000 1.548950 0.000000 
#    z 0.000000 0.000000 1.499610 
# 
# From -- ./inp_files/68064.got.cif
#   From: 2010.03.12/outbox.cif.g09.slc.cpg/sg74_35_cif.got.tgz:68064.got - 2010.04.16 15:46:19.
