data_PCOD8298502
_publ_section_title
;
Structure prediction by ZEFSAII (Michael W. Deem and Ramdas Pophale) SiO2 
 PCOD8298502
Probable space group: I M M A
;
_chemical_formula_sum "Si O2"
_cell_formula_units_Z 104
_cell_length_a 27.172632
_cell_length_b 9.164702
_cell_length_c 23.480652
_cell_angle_alpha 90.000000
_cell_angle_beta 90.000000
_cell_angle_gamma 90.000000
_cell_volume 5847.365044
_symmetry_space_group_name_H-M "I M M A"
_symmetry_group_IT_number 74
_symmetry_cell_setting 'orthorhombic'
loop_
_space_group_symop_operation_xyz
x,y,z
-x,1/2-y,z
x,-y,-z
-x,1/2+y,-z
-x,-y,-z
x,1/2+y,-z
-x,y,z
x,1/2-y,z
1/2+x,1/2+y,1/2+z
1/2-x,-y,1/2+z
1/2+x,1/2-y,1/2-z
1/2-x,y,1/2-z
1/2-x,1/2-y,1/2-z
1/2+x,y,1/2-z
1/2-x,1/2+y,1/2+z
1/2+x,-y,1/2+z
loop_
_atom_site_type_symbol
_atom_site_label
_atom_site_fract_x
_atom_site_fract_y
_atom_site_fract_z
Si Si1 0.191858 0.913050 0.746040
Si Si2 0.610559 0.419593 0.160404
Si Si3 0.443273 0.421990 0.940029
Si Si4 0.500000 0.086347 0.443314
Si Si5 0.606637 0.418957 0.440327
Si Si6 0.139158 0.086314 0.839397
Si Si7 0.444370 0.086452 0.744861
O O1 0.173661 0.750000 0.762815
O O2 0.250000 0.920096 0.750000
O O3 0.166807 0.948764 0.683837
O O4 0.175919 0.031516 0.791473
O O5 0.602454 0.250000 0.145659
O O6 0.596231 0.513273 0.104795
O O7 0.574353 0.466197 0.211062
O O8 0.500000 0.450521 0.920108
O O9 0.433546 0.250000 0.946790
O O10 0.433527 0.500000 0.000000
O O11 0.500000 0.250000 0.465106
O O12 0.448026 0.056107 0.411938
O O13 0.500000 0.000000 0.500000
O O14 0.612171 0.500000 0.500000
O O15 0.619310 0.250000 0.449379
O O16 0.644584 0.487657 0.395581
O O17 0.153993 0.250000 0.856165
O O18 0.084230 0.077975 0.814552
O O19 0.500000 0.049065 0.729418
O O20 0.439007 0.250000 0.771521
#
# Coordination Sequence:
#
# PCOD8298502 Si02
#       7
#    16  16  16   8  16  16  16
#     4   9  19  37  58  77  99 129 165 209 261 312
#     4  10  19  31  50  76 102 130 167 209 253 301
#     4  10  20  33  50  74 107 146 181 210 243 291
#     4   8  16  28  42  62  88 124 166 202 233 272
#     4  10  19  32  48  68  96 131 169 207 246 290
#     4  10  20  32  49  74 100 128 165 207 252 302
#     4   9  18  31  45  65  97 135 168 200 242 292
#
# _framework density 17.785788
#
# number of rings (size 3 to 8) (size 9 to 14) (size 15 to 20)
#    0.000    2.462    0.000    2.308    1.077    5.231 
#    0.000    0.000    0.000    0.923    0.000    4.308 
#    0.000    0.000    0.000    0.000    0.000    0.000 
#
# Total GULP energy -644271.565741 kJ/mol
# GULP energy per Si atom -12389.837803 kJ/mol
# Density = 1.774531 g / cm^3
# Si number density = 17.785788 Si / 1000 Ang^3
#
#
#
# Elastic Constant Matrix: (Units=GPa)
#
#
# Indices 1 2 3 4 5 6 
#
# 1 78.3566 37.8247 32.4605 0.0000 0.0000 0.0000
# 2 37.8247 120.3373 62.2666 0.0000 0.0000 0.0000
# 3 32.4605 62.2666 92.4828 0.0000 0.0000 0.0000
# 4 0.0000 0.0000 0.0000 35.8449 0.0000 0.0000
# 5 0.0000 0.0000 0.0000 0.0000 17.5817 0.0000
# 6 0.0000 0.0000 0.0000 0.0000 0.0000 18.6294
#
#
#
# Elastic Compliance Matrix: (Units=1/GPa)
#
#
# Indices 1 2 3 4 5 6 
#
# 1 0.015696 -0.003197 -0.003357 0.000000 0.000000 0.000000
# 2 -0.003197 0.013404 -0.007902 0.000000 0.000000 0.000000
# 3 -0.003357 -0.007902 0.017312 0.000000 0.000000 0.000000
# 4 0.000000 0.000000 0.000000 0.027898 0.000000 0.000000
# 5 0.000000 0.000000 0.000000 0.000000 0.056877 0.000000
# 6 0.000000 0.000000 0.000000 0.000000 0.000000 0.053679
#
#
# Mechanical properties :
#
#
# Convention : Reuss Voigt Hill
#
# Bulk Modulus (GPa) = 57.14505 61.80893 59.47699
# Shear Modulus (GPa) = 22.76762 24.98619 23.87691
#
# Velocity S-wave (km/s) = 3.58173 3.75219 3.66795
# Velocity P-wave (km/s) = 7.02171 7.32115 7.17299
#
# Compressibility (1/GPa) = 0.01749933
#
# Stress axis : x y z
#
# Youngs Moduli (GPa) = 63.71091 74.60604 57.76471
#
# Poissons Ratio (x) = 0.23849 0.19391
# Poissons Ratio (y) = 0.20366 0.45648
# Poissons Ratio (z) = 0.21387 0.58957
#
# Static dielectric constant tensor:
#      x y z
#    x 3.152950 0.000000 0.000000 
#    y 0.000000 3.481910 0.000000 
#    z 0.000000 0.000000 3.085540 
# 
# 
# High freq. dielectric constant tensor:
#      x y z
#    x 1.658270 0.000000 0.000000 
#    y 0.000000 1.705940 0.000000 
#    z 0.000000 0.000000 1.673960 
# 
# From -- ./inp_files/55639.got.cif
#   From: 2010.03.12/outbox.cif.g09.slc.cpg/sg74_28_cif.got.tgz:55639.got - 2010.04.16 15:46:19.
