data_PCOD8298422
_publ_section_title
;
Structure prediction by ZEFSAII (Michael W. Deem and Ramdas Pophale) SiO2 
 PCOD8298422
Probable space group: I M M A
;
_chemical_formula_sum "Si O2"
_cell_formula_units_Z 80
_cell_length_a 18.474981
_cell_length_b 8.955879
_cell_length_c 26.830873
_cell_angle_alpha 90.000000
_cell_angle_beta 90.000000
_cell_angle_gamma 90.000000
_cell_volume 4439.428046
_symmetry_space_group_name_H-M "I M M A"
_symmetry_group_IT_number 74
_symmetry_cell_setting 'orthorhombic'
loop_
_space_group_symop_operation_xyz
x,y,z
-x,1/2-y,z
x,-y,-z
-x,1/2+y,-z
-x,-y,-z
x,1/2+y,-z
-x,y,z
x,1/2-y,z
1/2+x,1/2+y,1/2+z
1/2-x,-y,1/2+z
1/2+x,1/2-y,1/2-z
1/2-x,y,1/2-z
1/2-x,1/2-y,1/2-z
1/2+x,y,1/2-z
1/2-x,1/2+y,1/2+z
1/2+x,-y,1/2+z
loop_
_atom_site_type_symbol
_atom_site_label
_atom_site_fract_x
_atom_site_fract_y
_atom_site_fract_z
Si Si1 0.582849 0.576597 0.552413
Si Si2 0.158079 0.426476 0.449820
Si Si3 0.418356 0.074356 0.151417
Si Si4 0.710509 0.424744 0.599194
Si Si5 0.210997 0.076190 0.700844
O O1 0.599390 0.500000 0.500000
O O2 0.500000 0.553320 0.568524
O O3 0.602994 0.750000 0.548362
O O4 0.631041 0.495812 0.594241
O O5 0.125892 0.500000 0.500000
O O6 0.164003 0.250000 0.456513
O O7 0.105447 0.471486 0.404390
O O8 0.237276 0.494354 0.440200
O O9 0.500000 0.016853 0.160077
O O10 0.412880 0.250000 0.158191
O O11 0.366485 0.001303 0.192661
O O12 0.709086 0.250000 0.587145
O O13 0.736037 0.457950 0.655071
O O14 0.195038 0.250000 0.707243
O O15 0.250000 0.011065 0.750000
#
# Coordination Sequence:
#
# PCOD8298422 Si02
#       5
#    16  16  16  16  16
#     4  10  20  33  49  70  98 131 165 201 243 292
#     4  10  19  31  48  71 101 134 167 202 239 284
#     4   9  19  35  53  75 103 133 165 202 244 290
#     4  10  19  32  51  72  96 127 164 205 246 292
#     4   9  19  36  56  77  99 126 164 207 249 293
#
# _framework density 18.020340999999998
#
# number of rings (size 3 to 8) (size 9 to 14) (size 15 to 20)
#    0.000    2.400    0.000    2.400    0.000    4.000 
#    0.000    1.000    0.000    6.000    0.000    0.000 
#    0.000    0.000    0.000    0.000    0.000    0.000 
#
# Total GULP energy -496107.269753 kJ/mol
# GULP energy per Si atom -12402.681744 kJ/mol
# Density = 1.797933 g / cm^3
# Si number density = 18.020341 Si / 1000 Ang^3
#
#
#
# Elastic Constant Matrix: (Units=GPa)
#
#
# Indices 1 2 3 4 5 6 
#
# 1 142.3391 55.3859 65.0994 0.0000 0.0000 0.0000
# 2 55.3859 79.1857 41.9154 0.0000 0.0000 0.0000
# 3 65.0994 41.9154 101.7990 0.0000 0.0000 0.0000
# 4 0.0000 0.0000 0.0000 25.9226 0.0000 0.0000
# 5 0.0000 0.0000 0.0000 0.0000 20.7113 0.0000
# 6 0.0000 0.0000 0.0000 0.0000 0.0000 29.1610
#
#
#
# Elastic Compliance Matrix: (Units=1/GPa)
#
#
# Indices 1 2 3 4 5 6 
#
# 1 0.011426 -0.005274 -0.005136 0.000000 0.000000 0.000000
# 2 -0.005274 0.018582 -0.004279 0.000000 0.000000 0.000000
# 3 -0.005136 -0.004279 0.014869 0.000000 0.000000 0.000000
# 4 0.000000 0.000000 0.000000 0.038576 0.000000 0.000000
# 5 0.000000 0.000000 0.000000 0.000000 0.048283 0.000000
# 6 0.000000 0.000000 0.000000 0.000000 0.000000 0.034292
#
#
# Mechanical properties :
#
#
# Convention : Reuss Voigt Hill
#
# Bulk Modulus (GPa) = 64.50909 72.01393 68.26151
# Shear Modulus (GPa) = 24.92870 25.88717 25.40793
#
# Velocity S-wave (km/s) = 3.72340 3.79430 3.75902
# Velocity P-wave (km/s) = 7.37296 7.69707 7.53676
#
# Compressibility (1/GPa) = 0.01550169
#
# Stress axis : x y z
#
# Youngs Moduli (GPa) = 87.51740 53.81564 67.25327
#
# Poissons Ratio (x) = 0.28380 0.34539
# Poissons Ratio (y) = 0.46153 0.28775
# Poissons Ratio (z) = 0.44945 0.23026
#
# Static dielectric constant tensor:
#      x y z
#    x 3.401950 0.000000 0.000000 
#    y 0.000000 3.348990 0.000000 
#    z 0.000000 0.000000 3.267890 
# 
# 
# High freq. dielectric constant tensor:
#      x y z
#    x 1.697480 0.000000 0.000000 
#    y 0.000000 1.705100 0.000000 
#    z 0.000000 0.000000 1.682620 
# 
# From -- ./inp_files/63909.got.cif
#   From: 2010.03.12/outbox.cif.g09.slc.cpg/sg74_32_cif.got.tgz:63909.got - 2010.04.16 15:46:19.
