data_PCOD8298373
_publ_section_title
;
Structure prediction by ZEFSAII (Michael W. Deem and Ramdas Pophale) SiO2 
 PCOD8298373
Probable space group: I M M A
;
_chemical_formula_sum "Si O2"
_cell_formula_units_Z 128
_cell_length_a 19.750657
_cell_length_b 19.256586
_cell_length_c 21.390424
_cell_angle_alpha 90.000000
_cell_angle_beta 90.000000
_cell_angle_gamma 90.000000
_cell_volume 8135.424774
_symmetry_space_group_name_H-M "I M M A"
_symmetry_group_IT_number 74
_symmetry_cell_setting 'orthorhombic'
loop_
_space_group_symop_operation_xyz
x,y,z
-x,1/2-y,z
x,-y,-z
-x,1/2+y,-z
-x,-y,-z
x,1/2+y,-z
-x,y,z
x,1/2-y,z
1/2+x,1/2+y,1/2+z
1/2-x,-y,1/2+z
1/2+x,1/2-y,1/2-z
1/2-x,y,1/2-z
1/2-x,1/2-y,1/2-z
1/2+x,y,1/2-z
1/2-x,1/2+y,1/2+z
1/2+x,-y,1/2+z
loop_
_atom_site_type_symbol
_atom_site_label
_atom_site_fract_x
_atom_site_fract_y
_atom_site_fract_z
Si Si1 0.923120 0.172340 0.988930
Si Si2 0.924718 0.970334 0.404272
Si Si3 0.671167 0.327475 0.395510
Si Si4 0.326749 0.464309 0.183966
Si Si5 0.424798 0.112219 0.020129
Si Si6 0.670082 0.461969 0.326938
Si Si7 0.174748 0.172935 0.389478
Si Si8 0.577956 0.468646 0.567945
O O1 0.907057 0.250000 0.963021
O O2 0.913049 0.115087 0.934824
O O3 0.000000 0.168497 0.014439
O O4 0.874326 0.152444 0.045645
O O5 0.870216 0.976270 0.349607
O O6 0.921948 0.040280 0.443589
O O7 0.000000 0.960344 0.376110
O O8 0.906140 0.904458 0.447999
O O9 0.654256 0.250000 0.371404
O O10 0.656270 0.380688 0.339747
O O11 0.749284 0.334935 0.415428
O O12 0.349758 0.473602 0.255381
O O13 0.249151 0.481116 0.167484
O O14 0.343249 0.385170 0.162402
O O15 0.500000 0.144499 0.024458
O O16 0.372389 0.166235 0.049523
O O17 0.626517 0.506534 0.376126
O O18 0.164249 0.250000 0.360017
O O19 0.598493 0.500000 0.500000
O O20 0.500000 0.488915 0.583281
#
# Coordination Sequence:
#
# PCOD8298373 Si02
#       8
#    16  16  16  16  16  16  16  16
#     4   9  17  30  47  67  93 121 148 184 233 284
#     4   8  14  27  43  60  80 105 142 184 225 268
#     4   9  17  28  42  61  87 122 156 185 221 268
#     4   9  19  31  43  63  90 124 158 188 225 272
#     4   8  14  25  42  61  81 105 136 181 229 262
#     4  10  19  31  44  64  94 123 157 194 231 271
#     4   9  17  28  42  63  90 120 156 190 217 261
#     4  10  19  31  48  72  96 118 152 199 243 277
#
# _framework density 15.733658999999999
#
# number of rings (size 3 to 8) (size 9 to 14) (size 15 to 20)
#    0.000    3.000    1.250    0.750    0.000    2.250 
#    2.250    2.500    0.000    0.000    0.000    6.125 
#    0.000    2.000    0.000    0.000    0.000    0.000 
#
# Total GULP energy -793034.116211 kJ/mol
# GULP energy per Si atom -12391.158066 kJ/mol
# Density = 1.569785 g / cm^3
# Si number density = 15.733659 Si / 1000 Ang^3
#
#
#
# Elastic Constant Matrix: (Units=GPa)
#
#
# Indices 1 2 3 4 5 6 
#
# 1 73.6939 31.4118 62.5285 0.0000 0.0000 0.0000
# 2 31.4118 52.2362 41.3261 0.0000 0.0000 0.0000
# 3 62.5285 41.3261 105.2756 0.0000 0.0000 0.0000
# 4 0.0000 0.0000 0.0000 18.5990 0.0000 0.0000
# 5 0.0000 0.0000 0.0000 0.0000 23.2507 0.0000
# 6 0.0000 0.0000 0.0000 0.0000 0.0000 21.7496
#
#
#
# Elastic Compliance Matrix: (Units=1/GPa)
#
#
# Indices 1 2 3 4 5 6 
#
# 1 0.028372 -0.005409 -0.014728 0.000000 0.000000 0.000000
# 2 -0.005409 0.028799 -0.008092 0.000000 0.000000 0.000000
# 3 -0.014728 -0.008092 0.021423 0.000000 0.000000 0.000000
# 4 0.000000 0.000000 0.000000 0.053766 0.000000 0.000000
# 5 0.000000 0.000000 0.000000 0.000000 0.043009 0.000000
# 6 0.000000 0.000000 0.000000 0.000000 0.000000 0.045978
#
#
# Mechanical properties :
#
#
# Convention : Reuss Voigt Hill
#
# Bulk Modulus (GPa) = 45.17768 55.74873 50.46320
# Shear Modulus (GPa) = 17.53250 19.11581 18.32416
#
# Velocity S-wave (km/s) = 3.34178 3.48941 3.41639
# Velocity P-wave (km/s) = 6.60805 7.19336 6.90691
#
# Compressibility (1/GPa) = 0.02213483
#
# Stress axis : x y z
#
# Youngs Moduli (GPa) = 35.24610 34.72393 46.67829
#
# Poissons Ratio (x) = 0.18783 0.68748
# Poissons Ratio (y) = 0.19065 0.37773
# Poissons Ratio (z) = 0.51911 0.28099
#
# Static dielectric constant tensor:
#      x y z
#    x 3.142420 0.000000 0.000000 
#    y 0.000000 3.043810 0.000000 
#    z 0.000000 0.000000 2.871610 
# 
# 
# High freq. dielectric constant tensor:
#      x y z
#    x 1.610600 0.000000 0.000000 
#    y 0.000000 1.589760 0.000000 
#    z 0.000000 0.000000 1.573460 
# 
# From -- ./inp_files/53406.got.cif
#   From: 2010.03.12/outbox.cif.g09.slc.cpg/sg74_27_cif.got.tgz:53406.got - 2010.04.16 15:46:19.
