data_PCOD8298372
_publ_section_title
;
Structure prediction by ZEFSAII (Michael W. Deem and Ramdas Pophale) SiO2 
 PCOD8298372
Probable space group: I M M A
;
_chemical_formula_sum "Si O2"
_cell_formula_units_Z 80
_cell_length_a 23.263115
_cell_length_b 8.927926
_cell_length_c 26.561962
_cell_angle_alpha 90.000000
_cell_angle_beta 90.000000
_cell_angle_gamma 90.000000
_cell_volume 5516.690258
_symmetry_space_group_name_H-M "I M M A"
_symmetry_group_IT_number 74
_symmetry_cell_setting 'orthorhombic'
loop_
_space_group_symop_operation_xyz
x,y,z
-x,1/2-y,z
x,-y,-z
-x,1/2+y,-z
-x,-y,-z
x,1/2+y,-z
-x,y,z
x,1/2-y,z
1/2+x,1/2+y,1/2+z
1/2-x,-y,1/2+z
1/2+x,1/2-y,1/2-z
1/2-x,y,1/2-z
1/2-x,1/2-y,1/2-z
1/2+x,y,1/2-z
1/2-x,1/2+y,1/2+z
1/2+x,-y,1/2+z
loop_
_atom_site_type_symbol
_atom_site_label
_atom_site_fract_x
_atom_site_fract_y
_atom_site_fract_z
Si Si1 0.500000 0.428161 0.283722
Si Si2 0.815616 0.425102 0.148967
Si Si3 0.000000 0.571912 0.898628
Si Si4 0.883851 0.573844 0.237840
Si Si5 0.883266 0.074973 0.052038
Si Si6 0.792722 0.084539 0.296837
O O1 0.500000 0.250000 0.280498
O O2 0.500000 0.486651 0.341383
O O3 0.555379 0.492649 0.255261
O O4 0.827205 0.250000 0.161570
O O5 0.854969 0.521533 0.186018
O O6 0.833108 0.462465 0.091921
O O7 0.747701 0.464331 0.155889
O O8 0.943823 0.510206 0.927382
O O9 0.000000 0.750000 0.897244
O O10 0.892817 0.750000 0.236946
O O11 0.844273 0.530654 0.286086
O O12 0.889218 0.250000 0.042731
O O13 0.865646 0.000000 0.000000
O O14 0.819044 0.250000 0.305912
O O15 0.750000 0.088831 0.250000
#
# Coordination Sequence:
#
# PCOD8298372 Si02
#       6
#     8  16   8  16  16  16
#     4  11  19  32  48  58  79 116 149 175 205 252
#     4   9  17  31  47  59  78 110 146 174 205 256
#     4   9  17  30  46  56  73 107 147 182 214 244
#     4  11  20  28  41  65  88 104 132 176 219 253
#     4  10  19  31  44  61  80 107 144 185 222 253
#     4   8  15  28  45  61  77 106 141 168 201 254
#
# _framework density 14.501448999999999
#
# number of rings (size 3 to 8) (size 9 to 14) (size 15 to 20)
#    0.000    2.400    2.000    3.600    0.000    4.400 
#    0.000    0.000    0.000    0.000    0.000    0.000 
#    0.000    0.000    0.000    0.900    0.000   10.800 
#
# Total GULP energy -495855.462141 kJ/mol
# GULP energy per Si atom -12396.386554 kJ/mol
# Density = 1.446844 g / cm^3
# Si number density = 14.501449 Si / 1000 Ang^3
#
#
#
# Elastic Constant Matrix: (Units=GPa)
#
#
# Indices 1 2 3 4 5 6 
#
# 1 99.5132 45.4422 57.4791 0.0000 0.0000 0.0000
# 2 45.4422 71.3668 26.5782 0.0000 0.0000 0.0000
# 3 57.4791 26.5782 73.3723 0.0000 0.0000 0.0000
# 4 0.0000 0.0000 0.0000 18.0279 0.0000 0.0000
# 5 0.0000 0.0000 0.0000 0.0000 21.9852 0.0000
# 6 0.0000 0.0000 0.0000 0.0000 0.0000 14.1659
#
#
#
# Elastic Compliance Matrix: (Units=1/GPa)
#
#
# Indices 1 2 3 4 5 6 
#
# 1 0.022388 -0.008928 -0.014305 0.000000 0.000000 0.000000
# 2 -0.008928 0.019758 -0.000163 0.000000 0.000000 0.000000
# 3 -0.014305 -0.000163 0.024894 0.000000 0.000000 0.000000
# 4 0.000000 0.000000 0.000000 0.055470 0.000000 0.000000
# 5 0.000000 0.000000 0.000000 0.000000 0.045485 0.000000
# 6 0.000000 0.000000 0.000000 0.000000 0.000000 0.070592
#
#
# Mechanical properties :
#
#
# Convention : Reuss Voigt Hill
#
# Bulk Modulus (GPa) = 49.38509 55.91682 52.65096
# Shear Modulus (GPa) = 17.11578 18.48598 17.80088
#
# Velocity S-wave (km/s) = 3.43925 3.57426 3.50741
# Velocity P-wave (km/s) = 7.06403 7.46170 7.26558
#
# Compressibility (1/GPa) = 0.02024903
#
# Stress axis : x y z
#
# Youngs Moduli (GPa) = 44.66597 50.61308 40.17012
#
# Poissons Ratio (x) = 0.45189 0.57462
# Poissons Ratio (y) = 0.39879 0.00653
# Poissons Ratio (z) = 0.63893 0.00823
#
# Static dielectric constant tensor:
#      x y z
#    x 3.045760 0.000000 0.000000 
#    y 0.000000 2.704130 0.000000 
#    z 0.000000 0.000000 2.742020 
# 
# 
# High freq. dielectric constant tensor:
#      x y z
#    x 1.546660 0.000000 0.000000 
#    y 0.000000 1.548310 0.000000 
#    z 0.000000 0.000000 1.514890 
# 
# From -- ./inp_files/67587.got.cif
#   From: 2010.03.12/outbox.cif.g09.slc.cpg/sg74_34_cif.got.tgz:67587.got - 2010.04.16 15:46:19.
