data_PCOD8298481
_publ_section_title
;
Structure prediction by ZEFSAII (Michael W. Deem and Ramdas Pophale) SiO2 
 PCOD8298481
Probable space group: I M M A
;
_chemical_formula_sum "Si O2"
_cell_formula_units_Z 72
_cell_length_a 9.394843
_cell_length_b 27.544409
_cell_length_c 14.209506
_cell_angle_alpha 90.000000
_cell_angle_beta 90.000000
_cell_angle_gamma 90.000000
_cell_volume 3677.070572
_symmetry_space_group_name_H-M "I M M A"
_symmetry_group_IT_number 74
_symmetry_cell_setting 'orthorhombic'
loop_
_space_group_symop_operation_xyz
x,y,z
-x,1/2-y,z
x,-y,-z
-x,1/2+y,-z
-x,-y,-z
x,1/2+y,-z
-x,y,z
x,1/2-y,z
1/2+x,1/2+y,1/2+z
1/2-x,-y,1/2+z
1/2+x,1/2-y,1/2-z
1/2-x,y,1/2-z
1/2-x,1/2-y,1/2-z
1/2+x,y,1/2-z
1/2-x,1/2+y,1/2+z
1/2+x,-y,1/2+z
loop_
_atom_site_type_symbol
_atom_site_label
_atom_site_fract_x
_atom_site_fract_y
_atom_site_fract_z
Si Si1 0.657193 0.935431 0.090423
Si Si2 0.666322 0.847021 0.453544
Si Si3 0.667231 0.750000 0.347126
Si Si4 0.659322 0.040300 0.127041
Si Si5 0.167526 0.630635 0.836166
O O1 0.500000 0.919020 0.123454
O O2 0.762506 0.890305 0.106617
O O3 0.703631 0.984114 0.147200
O O4 0.654138 0.949923 0.982721
O O5 0.500000 0.856317 0.446624
O O6 0.713021 0.796423 0.408163
O O7 0.712948 0.846324 0.563538
O O8 0.500000 0.750000 0.325629
O O9 0.750000 0.750000 0.250000
O O10 0.500000 0.051225 0.167962
O O11 0.781207 0.074537 0.170181
O O12 0.250000 0.658125 0.750000
O O13 0.000000 0.634380 0.819587
#
# Coordination Sequence:
#
# PCOD8298481 Si02
#       5
#    16  16   8  16  16
#     4   8  14  26  47  73 101 133 171 212 252 294
#     4   9  19  35  55  77 104 137 172 213 264 314
#     4  10  22  42  63  82 102 126 163 214 269 322
#     4   8  14  26  44  69 102 139 174 209 247 290
#     4  10  19  31  49  75 107 144 179 212 250 299
#
# _framework density 19.580805000000002
#
# number of rings (size 3 to 8) (size 9 to 14) (size 15 to 20)
#    0.000    3.111    0.000    2.000    0.000    2.667 
#    0.000    6.111    0.000    2.667    0.000    0.000 
#    0.000    0.000    0.000    0.000    0.000    0.000 
#
# Total GULP energy -446041.015788 kJ/mol
# GULP energy per Si atom -12390.028216 kJ/mol
# Density = 1.953624 g / cm^3
# Si number density = 19.580805 Si / 1000 Ang^3
#
#
#
# Elastic Constant Matrix: (Units=GPa)
#
#
# Indices 1 2 3 4 5 6 
#
# 1 74.0251 46.7321 40.3285 0.0000 0.0000 0.0000
# 2 46.7321 131.3378 47.8862 0.0000 0.0000 0.0000
# 3 40.3285 47.8862 89.8357 0.0000 0.0001 0.0000
# 4 0.0000 0.0000 0.0000 14.7233 0.0000 0.0000
# 5 0.0000 0.0000 0.0001 0.0000 28.4367 0.0000
# 6 0.0000 0.0000 0.0000 0.0000 0.0000 26.8482
#
#
#
# Elastic Compliance Matrix: (Units=1/GPa)
#
#
# Indices 1 2 3 4 5 6 
#
# 1 0.020039 -0.004779 -0.006448 0.000000 0.000000 0.000000
# 2 -0.004779 0.010590 -0.003500 0.000000 0.000000 0.000000
# 3 -0.006448 -0.003500 0.015892 0.000000 0.000000 0.000000
# 4 0.000000 0.000000 0.000000 0.067919 0.000000 0.000000
# 5 0.000000 0.000000 0.000000 0.000000 0.035166 0.000000
# 6 0.000000 0.000000 0.000000 0.000000 0.000000 0.037246
#
#
# Mechanical properties :
#
#
# Convention : Reuss Voigt Hill
#
# Bulk Modulus (GPa) = 58.59336 62.78803 60.69070
# Shear Modulus (GPa) = 22.52293 24.68512 23.60403
#
# Velocity S-wave (km/s) = 3.39522 3.55446 3.47575
# Velocity P-wave (km/s) = 6.73490 6.99866 6.86805
#
# Compressibility (1/GPa) = 0.01706678
#
# Stress axis : x y z
#
# Youngs Moduli (GPa) = 49.90268 94.42460 62.92597
#
# Poissons Ratio (x) = 0.45127 0.40577
# Poissons Ratio (y) = 0.23849 0.22023
# Poissons Ratio (z) = 0.32179 0.33046
#
# Static dielectric constant tensor:
#      x y z
#    x 3.587200 0.000000 0.000000 
#    y 0.000000 3.670520 0.000000 
#    z 0.000000 0.000000 3.829330 
# 
# 
# High freq. dielectric constant tensor:
#      x y z
#    x 1.757390 0.000000 0.000000 
#    y 0.000000 1.740840 0.000000 
#    z 0.000000 0.000000 1.758540 
# 
# From -- ./inp_files/29163.got.cif
#   From: 2010.03.12/outbox.cif.g09.slc.cpg/sg74_15_cif.got.tgz:29163.got - 2010.04.16 15:46:19.
