data_PCOD8298538
_publ_section_title
;
Structure prediction by ZEFSAII (Michael W. Deem and Ramdas Pophale) SiO2 
 PCOD8298538
Probable space group: I M M A
;
_chemical_formula_sum "Si O2"
_cell_formula_units_Z 96
_cell_length_a 9.133351
_cell_length_b 23.492151
_cell_length_c 23.587490
_cell_angle_alpha 90.000000
_cell_angle_beta 90.000000
_cell_angle_gamma 90.000000
_cell_volume 5060.980464
_symmetry_space_group_name_H-M "I M M A"
_symmetry_group_IT_number 74
_symmetry_cell_setting 'orthorhombic'
loop_
_space_group_symop_operation_xyz
x,y,z
-x,1/2-y,z
x,-y,-z
-x,1/2+y,-z
-x,-y,-z
x,1/2+y,-z
-x,y,z
x,1/2-y,z
1/2+x,1/2+y,1/2+z
1/2-x,-y,1/2+z
1/2+x,1/2-y,1/2-z
1/2-x,y,1/2-z
1/2-x,1/2-y,1/2-z
1/2+x,y,1/2-z
1/2-x,1/2+y,1/2+z
1/2+x,-y,1/2+z
loop_
_atom_site_type_symbol
_atom_site_label
_atom_site_fract_x
_atom_site_fract_y
_atom_site_fract_z
Si Si1 0.669168 0.690200 0.191404
Si Si2 0.328064 0.433327 0.810098
Si Si3 0.165042 0.817583 0.804608
Si Si4 0.671363 0.315904 0.081603
Si Si5 0.168984 0.591972 0.983577
Si Si6 0.168747 0.017575 0.910789
O O1 0.500000 0.688460 0.206642
O O2 0.704966 0.750000 0.157020
O O3 0.750000 0.693357 0.250000
O O4 0.709220 0.629678 0.162706
O O5 0.500000 0.443230 0.801703
O O6 0.250000 0.441998 0.750000
O O7 0.266768 0.478507 0.854728
O O8 0.160862 0.750000 0.800329
O O9 0.250000 0.842728 0.750000
O O10 0.248377 0.836598 0.861294
O O11 0.000000 0.842294 0.805816
O O12 0.500000 0.326291 0.089653
O O13 0.705413 0.250000 0.068348
O O14 0.731542 0.353035 0.029254
O O15 0.195443 0.544825 0.935534
O O16 0.000000 0.610843 0.984547
O O17 0.216078 0.565616 0.043786
O O18 0.000000 0.026361 0.894537
#
# Coordination Sequence:
#
# PCOD8298538 Si02
#       6
#    16  16  16  16  16  16
#     4   8  14  25  41  63  93 129 166 200 237 287
#     4  10  19  31  51  78 107 139 172 211 260 309
#     4   9  16  27  45  69  99 136 174 209 249 302
#     4  10  20  33  51  78 110 139 169 211 260 307
#     4   9  19  37  59  78  99 133 174 215 259 307
#     4   9  19  37  58  78 101 131 171 217 261 306
#
# _framework density 18.968657
#
# number of rings (size 3 to 8) (size 9 to 14) (size 15 to 20)
#    0.000    2.833    0.000    2.500    0.000    5.000 
#    0.000    3.333    0.000    7.000    0.000    0.000 
#    0.000    0.000    0.000    0.000    0.000    0.000 
#
# Total GULP energy -594769.765507 kJ/mol
# GULP energy per Si atom -12391.036781 kJ/mol
# Density = 1.892548 g / cm^3
# Si number density = 18.968657 Si / 1000 Ang^3
#
#
#
# Elastic Constant Matrix: (Units=GPa)
#
#
# Indices 1 2 3 4 5 6 
#
# 1 98.5772 37.1705 45.4085 0.0000 0.0000 0.0000
# 2 37.1705 54.7332 31.9257 0.0000 0.0000 0.0000
# 3 45.4085 31.9257 77.2535 0.0000 0.0000 0.0000
# 4 0.0000 0.0000 0.0000 26.5447 0.0000 0.0000
# 5 0.0000 0.0000 0.0000 0.0000 32.1465 0.0000
# 6 0.0000 0.0000 0.0000 0.0000 0.0000 21.2582
#
#
#
# Elastic Compliance Matrix: (Units=1/GPa)
#
#
# Indices 1 2 3 4 5 6 
#
# 1 0.015691 -0.006952 -0.006350 0.000000 0.000000 0.000000
# 2 -0.006952 0.027154 -0.007135 0.000000 0.000000 0.000000
# 3 -0.006350 -0.007135 0.019625 0.000000 0.000000 0.000000
# 4 0.000000 0.000000 0.000000 0.037672 0.000000 0.000000
# 5 0.000000 0.000000 0.000000 0.000000 0.031108 0.000000
# 6 0.000000 0.000000 0.000000 0.000000 0.000000 0.047041
#
#
# Mechanical properties :
#
#
# Convention : Reuss Voigt Hill
#
# Bulk Modulus (GPa) = 46.30548 51.06371 48.68460
# Shear Modulus (GPa) = 22.08843 23.72717 22.90780
#
# Velocity S-wave (km/s) = 3.41613 3.54059 3.47892
# Velocity P-wave (km/s) = 6.32650 6.61006 6.46983
#
# Compressibility (1/GPa) = 0.02159572
#
# Stress axis : x y z
#
# Youngs Moduli (GPa) = 63.73202 36.82742 50.95446
#
# Poissons Ratio (x) = 0.25603 0.32355
# Poissons Ratio (y) = 0.44307 0.36357
# Poissons Ratio (z) = 0.40468 0.26277
#
# Static dielectric constant tensor:
#      x y z
#    x 3.393730 0.000000 0.000000 
#    y 0.000000 3.623840 0.000000 
#    z 0.000000 0.000000 3.185630 
# 
# 
# High freq. dielectric constant tensor:
#      x y z
#    x 1.742330 0.000000 0.000000 
#    y 0.000000 1.728980 0.000000 
#    z 0.000000 0.000000 1.710640 
# 
# From -- ./inp_files/57249.got.cif
#   From: 2010.03.12/outbox.cif.g09.slc.cpg/sg74_29_cif.got.tgz:57249.got - 2010.04.16 15:46:19.
