data_PCOD8298028
_publ_section_title
;
Structure prediction by ZEFSAII (Michael W. Deem and Ramdas Pophale) SiO2 
 PCOD8298028
Probable space group: I M M A
;
_chemical_formula_sum "Si O2"
_cell_formula_units_Z 104
_cell_length_a 9.488116
_cell_length_b 23.871959
_cell_length_c 25.567211
_cell_angle_alpha 90.000000
_cell_angle_beta 90.000000
_cell_angle_gamma 90.000000
_cell_volume 5790.971147
_symmetry_space_group_name_H-M "I M M A"
_symmetry_group_IT_number 74
_symmetry_cell_setting 'orthorhombic'
loop_
_space_group_symop_operation_xyz
x,y,z
-x,1/2-y,z
x,-y,-z
-x,1/2+y,-z
-x,-y,-z
x,1/2+y,-z
-x,y,z
x,1/2-y,z
1/2+x,1/2+y,1/2+z
1/2-x,-y,1/2+z
1/2+x,1/2-y,1/2-z
1/2-x,y,1/2-z
1/2-x,1/2-y,1/2-z
1/2+x,y,1/2-z
1/2-x,1/2+y,1/2+z
1/2+x,-y,1/2+z
loop_
_atom_site_type_symbol
_atom_site_label
_atom_site_fract_x
_atom_site_fract_y
_atom_site_fract_z
Si Si1 0.836886 0.088096 0.372127
Si Si2 0.334949 0.435392 0.012291
Si Si3 0.159235 0.810683 0.165073
Si Si4 0.164168 0.187012 0.302422
Si Si5 0.342505 0.468110 0.841868
Si Si6 0.831164 0.603458 0.082565
Si Si7 0.250000 0.105441 0.750000
O O1 0.774493 0.077987 0.430000
O O2 0.772714 0.143441 0.344921
O O3 0.000000 0.099247 0.380489
O O4 0.811075 0.034210 0.334555
O O5 0.500000 0.421231 0.005603
O O6 0.305438 0.500000 0.000000
O O7 0.242869 0.396703 0.973651
O O8 0.235966 0.750000 0.175162
O O9 0.220809 0.840493 0.113148
O O10 0.159782 0.852793 0.214179
O O11 0.000000 0.797179 0.152769
O O12 0.186027 0.250000 0.324051
O O13 0.250000 0.177548 0.250000
O O14 0.000000 0.175133 0.290503
O O15 0.500000 0.460628 0.866159
O O16 0.225661 0.447880 0.882702
O O17 0.341971 0.435349 0.786667
O O18 0.000000 0.598820 0.077622
#
# Coordination Sequence:
#
# PCOD8298028 Si02
#       7
#    16  16  16  16  16  16   8
#     4   9  18  32  51  75 101 133 169 198 244 309
#     4  10  18  33  55  74 100 138 169 200 253 315
#     4   9  18  33  49  67  98 138 173 204 250 304
#     4   9  18  34  55  76 101 133 168 206 249 299
#     4  10  19  33  50  71 104 139 169 206 258 311
#     4  10  20  33  51  76 102 130 171 218 257 295
#     4  10  19  28  50  78  99 128 172 226 248 280
#
# _framework density 17.958991999999999
#
# number of rings (size 3 to 8) (size 9 to 14) (size 15 to 20)
#    0.000    2.462    1.538    1.154    1.077    0.923 
#    0.000    2.308    0.000   10.154    0.000    0.000 
#    0.000    0.000    0.000    0.000    0.000    0.000 
#
# Total GULP energy -644286.238918 kJ/mol
# GULP energy per Si atom -12390.119979 kJ/mol
# Density = 1.791812 g / cm^3
# Si number density = 17.958992 Si / 1000 Ang^3
#
#
#
# Elastic Constant Matrix: (Units=GPa)
#
#
# Indices 1 2 3 4 5 6 
#
# 1 51.4115 30.9716 30.6921 0.0000 0.0000 0.0000
# 2 30.9716 145.2291 87.7352 0.0000 0.0000 0.0000
# 3 30.6921 87.7352 125.6706 0.0000 0.0000 0.0000
# 4 0.0000 0.0000 0.0000 24.9454 0.0000 0.0000
# 5 0.0000 0.0000 0.0000 0.0000 25.7457 0.0000
# 6 0.0000 0.0000 0.0000 0.0000 0.0000 17.6955
#
#
#
# Elastic Compliance Matrix: (Units=1/GPa)
#
#
# Indices 1 2 3 4 5 6 
#
# 1 0.023348 -0.002654 -0.003850 0.000000 0.000000 0.000000
# 2 -0.002654 0.012209 -0.007876 0.000000 0.000000 0.000000
# 3 -0.003850 -0.007876 0.014396 0.000000 0.000000 0.000000
# 4 0.000000 0.000000 0.000000 0.040088 0.000000 0.000000
# 5 0.000000 0.000000 0.000000 0.000000 0.038841 0.000000
# 6 0.000000 0.000000 0.000000 0.000000 0.000000 0.056512
#
#
# Mechanical properties :
#
#
# Convention : Reuss Voigt Hill
#
# Bulk Modulus (GPa) = 47.18072 69.01212 58.09642
# Shear Modulus (GPa) = 22.60230 25.20480 23.90355
#
# Velocity S-wave (km/s) = 3.55145 3.75035 3.65226
# Velocity P-wave (km/s) = 6.56852 7.56733 7.08555
#
# Compressibility (1/GPa) = 0.02119510
#
# Stress axis : x y z
#
# Youngs Moduli (GPa) = 42.83100 81.90368 69.46439
#
# Poissons Ratio (x) = 0.21733 0.26741
# Poissons Ratio (y) = 0.11365 0.54709
# Poissons Ratio (z) = 0.16488 0.64506
#
# Static dielectric constant tensor:
#      x y z
#    x 3.083870 0.000000 0.000000 
#    y 0.000000 3.761080 0.000000 
#    z 0.000000 0.000000 3.478270 
# 
# 
# High freq. dielectric constant tensor:
#      x y z
#    x 1.667410 0.000000 0.000000 
#    y 0.000000 1.698150 0.000000 
#    z 0.000000 0.000000 1.691950 
# 
# From -- ./inp_files/57642.got.cif
#   From: 2010.03.12/outbox.cif.g09.slc.cpg/sg74_29_cif.got.tgz:57642.got - 2010.04.16 15:46:19.
