data_PCOD8298737
_publ_section_title
;
Structure prediction by ZEFSAII (Michael W. Deem and Ramdas Pophale) SiO2 
 PCOD8298737
Probable space group: I M M A
;
_chemical_formula_sum "Si O2"
_cell_formula_units_Z 72
_cell_length_a 17.828667
_cell_length_b 22.640497
_cell_length_c 10.085032
_cell_angle_alpha 90.000000
_cell_angle_beta 90.000000
_cell_angle_gamma 90.000000
_cell_volume 4070.821974
_symmetry_space_group_name_H-M "I M M A"
_symmetry_group_IT_number 74
_symmetry_cell_setting 'orthorhombic'
loop_
_space_group_symop_operation_xyz
x,y,z
-x,1/2-y,z
x,-y,-z
-x,1/2+y,-z
-x,-y,-z
x,1/2+y,-z
-x,y,z
x,1/2-y,z
1/2+x,1/2+y,1/2+z
1/2-x,-y,1/2+z
1/2+x,1/2-y,1/2-z
1/2-x,y,1/2-z
1/2-x,1/2-y,1/2-z
1/2+x,y,1/2-z
1/2-x,1/2+y,1/2+z
1/2+x,-y,1/2+z
loop_
_atom_site_type_symbol
_atom_site_label
_atom_site_fract_x
_atom_site_fract_y
_atom_site_fract_z
Si Si1 0.587691 0.914623 0.182181
Si Si2 0.799517 0.181590 0.622076
Si Si3 0.324792 0.000000 0.000000
Si Si4 0.269483 0.890391 0.601642
Si Si5 0.416579 0.069447 0.513176
O O1 0.500000 0.914680 0.150785
O O2 0.623246 0.854978 0.123537
O O3 0.605752 0.915076 0.337185
O O4 0.623771 0.972518 0.115173
O O5 0.820754 0.250000 0.617080
O O6 0.750000 0.165679 0.750000
O O7 0.753527 0.163932 0.491576
O O8 0.272355 0.049352 0.064126
O O9 0.250000 0.871514 0.750000
O O10 0.358830 0.899888 0.587436
O O11 0.500000 0.093125 0.478703
O O12 0.413870 0.000000 0.500000
#
# Coordination Sequence:
#
# PCOD8298737 Si02
#       5
#    16  16   8  16  16
#     4  10  20  35  55  82 113 146 184 227 276 333
#     4  10  21  38  58  79 107 143 192 239 270 322
#     4  10  21  30  55  82 118 146 182 218 273 340
#     4  11  21  34  56  82 112 150 183 228 273 330
#     4  10  19  32  52  79 114 146 179 220 273 334
#
# _framework density 17.686844000000001
#
# number of rings (size 3 to 8) (size 9 to 14) (size 15 to 20)
#    0.000    1.778    3.333    1.667    0.000    0.889 
#    0.000    4.444    0.000    0.667    0.000    0.000 
#    0.000    0.000    0.000    0.000    0.000    0.000 
#
# Total GULP energy -446500.481016 kJ/mol
# GULP energy per Si atom -12402.791139 kJ/mol
# Density = 1.764659 g / cm^3
# Si number density = 17.686844 Si / 1000 Ang^3
#
#
#
# Elastic Constant Matrix: (Units=GPa)
#
#
# Indices 1 2 3 4 5 6 
#
# 1 119.0262 30.2314 53.5567 0.0000 0.0000 0.0000
# 2 30.2314 68.0239 22.1657 0.0000 0.0000 0.0000
# 3 53.5567 22.1657 114.6232 0.0000 0.0000 0.0000
# 4 0.0000 0.0000 0.0000 22.4206 0.0000 0.0000
# 5 0.0000 0.0000 0.0000 0.0000 28.7915 0.0000
# 6 0.0000 0.0000 0.0000 0.0000 0.0000 14.4915
#
#
#
# Elastic Compliance Matrix: (Units=1/GPa)
#
#
# Indices 1 2 3 4 5 6 
#
# 1 0.011389 -0.003551 -0.004635 0.000000 0.000000 0.000000
# 2 -0.003551 0.016797 -0.001589 0.000000 0.000000 0.000000
# 3 -0.004635 -0.001589 0.011197 0.000000 0.000000 0.000000
# 4 0.000000 0.000000 0.000000 0.044602 0.000000 0.000000
# 5 0.000000 0.000000 0.000000 0.000000 0.034732 0.000000
# 6 0.000000 0.000000 0.000000 0.000000 0.000000 0.069006
#
#
# Mechanical properties :
#
#
# Convention : Reuss Voigt Hill
#
# Bulk Modulus (GPa) = 50.42070 57.06453 53.74261
# Shear Modulus (GPa) = 23.37726 26.18871 24.78298
#
# Velocity S-wave (km/s) = 3.63951 3.85215 3.74733
# Velocity P-wave (km/s) = 6.79932 7.21937 7.01249
#
# Compressibility (1/GPa) = 0.01983313
#
# Stress axis : x y z
#
# Youngs Moduli (GPa) = 87.80497 59.53547 89.30993
#
# Poissons Ratio (x) = 0.21143 0.41392
# Poissons Ratio (y) = 0.31182 0.14190
# Poissons Ratio (z) = 0.40694 0.09459
#
# Static dielectric constant tensor:
#      x y z
#    x 3.460410 0.000000 0.000000 
#    y 0.000000 3.046340 0.000000 
#    z 0.000000 0.000000 3.720830 
# 
# 
# High freq. dielectric constant tensor:
#      x y z
#    x 1.694060 0.000000 0.000000 
#    y 0.000000 1.665260 0.000000 
#    z 0.000000 0.000000 1.685290 
# 
# From -- ./inp_files/10656.got.cif
#   From: 2010.03.12/outbox.cif.g09.slc.cpg/sg74_6_cif.got.tgz:10656.got - 2010.04.16 15:46:19.
