data_PCOD8298274
_publ_section_title
;
Structure prediction by ZEFSAII (Michael W. Deem and Ramdas Pophale) SiO2 
 PCOD8298274
Probable space group: I M M A
;
_chemical_formula_sum "Si O2"
_cell_formula_units_Z 72
_cell_length_a 26.823331
_cell_length_b 26.943030
_cell_length_c 4.995635
_cell_angle_alpha 90.000000
_cell_angle_beta 90.000000
_cell_angle_gamma 90.000000
_cell_volume 3610.354466
_symmetry_space_group_name_H-M "I M M A"
_symmetry_group_IT_number 74
_symmetry_cell_setting 'orthorhombic'
loop_
_space_group_symop_operation_xyz
x,y,z
-x,1/2-y,z
x,-y,-z
-x,1/2+y,-z
-x,-y,-z
x,1/2+y,-z
-x,y,z
x,1/2-y,z
1/2+x,1/2+y,1/2+z
1/2-x,-y,1/2+z
1/2+x,1/2-y,1/2-z
1/2-x,y,1/2-z
1/2-x,1/2-y,1/2-z
1/2+x,y,1/2-z
1/2-x,1/2+y,1/2+z
1/2+x,-y,1/2+z
loop_
_atom_site_type_symbol
_atom_site_label
_atom_site_fract_x
_atom_site_fract_y
_atom_site_fract_z
Si Si1 0.945043 0.693268 0.072724
Si Si2 0.381902 0.692629 0.907974
Si Si3 0.808686 0.151392 0.800725
Si Si4 0.785398 0.946703 0.000719
Si Si5 0.714244 0.250000 0.496291
O O1 0.949787 0.750000 0.978583
O O2 0.905523 0.668951 0.863324
O O3 0.000000 0.668249 0.056410
O O4 0.925805 0.689467 0.373595
O O5 0.362274 0.750000 0.875048
O O6 0.336669 0.658308 0.017424
O O7 0.750000 0.149327 0.750000
O O8 0.823302 0.099864 0.950766
O O9 0.820437 0.199995 0.991673
O O10 0.750000 0.952700 0.250000
O O11 0.750000 0.935419 0.750000
O O12 0.814727 0.000000 0.000000
O O13 0.750000 0.250000 0.750000
O O14 0.750000 0.250000 0.250000
#
# Coordination Sequence:
#
# PCOD8298274 Si02
#       5
#    16  16  16  16   8
#     4   9  18  32  48  64  88 120 157 198 236 272
#     4  10  19  30  45  68  92 123 157 189 229 281
#     4  10  20  33  46  69 100 132 159 191 227 278
#     4   9  18  32  48  64  86 123 166 201 231 261
#     4  10  20  30  42  60  89 130 159 178 216 266
#
# _framework density 19.942640000000001
#
# number of rings (size 3 to 8) (size 9 to 14) (size 15 to 20)
#    0.000    2.444    1.111    1.333    0.000    9.778 
#    0.000    0.000    0.000    0.000    0.000    0.000 
#    0.000    5.333    0.000    0.000    0.000    0.000 
#
# Total GULP energy -446085.494519 kJ/mol
# GULP energy per Si atom -12391.263737 kJ/mol
# Density = 1.989725 g / cm^3
# Si number density = 19.942640 Si / 1000 Ang^3
#
#
#
# Elastic Constant Matrix: (Units=GPa)
#
#
# Indices 1 2 3 4 5 6 
#
# 1 56.8478 0.6117 -26.9350 0.0000 0.0000 0.0000
# 2 0.6117 140.9629 -0.8067 0.0000 0.0000 0.0000
# 3 -26.9350 -0.8067 47.6792 0.0000 0.0000 0.0000
# 4 0.0000 0.0000 0.0000 20.9118 0.0000 0.0000
# 5 0.0000 0.0000 0.0000 0.0000 18.6394 0.0000
# 6 0.0000 0.0000 0.0000 0.0000 0.0000 5.7233
#
#
#
# Elastic Compliance Matrix: (Units=1/GPa)
#
#
# Indices 1 2 3 4 5 6 
#
# 1 0.024020 -0.000027 0.013569 0.000000 0.000000 0.000000
# 2 -0.000027 0.007095 0.000105 0.000000 0.000000 0.000000
# 3 0.013569 0.000105 0.028641 0.000000 0.000000 0.000000
# 4 0.000000 0.000000 0.000000 0.047820 0.000000 0.000000
# 5 0.000000 0.000000 0.000000 0.000000 0.053650 0.000000
# 6 0.000000 0.000000 0.000000 0.000000 0.000000 0.174725
#
#
# Mechanical properties :
#
#
# Convention : Reuss Voigt Hill
#
# Bulk Modulus (GPa) = 11.48750 21.24775 16.36763
# Shear Modulus (GPa) = 14.80723 27.22955 21.01839
#
# Velocity S-wave (km/s) = 2.72782 3.69913 3.24997
# Velocity P-wave (km/s) = 3.96158 5.37795 4.72316
#
# Compressibility (1/GPa) = 0.08705111
#
# Stress axis : x y z
#
# Youngs Moduli (GPa) = 41.63140 140.94866 34.91524
#
# Poissons Ratio (x) = 0.00375 -0.47377
# Poissons Ratio (y) = 0.00111 -0.00367
# Poissons Ratio (z) = -0.56490 -0.01480
#
# Static dielectric constant tensor:
#      x y z
#    x 3.546810 0.000000 0.000000 
#    y 0.000000 8.948780 0.000000 
#    z 0.000000 0.000000 3.856620 
# 
# 
# High freq. dielectric constant tensor:
#      x y z
#    x 1.749960 0.000000 0.000000 
#    y 0.000000 1.731080 0.000000 
#    z 0.000000 0.000000 1.809380 
# 
# From -- ./inp_files/3727.got.cif
#   From: 2010.03.12/outbox.cif.g09.slc.cpg/sg74_2_cif.got.tgz:3727.got - 2010.04.16 15:46:19.
