data_PCOD8298903
_publ_section_title
;
Structure prediction by ZEFSAII (Michael W. Deem and Ramdas Pophale) SiO2 
 PCOD8298903
Probable space group: I M M A
;
_chemical_formula_sum "Si O2"
_cell_formula_units_Z 96
_cell_length_a 18.354706
_cell_length_b 20.778375
_cell_length_c 15.059830
_cell_angle_alpha 90.000000
_cell_angle_beta 90.000000
_cell_angle_gamma 90.000000
_cell_volume 5743.532487
_symmetry_space_group_name_H-M "I M M A"
_symmetry_group_IT_number 74
_symmetry_cell_setting 'orthorhombic'
loop_
_space_group_symop_operation_xyz
x,y,z
-x,1/2-y,z
x,-y,-z
-x,1/2+y,-z
-x,-y,-z
x,1/2+y,-z
-x,y,z
x,1/2-y,z
1/2+x,1/2+y,1/2+z
1/2-x,-y,1/2+z
1/2+x,1/2-y,1/2-z
1/2-x,y,1/2-z
1/2-x,1/2-y,1/2-z
1/2+x,y,1/2-z
1/2-x,1/2+y,1/2+z
1/2+x,-y,1/2+z
loop_
_atom_site_type_symbol
_atom_site_label
_atom_site_fract_x
_atom_site_fract_y
_atom_site_fract_z
Si Si1 0.184444 0.618642 0.986867
Si Si2 0.189102 0.540411 0.579225
Si Si3 0.203267 0.441205 0.833978
Si Si4 0.697066 0.250000 0.393345
Si Si5 0.419018 0.884636 0.806336
Si Si6 0.915444 0.539914 0.864477
Si Si7 0.149761 0.250000 0.309826
O O1 0.186989 0.615724 0.094776
O O2 0.265490 0.601849 0.953758
O O3 0.167660 0.689555 0.950172
O O4 0.124376 0.565907 0.953910
O O5 0.152256 0.500000 0.500000
O O6 0.245521 0.495850 0.628627
O O7 0.127048 0.561920 0.644346
O O8 0.250000 0.413111 0.750000
O O9 0.125715 0.478278 0.819004
O O10 0.783609 0.250000 0.378884
O O11 0.666855 0.250000 0.294155
O O12 0.500000 0.894452 0.840990
O O13 0.411603 0.899135 0.701954
O O14 0.396548 0.812832 0.830499
O O15 0.000000 0.521428 0.884368
#
# Coordination Sequence:
#
# PCOD8298903 Si02
#       7
#    16  16  16   8  16  16   8
#     4  10  20  33  51  74  98 132 170 214 246 304
#     4   9  18  32  50  73 100 131 169 209 249 294
#     4  10  19  33  54  73  99 129 168 212 262 297
#     4  11  20  32  53  72  96 131 175 207 251 303
#     4  11  20  31  49  76 109 137 168 204 244 301
#     4  10  20  33  52  78 108 136 164 205 255 311
#     4  11  21  32  50  70 107 138 165 206 242 307
#
# _framework density 16.714452000000001
#
# number of rings (size 3 to 8) (size 9 to 14) (size 15 to 20)
#    0.000    1.833    5.000    1.750    0.000    1.667 
#    0.000    0.833    0.000    0.000    0.000    0.000 
#    0.000    0.000    0.000    0.000    0.000    0.000 
#
# Total GULP energy -594748.893962 kJ/mol
# GULP energy per Si atom -12390.601958 kJ/mol
# Density = 1.667641 g / cm^3
# Si number density = 16.714452 Si / 1000 Ang^3
#
#
#
# Elastic Constant Matrix: (Units=GPa)
#
#
# Indices 1 2 3 4 5 6 
#
# 1 83.0208 20.5580 33.1993 0.0000 0.0000 0.0000
# 2 20.5580 59.9661 22.0679 0.0000 0.0000 0.0000
# 3 33.1993 22.0679 78.3165 0.0000 0.0000 0.0000
# 4 0.0000 0.0000 0.0000 21.3746 0.0000 0.0000
# 5 0.0000 0.0000 0.0000 0.0000 14.7633 0.0000
# 6 0.0000 0.0000 0.0000 0.0000 0.0000 6.5743
#
#
#
# Elastic Compliance Matrix: (Units=1/GPa)
#
#
# Indices 1 2 3 4 5 6 
#
# 1 0.015012 -0.003129 -0.005482 0.000000 0.000000 0.000000
# 2 -0.003129 0.019258 -0.004100 0.000000 0.000000 0.000000
# 3 -0.005482 -0.004100 0.016248 0.000000 0.000000 0.000000
# 4 0.000000 0.000000 0.000000 0.046785 0.000000 0.000000
# 5 0.000000 0.000000 0.000000 0.000000 0.067736 0.000000
# 6 0.000000 0.000000 0.000000 0.000000 0.000000 0.152108
#
#
# Mechanical properties :
#
#
# Convention : Reuss Voigt Hill
#
# Bulk Modulus (GPa) = 39.84791 41.43931 40.64361
# Shear Modulus (GPa) = 14.24771 18.24098 16.24434
#
# Velocity S-wave (km/s) = 2.92279 3.30711 3.12087
# Velocity P-wave (km/s) = 5.93990 6.27925 6.11193
#
# Compressibility (1/GPa) = 0.02509542
#
# Stress axis : x y z
#
# Youngs Moduli (GPa) = 66.61207 51.92750 61.54637
#
# Poissons Ratio (x) = 0.16249 0.33741
# Poissons Ratio (y) = 0.20844 0.25233
# Poissons Ratio (z) = 0.36518 0.21290
#
# Static dielectric constant tensor:
#      x y z
#    x 3.496410 0.000000 0.000000 
#    y 0.000000 2.925960 0.000000 
#    z 0.000000 0.000000 3.556740 
# 
# 
# High freq. dielectric constant tensor:
#      x y z
#    x 1.641360 0.000000 0.000000 
#    y 0.000000 1.621980 0.000000 
#    z 0.000000 0.000000 1.632260 
# 
# From -- ./inp_files/44361.got.cif
#   From: 2010.03.12/outbox.cif.g09.slc.cpg/sg74_23_cif.got.tgz:44361.got - 2010.04.16 15:46:19.
