data_PCOD8298678
_publ_section_title
;
Structure prediction by ZEFSAII (Michael W. Deem and Ramdas Pophale) SiO2 
 PCOD8298678
Probable space group: I M M A
;
_chemical_formula_sum "Si O2"
_cell_formula_units_Z 72
_cell_length_a 16.320407
_cell_length_b 8.682920
_cell_length_c 27.182936
_cell_angle_alpha 90.000000
_cell_angle_beta 90.000000
_cell_angle_gamma 90.000000
_cell_volume 3852.060924
_symmetry_space_group_name_H-M "I M M A"
_symmetry_group_IT_number 74
_symmetry_cell_setting 'orthorhombic'
loop_
_space_group_symop_operation_xyz
x,y,z
-x,1/2-y,z
x,-y,-z
-x,1/2+y,-z
-x,-y,-z
x,1/2+y,-z
-x,y,z
x,1/2-y,z
1/2+x,1/2+y,1/2+z
1/2-x,-y,1/2+z
1/2+x,1/2-y,1/2-z
1/2-x,y,1/2-z
1/2-x,1/2-y,1/2-z
1/2+x,y,1/2-z
1/2-x,1/2+y,1/2+z
1/2+x,-y,1/2+z
loop_
_atom_site_type_symbol
_atom_site_label
_atom_site_fract_x
_atom_site_fract_y
_atom_site_fract_z
Si Si1 0.592406 0.573555 0.354873
Si Si2 0.259599 0.430749 0.304202
Si Si3 0.190079 0.572875 0.049438
Si Si4 0.339429 0.432173 0.102432
Si Si5 0.500000 0.067977 0.944917
O O1 0.500000 0.514721 0.348649
O O2 0.601891 0.750000 0.338046
O O3 0.648858 0.468734 0.320940
O O4 0.617774 0.554746 0.411410
O O5 0.248823 0.250000 0.301071
O O6 0.250000 0.505527 0.250000
O O7 0.191838 0.492092 0.343589
O O8 0.216140 0.750000 0.042732
O O9 0.270093 0.474943 0.063281
O O10 0.153834 0.500000 0.000000
O O11 0.354188 0.250000 0.102130
O O12 0.422287 0.516111 0.087011
O O13 0.500000 0.250000 0.950458
O O14 0.500000 0.000000 0.000000
#
# Coordination Sequence:
#
# PCOD8298678 Si02
#       5
#    16  16  16  16   8
#     4   9  19  35  53  76 107 139 173 214 259 309
#     4   9  19  37  59  81 105 137 177 221 268 317
#     4  10  19  32  51  75 105 141 178 216 259 309
#     4  10  20  36  56  78 107 141 180 222 268 321
#     4  12  24  38  56  80 112 146 184 226 275 328
#
# _framework density 18.691293000000002
#
# number of rings (size 3 to 8) (size 9 to 14) (size 15 to 20)
#    0.000    2.222    0.000    3.000    0.000    3.111 
#    2.000    0.000    0.000    0.000    0.000    0.000 
#    0.000    0.000    0.000    0.000    0.000    0.000 
#
# Total GULP energy -446353.477351 kJ/mol
# GULP energy per Si atom -12398.707704 kJ/mol
# Density = 1.864875 g / cm^3
# Si number density = 18.691293 Si / 1000 Ang^3
#
#
#
# Elastic Constant Matrix: (Units=GPa)
#
#
# Indices 1 2 3 4 5 6 
#
# 1 124.1056 26.9280 57.5360 0.0000 0.0000 0.0000
# 2 26.9280 61.5618 36.1410 0.0000 0.0000 0.0000
# 3 57.5360 36.1410 143.8264 0.0000 0.0000 0.0000
# 4 0.0000 0.0000 0.0000 23.3178 0.0000 0.0000
# 5 0.0000 0.0000 0.0000 0.0000 14.1694 0.0000
# 6 0.0000 0.0000 0.0000 0.0000 0.0000 30.7112
#
#
#
# Elastic Compliance Matrix: (Units=1/GPa)
#
#
# Indices 1 2 3 4 5 6 
#
# 1 0.010191 -0.002422 -0.003468 0.000000 0.000000 0.000000
# 2 -0.002422 0.019630 -0.003964 0.000000 0.000000 0.000000
# 3 -0.003468 -0.003964 0.009336 0.000000 0.000000 0.000000
# 4 0.000000 0.000000 0.000000 0.042886 0.000000 0.000000
# 5 0.000000 0.000000 0.000000 0.000000 0.070575 0.000000
# 6 0.000000 0.000000 0.000000 0.000000 0.000000 0.032561
#
#
# Mechanical properties :
#
#
# Convention : Reuss Voigt Hill
#
# Bulk Modulus (GPa) = 51.41429 63.41152 57.41291
# Shear Modulus (GPa) = 23.65517 27.56560 25.61038
#
# Velocity S-wave (km/s) = 3.56135 3.84446 3.70561
# Velocity P-wave (km/s) = 6.66916 7.32842 7.00655
#
# Compressibility (1/GPa) = 0.01944985
#
# Stress axis : x y z
#
# Youngs Moduli (GPa) = 98.12593 50.94196 107.10823
#
# Poissons Ratio (x) = 0.12336 0.37148
# Poissons Ratio (y) = 0.23762 0.42458
# Poissons Ratio (z) = 0.34033 0.20193
#
# Static dielectric constant tensor:
#      x y z
#    x 3.380560 0.000000 0.000000 
#    y 0.000000 3.412220 0.000000 
#    z 0.000000 0.000000 3.740950 
# 
# 
# High freq. dielectric constant tensor:
#      x y z
#    x 1.720640 0.000000 0.000000 
#    y 0.000000 1.725970 0.000000 
#    z 0.000000 0.000000 1.729210 
# 
# From -- ./inp_files/63605.got.cif
#   From: 2010.03.12/outbox.cif.g09.slc.cpg/sg74_32_cif.got.tgz:63605.got - 2010.04.16 15:46:19.
