data_PCOD8298819
_publ_section_title
;
Structure prediction by ZEFSAII (Michael W. Deem and Ramdas Pophale) SiO2 
 PCOD8298819
Probable space group: I M M A
;
_chemical_formula_sum "Si O2"
_cell_formula_units_Z 96
_cell_length_a 8.856857
_cell_length_b 28.408642
_cell_length_c 26.416318
_cell_angle_alpha 90.000000
_cell_angle_beta 90.000000
_cell_angle_gamma 90.000000
_cell_volume 6646.643578
_symmetry_space_group_name_H-M "I M M A"
_symmetry_group_IT_number 74
_symmetry_cell_setting 'orthorhombic'
loop_
_space_group_symop_operation_xyz
x,y,z
-x,1/2-y,z
x,-y,-z
-x,1/2+y,-z
-x,-y,-z
x,1/2+y,-z
-x,y,z
x,1/2-y,z
1/2+x,1/2+y,1/2+z
1/2-x,-y,1/2+z
1/2+x,1/2-y,1/2-z
1/2-x,y,1/2-z
1/2-x,1/2-y,1/2-z
1/2+x,y,1/2-z
1/2-x,1/2+y,1/2+z
1/2+x,-y,1/2+z
loop_
_atom_site_type_symbol
_atom_site_label
_atom_site_fract_x
_atom_site_fract_y
_atom_site_fract_z
Si Si1 0.174827 0.802785 0.033754
Si Si2 0.178143 0.108226 0.696970
Si Si3 0.824057 0.393556 0.510767
Si Si4 0.674107 0.303148 0.651849
Si Si5 0.332987 0.032840 0.451224
Si Si6 0.678526 0.056176 0.605328
O O1 0.215988 0.750000 0.015884
O O2 0.277167 0.839241 0.001998
O O3 0.211710 0.808303 0.092895
O O4 0.000000 0.813387 0.023227
O O5 0.250000 0.093563 0.750000
O O6 0.221629 0.161716 0.683318
O O7 0.238937 0.071170 0.656205
O O8 0.000000 0.104184 0.700376
O O9 0.781150 0.423862 0.460686
O O10 0.733063 0.411433 0.559314
O O11 0.000000 0.398326 0.521247
O O12 0.500000 0.316131 0.662016
O O13 0.708409 0.250000 0.669962
O O14 0.500000 0.053556 0.440924
O O15 0.337329 0.000000 0.500000
O O16 0.281723 0.998982 0.404916
O O17 0.500000 0.063851 0.610611
#
# Coordination Sequence:
#
# PCOD8298819 Si02
#       6
#    16  16  16  16  16  16
#     4   9  17  29  45  61  81 112 143 171 207 251
#     4  12  24  35  48  64  81 105 135 172 218 261
#     4  11  19  26  42  67  89 108 132 168 207 247
#     4   9  18  33  50  63  77 102 136 175 217 258
#     4   8  16  29  45  62  81 108 134 161 201 246
#     4  10  19  33  48  61  81 106 135 171 208 249
#
# _framework density 14.443379999999999
#
# number of rings (size 3 to 8) (size 9 to 14) (size 15 to 20)
#    0.000    2.167    1.667    5.500    0.000    4.667 
#    0.000    1.667    0.000    0.000    0.000    0.000 
#    0.000    0.000    0.000    0.000    0.000    0.833 
#
# Total GULP energy -595080.172425 kJ/mol
# GULP energy per Si atom -12397.503592 kJ/mol
# Density = 1.441051 g / cm^3
# Si number density = 14.443380 Si / 1000 Ang^3
#
#
#
# Elastic Constant Matrix: (Units=GPa)
#
#
# Indices 1 2 3 4 5 6 
#
# 1 96.6232 49.2107 34.9094 0.0000 0.0000 0.0000
# 2 49.2107 87.5367 47.4240 0.0000 0.0000 0.0000
# 3 34.9094 47.4240 52.0080 0.0000 0.0000 0.0000
# 4 0.0000 0.0000 0.0000 15.2752 0.0000 0.0000
# 5 0.0000 0.0000 0.0000 0.0000 17.9611 0.0000
# 6 0.0000 0.0000 0.0000 0.0000 0.0000 17.5347
#
#
#
# Elastic Compliance Matrix: (Units=1/GPa)
#
#
# Indices 1 2 3 4 5 6 
#
# 1 0.015066 -0.005911 -0.004723 0.000000 0.000000 0.000000
# 2 -0.005911 0.024896 -0.018734 0.000000 0.000000 0.000000
# 3 -0.004723 -0.018734 0.039481 0.000000 0.000000 0.000000
# 4 0.000000 0.000000 0.000000 0.065465 0.000000 0.000000
# 5 0.000000 0.000000 0.000000 0.000000 0.055676 0.000000
# 6 0.000000 0.000000 0.000000 0.000000 0.000000 0.057030
#
#
# Mechanical properties :
#
#
# Convention : Reuss Voigt Hill
#
# Bulk Modulus (GPa) = 48.29251 55.47288 51.88270
# Shear Modulus (GPa) = 15.46774 17.12914 16.29844
#
# Velocity S-wave (km/s) = 3.27605 3.44750 3.36287
# Velocity P-wave (km/s) = 6.91508 7.37140 7.14688
#
# Compressibility (1/GPa) = 0.02070714
#
# Stress axis : x y z
#
# Youngs Moduli (GPa) = 66.37257 40.16649 25.32882
#
# Poissons Ratio (x) = 0.23744 0.11962
# Poissons Ratio (y) = 0.39235 0.47451
# Poissons Ratio (z) = 0.31346 0.75248
#
# Static dielectric constant tensor:
#      x y z
#    x 2.804980 0.000000 0.000000 
#    y 0.000000 3.056330 0.000000 
#    z 0.000000 0.000000 2.614880 
# 
# 
# High freq. dielectric constant tensor:
#      x y z
#    x 1.559240 0.000000 0.000000 
#    y 0.000000 1.549040 0.000000 
#    z 0.000000 0.000000 1.498830 
# 
# From -- ./inp_files/57481.got.cif
#   From: 2010.03.12/outbox.cif.g09.slc.cpg/sg74_29_cif.got.tgz:57481.got - 2010.04.16 15:46:19.
