data_PCOD8298641
_publ_section_title
;
Structure prediction by ZEFSAII (Michael W. Deem and Ramdas Pophale) SiO2 
 PCOD8298641
Probable space group: I M M A
;
_chemical_formula_sum "Si O2"
_cell_formula_units_Z 104
_cell_length_a 7.879252
_cell_length_b 22.111227
_cell_length_c 33.124424
_cell_angle_alpha 90.000000
_cell_angle_beta 90.000000
_cell_angle_gamma 90.000000
_cell_volume 5770.934816
_symmetry_space_group_name_H-M "I M M A"
_symmetry_group_IT_number 74
_symmetry_cell_setting 'orthorhombic'
loop_
_space_group_symop_operation_xyz
x,y,z
-x,1/2-y,z
x,-y,-z
-x,1/2+y,-z
-x,-y,-z
x,1/2+y,-z
-x,y,z
x,1/2-y,z
1/2+x,1/2+y,1/2+z
1/2-x,-y,1/2+z
1/2+x,1/2-y,1/2-z
1/2-x,y,1/2-z
1/2-x,1/2-y,1/2-z
1/2+x,y,1/2-z
1/2-x,1/2+y,1/2+z
1/2+x,-y,1/2+z
loop_
_atom_site_type_symbol
_atom_site_label
_atom_site_fract_x
_atom_site_fract_y
_atom_site_fract_z
Si Si1 0.809075 0.860967 0.848668
Si Si2 0.000000 0.821574 0.074201
Si Si3 0.000000 0.821956 0.984080
Si Si4 0.195905 0.821034 0.369067
Si Si5 0.801230 0.750000 0.703892
Si Si6 0.699967 0.466192 0.205952
Si Si7 0.688511 0.820190 0.930661
Si Si8 0.801506 0.898324 0.293382
O O1 0.772009 0.809954 0.815966
O O2 0.784753 0.926134 0.828593
O O3 0.692802 0.855337 0.888234
O O4 0.000000 0.853871 0.864162
O O5 0.174086 0.842732 0.096132
O O6 0.000000 0.750000 0.071872
O O7 0.000000 0.849494 0.029219
O O8 0.829768 0.845281 0.961662
O O9 0.000000 0.750000 0.986199
O O10 0.211605 0.750000 0.361037
O O11 0.260897 0.853937 0.328543
O O12 0.000000 0.837897 0.380533
O O13 0.750000 0.750000 0.750000
O O14 0.000000 0.750000 0.698107
O O15 0.500000 0.463097 0.200251
O O16 0.750000 0.440793 0.250000
O O17 0.774905 0.534192 0.201114
O O18 0.500000 0.829291 0.949473
O O19 0.724438 0.750000 0.921228
O O20 0.750000 0.870831 0.250000
O O21 0.000000 0.904258 0.295403
#
# Coordination Sequence:
#
# PCOD8298641 Si02
#       8
#    16   8   8  16   8  16  16  16
#     4  12  22  34  50  70  98 133 172 221 271 314
#     4   9  18  32  52  79 109 145 175 209 259 315
#     4   9  18  32  50  75 107 135 173 214 260 322
#     4   9  18  33  52  79 113 143 175 211 255 309
#     4  12  24  36  48  68  94 134 178 215 273 326
#     4  10  20  35  50  69  98 133 178 224 263 306
#     4  10  19  32  50  74 101 133 169 213 268 319
#     4   9  19  33  51  75 104 140 179 219 258 299
#
# _framework density 18.021343999999999
#
# number of rings (size 3 to 8) (size 9 to 14) (size 15 to 20)
#    0.000    2.000    1.538    3.000    1.077    1.538 
#    0.000    3.077    0.000    0.000    0.000    2.154 
#    0.000    4.923    0.000    0.000    0.000    0.000 
#
# Total GULP energy -644754.694554 kJ/mol
# GULP energy per Si atom -12399.128741 kJ/mol
# Density = 1.798033 g / cm^3
# Si number density = 18.021344 Si / 1000 Ang^3
#
#
#
# Elastic Constant Matrix: (Units=GPa)
#
#
# Indices 1 2 3 4 5 6 
#
# 1 107.8196 21.2203 52.6554 0.0000 0.0000 0.0000
# 2 21.2203 45.5087 39.6781 0.0000 0.0000 0.0000
# 3 52.6554 39.6781 146.9340 0.0000 0.0000 0.0000
# 4 0.0000 0.0000 0.0000 16.9658 0.0000 0.0000
# 5 0.0000 0.0000 0.0000 0.0000 28.4236 0.0000
# 6 0.0000 0.0000 0.0000 0.0000 0.0000 9.7539
#
#
#
# Elastic Compliance Matrix: (Units=1/GPa)
#
#
# Indices 1 2 3 4 5 6 
#
# 1 0.011423 -0.002299 -0.003473 0.000000 0.000000 0.000000
# 2 -0.002299 0.029203 -0.007062 0.000000 0.000000 0.000000
# 3 -0.003473 -0.007062 0.009957 0.000000 0.000000 0.000000
# 4 0.000000 0.000000 0.000000 0.058942 0.000000 0.000000
# 5 0.000000 0.000000 0.000000 0.000000 0.035182 0.000000
# 6 0.000000 0.000000 0.000000 0.000000 0.000000 0.102523
#
#
# Mechanical properties :
#
#
# Convention : Reuss Voigt Hill
#
# Bulk Modulus (GPa) = 40.13460 58.59667 49.36564
# Shear Modulus (GPa) = 17.78069 23.47588 20.62829
#
# Velocity S-wave (km/s) = 3.14450 3.61317 3.38695
# Velocity P-wave (km/s) = 5.95842 7.07053 6.53816
#
# Compressibility (1/GPa) = 0.02491616
#
# Stress axis : x y z
#
# Youngs Moduli (GPa) = 87.54119 34.24296 100.42740
#
# Poissons Ratio (x) = 0.07871 0.34878
# Poissons Ratio (y) = 0.20122 0.70925
# Poissons Ratio (z) = 0.30402 0.24183
#
# Static dielectric constant tensor:
#      x y z
#    x 3.507740 0.000000 0.000000 
#    y 0.000000 3.237000 0.000000 
#    z 0.000000 0.000000 3.234490 
# 
# 
# High freq. dielectric constant tensor:
#      x y z
#    x 1.715010 0.000000 0.000000 
#    y 0.000000 1.660560 0.000000 
#    z 0.000000 0.000000 1.688420 
# 
# From -- ./inp_files/70848.got.cif
#   From: 2010.03.12/outbox.cif.g09.slc.cpg/sg74_36_cif.got.tgz:70848.got - 2010.04.16 15:46:19.
