data_PCOD8298959
_publ_section_title
;
Structure prediction by ZEFSAII (Michael W. Deem and Ramdas Pophale) SiO2 
 PCOD8298959
Probable space group: I M M A
;
_chemical_formula_sum "Si O2"
_cell_formula_units_Z 96
_cell_length_a 27.545750
_cell_length_b 8.717508
_cell_length_c 20.492620
_cell_angle_alpha 90.000000
_cell_angle_beta 90.000000
_cell_angle_gamma 90.000000
_cell_volume 4920.898906
_symmetry_space_group_name_H-M "I M M A"
_symmetry_group_IT_number 74
_symmetry_cell_setting 'orthorhombic'
loop_
_space_group_symop_operation_xyz
x,y,z
-x,1/2-y,z
x,-y,-z
-x,1/2+y,-z
-x,-y,-z
x,1/2+y,-z
-x,y,z
x,1/2-y,z
1/2+x,1/2+y,1/2+z
1/2-x,-y,1/2+z
1/2+x,1/2-y,1/2-z
1/2-x,y,1/2-z
1/2-x,1/2-y,1/2-z
1/2+x,y,1/2-z
1/2-x,1/2+y,1/2+z
1/2+x,-y,1/2+z
loop_
_atom_site_type_symbol
_atom_site_label
_atom_site_fract_x
_atom_site_fract_y
_atom_site_fract_z
Si Si1 0.610062 0.430142 0.687563
Si Si2 0.945027 0.430631 0.068418
Si Si3 0.225025 0.929335 0.567348
Si Si4 0.878451 0.432236 0.568743
Si Si5 0.212967 0.427853 0.193398
Si Si6 0.945578 0.567589 0.314790
O O1 0.603442 0.250000 0.678305
O O2 0.591782 0.513544 0.623105
O O3 0.665871 0.468068 0.700977
O O4 0.578912 0.492478 0.748458
O O5 0.941896 0.250000 0.062849
O O6 0.000000 0.484950 0.084784
O O7 0.927639 0.500000 0.000000
O O8 0.215066 0.750000 0.557672
O O9 0.263980 0.961990 0.623126
O O10 0.245404 0.000000 0.500000
O O11 0.174851 0.009138 0.587424
O O12 0.896085 0.500000 0.500000
O O13 0.877703 0.250000 0.564802
O O14 0.915413 0.493720 0.623440
O O15 0.198575 0.250000 0.200626
O O16 0.250000 0.476920 0.250000
O O17 0.945963 0.750000 0.315144
O O18 0.000000 0.501081 0.318917
#
# Coordination Sequence:
#
# PCOD8298959 Si02
#       6
#    16  16  16  16  16  16
#     4  11  22  36  58  84 111 145 184 229 277 330
#     4  10  21  38  60  85 114 148 185 226 273 327
#     4  10  20  35  56  79 106 140 175 217 267 320
#     4  10  19  33  55  80 108 142 179 222 268 318
#     4  10  22  39  57  78 108 145 184 230 280 328
#     4   9  19  35  54  78 109 144 181 221 267 319
#
# _framework density 19.50863
#
# number of rings (size 3 to 8) (size 9 to 14) (size 15 to 20)
#    0.000    2.000    0.000    4.500    0.000    4.333 
#    0.000    4.167    0.000    5.500    0.000    0.000 
#    0.000    0.000    0.000    0.000    0.000    0.000 
#
# Total GULP energy -595389.683794 kJ/mol
# GULP energy per Si atom -12403.951746 kJ/mol
# Density = 1.946423 g / cm^3
# Si number density = 19.508630 Si / 1000 Ang^3
#
#
#
# Elastic Constant Matrix: (Units=GPa)
#
#
# Indices 1 2 3 4 5 6 
#
# 1 89.5873 21.5846 45.3165 0.0000 0.0000 0.0000
# 2 21.5846 65.0893 30.3476 0.0000 0.0000 0.0000
# 3 45.3165 30.3476 109.4888 0.0000 0.0000 0.0000
# 4 0.0000 0.0000 0.0000 26.8778 0.0000 0.0000
# 5 0.0000 0.0000 0.0000 0.0000 38.6203 0.0000
# 6 0.0000 0.0000 0.0000 0.0000 0.0000 27.9213
#
#
#
# Elastic Compliance Matrix: (Units=1/GPa)
#
#
# Indices 1 2 3 4 5 6 
#
# 1 0.014410 -0.002294 -0.005328 0.000000 0.000000 0.000000
# 2 -0.002294 0.018009 -0.004042 0.000000 0.000000 0.000000
# 3 -0.005328 -0.004042 0.012459 0.000000 0.000000 0.000000
# 4 0.000000 0.000000 0.000000 0.037205 0.000000 0.000000
# 5 0.000000 0.000000 0.000000 0.000000 0.025893 0.000000
# 6 0.000000 0.000000 0.000000 0.000000 0.000000 0.035815
#
#
# Mechanical properties :
#
#
# Convention : Reuss Voigt Hill
#
# Bulk Modulus (GPa) = 46.40619 50.96253 48.68436
# Shear Modulus (GPa) = 28.68546 29.81166 29.24856
#
# Velocity S-wave (km/s) = 3.83874 3.91337 3.87623
# Velocity P-wave (km/s) = 6.59447 6.82635 6.71141
#
# Compressibility (1/GPa) = 0.02154885
#
# Stress axis : x y z
#
# Youngs Moduli (GPa) = 69.39440 55.52809 80.26278
#
# Poissons Ratio (x) = 0.12740 0.42767
# Poissons Ratio (y) = 0.15921 0.32442
# Poissons Ratio (z) = 0.36976 0.22444
#
# Static dielectric constant tensor:
#      x y z
#    x 3.581320 0.000000 0.000000 
#    y 0.000000 3.431770 0.000000 
#    z 0.000000 0.000000 3.733060 
# 
# 
# High freq. dielectric constant tensor:
#      x y z
#    x 1.759520 0.000000 0.000000 
#    y 0.000000 1.752290 0.000000 
#    z 0.000000 0.000000 1.776260 
# 
# From -- ./inp_files/49154.got.cif
#   From: 2010.03.12/outbox.cif.g09.slc.cpg/sg74_25_cif.got.tgz:49154.got - 2010.04.16 15:46:19.
