data_PCOD8298823
_publ_section_title
;
Structure prediction by ZEFSAII (Michael W. Deem and Ramdas Pophale) SiO2 
 PCOD8298823
Probable space group: I M M A
;
_chemical_formula_sum "Si O2"
_cell_formula_units_Z 80
_cell_length_a 28.471571
_cell_length_b 8.695881
_cell_length_c 20.155747
_cell_angle_alpha 90.000000
_cell_angle_beta 90.000000
_cell_angle_gamma 90.000000
_cell_volume 4990.268548
_symmetry_space_group_name_H-M "I M M A"
_symmetry_group_IT_number 74
_symmetry_cell_setting 'orthorhombic'
loop_
_space_group_symop_operation_xyz
x,y,z
-x,1/2-y,z
x,-y,-z
-x,1/2+y,-z
-x,-y,-z
x,1/2+y,-z
-x,y,z
x,1/2-y,z
1/2+x,1/2+y,1/2+z
1/2-x,-y,1/2+z
1/2+x,1/2-y,1/2-z
1/2-x,y,1/2-z
1/2-x,1/2-y,1/2-z
1/2+x,y,1/2-z
1/2-x,1/2+y,1/2+z
1/2+x,-y,1/2+z
loop_
_atom_site_type_symbol
_atom_site_label
_atom_site_fract_x
_atom_site_fract_y
_atom_site_fract_z
Si Si1 0.053223 0.430696 0.755470
Si Si2 0.300802 0.930707 0.430286
Si Si3 0.870609 0.075997 0.319205
Si Si4 0.867625 0.576528 0.826643
Si Si5 0.200790 0.433125 0.429340
O O1 0.055138 0.250000 0.766035
O O2 0.081184 0.476894 0.687560
O O3 0.078882 0.512877 0.818328
O O4 0.000000 0.490753 0.750677
O O5 0.293840 0.750000 0.438175
O O6 0.318025 0.000000 0.500000
O O7 0.339415 0.965715 0.375096
O O8 0.251698 0.005526 0.408424
O O9 0.884627 0.250000 0.337987
O O10 0.844236 0.072733 0.247226
O O11 0.836432 0.006462 0.374991
O O12 0.868461 0.750000 0.855171
O O13 0.185023 0.500000 0.500000
O O14 0.202696 0.250000 0.432109
#
# Coordination Sequence:
#
# PCOD8298823 Si02
#       5
#    16  16  16  16  16
#     4   9  17  30  50  75  99 122 154 198 244 288
#     4  11  21  33  49  71  98 132 165 197 236 284
#     4   8  18  32  49  71  97 128 161 197 239 284
#     4   9  18  33  50  72  97 127 161 199 238 282
#     4  10  19  33  49  70  98 132 166 198 237 284
#
# _framework density 16.031202
#
# number of rings (size 3 to 8) (size 9 to 14) (size 15 to 20)
#    1.200    1.400    0.000    4.200    0.000    4.000 
#    0.000    4.000    0.000    1.200    0.000    0.000 
#    0.000    0.000    0.000    0.000    0.000    0.000 
#
# Total GULP energy -495627.214032 kJ/mol
# GULP energy per Si atom -12390.680351 kJ/mol
# Density = 1.599471 g / cm^3
# Si number density = 16.031202 Si / 1000 Ang^3
#
#
#
# Elastic Constant Matrix: (Units=GPa)
#
#
# Indices 1 2 3 4 5 6 
#
# 1 113.5733 34.7433 63.6021 0.0000 0.0000 0.0000
# 2 34.7433 80.6838 28.6466 0.0000 0.0000 0.0000
# 3 63.6021 28.6466 75.0784 0.0000 0.0000 0.0000
# 4 0.0000 0.0000 0.0000 25.9597 0.0000 0.0000
# 5 0.0000 0.0000 0.0000 0.0000 6.2532 0.0000
# 6 0.0000 0.0000 0.0000 0.0000 0.0000 26.7859
#
#
#
# Elastic Compliance Matrix: (Units=1/GPa)
#
#
# Indices 1 2 3 4 5 6 
#
# 1 0.017206 -0.002584 -0.013590 0.000000 0.000000 0.000000
# 2 -0.002584 0.014724 -0.003429 0.000000 0.000000 0.000000
# 3 -0.013590 -0.003429 0.026140 0.000000 0.000000 0.000000
# 4 0.000000 0.000000 0.000000 0.038521 0.000000 0.000000
# 5 0.000000 0.000000 0.000000 0.000000 0.159918 0.000000
# 6 0.000000 0.000000 0.000000 0.000000 0.000000 0.037333
#
#
# Mechanical properties :
#
#
# Convention : Reuss Voigt Hill
#
# Bulk Modulus (GPa) = 53.00955 58.14661 55.57808
# Shear Modulus (GPa) = 14.73464 21.28934 18.01199
#
# Velocity S-wave (km/s) = 3.03499 3.64812 3.35559
# Velocity P-wave (km/s) = 6.73942 7.35491 7.05388
#
# Compressibility (1/GPa) = 0.01886452
#
# Stress axis : x y z
#
# Youngs Moduli (GPa) = 58.12004 67.91516 38.25504
#
# Poissons Ratio (x) = 0.17549 0.51988
# Poissons Ratio (y) = 0.15018 0.13118
# Poissons Ratio (z) = 0.78984 0.23289
#
# Static dielectric constant tensor:
#      x y z
#    x 2.943000 0.000000 0.000000 
#    y 0.000000 3.046750 0.000000 
#    z 0.000000 0.000000 2.919620 
# 
# 
# High freq. dielectric constant tensor:
#      x y z
#    x 1.598240 0.000000 0.000000 
#    y 0.000000 1.630860 0.000000 
#    z 0.000000 0.000000 1.597210 
# 
# From -- ./inp_files/39973.got.cif
#   From: 2010.03.12/outbox.cif.g09.slc.cpg/sg74_20_cif.got.tgz:39973.got - 2010.04.16 15:46:19.
