data_PCOD8298121
_publ_section_title
;
Structure prediction by ZEFSAII (Michael W. Deem and Ramdas Pophale) SiO2 
 PCOD8298121
Probable space group: I M M A
;
_chemical_formula_sum "Si O2"
_cell_formula_units_Z 92
_cell_length_a 22.812807
_cell_length_b 22.392513
_cell_length_c 9.662552
_cell_angle_alpha 90.000000
_cell_angle_beta 90.000000
_cell_angle_gamma 90.000000
_cell_volume 4935.980161
_symmetry_space_group_name_H-M "I M M A"
_symmetry_group_IT_number 74
_symmetry_cell_setting 'orthorhombic'
loop_
_space_group_symop_operation_xyz
x,y,z
-x,1/2-y,z
x,-y,-z
-x,1/2+y,-z
-x,-y,-z
x,1/2+y,-z
-x,y,z
x,1/2-y,z
1/2+x,1/2+y,1/2+z
1/2-x,-y,1/2+z
1/2+x,1/2-y,1/2-z
1/2-x,y,1/2-z
1/2-x,1/2-y,1/2-z
1/2+x,y,1/2-z
1/2-x,1/2+y,1/2+z
1/2+x,-y,1/2+z
loop_
_atom_site_type_symbol
_atom_site_label
_atom_site_fract_x
_atom_site_fract_y
_atom_site_fract_z
Si Si1 0.117972 0.627155 0.508526
Si Si2 0.500000 0.250000 0.257512
Si Si3 0.000000 0.881073 0.874345
Si Si4 0.933803 0.750000 0.494050
Si Si5 0.317044 0.059046 0.780297
Si Si6 0.183873 0.078466 0.249183
Si Si7 0.000000 0.434824 0.432790
Si Si8 0.110935 0.432521 0.988433
O O1 0.106194 0.693735 0.453496
O O2 0.166201 0.594597 0.416790
O O3 0.143058 0.623888 0.664641
O O4 0.055977 0.595272 0.501058
O O5 0.500000 0.310706 0.344089
O O6 0.442172 0.250000 0.160585
O O7 0.000000 0.924222 0.735956
O O8 0.056215 0.891505 0.971320
O O9 0.000000 0.750000 0.425528
O O10 0.250000 0.076012 0.750000
O O11 0.362672 0.080634 0.662637
O O12 0.322392 0.988481 0.810156
O O13 0.250000 0.101658 0.250000
O O14 0.164784 0.078825 0.090748
O O15 0.000000 0.500000 0.500000
O O16 0.088068 0.500000 0.000000
#
# Coordination Sequence:
#
# PCOD8298121 Si02
#       8
#    16   4   8   8  16  16   8  16
#     4  12  21  38  62  86 117 158 210 245 299 361
#     4  10  18  40  60  78 118 156 194 246 288 342
#     4  12  21  39  57  88 121 153 196 241 308 359
#     4  10  20  40  57  84 115 158 196 260 304 335
#     4  10  22  38  58  88 126 159 191 241 303 360
#     4  10  19  35  60  89 118 156 199 243 297 359
#     4  12  22  32  61  94 119 141 197 254 305 369
#     4  10  21  35  54  85 124 154 182 241 304 353
#
# _framework density 18.638649000000001
#
# number of rings (size 3 to 8) (size 9 to 14) (size 15 to 20)
#    0.261    1.043    4.348    2.870    2.435    3.478 
#    0.000    1.739    0.000    2.087    0.000    0.000 
#    0.000    0.000    0.000    0.000    0.000    0.000 
#
# Total GULP energy -570231.227004 kJ/mol
# GULP energy per Si atom -12396.331022 kJ/mol
# Density = 1.859623 g / cm^3
# Si number density = 18.638649 Si / 1000 Ang^3
#
#
#
# Elastic Constant Matrix: (Units=GPa)
#
#
# Indices 1 2 3 4 5 6 
#
# 1 110.2315 33.4235 10.0476 0.0000 0.0000 0.0000
# 2 33.4235 66.2797 11.7295 0.0000 0.0000 0.0000
# 3 10.0476 11.7295 48.3428 0.0000 0.0000 0.0000
# 4 0.0000 0.0000 0.0000 18.1232 0.0000 0.0000
# 5 0.0000 0.0000 0.0000 0.0000 31.6111 0.0000
# 6 0.0000 0.0000 0.0000 0.0000 0.0000 24.9648
#
#
#
# Elastic Compliance Matrix: (Units=1/GPa)
#
#
# Indices 1 2 3 4 5 6 
#
# 1 0.010752 -0.005252 -0.000960 0.000000 0.000000 0.000000
# 2 -0.005252 0.018330 -0.003356 0.000000 0.000000 0.000000
# 3 -0.000960 -0.003356 0.021699 0.000000 0.000000 0.000000
# 4 0.000000 0.000000 0.000000 0.055178 0.000000 0.000000
# 5 0.000000 0.000000 0.000000 0.000000 0.031634 0.000000
# 6 0.000000 0.000000 0.000000 0.000000 0.000000 0.040056
#
#
# Mechanical properties :
#
#
# Convention : Reuss Voigt Hill
#
# Bulk Modulus (GPa) = 31.60079 37.25059 34.42569
# Shear Modulus (GPa) = 24.11562 26.25004 25.18283
#
# Velocity S-wave (km/s) = 3.60091 3.75689 3.67973
# Velocity P-wave (km/s) = 5.85492 6.23282 6.04682
#
# Compressibility (1/GPa) = 0.03164478
#
# Stress axis : x y z
#
# Youngs Moduli (GPa) = 93.00756 54.55565 46.08414
#
# Poissons Ratio (x) = 0.28652 0.04426
# Poissons Ratio (y) = 0.48847 0.15465
# Poissons Ratio (z) = 0.08932 0.18308
#
# Static dielectric constant tensor:
#      x y z
#    x 3.414760 0.000000 0.000000 
#    y 0.000000 3.309600 0.000000 
#    z 0.000000 0.000000 3.348060 
# 
# 
# High freq. dielectric constant tensor:
#      x y z
#    x 1.737810 0.000000 0.000000 
#    y 0.000000 1.695450 0.000000 
#    z 0.000000 0.000000 1.714660 
# 
# From -- ./inp_files/14020.got.cif
#   From: 2010.03.12/outbox.cif.g09.slc.cpg/sg74_8_cif.got.tgz:14020.got - 2010.04.16 15:46:19.
