data_PCOD8298361
_publ_section_title
;
Structure prediction by ZEFSAII (Michael W. Deem and Ramdas Pophale) SiO2 
 PCOD8298361
Probable space group: I M M A
;
_chemical_formula_sum "Si O2"
_cell_formula_units_Z 80
_cell_length_a 24.771092
_cell_length_b 8.939092
_cell_length_c 20.462644
_cell_angle_alpha 90.000000
_cell_angle_beta 90.000000
_cell_angle_gamma 90.000000
_cell_volume 4531.065163
_symmetry_space_group_name_H-M "I M M A"
_symmetry_group_IT_number 74
_symmetry_cell_setting 'orthorhombic'
loop_
_space_group_symop_operation_xyz
x,y,z
-x,1/2-y,z
x,-y,-z
-x,1/2+y,-z
-x,-y,-z
x,1/2+y,-z
-x,y,z
x,1/2-y,z
1/2+x,1/2+y,1/2+z
1/2-x,-y,1/2+z
1/2+x,1/2-y,1/2-z
1/2-x,y,1/2-z
1/2-x,1/2-y,1/2-z
1/2+x,y,1/2-z
1/2-x,1/2+y,1/2+z
1/2+x,-y,1/2+z
loop_
_atom_site_type_symbol
_atom_site_label
_atom_site_fract_x
_atom_site_fract_y
_atom_site_fract_z
Si Si1 0.285943 0.424831 0.310562
Si Si2 0.108594 0.573913 0.380397
Si Si3 0.607864 0.924984 0.271513
Si Si4 0.286182 0.925978 0.934380
Si Si5 0.500000 0.581643 0.726404
Si Si6 0.000000 0.919554 0.618194
O O1 0.298323 0.250000 0.302956
O O2 0.250000 0.482068 0.250000
O O3 0.342085 0.512384 0.312439
O O4 0.255277 0.464162 0.376944
O O5 0.108709 0.750000 0.392824
O O6 0.116422 0.534218 0.304323
O O7 0.156011 0.497699 0.420479
O O8 0.052707 0.506128 0.407557
O O9 0.602871 0.750000 0.282562
O O10 0.553379 0.998820 0.299664
O O11 0.293580 0.750000 0.943296
O O12 0.262417 0.000000 0.000000
O O13 0.500000 0.750000 0.699326
O O14 0.500000 0.577672 0.804078
O O15 0.000000 0.750000 0.591593
#
# Coordination Sequence:
#
# PCOD8298361 Si02
#       6
#    16  16  16  16   8   8
#     4  10  20  35  55  78 105 138 178 218 261 314
#     4  10  19  32  50  74 104 137 175 218 264 310
#     4  10  19  30  50  79 109 137 172 219 264 307
#     4  11  23  38  55  75 104 140 177 219 264 315
#     4   9  17  29  47  72 107 142 173 210 259 315
#     4   9  17  29  48  72  99 136 178 218 260 305
#
# _framework density 17.655892999999999
#
# number of rings (size 3 to 8) (size 9 to 14) (size 15 to 20)
#    0.000    2.000    2.000    2.400    0.000    6.000 
#    0.000    0.500    0.000    0.000    0.000    0.700 
#    0.000    0.000    0.000    0.000    0.000    0.000 
#
# Total GULP energy -496155.277166 kJ/mol
# GULP energy per Si atom -12403.881929 kJ/mol
# Density = 1.761571 g / cm^3
# Si number density = 17.655893 Si / 1000 Ang^3
#
#
#
# Elastic Constant Matrix: (Units=GPa)
#
#
# Indices 1 2 3 4 5 6 
#
# 1 141.0013 64.1178 50.4462 0.0000 0.0000 0.0000
# 2 64.1178 98.7314 48.3620 0.0000 0.0000 0.0000
# 3 50.4462 48.3620 76.5675 0.0000 0.0000 0.0000
# 4 0.0000 0.0000 0.0000 23.4276 0.0000 0.0000
# 5 0.0000 0.0000 0.0000 0.0000 22.1094 0.0000
# 6 0.0000 0.0000 0.0000 0.0000 0.0000 34.8133
#
#
#
# Elastic Compliance Matrix: (Units=1/GPa)
#
#
# Indices 1 2 3 4 5 6 
#
# 1 0.010810 -0.005114 -0.003892 0.000000 0.000000 0.000000
# 2 -0.005114 0.017085 -0.007422 0.000000 0.000000 0.000000
# 3 -0.003892 -0.007422 0.020313 0.000000 0.000000 0.000000
# 4 0.000000 0.000000 0.000000 0.042685 0.000000 0.000000
# 5 0.000000 0.000000 0.000000 0.000000 0.045230 0.000000
# 6 0.000000 0.000000 0.000000 0.000000 0.000000 0.028725
#
#
# Mechanical properties :
#
#
# Convention : Reuss Voigt Hill
#
# Bulk Modulus (GPa) = 65.13957 71.35023 68.24490
# Shear Modulus (GPa) = 24.65237 26.29501 25.47369
#
# Velocity S-wave (km/s) = 3.74072 3.86334 3.80252
# Velocity P-wave (km/s) = 7.45864 7.77173 7.61680
#
# Compressibility (1/GPa) = 0.01535165
#
# Stress axis : x y z
#
# Youngs Moduli (GPa) = 92.50703 58.53070 49.23004
#
# Poissons Ratio (x) = 0.29931 0.19161
# Poissons Ratio (y) = 0.47305 0.36540
# Poissons Ratio (z) = 0.36006 0.43443
#
# Static dielectric constant tensor:
#      x y z
#    x 3.352990 0.000000 0.000000 
#    y 0.000000 3.355630 0.000000 
#    z 0.000000 0.000000 2.992420 
# 
# 
# High freq. dielectric constant tensor:
#      x y z
#    x 1.690460 0.000000 0.000000 
#    y 0.000000 1.697400 0.000000 
#    z 0.000000 0.000000 1.637680 
# 
# From -- ./inp_files/48598.got.cif
#   From: 2010.03.12/outbox.cif.g09.slc.cpg/sg74_25_cif.got.tgz:48598.got - 2010.04.16 15:46:19.
