data_PCOD8298194
_publ_section_title
;
Structure prediction by ZEFSAII (Michael W. Deem and Ramdas Pophale) SiO2 
 PCOD8298194
Probable space group: I M M A
;
_chemical_formula_sum "Si O2"
_cell_formula_units_Z 80
_cell_length_a 8.993866
_cell_length_b 23.658346
_cell_length_c 24.300048
_cell_angle_alpha 90.000000
_cell_angle_beta 90.000000
_cell_angle_gamma 90.000000
_cell_volume 5170.564060
_symmetry_space_group_name_H-M "I M M A"
_symmetry_group_IT_number 74
_symmetry_cell_setting 'orthorhombic'
loop_
_space_group_symop_operation_xyz
x,y,z
-x,1/2-y,z
x,-y,-z
-x,1/2+y,-z
-x,-y,-z
x,1/2+y,-z
-x,y,z
x,1/2-y,z
1/2+x,1/2+y,1/2+z
1/2-x,-y,1/2+z
1/2+x,1/2-y,1/2-z
1/2-x,y,1/2-z
1/2-x,1/2-y,1/2-z
1/2+x,y,1/2-z
1/2-x,1/2+y,1/2+z
1/2+x,-y,1/2+z
loop_
_atom_site_type_symbol
_atom_site_label
_atom_site_fract_x
_atom_site_fract_y
_atom_site_fract_z
Si Si1 0.323852 0.477096 0.413534
Si Si2 0.173102 0.314076 0.909651
Si Si3 0.674328 0.504627 0.194056
Si Si4 0.175230 0.415652 0.981303
Si Si5 0.674340 0.635381 0.194146
O O1 0.500000 0.477068 0.402716
O O2 0.239775 0.467841 0.356056
O O3 0.266692 0.536024 0.439906
O O4 0.273081 0.427222 0.455799
O O5 0.202428 0.250000 0.928576
O O6 0.264964 0.326693 0.855086
O O7 0.000000 0.325095 0.896801
O O8 0.228662 0.354485 0.959543
O O9 0.500000 0.494613 0.198793
O O10 0.750000 0.482989 0.250000
O O11 0.715461 0.570079 0.183645
O O12 0.000000 0.420824 0.981452
O O13 0.500000 0.644689 0.199613
O O14 0.750000 0.657099 0.250000
#
# Coordination Sequence:
#
# PCOD8298194 Si02
#       5
#    16  16  16  16  16
#     4   9  15  27  47  64  84 113 141 174 210 256
#     4  10  19  31  47  64  84 111 146 185 216 249
#     4  10  19  29  43  65  89 114 143 177 216 256
#     4   8  15  27  44  65  85 110 143 173 213 257
#     4  10  20  32  45  60  82 113 148 186 221 254
#
# _framework density 15.472200000000001
#
# number of rings (size 3 to 8) (size 9 to 14) (size 15 to 20)
#    0.000    2.600    2.000    2.400    0.000    2.400 
#    0.000    3.000    0.000    0.000    0.000    0.000 
#    0.000    0.800    0.000    1.400    0.000    2.000 
#
# Total GULP energy -495881.171184 kJ/mol
# GULP energy per Si atom -12397.029280 kJ/mol
# Density = 1.543698 g / cm^3
# Si number density = 15.472200 Si / 1000 Ang^3
#
#
#
# Elastic Constant Matrix: (Units=GPa)
#
#
# Indices 1 2 3 4 5 6 
#
# 1 52.8980 26.1519 44.9702 0.0000 0.0000 0.0000
# 2 26.1519 72.1202 59.9624 0.0000 0.0000 0.0000
# 3 44.9702 59.9624 139.4282 0.0000 0.0000 0.0000
# 4 0.0000 0.0000 0.0000 22.2921 0.0000 0.0000
# 5 0.0000 0.0000 0.0000 0.0000 26.4995 0.0000
# 6 0.0000 0.0000 0.0000 0.0000 0.0000 11.0608
#
#
#
# Elastic Compliance Matrix: (Units=1/GPa)
#
#
# Indices 1 2 3 4 5 6 
#
# 1 0.026744 -0.003932 -0.006935 0.000000 0.000000 0.000000
# 2 -0.003932 0.022161 -0.008262 0.000000 0.000000 0.000000
# 3 -0.006935 -0.008262 0.012962 0.000000 0.000000 0.000000
# 4 0.000000 0.000000 0.000000 0.044859 0.000000 0.000000
# 5 0.000000 0.000000 0.000000 0.000000 0.037737 0.000000
# 6 0.000000 0.000000 0.000000 0.000000 0.000000 0.090409
#
#
# Mechanical properties :
#
#
# Convention : Reuss Voigt Hill
#
# Bulk Modulus (GPa) = 42.35727 58.51282 50.43504
# Shear Modulus (GPa) = 17.79365 20.86128 19.32747
#
# Velocity S-wave (km/s) = 3.39490 3.67591 3.53820
# Velocity P-wave (km/s) = 6.54240 7.47774 7.02565
#
# Compressibility (1/GPa) = 0.02360870
#
# Stress axis : x y z
#
# Youngs Moduli (GPa) = 37.39206 45.12421 77.14776
#
# Poissons Ratio (x) = 0.17743 0.53500
# Poissons Ratio (y) = 0.14702 0.63742
# Poissons Ratio (z) = 0.25930 0.37283
#
# Static dielectric constant tensor:
#      x y z
#    x 2.775400 0.000000 0.000000 
#    y 0.000000 2.864970 0.000000 
#    z 0.000000 0.000000 3.150110 
# 
# 
# High freq. dielectric constant tensor:
#      x y z
#    x 1.582660 0.000000 0.000000 
#    y 0.000000 1.550610 0.000000 
#    z 0.000000 0.000000 1.595600 
# 
# From -- ./inp_files/39949.got.cif
#   From: 2010.03.12/outbox.cif.g09.slc.cpg/sg74_20_cif.got.tgz:39949.got - 2010.04.16 15:46:19.
