data_PCOD8298350
_publ_section_title
;
Structure prediction by ZEFSAII (Michael W. Deem and Ramdas Pophale) SiO2 
 PCOD8298350
Probable space group: I M M A
;
_chemical_formula_sum "Si O2"
_cell_formula_units_Z 112
_cell_length_a 14.911069
_cell_length_b 14.400291
_cell_length_c 25.379695
_cell_angle_alpha 90.000000
_cell_angle_beta 90.000000
_cell_angle_gamma 90.000000
_cell_volume 5449.622846
_symmetry_space_group_name_H-M "I M M A"
_symmetry_group_IT_number 74
_symmetry_cell_setting 'orthorhombic'
loop_
_space_group_symop_operation_xyz
x,y,z
-x,1/2-y,z
x,-y,-z
-x,1/2+y,-z
-x,-y,-z
x,1/2+y,-z
-x,y,z
x,1/2-y,z
1/2+x,1/2+y,1/2+z
1/2-x,-y,1/2+z
1/2+x,1/2-y,1/2-z
1/2-x,y,1/2-z
1/2-x,1/2-y,1/2-z
1/2+x,y,1/2-z
1/2-x,1/2+y,1/2+z
1/2+x,-y,1/2+z
loop_
_atom_site_type_symbol
_atom_site_label
_atom_site_fract_x
_atom_site_fract_y
_atom_site_fract_z
Si Si1 0.789520 0.646122 0.520171
Si Si2 0.606249 0.357249 0.121427
Si Si3 0.165330 0.537062 0.335739
Si Si4 0.600866 0.353639 0.743311
Si Si5 0.598324 0.394092 0.514889
Si Si6 0.597923 0.144473 0.926254
Si Si7 0.164165 0.356957 0.869831
O O1 0.827307 0.750000 0.519701
O O2 0.835292 0.603508 0.572071
O O3 0.680843 0.647914 0.518950
O O4 0.829039 0.599451 0.466927
O O5 0.500000 0.368690 0.111424
O O6 0.628776 0.250000 0.136194
O O7 0.643319 0.426327 0.167084
O O8 0.162761 0.575034 0.275888
O O9 0.091002 0.585381 0.372692
O O10 0.257505 0.567683 0.363544
O O11 0.500000 0.366342 0.763254
O O12 0.636369 0.250000 0.755600
O O13 0.601197 0.371749 0.680790
O O14 0.597345 0.500000 0.500000
O O15 0.500000 0.350836 0.499888
O O16 0.610338 0.379341 0.577166
O O17 0.500000 0.141298 0.953334
O O18 0.624885 0.250000 0.911471
O O19 0.199403 0.250000 0.872690
#
# Coordination Sequence:
#
# PCOD8298350 Si02
#       7
#    16  16  16  16  16  16  16
#     4  10  20  35  53  77 109 148 192 237 284 342
#     4  10  22  39  58  82 115 156 201 244 293 354
#     4  12  21  34  56  84 118 152 196 242 290 344
#     4  10  21  36  56  86 121 157 196 237 288 352
#     4  11  23  38  56  82 114 153 201 244 281 333
#     4  10  19  30  48  78 115 150 183 225 282 347
#     4  11  22  38  60  87 121 159 194 234 292 359
#
# _framework density 20.551880000000001
#
# number of rings (size 3 to 8) (size 9 to 14) (size 15 to 20)
#    0.000    1.429    1.429    5.143    0.000    5.714 
#    0.000    1.429    0.000    1.714    0.000    0.000 
#    0.000    4.571    0.000    0.000    0.000    0.000 
#
# Total GULP energy -693844.810789 kJ/mol
# GULP energy per Si atom -12390.085907 kJ/mol
# Density = 2.050510 g / cm^3
# Si number density = 20.551880 Si / 1000 Ang^3
#
#
#
# Elastic Constant Matrix: (Units=GPa)
#
#
# Indices 1 2 3 4 5 6 
#
# 1 114.7835 24.3474 21.6433 0.0000 0.0000 0.0000
# 2 24.3474 108.3787 37.8117 0.0000 0.0000 0.0000
# 3 21.6433 37.8117 79.7380 0.0000 0.0000 0.0000
# 4 0.0000 0.0000 0.0000 28.3943 0.0000 0.0000
# 5 0.0000 0.0000 0.0000 0.0000 14.9019 0.0000
# 6 0.0000 0.0000 0.0000 0.0000 0.0000 25.6987
#
#
#
# Elastic Compliance Matrix: (Units=1/GPa)
#
#
# Indices 1 2 3 4 5 6 
#
# 1 0.009371 -0.001459 -0.001852 0.000000 0.000000 0.000000
# 2 -0.001459 0.011283 -0.004954 0.000000 0.000000 0.000000
# 3 -0.001852 -0.004954 0.015393 0.000000 0.000000 0.000000
# 4 0.000000 0.000000 0.000000 0.035218 0.000000 0.000000
# 5 0.000000 0.000000 0.000000 0.000000 0.067105 0.000000
# 6 0.000000 0.000000 0.000000 0.000000 0.000000 0.038913
#
#
# Mechanical properties :
#
#
# Convention : Reuss Voigt Hill
#
# Bulk Modulus (GPa) = 51.23830 52.27832 51.75831
# Shear Modulus (GPa) = 24.96018 28.40549 26.68284
#
# Velocity S-wave (km/s) = 3.48874 3.72174 3.60712
# Velocity P-wave (km/s) = 6.41979 6.63031 6.52590
#
# Compressibility (1/GPa) = 0.01951665
#
# Stress axis : x y z
#
# Youngs Moduli (GPa) = 106.71568 88.62706 64.96446
#
# Poissons Ratio (x) = 0.12932 0.12029
# Poissons Ratio (y) = 0.15571 0.32186
# Poissons Ratio (z) = 0.19759 0.43910
#
# Static dielectric constant tensor:
#      x y z
#    x 3.937980 0.000000 0.000000 
#    y 0.000000 3.422340 0.000000 
#    z 0.000000 0.000000 3.669040 
# 
# 
# High freq. dielectric constant tensor:
#      x y z
#    x 1.812830 0.000000 0.000000 
#    y 0.000000 1.788400 0.000000 
#    z 0.000000 0.000000 1.781550 
# 
# From -- ./inp_files/60112.got.cif
#   From: 2010.03.12/outbox.cif.g09.slc.cpg/sg74_31_cif.got.tgz:60112.got - 2010.04.16 15:46:19.
