data_PCOD8298173
_publ_section_title
;
Structure prediction by ZEFSAII (Michael W. Deem and Ramdas Pophale) SiO2 
 PCOD8298173
Probable space group: I M M A
;
_chemical_formula_sum "Si O2"
_cell_formula_units_Z 72
_cell_length_a 23.459357
_cell_length_b 8.708176
_cell_length_c 23.092650
_cell_angle_alpha 90.000000
_cell_angle_beta 90.000000
_cell_angle_gamma 90.000000
_cell_volume 4717.556123
_symmetry_space_group_name_H-M "I M M A"
_symmetry_group_IT_number 74
_symmetry_cell_setting 'orthorhombic'
loop_
_space_group_symop_operation_xyz
x,y,z
-x,1/2-y,z
x,-y,-z
-x,1/2+y,-z
-x,-y,-z
x,1/2+y,-z
-x,y,z
x,1/2-y,z
1/2+x,1/2+y,1/2+z
1/2-x,-y,1/2+z
1/2+x,1/2-y,1/2-z
1/2-x,y,1/2-z
1/2-x,1/2-y,1/2-z
1/2+x,y,1/2-z
1/2-x,1/2+y,1/2+z
1/2+x,-y,1/2+z
loop_
_atom_site_type_symbol
_atom_site_label
_atom_site_fract_x
_atom_site_fract_y
_atom_site_fract_z
Si Si1 0.500000 0.929523 0.936818
Si Si2 0.610387 0.072836 0.884660
Si Si3 0.716362 0.573645 0.672804
Si Si4 0.722881 0.931302 0.939151
Si Si5 0.174592 0.425527 0.725323
O O1 0.500000 0.750000 0.944569
O O2 0.555222 0.977886 0.901155
O O3 0.500000 0.000000 0.000000
O O4 0.600980 0.250000 0.901304
O O5 0.618917 0.052906 0.814936
O O6 0.664806 0.013320 0.919806
O O7 0.700073 0.750000 0.680532
O O8 0.724621 0.532288 0.604943
O O9 0.777507 0.539119 0.701149
O O10 0.667181 0.474448 0.706623
O O11 0.711312 0.750000 0.942850
O O12 0.742792 0.000000 0.000000
O O13 0.195553 0.250000 0.721466
#
# Coordination Sequence:
#
# PCOD8298173 Si02
#       5
#     8  16  16  16  16
#     4  12  24  36  48  60  78 106 139 176 213 246
#     4  10  20  33  46  60  79 104 136 174 210 245
#     4   9  16  25  39  58  80 103 129 162 198 237
#     4  10  19  29  41  59  82 110 140 169 202 240
#     4   9  16  26  42  60  77  99 128 162 201 241
#
# _framework density 15.26214
#
# number of rings (size 3 to 8) (size 9 to 14) (size 15 to 20)
#    0.000    2.222    0.000    5.667    0.000    5.333 
#    0.000    0.000    0.000    0.000    0.000    0.000 
#    0.000    0.000    0.000    1.000    0.000   13.111 
#
# Total GULP energy -446034.524528 kJ/mol
# GULP energy per Si atom -12389.847904 kJ/mol
# Density = 1.522740 g / cm^3
# Si number density = 15.262140 Si / 1000 Ang^3
#
#
#
# Elastic Constant Matrix: (Units=GPa)
#
#
# Indices 1 2 3 4 5 6 
#
# 1 43.5997 28.5219 47.8149 0.0000 0.0000 0.0000
# 2 28.5219 86.1289 51.0189 0.0000 0.0000 0.0000
# 3 47.8149 51.0189 124.2651 0.0000 0.0000 0.0000
# 4 0.0000 0.0000 0.0000 27.1640 0.0000 0.0000
# 5 0.0000 0.0000 0.0000 0.0000 25.3616 0.0000
# 6 0.0000 0.0000 0.0000 0.0000 0.0000 18.3630
#
#
#
# Elastic Compliance Matrix: (Units=1/GPa)
#
#
# Indices 1 2 3 4 5 6 
#
# 1 0.041686 -0.005686 -0.013706 0.000000 0.000000 0.000000
# 2 -0.005686 0.016117 -0.004429 0.000000 0.000000 0.000000
# 3 -0.013706 -0.004429 0.015140 0.000000 0.000000 0.000000
# 4 0.000000 0.000000 0.000000 0.036813 0.000000 0.000000
# 5 0.000000 0.000000 0.000000 0.000000 0.039430 0.000000
# 6 0.000000 0.000000 0.000000 0.000000 0.000000 0.054457
#
#
# Mechanical properties :
#
#
# Convention : Reuss Voigt Hill
#
# Bulk Modulus (GPa) = 39.52389 56.52277 48.02333
# Shear Modulus (GPa) = 19.25159 22.62026 20.93592
#
# Velocity S-wave (km/s) = 3.55547 3.85400 3.70774
# Velocity P-wave (km/s) = 6.54278 7.54450 7.06143
#
# Compressibility (1/GPa) = 0.02530115
#
# Stress axis : x y z
#
# Youngs Moduli (GPa) = 23.98871 62.04577 66.05232
#
# Poissons Ratio (x) = 0.35279 0.90529
# Poissons Ratio (y) = 0.13640 0.29256
# Poissons Ratio (z) = 0.32878 0.27482
#
# Static dielectric constant tensor:
#      x y z
#    x 2.613500 0.000000 0.000000 
#    y 0.000000 3.085140 0.000000 
#    z 0.000000 0.000000 3.644460 
# 
# 
# High freq. dielectric constant tensor:
#      x y z
#    x 1.518220 0.000000 0.000000 
#    y 0.000000 1.607570 0.000000 
#    z 0.000000 0.000000 1.594610 
# 
# From -- ./inp_files/48506.got.cif
#   From: 2010.03.12/outbox.cif.g09.slc.cpg/sg74_25_cif.got.tgz:48506.got - 2010.04.16 15:46:19.
