data_PCOD8298064
_publ_section_title
;
Structure prediction by ZEFSAII (Michael W. Deem and Ramdas Pophale) SiO2 
 PCOD8298064
Probable space group: I M M A
;
_chemical_formula_sum "Si O2"
_cell_formula_units_Z 104
_cell_length_a 22.123704
_cell_length_b 13.574269
_cell_length_c 17.763536
_cell_angle_alpha 90.000000
_cell_angle_beta 90.000000
_cell_angle_gamma 90.000000
_cell_volume 5334.622730
_symmetry_space_group_name_H-M "I M M A"
_symmetry_group_IT_number 74
_symmetry_cell_setting 'orthorhombic'
loop_
_space_group_symop_operation_xyz
x,y,z
-x,1/2-y,z
x,-y,-z
-x,1/2+y,-z
-x,-y,-z
x,1/2+y,-z
-x,y,z
x,1/2-y,z
1/2+x,1/2+y,1/2+z
1/2-x,-y,1/2+z
1/2+x,1/2-y,1/2-z
1/2-x,y,1/2-z
1/2-x,1/2-y,1/2-z
1/2+x,y,1/2-z
1/2-x,1/2+y,1/2+z
1/2+x,-y,1/2+z
loop_
_atom_site_type_symbol
_atom_site_label
_atom_site_fract_x
_atom_site_fract_y
_atom_site_fract_z
Si Si1 0.787266 0.139652 0.129504
Si Si2 0.500000 0.366396 0.535566
Si Si3 0.175374 0.500000 0.500000
Si Si4 0.000000 0.134181 0.131831
Si Si5 0.353762 0.136469 0.126734
Si Si6 0.390353 0.362504 0.640037
Si Si7 0.611066 0.450633 0.278282
Si Si8 0.274833 0.362915 0.539572
O O1 0.810702 0.250000 0.143345
O O2 0.716549 0.132061 0.148029
O O3 0.823832 0.071301 0.185805
O O4 0.800473 0.108339 0.043112
O O5 0.500000 0.250000 0.525602
O O6 0.500000 0.415310 0.452031
O O7 0.440348 0.398540 0.580607
O O8 0.134463 0.427218 0.449168
O O9 0.217481 0.433418 0.555886
O O10 0.940524 0.103896 0.175835
O O11 0.000000 0.250000 0.122706
O O12 0.374556 0.250000 0.114987
O O13 0.392543 0.085237 0.192453
O O14 0.400507 0.250000 0.665547
O O15 0.396598 0.430838 0.714249
O O16 0.324988 0.377524 0.602694
O O17 0.251842 0.250000 0.536781
#
# Coordination Sequence:
#
# PCOD8298064 Si02
#       8
#    16   8   8   8  16  16  16  16
#     4   9  17  30  50  75 104 139 174 209 253 307
#     4   9  19  35  51  70 103 145 185 215 234 272
#     4  10  18  34  56  74  94 126 166 206 266 328
#     4  11  23  35  52  81 111 140 174 214 257 295
#     4  10  21  36  55  79 104 130 164 209 260 316
#     4  10  20  33  47  68 102 143 184 217 243 282
#     4  12  22  33  51  75 106 140 172 211 261 308
#     4   9  17  29  47  73 104 137 176 218 252 292
#
# _framework density 19.495287999999999
#
# number of rings (size 3 to 8) (size 9 to 14) (size 15 to 20)
#    0.000    2.000    0.000    6.462    0.000    6.154 
#    0.000    1.538    0.000    4.154    0.000    0.000 
#    0.000    0.000    0.000    0.000    0.000    0.000 
#
# Total GULP energy -644714.105027 kJ/mol
# GULP energy per Si atom -12398.348174 kJ/mol
# Density = 1.945092 g / cm^3
# Si number density = 19.495288 Si / 1000 Ang^3
#
#
#
# Elastic Constant Matrix: (Units=GPa)
#
#
# Indices 1 2 3 4 5 6 
#
# 1 31.8474 20.9019 30.4978 0.0000 0.0000 0.0000
# 2 20.9019 118.1604 72.5129 0.0000 0.0000 0.0000
# 3 30.4978 72.5129 101.3022 0.0000 0.0000 0.0000
# 4 0.0000 0.0000 0.0000 33.1885 0.0000 0.0000
# 5 0.0000 0.0000 0.0000 0.0000 18.8075 0.0000
# 6 0.0000 0.0000 0.0000 0.0000 0.0000 19.1250
#
#
#
# Elastic Compliance Matrix: (Units=1/GPa)
#
#
# Indices 1 2 3 4 5 6 
#
# 1 0.044145 0.000619 -0.013733 0.000000 0.000000 0.000000
# 2 0.000619 0.015102 -0.010996 0.000000 0.000000 0.000000
# 3 -0.013733 -0.010996 0.021877 0.000000 0.000000 0.000000
# 4 0.000000 0.000000 0.000000 0.030131 0.000000 0.000000
# 5 0.000000 0.000000 0.000000 0.000000 0.053170 0.000000
# 6 0.000000 0.000000 0.000000 0.000000 0.000000 0.052288
#
#
# Mechanical properties :
#
#
# Convention : Reuss Voigt Hill
#
# Bulk Modulus (GPa) = 30.39277 55.45948 42.92613
# Shear Modulus (GPa) = 18.12244 22.71736 20.41990
#
# Velocity S-wave (km/s) = 3.05221 3.41731 3.23991
# Velocity P-wave (km/s) = 5.29575 6.63929 6.00521
#
# Compressibility (1/GPa) = 0.03290256
#
# Stress axis : x y z
#
# Youngs Moduli (GPa) = 22.65276 66.21711 45.70989
#
# Poissons Ratio (x) = -0.04097 0.62773
# Poissons Ratio (y) = -0.01402 0.50264
# Poissons Ratio (z) = 0.31109 0.72814
#
# Static dielectric constant tensor:
#      x y z
#    x 3.282110 0.000000 0.000000 
#    y 0.000000 3.937740 0.000000 
#    z 0.000000 0.000000 3.356120 
# 
# 
# High freq. dielectric constant tensor:
#      x y z
#    x 1.720090 0.000000 0.000000 
#    y 0.000000 1.784950 0.000000 
#    z 0.000000 0.000000 1.724600 
# 
# From -- ./inp_files/45333.got.cif
#   From: 2010.03.12/outbox.cif.g09.slc.cpg/sg74_23_cif.got.tgz:45333.got - 2010.04.16 15:46:19.
