data_PCOD8298133
_publ_section_title
;
Structure prediction by ZEFSAII (Michael W. Deem and Ramdas Pophale) SiO2 
 PCOD8298133
Probable space group: I M M A
;
_chemical_formula_sum "Si O2"
_cell_formula_units_Z 64
_cell_length_a 8.973655
_cell_length_b 27.732669
_cell_length_c 21.042503
_cell_angle_alpha 90.000000
_cell_angle_beta 90.000000
_cell_angle_gamma 90.000000
_cell_volume 5236.708922
_symmetry_space_group_name_H-M "I M M A"
_symmetry_group_IT_number 74
_symmetry_cell_setting 'orthorhombic'
loop_
_space_group_symop_operation_xyz
x,y,z
-x,1/2-y,z
x,-y,-z
-x,1/2+y,-z
-x,-y,-z
x,1/2+y,-z
-x,y,z
x,1/2-y,z
1/2+x,1/2+y,1/2+z
1/2-x,-y,1/2+z
1/2+x,1/2-y,1/2-z
1/2-x,y,1/2-z
1/2-x,1/2-y,1/2-z
1/2+x,y,1/2-z
1/2-x,1/2+y,1/2+z
1/2+x,-y,1/2+z
loop_
_atom_site_type_symbol
_atom_site_label
_atom_site_fract_x
_atom_site_fract_y
_atom_site_fract_z
Si Si1 0.667917 0.020715 0.814055
Si Si2 0.172061 0.805279 0.183402
Si Si3 0.176085 0.971848 0.062967
Si Si4 0.832110 0.887057 0.384695
O O1 0.500000 0.000035 0.812922
O O2 0.750000 0.004950 0.750000
O O3 0.756219 0.999694 0.875681
O O4 0.665605 0.079224 0.821172
O O5 0.192903 0.750000 0.162462
O O6 0.250000 0.815490 0.250000
O O7 0.246570 0.837500 0.128794
O O8 0.000000 0.819274 0.190640
O O9 0.246106 0.917660 0.060386
O O10 0.000000 0.968089 0.070315
O O11 0.224287 0.000000 0.000000
O O12 0.000000 0.875342 0.407314
#
# Coordination Sequence:
#
# PCOD8298133 Si02
#       4
#    16  16  16  16
#     4   9  17  25  37  54  71  92 119 152 185 219
#     4  10  19  28  38  52  71  95 124 159 195 228
#     4   9  17  28  41  55  72  94 121 155 192 230
#     4   9  18  27  39  53  69  94 121 154 190 224
#
# _framework density 12.221416
#
# number of rings (size 3 to 8) (size 9 to 14) (size 15 to 20)
#    1.500    1.250    0.000    3.000    0.000    5.500 
#    0.000    0.000    0.000    0.000    0.000    0.000 
#    0.000    0.000    0.000    0.000    0.000    1.250 
#
# Total GULP energy -396441.549113 kJ/mol
# GULP energy per Si atom -12388.798410 kJ/mol
# Density = 1.219360 g / cm^3
# Si number density = 12.221416 Si / 1000 Ang^3
#
#
#
# Elastic Constant Matrix: (Units=GPa)
#
#
# Indices 1 2 3 4 5 6 
#
# 1 112.3141 39.5723 48.3610 0.0000 0.0000 0.0000
# 2 39.5723 52.4303 34.7954 0.0000 0.0000 0.0000
# 3 48.3610 34.7954 77.7419 0.0000 0.0000 0.0000
# 4 0.0000 0.0000 0.0000 22.2449 0.0000 0.0000
# 5 0.0000 0.0000 0.0000 0.0000 19.3285 0.0000
# 6 0.0000 0.0000 0.0000 0.0000 0.0000 15.9511
#
#
#
# Elastic Compliance Matrix: (Units=1/GPa)
#
#
# Indices 1 2 3 4 5 6 
#
# 1 0.013604 -0.006617 -0.005501 0.000000 0.000000 0.000000
# 2 -0.006617 0.030350 -0.009468 0.000000 0.000000 0.000000
# 3 -0.005501 -0.009468 0.020523 0.000000 0.000000 0.000000
# 4 0.000000 0.000000 0.000000 0.044954 0.000000 0.000000
# 5 0.000000 0.000000 0.000000 0.000000 0.051737 0.000000
# 6 0.000000 0.000000 0.000000 0.000000 0.000000 0.062692
#
#
# Mechanical properties :
#
#
# Convention : Reuss Voigt Hill
#
# Bulk Modulus (GPa) = 46.93657 54.21596 50.57627
# Shear Modulus (GPa) = 18.23935 19.48874 18.86405
#
# Velocity S-wave (km/s) = 3.86736 3.99762 3.93303
# Velocity P-wave (km/s) = 7.64399 8.10961 7.88024
#
# Compressibility (1/GPa) = 0.02130535
#
# Stress axis : x y z
#
# Youngs Moduli (GPa) = 73.51039 32.94839 48.72658
#
# Poissons Ratio (x) = 0.21801 0.26804
# Poissons Ratio (y) = 0.48640 0.46135
# Poissons Ratio (z) = 0.40437 0.31196
#
# Static dielectric constant tensor:
#      x y z
#    x 2.640520 0.000000 0.000000 
#    y 0.000000 2.254570 0.000000 
#    z 0.000000 0.000000 2.254130 
# 
# 
# High freq. dielectric constant tensor:
#      x y z
#    x 1.488360 0.000000 0.000000 
#    y 0.000000 1.424960 0.000000 
#    z 0.000000 0.000000 1.430190 
# 
# From -- ./inp_files/48867.got.cif
#   From: 2010.03.12/outbox.cif.g09.slc.cpg/sg74_25_cif.got.tgz:48867.got - 2010.04.16 15:46:19.
