data_PCOD8298562
_publ_section_title
;
Structure prediction by ZEFSAII (Michael W. Deem and Ramdas Pophale) SiO2 
 PCOD8298562
Probable space group: I M M A
;
_chemical_formula_sum "Si O2"
_cell_formula_units_Z 96
_cell_length_a 13.533195
_cell_length_b 17.145538
_cell_length_c 20.944856
_cell_angle_alpha 90.000000
_cell_angle_beta 90.000000
_cell_angle_gamma 90.000000
_cell_volume 4859.916814
_symmetry_space_group_name_H-M "I M M A"
_symmetry_group_IT_number 74
_symmetry_cell_setting 'orthorhombic'
loop_
_space_group_symop_operation_xyz
x,y,z
-x,1/2-y,z
x,-y,-z
-x,1/2+y,-z
-x,-y,-z
x,1/2+y,-z
-x,y,z
x,1/2-y,z
1/2+x,1/2+y,1/2+z
1/2-x,-y,1/2+z
1/2+x,1/2-y,1/2-z
1/2-x,y,1/2-z
1/2-x,1/2-y,1/2-z
1/2+x,y,1/2-z
1/2-x,1/2+y,1/2+z
1/2+x,-y,1/2+z
loop_
_atom_site_type_symbol
_atom_site_label
_atom_site_fract_x
_atom_site_fract_y
_atom_site_fract_z
Si Si1 0.736653 0.341488 0.589691
Si Si2 0.887264 0.105495 0.295402
Si Si3 0.610781 0.157312 0.470234
Si Si4 0.313189 0.339017 0.334476
Si Si5 0.386202 0.429400 0.834992
Si Si6 0.112943 0.339400 0.786278
O O1 0.765547 0.250000 0.585156
O O2 0.683897 0.372296 0.525549
O O3 0.832329 0.395627 0.601909
O O4 0.662577 0.358919 0.647090
O O5 0.806665 0.160113 0.330206
O O6 0.864261 0.107042 0.219456
O O7 0.000000 0.134122 0.307617
O O8 0.870821 0.020749 0.325302
O O9 0.500000 0.124321 0.480794
O O10 0.608182 0.250000 0.472043
O O11 0.652159 0.127639 0.402436
O O12 0.348762 0.250000 0.324727
O O13 0.500000 0.407452 0.843802
O O14 0.340547 0.386972 0.772662
O O15 0.125900 0.250000 0.767083
O O16 0.000000 0.363881 0.795448
#
# Coordination Sequence:
#
# PCOD8298562 Si02
#       6
#    16  16  16  16  16  16
#     4  10  19  31  53  80 108 147 184 217 263 317
#     4  10  21  36  56  81 110 143 177 220 276 329
#     4   9  18  35  58  84 113 140 173 221 275 328
#     4  10  21  36  60  88 108 136 176 226 284 334
#     4  10  21  34  50  74 108 148 184 224 269 310
#     4   9  17  29  48  76 106 139 182 225 265 312
#
# _framework density 19.753423000000002
#
# number of rings (size 3 to 8) (size 9 to 14) (size 15 to 20)
#    0.000    2.333    0.000    3.000    4.667    6.333 
#    0.000    1.667    0.000    6.000    0.000    0.000 
#    0.000    0.000    0.000    0.000    0.000    0.000 
#
# Total GULP energy -595104.875753 kJ/mol
# GULP energy per Si atom -12398.018245 kJ/mol
# Density = 1.970846 g / cm^3
# Si number density = 19.753423 Si / 1000 Ang^3
#
#
#
# Elastic Constant Matrix: (Units=GPa)
#
#
# Indices 1 2 3 4 5 6 
#
# 1 107.7944 29.6190 56.4008 0.0000 0.0000 0.0000
# 2 29.6190 40.8446 29.0166 0.0000 0.0000 0.0000
# 3 56.4008 29.0166 124.4115 0.0000 0.0000 0.0000
# 4 0.0000 0.0000 0.0000 7.3637 0.0000 0.0000
# 5 0.0000 0.0000 0.0000 0.0000 30.4127 0.0000
# 6 0.0000 0.0000 0.0000 0.0000 0.0000 22.1852
#
#
#
# Elastic Compliance Matrix: (Units=1/GPa)
#
#
# Indices 1 2 3 4 5 6 
#
# 1 0.013464 -0.006505 -0.004587 0.000000 0.000000 0.000000
# 2 -0.006505 0.032488 -0.004628 0.000000 0.000000 0.000000
# 3 -0.004587 -0.004628 0.011197 0.000000 0.000000 0.000000
# 4 0.000000 0.000000 0.000000 0.135802 0.000000 0.000000
# 5 0.000000 0.000000 0.000000 0.000000 0.032881 0.000000
# 6 0.000000 0.000000 0.000000 0.000000 0.000000 0.045075
#
#
# Mechanical properties :
#
#
# Convention : Reuss Voigt Hill
#
# Bulk Modulus (GPa) = 38.89702 55.90259 47.39981
# Shear Modulus (GPa) = 16.08146 22.52658 19.30402
#
# Velocity S-wave (km/s) = 2.85636 3.38063 3.12949
# Velocity P-wave (km/s) = 5.53285 6.60302 6.09148
#
# Compressibility (1/GPa) = 0.02570891
#
# Stress axis : x y z
#
# Youngs Moduli (GPa) = 74.27061 30.78024 89.31296
#
# Poissons Ratio (x) = 0.20024 0.40965
# Poissons Ratio (y) = 0.48316 0.41335
# Poissons Ratio (z) = 0.34065 0.14246
#
# Static dielectric constant tensor:
#      x y z
#    x 3.838130 0.000000 0.000000 
#    y 0.000000 3.305450 0.000000 
#    z 0.000000 0.000000 3.639470 
# 
# 
# High freq. dielectric constant tensor:
#      x y z
#    x 1.781900 0.000000 0.000000 
#    y 0.000000 1.744300 0.000000 
#    z 0.000000 0.000000 1.756060 
# 
# From -- ./inp_files/51912.got.cif
#   From: 2010.03.12/outbox.cif.g09.slc.cpg/sg74_26_cif.got.tgz:51912.got - 2010.04.16 15:46:19.
