data_PCOD8298773
_publ_section_title
;
Structure prediction by ZEFSAII (Michael W. Deem and Ramdas Pophale) SiO2 
 PCOD8298773
Probable space group: I M M A
;
_chemical_formula_sum "Si O2"
_cell_formula_units_Z 104
_cell_length_a 9.035783
_cell_length_b 22.836251
_cell_length_c 25.125103
_cell_angle_alpha 90.000000
_cell_angle_beta 90.000000
_cell_angle_gamma 90.000000
_cell_volume 5184.399394
_symmetry_space_group_name_H-M "I M M A"
_symmetry_group_IT_number 74
_symmetry_cell_setting 'orthorhombic'
loop_
_space_group_symop_operation_xyz
x,y,z
-x,1/2-y,z
x,-y,-z
-x,1/2+y,-z
-x,-y,-z
x,1/2+y,-z
-x,y,z
x,1/2-y,z
1/2+x,1/2+y,1/2+z
1/2-x,-y,1/2+z
1/2+x,1/2-y,1/2-z
1/2-x,y,1/2-z
1/2-x,1/2-y,1/2-z
1/2+x,y,1/2-z
1/2-x,1/2+y,1/2+z
1/2+x,-y,1/2+z
loop_
_atom_site_type_symbol
_atom_site_label
_atom_site_fract_x
_atom_site_fract_y
_atom_site_fract_z
Si Si1 0.840137 0.814576 0.830314
Si Si2 0.328565 0.625103 0.918097
Si Si3 0.171082 0.318040 0.624199
Si Si4 0.750000 0.595582 0.750000
Si Si5 0.827396 0.817365 0.014061
Si Si6 0.675389 0.088566 0.693503
Si Si7 0.835459 0.481211 0.345874
O O1 0.807732 0.750000 0.806887
O O2 0.711296 0.829046 0.871895
O O3 0.856606 0.861503 0.782997
O O4 0.000000 0.815372 0.859999
O O5 0.500000 0.632810 0.932730
O O6 0.230066 0.637976 0.969555
O O7 0.293471 0.559992 0.896019
O O8 0.188944 0.250000 0.637653
O O9 0.239451 0.333205 0.567233
O O10 0.261470 0.351735 0.669450
O O11 0.000000 0.337289 0.624621
O O12 0.840262 0.555273 0.709105
O O13 0.796762 0.750000 0.997002
O O14 0.000000 0.828192 0.024475
O O15 0.500000 0.092841 0.699649
O O16 0.750000 0.077051 0.750000
O O17 0.717492 0.033795 0.655624
O O18 0.000000 0.507235 0.353961
#
# Coordination Sequence:
#
# PCOD8298773 Si02
#       7
#    16  16  16   8  16  16  16
#     4  10  20  32  47  72 107 147 194 247 301 354
#     4  10  21  35  54  81 114 154 201 250 297 345
#     4  10  22  42  68  96 125 155 189 233 288 350
#     4  10  19  32  54  74 103 144 196 244 300 352
#     4  10  20  36  60  89 122 159 199 243 295 354
#     4  12  25  41  65  92 123 158 195 239 289 350
#     4  10  21  37  56  81 113 151 201 251 296 346
#
# _framework density 20.060184
#
# number of rings (size 3 to 8) (size 9 to 14) (size 15 to 20)
#    0.000    1.692    0.769    3.923    0.000    8.000 
#    0.000    0.769    0.000    4.615    0.000    0.000 
#    0.000    0.000    0.000    0.000    0.000    0.000 
#
# Total GULP energy -644757.420563 kJ/mol
# GULP energy per Si atom -12399.181165 kJ/mol
# Density = 2.001453 g / cm^3
# Si number density = 20.060184 Si / 1000 Ang^3
#
#
#
# Elastic Constant Matrix: (Units=GPa)
#
#
# Indices 1 2 3 4 5 6 
#
# 1 143.0414 51.6231 42.0575 0.0000 0.0000 0.0000
# 2 51.6231 91.8459 38.8673 0.0000 0.0000 0.0000
# 3 42.0575 38.8673 59.8085 0.0000 0.0000 0.0000
# 4 0.0000 0.0000 0.0000 28.9649 0.0000 0.0000
# 5 0.0000 0.0000 0.0000 0.0000 34.1666 0.0000
# 6 0.0000 0.0000 0.0000 0.0000 0.0000 25.5347
#
#
#
# Elastic Compliance Matrix: (Units=1/GPa)
#
#
# Indices 1 2 3 4 5 6 
#
# 1 0.009560 -0.003487 -0.004456 0.000000 0.000000 0.000000
# 2 -0.003487 0.016290 -0.008134 0.000000 0.000000 0.000000
# 3 -0.004456 -0.008134 0.025140 0.000000 0.000000 0.000000
# 4 0.000000 0.000000 0.000000 0.034525 0.000000 0.000000
# 5 0.000000 0.000000 0.000000 0.000000 0.029268 0.000000
# 6 0.000000 0.000000 0.000000 0.000000 0.000000 0.039162
#
#
# Mechanical properties :
#
#
# Convention : Reuss Voigt Hill
#
# Bulk Modulus (GPa) = 53.09431 62.19907 57.64669
# Shear Modulus (GPa) = 25.99054 28.54311 27.26682
#
# Velocity S-wave (km/s) = 3.60339 3.77619 3.69080
# Velocity P-wave (km/s) = 6.62099 7.07717 6.85288
#
# Compressibility (1/GPa) = 0.01883441
#
# Stress axis : x y z
#
# Youngs Moduli (GPa) = 104.60471 61.38703 39.77803
#
# Poissons Ratio (x) = 0.21409 0.17726
# Poissons Ratio (y) = 0.36481 0.32355
# Poissons Ratio (z) = 0.46613 0.49932
#
# Static dielectric constant tensor:
#      x y z
#    x 3.664690 0.000000 0.000000 
#    y 0.000000 3.658650 0.000000 
#    z 0.000000 0.000000 3.534320 
# 
# 
# High freq. dielectric constant tensor:
#      x y z
#    x 1.792040 0.000000 0.000000 
#    y 0.000000 1.780140 0.000000 
#    z 0.000000 0.000000 1.767800 
# 
# From -- ./inp_files/64527.got.cif
#   From: 2010.03.12/outbox.cif.g09.slc.cpg/sg74_33_cif.got.tgz:64527.got - 2010.04.16 15:46:19.
