data_PCOD8298192
_publ_section_title
;
Structure prediction by ZEFSAII (Michael W. Deem and Ramdas Pophale) SiO2 
 PCOD8298192
Probable space group: I M M A
;
_chemical_formula_sum "Si O2"
_cell_formula_units_Z 112
_cell_length_a 28.254042
_cell_length_b 14.024073
_cell_length_c 16.584415
_cell_angle_alpha 90.000000
_cell_angle_beta 90.000000
_cell_angle_gamma 90.000000
_cell_volume 6571.354660
_symmetry_space_group_name_H-M "I M M A"
_symmetry_group_IT_number 74
_symmetry_cell_setting 'orthorhombic'
loop_
_space_group_symop_operation_xyz
x,y,z
-x,1/2-y,z
x,-y,-z
-x,1/2+y,-z
-x,-y,-z
x,1/2+y,-z
-x,y,z
x,1/2-y,z
1/2+x,1/2+y,1/2+z
1/2-x,-y,1/2+z
1/2+x,1/2-y,1/2-z
1/2-x,y,1/2-z
1/2-x,1/2-y,1/2-z
1/2+x,y,1/2-z
1/2-x,1/2+y,1/2+z
1/2+x,-y,1/2+z
loop_
_atom_site_type_symbol
_atom_site_label
_atom_site_fract_x
_atom_site_fract_y
_atom_site_fract_z
Si Si1 0.121422 0.641086 0.116462
Si Si2 0.210116 0.362408 0.131440
Si Si3 0.364611 0.480712 0.267200
Si Si4 0.553441 0.638619 0.704772
Si Si5 0.276804 0.515962 0.173499
Si Si6 0.052401 0.637314 0.977479
Si Si7 0.225094 0.643013 0.052921
O O1 0.105628 0.750000 0.134487
O O2 0.112574 0.575520 0.193843
O O3 0.091462 0.599430 0.040500
O O4 0.177200 0.635624 0.102734
O O5 0.206405 0.250000 0.149648
O O6 0.165919 0.418850 0.168971
O O7 0.258527 0.406414 0.166933
O O8 0.211461 0.386916 0.037098
O O9 0.409175 0.416834 0.238430
O O10 0.333053 0.510840 0.189828
O O11 0.500000 0.613752 0.731094
O O12 0.562898 0.750000 0.713401
O O13 0.563188 0.602225 0.613192
O O14 0.250000 0.564928 0.250000
O O15 0.265060 0.575446 0.092753
O O16 0.053822 0.750000 0.974642
O O17 0.000000 0.602382 0.004630
O O18 0.245753 0.750000 0.053992
#
# Coordination Sequence:
#
# PCOD8298192 Si02
#       7
#    16  16  16  16  16  16  16
#     4  10  19  29  43  63  88 123 162 197 233 269
#     4  10  20  32  48  68  90 119 154 196 241 281
#     4  11  21  31  46  69  93 125 160 198 234 284
#     4   9  18  32  48  66  91 122 158 198 239 281
#     4  10  20  32  44  66  92 124 155 191 235 283
#     4   8  15  28  44  64  89 118 156 199 235 263
#     4  10  19  32  49  66  89 121 160 202 236 278
#
# _framework density 17.043669999999999
#
# number of rings (size 3 to 8) (size 9 to 14) (size 15 to 20)
#    0.000    2.286    2.857    2.571    0.000    8.571 
#    0.000    1.429    0.000    0.000    0.000    0.000 
#    0.000    2.286    0.000    3.143    0.000    0.714 
#
# Total GULP energy -694051.544562 kJ/mol
# GULP energy per Si atom -12393.777581 kJ/mol
# Density = 1.700488 g / cm^3
# Si number density = 17.043670 Si / 1000 Ang^3
#
#
#
# Elastic Constant Matrix: (Units=GPa)
#
#
# Indices 1 2 3 4 5 6 
#
# 1 96.7307 27.6267 14.1886 0.0000 0.0000 0.0000
# 2 27.6267 52.4783 15.2855 0.0000 0.0000 0.0000
# 3 14.1886 15.2855 23.8709 0.0000 0.0000 0.0000
# 4 0.0000 0.0000 0.0000 22.3735 0.0000 0.0000
# 5 0.0000 0.0000 0.0000 0.0000 32.6607 0.0000
# 6 0.0000 0.0000 0.0000 0.0000 0.0000 20.0099
#
#
#
# Elastic Compliance Matrix: (Units=1/GPa)
#
#
# Indices 1 2 3 4 5 6 
#
# 1 0.012462 -0.005412 -0.003941 0.000000 0.000000 0.000000
# 2 -0.005412 0.025775 -0.013288 0.000000 0.000000 0.000000
# 3 -0.003941 -0.013288 0.052744 0.000000 0.000000 0.000000
# 4 0.000000 0.000000 0.000000 0.044696 0.000000 0.000000
# 5 0.000000 0.000000 0.000000 0.000000 0.030618 0.000000
# 6 0.000000 0.000000 0.000000 0.000000 0.000000 0.049975
#
#
# Mechanical properties :
#
#
# Convention : Reuss Voigt Hill
#
# Bulk Modulus (GPa) = 21.88318 31.92019 26.90168
# Shear Modulus (GPa) = 18.06455 22.74078 20.40267
#
# Velocity S-wave (km/s) = 3.25914 3.65672 3.46364
# Velocity P-wave (km/s) = 5.19904 6.04962 5.64039
#
# Compressibility (1/GPa) = 0.04569721
#
# Stress axis : x y z
#
# Youngs Moduli (GPa) = 80.24445 38.79697 18.95968
#
# Poissons Ratio (x) = 0.20999 0.07473
# Poissons Ratio (y) = 0.43432 0.25193
# Poissons Ratio (z) = 0.31628 0.51553
#
# Static dielectric constant tensor:
#      x y z
#    x 3.220630 0.000000 0.000000 
#    y 0.000000 3.298950 0.000000 
#    z 0.000000 0.000000 2.927920 
# 
# 
# High freq. dielectric constant tensor:
#      x y z
#    x 1.642520 0.000000 0.000000 
#    y 0.000000 1.668400 0.000000 
#    z 0.000000 0.000000 1.605450 
# 
# From -- ./inp_files/33148.got.cif
#   From: 2010.03.12/outbox.cif.g09.slc.cpg/sg74_17_cif.got.tgz:33148.got - 2010.04.16 15:46:19.
