data_PCOD8298308
_publ_section_title
;
Structure prediction by ZEFSAII (Michael W. Deem and Ramdas Pophale) SiO2 
 PCOD8298308
Probable space group: I M M A
;
_chemical_formula_sum "Si O2"
_cell_formula_units_Z 104
_cell_length_a 28.165814
_cell_length_b 8.980439
_cell_length_c 24.363668
_cell_angle_alpha 90.000000
_cell_angle_beta 90.000000
_cell_angle_gamma 90.000000
_cell_volume 6162.579672
_symmetry_space_group_name_H-M "I M M A"
_symmetry_group_IT_number 74
_symmetry_cell_setting 'orthorhombic'
loop_
_space_group_symop_operation_xyz
x,y,z
-x,1/2-y,z
x,-y,-z
-x,1/2+y,-z
-x,-y,-z
x,1/2+y,-z
-x,y,z
x,1/2-y,z
1/2+x,1/2+y,1/2+z
1/2-x,-y,1/2+z
1/2+x,1/2-y,1/2-z
1/2-x,y,1/2-z
1/2-x,1/2-y,1/2-z
1/2+x,y,1/2-z
1/2-x,1/2+y,1/2+z
1/2+x,-y,1/2+z
loop_
_atom_site_type_symbol
_atom_site_label
_atom_site_fract_x
_atom_site_fract_y
_atom_site_fract_z
Si Si1 0.375799 0.423944 0.558379
Si Si2 0.415621 0.422486 0.121149
Si Si3 0.819945 0.575450 0.558855
Si Si4 0.000000 0.925962 0.441070
Si Si5 0.770863 0.424128 0.941315
Si Si6 0.053891 0.926020 0.150868
Si Si7 0.054450 0.921095 0.739621
O O1 0.383767 0.500000 0.500000
O O2 0.383673 0.250000 0.548449
O O3 0.323112 0.453132 0.584110
O O4 0.413605 0.489210 0.601695
O O5 0.430009 0.250000 0.111835
O O6 0.363829 0.458749 0.098311
O O7 0.453151 0.526081 0.091048
O O8 0.414898 0.460402 0.185870
O O9 0.829508 0.500000 0.500000
O O10 0.812312 0.750000 0.549964
O O11 0.773282 0.504747 0.589342
O O12 0.000000 0.750000 0.448225
O O13 0.000000 0.000000 0.500000
O O14 0.759953 0.250000 0.946079
O O15 0.771439 0.500000 0.000000
O O16 0.056796 0.750000 0.152350
O O17 0.000000 0.982012 0.141110
O O18 0.073567 0.984709 0.208923
O O19 0.059770 0.750000 0.756119
O O20 0.000000 0.961908 0.726164
#
# Coordination Sequence:
#
# PCOD8298308 Si02
#       7
#    16  16  16   8  16  16  16
#     4   9  18  31  48  72 100 130 157 189 235 284
#     4  10  20  35  51  68  95 127 159 202 247 287
#     4  10  19  30  47  69  94 123 156 195 242 287
#     4  12  24  34  48  70  98 130 163 198 243 294
#     4   9  16  28  46  66  92 123 157 193 232 280
#     4   9  18  32  49  71 100 127 156 196 237 278
#     4   9  17  32  52  69  90 122 161 199 237 281
#
# _framework density 16.876049999999999
#
# number of rings (size 3 to 8) (size 9 to 14) (size 15 to 20)
#    0.000    2.462    0.769    3.000    0.000    4.615 
#    0.000    0.000    0.000    0.923    0.000    6.462 
#    0.000    0.000    0.000    0.000    0.000    0.000 
#
# Total GULP energy -644564.206190 kJ/mol
# GULP energy per Si atom -12395.465504 kJ/mol
# Density = 1.683764 g / cm^3
# Si number density = 16.876050 Si / 1000 Ang^3
#
#
#
# Elastic Constant Matrix: (Units=GPa)
#
#
# Indices 1 2 3 4 5 6 
#
# 1 124.7944 52.0504 74.3135 0.0000 0.0000 0.0000
# 2 52.0504 74.7860 42.8780 0.0000 0.0000 0.0000
# 3 74.3135 42.8780 110.4666 0.0000 0.0000 0.0000
# 4 0.0000 0.0000 0.0000 24.8562 0.0000 0.0000
# 5 0.0000 0.0000 0.0000 0.0000 1.2371 0.0000
# 6 0.0000 0.0000 0.0000 0.0000 0.0000 22.3491
#
#
#
# Elastic Compliance Matrix: (Units=1/GPa)
#
#
# Indices 1 2 3 4 5 6 
#
# 1 0.015258 -0.006090 -0.007901 0.000000 0.000000 0.000000
# 2 -0.006090 0.019629 -0.003523 0.000000 0.000000 0.000000
# 3 -0.007901 -0.003523 0.015735 0.000000 0.000000 0.000000
# 4 0.000000 0.000000 0.000000 0.040231 0.000000 0.000000
# 5 0.000000 0.000000 0.000000 0.000000 0.808351 0.000000
# 6 0.000000 0.000000 0.000000 0.000000 0.000000 0.044744
#
#
# Mechanical properties :
#
#
# Convention : Reuss Voigt Hill
#
# Bulk Modulus (GPa) = 64.11739 72.05897 68.08818
# Shear Modulus (GPa) = 5.08041 19.07550 12.07795
#
# Velocity S-wave (km/s) = 1.73694 3.36568 2.67813
# Velocity P-wave (km/s) = 6.48831 7.60890 7.07084
#
# Compressibility (1/GPa) = 0.01559639
#
# Stress axis : x y z
#
# Youngs Moduli (GPa) = 65.54050 50.94395 63.55364
#
# Poissons Ratio (x) = 0.31022 0.50211
# Poissons Ratio (y) = 0.39911 0.22388
# Poissons Ratio (z) = 0.51781 0.17946
#
# Static dielectric constant tensor:
#      x y z
#    x 3.752150 0.000000 0.000000 
#    y 0.000000 3.197160 0.000000 
#    z 0.000000 0.000000 3.059570 
# 
# 
# High freq. dielectric constant tensor:
#      x y z
#    x 1.653210 0.000000 0.000000 
#    y 0.000000 1.654530 0.000000 
#    z 0.000000 0.000000 1.625790 
# 
# From -- ./inp_files/68681.got.cif
#   From: 2010.03.12/outbox.cif.g09.slc.cpg/sg74_35_cif.got.tgz:68681.got - 2010.04.16 15:46:19.
