data_PCOD8298403
_publ_section_title
;
Structure prediction by ZEFSAII (Michael W. Deem and Ramdas Pophale) SiO2 
 PCOD8298403
Probable space group: I M M A
;
_chemical_formula_sum "Si O2"
_cell_formula_units_Z 96
_cell_length_a 31.537981
_cell_length_b 9.089735
_cell_length_c 18.982585
_cell_angle_alpha 90.000000
_cell_angle_beta 90.000000
_cell_angle_gamma 90.000000
_cell_volume 5441.773514
_symmetry_space_group_name_H-M "I M M A"
_symmetry_group_IT_number 74
_symmetry_cell_setting 'orthorhombic'
loop_
_space_group_symop_operation_xyz
x,y,z
-x,1/2-y,z
x,-y,-z
-x,1/2+y,-z
-x,-y,-z
x,1/2+y,-z
-x,y,z
x,1/2-y,z
1/2+x,1/2+y,1/2+z
1/2-x,-y,1/2+z
1/2+x,1/2-y,1/2-z
1/2-x,y,1/2-z
1/2-x,1/2-y,1/2-z
1/2+x,y,1/2-z
1/2-x,1/2+y,1/2+z
1/2+x,-y,1/2+z
loop_
_atom_site_type_symbol
_atom_site_label
_atom_site_fract_x
_atom_site_fract_y
_atom_site_fract_z
Si Si1 0.628023 0.078292 0.781935
Si Si2 0.591616 0.579154 0.573653
Si Si3 0.839691 0.420065 0.569461
Si Si4 0.741668 0.577054 0.428535
Si Si5 0.952401 0.081114 0.804817
Si Si6 0.325219 0.921746 0.660817
O O1 0.639421 0.250000 0.772606
O O2 0.632915 0.029615 0.863100
O O3 0.579837 0.043229 0.758675
O O4 0.660938 0.984549 0.736149
O O5 0.586250 0.500000 0.500000
O O6 0.583002 0.750000 0.562742
O O7 0.556650 0.518172 0.627396
O O8 0.638262 0.547680 0.603714
O O9 0.857071 0.500000 0.500000
O O10 0.845492 0.250000 0.554128
O O11 0.790796 0.458875 0.584468
O O12 0.725688 0.500000 0.500000
O O13 0.732381 0.750000 0.433981
O O14 0.716618 0.508018 0.363089
O O15 0.946695 0.250000 0.828084
O O16 0.000000 0.049377 0.777730
O O17 0.315048 0.750000 0.668566
#
# Coordination Sequence:
#
# PCOD8298403 Si02
#       6
#    16  16  16  16  16  16
#     4   9  18  34  53  72  96 125 157 195 240 287
#     4  10  20  32  47  68  96 130 165 199 234 274
#     4   9  19  34  52  73  96 125 159 195 238 287
#     4  10  19  31  47  68  96 130 167 203 238 276
#     4   9  18  33  53  74  94 120 156 196 238 284
#     4  10  20  32  47  70  98 130 167 202 238 277
#
# _framework density 17.641309
#
# number of rings (size 3 to 8) (size 9 to 14) (size 15 to 20)
#    0.000    2.500    0.000    2.000    0.000    6.000 
#    0.000    3.333    0.000    0.500    0.000    0.000 
#    0.000    0.000    0.000    0.000    0.000    0.000 
#
# Total GULP energy -595314.281635 kJ/mol
# GULP energy per Si atom -12402.380867 kJ/mol
# Density = 1.760116 g / cm^3
# Si number density = 17.641309 Si / 1000 Ang^3
#
#
#
# Elastic Constant Matrix: (Units=GPa)
#
#
# Indices 1 2 3 4 5 6 
#
# 1 68.1952 40.2151 66.8382 0.0000 0.0000 0.0000
# 2 40.2151 80.6963 61.4121 0.0000 0.0000 0.0000
# 3 66.8382 61.4121 150.0988 0.0000 0.0000 0.0000
# 4 0.0000 0.0000 0.0000 30.3702 0.0000 0.0000
# 5 0.0000 0.0000 0.0000 0.0000 16.4451 0.0000
# 6 0.0000 0.0000 0.0000 0.0000 0.0000 20.1928
#
#
#
# Elastic Compliance Matrix: (Units=1/GPa)
#
#
# Indices 1 2 3 4 5 6 
#
# 1 0.028207 -0.006532 -0.009888 0.000000 0.000000 0.000000
# 2 -0.006532 0.019508 -0.005073 0.000000 0.000000 0.000000
# 3 -0.009888 -0.005073 0.013141 0.000000 0.000000 0.000000
# 4 0.000000 0.000000 0.000000 0.032927 0.000000 0.000000
# 5 0.000000 0.000000 0.000000 0.000000 0.060808 0.000000
# 6 0.000000 0.000000 0.000000 0.000000 0.000000 0.049523
#
#
# Mechanical properties :
#
#
# Convention : Reuss Voigt Hill
#
# Bulk Modulus (GPa) = 55.95919 70.65791 63.30855
# Shear Modulus (GPa) = 19.75847 22.10327 20.93087
#
# Velocity S-wave (km/s) = 3.35029 3.54351 3.44825
# Velocity P-wave (km/s) = 6.83779 7.54198 7.19850
#
# Compressibility (1/GPa) = 0.01787017
#
# Stress axis : x y z
#
# Youngs Moduli (GPa) = 35.45237 51.26101 76.09863
#
# Poissons Ratio (x) = 0.33484 0.75245
# Poissons Ratio (y) = 0.23158 0.38604
# Poissons Ratio (z) = 0.35055 0.26004
#
# Static dielectric constant tensor:
#      x y z
#    x 3.231670 0.000000 0.000000 
#    y 0.000000 3.340650 0.000000 
#    z 0.000000 0.000000 3.247320 
# 
# 
# High freq. dielectric constant tensor:
#      x y z
#    x 1.666390 0.000000 0.000000 
#    y 0.000000 1.688520 0.000000 
#    z 0.000000 0.000000 1.674170 
# 
# From -- ./inp_files/55063.got.cif
#   From: 2010.03.12/outbox.cif.g09.slc.cpg/sg74_28_cif.got.tgz:55063.got - 2010.04.16 15:46:19.
