data_PCOD8298155
_publ_section_title
;
Structure prediction by ZEFSAII (Michael W. Deem and Ramdas Pophale) SiO2 
 PCOD8298155
Probable space group: I M M A
;
_chemical_formula_sum "Si O2"
_cell_formula_units_Z 96
_cell_length_a 30.000062
_cell_length_b 9.194569
_cell_length_c 20.255339
_cell_angle_alpha 90.000000
_cell_angle_beta 90.000000
_cell_angle_gamma 90.000000
_cell_volume 5587.184908
_symmetry_space_group_name_H-M "I M M A"
_symmetry_group_IT_number 74
_symmetry_cell_setting 'orthorhombic'
loop_
_space_group_symop_operation_xyz
x,y,z
-x,1/2-y,z
x,-y,-z
-x,1/2+y,-z
-x,-y,-z
x,1/2+y,-z
-x,y,z
x,1/2-y,z
1/2+x,1/2+y,1/2+z
1/2-x,-y,1/2+z
1/2+x,1/2-y,1/2-z
1/2-x,y,1/2-z
1/2-x,1/2-y,1/2-z
1/2+x,y,1/2-z
1/2-x,1/2+y,1/2+z
1/2+x,-y,1/2+z
loop_
_atom_site_type_symbol
_atom_site_label
_atom_site_fract_x
_atom_site_fract_y
_atom_site_fract_z
Si Si1 0.950855 0.413362 0.381506
Si Si2 0.134457 0.581355 0.380697
Si Si3 0.220137 0.580993 0.810480
Si Si4 0.951064 0.086727 0.224672
Si Si5 0.781014 0.579522 0.564881
Si Si6 0.634160 0.417853 0.725080
O O1 0.939702 0.250000 0.406064
O O2 0.913488 0.525401 0.407277
O O3 0.951134 0.415741 0.303077
O O4 0.000000 0.461169 0.407484
O O5 0.139536 0.750000 0.399047
O O6 0.171549 0.488419 0.417299
O O7 0.139392 0.554178 0.302854
O O8 0.209387 0.750000 0.799887
O O9 0.250000 0.522208 0.750000
O O10 0.245640 0.549457 0.877953
O O11 0.173979 0.495558 0.813387
O O12 0.941324 0.250000 0.199464
O O13 0.000000 0.035034 0.199207
O O14 0.912581 0.980886 0.197758
O O15 0.762183 0.500000 0.500000
O O16 0.787482 0.750000 0.551984
O O17 0.635419 0.250000 0.706953
#
# Coordination Sequence:
#
# PCOD8298155 Si02
#       6
#    16  16  16  16  16  16
#     4   8  14  25  42  64  90 123 163 204 246 291
#     4  10  19  30  46  70  98 128 163 203 249 296
#     4  10  20  35  54  74  97 130 169 206 246 297
#     4   8  14  25  41  62  93 132 167 199 239 291
#     4  11  23  38  55  73  97 129 165 207 251 298
#     4  10  19  28  45  73 102 130 162 207 251 289
#
# _framework density 17.182176999999999
#
# number of rings (size 3 to 8) (size 9 to 14) (size 15 to 20)
#    0.000    2.500    1.667    2.500    0.000    3.667 
#    0.000    3.333    0.000    0.500    0.000    0.000 
#    0.000    0.667    0.000    2.167    0.000    2.667 
#
# Total GULP energy -595113.612466 kJ/mol
# GULP energy per Si atom -12398.200260 kJ/mol
# Density = 1.714307 g / cm^3
# Si number density = 17.182177 Si / 1000 Ang^3
#
#
#
# Elastic Constant Matrix: (Units=GPa)
#
#
# Indices 1 2 3 4 5 6 
#
# 1 141.1463 75.8031 40.9835 0.0000 0.0000 0.0000
# 2 75.8031 106.4395 44.7158 0.0000 0.0000 0.0000
# 3 40.9835 44.7158 50.8778 0.0000 0.0000 0.0000
# 4 0.0000 0.0000 0.0000 19.8353 0.0000 0.0000
# 5 0.0000 0.0000 0.0000 0.0000 10.1542 0.0000
# 6 0.0000 0.0000 0.0000 0.0000 0.0000 24.9830
#
#
#
# Elastic Compliance Matrix: (Units=1/GPa)
#
#
# Indices 1 2 3 4 5 6 
#
# 1 0.011826 -0.007007 -0.003367 0.000000 0.000000 0.000000
# 2 -0.007007 0.019047 -0.011095 0.000000 0.000000 0.000000
# 3 -0.003367 -0.011095 0.032119 0.000000 0.000000 0.000000
# 4 0.000000 0.000000 0.000000 0.050415 0.000000 0.000000
# 5 0.000000 0.000000 0.000000 0.000000 0.098481 0.000000
# 6 0.000000 0.000000 0.000000 0.000000 0.000000 0.040027
#
#
# Mechanical properties :
#
#
# Convention : Reuss Voigt Hill
#
# Bulk Modulus (GPa) = 49.87165 69.05203 59.46184
# Shear Modulus (GPa) = 16.58164 20.12527 18.35346
#
# Velocity S-wave (km/s) = 3.10989 3.42612 3.27183
# Velocity P-wave (km/s) = 6.47947 7.47840 6.99678
#
# Compressibility (1/GPa) = 0.02005147
#
# Stress axis : x y z
#
# Youngs Moduli (GPa) = 84.55959 52.50280 31.13445
#
# Poissons Ratio (x) = 0.36791 0.10484
# Poissons Ratio (y) = 0.59255 0.34544
# Poissons Ratio (z) = 0.28475 0.58252
#
# Static dielectric constant tensor:
#      x y z
#    x 3.472820 0.000000 0.000000 
#    y 0.000000 3.286020 0.000000 
#    z 0.000000 0.000000 2.796610 
# 
# 
# High freq. dielectric constant tensor:
#      x y z
#    x 1.674670 0.000000 0.000000 
#    y 0.000000 1.669530 0.000000 
#    z 0.000000 0.000000 1.603530 
# 
# From -- ./inp_files/55057.got.cif
#   From: 2010.03.12/outbox.cif.g09.slc.cpg/sg74_28_cif.got.tgz:55057.got - 2010.04.16 15:46:19.
