data_PCOD8298767
_publ_section_title
;
Structure prediction by ZEFSAII (Michael W. Deem and Ramdas Pophale) SiO2 
 PCOD8298767
Probable space group: I M M A
;
_chemical_formula_sum "Si O2"
_cell_formula_units_Z 104
_cell_length_a 8.688707
_cell_length_b 26.818041
_cell_length_c 23.968382
_cell_angle_alpha 90.000000
_cell_angle_beta 90.000000
_cell_angle_gamma 90.000000
_cell_volume 5584.970974
_symmetry_space_group_name_H-M "I M M A"
_symmetry_group_IT_number 74
_symmetry_cell_setting 'orthorhombic'
loop_
_space_group_symop_operation_xyz
x,y,z
-x,1/2-y,z
x,-y,-z
-x,1/2+y,-z
-x,-y,-z
x,1/2+y,-z
-x,y,z
x,1/2-y,z
1/2+x,1/2+y,1/2+z
1/2-x,-y,1/2+z
1/2+x,1/2-y,1/2-z
1/2-x,y,1/2-z
1/2-x,1/2-y,1/2-z
1/2+x,y,1/2-z
1/2-x,1/2+y,1/2+z
1/2+x,-y,1/2+z
loop_
_atom_site_type_symbol
_atom_site_label
_atom_site_fract_x
_atom_site_fract_y
_atom_site_fract_z
Si Si1 0.821222 0.540870 0.616185
Si Si2 0.181727 0.624226 0.811083
Si Si3 0.177670 0.389212 0.485835
Si Si4 0.182404 0.929482 0.399347
Si Si5 0.816882 0.807167 0.596291
Si Si6 0.677116 0.250000 0.690561
Si Si7 0.181543 0.142847 0.811523
O O1 0.729721 0.570824 0.663558
O O2 0.795456 0.565328 0.556074
O O3 0.754059 0.485149 0.610913
O O4 0.000000 0.541663 0.633341
O O5 0.250000 0.630371 0.750000
O O6 0.243704 0.669954 0.848142
O O7 0.000000 0.627441 0.807931
O O8 0.256130 0.404359 0.544765
O O9 0.243945 0.338282 0.457885
O O10 0.000000 0.379906 0.497770
O O11 0.229778 0.897793 0.346536
O O12 0.000000 0.932498 0.405555
O O13 0.765041 0.750000 0.589338
O O14 0.000000 0.812717 0.601849
O O15 0.500000 0.250000 0.704118
O O16 0.750000 0.250000 0.750000
O O17 0.718819 0.302420 0.660310
O O18 0.250000 0.140350 0.750000
O O19 0.000000 0.131690 0.810534
#
# Coordination Sequence:
#
# PCOD8298767 Si02
#       7
#    16  16  16  16  16   8  16
#     4   9  18  34  55  76 104 141 176 215 261 309
#     4  11  22  36  55  79 108 141 181 224 268 320
#     4   8  15  31  54  79 105 135 174 214 256 306
#     4  10  19  32  53  82 109 135 172 215 261 313
#     4   9  18  35  58  81 109 144 180 220 265 312
#     4   8  16  32  52  68  88 124 164 200 243 294
#     4  10  20  35  53  73 100 133 171 213 260 309
#
# _framework density 18.621403999999998
#
# number of rings (size 3 to 8) (size 9 to 14) (size 15 to 20)
#    0.000    2.615    0.000    3.231    0.000    4.308 
#    1.385    3.077    0.000    4.615    0.000    0.000 
#    0.000    0.000    0.000    0.000    0.000    0.000 
#
# Total GULP energy -644427.080493 kJ/mol
# GULP energy per Si atom -12392.828471 kJ/mol
# Density = 1.857902 g / cm^3
# Si number density = 18.621404 Si / 1000 Ang^3
#
#
#
# Elastic Constant Matrix: (Units=GPa)
#
#
# Indices 1 2 3 4 5 6 
#
# 1 38.1098 29.5140 17.8521 0.0000 0.0000 0.0000
# 2 29.5140 174.4827 67.7421 0.0000 0.0000 0.0000
# 3 17.8521 67.7421 87.1709 -0.0001 0.0000 0.0000
# 4 0.0000 0.0000 -0.0001 17.7643 0.0000 0.0000
# 5 0.0000 0.0000 0.0000 0.0000 21.7295 0.0000
# 6 0.0000 0.0000 0.0000 0.0000 0.0000 22.9958
#
#
#
# Elastic Compliance Matrix: (Units=1/GPa)
#
#
# Indices 1 2 3 4 5 6 
#
# 1 0.030820 -0.003956 -0.003237 0.000000 0.000000 0.000000
# 2 -0.003956 0.008715 -0.005963 0.000000 0.000000 0.000000
# 3 -0.003237 -0.005963 0.016768 0.000000 0.000000 0.000000
# 4 0.000000 0.000000 0.000000 0.056293 0.000000 0.000000
# 5 0.000000 0.000000 0.000000 0.000000 0.046020 0.000000
# 6 0.000000 0.000000 0.000000 0.000000 0.000000 0.043486
#
#
# Mechanical properties :
#
#
# Convention : Reuss Voigt Hill
#
# Bulk Modulus (GPa) = 33.34268 58.88664 46.11466
# Shear Modulus (GPa) = 20.97196 24.80827 22.89012
#
# Velocity S-wave (km/s) = 3.35957 3.65395 3.50985
# Velocity P-wave (km/s) = 5.74399 7.03517 6.42211
#
# Compressibility (1/GPa) = 0.02999159
#
# Stress axis : x y z
#
# Youngs Moduli (GPa) = 32.44595 114.73879 59.63605
#
# Poissons Ratio (x) = 0.45396 0.19305
# Poissons Ratio (y) = 0.12837 0.35559
# Poissons Ratio (z) = 0.10503 0.68415
#
# Static dielectric constant tensor:
#      x y z
#    x 3.197690 0.000000 0.000000 
#    y 0.000000 3.904370 0.000000 
#    z 0.000000 0.000000 3.103070 
# 
# 
# High freq. dielectric constant tensor:
#      x y z
#    x 1.699870 0.000000 0.000000 
#    y 0.000000 1.737630 0.000000 
#    z 0.000000 0.000000 1.713900 
# 
# From -- ./inp_files/49301.got.cif
#   From: 2010.03.12/outbox.cif.g09.slc.cpg/sg74_25_cif.got.tgz:49301.got - 2010.04.16 15:46:19.
