data_PCOD8298487
_publ_section_title
;
Structure prediction by ZEFSAII (Michael W. Deem and Ramdas Pophale) SiO2 
 PCOD8298487
Probable space group: I M M A
;
_chemical_formula_sum "Si O2"
_cell_formula_units_Z 96
_cell_length_a 8.676394
_cell_length_b 24.948606
_cell_length_c 23.670445
_cell_angle_alpha 90.000000
_cell_angle_beta 90.000000
_cell_angle_gamma 90.000000
_cell_volume 5123.797678
_symmetry_space_group_name_H-M "I M M A"
_symmetry_group_IT_number 74
_symmetry_cell_setting 'orthorhombic'
loop_
_space_group_symop_operation_xyz
x,y,z
-x,1/2-y,z
x,-y,-z
-x,1/2+y,-z
-x,-y,-z
x,1/2+y,-z
-x,y,z
x,1/2-y,z
1/2+x,1/2+y,1/2+z
1/2-x,-y,1/2+z
1/2+x,1/2-y,1/2-z
1/2-x,y,1/2-z
1/2-x,1/2-y,1/2-z
1/2+x,y,1/2-z
1/2-x,1/2+y,1/2+z
1/2+x,-y,1/2+z
loop_
_atom_site_type_symbol
_atom_site_label
_atom_site_fract_x
_atom_site_fract_y
_atom_site_fract_z
Si Si1 0.316706 0.500509 0.689152
Si Si2 0.666504 0.439151 0.998068
Si Si3 0.180795 0.311911 0.936064
Si Si4 0.680954 0.309326 0.055941
Si Si5 0.177131 0.593838 0.894054
Si Si6 0.318644 0.596434 0.123894
O O1 0.500000 0.498553 0.689852
O O2 0.250000 0.514131 0.750000
O O3 0.256231 0.549201 0.649203
O O4 0.255947 0.441850 0.670919
O O5 0.500000 0.409105 0.011036
O O6 0.799802 0.427284 0.042727
O O7 0.624383 0.500000 0.000000
O O8 0.728817 0.428001 0.935954
O O9 0.221390 0.250000 0.925558
O O10 0.245103 0.343782 0.880732
O O11 0.000000 0.321408 0.943028
O O12 0.263689 0.332124 0.994357
O O13 0.500000 0.304375 0.057097
O O14 0.754133 0.250000 0.064897
O O15 0.735836 0.348456 0.107039
O O16 0.000000 0.604245 0.880669
O O17 0.500000 0.600000 0.135607
#
# Coordination Sequence:
#
# PCOD8298487 Si02
#       6
#    16  16  16  16  16  16
#     4  11  25  42  59  81 108 143 187 233 281 330
#     4  10  19  31  49  77 111 146 180 214 266 330
#     4  10  20  33  51  79 116 153 186 223 268 321
#     4  10  20  33  51  78 113 151 186 220 266 327
#     4  11  22  34  54  81 111 144 180 226 276 327
#     4  11  21  34  56  83 113 148 184 225 273 328
#
# _framework density 18.736103
#
# number of rings (size 3 to 8) (size 9 to 14) (size 15 to 20)
#    0.000    1.500    3.333    2.500    0.000    5.000 
#    0.000    0.000    0.000    1.000    0.000    0.000 
#    0.000    0.000    0.000    0.000    0.000    0.000 
#
# Total GULP energy -594856.322495 kJ/mol
# GULP energy per Si atom -12392.840052 kJ/mol
# Density = 1.869346 g / cm^3
# Si number density = 18.736103 Si / 1000 Ang^3
#
#
#
# Elastic Constant Matrix: (Units=GPa)
#
#
# Indices 1 2 3 4 5 6 
#
# 1 82.9297 33.4505 24.7133 0.0000 0.0000 0.0000
# 2 33.4505 110.0186 33.6426 0.0000 0.0000 0.0000
# 3 24.7133 33.6426 62.2852 -0.0001 0.0000 0.0000
# 4 0.0000 0.0000 -0.0001 19.0060 0.0000 0.0000
# 5 0.0000 0.0000 0.0000 0.0000 26.3750 0.0000
# 6 0.0000 0.0000 0.0000 0.0000 0.0000 28.5839
#
#
#
# Elastic Compliance Matrix: (Units=1/GPa)
#
#
# Indices 1 2 3 4 5 6 
#
# 1 0.014551 -0.003185 -0.004053 0.000000 0.000000 0.000000
# 2 -0.003185 0.011585 -0.004994 0.000000 0.000000 0.000000
# 3 -0.004053 -0.004994 0.020361 0.000000 0.000000 0.000000
# 4 0.000000 0.000000 0.000000 0.052615 0.000000 0.000000
# 5 0.000000 0.000000 0.000000 0.000000 0.037915 0.000000
# 6 0.000000 0.000000 0.000000 0.000000 0.000000 0.034985
#
#
# Mechanical properties :
#
#
# Convention : Reuss Voigt Hill
#
# Bulk Modulus (GPa) = 45.38659 48.76070 47.07365
# Shear Modulus (GPa) = 24.53167 25.68813 25.10990
#
# Velocity S-wave (km/s) = 3.62239 3.70679 3.66483
# Velocity P-wave (km/s) = 6.46315 6.66347 6.56407
#
# Compressibility (1/GPa) = 0.02203294
#
# Stress axis : x y z
#
# Youngs Moduli (GPa) = 68.72456 86.32087 49.11412
#
# Poissons Ratio (x) = 0.27490 0.19907
# Poissons Ratio (y) = 0.21886 0.24526
# Poissons Ratio (z) = 0.27856 0.43106
#
# Static dielectric constant tensor:
#      x y z
#    x 3.380320 0.000000 0.000000 
#    y 0.000000 3.929250 0.000000 
#    z 0.000000 0.000000 3.073360 
# 
# 
# High freq. dielectric constant tensor:
#      x y z
#    x 1.736080 0.000000 0.000000 
#    y 0.000000 1.752370 0.000000 
#    z 0.000000 0.000000 1.675070 
# 
# From -- ./inp_files/49114.got.cif
#   From: 2010.03.12/outbox.cif.g09.slc.cpg/sg74_25_cif.got.tgz:49114.got - 2010.04.16 15:46:19.
