data_PCOD8298420
_publ_section_title
;
Structure prediction by ZEFSAII (Michael W. Deem and Ramdas Pophale) SiO2 
 PCOD8298420
Probable space group: I M M A
;
_chemical_formula_sum "Si O2"
_cell_formula_units_Z 112
_cell_length_a 18.152679
_cell_length_b 14.413970
_cell_length_c 22.863463
_cell_angle_alpha 90.000000
_cell_angle_beta 90.000000
_cell_angle_gamma 90.000000
_cell_volume 5982.274720
_symmetry_space_group_name_H-M "I M M A"
_symmetry_group_IT_number 74
_symmetry_cell_setting 'orthorhombic'
loop_
_space_group_symop_operation_xyz
x,y,z
-x,1/2-y,z
x,-y,-z
-x,1/2+y,-z
-x,-y,-z
x,1/2+y,-z
-x,y,z
x,1/2-y,z
1/2+x,1/2+y,1/2+z
1/2-x,-y,1/2+z
1/2+x,1/2-y,1/2-z
1/2-x,y,1/2-z
1/2-x,1/2-y,1/2-z
1/2+x,y,1/2-z
1/2-x,1/2+y,1/2+z
1/2+x,-y,1/2+z
loop_
_atom_site_type_symbol
_atom_site_label
_atom_site_fract_x
_atom_site_fract_y
_atom_site_fract_z
Si Si1 0.585297 0.958606 0.363747
Si Si2 0.084187 0.350820 0.412470
Si Si3 0.160929 0.147580 0.966139
Si Si4 0.912407 0.644240 0.251419
Si Si5 0.586724 0.953544 0.131689
Si Si6 0.084356 0.146300 0.084798
Si Si7 0.176140 0.898866 0.478439
O O1 0.500000 0.931595 0.371760
O O2 0.630746 0.921997 0.418313
O O3 0.616939 0.913217 0.304518
O O4 0.596072 0.070825 0.363271
O O5 0.093839 0.250000 0.380721
O O6 0.106389 0.435988 0.369693
O O7 0.132588 0.346804 0.470679
O O8 0.000000 0.365930 0.432369
O O9 0.129225 0.250000 0.952857
O O10 0.249023 0.153787 0.963620
O O11 0.134925 0.116214 0.030398
O O12 0.882285 0.750000 0.249667
O O13 0.882368 0.590781 0.308504
O O14 0.000000 0.644415 0.251869
O O15 0.500000 0.936744 0.126132
O O16 0.624829 0.900521 0.078486
O O17 0.104909 0.250000 0.107818
O O18 0.000000 0.143736 0.063211
O O19 0.198352 0.000000 0.500000
#
# Coordination Sequence:
#
# PCOD8298420 Si02
#       7
#    16  16  16  16  16  16  16
#     4  10  19  33  52  71  95 128 164 199 236 282
#     4   9  17  30  49  73 100 128 158 195 241 290
#     4  11  21  31  47  73 102 129 159 196 240 288
#     4   9  18  32  50  71  94 124 163 202 238 279
#     4   9  18  33  51  71  96 128 165 201 237 283
#     4   9  18  32  50  73  99 126 157 195 240 288
#     4  10  19  31  48  71 100 130 160 197 241 287
#
# _framework density 18.721975
#
# number of rings (size 3 to 8) (size 9 to 14) (size 15 to 20)
#    0.000    2.429    0.000    3.000    0.000    5.429 
#    0.000    2.857    0.000    6.000    0.000    0.000 
#    0.000    9.143    0.000    0.000    0.000    0.000 
#
# Total GULP energy -694182.832698 kJ/mol
# GULP energy per Si atom -12396.122012 kJ/mol
# Density = 1.867936 g / cm^3
# Si number density = 18.721975 Si / 1000 Ang^3
#
#
#
# Elastic Constant Matrix: (Units=GPa)
#
#
# Indices 1 2 3 4 5 6 
#
# 1 50.4144 26.1909 25.3402 0.0000 0.0000 0.0000
# 2 26.1909 140.6363 80.0039 0.0000 0.0000 0.0000
# 3 25.3402 80.0039 106.7032 0.0000 0.0000 0.0000
# 4 0.0000 0.0000 0.0000 28.6357 0.0000 0.0000
# 5 0.0000 0.0000 0.0000 0.0000 1.2957 0.0000
# 6 0.0000 0.0000 0.0000 0.0000 0.0000 18.4836
#
#
#
# Elastic Compliance Matrix: (Units=1/GPa)
#
#
# Indices 1 2 3 4 5 6 
#
# 1 0.022854 -0.002038 -0.003900 0.000000 0.000000 0.000000
# 2 -0.002038 0.012581 -0.008949 0.000000 0.000000 0.000000
# 3 -0.003900 -0.008949 0.017008 0.000000 0.000000 0.000000
# 4 0.000000 0.000000 0.000000 0.034921 0.000000 0.000000
# 5 0.000000 0.000000 0.000000 0.000000 0.771786 0.000000
# 6 0.000000 0.000000 0.000000 0.000000 0.000000 0.054102
#
#
# Mechanical properties :
#
#
# Convention : Reuss Voigt Hill
#
# Bulk Modulus (GPa) = 44.11093 62.31376 53.21235
# Shear Modulus (GPa) = 5.25994 20.76425 13.01210
#
# Velocity S-wave (km/s) = 1.67797 3.33391 2.63918
# Velocity P-wave (km/s) = 5.23128 6.94089 6.14582
#
# Compressibility (1/GPa) = 0.02267012
#
# Stress axis : x y z
#
# Youngs Moduli (GPa) = 43.75531 79.48624 58.79743
#
# Poissons Ratio (x) = 0.16198 0.22929
# Poissons Ratio (y) = 0.08917 0.52617
# Poissons Ratio (z) = 0.17063 0.71131
#
# Static dielectric constant tensor:
#      x y z
#    x 3.194780 0.000000 0.000000 
#    y 0.000000 3.724320 0.000000 
#    z 0.000000 0.000000 3.291660 
# 
# 
# High freq. dielectric constant tensor:
#      x y z
#    x 1.705280 0.000000 0.000000 
#    y 0.000000 1.747840 0.000000 
#    z 0.000000 0.000000 1.696330 
# 
# From -- ./inp_files/60184.got.cif
#   From: 2010.03.12/outbox.cif.g09.slc.cpg/sg74_31_cif.got.tgz:60184.got - 2010.04.16 15:46:19.
