data_PCOD8298043
_publ_section_title
;
Structure prediction by ZEFSAII (Michael W. Deem and Ramdas Pophale) SiO2 
 PCOD8298043
Probable space group: I M M A
;
_chemical_formula_sum "Si O2"
_cell_formula_units_Z 96
_cell_length_a 13.640711
_cell_length_b 14.526992
_cell_length_c 21.950988
_cell_angle_alpha 90.000000
_cell_angle_beta 90.000000
_cell_angle_gamma 90.000000
_cell_volume 4349.774846
_symmetry_space_group_name_H-M "I M M A"
_symmetry_group_IT_number 74
_symmetry_cell_setting 'orthorhombic'
loop_
_space_group_symop_operation_xyz
x,y,z
-x,1/2-y,z
x,-y,-z
-x,1/2+y,-z
-x,-y,-z
x,1/2+y,-z
-x,y,z
x,1/2-y,z
1/2+x,1/2+y,1/2+z
1/2-x,-y,1/2+z
1/2+x,1/2-y,1/2-z
1/2-x,y,1/2-z
1/2-x,1/2-y,1/2-z
1/2+x,y,1/2-z
1/2-x,1/2+y,1/2+z
1/2+x,-y,1/2+z
loop_
_atom_site_type_symbol
_atom_site_label
_atom_site_fract_x
_atom_site_fract_y
_atom_site_fract_z
Si Si1 0.112989 0.517368 0.624075
Si Si2 0.665837 0.348684 0.701646
Si Si3 0.894509 0.033492 0.234613
Si Si4 0.717005 0.643904 0.636899
Si Si5 0.108048 0.356716 0.016868
Si Si6 0.769675 0.646858 0.425238
O O1 0.133082 0.509768 0.696063
O O2 0.184971 0.601103 0.605750
O O3 0.140939 0.423962 0.587440
O O4 0.000000 0.540591 0.608675
O O5 0.614661 0.250000 0.717119
O O6 0.750000 0.369976 0.750000
O O7 0.591855 0.433975 0.702734
O O8 0.708872 0.342250 0.635218
O O9 0.813788 0.095351 0.200371
O O10 0.000000 0.084434 0.231540
O O11 0.738758 0.750000 0.651314
O O12 0.630132 0.630071 0.588400
O O13 0.104307 0.250000 0.999818
O O14 0.000000 0.400521 0.003624
O O15 0.195405 0.398328 0.975267
O O16 0.808640 0.750000 0.444540
#
# Coordination Sequence:
#
# PCOD8298043 Si02
#       6
#    16  16  16  16  16  16
#     4  11  24  41  61  89 123 160 211 263 307 364
#     4  10  18  33  57  84 123 166 202 241 294 363
#     4  11  22  37  60  91 125 161 206 255 310 376
#     4  11  23  43  66  88 123 165 208 264 323 366
#     4   9  20  40  66  96 127 160 202 250 305 376
#     4  10  20  38  64  91 127 165 197 243 305 371
#
# _framework density 22.070107
#
# number of rings (size 3 to 8) (size 9 to 14) (size 15 to 20)
#    0.000    1.667    3.333    1.000    0.000    4.667 
#    0.000    7.500    0.000    3.000    0.000    0.000 
#    0.000    0.000    0.000    0.000    0.000    0.000 
#
# Total GULP energy -594672.765469 kJ/mol
# GULP energy per Si atom -12389.015947 kJ/mol
# Density = 2.201987 g / cm^3
# Si number density = 22.070107 Si / 1000 Ang^3
#
#
#
# Elastic Constant Matrix: (Units=GPa)
#
#
# Indices 1 2 3 4 5 6 
#
# 1 132.6007 48.2460 28.2695 0.0000 0.0000 0.0000
# 2 48.2460 123.7337 12.9299 0.0000 0.0000 0.0000
# 3 28.2695 12.9299 67.6851 0.0000 0.0000 0.0000
# 4 0.0000 0.0000 0.0000 24.4234 0.0000 0.0000
# 5 0.0000 0.0000 0.0000 0.0000 28.6635 0.0000
# 6 0.0000 0.0000 0.0000 0.0000 0.0000 28.0221
#
#
#
# Elastic Compliance Matrix: (Units=1/GPa)
#
#
# Indices 1 2 3 4 5 6 
#
# 1 0.009465 -0.003344 -0.003314 0.000000 0.000000 0.000000
# 2 -0.003344 0.009428 -0.000404 0.000000 0.000000 0.000000
# 3 -0.003314 -0.000404 0.016236 0.000000 0.000000 0.000000
# 4 0.000000 0.000000 0.000000 0.040944 0.000000 0.000000
# 5 0.000000 0.000000 0.000000 0.000000 0.034888 0.000000
# 6 0.000000 0.000000 0.000000 0.000000 0.000000 0.035686
#
#
# Mechanical properties :
#
#
# Convention : Reuss Voigt Hill
#
# Bulk Modulus (GPa) = 47.61184 55.87893 51.74539
# Shear Modulus (GPa) = 29.80217 31.86008 30.83113
#
# Velocity S-wave (km/s) = 3.67869 3.80358 3.74165
# Velocity P-wave (km/s) = 6.29789 6.68307 6.49334
#
# Compressibility (1/GPa) = 0.02100318
#
# Stress axis : x y z
#
# Youngs Moduli (GPa) = 105.65503 106.06620 61.59234
#
# Poissons Ratio (x) = 0.35470 0.20413
# Poissons Ratio (y) = 0.35333 0.02490
# Poissons Ratio (z) = 0.35017 0.04289
#
# Static dielectric constant tensor:
#      x y z
#    x 3.869420 0.000000 0.000000 
#    y 0.000000 4.312900 0.000000 
#    z 0.000000 0.000000 5.823490 
# 
# 
# High freq. dielectric constant tensor:
#      x y z
#    x 1.853290 0.000000 0.000000 
#    y 0.000000 1.865050 0.000000 
#    z 0.000000 0.000000 1.864660 
# 
# From -- ./inp_files/51929.got.cif
#   From: 2010.03.12/outbox.cif.g09.slc.cpg/sg74_26_cif.got.tgz:51929.got - 2010.04.16 15:46:19.
