data_PCOD8298476
_publ_section_title
;
Structure prediction by ZEFSAII (Michael W. Deem and Ramdas Pophale) SiO2 
 PCOD8298476
Probable space group: I M M A
;
_chemical_formula_sum "Si O2"
_cell_formula_units_Z 104
_cell_length_a 26.059999
_cell_length_b 8.942957
_cell_length_c 21.645523
_cell_angle_alpha 90.000000
_cell_angle_beta 90.000000
_cell_angle_gamma 90.000000
_cell_volume 5044.563823
_symmetry_space_group_name_H-M "I M M A"
_symmetry_group_IT_number 74
_symmetry_cell_setting 'orthorhombic'
loop_
_space_group_symop_operation_xyz
x,y,z
-x,1/2-y,z
x,-y,-z
-x,1/2+y,-z
-x,-y,-z
x,1/2+y,-z
-x,y,z
x,1/2-y,z
1/2+x,1/2+y,1/2+z
1/2-x,-y,1/2+z
1/2+x,1/2-y,1/2-z
1/2-x,y,1/2-z
1/2-x,1/2-y,1/2-z
1/2+x,y,1/2-z
1/2-x,1/2+y,1/2+z
1/2+x,-y,1/2+z
loop_
_atom_site_type_symbol
_atom_site_label
_atom_site_fract_x
_atom_site_fract_y
_atom_site_fract_z
Si Si1 0.292037 0.080716 0.437848
Si Si2 0.128951 0.922011 0.435452
Si Si3 0.500000 0.073016 0.432967
Si Si4 0.144972 0.072524 0.752753
Si Si5 0.106946 0.078768 0.126392
Si Si6 0.708130 0.926281 0.845158
Si Si7 0.555316 0.078958 0.831871
O O1 0.275175 0.250000 0.448519
O O2 0.353480 0.064583 0.430730
O O3 0.263513 0.026374 0.374434
O O4 0.273213 0.000000 0.500000
O O5 0.147372 0.750000 0.441548
O O6 0.073594 0.931135 0.402635
O O7 0.122627 0.000000 0.500000
O O8 0.168497 0.015515 0.395448
O O9 0.500000 0.250000 0.442520
O O10 0.449235 0.021465 0.395124
O O11 0.500000 0.000000 0.500000
O O12 0.150695 0.250000 0.748565
O O13 0.097228 0.006416 0.713370
O O14 0.132692 0.023961 0.821873
O O15 0.196738 0.002184 0.721986
O O16 0.103511 0.250000 0.149588
O O17 0.703622 0.750000 0.835144
O O18 0.500000 0.997600 0.824984
O O19 0.549463 0.250000 0.811568
#
# Coordination Sequence:
#
# PCOD8298476 Si02
#       7
#    16  16   8  16  16  16  16
#     4  10  22  38  59  85 114 151 191 235 285 341
#     4  10  19  31  49  74 105 141 184 230 282 338
#     4  10  22  40  64  90 120 156 193 240 293 346
#     4  10  21  36  57  85 113 147 190 234 283 337
#     4  10  22  40  59  85 119 152 189 234 289 347
#     4  10  20  36  57  80 110 149 188 232 286 337
#     4   8  16  31  49  70 100 136 176 226 276 326
#
# _framework density 20.616253
#
# number of rings (size 3 to 8) (size 9 to 14) (size 15 to 20)
#    0.000    2.308    0.000    3.231    1.077    4.615 
#    0.000    3.077    0.000    8.769    0.000    0.000 
#    0.000    0.000    0.000    0.000    0.000    0.000 
#
# Total GULP energy -644419.291971 kJ/mol
# GULP energy per Si atom -12392.678692 kJ/mol
# Density = 2.056933 g / cm^3
# Si number density = 20.616253 Si / 1000 Ang^3
#
#
#
# Elastic Constant Matrix: (Units=GPa)
#
#
# Indices 1 2 3 4 5 6 
#
# 1 117.4968 34.9571 30.8048 0.0000 0.0000 0.0000
# 2 34.9571 68.6414 39.3640 0.0000 0.0000 0.0000
# 3 30.8048 39.3640 104.5795 0.0000 0.0000 0.0000
# 4 0.0000 0.0000 0.0000 36.7923 0.0000 0.0000
# 5 0.0000 0.0000 0.0000 0.0000 22.1870 0.0000
# 6 0.0000 0.0000 0.0000 0.0000 0.0000 19.8602
#
#
#
# Elastic Compliance Matrix: (Units=1/GPa)
#
#
# Indices 1 2 3 4 5 6 
#
# 1 0.010175 -0.004416 -0.001335 0.000000 0.000000 0.000000
# 2 -0.004416 0.020496 -0.006414 0.000000 0.000000 0.000000
# 3 -0.001335 -0.006414 0.012369 0.000000 0.000000 0.000000
# 4 0.000000 0.000000 0.000000 0.027180 0.000000 0.000000
# 5 0.000000 0.000000 0.000000 0.000000 0.045071 0.000000
# 6 0.000000 0.000000 0.000000 0.000000 0.000000 0.050352
#
#
# Mechanical properties :
#
#
# Convention : Reuss Voigt Hill
#
# Bulk Modulus (GPa) = 53.44665 55.66327 54.55496
# Shear Modulus (GPa) = 25.48303 28.14069 26.81186
#
# Velocity S-wave (km/s) = 3.51959 3.69857 3.61019
# Velocity P-wave (km/s) = 6.51901 6.73034 6.62552
#
# Compressibility (1/GPa) = 0.01871025
#
# Stress axis : x y z
#
# Youngs Moduli (GPa) = 98.28284 48.79079 80.84443
#
# Poissons Ratio (x) = 0.21547 0.10791
# Poissons Ratio (y) = 0.43404 0.51852
# Poissons Ratio (z) = 0.13119 0.31293
#
# Static dielectric constant tensor:
#      x y z
#    x 4.107880 0.000000 0.000000 
#    y 0.000000 3.551860 0.000000 
#    z 0.000000 0.000000 3.671660 
# 
# 
# High freq. dielectric constant tensor:
#      x y z
#    x 1.815170 0.000000 0.000000 
#    y 0.000000 1.788050 0.000000 
#    z 0.000000 0.000000 1.805880 
# 
# From -- ./inp_files/55257.got.cif
#   From: 2010.03.12/outbox.cif.g09.slc.cpg/sg74_28_cif.got.tgz:55257.got - 2010.04.16 15:46:19.
