data_PCOD8298788
_publ_section_title
;
Structure prediction by ZEFSAII (Michael W. Deem and Ramdas Pophale) SiO2 
 PCOD8298788
Probable space group: I M M A
;
_chemical_formula_sum "Si O2"
_cell_formula_units_Z 80
_cell_length_a 7.901974
_cell_length_b 20.513534
_cell_length_c 27.731551
_cell_angle_alpha 90.000000
_cell_angle_beta 90.000000
_cell_angle_gamma 90.000000
_cell_volume 4495.212657
_symmetry_space_group_name_H-M "I M M A"
_symmetry_group_IT_number 74
_symmetry_cell_setting 'orthorhombic'
loop_
_space_group_symop_operation_xyz
x,y,z
-x,1/2-y,z
x,-y,-z
-x,1/2+y,-z
-x,-y,-z
x,1/2+y,-z
-x,y,z
x,1/2-y,z
1/2+x,1/2+y,1/2+z
1/2-x,-y,1/2+z
1/2+x,1/2-y,1/2-z
1/2-x,y,1/2-z
1/2-x,1/2-y,1/2-z
1/2+x,y,1/2-z
1/2-x,1/2+y,1/2+z
1/2+x,-y,1/2+z
loop_
_atom_site_type_symbol
_atom_site_label
_atom_site_fract_x
_atom_site_fract_y
_atom_site_fract_z
Si Si1 0.500000 0.323193 0.036979
Si Si2 0.312017 0.976722 0.199531
Si Si3 0.812024 0.368942 0.300411
Si Si4 0.810418 0.522577 0.098026
Si Si5 0.310374 0.630320 0.598207
Si Si6 0.500000 0.060817 0.964371
O O1 0.500000 0.250000 0.016554
O O2 0.330010 0.331815 0.068131
O O3 0.500000 0.371513 0.992211
O O4 0.500000 0.951458 0.188808
O O5 0.250000 0.945100 0.250000
O O6 0.197507 0.955476 0.154109
O O7 0.308124 0.053857 0.205052
O O8 0.750000 0.337338 0.250000
O O9 0.697059 0.347783 0.345675
O O10 0.000000 0.343635 0.311176
O O11 0.769458 0.446154 0.093412
O O12 0.670609 0.560638 0.067305
O O13 0.000000 0.538340 0.078879
O O14 0.500000 0.646202 0.579257
O O15 0.500000 0.000000 0.000000
#
# Coordination Sequence:
#
# PCOD8298788 Si02
#       6
#     8  16  16  16  16   8
#     4  12  26  42  58  78 106 142 184 232 283 328
#     4   9  15  24  41  71 115 151 172 208 264 322
#     4   9  15  24  43  73 105 137 178 221 268 317
#     4  10  19  32  54  83 113 142 182 225 271 324
#     4  10  19  34  55  79 106 140 183 226 273 326
#     4  12  22  38  60  80 108 142 186 236 274 323
#
# _framework density 17.796710000000001
#
# number of rings (size 3 to 8) (size 9 to 14) (size 15 to 20)
#    0.000    2.000    4.000    1.200    0.000    6.400 
#    0.000    0.000    0.000    0.600    0.000    0.000 
#    0.000    0.800    0.000    0.000    0.000    0.000 
#
# Total GULP energy -495800.052404 kJ/mol
# GULP energy per Si atom -12395.001310 kJ/mol
# Density = 1.775620 g / cm^3
# Si number density = 17.796710 Si / 1000 Ang^3
#
#
#
# Elastic Constant Matrix: (Units=GPa)
#
#
# Indices 1 2 3 4 5 6 
#
# 1 128.8190 30.3367 51.4765 0.0000 0.0000 0.0000
# 2 30.3367 55.9357 41.3339 0.0000 0.0000 0.0000
# 3 51.4765 41.3339 102.2628 0.0000 0.0000 0.0000
# 4 0.0000 0.0000 0.0000 7.8615 0.0000 0.0000
# 5 0.0000 0.0000 0.0000 0.0000 31.3483 0.0000
# 6 0.0000 0.0000 0.0000 0.0000 0.0000 7.0887
#
#
#
# Elastic Compliance Matrix: (Units=1/GPa)
#
#
# Indices 1 2 3 4 5 6 
#
# 1 0.009941 -0.002415 -0.004028 0.000000 0.000000 0.000000
# 2 -0.002415 0.026078 -0.009325 0.000000 0.000000 0.000000
# 3 -0.004028 -0.009325 0.015575 0.000000 0.000000 0.000000
# 4 0.000000 0.000000 0.000000 0.127202 0.000000 0.000000
# 5 0.000000 0.000000 0.000000 0.000000 0.031900 0.000000
# 6 0.000000 0.000000 0.000000 0.000000 0.000000 0.141070
#
#
# Mechanical properties :
#
#
# Convention : Reuss Voigt Hill
#
# Bulk Modulus (GPa) = 49.85355 59.25685 54.55520
# Shear Modulus (GPa) = 12.82087 20.18438 16.50263
#
# Velocity S-wave (km/s) = 2.68695 3.37139 3.04844
# Velocity P-wave (km/s) = 6.14002 6.96590 6.56596
#
# Compressibility (1/GPa) = 0.02005875
#
# Stress axis : x y z
#
# Youngs Moduli (GPa) = 100.59179 38.34620 64.20393
#
# Poissons Ratio (x) = 0.09261 0.25861
# Poissons Ratio (y) = 0.24294 0.59870
# Poissons Ratio (z) = 0.40518 0.35758
#
# Static dielectric constant tensor:
#      x y z
#    x 3.489940 0.000000 0.000000 
#    y 0.000000 2.613290 0.000000 
#    z 0.000000 0.000000 3.450360 
# 
# 
# High freq. dielectric constant tensor:
#      x y z
#    x 1.709380 0.000000 0.000000 
#    y 0.000000 1.598630 0.000000 
#    z 0.000000 0.000000 1.694370 
# 
# From -- ./inp_files/56865.got.cif
#   From: 2010.03.12/outbox.cif.g09.slc.cpg/sg74_29_cif.got.tgz:56865.got - 2010.04.16 15:46:19.
