data_PCOD8298290
_publ_section_title
;
Structure prediction by ZEFSAII (Michael W. Deem and Ramdas Pophale) SiO2 
 PCOD8298290
Probable space group: I M M A
;
_chemical_formula_sum "Si O2"
_cell_formula_units_Z 88
_cell_length_a 25.902894
_cell_length_b 37.357698
_cell_length_c 4.972187
_cell_angle_alpha 90.000000
_cell_angle_beta 90.000000
_cell_angle_gamma 90.000000
_cell_volume 4811.448582
_symmetry_space_group_name_H-M "I M M A"
_symmetry_group_IT_number 74
_symmetry_cell_setting 'orthorhombic'
loop_
_space_group_symop_operation_xyz
x,y,z
-x,1/2-y,z
x,-y,-z
-x,1/2+y,-z
-x,-y,-z
x,1/2+y,-z
-x,y,z
x,1/2-y,z
1/2+x,1/2+y,1/2+z
1/2-x,-y,1/2+z
1/2+x,1/2-y,1/2-z
1/2-x,y,1/2-z
1/2-x,1/2-y,1/2-z
1/2+x,y,1/2-z
1/2-x,1/2+y,1/2+z
1/2+x,-y,1/2+z
loop_
_atom_site_type_symbol
_atom_site_label
_atom_site_fract_x
_atom_site_fract_y
_atom_site_fract_z
Si Si1 0.558717 0.976266 0.760836
Si Si2 0.658778 0.820142 0.198204
Si Si3 0.212035 0.750000 0.490829
Si Si4 0.558345 0.141839 0.843596
Si Si5 0.594336 0.600745 0.642017
Si Si6 0.192513 0.359913 0.198245
O O1 0.500000 0.965162 0.829497
O O2 0.591144 0.940345 0.725279
O O3 0.561948 0.000000 0.500000
O O4 0.582702 0.000000 0.000000
O O5 0.674084 0.783756 0.044367
O O6 0.596704 0.825011 0.238308
O O7 0.688877 0.826459 0.483597
O O8 0.673980 0.851211 0.996155
O O9 0.250000 0.750000 0.250000
O O10 0.250000 0.750000 0.750000
O O11 0.500000 0.156708 0.831703
O O12 0.564889 0.108658 0.636893
O O13 0.569392 0.127244 0.140410
O O14 0.655204 0.608709 0.592825
O O15 0.250000 0.373781 0.250000
#
# Coordination Sequence:
#
# PCOD8298290 Si02
#       6
#    16  16   8  16  16  16
#     4  10  19  30  46  69  98 128 158 197 246 297
#     4  10  21  33  50  77 100 128 166 203 249 302
#     4  12  22  34  53  74 103 134 162 204 255 300
#     4  10  19  33  52  73 100 130 165 206 246 293
#     4  10  20  32  51  75  98 130 167 203 246 297
#     4  10  19  34  53  73  99 127 165 211 249 287
#
# _framework density 18.289709999999999
#
# number of rings (size 3 to 8) (size 9 to 14) (size 15 to 20)
#    0.000    1.818    0.000    6.000    0.000    1.455 
#    0.000    0.455    0.000    1.091    0.000    8.909 
#    0.000    0.000    0.000    0.000    0.000    0.000 
#
# Total GULP energy -545306.535745 kJ/mol
# GULP energy per Si atom -12393.330358 kJ/mol
# Density = 1.824808 g / cm^3
# Si number density = 18.289710 Si / 1000 Ang^3
#
#
#
# Elastic Constant Matrix: (Units=GPa)
#
#
# Indices 1 2 3 4 5 6 
#
# 1 136.9759 48.2678 28.0645 0.0000 0.0000 0.0000
# 2 48.2678 91.4971 12.0486 0.0000 0.0000 0.0000
# 3 28.0645 12.0486 94.4104 0.0000 0.0000 0.0000
# 4 0.0000 0.0000 0.0000 26.7612 0.0000 0.0000
# 5 0.0000 0.0000 0.0000 0.0000 24.0024 0.0000
# 6 0.0000 0.0000 0.0000 0.0000 0.0000 21.8219
#
#
#
# Elastic Compliance Matrix: (Units=1/GPa)
#
#
# Indices 1 2 3 4 5 6 
#
# 1 0.009395 -0.004667 -0.002197 0.000000 0.000000 0.000000
# 2 -0.004667 0.013434 -0.000327 0.000000 0.000000 0.000000
# 3 -0.002197 -0.000327 0.011287 0.000000 0.000000 0.000000
# 4 0.000000 0.000000 0.000000 0.037368 0.000000 0.000000
# 5 0.000000 0.000000 0.000000 0.000000 0.041662 0.000000
# 6 0.000000 0.000000 0.000000 0.000000 0.000000 0.045825
#
#
# Mechanical properties :
#
#
# Convention : Reuss Voigt Hill
#
# Bulk Modulus (GPa) = 50.67445 55.51612 53.09529
# Shear Modulus (GPa) = 27.78813 30.15060 28.96936
#
# Velocity S-wave (km/s) = 3.90209 4.06458 3.98416
# Velocity P-wave (km/s) = 6.93314 7.24206 7.08928
#
# Compressibility (1/GPa) = 0.01973381
#
# Stress axis : x y z
#
# Youngs Moduli (GPa) = 106.43611 74.43585 88.59772
#
# Poissons Ratio (x) = 0.34739 0.19467
# Poissons Ratio (y) = 0.49674 0.02899
# Poissons Ratio (z) = 0.23387 0.02435
#
# Static dielectric constant tensor:
#      x y z
#    x 3.648740 0.000000 0.000000 
#    y 0.000000 2.769200 0.000000 
#    z 0.000000 0.000000 3.624230 
# 
# 
# High freq. dielectric constant tensor:
#      x y z
#    x 1.702340 0.000000 0.000000 
#    y 0.000000 1.673230 0.000000 
#    z 0.000000 0.000000 1.736270 
# 
# From -- ./inp_files/4610.got.cif
#   From: 2010.03.12/outbox.cif.g09.slc.cpg/sg74_3_cif.got.tgz:4610.got - 2010.04.16 15:46:19.
