data_PCOD8298724
_publ_section_title
;
Structure prediction by ZEFSAII (Michael W. Deem and Ramdas Pophale) SiO2 
 PCOD8298724
Probable space group: I M M A
;
_chemical_formula_sum "Si O2"
_cell_formula_units_Z 96
_cell_length_a 9.404001
_cell_length_b 28.866661
_cell_length_c 19.328453
_cell_angle_alpha 90.000000
_cell_angle_beta 90.000000
_cell_angle_gamma 90.000000
_cell_volume 5246.942613
_symmetry_space_group_name_H-M "I M M A"
_symmetry_group_IT_number 74
_symmetry_cell_setting 'orthorhombic'
loop_
_space_group_symop_operation_xyz
x,y,z
-x,1/2-y,z
x,-y,-z
-x,1/2+y,-z
-x,-y,-z
x,1/2+y,-z
-x,y,z
x,1/2-y,z
1/2+x,1/2+y,1/2+z
1/2-x,-y,1/2+z
1/2+x,1/2-y,1/2-z
1/2-x,y,1/2-z
1/2-x,1/2-y,1/2-z
1/2+x,y,1/2-z
1/2-x,1/2+y,1/2+z
1/2+x,-y,1/2+z
loop_
_atom_site_type_symbol
_atom_site_label
_atom_site_fract_x
_atom_site_fract_y
_atom_site_fract_z
Si Si1 0.335483 0.644020 0.085926
Si Si2 0.333642 0.302900 0.180548
Si Si3 0.835433 0.945192 0.320346
Si Si4 0.331432 0.623952 0.932011
Si Si5 0.669382 0.979543 0.927719
Si Si6 0.658168 0.304348 0.687269
O O1 0.500000 0.659276 0.087798
O O2 0.309065 0.598124 0.129982
O O3 0.238741 0.684971 0.116126
O O4 0.279576 0.636883 0.008491
O O5 0.500000 0.310824 0.194613
O O6 0.304408 0.250000 0.156665
O O7 0.250000 0.314788 0.250000
O O8 0.274407 0.337749 0.121908
O O9 0.750000 0.939609 0.250000
O O10 0.000000 0.950385 0.300969
O O11 0.779609 0.989882 0.362699
O O12 0.500000 0.623377 0.930613
O O13 0.273338 0.572578 0.914474
O O14 0.500000 0.980282 0.932739
O O15 0.730616 0.000000 0.000000
O O16 0.500000 0.326583 0.688676
O O17 0.645080 0.250000 0.696373
O O18 0.750000 0.326187 0.750000
#
# Coordination Sequence:
#
# PCOD8298724 Si02
#       6
#    16  16  16  16  16  16
#     4  10  19  32  52  77 102 131 167 209 257 307
#     4   9  18  33  52  75 104 135 169 214 264 312
#     4  10  20  32  50  76 103 133 169 209 254 304
#     4   9  17  30  52  78 101 132 175 214 253 305
#     4   9  15  29  51  73  99 132 171 213 252 297
#     4  10  21  36  52  71  98 133 171 210 252 298
#
# _framework density 18.296368999999999
#
# number of rings (size 3 to 8) (size 9 to 14) (size 15 to 20)
#    0.000    2.500    1.667    1.000    0.000    4.333 
#    0.000    2.500    0.000    3.500    0.000    0.000 
#    0.000    0.000    0.000    0.000    0.000    0.000 
#
# Total GULP energy -595120.231063 kJ/mol
# GULP energy per Si atom -12398.338147 kJ/mol
# Density = 1.825473 g / cm^3
# Si number density = 18.296369 Si / 1000 Ang^3
#
#
#
# Elastic Constant Matrix: (Units=GPa)
#
#
# Indices 1 2 3 4 5 6 
#
# 1 58.7562 27.5344 46.0253 0.0000 0.0000 0.0000
# 2 27.5344 81.4821 60.3591 0.0000 0.0000 0.0000
# 3 46.0253 60.3591 146.4077 -0.0002 0.0000 0.0001
# 4 0.0000 0.0000 -0.0002 36.0068 0.0000 0.0000
# 5 0.0000 0.0000 0.0000 0.0000 24.1283 0.0000
# 6 0.0000 0.0000 0.0001 0.0000 0.0000 15.2468
#
#
#
# Elastic Compliance Matrix: (Units=1/GPa)
#
#
# Indices 1 2 3 4 5 6 
#
# 1 0.023260 -0.003518 -0.005862 0.000000 0.000000 0.000000
# 2 -0.003518 0.018200 -0.006398 0.000000 0.000000 0.000000
# 3 -0.005862 -0.006398 0.011310 0.000000 0.000000 0.000000
# 4 0.000000 0.000000 0.000000 0.027773 0.000000 0.000000
# 5 0.000000 0.000000 0.000000 0.000000 0.041445 0.000000
# 6 0.000000 0.000000 0.000000 0.000000 0.000000 0.065587
#
#
# Mechanical properties :
#
#
# Convention : Reuss Voigt Hill
#
# Bulk Modulus (GPa) = 47.13326 61.60930 54.37128
# Shear Modulus (GPa) = 22.10416 25.25821 23.68118
#
# Velocity S-wave (km/s) = 3.47957 3.71954 3.60156
# Velocity P-wave (km/s) = 6.47766 7.22445 6.86123
#
# Compressibility (1/GPa) = 0.02121644
#
# Stress axis : x y z
#
# Youngs Moduli (GPa) = 42.99295 54.94369 88.41346
#
# Poissons Ratio (x) = 0.19327 0.51826
# Poissons Ratio (y) = 0.15124 0.56564
# Poissons Ratio (z) = 0.25201 0.35151
#
# Static dielectric constant tensor:
#      x y z
#    x 3.104730 0.000000 0.000000 
#    y 0.000000 3.542740 0.000000 
#    z 0.000000 0.000000 3.522270 
# 
# 
# High freq. dielectric constant tensor:
#      x y z
#    x 1.669190 0.000000 0.000000 
#    y 0.000000 1.715100 0.000000 
#    z 0.000000 0.000000 1.712710 
# 
# From -- ./inp_files/49097.got.cif
#   From: 2010.03.12/outbox.cif.g09.slc.cpg/sg74_25_cif.got.tgz:49097.got - 2010.04.16 15:46:19.
