data_PCOD8298096
_publ_section_title
;
Structure prediction by ZEFSAII (Michael W. Deem and Ramdas Pophale) SiO2 
 PCOD8298096
Probable space group: I M M A
;
_chemical_formula_sum "Si O2"
_cell_formula_units_Z 96
_cell_length_a 17.349701
_cell_length_b 19.853236
_cell_length_c 14.332660
_cell_angle_alpha 90.000000
_cell_angle_beta 90.000000
_cell_angle_gamma 90.000000
_cell_volume 4936.851893
_symmetry_space_group_name_H-M "I M M A"
_symmetry_group_IT_number 74
_symmetry_cell_setting 'orthorhombic'
loop_
_space_group_symop_operation_xyz
x,y,z
-x,1/2-y,z
x,-y,-z
-x,1/2+y,-z
-x,-y,-z
x,1/2+y,-z
-x,y,z
x,1/2-y,z
1/2+x,1/2+y,1/2+z
1/2-x,-y,1/2+z
1/2+x,1/2-y,1/2-z
1/2-x,y,1/2-z
1/2-x,1/2-y,1/2-z
1/2+x,y,1/2-z
1/2-x,1/2+y,1/2+z
1/2+x,-y,1/2+z
loop_
_atom_site_type_symbol
_atom_site_label
_atom_site_fract_x
_atom_site_fract_y
_atom_site_fract_z
Si Si1 0.616634 0.000000 0.000000
Si Si2 0.089169 0.250000 0.226675
Si Si3 0.347982 0.250000 0.073371
Si Si4 0.170250 0.888170 0.805009
Si Si5 0.413468 0.750000 0.120794
Si Si6 0.233269 0.614658 0.527064
Si Si7 0.085239 0.010502 0.704633
Si Si8 0.807808 0.631012 0.324034
O O1 0.665926 0.938507 0.960294
O O2 0.567733 0.013864 0.907254
O O3 0.098431 0.250000 0.337275
O O4 0.127827 0.183110 0.185430
O O5 0.000000 0.250000 0.198842
O O6 0.292671 0.314415 0.070518
O O7 0.409410 0.250000 0.990324
O O8 0.250000 0.880316 0.750000
O O9 0.191947 0.909394 0.912631
O O10 0.115247 0.941486 0.752155
O O11 0.500000 0.750000 0.156659
O O12 0.375208 0.817039 0.158448
O O13 0.245650 0.618550 0.415469
O O14 0.000000 0.025939 0.748253
O O15 0.152576 0.065039 0.721481
O O16 0.750000 0.662682 0.250000
#
# Coordination Sequence:
#
# PCOD8298096 Si02
#       8
#     8   8   8  16   8  16  16  16
#     4  10  19  34  54  84 113 150 188 234 293 340
#     4  12  23  34  56  85 122 158 188 229 283 347
#     4  10  18  35  53  87 119 150 180 225 287 354
#     4  12  21  37  57  83 118 157 194 228 280 348
#     4  10  20  36  60  87 120 145 180 242 306 355
#     4  10  21  34  59  84 111 149 194 234 283 335
#     4  11  22  35  55  84 120 152 189 240 294 345
#     4  10  22  39  61  85 111 150 199 243 291 343
#
# _framework density 19.445591
#
# number of rings (size 3 to 8) (size 9 to 14) (size 15 to 20)
#    0.000    1.333    3.333    3.000    2.333    0.000 
#    0.000    5.000    0.000    6.000    0.000    0.000 
#    0.000    0.000    0.000    0.000    0.000    0.000 
#
# Total GULP energy -594707.528866 kJ/mol
# GULP energy per Si atom -12389.740185 kJ/mol
# Density = 1.940133 g / cm^3
# Si number density = 19.445591 Si / 1000 Ang^3
#
#
#
# Elastic Constant Matrix: (Units=GPa)
#
#
# Indices 1 2 3 4 5 6 
#
# 1 104.6721 23.2547 63.1211 0.0000 0.0000 0.0000
# 2 23.2547 98.8731 29.5746 0.0000 0.0000 0.0000
# 3 63.1211 29.5746 88.6193 0.0000 0.0000 0.0000
# 4 0.0000 0.0000 0.0000 37.7291 0.0000 0.0000
# 5 0.0000 0.0000 0.0000 0.0000 25.1017 0.0000
# 6 0.0000 0.0000 0.0000 0.0000 0.0000 73.0460
#
#
#
# Elastic Compliance Matrix: (Units=1/GPa)
#
#
# Indices 1 2 3 4 5 6 
#
# 1 0.016762 -0.000412 -0.011801 0.000000 0.000000 0.000000
# 2 -0.000412 0.011246 -0.003459 0.000000 0.000000 0.000000
# 3 -0.011801 -0.003459 0.020845 0.000000 0.000000 0.000000
# 4 0.000000 0.000000 0.000000 0.026505 0.000000 0.000000
# 5 0.000000 0.000000 0.000000 0.000000 0.039838 0.000000
# 6 0.000000 0.000000 0.000000 0.000000 0.000000 0.013690
#
#
# Mechanical properties :
#
#
# Convention : Reuss Voigt Hill
#
# Bulk Modulus (GPa) = 57.12329 58.22947 57.67638
# Shear Modulus (GPa) = 30.10845 38.92297 34.51571
#
# Velocity S-wave (km/s) = 3.93917 4.47882 4.21763
# Velocity P-wave (km/s) = 7.08019 7.53367 7.31045
#
# Compressibility (1/GPa) = 0.01750599
#
# Stress axis : x y z
#
# Youngs Moduli (GPa) = 59.65884 88.92298 47.97423
#
# Poissons Ratio (x) = 0.03667 0.56617
# Poissons Ratio (y) = 0.02460 0.16596
# Poissons Ratio (z) = 0.70406 0.30761
#
# Static dielectric constant tensor:
#      x y z
#    x 3.377970 0.000000 0.000000 
#    y 0.000000 3.699900 0.000000 
#    z 0.000000 0.000000 3.659460 
# 
# 
# High freq. dielectric constant tensor:
#      x y z
#    x 1.741250 0.000000 0.000000 
#    y 0.000000 1.769200 0.000000 
#    z 0.000000 0.000000 1.746830 
# 
# From -- ./inp_files/32487.got.cif
#   From: 2010.03.12/outbox.cif.g09.slc.cpg/sg74_17_cif.got.tgz:32487.got - 2010.04.16 15:46:19.
