data_PCOD8298004
_publ_section_title
;
Structure prediction by ZEFSAII (Michael W. Deem and Ramdas Pophale) SiO2 
 PCOD8298004
Probable space group: I M M A
;
_chemical_formula_sum "Si O2"
_cell_formula_units_Z 88
_cell_length_a 20.799906
_cell_length_b 17.083723
_cell_length_c 12.997691
_cell_angle_alpha 90.000000
_cell_angle_beta 90.000000
_cell_angle_gamma 90.000000
_cell_volume 4618.597343
_symmetry_space_group_name_H-M "I M M A"
_symmetry_group_IT_number 74
_symmetry_cell_setting 'orthorhombic'
loop_
_space_group_symop_operation_xyz
x,y,z
-x,1/2-y,z
x,-y,-z
-x,1/2+y,-z
-x,-y,-z
x,1/2+y,-z
-x,y,z
x,1/2-y,z
1/2+x,1/2+y,1/2+z
1/2-x,-y,1/2+z
1/2+x,1/2-y,1/2-z
1/2-x,y,1/2-z
1/2-x,1/2-y,1/2-z
1/2+x,y,1/2-z
1/2-x,1/2+y,1/2+z
1/2+x,-y,1/2+z
loop_
_atom_site_type_symbol
_atom_site_label
_atom_site_fract_x
_atom_site_fract_y
_atom_site_fract_z
Si Si1 0.876204 0.159032 0.752235
Si Si2 0.250000 0.559469 0.750000
Si Si3 0.639430 0.839905 0.648864
Si Si4 0.500000 0.156813 0.395851
Si Si5 0.000000 0.842774 0.125272
Si Si6 0.817745 0.050166 0.590150
Si Si7 0.290621 0.837527 0.443762
O O1 0.882254 0.250000 0.717810
O O2 0.867935 0.102774 0.653801
O O3 0.816241 0.147436 0.828619
O O4 0.938588 0.128384 0.811331
O O5 0.310873 0.611196 0.716114
O O6 0.225233 0.506373 0.658590
O O7 0.646322 0.750000 0.683690
O O8 0.565278 0.869436 0.664124
O O9 0.653077 0.849426 0.527040
O O10 0.500000 0.250000 0.406074
O O11 0.500000 0.120318 0.511071
O O12 0.000000 0.750000 0.116087
O O13 0.768409 0.106651 0.530666
O O14 0.853373 0.000000 0.500000
O O15 0.263287 0.750000 0.450907
#
# Coordination Sequence:
#
# PCOD8298004 Si02
#       7
#    16   8  16   8   8  16  16
#     4  10  19  34  57  85 111 140 183 235 293 344
#     4  12  23  36  55  78 120 158 190 224 279 340
#     4  10  20  35  57  87 117 149 185 228 280 342
#     4   9  16  32  59  87 116 142 179 236 289 333
#     4   9  16  30  58  89 111 136 178 238 295 335
#     4  12  23  36  52  76 112 152 189 231 282 331
#     4  10  18  32  57  85 111 139 179 230 286 338
#
# _framework density 19.053405000000001
#
# number of rings (size 3 to 8) (size 9 to 14) (size 15 to 20)
#    0.000    1.636    5.455    0.818    0.000    1.455 
#    0.000    1.364    0.000    2.182    0.000    3.818 
#    0.000    0.000    0.000    0.000    0.000    0.000 
#
# Total GULP energy -545418.867877 kJ/mol
# GULP energy per Si atom -12395.883361 kJ/mol
# Density = 1.901004 g / cm^3
# Si number density = 19.053405 Si / 1000 Ang^3
#
#
#
# Elastic Constant Matrix: (Units=GPa)
#
#
# Indices 1 2 3 4 5 6 
#
# 1 115.9354 41.2979 29.9519 0.0000 0.0000 0.0000
# 2 41.2979 72.1478 34.6751 0.0000 0.0000 0.0000
# 3 29.9519 34.6751 61.3111 0.0000 0.0000 0.0000
# 4 0.0000 0.0000 0.0000 -41.7686 0.0000 0.0000
# 5 0.0000 0.0000 0.0000 0.0000 27.8341 0.0000
# 6 0.0000 0.0000 0.0000 0.0000 0.0000 7.0830
#
#
#
# Elastic Compliance Matrix: (Units=1/GPa)
#
#
# Indices 1 2 3 4 5 6 
#
# 1 0.011110 -0.005151 -0.002514 0.000000 0.000000 0.000000
# 2 -0.005151 0.021422 -0.009599 0.000000 0.000000 0.000000
# 3 -0.002514 -0.009599 0.022967 0.000000 0.000000 0.000000
# 4 0.000000 0.000000 0.000000 -0.023941 0.000000 0.000000
# 5 0.000000 0.000000 0.000000 0.000000 0.035927 0.000000
# 6 0.000000 0.000000 0.000000 0.000000 0.000000 0.141183
#
#
# Mechanical properties :
#
#
# Convention : Reuss Voigt Hill
#
# Bulk Modulus (GPa) = 47.68542 51.24934 49.46738
# Shear Modulus (GPa) = 19.98496 8.19433 14.08965
#
# Velocity S-wave (km/s) = 3.24217 2.07607 2.72229
# Velocity P-wave (km/s) = 6.25277 5.71864 5.99166
#
# Compressibility (1/GPa) = 0.02097077
#
# Stress axis : x y z
#
# Youngs Moduli (GPa) = 90.00964 46.68008 43.53982
#
# Poissons Ratio (x) = 0.24045 0.10947
# Poissons Ratio (y) = 0.46364 0.41795
# Poissons Ratio (z) = 0.22631 0.44809
#
# Static dielectric constant tensor:
#      x y z
#    x 3.446010 0.000000 0.000000 
#    y 0.000000 3.484200 0.000000 
#    z 0.000000 0.000000 3.377340 
# 
# 
# High freq. dielectric constant tensor:
#      x y z
#    x 1.727620 0.000000 0.000000 
#    y 0.000000 1.734360 0.000000 
#    z 0.000000 0.000000 1.722810 
# 
# From -- ./inp_files/23720.got.cif
#   From: 2010.03.12/outbox.cif.g09.slc.cpg/sg74_12_cif.got.tgz:23720.got - 2010.04.16 15:46:19.
