data_PCOD8298784
_publ_section_title
;
Structure prediction by ZEFSAII (Michael W. Deem and Ramdas Pophale) SiO2 
 PCOD8298784
Probable space group: I M M A
;
_chemical_formula_sum "Si O2"
_cell_formula_units_Z 112
_cell_length_a 20.508893
_cell_length_b 21.289665
_cell_length_c 12.900587
_cell_angle_alpha 90.000000
_cell_angle_beta 90.000000
_cell_angle_gamma 90.000000
_cell_volume 5632.750554
_symmetry_space_group_name_H-M "I M M A"
_symmetry_group_IT_number 74
_symmetry_cell_setting 'orthorhombic'
loop_
_space_group_symop_operation_xyz
x,y,z
-x,1/2-y,z
x,-y,-z
-x,1/2+y,-z
-x,-y,-z
x,1/2+y,-z
-x,y,z
x,1/2-y,z
1/2+x,1/2+y,1/2+z
1/2-x,-y,1/2+z
1/2+x,1/2-y,1/2-z
1/2-x,y,1/2-z
1/2-x,1/2-y,1/2-z
1/2+x,y,1/2-z
1/2-x,1/2+y,1/2+z
1/2+x,-y,1/2+z
loop_
_atom_site_type_symbol
_atom_site_label
_atom_site_fract_x
_atom_site_fract_y
_atom_site_fract_z
Si Si1 0.926381 0.677791 0.867295
Si Si2 0.924638 0.350941 0.745113
Si Si3 0.077024 0.181195 0.517458
Si Si4 0.645325 0.471585 0.777782
Si Si5 0.922619 0.901710 0.669595
Si Si6 0.161963 0.178776 0.937438
Si Si7 0.265760 0.550578 0.409169
O O1 0.921513 0.750000 0.835400
O O2 0.902150 0.639501 0.768097
O O3 0.000000 0.658957 0.896833
O O4 0.883126 0.661375 0.965801
O O5 0.897670 0.326911 0.634535
O O6 0.915433 0.425875 0.744995
O O7 0.881170 0.319371 0.833646
O O8 0.000000 0.333347 0.764265
O O9 0.097482 0.250000 0.477328
O O10 0.104440 0.130898 0.435252
O O11 0.000000 0.173371 0.519557
O O12 0.616128 0.534412 0.823388
O O13 0.684261 0.481011 0.671370
O O14 0.693627 0.442391 0.863094
O O15 0.000000 0.912970 0.665527
O O16 0.191938 0.250000 0.949601
O O17 0.215364 0.123075 0.935981
O O18 0.266025 0.500000 0.500000
#
# Coordination Sequence:
#
# PCOD8298784 Si02
#       7
#    16  16  16  16  16  16  16
#     4   9  17  30  53  86 117 142 170 211 271 336
#     4  10  20  34  54  83 115 142 173 220 276 332
#     4   9  18  31  48  75 111 146 173 206 263 327
#     4  10  22  37  55  80 103 143 191 225 274 325
#     4  10  19  32  54  82 112 142 176 222 270 331
#     4  10  20  36  59  84 110 144 185 227 272 327
#     4  10  22  40  59  76 107 148 188 234 279 315
#
# _framework density 19.883713
#
# number of rings (size 3 to 8) (size 9 to 14) (size 15 to 20)
#    0.000    2.286    0.000    2.571    2.000    3.143 
#    0.000    8.571    0.000    6.857    0.000    5.000 
#    0.000    0.000    0.000    0.000    0.000    0.000 
#
# Total GULP energy -694153.202237 kJ/mol
# GULP energy per Si atom -12395.592897 kJ/mol
# Density = 1.983846 g / cm^3
# Si number density = 19.883713 Si / 1000 Ang^3
#
#
#
# Elastic Constant Matrix: (Units=GPa)
#
#
# Indices 1 2 3 4 5 6 
#
# 1 36.4837 18.7474 19.4156 0.0000 0.0000 0.0000
# 2 18.7474 82.7978 17.3154 0.0000 0.0000 0.0000
# 3 19.4156 17.3154 88.2561 0.0000 0.0000 0.0000
# 4 0.0000 0.0000 0.0000 31.8613 0.0000 0.0000
# 5 0.0000 0.0000 0.0000 0.0000 6.5771 0.0000
# 6 0.0000 0.0000 0.0000 0.0000 0.0000 19.9460
#
#
#
# Elastic Compliance Matrix: (Units=1/GPa)
#
#
# Indices 1 2 3 4 5 6 
#
# 1 0.034011 -0.006399 -0.006227 0.000000 0.000000 0.000000
# 2 -0.006399 0.013798 -0.001299 0.000000 0.000000 0.000000
# 3 -0.006227 -0.001299 0.012955 0.000000 0.000000 0.000000
# 4 0.000000 0.000000 0.000000 0.031386 0.000000 0.000000
# 5 0.000000 0.000000 0.000000 0.000000 0.152044 0.000000
# 6 0.000000 0.000000 0.000000 0.000000 0.000000 0.050135
#
#
# Mechanical properties :
#
#
# Convention : Reuss Voigt Hill
#
# Bulk Modulus (GPa) = 30.38136 35.38826 32.88481
# Shear Modulus (GPa) = 15.00816 21.81413 18.41115
#
# Velocity S-wave (km/s) = 2.75034 3.31582 3.04623
# Velocity P-wave (km/s) = 5.03969 5.70051 5.38026
#
# Compressibility (1/GPa) = 0.03291491
#
# Stress axis : x y z
#
# Youngs Moduli (GPa) = 29.40200 72.47322 77.18756
#
# Poissons Ratio (x) = 0.46374 0.48063
# Poissons Ratio (y) = 0.18814 0.10030
# Poissons Ratio (z) = 0.18308 0.09418
#
# Static dielectric constant tensor:
#      x y z
#    x 3.404070 0.000000 0.000000 
#    y 0.000000 3.663840 0.000000 
#    z 0.000000 0.000000 3.816920 
# 
# 
# High freq. dielectric constant tensor:
#      x y z
#    x 1.749420 0.000000 0.000000 
#    y 0.000000 1.783840 0.000000 
#    z 0.000000 0.000000 1.789180 
# 
# From -- ./inp_files/25358.got.cif
#   From: 2010.03.12/outbox.cif.g09.slc.cpg/sg74_13_cif.got.tgz:25358.got - 2010.04.16 15:46:19.
