data_PCOD8298483
_publ_section_title
;
Structure prediction by ZEFSAII (Michael W. Deem and Ramdas Pophale) SiO2 
 PCOD8298483
Probable space group: I M M A
;
_chemical_formula_sum "Si O2"
_cell_formula_units_Z 128
_cell_length_a 27.662343
_cell_length_b 23.407678
_cell_length_c 10.455623
_cell_angle_alpha 90.000000
_cell_angle_beta 90.000000
_cell_angle_gamma 90.000000
_cell_volume 6770.133180
_symmetry_space_group_name_H-M "I M M A"
_symmetry_group_IT_number 74
_symmetry_cell_setting 'orthorhombic'
loop_
_space_group_symop_operation_xyz
x,y,z
-x,1/2-y,z
x,-y,-z
-x,1/2+y,-z
-x,-y,-z
x,1/2+y,-z
-x,y,z
x,1/2-y,z
1/2+x,1/2+y,1/2+z
1/2-x,-y,1/2+z
1/2+x,1/2-y,1/2-z
1/2-x,y,1/2-z
1/2-x,1/2-y,1/2-z
1/2+x,y,1/2-z
1/2-x,1/2+y,1/2+z
1/2+x,-y,1/2+z
loop_
_atom_site_type_symbol
_atom_site_label
_atom_site_fract_x
_atom_site_fract_y
_atom_site_fract_z
Si Si1 0.786191 0.929399 0.645486
Si Si2 0.556038 0.487949 0.689488
Si Si3 0.603377 0.416617 0.899302
Si Si4 0.892531 0.087358 0.316811
Si Si5 0.212461 0.565004 0.357995
Si Si6 0.442984 0.121289 0.549410
Si Si7 0.057486 0.315365 0.199736
Si Si8 0.057149 0.685326 0.302334
O O1 0.750000 0.903798 0.750000
O O2 0.835833 0.903201 0.698733
O O3 0.773065 0.911006 0.499373
O O4 0.786443 0.997307 0.648201
O O5 0.500000 0.505789 0.679171
O O6 0.564084 0.450670 0.816644
O O7 0.587008 0.545871 0.704072
O O8 0.571075 0.446553 0.568743
O O9 0.656495 0.418232 0.833339
O O10 0.585410 0.350943 0.909288
O O11 0.602050 0.441897 0.043089
O O12 0.919744 0.148531 0.315917
O O13 0.250000 0.589595 0.250000
O O14 0.500000 0.124863 0.540325
O O15 0.421253 0.151107 0.423957
O O16 0.425451 0.159549 0.667214
O O17 0.075870 0.250000 0.201262
O O18 0.000000 0.316728 0.208258
O O19 0.074905 0.750000 0.311978
O O20 0.000000 0.680585 0.322149
#
# Coordination Sequence:
#
# PCOD8298483 Si02
#       8
#    16  16  16  16  16  16  16  16
#     4   9  18  35  53  75 106 135 172 220 270 322
#     4  10  19  31  49  76 107 139 173 208 258 318
#     4  10  19  32  49  74 108 140 170 213 267 317
#     4  11  21  33  50  75 108 140 170 209 263 322
#     4   9  17  33  55  75 101 139 178 215 266 330
#     4   8  16  32  50  68  97 137 177 220 263 298
#     4  10  21  36  52  72 103 145 186 218 255 310
#     4   9  17  30  50  74 100 136 183 225 257 300
#
# _framework density 18.906571
#
# number of rings (size 3 to 8) (size 9 to 14) (size 15 to 20)
#    0.000    2.500    1.250    2.250    0.000    5.000 
#    4.500    4.375    0.000    0.750    0.000    0.000 
#    0.000    0.000    0.000    0.000    0.000    0.000 
#
# Total GULP energy -792972.035350 kJ/mol
# GULP energy per Si atom -12390.188052 kJ/mol
# Density = 1.886354 g / cm^3
# Si number density = 18.906571 Si / 1000 Ang^3
#
#
#
# Elastic Constant Matrix: (Units=GPa)
#
#
# Indices 1 2 3 4 5 6 
#
# 1 63.5439 26.4671 35.5112 0.0000 0.0000 0.0000
# 2 26.4671 85.6595 16.1808 0.0000 0.0000 0.0000
# 3 35.5112 16.1808 62.7260 0.0000 0.0000 0.0000
# 4 0.0000 0.0000 0.0000 19.4250 0.0000 0.0000
# 5 0.0000 0.0000 0.0000 0.0000 24.1883 0.0000
# 6 0.0000 0.0000 0.0000 0.0000 0.0000 16.1936
#
#
#
# Elastic Compliance Matrix: (Units=1/GPa)
#
#
# Indices 1 2 3 4 5 6 
#
# 1 0.025148 -0.005341 -0.012859 0.000000 0.000000 0.000000
# 2 -0.005341 0.013407 -0.000435 0.000000 0.000000 0.000000
# 3 -0.012859 -0.000435 0.023335 0.000000 0.000000 0.000000
# 4 0.000000 0.000000 0.000000 0.051480 0.000000 0.000000
# 5 0.000000 0.000000 0.000000 0.000000 0.041342 0.000000
# 6 0.000000 0.000000 0.000000 0.000000 0.000000 0.061753
#
#
# Mechanical properties :
#
#
# Convention : Reuss Voigt Hill
#
# Bulk Modulus (GPa) = 40.61893 40.91641 40.76767
# Shear Modulus (GPa) = 19.08824 20.87939 19.98381
#
# Velocity S-wave (km/s) = 3.18088 3.32678 3.25465
# Velocity P-wave (km/s) = 5.91788 6.03696 5.97772
#
# Compressibility (1/GPa) = 0.02461907
#
# Stress axis : x y z
#
# Youngs Moduli (GPa) = 39.76407 74.59042 42.85484
#
# Poissons Ratio (x) = 0.39841 0.55109
# Poissons Ratio (y) = 0.21239 0.01862
# Poissons Ratio (z) = 0.51134 0.03241
#
# Static dielectric constant tensor:
#      x y z
#    x 3.293030 0.000000 0.000000 
#    y 0.000000 3.476510 0.000000 
#    z 0.000000 0.000000 3.824390 
# 
# 
# High freq. dielectric constant tensor:
#      x y z
#    x 1.702350 0.000000 0.000000 
#    y 0.000000 1.715290 0.000000 
#    z 0.000000 0.000000 1.742140 
# 
# From -- ./inp_files/26615.got.cif
#   From: 2010.03.12/outbox.cif.g09.slc.cpg/sg74_14_cif.got.tgz:26615.got - 2010.04.16 15:46:19.
