data_PCOD8298524
_publ_section_title
;
Structure prediction by ZEFSAII (Michael W. Deem and Ramdas Pophale) SiO2 
 PCOD8298524
Probable space group: I M M A
;
_chemical_formula_sum "Si O2"
_cell_formula_units_Z 96
_cell_length_a 30.656215
_cell_length_b 15.372392
_cell_length_c 11.395513
_cell_angle_alpha 90.000000
_cell_angle_beta 90.000000
_cell_angle_gamma 90.000000
_cell_volume 5370.242097
_symmetry_space_group_name_H-M "I M M A"
_symmetry_group_IT_number 74
_symmetry_cell_setting 'orthorhombic'
loop_
_space_group_symop_operation_xyz
x,y,z
-x,1/2-y,z
x,-y,-z
-x,1/2+y,-z
-x,-y,-z
x,1/2+y,-z
-x,y,z
x,1/2-y,z
1/2+x,1/2+y,1/2+z
1/2-x,-y,1/2+z
1/2+x,1/2-y,1/2-z
1/2-x,y,1/2-z
1/2-x,1/2-y,1/2-z
1/2+x,y,1/2-z
1/2-x,1/2+y,1/2+z
1/2+x,-y,1/2+z
loop_
_atom_site_type_symbol
_atom_site_label
_atom_site_fract_x
_atom_site_fract_y
_atom_site_fract_z
Si Si1 0.289072 0.347776 0.827153
Si Si2 0.953231 0.250000 0.369951
Si Si3 0.748948 0.906653 0.942950
Si Si4 0.615498 0.900210 0.129200
Si Si5 0.892806 0.596941 0.641098
Si Si6 0.190391 0.350759 0.241058
Si Si7 0.449968 0.250000 0.853686
O O1 0.296645 0.250000 0.782351
O O2 0.250000 0.392278 0.750000
O O3 0.336222 0.394831 0.812058
O O4 0.272453 0.344103 0.960720
O O5 0.932609 0.340450 0.327805
O O6 0.956232 0.250000 0.508948
O O7 0.000000 0.250000 0.310024
O O8 0.795126 0.870819 0.893208
O O9 0.716608 0.911238 0.832372
O O10 0.755423 0.000000 0.000000
O O11 0.579470 0.833965 0.182748
O O12 0.595172 0.995458 0.151727
O O13 0.623868 0.882246 0.990876
O O14 0.859287 0.623747 0.742328
O O15 0.199398 0.250000 0.270438
O O16 0.500000 0.250000 0.798513
#
# Coordination Sequence:
#
# PCOD8298524 Si02
#       7
#    16   8  16  16  16  16   8
#     4  11  22  34  49  70 104 146 180 217 261 308
#     4   9  18  32  50  75 102 130 165 220 278 327
#     4  11  23  33  49  74 103 138 186 226 258 305
#     4  10  19  32  48  73 105 138 181 218 263 323
#     4  10  19  31  51  73 102 138 173 219 264 318
#     4  11  21  36  55  74 102 146 192 224 262 320
#     4   9  18  32  51  70  99 139 176 217 267 329
#
# _framework density 17.876290999999998
#
# number of rings (size 3 to 8) (size 9 to 14) (size 15 to 20)
#    0.000    1.667    3.333    3.000    4.667    0.667 
#    0.000    3.333    0.000    0.000    0.000    0.000 
#    0.000    3.333    0.000    0.000    0.000    0.000 
#
# Total GULP energy -594767.165618 kJ/mol
# GULP energy per Si atom -12390.982617 kJ/mol
# Density = 1.783560 g / cm^3
# Si number density = 17.876291 Si / 1000 Ang^3
#
#
#
# Elastic Constant Matrix: (Units=GPa)
#
#
# Indices 1 2 3 4 5 6 
#
# 1 151.5145 64.7511 30.8222 0.0000 0.0000 0.0000
# 2 64.7511 128.3282 21.6406 0.0000 0.0000 0.0000
# 3 30.8222 21.6406 40.3309 0.0000 0.0000 0.0000
# 4 0.0000 0.0000 0.0000-6074.0249 0.0000 0.0000
# 5 0.0000 0.0000 0.0000 0.0000 18.4346 0.0000
# 6 0.0000 0.0000 0.0000 0.0000 0.0000 14.8115
#
#
#
# Elastic Compliance Matrix: (Units=1/GPa)
#
#
# Indices 1 2 3 4 5 6 
#
# 1 0.009256 -0.003823 -0.005022 0.000000 0.000000 0.000000
# 2 -0.003823 0.010147 -0.002523 0.000000 0.000000 0.000000
# 3 -0.005022 -0.002523 0.029986 0.000000 0.000000 0.000000
# 4 0.000000 0.000000 0.000000 -0.000165 0.000000 0.000000
# 5 0.000000 0.000000 0.000000 0.000000 0.054246 0.000000
# 6 0.000000 0.000000 0.000000 0.000000 0.000000 0.067515
#
#
# Mechanical properties :
#
#
# Convention : Reuss Voigt Hill
#
# Bulk Modulus (GPa) = 37.51909 61.62238 49.57074
# Shear Modulus (GPa) = 24.67853 -1194.62508 -584.97328
#
# Velocity S-wave (km/s) = 3.71956 -25.87903 -18.10924
# Velocity P-wave (km/s) = 6.28336 29.29879 20.23535
#
# Compressibility (1/GPa) = 0.02665310
#
# Stress axis : x y z
#
# Youngs Moduli (GPa) = 108.04372 98.55075 33.34839
#
# Poissons Ratio (x) = 0.37678 0.16747
# Poissons Ratio (y) = 0.41308 0.08413
# Poissons Ratio (z) = 0.54259 0.24863
#
# Static dielectric constant tensor:
#      x y z
#    x 3.508390 0.000000 0.000000 
#    y 0.000000 3.396820 0.000000 
#    z 0.000000 0.000000 3.062730 
# 
# 
# High freq. dielectric constant tensor:
#      x y z
#    x 1.679950 0.000000 0.000000 
#    y 0.000000 1.709730 0.000000 
#    z 0.000000 0.000000 1.635080 
# 
# From -- ./inp_files/27144.got.cif
#   From: 2010.03.12/outbox.cif.g09.slc.cpg/sg74_14_cif.got.tgz:27144.got - 2010.04.16 15:46:19.
