data_PCOD8298832
_publ_section_title
;
Structure prediction by ZEFSAII (Michael W. Deem and Ramdas Pophale) SiO2 
 PCOD8298832
Probable space group: I M M A
;
_chemical_formula_sum "Si O2"
_cell_formula_units_Z 88
_cell_length_a 34.947836
_cell_length_b 9.581378
_cell_length_c 14.456679
_cell_angle_alpha 90.000000
_cell_angle_beta 90.000000
_cell_angle_gamma 90.000000
_cell_volume 4840.796223
_symmetry_space_group_name_H-M "I M M A"
_symmetry_group_IT_number 74
_symmetry_cell_setting 'orthorhombic'
loop_
_space_group_symop_operation_xyz
x,y,z
-x,1/2-y,z
x,-y,-z
-x,1/2+y,-z
-x,-y,-z
x,1/2+y,-z
-x,y,z
x,1/2-y,z
1/2+x,1/2+y,1/2+z
1/2-x,-y,1/2+z
1/2+x,1/2-y,1/2-z
1/2-x,y,1/2-z
1/2-x,1/2-y,1/2-z
1/2+x,y,1/2-z
1/2-x,1/2+y,1/2+z
1/2+x,-y,1/2+z
loop_
_atom_site_type_symbol
_atom_site_label
_atom_site_fract_x
_atom_site_fract_y
_atom_site_fract_z
Si Si1 0.353733 0.915874 0.905765
Si Si2 0.573287 0.085372 0.211539
Si Si3 0.707626 0.084651 0.237713
Si Si4 0.668889 0.595083 0.580098
Si Si5 0.921614 0.093481 0.083425
Si Si6 0.500000 0.414930 0.093941
O O1 0.356268 0.750000 0.925071
O O2 0.388267 0.966296 0.839187
O O3 0.313551 0.959034 0.857307
O O4 0.357127 0.000000 0.000000
O O5 0.575940 0.250000 0.223064
O O6 0.568683 0.025424 0.316107
O O7 0.537030 0.038929 0.151597
O O8 0.710024 0.250000 0.240042
O O9 0.750000 0.018980 0.250000
O O10 0.681771 0.030668 0.322297
O O11 0.686701 0.500000 0.500000
O O12 0.685988 0.750000 0.567170
O O13 0.623664 0.599530 0.574629
O O14 0.938739 0.250000 0.074017
O O15 0.938969 0.000000 0.000000
O O16 0.500000 0.250000 0.072592
O O17 0.500000 0.500000 0.000000
#
# Coordination Sequence:
#
# PCOD8298832 Si02
#       6
#    16  16  16  16  16   8
#     4  10  19  33  51  71  96 127 163 201 241 287
#     4   9  17  32  53  73  98 132 165 196 238 294
#     4   9  17  30  48  68  92 125 161 193 233 290
#     4   9  16  28  47  68  89 117 153 192 231 275
#     4   9  16  29  49  72  95 122 157 194 232 278
#     4  10  20  34  53  76 100 130 167 204 241 286
#
# _framework density 18.178829
#
# number of rings (size 3 to 8) (size 9 to 14) (size 15 to 20)
#    0.000    2.727    1.818    0.545    0.000    0.727 
#    0.000    3.182    0.000    1.091    0.000    0.000 
#    0.000    0.000    0.000    0.000    0.000    0.000 
#
# Total GULP energy -545330.047219 kJ/mol
# GULP energy per Si atom -12393.864710 kJ/mol
# Density = 1.813745 g / cm^3
# Si number density = 18.178829 Si / 1000 Ang^3
#
#
#
# Elastic Constant Matrix: (Units=GPa)
#
#
# Indices 1 2 3 4 5 6 
#
# 1 84.8408 19.2494 47.3894 0.0000 0.0000 0.0000
# 2 19.2494 45.9981 55.0627 0.0000 0.0000 0.0000
# 3 47.3894 55.0627 181.6484 0.0000 0.0000 0.0000
# 4 0.0000 0.0000 0.0000 34.7640 0.0000 0.0000
# 5 0.0000 0.0000 0.0000 0.0000 23.9839 0.0000
# 6 0.0000 0.0000 0.0000 0.0000 0.0000 8.0228
#
#
#
# Elastic Compliance Matrix: (Units=1/GPa)
#
#
# Indices 1 2 3 4 5 6 
#
# 1 0.013954 -0.002326 -0.002935 0.000000 0.000000 0.000000
# 2 -0.002326 0.034509 -0.009854 0.000000 0.000000 0.000000
# 3 -0.002935 -0.009854 0.009258 0.000000 0.000000 0.000000
# 4 0.000000 0.000000 0.000000 0.028765 0.000000 0.000000
# 5 0.000000 0.000000 0.000000 0.000000 0.041695 0.000000
# 6 0.000000 0.000000 0.000000 0.000000 0.000000 0.124644
#
#
# Mechanical properties :
#
#
# Convention : Reuss Voigt Hill
#
# Bulk Modulus (GPa) = 36.37537 61.76559 49.07048
# Shear Modulus (GPa) = 17.11042 26.07318 21.59180
#
# Velocity S-wave (km/s) = 3.07127 3.79127 3.45011
# Velocity P-wave (km/s) = 5.71228 7.29489 6.55155
#
# Compressibility (1/GPa) = 0.02749113
#
# Stress axis : x y z
#
# Youngs Moduli (GPa) = 71.66357 28.97784 108.01491
#
# Poissons Ratio (x) = 0.06739 0.31707
# Poissons Ratio (y) = 0.16666 1.06438
# Poissons Ratio (z) = 0.21037 0.28555
#
# Static dielectric constant tensor:
#      x y z
#    x 3.445700 0.000000 0.000000 
#    y 0.000000 3.144280 0.000000 
#    z 0.000000 0.000000 3.615670 
# 
# 
# High freq. dielectric constant tensor:
#      x y z
#    x 1.694550 0.000000 0.000000 
#    y 0.000000 1.655910 0.000000 
#    z 0.000000 0.000000 1.720000 
# 
# From -- ./inp_files/26978.got.cif
#   From: 2010.03.12/outbox.cif.g09.slc.cpg/sg74_14_cif.got.tgz:26978.got - 2010.04.16 15:46:19.
