data_PCOD8298438
_publ_section_title
;
Structure prediction by ZEFSAII (Michael W. Deem and Ramdas Pophale) SiO2 
 PCOD8298438
Probable space group: I M M A
;
_chemical_formula_sum "Si O2"
_cell_formula_units_Z 112
_cell_length_a 31.482760
_cell_length_b 14.571488
_cell_length_c 12.276613
_cell_angle_alpha 90.000000
_cell_angle_beta 90.000000
_cell_angle_gamma 90.000000
_cell_volume 5631.904311
_symmetry_space_group_name_H-M "I M M A"
_symmetry_group_IT_number 74
_symmetry_cell_setting 'orthorhombic'
loop_
_space_group_symop_operation_xyz
x,y,z
-x,1/2-y,z
x,-y,-z
-x,1/2+y,-z
-x,-y,-z
x,1/2+y,-z
-x,y,z
x,1/2-y,z
1/2+x,1/2+y,1/2+z
1/2-x,-y,1/2+z
1/2+x,1/2-y,1/2-z
1/2-x,y,1/2-z
1/2-x,1/2-y,1/2-z
1/2+x,y,1/2-z
1/2-x,1/2+y,1/2+z
1/2+x,-y,1/2+z
loop_
_atom_site_type_symbol
_atom_site_label
_atom_site_fract_x
_atom_site_fract_y
_atom_site_fract_z
Si Si1 0.826886 0.642791 0.475777
Si Si2 0.047989 0.017152 0.279235
Si Si3 0.362346 0.519925 0.842785
Si Si4 0.237898 0.145135 0.870903
Si Si5 0.428560 0.145251 0.645807
Si Si6 0.048523 0.150138 0.092194
Si Si7 0.846894 0.544296 0.112816
O O1 0.840868 0.750000 0.468540
O O2 0.837454 0.600732 0.594477
O O3 0.851174 0.582185 0.385935
O O4 0.776673 0.632982 0.454776
O O5 0.047437 0.912295 0.238877
O O6 0.000000 0.042513 0.322063
O O7 0.086423 0.031918 0.365076
O O8 0.065933 0.076957 0.177825
O O9 0.348546 0.526178 0.715589
O O10 0.222483 0.250000 0.867393
O O11 0.250000 0.112326 0.750000
O O12 0.199806 0.082064 0.911864
O O13 0.438638 0.250000 0.671764
O O14 0.447184 0.113648 0.530007
O O15 0.378100 0.127541 0.645433
O O16 0.071633 0.250000 0.104521
O O17 0.000000 0.163347 0.122324
O O18 0.863141 0.500000 0.000000
#
# Coordination Sequence:
#
# PCOD8298438 Si02
#       7
#    16  16  16  16  16  16  16
#     4  10  22  42  65  85 112 153 202 250 295 352
#     4  10  20  34  53  80 114 148 194 252 302 353
#     4  10  22  39  61  89 114 157 203 239 303 360
#     4  10  20  36  60  87 113 149 196 245 296 347
#     4  10  19  31  48  75 116 158 199 243 293 350
#     4   9  17  30  50  75 108 155 199 235 288 359
#     4  11  22  34  56  89 124 157 192 241 298 359
#
# _framework density 19.886700999999999
#
# number of rings (size 3 to 8) (size 9 to 14) (size 15 to 20)
#    0.000    2.000    1.429    3.000    2.000    4.857 
#    0.000    2.857    0.000    2.571    0.000    0.000 
#    0.000    0.000    0.000    0.000    0.000    0.000 
#
# Total GULP energy -693990.816321 kJ/mol
# GULP energy per Si atom -12392.693149 kJ/mol
# Density = 1.984144 g / cm^3
# Si number density = 19.886701 Si / 1000 Ang^3
#
#
#
# Elastic Constant Matrix: (Units=GPa)
#
#
# Indices 1 2 3 4 5 6 
#
# 1 104.9466 21.1697 20.3621 0.0000 0.0000 0.0000
# 2 21.1697 72.0320 23.3422 0.0000 0.0000 0.0000
# 3 20.3621 23.3422 84.8642 0.0000 0.0000 0.0000
# 4 0.0000 0.0000 0.0000 16.2021 0.0000 0.0000
# 5 0.0000 0.0000 0.0000 0.0000 30.3872 0.0000
# 6 0.0000 0.0000 0.0000 0.0000 0.0000 25.4913
#
#
#
# Elastic Compliance Matrix: (Units=1/GPa)
#
#
# Indices 1 2 3 4 5 6 
#
# 1 0.010377 -0.002462 -0.001813 0.000000 0.000000 0.000000
# 2 -0.002462 0.015825 -0.003762 0.000000 0.000000 0.000000
# 3 -0.001813 -0.003762 0.013253 0.000000 0.000000 0.000000
# 4 0.000000 0.000000 0.000000 0.061720 0.000000 0.000000
# 5 0.000000 0.000000 0.000000 0.000000 0.032909 0.000000
# 6 0.000000 0.000000 0.000000 0.000000 0.000000 0.039229
#
#
# Mechanical properties :
#
#
# Convention : Reuss Voigt Hill
#
# Bulk Modulus (GPa) = 42.76834 43.51009 43.13921
# Shear Modulus (GPa) = 25.35735 27.54739 26.45237
#
# Velocity S-wave (km/s) = 3.57471 3.72589 3.65108
# Velocity P-wave (km/s) = 6.21215 6.35894 6.28597
#
# Compressibility (1/GPa) = 0.02338178
#
# Stress axis : x y z
#
# Youngs Moduli (GPa) = 96.36653 63.18924 75.45353
#
# Poissons Ratio (x) = 0.15560 0.13676
# Poissons Ratio (y) = 0.23729 0.28386
# Poissons Ratio (z) = 0.17467 0.23772
#
# Static dielectric constant tensor:
#      x y z
#    x 3.640100 0.000000 0.000000 
#    y 0.000000 3.781760 0.000000 
#    z 0.000000 0.000000 3.462080 
# 
# 
# High freq. dielectric constant tensor:
#      x y z
#    x 1.780540 0.000000 0.000000 
#    y 0.000000 1.769430 0.000000 
#    z 0.000000 0.000000 1.751550 
# 
# From -- ./inp_files/21156.got.cif
#   From: 2010.03.12/outbox.cif.g09.slc.cpg/sg74_11_cif.got.tgz:21156.got - 2010.04.16 15:46:19.
