data_PCOD8298798
_publ_section_title
;
Structure prediction by ZEFSAII (Michael W. Deem and Ramdas Pophale) SiO2 
 PCOD8298798
Probable space group: I M M A
;
_chemical_formula_sum "Si O2"
_cell_formula_units_Z 112
_cell_length_a 14.587164
_cell_length_b 36.127231
_cell_length_c 9.655363
_cell_angle_alpha 90.000000
_cell_angle_beta 90.000000
_cell_angle_gamma 90.000000
_cell_volume 5088.316857
_symmetry_space_group_name_H-M "I M M A"
_symmetry_group_IT_number 74
_symmetry_cell_setting 'orthorhombic'
loop_
_space_group_symop_operation_xyz
x,y,z
-x,1/2-y,z
x,-y,-z
-x,1/2+y,-z
-x,-y,-z
x,1/2+y,-z
-x,y,z
x,1/2-y,z
1/2+x,1/2+y,1/2+z
1/2-x,-y,1/2+z
1/2+x,1/2-y,1/2-z
1/2-x,y,1/2-z
1/2-x,1/2-y,1/2-z
1/2+x,y,1/2-z
1/2-x,1/2+y,1/2+z
1/2+x,-y,1/2+z
loop_
_atom_site_type_symbol
_atom_site_label
_atom_site_fract_x
_atom_site_fract_y
_atom_site_fract_z
Si Si1 0.600533 0.289971 0.390670
Si Si2 0.266084 0.533779 0.907480
Si Si3 0.607143 0.291991 0.865975
Si Si4 0.108853 0.842933 0.115214
Si Si5 0.832393 0.821508 0.642265
Si Si6 0.395418 0.599560 0.839772
Si Si7 0.104821 0.416591 0.021658
O O1 0.500000 0.284347 0.455861
O O2 0.650992 0.250000 0.387934
O O3 0.654742 0.318795 0.490779
O O4 0.584255 0.306995 0.237371
O O5 0.250000 0.520370 0.750000
O O6 0.344240 0.564844 0.906869
O O7 0.172875 0.548436 0.981346
O O8 0.302526 0.500000 0.000000
O O9 0.500000 0.298084 0.900160
O O10 0.623349 0.250000 0.809502
O O11 0.640579 0.323504 0.757305
O O12 0.668767 0.297855 0.001879
O O13 0.000000 0.842538 0.101146
O O14 0.138238 0.885887 0.091852
O O15 0.750000 0.812331 0.750000
O O16 0.844078 0.864392 0.602056
O O17 0.500000 0.598258 0.891098
O O18 0.388348 0.601250 0.674054
O O19 0.000000 0.429771 0.992520
#
# Coordination Sequence:
#
# PCOD8298798 Si02
#       7
#    16  16  16  16  16  16  16
#     4  10  19  32  55  83 110 150 204 254 297 353
#     4  10  22  41  64  93 131 164 196 247 309 374
#     4  10  21  37  56  83 123 166 206 257 315 363
#     4   9  17  33  58  85 116 158 208 254 298 355
#     4  12  23  36  57  83 117 158 203 256 313 372
#     4  10  20  38  66  92 116 157 211 262 311 363
#     4   9  17  34  64  95 125 165 210 251 299 367
#
# _framework density 22.011206999999999
#
# number of rings (size 3 to 8) (size 9 to 14) (size 15 to 20)
#    0.000    2.000    1.429    3.429    0.000    4.571 
#    2.571    0.714    0.000    1.714    0.000    0.000 
#    0.000    0.000    0.000    0.000    0.000    0.000 
#
# Total GULP energy -693965.506099 kJ/mol
# GULP energy per Si atom -12392.241180 kJ/mol
# Density = 2.196111 g / cm^3
# Si number density = 22.011207 Si / 1000 Ang^3
#
#
#
# Elastic Constant Matrix: (Units=GPa)
#
#
# Indices 1 2 3 4 5 6 
#
# 1 62.2164 39.6264 22.0534 -0.0041 0.0106 0.0026
# 2 39.6264 123.2002 53.1514 -0.0285 0.0030 0.0166
# 3 22.0534 53.1514 114.4920 -0.0818 0.0426 0.0461
# 4 -0.0041 -0.0285 -0.0818 40.9341 0.0065 0.0149
# 5 0.0106 0.0030 0.0426 0.0065 15.9281 -0.0090
# 6 0.0026 0.0166 0.0461 0.0149 -0.0090 23.8474
#
#
#
# Elastic Compliance Matrix: (Units=1/GPa)
#
#
# Indices 1 2 3 4 5 6 
#
# 1 0.020324 -0.006062 -0.001100 -0.000004 -0.000009 0.000004
# 2 -0.006062 0.011958 -0.004384 -0.000001 0.000014 0.000001
# 3 -0.001100 -0.004384 0.010981 0.000019 -0.000028 -0.000018
# 4 -0.000004 -0.000001 0.000019 0.024430 -0.000010 -0.000015
# 5 -0.000009 0.000014 -0.000028 -0.000010 0.062782 0.000024
# 6 0.000004 0.000001 -0.000018 -0.000015 0.000024 0.041933
#
#
# Mechanical properties :
#
#
# Convention : Reuss Voigt Hill
#
# Bulk Modulus (GPa) = 49.57718 58.84121 54.20920
# Shear Modulus (GPa) = 24.72497 28.48042 26.60269
#
# Velocity S-wave (km/s) = 3.35519 3.60099 3.48026
# Velocity P-wave (km/s) = 6.13043 6.63927 6.38992
#
# Compressibility (1/GPa) = 0.02017057
#
# Stress axis : x y z
#
# Youngs Moduli (GPa) = 49.20243 83.62630 91.06412
#
# Poissons Ratio (x) = 0.50697 0.10021
# Poissons Ratio (y) = 0.29828 0.39919
# Poissons Ratio (z) = 0.05415 0.36658
#
# Static dielectric constant tensor:
#      x y z
#    x 4.048810 0.000020 0.000010 
#    y 0.000020 3.889340 -0.000020 
#    z 0.000010 -0.000020 3.804220 
# 
# 
# High freq. dielectric constant tensor:
#      x y z
#    x 1.864880 0.000000 0.000000 
#    y 0.000000 1.855980 0.000000 
#    z 0.000000 0.000000 1.845350 
# 
# From -- ./inp_files/21171.got.cif
#   From: 2010.03.12/outbox.cif.g09.slc.cpg/sg74_11_cif.got.tgz:21171.got - 2010.04.16 15:46:19.
