data_PCOD8298842
_publ_section_title
;
Structure prediction by ZEFSAII (Michael W. Deem and Ramdas Pophale) SiO2 
 PCOD8298842
Probable space group: I M M A
;
_chemical_formula_sum "Si O2"
_cell_formula_units_Z 104
_cell_length_a 8.686500
_cell_length_b 28.268953
_cell_length_c 24.159373
_cell_angle_alpha 90.000000
_cell_angle_beta 90.000000
_cell_angle_gamma 90.000000
_cell_volume 5932.533602
_symmetry_space_group_name_H-M "I M M A"
_symmetry_group_IT_number 74
_symmetry_cell_setting 'orthorhombic'
loop_
_space_group_symop_operation_xyz
x,y,z
-x,1/2-y,z
x,-y,-z
-x,1/2+y,-z
-x,-y,-z
x,1/2+y,-z
-x,y,z
x,1/2-y,z
1/2+x,1/2+y,1/2+z
1/2-x,-y,1/2+z
1/2+x,1/2-y,1/2-z
1/2-x,y,1/2-z
1/2-x,1/2-y,1/2-z
1/2+x,y,1/2-z
1/2-x,1/2+y,1/2+z
1/2+x,-y,1/2+z
loop_
_atom_site_type_symbol
_atom_site_label
_atom_site_fract_x
_atom_site_fract_y
_atom_site_fract_z
Si Si1 0.681300 0.250000 0.310505
Si Si2 0.682423 0.872135 0.311357
Si Si3 0.319492 0.337175 0.124822
Si Si4 0.822582 0.025528 0.808833
Si Si5 0.321110 0.695294 0.098959
Si Si6 0.818167 0.422798 0.188509
Si Si7 0.320962 0.805155 0.515991
O O1 0.500000 0.250000 0.305825
O O2 0.750000 0.250000 0.250000
O O3 0.731982 0.203562 0.342548
O O4 0.500000 0.863239 0.310218
O O5 0.750000 0.867398 0.250000
O O6 0.725687 0.924494 0.337222
O O7 0.763047 0.833245 0.348530
O O8 0.500000 0.330286 0.132927
O O9 0.267410 0.387565 0.147617
O O10 0.276004 0.334905 0.060292
O O11 0.750000 0.022006 0.750000
O O12 0.000000 0.028940 0.796675
O O13 0.784898 0.975302 0.838402
O O14 0.500000 0.685956 0.088643
O O15 0.286755 0.750000 0.111280
O O16 0.229252 0.678108 0.044826
O O17 0.750000 0.417405 0.250000
O O18 0.000000 0.411900 0.190865
O O19 0.500000 0.815838 0.524430
O O20 0.282807 0.750000 0.524360
#
# Coordination Sequence:
#
# PCOD8298842 Si02
#       7
#     8  16  16  16  16  16  16
#     4  12  24  38  52  72 102 138 175 216 267 318
#     4  10  19  33  54  81 110 140 174 210 257 309
#     4  12  23  35  52  75 103 136 173 216 263 311
#     4   8  16  30  50  74 101 134 171 212 254 305
#     4  10  21  36  54  78 108 140 174 212 255 305
#     4  10  19  33  51  74 104 136 173 215 262 312
#     4  10  20  36  57  77  99 132 176 218 258 307
#
# _framework density 17.530453999999999
#
# number of rings (size 3 to 8) (size 9 to 14) (size 15 to 20)
#    0.000    1.846    0.769    4.385    0.000    3.077 
#    0.000    0.000    0.000    0.923    0.000    6.462 
#    0.000    0.000    0.000    0.000    0.000    0.000 
#
# Total GULP energy -644509.552651 kJ/mol
# GULP energy per Si atom -12394.414474 kJ/mol
# Density = 1.749055 g / cm^3
# Si number density = 17.530454 Si / 1000 Ang^3
#
#
#
# Elastic Constant Matrix: (Units=GPa)
#
#
# Indices 1 2 3 4 5 6 
#
# 1 91.9434 44.6887 32.7196 0.0000 0.0000 0.0000
# 2 44.6887 104.0025 55.8851 0.0000 0.0000 0.0000
# 3 32.7196 55.8851 88.1516 0.0001 0.0000 0.0000
# 4 0.0000 0.0000 0.0001 -7.7726 0.0000 0.0000
# 5 0.0000 0.0000 0.0000 0.0000 32.2440 0.0000
# 6 0.0000 0.0000 0.0000 0.0000 0.0000 21.8426
#
#
#
# Elastic Compliance Matrix: (Units=1/GPa)
#
#
# Indices 1 2 3 4 5 6 
#
# 1 0.013998 -0.004888 -0.002097 0.000000 0.000000 0.000000
# 2 -0.004888 0.016290 -0.008513 0.000000 0.000000 0.000000
# 3 -0.002097 -0.008513 0.017519 0.000000 0.000000 0.000000
# 4 0.000000 0.000000 0.000000 -0.128657 0.000000 0.000000
# 5 0.000000 0.000000 0.000000 0.000000 0.031013 0.000000
# 6 0.000000 0.000000 0.000000 0.000000 0.000000 0.045782
#
#
# Mechanical properties :
#
#
# Convention : Reuss Voigt Hill
#
# Bulk Modulus (GPa) = 59.48259 61.18714 60.33487
# Shear Modulus (GPa) = 153.62798 19.31640 86.47219
#
# Velocity S-wave (km/s) = 9.37151 3.32305 7.03093
# Velocity P-wave (km/s) = 12.29247 7.05001 10.02017
#
# Compressibility (1/GPa) = 0.01681164
#
# Stress axis : x y z
#
# Youngs Moduli (GPa) = 71.43696 61.38773 57.07998
#
# Poissons Ratio (x) = 0.30008 0.11969
# Poissons Ratio (y) = 0.34920 0.48591
# Poissons Ratio (z) = 0.14979 0.52259
#
# Static dielectric constant tensor:
#      x y z
#    x 3.217480 0.000000 0.000000 
#    y 0.000000 3.724680 0.000000 
#    z 0.000000 0.000000 3.222230 
# 
# 
# High freq. dielectric constant tensor:
#      x y z
#    x 1.696960 0.000000 0.000000 
#    y 0.000000 1.682650 0.000000 
#    z 0.000000 0.000000 1.652930 
# 
# From -- ./inp_files/57605.got.cif
#   From: 2010.03.12/outbox.cif.g09.slc.cpg/sg74_29_cif.got.tgz:57605.got - 2010.04.16 15:46:19.
