data_PCOD8298905
_publ_section_title
;
Structure prediction by ZEFSAII (Michael W. Deem and Ramdas Pophale) SiO2 
 PCOD8298905
Probable space group: I M M A
;
_chemical_formula_sum "Si O2"
_cell_formula_units_Z 72
_cell_length_a 20.358290
_cell_length_b 15.972741
_cell_length_c 12.550009
_cell_angle_alpha 90.000000
_cell_angle_beta 90.000000
_cell_angle_gamma 90.000000
_cell_volume 4080.982978
_symmetry_space_group_name_H-M "I M M A"
_symmetry_group_IT_number 74
_symmetry_cell_setting 'orthorhombic'
loop_
_space_group_symop_operation_xyz
x,y,z
-x,1/2-y,z
x,-y,-z
-x,1/2+y,-z
-x,-y,-z
x,1/2+y,-z
-x,y,z
x,1/2-y,z
1/2+x,1/2+y,1/2+z
1/2-x,-y,1/2+z
1/2+x,1/2-y,1/2-z
1/2-x,y,1/2-z
1/2-x,1/2-y,1/2-z
1/2+x,y,1/2-z
1/2-x,1/2+y,1/2+z
1/2+x,-y,1/2+z
loop_
_atom_site_type_symbol
_atom_site_label
_atom_site_fract_x
_atom_site_fract_y
_atom_site_fract_z
Si Si1 0.315989 0.562365 0.912383
Si Si2 0.072409 0.150687 0.062092
Si Si3 0.572039 0.151481 0.200433
Si Si4 0.750000 0.052973 0.750000
Si Si5 0.703943 0.850005 0.452944
O O1 0.373559 0.625772 0.884500
O O2 0.300762 0.508280 0.807797
O O3 0.344713 0.500000 0.000000
O O4 0.253289 0.612161 0.958857
O O5 0.072428 0.250000 0.064939
O O6 0.086680 0.116162 0.181041
O O7 0.000000 0.119247 0.022787
O O8 0.130449 0.120228 0.984393
O O9 0.500000 0.119807 0.162980
O O10 0.572729 0.250000 0.205884
O O11 0.715179 0.112900 0.664114
O O12 0.712174 0.750000 0.450903
#
# Coordination Sequence:
#
# PCOD8298905 Si02
#       5
#    16  16  16   8  16
#     4  10  20  32  48  70  98 130 164 204 250 298
#     4   8  15  28  48  74  97 118 152 200 246 284
#     4   9  17  31  51  73  97 126 164 208 248 291
#     4  10  21  34  47  72 106 130 158 206 255 294
#     4  10  19  33  54  74  97 133 172 205 241 294
#
# _framework density 17.642807000000001
#
# number of rings (size 3 to 8) (size 9 to 14) (size 15 to 20)
#    0.000    2.667    0.000    3.667    0.000    0.444 
#    0.000    5.556    0.000   10.000    0.000   12.444 
#    0.000    0.000    0.000    0.000    0.000    0.000 
#
# Total GULP energy -446137.021218 kJ/mol
# GULP energy per Si atom -12392.695034 kJ/mol
# Density = 1.760265 g / cm^3
# Si number density = 17.642807 Si / 1000 Ang^3
#
#
#
# Elastic Constant Matrix: (Units=GPa)
#
#
# Indices 1 2 3 4 5 6 
#
# 1 151.5683 36.7039 80.8245 0.0000 0.0000 0.0000
# 2 36.7039 53.7713 36.9462 0.0000 0.0000 0.0000
# 3 80.8245 36.9462 107.6762 0.0000 0.0000 0.0000
# 4 0.0000 0.0000 0.0000 15.4432 0.0000 0.0000
# 5 0.0000 0.0000 0.0000 0.0000 16.5987 0.0000
# 6 0.0000 0.0000 0.0000 0.0000 0.0000 20.5995
#
#
#
# Elastic Compliance Matrix: (Units=1/GPa)
#
#
# Indices 1 2 3 4 5 6 
#
# 1 0.011243 -0.002455 -0.007597 0.000000 0.000000 0.000000
# 2 -0.002455 0.024870 -0.006691 0.000000 0.000000 0.000000
# 3 -0.007597 -0.006691 0.017286 0.000000 0.000000 0.000000
# 4 0.000000 0.000000 0.000000 0.064753 0.000000 0.000000
# 5 0.000000 0.000000 0.000000 0.000000 0.060246 0.000000
# 6 0.000000 0.000000 0.000000 0.000000 0.000000 0.048545
#
#
# Mechanical properties :
#
#
# Convention : Reuss Voigt Hill
#
# Bulk Modulus (GPa) = 50.21764 69.10722 59.66243
# Shear Modulus (GPa) = 18.72189 21.09770 19.90979
#
# Velocity S-wave (km/s) = 3.26108 3.46182 3.36295
# Velocity P-wave (km/s) = 6.53490 7.43197 6.99782
#
# Compressibility (1/GPa) = 0.01991332
#
# Stress axis : x y z
#
# Youngs Moduli (GPa) = 88.94095 40.20885 57.85115
#
# Poissons Ratio (x) = 0.09869 0.43952
# Poissons Ratio (y) = 0.21831 0.38709
# Poissons Ratio (z) = 0.67572 0.26904
#
# Static dielectric constant tensor:
#      x y z
#    x 3.465150 0.000000 0.000000 
#    y 0.000000 3.147110 0.000000 
#    z 0.000000 0.000000 2.961650 
# 
# 
# High freq. dielectric constant tensor:
#      x y z
#    x 1.685410 0.000000 0.000000 
#    y 0.000000 1.672680 0.000000 
#    z 0.000000 0.000000 1.676950 
# 
# From -- ./inp_files/21833.got.cif
#   From: 2010.03.12/outbox.cif.g09.slc.cpg/sg74_11_cif.got.tgz:21833.got - 2010.04.16 15:46:19.
