data_PCOD8298533
_publ_section_title
;
Structure prediction by ZEFSAII (Michael W. Deem and Ramdas Pophale) SiO2 
 PCOD8298533
Probable space group: I M M A
;
_chemical_formula_sum "Si O2"
_cell_formula_units_Z 104
_cell_length_a 16.100650
_cell_length_b 14.418942
_cell_length_c 22.956312
_cell_angle_alpha 90.000000
_cell_angle_beta 90.000000
_cell_angle_gamma 90.000000
_cell_volume 5329.407427
_symmetry_space_group_name_H-M "I M M A"
_symmetry_group_IT_number 74
_symmetry_cell_setting 'orthorhombic'
loop_
_space_group_symop_operation_xyz
x,y,z
-x,1/2-y,z
x,-y,-z
-x,1/2+y,-z
-x,-y,-z
x,1/2+y,-z
-x,y,z
x,1/2-y,z
1/2+x,1/2+y,1/2+z
1/2-x,-y,1/2+z
1/2+x,1/2-y,1/2-z
1/2-x,y,1/2-z
1/2-x,1/2-y,1/2-z
1/2+x,y,1/2-z
1/2-x,1/2+y,1/2+z
1/2+x,-y,1/2+z
loop_
_atom_site_type_symbol
_atom_site_label
_atom_site_fract_x
_atom_site_fract_y
_atom_site_fract_z
Si Si1 0.799280 0.857125 0.469759
Si Si2 0.665674 0.144077 0.284726
Si Si3 0.331807 0.000000 0.500000
Si Si4 0.596153 0.643435 0.591434
Si Si5 0.904843 0.357882 0.418510
Si Si6 0.097946 0.349985 0.644150
Si Si7 0.405786 0.966021 0.809657
O O1 0.768740 0.750000 0.472508
O O2 0.846840 0.886848 0.528207
O O3 0.862825 0.872948 0.417872
O O4 0.722061 0.927003 0.462283
O O5 0.642605 0.250000 0.272136
O O6 0.750000 0.117370 0.250000
O O7 0.658690 0.124586 0.353801
O O8 0.599135 0.078059 0.253952
O O9 0.386707 0.934842 0.542749
O O10 0.500000 0.634267 0.611156
O O11 0.612114 0.750000 0.569009
O O12 0.899260 0.250000 0.405681
O O13 0.864173 0.405470 0.361170
O O14 0.000000 0.386759 0.432067
O O15 0.128429 0.250000 0.667851
O O16 0.128353 0.428097 0.689958
O O17 0.000000 0.348930 0.634317
O O18 0.500000 0.970546 0.828948
#
# Coordination Sequence:
#
# PCOD8298533 Si02
#       7
#    16  16   8  16  16  16  16
#     4  10  20  31  48  75 112 151 191 238 290 335
#     4  10  22  37  59  88 118 145 173 219 281 346
#     4  12  23  36  59  86 112 146 188 248 295 336
#     4  10  23  44  66  87 114 150 190 232 285 348
#     4   9  17  28  45  73 111 152 190 228 275 338
#     4   9  18  32  49  71 106 154 199 233 270 326
#     4  10  19  31  51  77 106 144 186 226 270 328
#
# _framework density 19.514365000000002
#
# number of rings (size 3 to 8) (size 9 to 14) (size 15 to 20)
#    0.000    2.154    0.000    3.000    4.308    3.385 
#    0.000    3.077    0.000    2.308    0.000    2.154 
#    0.000    0.000    0.000    0.000    0.000    0.000 
#
# Total GULP energy -644264.651008 kJ/mol
# GULP energy per Si atom -12389.704827 kJ/mol
# Density = 1.946995 g / cm^3
# Si number density = 19.514365 Si / 1000 Ang^3
#
#
#
# Elastic Constant Matrix: (Units=GPa)
#
#
# Indices 1 2 3 4 5 6 
#
# 1 44.6036 31.5676 20.9381 0.0000 0.0000 0.0000
# 2 31.5676 109.2113 60.5954 0.0000 0.0000 0.0000
# 3 20.9381 60.5954 89.4771 0.0000 0.0000 0.0000
# 4 0.0000 0.0000 0.0000 32.9986 0.0000 0.0000
# 5 0.0000 0.0000 0.0000 0.0000 15.2906 0.0000
# 6 0.0000 0.0000 0.0000 0.0000 0.0000 26.0382
#
#
#
# Elastic Compliance Matrix: (Units=1/GPa)
#
#
# Indices 1 2 3 4 5 6 
#
# 1 0.028353 -0.007231 -0.001738 0.000000 0.000000 0.000000
# 2 -0.007231 0.016512 -0.009490 0.000000 0.000000 0.000000
# 3 -0.001738 -0.009490 0.018010 0.000000 0.000000 0.000000
# 4 0.000000 0.000000 0.000000 0.030304 0.000000 0.000000
# 5 0.000000 0.000000 0.000000 0.000000 0.065400 0.000000
# 6 0.000000 0.000000 0.000000 0.000000 0.000000 0.038405
#
#
# Mechanical properties :
#
#
# Convention : Reuss Voigt Hill
#
# Bulk Modulus (GPa) = 38.52563 52.16602 45.34582
# Shear Modulus (GPa) = 20.61384 23.54488 22.07936
#
# Velocity S-wave (km/s) = 3.25367 3.47730 3.36734
# Velocity P-wave (km/s) = 5.82239 6.55075 6.19728
#
# Compressibility (1/GPa) = 0.02595675
#
# Stress axis : x y z
#
# Youngs Moduli (GPa) = 35.26925 60.56027 55.52585
#
# Poissons Ratio (x) = 0.43794 0.09648
# Poissons Ratio (y) = 0.25505 0.52696
# Poissons Ratio (z) = 0.06128 0.57474
#
# Static dielectric constant tensor:
#      x y z
#    x 3.456820 0.000000 0.000000 
#    y 0.000000 4.005830 0.000000 
#    z 0.000000 0.000000 3.303620 
# 
# 
# High freq. dielectric constant tensor:
#      x y z
#    x 1.740820 0.000000 0.000000 
#    y 0.000000 1.775040 0.000000 
#    z 0.000000 0.000000 1.735190 
# 
# From -- ./inp_files/53067.got.cif
#   From: 2010.03.12/outbox.cif.g09.slc.cpg/sg74_27_cif.got.tgz:53067.got - 2010.04.16 15:46:19.
