data_PCOD8298211
_publ_section_title
;
Structure prediction by ZEFSAII (Michael W. Deem and Ramdas Pophale) SiO2 
 PCOD8298211
Probable space group: I M M A
;
_chemical_formula_sum "Si O2"
_cell_formula_units_Z 112
_cell_length_a 17.935154
_cell_length_b 18.013680
_cell_length_c 21.012507
_cell_angle_alpha 90.000000
_cell_angle_beta 90.000000
_cell_angle_gamma 90.000000
_cell_volume 6788.681361
_symmetry_space_group_name_H-M "I M M A"
_symmetry_group_IT_number 74
_symmetry_cell_setting 'orthorhombic'
loop_
_space_group_symop_operation_xyz
x,y,z
-x,1/2-y,z
x,-y,-z
-x,1/2+y,-z
-x,-y,-z
x,1/2+y,-z
-x,y,z
x,1/2-y,z
1/2+x,1/2+y,1/2+z
1/2-x,-y,1/2+z
1/2+x,1/2-y,1/2-z
1/2-x,y,1/2-z
1/2-x,1/2-y,1/2-z
1/2+x,y,1/2-z
1/2-x,1/2+y,1/2+z
1/2+x,-y,1/2+z
loop_
_atom_site_type_symbol
_atom_site_label
_atom_site_fract_x
_atom_site_fract_y
_atom_site_fract_z
Si Si1 0.353700 0.911720 0.874131
Si Si2 0.085010 0.165412 0.251943
Si Si3 0.086956 0.663413 0.500008
Si Si4 0.585955 0.664698 0.242563
Si Si5 0.797914 0.078020 0.813459
Si Si6 0.795031 0.414730 0.184802
Si Si7 0.652284 0.087365 0.878306
O O1 0.399172 0.886635 0.812051
O O2 0.388301 0.870263 0.933478
O O3 0.265481 0.890697 0.868688
O O4 0.363100 0.999797 0.880527
O O5 0.102589 0.250000 0.271124
O O6 0.136627 0.142706 0.191530
O O7 0.000000 0.155491 0.230138
O O8 0.105863 0.750000 0.499239
O O9 0.131952 0.623213 0.444884
O O10 0.000000 0.648721 0.489494
O O11 0.500000 0.655390 0.260933
O O12 0.607821 0.750000 0.231563
O O13 0.633301 0.633713 0.302585
O O14 0.601900 0.621164 0.177638
O O15 0.750000 0.072392 0.750000
O O16 0.740252 0.105458 0.867710
O O17 0.828728 0.996132 0.830662
O O18 0.750000 0.417667 0.250000
#
# Coordination Sequence:
#
# PCOD8298211 Si02
#       7
#    16  16  16  16  16  16  16
#     4  10  20  33  48  66  90 122 158 191 224 266
#     4  10  19  29  44  69  97 122 150 186 228 272
#     4  11  23  35  47  67  94 123 156 189 221 264
#     4  10  19  29  44  69  97 122 150 186 228 272
#     4   8  16  30  46  65  88 116 152 189 225 269
#     4   8  16  30  46  65  88 116 152 189 225 269
#     4  10  20  33  48  66  90 122 158 191 224 266
#
# _framework density 16.498049000000002
#
# number of rings (size 3 to 8) (size 9 to 14) (size 15 to 20)
#    0.000    2.429    0.000    4.714    0.000   13.143 
#    0.000    0.000    0.000    0.000    0.000    1.000 
#    0.000    8.000    0.000    0.000    0.000    0.000 
#
# Total GULP energy -694193.523785 kJ/mol
# GULP energy per Si atom -12396.312925 kJ/mol
# Density = 1.646050 g / cm^3
# Si number density = 16.498049 Si / 1000 Ang^3
#
#
#
# Elastic Constant Matrix: (Units=GPa)
#
#
# Indices 1 2 3 4 5 6 
#
# 1 81.8682 49.8878 15.1658 0.0000 0.0000 0.0000
# 2 49.8878 93.4863 21.2673 0.0000 0.0000 0.0000
# 3 15.1658 21.2673 20.0066 0.0000 0.0000 0.0000
# 4 0.0000 0.0000 0.0000 24.9146 0.0000 0.0000
# 5 0.0000 0.0000 0.0000 0.0000 27.2269 0.0000
# 6 0.0000 0.0000 0.0000 0.0000 0.0000 27.9514
#
#
#
# Elastic Compliance Matrix: (Units=1/GPa)
#
#
# Indices 1 2 3 4 5 6 
#
# 1 0.018421 -0.008776 -0.004635 0.000000 0.000000 0.000000
# 2 -0.008776 0.018289 -0.012789 0.000000 0.000000 0.000000
# 3 -0.004635 -0.012789 0.067092 0.000000 0.000000 0.000000
# 4 0.000000 0.000000 0.000000 0.040137 0.000000 0.000000
# 5 0.000000 0.000000 0.000000 0.000000 0.036728 0.000000
# 6 0.000000 0.000000 0.000000 0.000000 0.000000 0.035776
#
#
# Mechanical properties :
#
#
# Convention : Reuss Voigt Hill
#
# Bulk Modulus (GPa) = 19.45442 40.88919 30.17180
# Shear Modulus (GPa) = 17.48379 23.28794 20.38586
#
# Velocity S-wave (km/s) = 3.25891 3.76115 3.51900
# Velocity P-wave (km/s) = 5.09688 6.61057 5.90245
#
# Compressibility (1/GPa) = 0.05140220
#
# Stress axis : x y z
#
# Youngs Moduli (GPa) = 54.28586 54.67686 14.90481
#
# Poissons Ratio (x) = 0.47983 0.06909
# Poissons Ratio (y) = 0.47640 0.19062
# Poissons Ratio (z) = 0.25162 0.69929
#
# Static dielectric constant tensor:
#      x y z
#    x 3.379200 0.000000 0.000000 
#    y 0.000000 3.306220 0.000000 
#    z 0.000000 0.000000 2.991410 
# 
# 
# High freq. dielectric constant tensor:
#      x y z
#    x 1.634160 0.000000 0.000000 
#    y 0.000000 1.651190 0.000000 
#    z 0.000000 0.000000 1.594780 
# 
# From -- ./inp_files/53237.got.cif
#   From: 2010.03.12/outbox.cif.g09.slc.cpg/sg74_27_cif.got.tgz:53237.got - 2010.04.16 15:46:19.
