data_PCOD8298047
_publ_section_title
;
Structure prediction by ZEFSAII (Michael W. Deem and Ramdas Pophale) SiO2 
 PCOD8298047
Probable space group: I M M A
;
_chemical_formula_sum "Si O2"
_cell_formula_units_Z 64
_cell_length_a 24.535817
_cell_length_b 8.607790
_cell_length_c 14.852020
_cell_angle_alpha 90.000000
_cell_angle_beta 90.000000
_cell_angle_gamma 90.000000
_cell_volume 3136.734151
_symmetry_space_group_name_H-M "I M M A"
_symmetry_group_IT_number 74
_symmetry_cell_setting 'orthorhombic'
loop_
_space_group_symop_operation_xyz
x,y,z
-x,1/2-y,z
x,-y,-z
-x,1/2+y,-z
-x,-y,-z
x,1/2+y,-z
-x,y,z
x,1/2-y,z
1/2+x,1/2+y,1/2+z
1/2-x,-y,1/2+z
1/2+x,1/2-y,1/2-z
1/2-x,y,1/2-z
1/2-x,1/2-y,1/2-z
1/2+x,y,1/2-z
1/2-x,1/2+y,1/2+z
1/2+x,-y,1/2+z
loop_
_atom_site_type_symbol
_atom_site_label
_atom_site_fract_x
_atom_site_fract_y
_atom_site_fract_z
Si Si1 0.382218 0.565807 0.399777
Si Si2 0.110842 0.567397 0.401119
Si Si3 0.313213 0.569297 0.755460
Si Si4 0.000000 0.934026 0.599890
Si Si5 0.500000 0.070308 0.596686
O O1 0.376580 0.500000 0.500000
O O2 0.371672 0.750000 0.399731
O O3 0.338190 0.480148 0.339486
O O4 0.442435 0.524649 0.356567
O O5 0.122061 0.500000 0.500000
O O6 0.103785 0.750000 0.409501
O O7 0.161342 0.527409 0.337433
O O8 0.055620 0.497696 0.355193
O O9 0.323593 0.750000 0.773560
O O10 0.250000 0.528302 0.750000
O O11 0.000000 0.750000 0.601768
O O12 0.000000 0.000000 0.500000
O O13 0.500000 0.250000 0.579132
O O14 0.500000 0.000000 0.500000
#
# Coordination Sequence:
#
# PCOD8298047 Si02
#       5
#    16  16  16   8   8
#     4  10  20  37  61  88 119 153 190 235 290 349
#     4  11  22  39  63  90 121 155 194 241 296 354
#     4  11  25  43  60  82 114 154 203 251 294 348
#     4  10  18  33  58  89 123 155 191 234 288 351
#     4   8  16  31  54  85 117 147 181 224 276 339
#
# _framework density 20.403386000000001
#
# number of rings (size 3 to 8) (size 9 to 14) (size 15 to 20)
#    0.000    1.750    0.000    6.375    0.000    5.000 
#    0.000    3.750    0.000    0.000    0.000    0.000 
#    0.000    0.000    0.000    0.000    0.000    0.000 
#
# Total GULP energy -396627.823924 kJ/mol
# GULP energy per Si atom -12394.619498 kJ/mol
# Density = 2.035695 g / cm^3
# Si number density = 20.403386 Si / 1000 Ang^3
#
#
#
# Elastic Constant Matrix: (Units=GPa)
#
#
# Indices 1 2 3 4 5 6 
#
# 1 161.7718 66.7474 60.0895 0.0000 0.0000 0.0000
# 2 66.7474 128.2422 33.3580 0.0000 0.0000 0.0000
# 3 60.0895 33.3580 91.3060 0.0000 0.0000 0.0000
# 4 0.0000 0.0000 0.0000 32.0759 0.0000 0.0000
# 5 0.0000 0.0000 0.0000 0.0000 33.3345 0.0000
# 6 0.0000 0.0000 0.0000 0.0000 0.0000 31.0533
#
#
#
# Elastic Compliance Matrix: (Units=1/GPa)
#
#
# Indices 1 2 3 4 5 6 
#
# 1 0.009530 -0.003678 -0.004928 0.000000 0.000000 0.000000
# 2 -0.003678 0.010036 -0.001246 0.000000 0.000000 0.000000
# 3 -0.004928 -0.001246 0.014650 0.000000 0.000000 0.000000
# 4 0.000000 0.000000 0.000000 0.031176 0.000000 0.000000
# 5 0.000000 0.000000 0.000000 0.000000 0.029999 0.000000
# 6 0.000000 0.000000 0.000000 0.000000 0.000000 0.032203
#
#
# Mechanical properties :
#
#
# Convention : Reuss Voigt Hill
#
# Bulk Modulus (GPa) = 68.90665 77.96775 73.43720
# Shear Modulus (GPa) = 32.86551 34.03441 33.44996
#
# Velocity S-wave (km/s) = 4.01782 4.08864 4.05338
# Velocity P-wave (km/s) = 7.44105 7.78366 7.61428
#
# Compressibility (1/GPa) = 0.01451239
#
# Stress axis : x y z
#
# Youngs Moduli (GPa) = 104.93696 99.63866 68.25754
#
# Poissons Ratio (x) = 0.36648 0.33635
# Poissons Ratio (y) = 0.38597 0.08505
# Poissons Ratio (z) = 0.51710 0.12416
#
# Static dielectric constant tensor:
#      x y z
#    x 4.263840 0.000000 0.000000 
#    y 0.000000 3.702540 0.000000 
#    z 0.000000 0.000000 3.442560 
# 
# 
# High freq. dielectric constant tensor:
#      x y z
#    x 1.809990 0.000000 0.000000 
#    y 0.000000 1.812260 0.000000 
#    z 0.000000 0.000000 1.782850 
# 
# From -- ./inp_files/35973.got.cif
#   From: 2010.03.12/outbox.cif.g09.slc.cpg/sg74_18_cif.got.tgz:35973.got - 2010.04.16 15:46:19.
