data_PCOD8298586
_publ_section_title
;
Structure prediction by ZEFSAII (Michael W. Deem and Ramdas Pophale) SiO2 
 PCOD8298586
Probable space group: I M M A
;
_chemical_formula_sum "Si O2"
_cell_formula_units_Z 128
_cell_length_a 26.159865
_cell_length_b 8.527293
_cell_length_c 29.211256
_cell_angle_alpha 90.000000
_cell_angle_beta 90.000000
_cell_angle_gamma 90.000000
_cell_volume 6516.237652
_symmetry_space_group_name_H-M "I M M A"
_symmetry_group_IT_number 74
_symmetry_cell_setting 'orthorhombic'
loop_
_space_group_symop_operation_xyz
x,y,z
-x,1/2-y,z
x,-y,-z
-x,1/2+y,-z
-x,-y,-z
x,1/2+y,-z
-x,y,z
x,1/2-y,z
1/2+x,1/2+y,1/2+z
1/2-x,-y,1/2+z
1/2+x,1/2-y,1/2-z
1/2-x,y,1/2-z
1/2-x,1/2-y,1/2-z
1/2+x,y,1/2-z
1/2-x,1/2+y,1/2+z
1/2+x,-y,1/2+z
loop_
_atom_site_type_symbol
_atom_site_label
_atom_site_fract_x
_atom_site_fract_y
_atom_site_fract_z
Si Si1 0.653732 0.563833 0.550105
Si Si2 0.649354 0.936266 0.949071
Si Si3 0.608299 0.062466 0.205676
Si Si4 0.443379 0.437433 0.395825
Si Si5 0.776423 0.563570 0.704464
Si Si6 0.251224 0.563559 0.894789
Si Si7 0.440847 0.926087 0.704545
Si Si8 0.057359 0.563308 0.613428
O O1 0.661942 0.500000 0.500000
O O2 0.653435 0.750000 0.549443
O O3 0.599801 0.499192 0.569739
O O4 0.700326 0.499063 0.580703
O O5 0.650403 0.750000 0.950231
O O6 0.698181 0.000465 0.920549
O O7 0.597100 0.997169 0.925117
O O8 0.652037 0.000000 0.000000
O O9 0.604753 0.250000 0.206570
O O10 0.665891 0.002968 0.200726
O O11 0.587600 0.988474 0.253366
O O12 0.575343 0.998892 0.162924
O O13 0.500000 0.493841 0.412053
O O14 0.443090 0.250000 0.392913
O O15 0.431462 0.506575 0.344981
O O16 0.775030 0.750000 0.707427
O O17 0.750000 0.491777 0.750000
O O18 0.748691 0.505640 0.657966
O O19 0.252657 0.750000 0.896227
O O20 0.500000 0.924929 0.716908
O O21 0.419132 0.750000 0.701344
O O22 0.057720 0.750000 0.614175
O O23 0.000000 0.500540 0.602762
#
# Coordination Sequence:
#
# PCOD8298586 Si02
#       8
#    16  16  16  16  16  16  16  16
#     4  10  20  32  48  67  88 117 153 188 223 263
#     4  10  19  32  48  65  88 118 152 189 227 264
#     4   9  14  21  34  54  82 115 146 174 211 264
#     4   8  15  27  41  60  88 119 147 178 220 266
#     4   9  16  23  35  58  87 117 144 172 215 268
#     4   9  17  30  44  62  89 119 148 180 222 270
#     4   8  13  20  32  53  81 113 144 170 204 258
#     4   9  16  26  40  59  85 117 149 182 224 270
#
# _framework density 19.643238
#
# number of rings (size 3 to 8) (size 9 to 14) (size 15 to 20)
#    0.000    3.000    1.250    1.500    1.750    2.000 
#    0.000    0.000    0.000    0.000    0.000    0.000 
#    0.000    5.000    0.000    3.125    0.000    2.500 
#
# Total GULP energy -793113.586566 kJ/mol
# GULP energy per Si atom -12392.399790 kJ/mol
# Density = 1.959853 g / cm^3
# Si number density = 19.643238 Si / 1000 Ang^3
#
#
#
# Elastic Constant Matrix: (Units=GPa)
#
#
# Indices 1 2 3 4 5 6 
#
# 1 166.2389 7.5190 99.6187 0.0000 0.0000 0.0000
# 2 7.5190 2.6193 5.3657 0.0000 0.0000 0.0000
# 3 99.6187 5.3657 177.7157 0.0000 0.0000 0.0000
# 4 0.0000 0.0000 0.0000 15.3412 0.0000 0.0000
# 5 0.0000 0.0000 0.0000 0.0000 40.3497 0.0000
# 6 0.0000 0.0000 0.0000 0.0000 0.0000 4.9107
#
#
#
# Elastic Compliance Matrix: (Units=1/GPa)
#
#
# Indices 1 2 3 4 5 6 
#
# 1 0.009793 -0.017979 -0.004947 0.000000 0.000000 0.000000
# 2 -0.017979 0.439965 -0.003206 0.000000 0.000000 0.000000
# 3 -0.004947 -0.003206 0.008497 0.000000 0.000000 0.000000
# 4 0.000000 0.000000 0.000000 0.065184 0.000000 0.000000
# 5 0.000000 0.000000 0.000000 0.000000 0.024783 0.000000
# 6 0.000000 0.000000 0.000000 0.000000 0.000000 0.203635
#
#
# Mechanical properties :
#
#
# Convention : Reuss Voigt Hill
#
# Bulk Modulus (GPa) = 2.46310 63.50897 32.98603
# Shear Modulus (GPa) = 5.32227 27.72503 16.52365
#
# Velocity S-wave (km/s) = 1.64783 3.76097 2.90347
# Velocity P-wave (km/s) = 2.20842 7.15970 5.29804
#
# Compressibility (1/GPa) = 0.40599212
#
# Stress axis : x y z
#
# Youngs Moduli (GPa) = 102.11552 2.27291 117.69474
#
# Poissons Ratio (x) = 0.04086 0.58218
# Poissons Ratio (y) = 1.83589 0.37732
# Poissons Ratio (z) = 0.50512 0.00729
#
# Static dielectric constant tensor:
#      x y z
#    x 3.899760 0.000000 0.000000 
#    y 0.000000 2.705910 0.000000 
#    z 0.000000 0.000000 3.903150 
# 
# 
# High freq. dielectric constant tensor:
#      x y z
#    x 1.777660 0.000000 0.000000 
#    y 0.000000 1.671120 0.000000 
#    z 0.000000 0.000000 1.781360 
# 
# From -- ./inp_files/59287.got.cif
#   From: 2010.03.12/outbox.cif.g09.slc.cpg/sg74_30_cif.got.tgz:59287.got - 2010.04.16 15:46:19.
