data_PCOD8298330
_publ_section_title
;
Structure prediction by ZEFSAII (Michael W. Deem and Ramdas Pophale) SiO2 
 PCOD8298330
Probable space group: I M M A
;
_chemical_formula_sum "Si O2"
_cell_formula_units_Z 96
_cell_length_a 14.059362
_cell_length_b 14.907725
_cell_length_c 20.971617
_cell_angle_alpha 90.000000
_cell_angle_beta 90.000000
_cell_angle_gamma 90.000000
_cell_volume 4395.506269
_symmetry_space_group_name_H-M "I M M A"
_symmetry_group_IT_number 74
_symmetry_cell_setting 'orthorhombic'
loop_
_space_group_symop_operation_xyz
x,y,z
-x,1/2-y,z
x,-y,-z
-x,1/2+y,-z
-x,-y,-z
x,1/2+y,-z
-x,y,z
x,1/2-y,z
1/2+x,1/2+y,1/2+z
1/2-x,-y,1/2+z
1/2+x,1/2-y,1/2-z
1/2-x,y,1/2-z
1/2-x,1/2-y,1/2-z
1/2+x,y,1/2-z
1/2-x,1/2+y,1/2+z
1/2+x,-y,1/2+z
loop_
_atom_site_type_symbol
_atom_site_label
_atom_site_fract_x
_atom_site_fract_y
_atom_site_fract_z
Si Si1 0.886758 0.350340 0.674754
Si Si2 0.894396 0.644251 0.468001
Si Si3 0.793657 0.902673 0.980390
Si Si4 0.893045 0.151880 0.900094
Si Si5 0.889467 0.149069 0.150295
Si Si6 0.387594 0.030227 0.711768
O O1 0.847859 0.250000 0.690954
O O2 0.856868 0.378661 0.603359
O O3 0.844505 0.425476 0.723730
O O4 0.000000 0.347651 0.677979
O O5 0.897652 0.750000 0.477719
O O6 0.821636 0.600524 0.518605
O O7 0.000000 0.604390 0.480186
O O8 0.828260 0.870919 0.911985
O O9 0.833366 0.837815 0.035100
O O10 0.832697 0.000000 0.000000
O O11 0.893393 0.250000 0.867396
O O12 0.846021 0.082476 0.849962
O O13 0.000000 0.121337 0.917644
O O14 0.867443 0.250000 0.175401
O O15 0.000000 0.139422 0.131699
O O16 0.862976 0.076034 0.205259
O O17 0.500000 0.046065 0.712901
#
# Coordination Sequence:
#
# PCOD8298330 Si02
#       6
#    16  16  16  16  16  16
#     4   8  14  28  52  79 107 137 167 211 272 327
#     4   9  19  36  56  78 104 135 175 224 277 326
#     4  12  22  33  50  72 106 147 182 221 262 310
#     4  10  19  30  47  73 107 143 176 210 253 313
#     4  10  20  33  50  76 113 151 182 213 253 310
#     4   9  16  28  48  76 108 140 174 210 257 317
#
# _framework density 21.840488000000001
#
# number of rings (size 3 to 8) (size 9 to 14) (size 15 to 20)
#    0.000    2.333    1.667    3.500    0.000    4.333 
#    0.000    0.833    0.000    3.000    0.000    4.667 
#    0.000    6.667    0.000    0.000    0.000    0.167 
#
# Total GULP energy -594987.686351 kJ/mol
# GULP energy per Si atom -12395.576799 kJ/mol
# Density = 2.179078 g / cm^3
# Si number density = 21.840488 Si / 1000 Ang^3
#
#
#
# Elastic Constant Matrix: (Units=GPa)
#
#
# Indices 1 2 3 4 5 6 
#
# 1 56.8406 20.3277 27.2044 0.0000 0.0000 0.0000
# 2 20.3277 133.7787 35.8625 0.0000 0.0000 0.0000
# 3 27.2044 35.8625 65.5981 0.0000 0.0000 0.0000
# 4 0.0000 0.0000 0.0000 15.5257 0.0000 0.0000
# 5 0.0000 0.0000 0.0000 0.0000 17.1033 0.0000
# 6 0.0000 0.0000 0.0000 0.0000 0.0000 17.2640
#
#
#
# Elastic Compliance Matrix: (Units=1/GPa)
#
#
# Indices 1 2 3 4 5 6 
#
# 1 0.022076 -0.001055 -0.008579 0.000000 0.000000 0.000000
# 2 -0.001055 0.008809 -0.004378 0.000000 0.000000 0.000000
# 3 -0.008579 -0.004378 0.021196 0.000000 0.000000 0.000000
# 4 0.000000 0.000000 0.000000 0.064409 0.000000 0.000000
# 5 0.000000 0.000000 0.000000 0.000000 0.058468 0.000000
# 6 0.000000 0.000000 0.000000 0.000000 0.000000 0.057924
#
#
# Mechanical properties :
#
#
# Convention : Reuss Voigt Hill
#
# Bulk Modulus (GPa) = 41.56768 47.00072 44.28420
# Shear Modulus (GPa) = 18.59252 21.50011 20.04632
#
# Velocity S-wave (km/s) = 2.92085 3.14094 3.03289
# Velocity P-wave (km/s) = 5.51805 5.89243 5.70831
#
# Compressibility (1/GPa) = 0.02405715
#
# Stress axis : x y z
#
# Youngs Moduli (GPa) = 45.29796 113.51946 47.17933
#
# Poissons Ratio (x) = 0.11974 0.40473
# Poissons Ratio (y) = 0.04778 0.20657
# Poissons Ratio (z) = 0.38859 0.49704
#
# Static dielectric constant tensor:
#      x y z
#    x 3.819620 0.000000 0.000000 
#    y 0.000000 4.087120 0.000000 
#    z 0.000000 0.000000 3.746810 
# 
# 
# High freq. dielectric constant tensor:
#      x y z
#    x 1.849970 0.000000 0.000000 
#    y 0.000000 1.857780 0.000000 
#    z 0.000000 0.000000 1.823870 
# 
# From -- ./inp_files/51888.got.cif
#   From: 2010.03.12/outbox.cif.g09.slc.cpg/sg74_26_cif.got.tgz:51888.got - 2010.04.16 15:46:19.
