data_PCOD8298020
_publ_section_title
;
Structure prediction by ZEFSAII (Michael W. Deem and Ramdas Pophale) SiO2 
 PCOD8298020
Probable space group: I M M A
;
_chemical_formula_sum "Si O2"
_cell_formula_units_Z 80
_cell_length_a 18.880236
_cell_length_b 19.703586
_cell_length_c 12.440937
_cell_angle_alpha 90.000000
_cell_angle_beta 90.000000
_cell_angle_gamma 90.000000
_cell_volume 4628.132492
_symmetry_space_group_name_H-M "I M M A"
_symmetry_group_IT_number 74
_symmetry_cell_setting 'orthorhombic'
loop_
_space_group_symop_operation_xyz
x,y,z
-x,1/2-y,z
x,-y,-z
-x,1/2+y,-z
-x,-y,-z
x,1/2+y,-z
-x,y,z
x,1/2-y,z
1/2+x,1/2+y,1/2+z
1/2-x,-y,1/2+z
1/2+x,1/2-y,1/2-z
1/2-x,y,1/2-z
1/2-x,1/2-y,1/2-z
1/2+x,y,1/2-z
1/2-x,1/2+y,1/2+z
1/2+x,-y,1/2+z
loop_
_atom_site_type_symbol
_atom_site_label
_atom_site_fract_x
_atom_site_fract_y
_atom_site_fract_z
Si Si1 0.500000 0.326709 0.193464
Si Si2 0.350677 0.642101 0.745268
Si Si3 0.000000 0.977523 0.621379
Si Si4 0.352626 0.510012 0.222197
Si Si5 0.255275 0.324066 0.067509
Si Si6 0.224710 0.946053 0.084033
O O1 0.500000 0.250000 0.139112
O O2 0.431314 0.333691 0.268745
O O3 0.500000 0.394530 0.117485
O O4 0.337184 0.562945 0.725572
O O5 0.327148 0.657586 0.868345
O O6 0.306878 0.680832 0.655389
O O7 0.933220 0.011228 0.681903
O O8 0.000000 0.000000 0.500000
O O9 0.300269 0.525061 0.123822
O O10 0.332845 0.562239 0.319125
O O11 0.264212 0.250000 0.014870
O O12 0.237523 0.373630 0.969995
O O13 0.193321 0.000000 0.000000
#
# Coordination Sequence:
#
# PCOD8298020 Si02
#       6
#     8  16   8  16  16  16
#     4  10  20  32  49  77 110 134 159 211 268 317
#     4  10  18  33  52  77 108 132 171 222 267 315
#     4  10  22  36  56  78 109 133 174 214 258 305
#     4  10  20  34  54  80 100 139 176 216 254 308
#     4  11  20  31  52  79 105 138 173 218 266 312
#     4  11  18  34  56  74 105 137 178 210 261 310
#
# _framework density 17.285589999999999
#
# number of rings (size 3 to 8) (size 9 to 14) (size 15 to 20)
#    0.000    1.600    4.000    4.200    2.800    0.000 
#    0.000    3.500    0.000    1.200    0.000    0.000 
#    0.000    0.000    0.000    0.000    0.000    0.000 
#
# Total GULP energy -495686.185059 kJ/mol
# GULP energy per Si atom -12392.154626 kJ/mol
# Density = 1.724625 g / cm^3
# Si number density = 17.285590 Si / 1000 Ang^3
#
#
#
# Elastic Constant Matrix: (Units=GPa)
#
#
# Indices 1 2 3 4 5 6 
#
# 1 123.0823 23.9533 38.1419 0.0000 0.0000 0.0000
# 2 23.9533 91.5490 33.4226 0.0000 0.0000 0.0000
# 3 38.1419 33.4226 81.0860 0.0000 0.0000 0.0000
# 4 0.0000 0.0000 0.0000 23.0755 0.0000 0.0000
# 5 0.0000 0.0000 0.0000 0.0000 16.6648 0.0000
# 6 0.0000 0.0000 0.0000 0.0000 0.0000 7.8147
#
#
#
# Elastic Compliance Matrix: (Units=1/GPa)
#
#
# Indices 1 2 3 4 5 6 
#
# 1 0.009591 -0.001015 -0.004093 0.000000 0.000000 0.000000
# 2 -0.001015 0.012965 -0.004867 0.000000 0.000000 0.000000
# 3 -0.004093 -0.004867 0.016264 0.000000 0.000000 0.000000
# 4 0.000000 0.000000 0.000000 0.043336 0.000000 0.000000
# 5 0.000000 0.000000 0.000000 0.000000 0.060007 0.000000
# 6 0.000000 0.000000 0.000000 0.000000 0.000000 0.127964
#
#
# Mechanical properties :
#
#
# Convention : Reuss Voigt Hill
#
# Bulk Modulus (GPa) = 52.99286 54.08366 53.53826
# Shear Modulus (GPa) = 16.87107 22.85765 19.86436
#
# Velocity S-wave (km/s) = 3.12752 3.64036 3.39364
# Velocity P-wave (km/s) = 6.61556 7.00185 6.81144
#
# Compressibility (1/GPa) = 0.01887047
#
# Stress axis : x y z
#
# Youngs Moduli (GPa) = 104.26950 77.12815 61.48620
#
# Poissons Ratio (x) = 0.07829 0.25165
# Poissons Ratio (y) = 0.10584 0.29923
# Poissons Ratio (z) = 0.42676 0.37536
#
# Static dielectric constant tensor:
#      x y z
#    x 3.299580 0.000000 0.000000 
#    y 0.000000 3.273410 0.000000 
#    z 0.000000 0.000000 3.009800 
# 
# 
# High freq. dielectric constant tensor:
#      x y z
#    x 1.668820 0.000000 0.000000 
#    y 0.000000 1.665230 0.000000 
#    z 0.000000 0.000000 1.642600 
# 
# From -- ./inp_files/23605.got.cif
#   From: 2010.03.12/outbox.cif.g09.slc.cpg/sg74_12_cif.got.tgz:23605.got - 2010.04.16 15:46:19.
