data_PCOD8298893
_publ_section_title
;
Structure prediction by ZEFSAII (Michael W. Deem and Ramdas Pophale) SiO2 
 PCOD8298893
Probable space group: I M M A
;
_chemical_formula_sum "Si O2"
_cell_formula_units_Z 112
_cell_length_a 14.274468
_cell_length_b 28.930026
_cell_length_c 14.283071
_cell_angle_alpha 90.000000
_cell_angle_beta 90.000000
_cell_angle_gamma 90.000000
_cell_volume 5898.347432
_symmetry_space_group_name_H-M "I M M A"
_symmetry_group_IT_number 74
_symmetry_cell_setting 'orthorhombic'
loop_
_space_group_symop_operation_xyz
x,y,z
-x,1/2-y,z
x,-y,-z
-x,1/2+y,-z
-x,-y,-z
x,1/2+y,-z
-x,y,z
x,1/2-y,z
1/2+x,1/2+y,1/2+z
1/2-x,-y,1/2+z
1/2+x,1/2-y,1/2-z
1/2-x,y,1/2-z
1/2-x,1/2-y,1/2-z
1/2+x,y,1/2-z
1/2-x,1/2+y,1/2+z
1/2+x,-y,1/2+z
loop_
_atom_site_type_symbol
_atom_site_label
_atom_site_fract_x
_atom_site_fract_y
_atom_site_fract_z
Si Si1 0.279726 0.196893 0.617402
Si Si2 0.103863 0.100794 0.126291
Si Si3 0.106928 0.698641 0.931828
Si Si4 0.893019 0.841347 0.286108
Si Si5 0.399304 0.561776 0.145384
Si Si6 0.262134 0.051526 0.019922
Si Si7 0.847832 0.465948 0.291149
O O1 0.271305 0.250000 0.643657
O O2 0.318358 0.189379 0.513541
O O3 0.175483 0.175580 0.629764
O O4 0.355446 0.175218 0.686968
O O5 0.121639 0.156236 0.141912
O O6 0.173149 0.082709 0.045630
O O7 0.109867 0.073916 0.225029
O O8 0.000000 0.093125 0.086116
O O9 0.125537 0.750000 0.887122
O O10 0.000000 0.697426 0.970548
O O11 0.889468 0.896971 0.280633
O O12 0.000000 0.823742 0.303246
O O13 0.500000 0.566024 0.092717
O O14 0.404749 0.513564 0.202614
O O15 0.314984 0.568136 0.072497
O O16 0.336609 0.054412 0.104736
O O17 0.225118 0.000000 0.000000
O O18 0.750000 0.482032 0.250000
#
# Coordination Sequence:
#
# PCOD8298893 Si02
#       7
#    16  16  16  16  16  16  16
#     4  10  20  33  51  71  96 136 172 207 255 306
#     4  10  19  33  53  78 107 135 167 212 263 307
#     4   9  18  33  53  76 101 132 171 210 254 311
#     4  10  20  31  46  72 101 131 169 212 253 298
#     4  10  20  33  51  74 100 136 176 209 248 299
#     4   9  19  35  52  73 102 137 174 211 248 297
#     4   9  19  33  52  74 101 137 170 209 255 297
#
# _framework density 18.988368999999999
#
# number of rings (size 3 to 8) (size 9 to 14) (size 15 to 20)
#    0.000    2.429    0.000    2.571    2.000    5.143 
#    2.571    0.000    0.000    3.857    0.000    0.000 
#    0.000    4.571    0.000    0.000    0.000    0.000 
#
# Total GULP energy -693790.971165 kJ/mol
# GULP energy per Si atom -12389.124485 kJ/mol
# Density = 1.894515 g / cm^3
# Si number density = 18.988369 Si / 1000 Ang^3
#
#
#
# Elastic Constant Matrix: (Units=GPa)
#
#
# Indices 1 2 3 4 5 6 
#
# 1 114.0211 58.8895 21.5983 0.0000 0.0000 -0.0014
# 2 58.8895 159.5483 52.7701 -0.0001 0.0000 0.0033
# 3 21.5983 52.7701 55.9897 -0.0027 0.0012 -0.0022
# 4 0.0000 -0.0001 -0.0027 26.6523 0.0006 0.0003
# 5 0.0000 0.0000 0.0012 0.0006 11.9436 0.0010
# 6 -0.0014 0.0033 -0.0022 0.0003 0.0010 39.6319
#
#
#
# Elastic Compliance Matrix: (Units=1/GPa)
#
#
# Indices 1 2 3 4 5 6 
#
# 1 0.010850 -0.003807 -0.000597 0.000000 0.000000 0.000001
# 2 -0.003807 0.010442 -0.008373 -0.000001 0.000001 -0.000001
# 3 -0.000597 -0.008373 0.025983 0.000003 -0.000003 0.000002
# 4 0.000000 -0.000001 0.000003 0.037520 -0.000002 0.000000
# 5 0.000000 0.000001 -0.000003 -0.000002 0.083727 -0.000002
# 6 0.000001 -0.000001 0.000002 0.000000 -0.000002 0.025232
#
#
# Mechanical properties :
#
#
# Convention : Reuss Voigt Hill
#
# Bulk Modulus (GPa) = 46.04138 66.23053 56.13596
# Shear Modulus (GPa) = 22.07029 28.73230 25.40129
#
# Velocity S-wave (km/s) = 3.41296 3.89415 3.66147
# Velocity P-wave (km/s) = 6.31117 7.42795 6.89221
#
# Compressibility (1/GPa) = 0.02171959
#
# Stress axis : x y z
#
# Youngs Moduli (GPa) = 92.16824 95.76387 38.48737
#
# Poissons Ratio (x) = 0.36459 0.02298
# Poissons Ratio (y) = 0.35090 0.32226
# Poissons Ratio (z) = 0.05503 0.80186
#
# Static dielectric constant tensor:
#      x y z
#    x 3.818850 0.000000 0.000000 
#    y 0.000000 3.747860 0.000000 
#    z 0.000000 0.000000 3.332170 
# 
# 
# High freq. dielectric constant tensor:
#      x y z
#    x 1.745320 0.000000 0.000000 
#    y 0.000000 1.752580 0.000000 
#    z 0.000000 0.000000 1.699650 
# 
# From -- ./inp_files/32962.got.cif
#   From: 2010.03.12/outbox.cif.g09.slc.cpg/sg74_17_cif.got.tgz:32962.got - 2010.04.16 15:46:19.
