data_PCOD8298917
_publ_section_title
;
Structure prediction by ZEFSAII (Michael W. Deem and Ramdas Pophale) SiO2 
 PCOD8298917
Probable space group: I M M A
;
_chemical_formula_sum "Si O2"
_cell_formula_units_Z 96
_cell_length_a 27.739596
_cell_length_b 8.642905
_cell_length_c 20.590393
_cell_angle_alpha 90.000000
_cell_angle_beta 90.000000
_cell_angle_gamma 90.000000
_cell_volume 4936.560990
_symmetry_space_group_name_H-M "I M M A"
_symmetry_group_IT_number 74
_symmetry_cell_setting 'orthorhombic'
loop_
_space_group_symop_operation_xyz
x,y,z
-x,1/2-y,z
x,-y,-z
-x,1/2+y,-z
-x,-y,-z
x,1/2+y,-z
-x,y,z
x,1/2-y,z
1/2+x,1/2+y,1/2+z
1/2-x,-y,1/2+z
1/2+x,1/2-y,1/2-z
1/2-x,y,1/2-z
1/2-x,1/2-y,1/2-z
1/2+x,y,1/2-z
1/2-x,1/2+y,1/2+z
1/2+x,-y,1/2+z
loop_
_atom_site_type_symbol
_atom_site_label
_atom_site_fract_x
_atom_site_fract_y
_atom_site_fract_z
Si Si1 0.554800 0.066848 0.432933
Si Si2 0.889962 0.432007 0.568618
Si Si3 0.944107 0.429571 0.315183
Si Si4 0.786695 0.566430 0.569133
Si Si5 0.278127 0.934105 0.687605
Si Si6 0.886658 0.934300 0.810302
O O1 0.500000 0.010136 0.422802
O O2 0.557800 0.250000 0.435572
O O3 0.586189 0.000028 0.373633
O O4 0.576005 0.000000 0.500000
O O5 0.907470 0.500000 0.500000
O O6 0.883838 0.250000 0.561551
O O7 0.929971 0.472714 0.621738
O O8 0.839015 0.504731 0.589677
O O9 0.932753 0.250000 0.328549
O O10 0.913750 0.493049 0.254107
O O11 0.000000 0.455928 0.299456
O O12 0.770020 0.500000 0.500000
O O13 0.789211 0.750000 0.565223
O O14 0.748359 0.508880 0.622413
O O15 0.278945 0.750000 0.690144
O O16 0.250000 0.000551 0.750000
O O17 0.332361 0.999821 0.688980
O O18 0.887432 0.750000 0.811655
#
# Coordination Sequence:
#
# PCOD8298917 Si02
#       6
#    16  16  16  16  16  16
#     4   9  17  30  49  73 101 134 171 210 252 299
#     4  11  22  37  57  79 106 139 173 212 259 313
#     4  10  20  35  57  82 106 135 174 220 265 309
#     4  10  19  33  54  78 105 137 174 216 260 308
#     4   9  17  29  49  76 102 131 169 212 254 298
#     4   9  17  31  52  77 104 136 176 216 255 306
#
# _framework density 19.446735
#
# number of rings (size 3 to 8) (size 9 to 14) (size 15 to 20)
#    0.000    2.333    0.000    4.500    0.000    6.000 
#    0.000    0.833    0.000   12.000    0.000    0.000 
#    0.000    0.000    0.000    0.000    0.000    0.000 
#
# Total GULP energy -595296.483466 kJ/mol
# GULP energy per Si atom -12402.010072 kJ/mol
# Density = 1.940247 g / cm^3
# Si number density = 19.446735 Si / 1000 Ang^3
#
#
#
# Elastic Constant Matrix: (Units=GPa)
#
#
# Indices 1 2 3 4 5 6 
#
# 1 117.6553 20.2818 82.2372 0.0000 0.0000 0.0000
# 2 20.2818 52.2215 29.8678 0.0000 0.0000 0.0000
# 3 82.2372 29.8678 161.6038 0.0000 0.0000 0.0000
# 4 0.0000 0.0000 0.0000 27.4496 0.0000 0.0000
# 5 0.0000 0.0000 0.0000 0.0000 45.1489 0.0000
# 6 0.0000 0.0000 0.0000 0.0000 0.0000 15.6319
#
#
#
# Elastic Compliance Matrix: (Units=1/GPa)
#
#
# Indices 1 2 3 4 5 6 
#
# 1 0.013288 -0.001446 -0.006495 0.000000 0.000000 0.000000
# 2 -0.001446 0.021570 -0.003251 0.000000 0.000000 0.000000
# 3 -0.006495 -0.003251 0.010094 0.000000 0.000000 0.000000
# 4 0.000000 0.000000 0.000000 0.036430 0.000000 0.000000
# 5 0.000000 0.000000 0.000000 0.000000 0.022149 0.000000
# 6 0.000000 0.000000 0.000000 0.000000 0.000000 0.063972
#
#
# Mechanical properties :
#
#
# Convention : Reuss Voigt Hill
#
# Bulk Modulus (GPa) = 44.30896 66.25047 55.27971
# Shear Modulus (GPa) = 25.32797 30.91900 28.12348
#
# Velocity S-wave (km/s) = 3.61283 3.99172 3.80699
# Velocity P-wave (km/s) = 6.34332 7.44223 6.91464
#
# Compressibility (1/GPa) = 0.02256880
#
# Stress axis : x y z
#
# Youngs Moduli (GPa) = 75.25311 46.36056 99.06931
#
# Poissons Ratio (x) = 0.06705 0.64345
# Poissons Ratio (y) = 0.10883 0.32204
# Poissons Ratio (z) = 0.48877 0.15070
#
# Static dielectric constant tensor:
#      x y z
#    x 3.648640 0.000000 0.000000 
#    y 0.000000 3.155310 0.000000 
#    z 0.000000 0.000000 3.748240 
# 
# 
# High freq. dielectric constant tensor:
#      x y z
#    x 1.758520 0.000000 0.000000 
#    y 0.000000 1.719700 0.000000 
#    z 0.000000 0.000000 1.773130 
# 
# From -- ./inp_files/49148.got.cif
#   From: 2010.03.12/outbox.cif.g09.slc.cpg/sg74_25_cif.got.tgz:49148.got - 2010.04.16 15:46:19.
