data_PCOD8298868
_publ_section_title
;
Structure prediction by ZEFSAII (Michael W. Deem and Ramdas Pophale) SiO2 
 PCOD8298868
Probable space group: I M M A
;
_chemical_formula_sum "Si O2"
_cell_formula_units_Z 88
_cell_length_a 8.738502
_cell_length_b 30.694209
_cell_length_c 18.005827
_cell_angle_alpha 90.000000
_cell_angle_beta 90.000000
_cell_angle_gamma 90.000000
_cell_volume 4829.548247
_symmetry_space_group_name_H-M "I M M A"
_symmetry_group_IT_number 74
_symmetry_cell_setting 'orthorhombic'
loop_
_space_group_symop_operation_xyz
x,y,z
-x,1/2-y,z
x,-y,-z
-x,1/2+y,-z
-x,-y,-z
x,1/2+y,-z
-x,y,z
x,1/2-y,z
1/2+x,1/2+y,1/2+z
1/2-x,-y,1/2+z
1/2+x,1/2-y,1/2-z
1/2-x,y,1/2-z
1/2-x,1/2-y,1/2-z
1/2+x,y,1/2-z
1/2-x,1/2+y,1/2+z
1/2+x,-y,1/2+z
loop_
_atom_site_type_symbol
_atom_site_label
_atom_site_fract_x
_atom_site_fract_y
_atom_site_fract_z
Si Si1 0.181812 0.916465 0.675274
Si Si2 0.179955 0.299372 0.671092
Si Si3 0.820461 0.165316 0.110718
Si Si4 0.320407 0.250000 0.169578
Si Si5 0.820605 0.136837 0.538962
Si Si6 0.821054 0.953728 0.520888
O O1 0.250000 0.938567 0.750000
O O2 0.249164 0.868011 0.669926
O O3 0.243324 0.941402 0.602225
O O4 0.000000 0.915182 0.679134
O O5 0.232432 0.250000 0.647422
O O6 0.250000 0.312462 0.750000
O O7 0.231228 0.336684 0.612421
O O8 0.000000 0.300298 0.680126
O O9 0.735166 0.209937 0.121995
O O10 0.000000 0.169330 0.124995
O O11 0.786885 0.153189 0.026219
O O12 0.500000 0.250000 0.177602
O O13 0.250000 0.250000 0.250000
O O14 0.790663 0.084180 0.541323
O O15 0.000000 0.145521 0.521361
O O16 0.000000 0.960756 0.529843
O O17 0.742993 0.000000 0.500000
#
# Coordination Sequence:
#
# PCOD8298868 Si02
#       6
#    16  16  16   8  16  16
#     4  10  19  33  53  75 100 134 173 212 260 311
#     4   9  18  32  50  73 101 135 172 212 259 310
#     4  11  22  35  51  75 103 133 171 212 255 300
#     4  12  24  38  52  70 101 136 171 208 248 294
#     4   9  18  33  53  76 100 135 176 213 259 312
#     4   8  15  30  52  75  99 130 171 215 259 311
#
# _framework density 18.221164999999999
#
# number of rings (size 3 to 8) (size 9 to 14) (size 15 to 20)
#    0.000    2.364    0.000    4.636    1.273    0.727 
#    0.000    0.909    0.000   13.636    0.000    0.000 
#    0.000    0.000    0.000    0.000    0.000    0.000 
#
# Total GULP energy -545280.350535 kJ/mol
# GULP energy per Si atom -12392.735239 kJ/mol
# Density = 1.817969 g / cm^3
# Si number density = 18.221165 Si / 1000 Ang^3
#
#
#
# Elastic Constant Matrix: (Units=GPa)
#
#
# Indices 1 2 3 4 5 6 
#
# 1 75.0046 27.2805 24.3829 0.0000 0.0000 0.0000
# 2 27.2805 138.7346 62.9124 -0.0001 0.0000 0.0000
# 3 24.3829 62.9124 112.5420 -0.0004 0.0000 -0.0001
# 4 0.0000 -0.0001 -0.0004 21.8985 0.0000 0.0000
# 5 0.0000 0.0000 0.0000 0.0000 31.5527 0.0000
# 6 0.0000 0.0000 -0.0001 0.0000 0.0000 11.4839
#
#
#
# Elastic Compliance Matrix: (Units=1/GPa)
#
#
# Indices 1 2 3 4 5 6 
#
# 1 0.014723 -0.001940 -0.002105 0.000000 0.000000 0.000000
# 2 -0.001940 0.009911 -0.005120 0.000000 0.000000 0.000000
# 3 -0.002105 -0.005120 0.012204 0.000000 0.000000 0.000000
# 4 0.000000 0.000000 0.000000 0.045665 0.000000 0.000000
# 5 0.000000 0.000000 0.000000 0.000000 0.031693 0.000000
# 6 0.000000 0.000000 0.000000 0.000000 0.000000 0.087078
#
#
# Mechanical properties :
#
#
# Convention : Reuss Voigt Hill
#
# Bulk Modulus (GPa) = 54.03476 61.71476 57.87476
# Shear Modulus (GPa) = 22.14598 27.10071 24.62334
#
# Velocity S-wave (km/s) = 3.49004 3.86076 3.68007
# Velocity P-wave (km/s) = 6.77937 7.33603 7.06318
#
# Compressibility (1/GPa) = 0.01850661
#
# Stress axis : x y z
#
# Youngs Moduli (GPa) = 67.92277 100.89332 81.94100
#
# Poissons Ratio (x) = 0.19578 0.17248
# Poissons Ratio (y) = 0.13180 0.41956
# Poissons Ratio (z) = 0.14298 0.51660
#
# Static dielectric constant tensor:
#      x y z
#    x 3.181070 0.000000 0.000000 
#    y 0.000000 3.690190 0.000000 
#    z 0.000000 0.000000 3.451240 
# 
# 
# High freq. dielectric constant tensor:
#      x y z
#    x 1.692420 0.000000 0.000000 
#    y 0.000000 1.703010 0.000000 
#    z 0.000000 0.000000 1.702720 
# 
# From -- ./inp_files/40064.got.cif
#   From: 2010.03.12/outbox.cif.g09.slc.cpg/sg74_21_cif.got.tgz:40064.got - 2010.04.16 15:46:19.
