data_PCOD8298305
_publ_section_title
;
Structure prediction by ZEFSAII (Michael W. Deem and Ramdas Pophale) SiO2 
 PCOD8298305
Probable space group: I M M A
;
_chemical_formula_sum "Si O2"
_cell_formula_units_Z 96
_cell_length_a 14.693319
_cell_length_b 19.223658
_cell_length_c 20.289423
_cell_angle_alpha 90.000000
_cell_angle_beta 90.000000
_cell_angle_gamma 90.000000
_cell_volume 5730.937016
_symmetry_space_group_name_H-M "I M M A"
_symmetry_group_IT_number 74
_symmetry_cell_setting 'orthorhombic'
loop_
_space_group_symop_operation_xyz
x,y,z
-x,1/2-y,z
x,-y,-z
-x,1/2+y,-z
-x,-y,-z
x,1/2+y,-z
-x,y,z
x,1/2-y,z
1/2+x,1/2+y,1/2+z
1/2-x,-y,1/2+z
1/2+x,1/2-y,1/2-z
1/2-x,y,1/2-z
1/2-x,1/2-y,1/2-z
1/2+x,y,1/2-z
1/2-x,1/2+y,1/2+z
1/2+x,-y,1/2+z
loop_
_atom_site_type_symbol
_atom_site_label
_atom_site_fract_x
_atom_site_fract_y
_atom_site_fract_z
Si Si1 0.000000 0.826510 0.072688
Si Si2 0.804806 0.828161 0.384774
Si Si3 0.500000 0.472491 0.628074
Si Si4 0.315158 0.032342 0.429325
Si Si5 0.000000 0.325374 0.655438
Si Si6 0.000000 0.537747 0.278485
Si Si7 0.200456 0.532006 0.317522
Si Si8 0.682975 0.827584 0.507904
O O1 0.000000 0.888412 0.125536
O O2 0.000000 0.750000 0.107421
O O3 0.086865 0.834652 0.027146
O O4 0.775066 0.750000 0.361256
O O5 0.775740 0.886509 0.331429
O O6 0.761507 0.845009 0.455214
O O7 0.913591 0.833809 0.392706
O O8 0.587249 0.504365 0.592964
O O9 0.500000 0.491185 0.704721
O O10 0.314420 0.116284 0.433615
O O11 0.290649 0.000000 0.500000
O O12 0.238116 0.013745 0.377016
O O13 0.000000 0.250000 0.689951
O O14 0.000000 0.378316 0.716856
O O15 0.093006 0.513027 0.313981
O O16 0.250000 0.511350 0.250000
O O17 0.696121 0.750000 0.537470
#
# Coordination Sequence:
#
# PCOD8298305 Si02
#       8
#     8  16   8  16   8   8  16  16
#     4  10  19  30  46  77 118 145 173 219 263 318
#     4   9  17  31  50  74 107 145 180 216 257 314
#     4  12  20  33  54  82 112 148 183 222 266 331
#     4  12  21  35  58  82 107 143 186 225 273 319
#     4   8  16  31  49  69 105 149 186 210 245 311
#     4  10  22  35  50  78 111 146 183 217 270 317
#     4  11  21  36  53  78 111 145 184 222 266 322
#     4  10  20  34  52  79 110 138 176 223 275 324
#
# _framework density 16.751187000000002
#
# number of rings (size 3 to 8) (size 9 to 14) (size 15 to 20)
#    0.000    1.667    5.000    0.750    0.000    0.667 
#    0.000    1.250    0.000    0.500    0.000    0.000 
#    0.000    0.000    0.000    0.000    0.000    0.000 
#
# Total GULP energy -594932.170359 kJ/mol
# GULP energy per Si atom -12394.420216 kJ/mol
# Density = 1.671306 g / cm^3
# Si number density = 16.751187 Si / 1000 Ang^3
#
#
#
# Elastic Constant Matrix: (Units=GPa)
#
#
# Indices 1 2 3 4 5 6 
#
# 1 97.1293 37.0653 46.5257 0.0000 0.0000 0.0000
# 2 37.0653 95.4796 49.5931 0.0000 0.0000 0.0000
# 3 46.5257 49.5931 88.2335 0.0000 0.0000 0.0000
# 4 0.0000 0.0000 0.0000 21.4557 0.0000 0.0000
# 5 0.0000 0.0000 0.0000 0.0000 24.1387 0.0000
# 6 0.0000 0.0000 0.0000 0.0000 0.0000 29.1798
#
#
#
# Elastic Compliance Matrix: (Units=1/GPa)
#
#
# Indices 1 2 3 4 5 6 
#
# 1 0.014118 -0.002279 -0.006163 0.000000 0.000000 0.000000
# 2 -0.002279 0.015160 -0.007319 0.000000 0.000000 0.000000
# 3 -0.006163 -0.007319 0.018697 0.000000 0.000000 0.000000
# 4 0.000000 0.000000 0.000000 0.046608 0.000000 0.000000
# 5 0.000000 0.000000 0.000000 0.000000 0.041427 0.000000
# 6 0.000000 0.000000 0.000000 0.000000 0.000000 0.034270
#
#
# Mechanical properties :
#
#
# Convention : Reuss Voigt Hill
#
# Bulk Modulus (GPa) = 60.78361 60.80117 60.79239
# Shear Modulus (GPa) = 24.12125 24.79874 24.45999
#
# Velocity S-wave (km/s) = 3.79881 3.85179 3.82539
# Velocity P-wave (km/s) = 7.45696 7.49381 7.47541
#
# Compressibility (1/GPa) = 0.01645180
#
# Stress axis : x y z
#
# Youngs Moduli (GPa) = 70.83402 65.96394 53.48418
#
# Poissons Ratio (x) = 0.15035 0.32963
# Poissons Ratio (y) = 0.16145 0.39145
# Poissons Ratio (z) = 0.43656 0.48279
#
# Static dielectric constant tensor:
#      x y z
#    x 3.345070 0.000000 0.000000 
#    y 0.000000 3.352620 0.000000 
#    z 0.000000 0.000000 2.851460 
# 
# 
# High freq. dielectric constant tensor:
#      x y z
#    x 1.662000 0.000000 0.000000 
#    y 0.000000 1.638770 0.000000 
#    z 0.000000 0.000000 1.609580 
# 
# From -- ./inp_files/32496.got.cif
#   From: 2010.03.12/outbox.cif.g09.slc.cpg/sg74_17_cif.got.tgz:32496.got - 2010.04.16 15:46:19.
