data_PCOD8298892
_publ_section_title
;
Structure prediction by ZEFSAII (Michael W. Deem and Ramdas Pophale) SiO2 
 PCOD8298892
Probable space group: I M M A
;
_chemical_formula_sum "Si O2"
_cell_formula_units_Z 80
_cell_length_a 25.296425
_cell_length_b 8.746809
_cell_length_c 20.126044
_cell_angle_alpha 90.000000
_cell_angle_beta 90.000000
_cell_angle_gamma 90.000000
_cell_volume 4453.148830
_symmetry_space_group_name_H-M "I M M A"
_symmetry_group_IT_number 74
_symmetry_cell_setting 'orthorhombic'
loop_
_space_group_symop_operation_xyz
x,y,z
-x,1/2-y,z
x,-y,-z
-x,1/2+y,-z
-x,-y,-z
x,1/2+y,-z
-x,y,z
x,1/2-y,z
1/2+x,1/2+y,1/2+z
1/2-x,-y,1/2+z
1/2+x,1/2-y,1/2-z
1/2-x,y,1/2-z
1/2-x,1/2-y,1/2-z
1/2+x,y,1/2-z
1/2-x,1/2+y,1/2+z
1/2+x,-y,1/2+z
loop_
_atom_site_type_symbol
_atom_site_label
_atom_site_fract_x
_atom_site_fract_y
_atom_site_fract_z
Si Si1 0.613414 0.433313 0.324630
Si Si2 0.000000 0.919661 0.675155
Si Si3 0.000000 0.916822 0.832441
Si Si4 0.687923 0.070915 0.931761
Si Si5 0.691240 0.930750 0.430686
Si Si6 0.391779 0.568815 0.181449
O O1 0.612745 0.250000 0.323726
O O2 0.555830 0.497627 0.351321
O O3 0.658609 0.496296 0.371318
O O4 0.624286 0.492295 0.250757
O O5 0.000000 0.901711 0.753585
O O6 0.000000 0.750000 0.642646
O O7 0.948000 0.012117 0.652984
O O8 0.000000 0.750000 0.866041
O O9 0.683885 0.250000 0.940136
O O10 0.748232 0.020340 0.918386
O O11 0.652492 0.014320 0.870670
O O12 0.666356 0.000000 0.000000
O O13 0.683269 0.750000 0.431500
O O14 0.670669 0.000000 0.500000
O O15 0.393278 0.750000 0.190773
#
# Coordination Sequence:
#
# PCOD8298892 Si02
#       6
#    16   8   8  16  16  16
#     4  10  19  33  53  78 104 134 170 211 254 302
#     4   9  17  31  50  75 104 135 167 206 253 303
#     4   7  14  29  48  69  98 129 161 200 244 289
#     4   9  20  36  54  74 101 135 172 212 258 307
#     4  10  20  36  54  74 101 135 171 212 259 309
#     4  10  19  33  53  78 104 134 170 211 255 303
#
# _framework density 17.964815999999999
#
# number of rings (size 3 to 8) (size 9 to 14) (size 15 to 20)
#    0.000    2.600    0.000    3.300    0.000    3.200 
#    0.000    6.500    0.000    0.000    0.000    0.000 
#    0.000    0.000    0.000    0.000    0.000    0.000 
#
# Total GULP energy -495802.007227 kJ/mol
# GULP energy per Si atom -12395.050181 kJ/mol
# Density = 1.792393 g / cm^3
# Si number density = 17.964816 Si / 1000 Ang^3
#
#
#
# Elastic Constant Matrix: (Units=GPa)
#
#
# Indices 1 2 3 4 5 6 
#
# 1 123.4527 43.8430 83.0511 0.0000 0.0000 0.0000
# 2 43.8430 72.5011 43.9410 0.0000 0.0000 0.0000
# 3 83.0511 43.9410 115.8119 0.0000 0.0000 0.0000
# 4 0.0000 0.0000 0.0000 29.8254 0.0000 0.0000
# 5 0.0000 0.0000 0.0000 0.0000 2.9538 0.0000
# 6 0.0000 0.0000 0.0000 0.0000 0.0000 26.9773
#
#
#
# Elastic Compliance Matrix: (Units=1/GPa)
#
#
# Indices 1 2 3 4 5 6 
#
# 1 0.016348 -0.003611 -0.010353 0.000000 0.000000 0.000000
# 2 -0.003611 0.018709 -0.004509 0.000000 0.000000 0.000000
# 3 -0.010353 -0.004509 0.017770 0.000000 0.000000 0.000000
# 4 0.000000 0.000000 0.000000 0.033528 0.000000 0.000000
# 5 0.000000 0.000000 0.000000 0.000000 0.338549 0.000000
# 6 0.000000 0.000000 0.000000 0.000000 0.000000 0.037068
#
#
# Mechanical properties :
#
#
# Convention : Reuss Voigt Hill
#
# Bulk Modulus (GPa) = 62.97048 72.60397 67.78722
# Shear Modulus (GPa) = 9.91645 21.34668 15.63157
#
# Velocity S-wave (km/s) = 2.35200 3.45084 2.95298
# Velocity P-wave (km/s) = 6.51952 7.50866 7.03150
#
# Compressibility (1/GPa) = 0.01588046
#
# Stress axis : x y z
#
# Youngs Moduli (GPa) = 61.17114 53.44901 56.27470
#
# Poissons Ratio (x) = 0.19300 0.58262
# Poissons Ratio (y) = 0.22089 0.25375
# Poissons Ratio (z) = 0.63331 0.24101
#
# Static dielectric constant tensor:
#      x y z
#    x 3.772300 0.000000 0.000000 
#    y 0.000000 3.326560 0.000000 
#    z 0.000000 0.000000 3.152810 
# 
# 
# High freq. dielectric constant tensor:
#      x y z
#    x 1.707330 0.000000 0.000000 
#    y 0.000000 1.697430 0.000000 
#    z 0.000000 0.000000 1.673180 
# 
# From -- ./inp_files/40025.got.cif
#   From: 2010.03.12/outbox.cif.g09.slc.cpg/sg74_21_cif.got.tgz:40025.got - 2010.04.16 15:46:19.
