data_PCOD8298421
_publ_section_title
;
Structure prediction by ZEFSAII (Michael W. Deem and Ramdas Pophale) SiO2 
 PCOD8298421
Probable space group: I M M A
;
_chemical_formula_sum "Si O2"
_cell_formula_units_Z 80
_cell_length_a 8.740321
_cell_length_b 18.529149
_cell_length_c 27.306980
_cell_angle_alpha 90.000000
_cell_angle_beta 90.000000
_cell_angle_gamma 90.000000
_cell_volume 4422.384802
_symmetry_space_group_name_H-M "I M M A"
_symmetry_group_IT_number 74
_symmetry_cell_setting 'orthorhombic'
loop_
_space_group_symop_operation_xyz
x,y,z
-x,1/2-y,z
x,-y,-z
-x,1/2+y,-z
-x,-y,-z
x,1/2+y,-z
-x,y,z
x,1/2-y,z
1/2+x,1/2+y,1/2+z
1/2-x,-y,1/2+z
1/2+x,1/2-y,1/2-z
1/2-x,y,1/2-z
1/2-x,1/2-y,1/2-z
1/2+x,y,1/2-z
1/2-x,1/2+y,1/2+z
1/2+x,-y,1/2+z
loop_
_atom_site_type_symbol
_atom_site_label
_atom_site_fract_x
_atom_site_fract_y
_atom_site_fract_z
Si Si1 0.319840 0.459526 0.853736
Si Si2 0.322603 0.833030 0.302039
Si Si3 0.181140 0.590854 0.801122
Si Si4 0.180659 0.829266 0.897711
Si Si5 0.319386 0.027171 0.446822
O O1 0.500000 0.466431 0.848947
O O2 0.264567 0.378496 0.843327
O O3 0.242324 0.511411 0.813656
O O4 0.268433 0.477542 0.908536
O O5 0.500000 0.854028 0.300495
O O6 0.297953 0.750000 0.316138
O O7 0.250000 0.851464 0.250000
O O8 0.250000 0.618579 0.750000
O O9 0.235956 0.645240 0.843953
O O10 0.000000 0.587691 0.797114
O O11 0.252173 0.750000 0.909604
O O12 0.229523 0.888821 0.938398
O O13 0.000000 0.822764 0.897282
O O14 0.500000 0.017925 0.438185
O O15 0.268733 0.000000 0.500000
#
# Coordination Sequence:
#
# PCOD8298421 Si02
#       5
#    16  16  16  16  16
#     4  11  21  33  51  73 100 132 168 209 251 300
#     4  10  20  34  52  74 102 135 170 208 252 301
#     4  10  19  31  48  71 100 132 168 205 244 294
#     4   8  15  29  49  72  98 129 164 203 246 292
#     4   9  18  34  55  76  99 128 166 211 257 304
#
# _framework density 18.089787000000001
#
# number of rings (size 3 to 8) (size 9 to 14) (size 15 to 20)
#    0.000    2.400    0.000    4.800    0.000    2.000 
#    0.000    1.000    0.000   18.000    0.000    0.000 
#    0.000    0.000    0.000    0.000    0.000    0.000 
#
# Total GULP energy -495956.701232 kJ/mol
# GULP energy per Si atom -12398.917531 kJ/mol
# Density = 1.804861 g / cm^3
# Si number density = 18.089787 Si / 1000 Ang^3
#
#
#
# Elastic Constant Matrix: (Units=GPa)
#
#
# Indices 1 2 3 4 5 6 
#
# 1 75.5702 36.6594 35.0344 0.0000 0.0000 0.0000
# 2 36.6594 132.9148 75.5872 0.0000 0.0000 0.0000
# 3 35.0344 75.5872 117.7723 0.0000 0.0000 0.0000
# 4 0.0000 0.0000 0.0000 21.4085 0.0000 0.0000
# 5 0.0000 0.0000 0.0000 0.0000 27.8438 0.0000
# 6 0.0000 0.0000 0.0000 0.0000 0.0000 16.3743
#
#
#
# Elastic Compliance Matrix: (Units=1/GPa)
#
#
# Indices 1 2 3 4 5 6 
#
# 1 0.015932 -0.002675 -0.003022 0.000000 0.000000 0.000000
# 2 -0.002675 0.012297 -0.007097 0.000000 0.000000 0.000000
# 3 -0.003022 -0.007097 0.013945 0.000000 0.000000 0.000000
# 4 0.000000 0.000000 0.000000 0.046710 0.000000 0.000000
# 5 0.000000 0.000000 0.000000 0.000000 0.035915 0.000000
# 6 0.000000 0.000000 0.000000 0.000000 0.000000 0.061071
#
#
# Mechanical properties :
#
#
# Convention : Reuss Voigt Hill
#
# Bulk Modulus (GPa) = 60.29494 68.97994 64.63744
# Shear Modulus (GPa) = 23.04287 25.05708 24.04998
#
# Velocity S-wave (km/s) = 3.57291 3.72580 3.65016
# Velocity P-wave (km/s) = 7.10100 7.53150 7.31942
#
# Compressibility (1/GPa) = 0.01658514
#
# Stress axis : x y z
#
# Youngs Moduli (GPa) = 62.76802 81.31865 71.71216
#
# Poissons Ratio (x) = 0.21757 0.21673
# Poissons Ratio (y) = 0.16793 0.50891
# Poissons Ratio (z) = 0.18969 0.57709
#
# Static dielectric constant tensor:
#      x y z
#    x 3.211280 0.000000 0.000000 
#    y 0.000000 3.641710 0.000000 
#    z 0.000000 0.000000 3.267090 
# 
# 
# High freq. dielectric constant tensor:
#      x y z
#    x 1.690250 0.000000 0.000000 
#    y 0.000000 1.703980 0.000000 
#    z 0.000000 0.000000 1.686500 
# 
# From -- ./inp_files/63925.got.cif
#   From: 2010.03.12/outbox.cif.g09.slc.cpg/sg74_32_cif.got.tgz:63925.got - 2010.04.16 15:46:19.
