data_PCOD8298153
_publ_section_title
;
Structure prediction by ZEFSAII (Michael W. Deem and Ramdas Pophale) SiO2 
 PCOD8298153
Probable space group: I M M A
;
_chemical_formula_sum "Si O2"
_cell_formula_units_Z 128
_cell_length_a 25.307942
_cell_length_b 17.086371
_cell_length_c 17.295583
_cell_angle_alpha 90.000000
_cell_angle_beta 90.000000
_cell_angle_gamma 90.000000
_cell_volume 7478.971329
_symmetry_space_group_name_H-M "I M M A"
_symmetry_group_IT_number 74
_symmetry_cell_setting 'orthorhombic'
loop_
_space_group_symop_operation_xyz
x,y,z
-x,1/2-y,z
x,-y,-z
-x,1/2+y,-z
-x,-y,-z
x,1/2+y,-z
-x,y,z
x,1/2-y,z
1/2+x,1/2+y,1/2+z
1/2-x,-y,1/2+z
1/2+x,1/2-y,1/2-z
1/2-x,y,1/2-z
1/2-x,1/2-y,1/2-z
1/2+x,y,1/2-z
1/2-x,1/2+y,1/2+z
1/2+x,-y,1/2+z
loop_
_atom_site_type_symbol
_atom_site_label
_atom_site_fract_x
_atom_site_fract_y
_atom_site_fract_z
Si Si1 0.690033 0.920463 0.909348
Si Si2 0.312910 0.836809 0.758156
Si Si3 0.557934 0.342815 0.666286
Si Si4 0.157891 0.097345 0.574507
Si Si5 0.060891 0.658680 0.341945
Si Si6 0.250432 0.339645 0.665272
Si Si7 0.653430 0.157290 0.567904
Si Si8 0.197124 0.342512 0.091916
O O1 0.665915 0.890934 0.827615
O O2 0.750809 0.895120 0.916843
O O3 0.683377 0.013113 0.909256
O O4 0.658925 0.884036 0.982772
O O5 0.332447 0.750000 0.778768
O O6 0.250000 0.839738 0.750000
O O7 0.333501 0.861902 0.672546
O O8 0.500000 0.377618 0.646444
O O9 0.555397 0.250000 0.659773
O O10 0.574102 0.364863 0.753714
O O11 0.600257 0.378325 0.605819
O O12 0.097612 0.106112 0.602565
O O13 0.194056 0.156876 0.622894
O O14 0.072539 0.750000 0.356389
O O15 0.000000 0.639396 0.361303
O O16 0.265903 0.250000 0.677599
O O17 0.250000 0.380879 0.750000
O O18 0.295975 0.378972 0.612614
O O19 0.652932 0.250000 0.577356
O O20 0.657400 0.135022 0.477481
O O21 0.213223 0.250000 0.089575
#
# Coordination Sequence:
#
# PCOD8298153 Si02
#       8
#    16  16  16  16  16  16  16  16
#     4  10  20  31  42  65  95 124 155 193 241 290
#     4   8  15  28  47  65  84 117 162 201 235 275
#     4   8  14  26  44  67  96 126 158 196 230 269
#     4  11  21  31  45  67  97 126 156 192 239 295
#     4   9  18  33  52  71  92 123 164 204 237 279
#     4  10  19  28  41  64  95 127 152 180 229 291
#     4   9  15  24  41  66  93 121 153 188 233 278
#     4   9  16  29  48  67  90 125 164 202 238 283
#
# _framework density 17.114654000000002
#
# number of rings (size 3 to 8) (size 9 to 14) (size 15 to 20)
#    0.000    2.750    1.250    3.000    0.000    5.000 
#    0.000    1.250    0.000    0.000    0.000    1.750 
#    0.000    8.000    0.000    0.000    0.000    0.000 
#
# Total GULP energy -793087.861162 kJ/mol
# GULP energy per Si atom -12391.997831 kJ/mol
# Density = 1.707570 g / cm^3
# Si number density = 17.114654 Si / 1000 Ang^3
#
#
#
# Elastic Constant Matrix: (Units=GPa)
#
#
# Indices 1 2 3 4 5 6 
#
# 1 89.5810 19.7220 61.0243 0.0000 0.0000 0.0000
# 2 19.7220 36.2941 30.0509 0.0000 0.0000 0.0000
# 3 61.0243 30.0509 171.7512 0.0000 0.0000 0.0000
# 4 0.0000 0.0000 0.0000 17.2114 0.0000 0.0000
# 5 0.0000 0.0000 0.0000 0.0000 27.3874 0.0000
# 6 0.0000 0.0000 0.0000 0.0000 0.0000 10.3358
#
#
#
# Elastic Compliance Matrix: (Units=1/GPa)
#
#
# Indices 1 2 3 4 5 6 
#
# 1 0.015323 -0.004465 -0.004663 0.000000 0.000000 0.000000
# 2 -0.004465 0.033522 -0.004279 0.000000 0.000000 0.000000
# 3 -0.004663 -0.004279 0.008228 0.000000 0.000000 0.000000
# 4 0.000000 0.000000 0.000000 0.058101 0.000000 0.000000
# 5 0.000000 0.000000 0.000000 0.000000 0.036513 0.000000
# 6 0.000000 0.000000 0.000000 0.000000 0.000000 0.096751
#
#
# Mechanical properties :
#
#
# Convention : Reuss Voigt Hill
#
# Bulk Modulus (GPa) = 33.04881 57.69119 45.37000
# Shear Modulus (GPa) = 17.52309 23.44218 20.48263
#
# Velocity S-wave (km/s) = 3.20326 3.70498 3.46322
# Velocity P-wave (km/s) = 5.74746 7.21695 6.52371
#
# Compressibility (1/GPa) = 0.03025828
#
# Stress axis : x y z
#
# Youngs Moduli (GPa) = 65.26278 29.83129 121.53955
#
# Poissons Ratio (x) = 0.13321 0.56673
# Poissons Ratio (y) = 0.29143 0.52002
# Poissons Ratio (z) = 0.30432 0.12764
#
# Static dielectric constant tensor:
#      x y z
#    x 3.088740 0.000000 0.000000 
#    y 0.000000 2.811480 0.000000 
#    z 0.000000 0.000000 3.705680 
# 
# 
# High freq. dielectric constant tensor:
#      x y z
#    x 1.622130 0.000000 0.000000 
#    y 0.000000 1.619900 0.000000 
#    z 0.000000 0.000000 1.680220 
# 
# From -- ./inp_files/46303.got.cif
#   From: 2010.03.12/outbox.cif.g09.slc.cpg/sg74_24_cif.got.tgz:46303.got - 2010.04.16 15:46:19.
