data_PCOD8298416
_publ_section_title
;
Structure prediction by ZEFSAII (Michael W. Deem and Ramdas Pophale) SiO2 
 PCOD8298416
Probable space group: I M M A
;
_chemical_formula_sum "Si O2"
_cell_formula_units_Z 104
_cell_length_a 26.246153
_cell_length_b 9.418920
_cell_length_c 21.885225
_cell_angle_alpha 90.000000
_cell_angle_beta 90.000000
_cell_angle_gamma 90.000000
_cell_volume 5410.255564
_symmetry_space_group_name_H-M "I M M A"
_symmetry_group_IT_number 74
_symmetry_cell_setting 'orthorhombic'
loop_
_space_group_symop_operation_xyz
x,y,z
-x,1/2-y,z
x,-y,-z
-x,1/2+y,-z
-x,-y,-z
x,1/2+y,-z
-x,y,z
x,1/2-y,z
1/2+x,1/2+y,1/2+z
1/2-x,-y,1/2+z
1/2+x,1/2-y,1/2-z
1/2-x,y,1/2-z
1/2-x,1/2-y,1/2-z
1/2+x,y,1/2-z
1/2-x,1/2+y,1/2+z
1/2+x,-y,1/2+z
loop_
_atom_site_type_symbol
_atom_site_label
_atom_site_fract_x
_atom_site_fract_y
_atom_site_fract_z
Si Si1 0.206145 0.086484 0.557975
Si Si2 0.893185 0.581861 0.378115
Si Si3 0.057896 0.091907 0.169973
Si Si4 0.633998 0.584031 0.253883
Si Si5 0.875671 0.410070 0.058534
Si Si6 0.000000 0.419659 0.564325
Si Si7 0.799406 0.413210 0.862179
O O1 0.206777 0.250000 0.538446
O O2 0.148754 0.033314 0.572185
O O3 0.240124 0.065281 0.619762
O O4 0.227766 0.000000 0.500000
O O5 0.893228 0.750000 0.373543
O O6 0.872995 0.516541 0.313617
O O7 0.949819 0.530568 0.397617
O O8 0.067263 0.250000 0.197270
O O9 0.073823 0.090934 0.099368
O O10 0.000000 0.045859 0.174692
O O11 0.088412 0.974714 0.206179
O O12 0.626444 0.750000 0.247601
O O13 0.687449 0.550451 0.290393
O O14 0.859272 0.250000 0.040544
O O15 0.829284 0.481287 0.094161
O O16 0.889883 0.500000 0.000000
O O17 0.000000 0.500000 0.500000
O O18 0.000000 0.250000 0.553124
O O19 0.815904 0.250000 0.874687
#
# Coordination Sequence:
#
# PCOD8298416 Si02
#       7
#    16  16  16  16  16   8  16
#     4  10  20  34  52  76 105 137 172 212 256 305
#     4   9  19  34  54  79 105 134 170 214 261 306
#     4   9  19  34  49  68  98 133 166 209 260 307
#     4   9  18  33  53  77 101 130 170 211 255 308
#     4  10  19  31  48  69  97 132 170 211 257 305
#     4  10  20  36  56  78 106 138 173 214 259 308
#     4   9  18  32  51  75 102 132 169 210 253 304
#
# _framework density 19.222753000000001
#
# number of rings (size 3 to 8) (size 9 to 14) (size 15 to 20)
#    0.000    2.615    0.000    1.385    1.077    3.692 
#    0.000    4.615    0.000    0.000    0.000    5.385 
#    0.000    0.000    0.000    0.000    0.000    0.000 
#
# Total GULP energy -644319.625832 kJ/mol
# GULP energy per Si atom -12390.762035 kJ/mol
# Density = 1.917900 g / cm^3
# Si number density = 19.222753 Si / 1000 Ang^3
#
#
#
# Elastic Constant Matrix: (Units=GPa)
#
#
# Indices 1 2 3 4 5 6 
#
# 1 111.4596 21.0041 48.4396 0.0000 0.0000 0.0000
# 2 21.0041 38.8277 33.2081 0.0000 0.0000 0.0000
# 3 48.4396 33.2081 125.2014 0.0000 0.0000 0.0000
# 4 0.0000 0.0000 0.0000 23.8875 0.0000 0.0000
# 5 0.0000 0.0000 0.0000 0.0000 20.3875 0.0000
# 6 0.0000 0.0000 0.0000 0.0000 0.0000 15.1540
#
#
#
# Elastic Compliance Matrix: (Units=1/GPa)
#
#
# Indices 1 2 3 4 5 6 
#
# 1 0.011049 -0.003002 -0.003479 0.000000 0.000000 0.000000
# 2 -0.003002 0.034127 -0.007890 0.000000 0.000000 0.000000
# 3 -0.003479 -0.007890 0.011426 0.000000 0.000000 0.000000
# 4 0.000000 0.000000 0.000000 0.041863 0.000000 0.000000
# 5 0.000000 0.000000 0.000000 0.000000 0.049050 0.000000
# 6 0.000000 0.000000 0.000000 0.000000 0.000000 0.065989
#
#
# Mechanical properties :
#
#
# Convention : Reuss Voigt Hill
#
# Bulk Modulus (GPa) = 35.89340 53.42136 44.65738
# Shear Modulus (GPa) = 19.87812 23.40826 21.64319
#
# Velocity S-wave (km/s) = 3.21922 3.49339 3.35911
# Velocity P-wave (km/s) = 5.70357 6.64250 6.19086
#
# Compressibility (1/GPa) = 0.02786027
#
# Stress axis : x y z
#
# Youngs Moduli (GPa) = 90.50267 29.30219 87.52099
#
# Poissons Ratio (x) = 0.08797 0.30446
# Poissons Ratio (y) = 0.27169 0.69057
# Poissons Ratio (z) = 0.31483 0.23120
#
# Static dielectric constant tensor:
#      x y z
#    x 3.645770 0.000000 0.000000 
#    y 0.000000 3.367480 0.000000 
#    z 0.000000 0.000000 3.717520 
# 
# 
# High freq. dielectric constant tensor:
#      x y z
#    x 1.747080 0.000000 0.000000 
#    y 0.000000 1.727680 0.000000 
#    z 0.000000 0.000000 1.748420 
# 
# From -- ./inp_files/55187.got.cif
#   From: 2010.03.12/outbox.cif.g09.slc.cpg/sg74_28_cif.got.tgz:55187.got - 2010.04.16 15:46:19.
