data_PCOD8298680
_publ_section_title
;
Structure prediction by ZEFSAII (Michael W. Deem and Ramdas Pophale) SiO2 
 PCOD8298680
Probable space group: I M M A
;
_chemical_formula_sum "Si O2"
_cell_formula_units_Z 104
_cell_length_a 9.030244
_cell_length_b 25.799574
_cell_length_c 21.829021
_cell_angle_alpha 90.000000
_cell_angle_beta 90.000000
_cell_angle_gamma 90.000000
_cell_volume 5085.647783
_symmetry_space_group_name_H-M "I M M A"
_symmetry_group_IT_number 74
_symmetry_cell_setting 'orthorhombic'
loop_
_space_group_symop_operation_xyz
x,y,z
-x,1/2-y,z
x,-y,-z
-x,1/2+y,-z
-x,-y,-z
x,1/2+y,-z
-x,y,z
x,1/2-y,z
1/2+x,1/2+y,1/2+z
1/2-x,-y,1/2+z
1/2+x,1/2-y,1/2-z
1/2-x,y,1/2-z
1/2-x,1/2-y,1/2-z
1/2+x,y,1/2-z
1/2-x,1/2+y,1/2+z
1/2+x,-y,1/2+z
loop_
_atom_site_type_symbol
_atom_site_label
_atom_site_fract_x
_atom_site_fract_y
_atom_site_fract_z
Si Si1 0.824854 0.617326 0.495630
Si Si2 0.165075 0.629436 0.310006
Si Si3 0.833017 0.310333 0.904294
Si Si4 0.673239 0.455555 0.187751
Si Si5 0.163610 0.536226 0.404981
Si Si6 0.170721 0.849369 0.630637
Si Si7 0.176486 0.750000 0.816686
O O1 0.747875 0.664764 0.462097
O O2 0.766221 0.561414 0.467582
O O3 0.786051 0.623570 0.566649
O O4 0.000000 0.620717 0.482975
O O5 0.250000 0.610743 0.250000
O O6 0.250070 0.677513 0.340844
O O7 0.160854 0.582376 0.356632
O O8 0.000000 0.647512 0.292611
O O9 0.830589 0.250000 0.916501
O O10 0.000000 0.331808 0.900146
O O11 0.500000 0.469442 0.192773
O O12 0.750000 0.474145 0.250000
O O13 0.742543 0.487317 0.129023
O O14 0.697905 0.394080 0.180638
O O15 0.000000 0.516572 0.422379
O O16 0.274362 0.800721 0.645671
O O17 0.000000 0.830689 0.630532
O O18 0.250000 0.750000 0.750000
O O19 0.000000 0.750000 0.809407
#
# Coordination Sequence:
#
# PCOD8298680 Si02
#       7
#    16  16  16  16  16  16   8
#     4   9  19  36  57  82 113 148 188 232 282 340
#     4  10  19  32  51  75 105 142 186 231 283 340
#     4  10  21  35  51  73 103 139 184 236 287 340
#     4  10  20  35  57  85 118 152 191 236 283 339
#     4   8  16  32  54  82 113 148 187 228 277 334
#     4  10  22  39  61  90 119 152 192 237 290 348
#     4  12  26  44  66  88 118 156 195 244 295 346
#
# _framework density 20.449705999999999
#
# number of rings (size 3 to 8) (size 9 to 14) (size 15 to 20)
#    0.000    2.308    0.000    3.462    1.077    4.615 
#    0.000    6.154    0.000    0.000    0.000    6.462 
#    0.000    0.000    0.000    0.000    0.000    0.000 
#
# Total GULP energy -644446.523109 kJ/mol
# GULP energy per Si atom -12393.202367 kJ/mol
# Density = 2.040316 g / cm^3
# Si number density = 20.449706 Si / 1000 Ang^3
#
#
#
# Elastic Constant Matrix: (Units=GPa)
#
#
# Indices 1 2 3 4 5 6 
#
# 1 89.8274 34.8115 39.4280 0.0000 0.0000 0.0000
# 2 34.8115 100.5785 33.5262 0.0000 0.0000 0.0000
# 3 39.4280 33.5262 100.8827 0.0001 0.0000 0.0000
# 4 0.0000 0.0000 0.0001 25.4038 0.0000 0.0000
# 5 0.0000 0.0000 0.0000 0.0000 28.1903 0.0000
# 6 0.0000 0.0000 0.0000 0.0000 0.0000 19.5131
#
#
#
# Elastic Compliance Matrix: (Units=1/GPa)
#
#
# Indices 1 2 3 4 5 6 
#
# 1 0.014462 -0.003510 -0.004486 0.000000 0.000000 0.000000
# 2 -0.003510 0.012033 -0.002627 0.000000 0.000000 0.000000
# 3 -0.004486 -0.002627 0.012539 0.000000 0.000000 0.000000
# 4 0.000000 0.000000 0.000000 0.039364 0.000000 0.000000
# 5 0.000000 0.000000 0.000000 0.000000 0.035473 0.000000
# 6 0.000000 0.000000 0.000000 0.000000 0.000000 0.051248
#
#
# Mechanical properties :
#
#
# Convention : Reuss Voigt Hill
#
# Bulk Modulus (GPa) = 56.21818 56.31335 56.26577
# Shear Modulus (GPa) = 26.00199 26.85631 26.42915
#
# Velocity S-wave (km/s) = 3.56969 3.62786 3.59889
# Velocity P-wave (km/s) = 6.67390 6.71906 6.69652
#
# Compressibility (1/GPa) = 0.01778784
#
# Stress axis : x y z
#
# Youngs Moduli (GPa) = 69.14854 83.10423 79.75364
#
# Poissons Ratio (x) = 0.29171 0.35774
# Poissons Ratio (y) = 0.24272 0.20952
# Poissons Ratio (z) = 0.31017 0.21832
#
# Static dielectric constant tensor:
#      x y z
#    x 3.638700 0.000000 0.000000 
#    y 0.000000 3.724210 0.000000 
#    z 0.000000 0.000000 3.928030 
# 
# 
# High freq. dielectric constant tensor:
#      x y z
#    x 1.771350 0.000000 0.000000 
#    y 0.000000 1.802220 0.000000 
#    z 0.000000 0.000000 1.808470 
# 
# From -- ./inp_files/49298.got.cif
#   From: 2010.03.12/outbox.cif.g09.slc.cpg/sg74_25_cif.got.tgz:49298.got - 2010.04.16 15:46:19.
