data_PCOD8298371
_publ_section_title
;
Structure prediction by ZEFSAII (Michael W. Deem and Ramdas Pophale) SiO2 
 PCOD8298371
Probable space group: I M M A
;
_chemical_formula_sum "Si O2"
_cell_formula_units_Z 80
_cell_length_a 14.872995
_cell_length_b 23.487817
_cell_length_c 12.162368
_cell_angle_alpha 90.000000
_cell_angle_beta 90.000000
_cell_angle_gamma 90.000000
_cell_volume 4248.730911
_symmetry_space_group_name_H-M "I M M A"
_symmetry_group_IT_number 74
_symmetry_cell_setting 'orthorhombic'
loop_
_space_group_symop_operation_xyz
x,y,z
-x,1/2-y,z
x,-y,-z
-x,1/2+y,-z
-x,-y,-z
x,1/2+y,-z
-x,y,z
x,1/2-y,z
1/2+x,1/2+y,1/2+z
1/2-x,-y,1/2+z
1/2+x,1/2-y,1/2-z
1/2-x,y,1/2-z
1/2-x,1/2-y,1/2-z
1/2+x,y,1/2-z
1/2-x,1/2+y,1/2+z
1/2+x,-y,1/2+z
loop_
_atom_site_type_symbol
_atom_site_label
_atom_site_fract_x
_atom_site_fract_y
_atom_site_fract_z
Si Si1 0.603645 0.316168 0.132974
Si Si2 0.337737 0.000000 0.000000
Si Si3 0.750000 0.901669 0.250000
Si Si4 0.756172 0.379210 0.513859
Si Si5 0.600911 0.494462 0.763476
Si Si6 0.895408 0.612120 0.845869
O O1 0.500000 0.327349 0.102032
O O2 0.626518 0.250000 0.140731
O O3 0.662522 0.344264 0.038086
O O4 0.627044 0.343412 0.249996
O O5 0.273442 0.946376 0.015512
O O6 0.399248 0.990463 0.892982
O O7 0.751215 0.861085 0.357540
O O8 0.662495 0.941114 0.263659
O O9 0.662708 0.368428 0.450678
O O10 0.500000 0.478744 0.728086
O O11 0.634280 0.549551 0.695367
O O12 0.000000 0.613893 0.878853
#
# Coordination Sequence:
#
# PCOD8298371 Si02
#       6
#    16   8   8  16  16  16
#     4  10  22  39  61  88 110 135 182 239 291 338
#     4  10  19  30  53  84 114 148 191 222 269 340
#     4  10  24  36  49  82 113 154 196 224 256 340
#     4  11  21  36  56  78 116 151 186 229 277 323
#     4  10  19  32  50  77 114 151 183 226 276 325
#     4  10  20  34  55  82 111 145 183 227 282 336
#
# _framework density 18.829151
#
# number of rings (size 3 to 8) (size 9 to 14) (size 15 to 20)
#    0.000    1.800    2.000    3.300    0.000    5.600 
#    0.000    3.000    0.000    0.000    0.000    2.800 
#    0.000    0.000    0.000    0.000    0.000    0.000 
#
# Total GULP energy -496060.189747 kJ/mol
# GULP energy per Si atom -12401.504744 kJ/mol
# Density = 1.878630 g / cm^3
# Si number density = 18.829151 Si / 1000 Ang^3
#
#
#
# Elastic Constant Matrix: (Units=GPa)
#
#
# Indices 1 2 3 4 5 6 
#
# 1 93.4320 33.5517 68.4573 0.0001 0.0000 0.0000
# 2 33.5517 56.9464 48.9717 0.0003 0.0000 0.0000
# 3 68.4573 48.9717 152.3956 0.0005 0.0000 0.0000
# 4 0.0001 0.0003 0.0005 16.7453 0.0000 0.0000
# 5 0.0000 0.0000 0.0000 0.0000 20.0109 0.0000
# 6 0.0000 0.0000 0.0000 0.0000 0.0000 18.1300
#
#
#
# Elastic Compliance Matrix: (Units=1/GPa)
#
#
# Indices 1 2 3 4 5 6 
#
# 1 0.016823 -0.004716 -0.006042 0.000000 0.000000 0.000000
# 2 -0.004716 0.025589 -0.006104 0.000000 0.000000 0.000000
# 3 -0.006042 -0.006104 0.011237 0.000000 0.000000 0.000000
# 4 0.000000 0.000000 0.000000 0.059718 0.000000 0.000000
# 5 0.000000 0.000000 0.000000 0.000000 0.049973 0.000000
# 6 0.000000 0.000000 0.000000 0.000000 0.000000 0.055157
#
#
# Mechanical properties :
#
#
# Convention : Reuss Voigt Hill
#
# Bulk Modulus (GPa) = 50.18842 67.19284 58.69063
# Shear Modulus (GPa) = 19.31522 21.09678 20.20600
#
# Velocity S-wave (km/s) = 3.20631 3.35092 3.27941
# Velocity P-wave (km/s) = 6.35765 7.12282 6.75108
#
# Compressibility (1/GPa) = 0.01992491
#
# Stress axis : x y z
#
# Youngs Moduli (GPa) = 59.44142 39.08000 88.98933
#
# Poissons Ratio (x) = 0.18432 0.53763
# Poissons Ratio (y) = 0.28035 0.54320
# Poissons Ratio (z) = 0.35912 0.23855
#
# Static dielectric constant tensor:
#      x y z
#    x 3.395160 0.000000 0.000000 
#    y 0.000000 3.232120 0.000000 
#    z 0.000000 0.000000 3.756050 
# 
# 
# High freq. dielectric constant tensor:
#      x y z
#    x 1.739820 0.000000 0.000000 
#    y 0.000000 1.700330 0.000000 
#    z 0.000000 0.000000 1.731690 
# 
# From -- ./inp_files/20537.got.cif
#   From: 2010.03.12/outbox.cif.g09.slc.cpg/sg74_11_cif.got.tgz:20537.got - 2010.04.16 15:46:19.
