data_PCOD8298836
_publ_section_title
;
Structure prediction by ZEFSAII (Michael W. Deem and Ramdas Pophale) SiO2 
 PCOD8298836
Probable space group: I M M A
;
_chemical_formula_sum "Si O2"
_cell_formula_units_Z 120
_cell_length_a 8.786909
_cell_length_b 28.063428
_cell_length_c 28.260416
_cell_angle_alpha 90.000000
_cell_angle_beta 90.000000
_cell_angle_gamma 90.000000
_cell_volume 6968.758252
_symmetry_space_group_name_H-M "I M M A"
_symmetry_group_IT_number 74
_symmetry_cell_setting 'orthorhombic'
loop_
_space_group_symop_operation_xyz
x,y,z
-x,1/2-y,z
x,-y,-z
-x,1/2+y,-z
-x,-y,-z
x,1/2+y,-z
-x,y,z
x,1/2-y,z
1/2+x,1/2+y,1/2+z
1/2-x,-y,1/2+z
1/2+x,1/2-y,1/2-z
1/2-x,y,1/2-z
1/2-x,1/2-y,1/2-z
1/2+x,y,1/2-z
1/2-x,1/2+y,1/2+z
1/2+x,-y,1/2+z
loop_
_atom_site_type_symbol
_atom_site_label
_atom_site_fract_x
_atom_site_fract_y
_atom_site_fract_z
Si Si1 0.678858 0.648373 0.198551
Si Si2 0.321383 0.303575 0.299888
Si Si3 0.327512 0.750000 0.200435
Si Si4 0.176197 0.564112 0.144335
Si Si5 0.321066 0.105004 0.356841
Si Si6 0.320281 0.020741 0.199339
Si Si7 0.824114 0.560740 0.553244
Si Si8 0.676521 0.449694 0.947949
O O1 0.500000 0.634013 0.199484
O O2 0.750000 0.650901 0.250000
O O3 0.705742 0.700228 0.172950
O O4 0.780545 0.610952 0.171869
O O5 0.500000 0.304163 0.291974
O O6 0.266124 0.250000 0.314157
O O7 0.250000 0.319607 0.250000
O O8 0.276838 0.340836 0.341671
O O9 0.500000 0.750000 0.215898
O O10 0.250000 0.750000 0.250000
O O11 0.274444 0.519517 0.161990
O O12 0.216696 0.575938 0.090036
O O13 0.000000 0.551965 0.150910
O O14 0.500000 0.096263 0.352818
O O15 0.237899 0.071156 0.319437
O O16 0.271300 0.093521 0.410698
O O17 0.500000 0.022343 0.204361
O O18 0.250000 0.008194 0.250000
O O19 0.788246 0.574422 0.498786
O O20 0.781638 0.505348 0.555925
O O21 0.000000 0.568775 0.565825
O O22 0.500000 0.442220 0.935626
#
# Coordination Sequence:
#
# PCOD8298836 Si02
#       8
#    16  16   8  16  16  16  16  16
#     4  10  19  33  51  73 101 133 168 207 248 294
#     4   9  19  35  53  75 105 139 174 213 257 306
#     4   8  16  30  50  72  94 124 164 204 244 286
#     4  12  23  34  49  74 103 134 170 206 249 301
#     4  11  21  33  52  79 105 133 171 211 255 307
#     4  12  24  37  50  68 101 140 174 208 247 296
#     4   9  18  33  54  76 101 131 167 206 252 298
#     4   9  18  34  53  74 100 134 168 207 251 297
#
# _framework density 17.219711
#
# number of rings (size 3 to 8) (size 9 to 14) (size 15 to 20)
#    0.000    1.867    1.333    4.800    0.000    3.200 
#    0.000    1.333    0.000    0.000    1.733    0.000 
#    0.000    0.000    0.000    0.000    0.000    0.000 
#
# Total GULP energy -743620.157083 kJ/mol
# GULP energy per Si atom -12393.669285 kJ/mol
# Density = 1.718052 g / cm^3
# Si number density = 17.219711 Si / 1000 Ang^3
#
#
#
# Elastic Constant Matrix: (Units=GPa)
#
#
# Indices 1 2 3 4 5 6 
#
# 1 85.2356 35.1879 37.3901 0.0000 0.0000 0.0000
# 2 35.1879 91.7326 37.8115 0.0000 0.0000 0.0000
# 3 37.3901 37.8115 93.3578 -0.0001 0.0000 0.0000
# 4 0.0000 0.0000 -0.0001 8.4654 0.0000 0.0000
# 5 0.0000 0.0000 0.0000 0.0000 29.7374 0.0000
# 6 0.0000 0.0000 0.0000 0.0000 0.0000 28.1122
#
#
#
# Elastic Compliance Matrix: (Units=1/GPa)
#
#
# Indices 1 2 3 4 5 6 
#
# 1 0.015384 -0.004035 -0.004527 0.000000 0.000000 0.000000
# 2 -0.004035 0.014144 -0.004113 0.000000 0.000000 0.000000
# 3 -0.004527 -0.004113 0.014190 0.000000 0.000000 0.000000
# 4 0.000000 0.000000 0.000000 0.118128 0.000000 0.000000
# 5 0.000000 0.000000 0.000000 0.000000 0.033628 0.000000
# 6 0.000000 0.000000 0.000000 0.000000 0.000000 0.035572
#
#
# Mechanical properties :
#
#
# Convention : Reuss Voigt Hill
#
# Bulk Modulus (GPa) = 54.43974 54.56721 54.50347
# Shear Modulus (GPa) = 19.04629 23.92542 21.48585
#
# Velocity S-wave (km/s) = 3.32938 3.73154 3.53618
# Velocity P-wave (km/s) = 6.81638 7.09390 6.95653
#
# Compressibility (1/GPa) = 0.01836894
#
# Stress axis : x y z
#
# Youngs Moduli (GPa) = 65.00315 70.70004 70.47104
#
# Poissons Ratio (x) = 0.28528 0.31902
# Poissons Ratio (y) = 0.26230 0.28982
# Poissons Ratio (z) = 0.29427 0.29076
#
# Static dielectric constant tensor:
#      x y z
#    x 3.229700 0.000000 0.000000 
#    y 0.000000 3.835440 0.000000 
#    z 0.000000 0.000000 2.980040 
# 
# 
# High freq. dielectric constant tensor:
#      x y z
#    x 1.672740 0.000000 0.000000 
#    y 0.000000 1.652680 0.000000 
#    z 0.000000 0.000000 1.652630 
# 
# From -- ./inp_files/65152.got.cif
#   From: 2010.03.12/outbox.cif.g09.slc.cpg/sg74_33_cif.got.tgz:65152.got - 2010.04.16 15:46:19.
