data_PCOD8298749
_publ_section_title
;
Structure prediction by ZEFSAII (Michael W. Deem and Ramdas Pophale) SiO2 
 PCOD8298749
Probable space group: I M M A
;
_chemical_formula_sum "Si O2"
_cell_formula_units_Z 96
_cell_length_a 24.267515
_cell_length_b 16.582439
_cell_length_c 13.058760
_cell_angle_alpha 90.000000
_cell_angle_beta 90.000000
_cell_angle_gamma 90.000000
_cell_volume 5255.035514
_symmetry_space_group_name_H-M "I M M A"
_symmetry_group_IT_number 74
_symmetry_cell_setting 'orthorhombic'
loop_
_space_group_symop_operation_xyz
x,y,z
-x,1/2-y,z
x,-y,-z
-x,1/2+y,-z
-x,-y,-z
x,1/2+y,-z
-x,y,z
x,1/2-y,z
1/2+x,1/2+y,1/2+z
1/2-x,-y,1/2+z
1/2+x,1/2-y,1/2-z
1/2-x,y,1/2-z
1/2-x,1/2-y,1/2-z
1/2+x,y,1/2-z
1/2-x,1/2+y,1/2+z
1/2+x,-y,1/2+z
loop_
_atom_site_type_symbol
_atom_site_label
_atom_site_fract_x
_atom_site_fract_y
_atom_site_fract_z
Si Si1 0.563878 0.657799 0.262061
Si Si2 0.063233 0.410459 0.541956
Si Si3 0.809934 0.427275 0.221658
Si Si4 0.279350 0.342096 0.476862
Si Si5 0.340084 0.158589 0.080731
Si Si6 0.634200 0.444737 0.591762
O O1 0.500000 0.659555 0.287381
O O2 0.585158 0.750000 0.244148
O O3 0.575413 0.601761 0.162648
O O4 0.591337 0.619713 0.363504
O O5 0.075205 0.500000 0.500000
O O6 0.104345 0.351176 0.483564
O O7 0.000000 0.385741 0.518048
O O8 0.750000 0.462146 0.250000
O O9 0.801493 0.356742 0.138054
O O10 0.843420 0.394161 0.317761
O O11 0.848050 0.498921 0.184109
O O12 0.290771 0.250000 0.507189
O O13 0.214400 0.364203 0.485259
O O14 0.310946 0.399920 0.554219
O O15 0.334239 0.250000 0.116675
O O16 0.608540 0.500000 0.500000
#
# Coordination Sequence:
#
# PCOD8298749 Si02
#       6
#    16  16  16  16  16  16
#     4  10  21  37  55  74 100 136 172 207 255 311
#     4  10  21  36  54  76 103 135 171 210 251 300
#     4   9  18  32  50  73 103 135 166 201 250 307
#     4   9  18  32  50  75 104 133 168 208 252 303
#     4  10  19  32  53  77 102 135 170 206 250 300
#     4  10  20  33  52  77 101 130 168 213 255 294
#
# _framework density 18.268191999999999
#
# number of rings (size 3 to 8) (size 9 to 14) (size 15 to 20)
#    0.000    2.333    0.000    2.500    0.000    8.000 
#    0.000    0.000    0.000    5.000    0.000    0.000 
#    0.000    0.000    0.000    0.000    0.000    0.000 
#
# Total GULP energy -595086.518265 kJ/mol
# GULP energy per Si atom -12397.635797 kJ/mol
# Density = 1.822661 g / cm^3
# Si number density = 18.268192 Si / 1000 Ang^3
#
#
#
# Elastic Constant Matrix: (Units=GPa)
#
#
# Indices 1 2 3 4 5 6 
#
# 1 77.8228 37.7784 51.1548 0.0000 0.0000 0.0000
# 2 37.7784 100.1566 50.2027 0.0000 0.0000 0.0000
# 3 51.1548 50.2027 97.9051 0.0000 0.0000 0.0000
# 4 0.0000 0.0000 0.0000 27.1829 0.0000 0.0000
# 5 0.0000 0.0000 0.0000 0.0000 28.6143 0.0000
# 6 0.0000 0.0000 0.0000 0.0000 0.0000 26.0513
#
#
#
# Elastic Compliance Matrix: (Units=1/GPa)
#
#
# Indices 1 2 3 4 5 6 
#
# 1 0.020283 -0.003148 -0.008984 0.000000 0.000000 0.000000
# 2 -0.003148 0.013927 -0.005497 0.000000 0.000000 0.000000
# 3 -0.008984 -0.005497 0.017726 0.000000 0.000000 0.000000
# 4 0.000000 0.000000 0.000000 0.036788 0.000000 0.000000
# 5 0.000000 0.000000 0.000000 0.000000 0.034948 0.000000
# 6 0.000000 0.000000 0.000000 0.000000 0.000000 0.038386
#
#
# Mechanical properties :
#
#
# Convention : Reuss Voigt Hill
#
# Bulk Modulus (GPa) = 59.95117 61.57294 60.76205
# Shear Modulus (GPa) = 24.64596 25.48627 25.06611
#
# Velocity S-wave (km/s) = 3.67702 3.73918 3.70823
# Velocity P-wave (km/s) = 7.13553 7.24017 7.18804
#
# Compressibility (1/GPa) = 0.01668024
#
# Stress axis : x y z
#
# Youngs Moduli (GPa) = 49.30271 71.80428 56.41305
#
# Poissons Ratio (x) = 0.22601 0.50680
# Poissons Ratio (y) = 0.15518 0.31008
# Poissons Ratio (z) = 0.44292 0.39468
#
# Static dielectric constant tensor:
#      x y z
#    x 3.289510 0.000000 0.000000 
#    y 0.000000 3.393260 0.000000 
#    z 0.000000 0.000000 3.305180 
# 
# 
# High freq. dielectric constant tensor:
#      x y z
#    x 1.699020 0.000000 0.000000 
#    y 0.000000 1.714800 0.000000 
#    z 0.000000 0.000000 1.704040 
# 
# From -- ./inp_files/22417.got.cif
#   From: 2010.03.12/outbox.cif.g09.slc.cpg/sg74_12_cif.got.tgz:22417.got - 2010.04.16 15:46:19.
