data_PCOD8298458
_publ_section_title
;
Structure prediction by ZEFSAII (Michael W. Deem and Ramdas Pophale) SiO2 
 PCOD8298458
Probable space group: I M M A
;
_chemical_formula_sum "Si O2"
_cell_formula_units_Z 72
_cell_length_a 8.777645
_cell_length_b 16.391757
_cell_length_c 27.379066
_cell_angle_alpha 90.000000
_cell_angle_beta 90.000000
_cell_angle_gamma 90.000000
_cell_volume 3939.328049
_symmetry_space_group_name_H-M "I M M A"
_symmetry_group_IT_number 74
_symmetry_cell_setting 'orthorhombic'
loop_
_space_group_symop_operation_xyz
x,y,z
-x,1/2-y,z
x,-y,-z
-x,1/2+y,-z
-x,-y,-z
x,1/2+y,-z
-x,y,z
x,1/2-y,z
1/2+x,1/2+y,1/2+z
1/2-x,-y,1/2+z
1/2+x,1/2-y,1/2-z
1/2-x,y,1/2-z
1/2-x,1/2-y,1/2-z
1/2+x,y,1/2-z
1/2-x,1/2+y,1/2+z
1/2+x,-y,1/2+z
loop_
_atom_site_type_symbol
_atom_site_label
_atom_site_fract_x
_atom_site_fract_y
_atom_site_fract_z
Si Si1 0.324185 0.560741 0.199993
Si Si2 0.819953 0.914678 0.857519
Si Si3 0.824059 0.161522 0.608087
Si Si4 0.181443 0.003543 0.555705
Si Si5 0.320101 0.750000 0.695897
O O1 0.500000 0.536543 0.206642
O O2 0.250000 0.589308 0.250000
O O3 0.237037 0.482248 0.180061
O O4 0.304555 0.637857 0.164560
O O5 0.749353 0.929994 0.911594
O O6 0.766276 0.828043 0.835680
O O7 0.000000 0.918898 0.862452
O O8 0.745214 0.250000 0.598855
O O9 0.000000 0.168705 0.594085
O O10 0.752160 0.090008 0.575046
O O11 0.000000 0.998810 0.561046
O O12 0.235895 0.000000 0.500000
O O13 0.500000 0.750000 0.703110
O O14 0.250000 0.750000 0.750000
#
# Coordination Sequence:
#
# PCOD8298458 Si02
#       5
#    16  16  16  16   8
#     4  10  19  31  49  73 100 132 169 207 249 300
#     4  10  20  35  53  74 102 136 174 213 257 306
#     4   8  15  29  48  69  97 131 164 202 245 291
#     4   9  18  34  54  77 103 131 169 213 257 307
#     4  10  22  36  52  76 106 140 176 218 261 314
#
# _framework density 18.277228999999998
#
# number of rings (size 3 to 8) (size 9 to 14) (size 15 to 20)
#    0.000    2.667    0.000    3.333    0.000    4.444 
#    2.000    0.000    0.000   16.000    0.000    0.000 
#    0.000    0.000    0.000    0.000    0.000    0.000 
#
# Total GULP energy -446221.266077 kJ/mol
# GULP energy per Si atom -12395.035169 kJ/mol
# Density = 1.823563 g / cm^3
# Si number density = 18.277229 Si / 1000 Ang^3
#
#
#
# Elastic Constant Matrix: (Units=GPa)
#
#
# Indices 1 2 3 4 5 6 
#
# 1 40.4585 27.5754 36.5653 0.0000 0.0000 0.0000
# 2 27.5754 136.1316 64.6877 0.0000 0.0000 0.0000
# 3 36.5653 64.6877 158.2785 0.0000 0.0000 0.0000
# 4 0.0000 0.0000 0.0000 21.7386 0.0000 0.0000
# 5 0.0000 0.0000 0.0000 0.0000 30.0450 0.0000
# 6 0.0000 0.0000 0.0000 0.0000 0.0000 20.1553
#
#
#
# Elastic Compliance Matrix: (Units=1/GPa)
#
#
# Indices 1 2 3 4 5 6 
#
# 1 0.032726 -0.003768 -0.006020 0.000000 0.000000 0.000000
# 2 -0.003768 0.009550 -0.003033 0.000000 0.000000 0.000000
# 3 -0.006020 -0.003033 0.008948 0.000000 0.000000 0.000000
# 4 0.000000 0.000000 0.000000 0.046001 0.000000 0.000000
# 5 0.000000 0.000000 0.000000 0.000000 0.033283 0.000000
# 6 0.000000 0.000000 0.000000 0.000000 0.000000 0.049615
#
#
# Mechanical properties :
#
#
# Convention : Reuss Voigt Hill
#
# Bulk Modulus (GPa) = 39.08995 65.83618 52.46307
# Shear Modulus (GPa) = 23.33251 28.12380 25.72815
#
# Velocity S-wave (km/s) = 3.57681 3.92693 3.75595
# Velocity P-wave (km/s) = 6.20418 7.52729 6.89753
#
# Compressibility (1/GPa) = 0.02558202
#
# Stress axis : x y z
#
# Youngs Moduli (GPa) = 30.55677 104.70979 111.75512
#
# Poissons Ratio (x) = 0.39459 0.67278
# Poissons Ratio (y) = 0.11515 0.33890
# Poissons Ratio (z) = 0.18396 0.31754
#
# Static dielectric constant tensor:
#      x y z
#    x 3.179620 0.000000 0.000000 
#    y 0.000000 3.627860 0.000000 
#    z 0.000000 0.000000 3.452850 
# 
# 
# High freq. dielectric constant tensor:
#      x y z
#    x 1.688140 0.000000 0.000000 
#    y 0.000000 1.709380 0.000000 
#    z 0.000000 0.000000 1.710320 
# 
# From -- ./inp_files/63596.got.cif
#   From: 2010.03.12/outbox.cif.g09.slc.cpg/sg74_32_cif.got.tgz:63596.got - 2010.04.16 15:46:19.
