data_PCOD8298309
_publ_section_title
;
Structure prediction by ZEFSAII (Michael W. Deem and Ramdas Pophale) SiO2 
 PCOD8298309
Probable space group: I M M A
;
_chemical_formula_sum "Si O2"
_cell_formula_units_Z 96
_cell_length_a 29.823292
_cell_length_b 9.465007
_cell_length_c 19.315468
_cell_angle_alpha 90.000000
_cell_angle_beta 90.000000
_cell_angle_gamma 90.000000
_cell_volume 5452.325255
_symmetry_space_group_name_H-M "I M M A"
_symmetry_group_IT_number 74
_symmetry_cell_setting 'orthorhombic'
loop_
_space_group_symop_operation_xyz
x,y,z
-x,1/2-y,z
x,-y,-z
-x,1/2+y,-z
-x,-y,-z
x,1/2+y,-z
-x,y,z
x,1/2-y,z
1/2+x,1/2+y,1/2+z
1/2-x,-y,1/2+z
1/2+x,1/2-y,1/2-z
1/2-x,y,1/2-z
1/2-x,1/2-y,1/2-z
1/2+x,y,1/2-z
1/2-x,1/2+y,1/2+z
1/2+x,-y,1/2+z
loop_
_atom_site_type_symbol
_atom_site_label
_atom_site_fract_x
_atom_site_fract_y
_atom_site_fract_z
Si Si1 0.273437 0.914950 0.319703
Si Si2 0.126190 0.918083 0.178338
Si Si3 0.449642 0.588198 0.061421
Si Si4 0.448729 0.915753 0.429807
Si Si5 0.699459 0.416081 0.928815
Si Si6 0.121442 0.086475 0.669182
O O1 0.277967 0.750000 0.304653
O O2 0.250000 0.981214 0.250000
O O3 0.323303 0.973172 0.337686
O O4 0.245263 0.947061 0.388267
O O5 0.122930 0.750000 0.177215
O O6 0.087769 0.974388 0.125891
O O7 0.117147 0.981336 0.255038
O O8 0.500000 0.535223 0.072193
O O9 0.446490 0.750000 0.038909
O O10 0.426169 0.560403 0.133970
O O11 0.426191 0.500000 0.000000
O O12 0.500000 0.942926 0.403496
O O13 0.441484 0.750000 0.444405
O O14 0.439596 0.000000 0.500000
O O15 0.692792 0.250000 0.944669
O O16 0.660064 0.477785 0.879788
O O17 0.700057 0.500000 0.000000
O O18 0.133896 0.250000 0.678292
#
# Coordination Sequence:
#
# PCOD8298309 Si02
#       6
#    16  16  16  16  16  16
#     4   9  15  27  46  68  92 120 155 194 232 272
#     4   9  16  27  47  72  93 117 155 196 230 269
#     4   9  17  28  42  61  86 116 147 180 219 261
#     4   9  18  32  50  72  98 126 155 193 241 287
#     4  10  19  30  47  70  93 119 152 188 228 273
#     4   9  16  27  44  67  91 115 147 189 228 263
#
# _framework density 17.607165999999999
#
# number of rings (size 3 to 8) (size 9 to 14) (size 15 to 20)
#    0.000    2.833    1.667    0.500    0.000    1.333 
#    0.000    3.333    0.000    2.500    0.000    4.667 
#    0.000    0.000    0.000    0.000    0.000    0.000 
#
# Total GULP energy -594762.714687 kJ/mol
# GULP energy per Si atom -12390.889889 kJ/mol
# Density = 1.756709 g / cm^3
# Si number density = 17.607166 Si / 1000 Ang^3
#
#
#
# Elastic Constant Matrix: (Units=GPa)
#
#
# Indices 1 2 3 4 5 6 
#
# 1 133.2430 25.3444 83.9949 0.0000 0.0000 0.0000
# 2 25.3444 22.6538 34.1725 0.0000 0.0000 0.0000
# 3 83.9949 34.1725 153.1998 0.0000 0.0000 0.0000
# 4 0.0000 0.0000 0.0000 22.8169 0.0000 0.0000
# 5 0.0000 0.0000 0.0000 0.0000 31.6206 0.0000
# 6 0.0000 0.0000 0.0000 0.0000 0.0000 11.1077
#
#
#
# Elastic Compliance Matrix: (Units=1/GPa)
#
#
# Indices 1 2 3 4 5 6 
#
# 1 0.011864 -0.005216 -0.005341 0.000000 0.000000 0.000000
# 2 -0.005216 0.068821 -0.012491 0.000000 0.000000 0.000000
# 3 -0.005341 -0.012491 0.012242 0.000000 0.000000 0.000000
# 4 0.000000 0.000000 0.000000 0.043827 0.000000 0.000000
# 5 0.000000 0.000000 0.000000 0.000000 0.031625 0.000000
# 6 0.000000 0.000000 0.000000 0.000000 0.000000 0.090028
#
#
# Mechanical properties :
#
#
# Convention : Reuss Voigt Hill
#
# Bulk Modulus (GPa) = 21.35381 66.23557 43.79469
# Shear Modulus (GPa) = 15.61937 24.14803 19.88370
#
# Velocity S-wave (km/s) = 2.98166 3.70738 3.36415
# Velocity P-wave (km/s) = 4.89979 7.48508 6.32591
#
# Compressibility (1/GPa) = 0.04683006
#
# Stress axis : x y z
#
# Youngs Moduli (GPa) = 84.28558 14.53043 81.68456
#
# Poissons Ratio (x) = 0.07579 0.43631
# Poissons Ratio (y) = 0.43965 1.02034
# Poissons Ratio (z) = 0.45020 0.18150
#
# Static dielectric constant tensor:
#      x y z
#    x 3.582690 0.000000 0.000000 
#    y 0.000000 2.749030 0.000000 
#    z 0.000000 0.000000 3.379110 
# 
# 
# High freq. dielectric constant tensor:
#      x y z
#    x 1.697280 0.000000 0.000000 
#    y 0.000000 1.615740 0.000000 
#    z 0.000000 0.000000 1.685040 
# 
# From -- ./inp_files/55083.got.cif
#   From: 2010.03.12/outbox.cif.g09.slc.cpg/sg74_28_cif.got.tgz:55083.got - 2010.04.16 15:46:19.
