data_PCOD8298054
_publ_section_title
;
Structure prediction by ZEFSAII (Michael W. Deem and Ramdas Pophale) SiO2 
 PCOD8298054
Probable space group: I M M A
;
_chemical_formula_sum "Si O2"
_cell_formula_units_Z 128
_cell_length_a 24.453664
_cell_length_b 16.567763
_cell_length_c 18.488911
_cell_angle_alpha 90.000000
_cell_angle_beta 90.000000
_cell_angle_gamma 90.000000
_cell_volume 7490.643803
_symmetry_space_group_name_H-M "I M M A"
_symmetry_group_IT_number 74
_symmetry_cell_setting 'orthorhombic'
loop_
_space_group_symop_operation_xyz
x,y,z
-x,1/2-y,z
x,-y,-z
-x,1/2+y,-z
-x,-y,-z
x,1/2+y,-z
-x,y,z
x,1/2-y,z
1/2+x,1/2+y,1/2+z
1/2-x,-y,1/2+z
1/2+x,1/2-y,1/2-z
1/2-x,y,1/2-z
1/2-x,1/2-y,1/2-z
1/2+x,y,1/2-z
1/2-x,1/2+y,1/2+z
1/2+x,-y,1/2+z
loop_
_atom_site_type_symbol
_atom_site_label
_atom_site_fract_x
_atom_site_fract_y
_atom_site_fract_z
Si Si1 0.698532 0.961104 0.662556
Si Si2 0.339559 0.079107 0.040131
Si Si3 0.639379 0.933500 0.445745
Si Si4 0.614725 0.342939 0.802701
Si Si5 0.181151 0.999863 0.681208
Si Si6 0.438365 0.842703 0.045361
Si Si7 0.224999 0.843623 0.956647
Si Si8 0.439798 0.344680 0.651528
O O1 0.703959 0.875545 0.621330
O O2 0.655982 0.020389 0.626271
O O3 0.756266 0.006435 0.657504
O O4 0.677340 0.949233 0.744207
O O5 0.290313 0.143622 0.034345
O O6 0.352799 0.053104 0.122901
O O7 0.395311 0.109384 0.003790
O O8 0.317439 0.000000 0.000000
O O9 0.691534 0.888920 0.480634
O O10 0.593365 0.871799 0.419534
O O11 0.614196 0.000000 0.500000
O O12 0.636999 0.250000 0.799521
O O13 0.663346 0.406706 0.814064
O O14 0.572998 0.352567 0.869319
O O15 0.585866 0.368722 0.728503
O O16 0.500000 0.874797 0.030558
O O17 0.433646 0.750000 0.022272
O O18 0.211654 0.750000 0.961421
O O19 0.500000 0.383994 0.647783
O O20 0.443997 0.250000 0.646684
#
# Coordination Sequence:
#
# PCOD8298054 Si02
#       8
#    16  16  16  16  16  16  16  16
#     4   9  19  34  52  73 106 136 164 211 258 299
#     4  11  20  34  52  76 104 138 173 211 256 300
#     4  10  19  33  54  77 104 134 166 206 260 308
#     4  10  19  33  52  74 102 137 171 207 252 302
#     4  10  18  34  52  74 103 135 170 209 252 303
#     4  10  21  36  52  74 105 138 173 214 256 298
#     4  10  20  34  53  78 104 135 171 208 256 311
#     4  10  20  34  51  74 104 135 169 209 252 301
#
# _framework density 17.087983999999999
#
# number of rings (size 3 to 8) (size 9 to 14) (size 15 to 20)
#    0.000    2.000    2.500    3.000    0.000    2.000 
#    0.000    7.500    0.000    0.000    0.000    0.000 
#    0.000    2.500    0.000    0.000    0.000    0.000 
#
# Total GULP energy -793306.787679 kJ/mol
# GULP energy per Si atom -12395.418557 kJ/mol
# Density = 1.704909 g / cm^3
# Si number density = 17.087984 Si / 1000 Ang^3
#
#
#
# Elastic Constant Matrix: (Units=GPa)
#
#
# Indices 1 2 3 4 5 6 
#
# 1 70.2380 27.3106 44.1241 0.0000 0.0000 0.0000
# 2 27.3106 64.0135 32.4138 0.0000 0.0000 0.0000
# 3 44.1241 32.4138 117.0979 0.0000 0.0000 0.0000
# 4 0.0000 0.0000 0.0000 26.1684 0.0000 0.0000
# 5 0.0000 0.0000 0.0000 0.0000 17.2263 0.0000
# 6 0.0000 0.0000 0.0000 0.0000 0.0000 18.8459
#
#
#
# Elastic Compliance Matrix: (Units=1/GPa)
#
#
# Indices 1 2 3 4 5 6 
#
# 1 0.020214 -0.005544 -0.006082 0.000000 0.000000 0.000000
# 2 -0.005544 0.019689 -0.003361 0.000000 0.000000 0.000000
# 3 -0.006082 -0.003361 0.011762 0.000000 0.000000 0.000000
# 4 0.000000 0.000000 0.000000 0.038214 0.000000 0.000000
# 5 0.000000 0.000000 0.000000 0.000000 0.058051 0.000000
# 6 0.000000 0.000000 0.000000 0.000000 0.000000 0.053062
#
#
# Mechanical properties :
#
#
# Convention : Reuss Voigt Hill
#
# Bulk Modulus (GPa) = 46.10384 51.00517 48.55451
# Shear Modulus (GPa) = 20.99108 22.28153 21.63631
#
# Velocity S-wave (km/s) = 3.50867 3.61491 3.56219
# Velocity P-wave (km/s) = 6.59191 6.88018 6.73758
#
# Compressibility (1/GPa) = 0.02169017
#
# Stress axis : x y z
#
# Youngs Moduli (GPa) = 49.47073 50.78998 85.01913
#
# Poissons Ratio (x) = 0.28159 0.51710
# Poissons Ratio (y) = 0.27428 0.28574
# Poissons Ratio (z) = 0.30089 0.17070
#
# Static dielectric constant tensor:
#      x y z
#    x 3.114080 0.000000 0.000000 
#    y 0.000000 3.111030 0.000000 
#    z 0.000000 0.000000 3.439220 
# 
# 
# High freq. dielectric constant tensor:
#      x y z
#    x 1.644610 0.000000 0.000000 
#    y 0.000000 1.647770 0.000000 
#    z 0.000000 0.000000 1.670590 
# 
# From -- ./inp_files/46296.got.cif
#   From: 2010.03.12/outbox.cif.g09.slc.cpg/sg74_24_cif.got.tgz:46296.got - 2010.04.16 15:46:19.
