data_PCOD8298289
_publ_section_title
;
Structure prediction by ZEFSAII (Michael W. Deem and Ramdas Pophale) SiO2 
 PCOD8298289
Probable space group: I M M A
;
_chemical_formula_sum "Si O2"
_cell_formula_units_Z 96
_cell_length_a 18.587478
_cell_length_b 9.383930
_cell_length_c 32.434351
_cell_angle_alpha 90.000000
_cell_angle_beta 90.000000
_cell_angle_gamma 90.000000
_cell_volume 5657.316020
_symmetry_space_group_name_H-M "I M M A"
_symmetry_group_IT_number 74
_symmetry_cell_setting 'orthorhombic'
loop_
_space_group_symop_operation_xyz
x,y,z
-x,1/2-y,z
x,-y,-z
-x,1/2+y,-z
-x,-y,-z
x,1/2+y,-z
-x,y,z
x,1/2-y,z
1/2+x,1/2+y,1/2+z
1/2-x,-y,1/2+z
1/2+x,1/2-y,1/2-z
1/2-x,y,1/2-z
1/2-x,1/2-y,1/2-z
1/2+x,y,1/2-z
1/2-x,1/2+y,1/2+z
1/2+x,-y,1/2+z
loop_
_atom_site_type_symbol
_atom_site_label
_atom_site_fract_x
_atom_site_fract_y
_atom_site_fract_z
Si Si1 0.345284 0.581691 0.840207
Si Si2 0.717737 0.413529 0.960032
Si Si3 0.919026 0.914559 0.409823
Si Si4 0.919304 0.084727 0.824363
Si Si5 0.715977 0.415144 0.625128
Si Si6 0.417755 0.414237 0.244824
O O1 0.342385 0.750000 0.848550
O O2 0.404191 0.512908 0.870450
O O3 0.267430 0.512730 0.847128
O O4 0.368065 0.546272 0.793719
O O5 0.723007 0.250000 0.972519
O O6 0.636463 0.454012 0.946271
O O7 0.772828 0.451356 0.923042
O O8 0.741094 0.500000 0.000000
O O9 0.907432 0.750000 0.396724
O O10 0.000000 0.942175 0.425708
O O11 0.918291 0.250000 0.813084
O O12 0.866326 0.051422 0.862572
O O13 0.000000 0.034985 0.836802
O O14 0.891153 0.003393 0.784033
O O15 0.736090 0.250000 0.633172
O O16 0.500000 0.451978 0.233554
O O17 0.409634 0.250000 0.256769
#
# Coordination Sequence:
#
# PCOD8298289 Si02
#       6
#    16  16  16  16  16  16
#     4  10  19  30  46  69  97 130 167 199 227 267
#     4   9  18  32  49  69  93 121 152 188 232 280
#     4   9  18  32  48  67  95 130 164 198 235 269
#     4   9  18  33  53  73  90 116 157 196 231 279
#     4   9  19  35  51  69  95 122 150 191 240 282
#     4   9  18  31  45  65  97 131 159 193 234 268
#
# _framework density 16.969176999999998
#
# number of rings (size 3 to 8) (size 9 to 14) (size 15 to 20)
#    0.000    2.833    0.000    2.000    0.000    6.667 
#    0.000    5.000    0.000    0.500    0.000    0.000 
#    0.000    0.000    0.000    0.000    0.000    0.333 
#
# Total GULP energy -595151.610636 kJ/mol
# GULP energy per Si atom -12398.991888 kJ/mol
# Density = 1.693055 g / cm^3
# Si number density = 16.969177 Si / 1000 Ang^3
#
#
#
# Elastic Constant Matrix: (Units=GPa)
#
#
# Indices 1 2 3 4 5 6 
#
# 1 87.9665 40.3449 69.8920 0.0000 0.0000 0.0000
# 2 40.3449 62.6087 58.4110 0.0000 0.0000 0.0000
# 3 69.8920 58.4110 127.3240 0.0000 0.0000 0.0000
# 4 0.0000 0.0000 0.0000 31.3921 0.0000 0.0000
# 5 0.0000 0.0000 0.0000 0.0000 16.9834 0.0000
# 6 0.0000 0.0000 0.0000 0.0000 0.0000 18.7839
#
#
#
# Elastic Compliance Matrix: (Units=1/GPa)
#
#
# Indices 1 2 3 4 5 6 
#
# 1 0.020971 -0.004849 -0.009287 0.000000 0.000000 0.000000
# 2 -0.004849 0.029045 -0.010663 0.000000 0.000000 0.000000
# 3 -0.009287 -0.010663 0.017843 0.000000 0.000000 0.000000
# 4 0.000000 0.000000 0.000000 0.031855 0.000000 0.000000
# 5 0.000000 0.000000 0.000000 0.000000 0.058881 0.000000
# 6 0.000000 0.000000 0.000000 0.000000 0.000000 0.053237
#
#
# Mechanical properties :
#
#
# Convention : Reuss Voigt Hill
#
# Bulk Modulus (GPa) = 54.76029 68.35501 61.55765
# Shear Modulus (GPa) = 18.69040 20.71527 19.70284
#
# Velocity S-wave (km/s) = 3.32238 3.49773 3.41118
# Velocity P-wave (km/s) = 6.85989 7.52871 7.20207
#
# Compressibility (1/GPa) = 0.01826141
#
# Stress axis : x y z
#
# Youngs Moduli (GPa) = 47.68566 34.42945 56.04331
#
# Poissons Ratio (x) = 0.16696 0.52046
# Poissons Ratio (y) = 0.23124 0.59757
# Poissons Ratio (z) = 0.44284 0.36711
#
# Static dielectric constant tensor:
#      x y z
#    x 3.240290 0.000000 0.000000 
#    y 0.000000 3.178400 0.000000 
#    z 0.000000 0.000000 3.020140 
# 
# 
# High freq. dielectric constant tensor:
#      x y z
#    x 1.646380 0.000000 0.000000 
#    y 0.000000 1.656250 0.000000 
#    z 0.000000 0.000000 1.639030 
# 
# From -- ./inp_files/68153.got.cif
#   From: 2010.03.12/outbox.cif.g09.slc.cpg/sg74_35_cif.got.tgz:68153.got - 2010.04.16 15:46:19.
