data_PCOD8298221
_publ_section_title
;
Structure prediction by ZEFSAII (Michael W. Deem and Ramdas Pophale) SiO2 
 PCOD8298221
Probable space group: I M M A
;
_chemical_formula_sum "Si O2"
_cell_formula_units_Z 128
_cell_length_a 18.048043
_cell_length_b 18.624478
_cell_length_c 21.060128
_cell_angle_alpha 90.000000
_cell_angle_beta 90.000000
_cell_angle_gamma 90.000000
_cell_volume 7079.054124
_symmetry_space_group_name_H-M "I M M A"
_symmetry_group_IT_number 74
_symmetry_cell_setting 'orthorhombic'
loop_
_space_group_symop_operation_xyz
x,y,z
-x,1/2-y,z
x,-y,-z
-x,1/2+y,-z
-x,-y,-z
x,1/2+y,-z
-x,y,z
x,1/2-y,z
1/2+x,1/2+y,1/2+z
1/2-x,-y,1/2+z
1/2+x,1/2-y,1/2-z
1/2-x,y,1/2-z
1/2-x,1/2-y,1/2-z
1/2+x,y,1/2-z
1/2-x,1/2+y,1/2+z
1/2+x,-y,1/2+z
loop_
_atom_site_type_symbol
_atom_site_label
_atom_site_fract_x
_atom_site_fract_y
_atom_site_fract_z
Si Si1 0.217655 0.834152 0.555399
Si Si2 0.585212 0.432240 0.343357
Si Si3 0.588252 0.585026 0.291299
Si Si4 0.914473 0.671059 0.090685
Si Si5 0.357089 0.422362 0.481208
Si Si6 0.912028 0.669379 0.330429
Si Si7 0.216324 0.666212 0.813802
Si Si8 0.417479 0.335272 0.971862
O O1 0.224881 0.750000 0.542025
O O2 0.286093 0.871998 0.522430
O O3 0.224594 0.851651 0.630348
O O4 0.140332 0.863264 0.525433
O O5 0.500000 0.416284 0.326120
O O6 0.614005 0.504041 0.307508
O O7 0.593722 0.435775 0.419001
O O8 0.635359 0.366656 0.321270
O O9 0.500000 0.586670 0.292889
O O10 0.621735 0.637044 0.345791
O O11 0.618246 0.613528 0.222923
O O12 0.878677 0.750000 0.077030
O O13 0.000000 0.682166 0.104558
O O14 0.908422 0.615765 0.032831
O O15 0.327060 0.500000 0.500000
O O16 0.880504 0.750000 0.317781
O O17 0.889620 0.641687 0.401151
O O18 0.000000 0.673059 0.326884
O O19 0.201840 0.750000 0.808849
O O20 0.250000 0.633862 0.750000
O O21 0.500000 0.366789 0.986456
O O22 0.422468 0.250000 0.973385
#
# Coordination Sequence:
#
# PCOD8298221 Si02
#       8
#    16  16  16  16  16  16  16  16
#     4   9  18  33  53  75  99 130 167 208 255 312
#     4  10  20  33  52  76 101 132 172 216 259 304
#     4   9  16  27  44  69 100 133 167 207 251 297
#     4  10  19  29  45  70  99 135 177 217 256 300
#     4  11  20  32  48  69 102 139 175 209 257 306
#     4   8  13  23  42  68  99 133 165 199 241 290
#     4   9  19  37  57  75 100 133 166 210 263 313
#     4   8  14  27  50  78 102 126 163 210 256 304
#
# _framework density 18.081510999999999
#
# number of rings (size 3 to 8) (size 9 to 14) (size 15 to 20)
#    0.000    2.750    1.250    1.875    0.000    2.750 
#    0.000    3.125    0.000    2.625    0.000    3.500 
#    0.000    0.000    0.000    0.000    0.000    0.000 
#
# Total GULP energy -793035.587167 kJ/mol
# GULP energy per Si atom -12391.181049 kJ/mol
# Density = 1.804036 g / cm^3
# Si number density = 18.081511 Si / 1000 Ang^3
#
#
#
# Elastic Constant Matrix: (Units=GPa)
#
#
# Indices 1 2 3 4 5 6 
#
# 1 64.0614 27.3111 51.3897 0.0000 0.0000 0.0000
# 2 27.3111 58.1021 49.0263 0.0000 0.0000 0.0000
# 3 51.3897 49.0263 128.2917 0.0000 0.0000 0.0000
# 4 0.0000 0.0000 0.0000 14.8112 0.0000 0.0000
# 5 0.0000 0.0000 0.0000 0.0000 10.8295 0.0000
# 6 0.0000 0.0000 0.0000 0.0000 0.0000 9.4329
#
#
#
# Elastic Compliance Matrix: (Units=1/GPa)
#
#
# Indices 1 2 3 4 5 6 
#
# 1 0.023820 -0.004643 -0.007768 0.000000 0.000000 0.000000
# 2 -0.004643 0.026307 -0.008193 0.000000 0.000000 0.000000
# 3 -0.007768 -0.008193 0.014037 0.000000 0.000000 0.000000
# 4 0.000000 0.000000 0.000000 0.067517 0.000000 0.000000
# 5 0.000000 0.000000 0.000000 0.000000 0.092340 0.000000
# 6 0.000000 0.000000 0.000000 0.000000 0.000000 0.106012
#
#
# Mechanical properties :
#
#
# Convention : Reuss Voigt Hill
#
# Bulk Modulus (GPa) = 43.55893 56.21215 49.88554
# Shear Modulus (GPa) = 13.19631 15.19658 14.19645
#
# Velocity S-wave (km/s) = 2.70446 2.90219 2.80507
# Velocity P-wave (km/s) = 5.82192 6.51045 6.17579
#
# Compressibility (1/GPa) = 0.02295740
#
# Stress axis : x y z
#
# Youngs Moduli (GPa) = 41.98085 38.01276 71.23893
#
# Poissons Ratio (x) = 0.17648 0.55335
# Poissons Ratio (y) = 0.19490 0.58369
# Poissons Ratio (z) = 0.32609 0.31145
#
# Static dielectric constant tensor:
#      x y z
#    x 3.079850 0.000000 0.000000 
#    y 0.000000 3.337160 0.000000 
#    z 0.000000 0.000000 3.669370 
# 
# 
# High freq. dielectric constant tensor:
#      x y z
#    x 1.664550 0.000000 0.000000 
#    y 0.000000 1.690050 0.000000 
#    z 0.000000 0.000000 1.705860 
# 
# From -- ./inp_files/54181.got.cif
#   From: 2010.03.12/outbox.cif.g09.slc.cpg/sg74_28_cif.got.tgz:54181.got - 2010.04.16 15:46:19.
