data_PCOD8298355
_publ_section_title
;
Structure prediction by ZEFSAII (Michael W. Deem and Ramdas Pophale) SiO2 
 PCOD8298355
Probable space group: I M M A
;
_chemical_formula_sum "Si O2"
_cell_formula_units_Z 80
_cell_length_a 17.819522
_cell_length_b 16.363297
_cell_length_c 15.515120
_cell_angle_alpha 90.000000
_cell_angle_beta 90.000000
_cell_angle_gamma 90.000000
_cell_volume 4523.993811
_symmetry_space_group_name_H-M "I M M A"
_symmetry_group_IT_number 74
_symmetry_cell_setting 'orthorhombic'
loop_
_space_group_symop_operation_xyz
x,y,z
-x,1/2-y,z
x,-y,-z
-x,1/2+y,-z
-x,-y,-z
x,1/2+y,-z
-x,y,z
x,1/2-y,z
1/2+x,1/2+y,1/2+z
1/2-x,-y,1/2+z
1/2+x,1/2-y,1/2-z
1/2-x,y,1/2-z
1/2-x,1/2-y,1/2-z
1/2+x,y,1/2-z
1/2-x,1/2+y,1/2+z
1/2+x,-y,1/2+z
loop_
_atom_site_type_symbol
_atom_site_label
_atom_site_fract_x
_atom_site_fract_y
_atom_site_fract_z
Si Si1 0.313862 0.344480 0.000746
Si Si2 0.295242 0.439007 0.165833
Si Si3 0.913861 0.339611 0.805207
Si Si4 0.815309 0.559455 0.071810
Si Si5 0.087172 0.933203 0.363899
O O1 0.333712 0.250000 0.985683
O O2 0.313383 0.363291 0.103011
O O3 0.229949 0.364058 0.967931
O O4 0.374817 0.402424 0.952965
O O5 0.250000 0.406797 0.250000
O O6 0.243225 0.506860 0.124323
O O7 0.374509 0.486123 0.178828
O O8 0.877470 0.250000 0.819357
O O9 0.878880 0.407362 0.866484
O O10 0.903045 0.360980 0.705179
O O11 0.000000 0.337437 0.830923
O O12 0.852355 0.500000 0.000000
O O13 0.000000 0.953046 0.382115
#
# Coordination Sequence:
#
# PCOD8298355 Si02
#       5
#    16  16  16  16  16
#     4  10  21  33  51  78 105 136 171 215 265 308
#     4  10  19  35  54  74 101 137 181 214 250 313
#     4  10  19  30  49  77 105 133 167 212 266 317
#     4   9  18  33  51  71 100 134 172 214 255 312
#     4  10  20  35  54  78 109 140 171 215 271 326
#
# _framework density 17.683491
#
# number of rings (size 3 to 8) (size 9 to 14) (size 15 to 20)
#    0.000    2.200    2.000    3.000    0.000    3.600 
#    0.000    3.000    0.000    0.000    0.000    0.000 
#    0.000    0.000    0.000    0.000    0.000    0.000 
#
# Total GULP energy -495758.790385 kJ/mol
# GULP energy per Si atom -12393.969760 kJ/mol
# Density = 1.764324 g / cm^3
# Si number density = 17.683491 Si / 1000 Ang^3
#
#
#
# Elastic Constant Matrix: (Units=GPa)
#
#
# Indices 1 2 3 4 5 6 
#
# 1 68.0923 27.6929 43.3230 0.0000 0.0000 0.0000
# 2 27.6929 43.8816 23.0508 0.0000 0.0000 0.0000
# 3 43.3230 23.0508 97.9475 0.0000 0.0000 0.0000
# 4 0.0000 0.0000 0.0000 17.7011 0.0000 0.0000
# 5 0.0000 0.0000 0.0000 0.0000 25.7682 0.0000
# 6 0.0000 0.0000 0.0000 0.0000 0.0000 13.1649
#
#
#
# Elastic Compliance Matrix: (Units=1/GPa)
#
#
# Indices 1 2 3 4 5 6 
#
# 1 0.024409 -0.011106 -0.008183 0.000000 0.000000 0.000000
# 2 -0.011106 0.031056 -0.002397 0.000000 0.000000 0.000000
# 3 -0.008183 -0.002397 0.014393 0.000000 0.000000 0.000000
# 4 0.000000 0.000000 0.000000 0.056494 0.000000 0.000000
# 5 0.000000 0.000000 0.000000 0.000000 0.038807 0.000000
# 6 0.000000 0.000000 0.000000 0.000000 0.000000 0.075959
#
#
# Mechanical properties :
#
#
# Convention : Reuss Voigt Hill
#
# Bulk Modulus (GPa) = 37.75296 44.22829 40.99063
# Shear Modulus (GPa) = 17.04642 19.05051 18.04847
#
# Velocity S-wave (km/s) = 3.10816 3.28579 3.19821
# Velocity P-wave (km/s) = 5.85461 6.28177 6.07195
#
# Compressibility (1/GPa) = 0.02648799
#
# Stress axis : x y z
#
# Youngs Moduli (GPa) = 40.96911 32.19981 69.47928
#
# Poissons Ratio (x) = 0.35760 0.56852
# Poissons Ratio (y) = 0.45499 0.16651
# Poissons Ratio (z) = 0.33523 0.07717
#
# Static dielectric constant tensor:
#      x y z
#    x 3.581910 0.000000 0.000000 
#    y 0.000000 3.198240 0.000000 
#    z 0.000000 0.000000 3.670580 
# 
# 
# High freq. dielectric constant tensor:
#      x y z
#    x 1.673800 0.000000 0.000000 
#    y 0.000000 1.671200 0.000000 
#    z 0.000000 0.000000 1.683040 
# 
# From -- ./inp_files/32121.got.cif
#   From: 2010.03.12/outbox.cif.g09.slc.cpg/sg74_17_cif.got.tgz:32121.got - 2010.04.16 15:46:19.
