data_PCOD8298801
_publ_section_title
;
Structure prediction by ZEFSAII (Michael W. Deem and Ramdas Pophale) SiO2 
 PCOD8298801
Probable space group: I M M A
;
_chemical_formula_sum "Si O2"
_cell_formula_units_Z 96
_cell_length_a 24.259441
_cell_length_b 8.880471
_cell_length_c 22.587887
_cell_angle_alpha 90.000000
_cell_angle_beta 90.000000
_cell_angle_gamma 90.000000
_cell_volume 4866.227360
_symmetry_space_group_name_H-M "I M M A"
_symmetry_group_IT_number 74
_symmetry_cell_setting 'orthorhombic'
loop_
_space_group_symop_operation_xyz
x,y,z
-x,1/2-y,z
x,-y,-z
-x,1/2+y,-z
-x,-y,-z
x,1/2+y,-z
-x,y,z
x,1/2-y,z
1/2+x,1/2+y,1/2+z
1/2-x,-y,1/2+z
1/2+x,1/2-y,1/2-z
1/2-x,y,1/2-z
1/2-x,1/2-y,1/2-z
1/2+x,y,1/2-z
1/2-x,1/2+y,1/2+z
1/2+x,-y,1/2+z
loop_
_atom_site_type_symbol
_atom_site_label
_atom_site_fract_x
_atom_site_fract_y
_atom_site_fract_z
Si Si1 0.500000 0.927466 0.282308
Si Si2 0.885337 0.429010 0.834997
Si Si3 0.200775 0.923177 0.607620
Si Si4 0.084253 0.573991 0.560498
Si Si5 0.182347 0.070553 0.062702
Si Si6 0.500000 0.929973 0.147022
Si Si7 0.811661 0.582376 0.271838
O O1 0.500000 0.750000 0.276175
O O2 0.447321 0.980511 0.320067
O O3 0.500000 0.989812 0.214931
O O4 0.879425 0.250000 0.844991
O O5 0.865019 0.516192 0.892808
O O6 0.848853 0.485963 0.780000
O O7 0.212958 0.750000 0.617390
O O8 0.150117 0.952194 0.563287
O O9 0.257562 0.994907 0.582819
O O10 0.181878 0.985265 0.670209
O O11 0.062414 0.500000 0.500000
O O12 0.069217 0.750000 0.560907
O O13 0.054598 0.494119 0.615584
O O14 0.182237 0.250000 0.058027
O O15 0.167342 0.000000 0.000000
O O16 0.500000 0.750000 0.143284
O O17 0.832334 0.750000 0.287279
O O18 0.750000 0.583229 0.250000
#
# Coordination Sequence:
#
# PCOD8298801 Si02
#       7
#     8  16  16  16  16   8  16
#     4   9  20  38  63  88 113 148 188 233 286 343
#     4  10  20  38  60  86 117 149 189 234 282 339
#     4  10  22  37  56  84 119 154 192 237 289 341
#     4  11  23  39  57  82 115 156 200 243 286 338
#     4  11  23  39  59  85 115 151 190 234 287 343
#     4  11  22  40  63  86 113 152 195 241 288 339
#     4  10  19  32  55  86 117 151 189 232 283 340
#
# _framework density 19.727808
#
# number of rings (size 3 to 8) (size 9 to 14) (size 15 to 20)
#    0.000    1.667    1.667    3.000    0.000    4.333 
#    0.000    2.500    0.000    0.000    0.000    0.000 
#    0.000    0.000    0.000    0.000    0.000    0.000 
#
# Total GULP energy -595266.297587 kJ/mol
# GULP energy per Si atom -12401.381200 kJ/mol
# Density = 1.968291 g / cm^3
# Si number density = 19.727808 Si / 1000 Ang^3
#
#
#
# Elastic Constant Matrix: (Units=GPa)
#
#
# Indices 1 2 3 4 5 6 
#
# 1 134.4312 40.5321 70.6588 0.0000 0.0000 0.0000
# 2 40.5321 62.2717 47.4892 0.0000 0.0000 0.0000
# 3 70.6588 47.4892 151.5406 0.0000 0.0000 0.0000
# 4 0.0000 0.0000 0.0000 34.8416 0.0000 0.0000
# 5 0.0000 0.0000 0.0000 0.0000 24.7193 0.0000
# 6 0.0000 0.0000 0.0000 0.0000 0.0000 30.2129
#
#
#
# Elastic Compliance Matrix: (Units=1/GPa)
#
#
# Indices 1 2 3 4 5 6 
#
# 1 0.010599 -0.004113 -0.003653 0.000000 0.000000 0.000000
# 2 -0.004113 0.022698 -0.005195 0.000000 0.000000 0.000000
# 3 -0.003653 -0.005195 0.009930 0.000000 0.000000 0.000000
# 4 0.000000 0.000000 0.000000 0.028701 0.000000 0.000000
# 5 0.000000 0.000000 0.000000 0.000000 0.040454 0.000000
# 6 0.000000 0.000000 0.000000 0.000000 0.000000 0.033098
#
#
# Mechanical properties :
#
#
# Convention : Reuss Voigt Hill
#
# Bulk Modulus (GPa) = 57.78833 73.95596 65.87214
# Shear Modulus (GPa) = 28.22131 30.59233 29.40682
#
# Velocity S-wave (km/s) = 3.78634 3.94219 3.86505
# Velocity P-wave (km/s) = 6.96216 7.63484 7.30624
#
# Compressibility (1/GPa) = 0.01730453
#
# Stress axis : x y z
#
# Youngs Moduli (GPa) = 94.34926 44.05750 100.70238
#
# Poissons Ratio (x) = 0.18120 0.36787
# Poissons Ratio (y) = 0.38805 0.52317
# Poissons Ratio (z) = 0.34467 0.22889
#
# Static dielectric constant tensor:
#      x y z
#    x 3.880430 0.000000 0.000000 
#    y 0.000000 3.475370 0.000000 
#    z 0.000000 0.000000 3.534010 
# 
# 
# High freq. dielectric constant tensor:
#      x y z
#    x 1.776370 0.000000 0.000000 
#    y 0.000000 1.755310 0.000000 
#    z 0.000000 0.000000 1.771560 
# 
# From -- ./inp_files/61963.got.cif
#   From: 2010.03.12/outbox.cif.g09.slc.cpg/sg74_31_cif.got.tgz:61963.got - 2010.04.16 15:46:19.
