data_PCOD8298639
_publ_section_title
;
Structure prediction by ZEFSAII (Michael W. Deem and Ramdas Pophale) SiO2 
 PCOD8298639
Probable space group: I M M A
;
_chemical_formula_sum "Si O2"
_cell_formula_units_Z 96
_cell_length_a 25.987581
_cell_length_b 19.134214
_cell_length_c 11.006055
_cell_angle_alpha 90.000000
_cell_angle_beta 90.000000
_cell_angle_gamma 90.000000
_cell_volume 5472.782159
_symmetry_space_group_name_H-M "I M M A"
_symmetry_group_IT_number 74
_symmetry_cell_setting 'orthorhombic'
loop_
_space_group_symop_operation_xyz
x,y,z
-x,1/2-y,z
x,-y,-z
-x,1/2+y,-z
-x,-y,-z
x,1/2+y,-z
-x,y,z
x,1/2-y,z
1/2+x,1/2+y,1/2+z
1/2-x,-y,1/2+z
1/2+x,1/2-y,1/2-z
1/2-x,y,1/2-z
1/2-x,1/2-y,1/2-z
1/2+x,y,1/2-z
1/2-x,1/2+y,1/2+z
1/2+x,-y,1/2+z
loop_
_atom_site_type_symbol
_atom_site_label
_atom_site_fract_x
_atom_site_fract_y
_atom_site_fract_z
Si Si1 0.376935 0.327535 0.254953
Si Si2 0.789729 0.827468 0.561561
Si Si3 0.359003 0.570444 0.075833
Si Si4 0.697097 0.546176 0.312239
Si Si5 0.187471 0.399284 0.069634
Si Si6 0.559632 0.332187 0.029987
O O1 0.390295 0.250000 0.300127
O O2 0.323602 0.330954 0.182106
O O3 0.367676 0.375360 0.373746
O O4 0.422778 0.354094 0.166547
O O5 0.794752 0.750000 0.502950
O O6 0.808783 0.887244 0.468891
O O7 0.730735 0.841200 0.595812
O O8 0.349510 0.549250 0.215453
O O9 0.367543 0.500000 0.000000
O O10 0.408910 0.620827 0.066015
O O11 0.750000 0.571598 0.250000
O O12 0.705999 0.469242 0.364462
O O13 0.680572 0.594716 0.424808
O O14 0.500000 0.348701 0.013247
O O15 0.572297 0.250000 0.008826
#
# Coordination Sequence:
#
# PCOD8298639 Si02
#       6
#    16  16  16  16  16  16
#     4   9  17  30  50  74  96 125 167 214 263 310
#     4  10  19  32  50  73 102 139 181 220 259 307
#     4  11  20  34  54  78 107 138 177 222 267 318
#     4  11  21  32  46  72 105 148 184 210 256 311
#     4  11  20  31  48  69 105 143 180 215 256 306
#     4   9  19  37  60  82 103 129 168 224 280 320
#
# _framework density 17.541352
#
# number of rings (size 3 to 8) (size 9 to 14) (size 15 to 20)
#    0.000    1.833    1.667    6.500    0.000    1.667 
#    0.000    4.167    0.000    1.000    0.000    5.833 
#    0.000    0.000    0.000    0.000    0.000    0.000 
#
# Total GULP energy -595019.455402 kJ/mol
# GULP energy per Si atom -12396.238654 kJ/mol
# Density = 1.750143 g / cm^3
# Si number density = 17.541352 Si / 1000 Ang^3
#
#
#
# Elastic Constant Matrix: (Units=GPa)
#
#
# Indices 1 2 3 4 5 6 
#
# 1 84.4948 28.5344 40.0080 0.0000 0.0000 0.0000
# 2 28.5344 77.0359 34.8917 0.0000 0.0000 0.0000
# 3 40.0080 34.8917 109.7184 0.0000 0.0000 0.0000
# 4 0.0000 0.0000 0.0000 25.6466 0.0000 0.0000
# 5 0.0000 0.0000 0.0000 0.0000 18.1648 0.0000
# 6 0.0000 0.0000 0.0000 0.0000 0.0000 21.0597
#
#
#
# Elastic Compliance Matrix: (Units=1/GPa)
#
#
# Indices 1 2 3 4 5 6 
#
# 1 0.015125 -0.003627 -0.004362 0.000000 0.000000 0.000000
# 2 -0.003627 0.016035 -0.003777 0.000000 0.000000 0.000000
# 3 -0.004362 -0.003777 0.011906 0.000000 0.000000 0.000000
# 4 0.000000 0.000000 0.000000 0.038992 0.000000 0.000000
# 5 0.000000 0.000000 0.000000 0.000000 0.055052 0.000000
# 6 0.000000 0.000000 0.000000 0.000000 0.000000 0.047484
#
#
# Mechanical properties :
#
#
# Convention : Reuss Voigt Hill
#
# Bulk Modulus (GPa) = 51.19032 53.12414 52.15723
# Shear Modulus (GPa) = 23.29527 24.16189 23.72858
#
# Velocity S-wave (km/s) = 3.64815 3.71539 3.68193
# Velocity P-wave (km/s) = 6.85503 6.98258 6.91910
#
# Compressibility (1/GPa) = 0.01953494
#
# Stress axis : x y z
#
# Youngs Moduli (GPa) = 66.11487 62.36366 83.99225
#
# Poissons Ratio (x) = 0.22618 0.36637
# Poissons Ratio (y) = 0.23978 0.31722
# Poissons Ratio (z) = 0.28839 0.23554
#
# Static dielectric constant tensor:
#      x y z
#    x 3.003780 0.000000 0.000000 
#    y 0.000000 3.362430 0.000000 
#    z 0.000000 0.000000 3.241270 
# 
# 
# High freq. dielectric constant tensor:
#      x y z
#    x 1.643570 0.000000 0.000000 
#    y 0.000000 1.685080 0.000000 
#    z 0.000000 0.000000 1.662730 
# 
# From -- ./inp_files/26296.got.cif
#   From: 2010.03.12/outbox.cif.g09.slc.cpg/sg74_14_cif.got.tgz:26296.got - 2010.04.16 15:46:19.
