data_PCOD8298382
_publ_section_title
;
Structure prediction by ZEFSAII (Michael W. Deem and Ramdas Pophale) SiO2 
 PCOD8298382
Probable space group: I M M A
;
_chemical_formula_sum "Si O2"
_cell_formula_units_Z 84
_cell_length_a 20.560538
_cell_length_b 15.234920
_cell_length_c 16.919284
_cell_angle_alpha 90.000000
_cell_angle_beta 90.000000
_cell_angle_gamma 90.000000
_cell_volume 5299.765246
_symmetry_space_group_name_H-M "I M M A"
_symmetry_group_IT_number 74
_symmetry_cell_setting 'orthorhombic'
loop_
_space_group_symop_operation_xyz
x,y,z
-x,1/2-y,z
x,-y,-z
-x,1/2+y,-z
-x,-y,-z
x,1/2+y,-z
-x,y,z
x,1/2-y,z
1/2+x,1/2+y,1/2+z
1/2-x,-y,1/2+z
1/2+x,1/2-y,1/2-z
1/2-x,y,1/2-z
1/2-x,1/2-y,1/2-z
1/2+x,y,1/2-z
1/2-x,1/2+y,1/2+z
1/2+x,-y,1/2+z
loop_
_atom_site_type_symbol
_atom_site_label
_atom_site_fract_x
_atom_site_fract_y
_atom_site_fract_z
Si Si1 0.363007 0.087471 0.549573
Si Si2 0.259995 0.981149 0.341689
Si Si3 0.500000 0.846320 0.396958
Si Si4 0.769815 0.153543 0.069080
Si Si5 0.656529 0.914078 0.041010
Si Si6 0.500000 0.250000 0.756159
Si Si7 0.928370 0.250000 0.591383
O O1 0.320074 0.079267 0.629163
O O2 0.436880 0.103406 0.573205
O O3 0.331872 0.159234 0.490581
O O4 0.356332 0.000000 0.500000
O O5 0.250000 0.968095 0.250000
O O6 0.193763 0.948734 0.381943
O O7 0.277110 0.082775 0.360932
O O8 0.500000 0.750000 0.436504
O O9 0.500000 0.836247 0.300993
O O10 0.761631 0.250000 0.107220
O O11 0.706715 0.128622 0.019274
O O12 0.605571 0.839621 0.064631
O O13 0.622861 0.000000 0.000000
O O14 0.435912 0.250000 0.812423
O O15 0.000000 0.250000 0.551846
#
# Coordination Sequence:
#
# PCOD8298382 Si02
#       7
#    16  16   8  16  16   4   8
#     4   9  18  31  47  69  93 126 163 195 232 290
#     4   9  19  29  48  72  97 125 157 197 243 291
#     4  10  19  31  46  64  99 126 153 190 244 282
#     4   9  16  31  49  71  93 119 165 203 233 281
#     4   9  18  33  51  69  95 129 160 199 245 285
#     4   8  24  30  40  76 100 114 154 206 234 290
#     4  10  20  34  48  71 100 121 163 201 240 293
#
# _framework density 15.849759000000001
#
# number of rings (size 3 to 8) (size 9 to 14) (size 15 to 20)
#    0.571    2.286    0.952    3.143    2.667    0.762 
#    0.000    0.476    0.000    0.000    0.000    0.000 
#    0.000    0.000    0.000    0.000    0.000    0.000 
#
# Total GULP energy -520326.208883 kJ/mol
# GULP energy per Si atom -12388.719259 kJ/mol
# Density = 1.581368 g / cm^3
# Si number density = 15.849759 Si / 1000 Ang^3
#
#
#
# Elastic Constant Matrix: (Units=GPa)
#
#
# Indices 1 2 3 4 5 6 
#
# 1 90.1994 27.1174 30.4277 0.0000 0.0000 0.0000
# 2 27.1174 79.0970 10.2154 0.0000 0.0000 0.0000
# 3 30.4277 10.2154 63.2131 0.0000 0.0000 0.0000
# 4 0.0000 0.0000 0.0000 0.8317 0.0000 0.0000
# 5 0.0000 0.0000 0.0000 0.0000 16.5690 0.0000
# 6 0.0000 0.0000 0.0000 0.0000 0.0000 23.5660
#
#
#
# Elastic Compliance Matrix: (Units=1/GPa)
#
#
# Indices 1 2 3 4 5 6 
#
# 1 0.014453 -0.004143 -0.006287 0.000000 0.000000 0.000000
# 2 -0.004143 0.014100 -0.000284 0.000000 0.000000 0.000000
# 3 -0.006287 -0.000284 0.018892 0.000000 0.000000 0.000000
# 4 0.000000 0.000000 0.000000 1.202339 0.000000 0.000000
# 5 0.000000 0.000000 0.000000 0.000000 0.060354 0.000000
# 6 0.000000 0.000000 0.000000 0.000000 0.000000 0.042434
#
#
# Mechanical properties :
#
#
# Convention : Reuss Voigt Hill
#
# Bulk Modulus (GPa) = 38.43907 40.89226 39.66566
# Shear Modulus (GPa) = 3.61618 19.17662 11.39640
#
# Velocity S-wave (km/s) = 1.51211 3.48213 2.68438
# Velocity P-wave (km/s) = 5.23005 6.48251 5.88967
#
# Compressibility (1/GPa) = 0.02601520
#
# Stress axis : x y z
#
# Youngs Moduli (GPa) = 69.18925 70.92294 52.93263
#
# Poissons Ratio (x) = 0.29384 0.33281
# Poissons Ratio (y) = 0.28665 0.01505
# Poissons Ratio (z) = 0.43503 0.02016
#
# Static dielectric constant tensor:
#      x y z
#    x 2.951470 0.000000 0.000000 
#    y 0.000000 3.178090 0.000000 
#    z 0.000000 0.000000 2.822100 
# 
# 
# High freq. dielectric constant tensor:
#      x y z
#    x 1.596780 0.000000 0.000000 
#    y 0.000000 1.614890 0.000000 
#    z 0.000000 0.000000 1.592070 
# 
# From -- ./inp_files/35190.got.cif
#   From: 2010.03.12/outbox.cif.g09.slc.cpg/sg74_18_cif.got.tgz:35190.got - 2010.04.16 15:46:19.
