data_PCOD8298522
_publ_section_title
;
Structure prediction by ZEFSAII (Michael W. Deem and Ramdas Pophale) SiO2 
 PCOD8298522
Probable space group: I M M A
;
_chemical_formula_sum "Si O2"
_cell_formula_units_Z 80
_cell_length_a 21.084540
_cell_length_b 16.149537
_cell_length_c 11.831068
_cell_angle_alpha 90.000000
_cell_angle_beta 90.000000
_cell_angle_gamma 90.000000
_cell_volume 4028.544421
_symmetry_space_group_name_H-M "I M M A"
_symmetry_group_IT_number 74
_symmetry_cell_setting 'orthorhombic'
loop_
_space_group_symop_operation_xyz
x,y,z
-x,1/2-y,z
x,-y,-z
-x,1/2+y,-z
-x,-y,-z
x,1/2+y,-z
-x,y,z
x,1/2-y,z
1/2+x,1/2+y,1/2+z
1/2-x,-y,1/2+z
1/2+x,1/2-y,1/2-z
1/2-x,y,1/2-z
1/2-x,1/2-y,1/2-z
1/2+x,y,1/2-z
1/2-x,1/2+y,1/2+z
1/2+x,-y,1/2+z
loop_
_atom_site_type_symbol
_atom_site_label
_atom_site_fract_x
_atom_site_fract_y
_atom_site_fract_z
Si Si1 0.929149 0.038370 0.390249
Si Si2 0.723352 0.750000 0.431024
Si Si3 0.424470 0.844499 0.709679
Si Si4 0.928897 0.389519 0.774032
Si Si5 0.846638 0.750000 0.306677
Si Si6 0.149976 0.406111 0.999918
O O1 0.900811 0.122001 0.333658
O O2 0.000000 0.059039 0.433321
O O3 0.891994 0.000000 0.500000
O O4 0.929796 0.978002 0.283622
O O5 0.799324 0.750000 0.413739
O O6 0.691224 0.750000 0.309722
O O7 0.704230 0.834815 0.496692
O O8 0.500000 0.855839 0.697935
O O9 0.403360 0.750000 0.699359
O O10 0.390876 0.896708 0.612473
O O11 0.891022 0.330369 0.688189
O O12 0.896823 0.393461 0.895549
O O13 0.000000 0.355256 0.791607
O O14 0.179100 0.500000 0.000000
#
# Coordination Sequence:
#
# PCOD8298522 Si02
#       6
#    16   8  16  16   8  16
#     4   9  18  33  49  73 110 148 188 226 272 352
#     4   9  20  36  52  77 112 153 205 248 285 363
#     4  10  19  31  50  80 120 158 188 235 308 376
#     4  10  19  31  53  83 113 147 187 240 306 370
#     4   9  19  36  52  73 111 146 191 246 292 342
#     4  11  19  31  55  86 119 157 194 249 313 369
#
# _framework density 19.858288000000002
#
# number of rings (size 3 to 8) (size 9 to 14) (size 15 to 20)
#    0.000    2.200    3.000    0.900    0.000    0.800 
#    1.800    1.000    0.000    0.000    0.000    1.400 
#    0.000    0.000    0.000    0.000    0.000    0.000 
#
# Total GULP energy -495621.687047 kJ/mol
# GULP energy per Si atom -12390.542176 kJ/mol
# Density = 1.981309 g / cm^3
# Si number density = 19.858288 Si / 1000 Ang^3
#
#
#
# Elastic Constant Matrix: (Units=GPa)
#
#
# Indices 1 2 3 4 5 6 
#
# 1 66.6954 31.9144 16.9697 0.0000 0.0000 0.0000
# 2 31.9144 132.0110 31.2105 0.0000 0.0000 0.0000
# 3 16.9697 31.2105 103.2225 0.0000 0.0000 0.0000
# 4 0.0000 0.0000 0.0000 31.6174 0.0000 0.0000
# 5 0.0000 0.0000 0.0000 0.0000 11.9867 0.0000
# 6 0.0000 0.0000 0.0000 0.0000 0.0000 12.9806
#
#
#
# Elastic Compliance Matrix: (Units=1/GPa)
#
#
# Indices 1 2 3 4 5 6 
#
# 1 0.017226 -0.003764 -0.001694 0.000000 0.000000 0.000000
# 2 -0.003764 0.008981 -0.002097 0.000000 0.000000 0.000000
# 3 -0.001694 -0.002097 0.010600 0.000000 0.000000 0.000000
# 4 0.000000 0.000000 0.000000 0.031628 0.000000 0.000000
# 5 0.000000 0.000000 0.000000 0.000000 0.083426 0.000000
# 6 0.000000 0.000000 0.000000 0.000000 0.000000 0.077038
#
#
# Mechanical properties :
#
#
# Convention : Reuss Voigt Hill
#
# Bulk Modulus (GPa) = 46.08764 51.34647 48.71705
# Shear Modulus (GPa) = 19.90131 26.10590 23.00361
#
# Velocity S-wave (km/s) = 3.16914 3.62969 3.40720
# Velocity P-wave (km/s) = 6.05391 6.59384 6.32964
#
# Compressibility (1/GPa) = 0.02169779
#
# Stress axis : x y z
#
# Youngs Moduli (GPa) = 58.05324 111.34898 94.33767
#
# Poissons Ratio (x) = 0.41911 0.15979
# Poissons Ratio (y) = 0.21851 0.19779
# Poissons Ratio (z) = 0.09833 0.23346
#
# Static dielectric constant tensor:
#      x y z
#    x 3.393690 0.000000 0.000000 
#    y 0.000000 3.910830 0.000000 
#    z 0.000000 0.000000 3.534860 
# 
# 
# High freq. dielectric constant tensor:
#      x y z
#    x 1.727350 0.000000 0.000000 
#    y 0.000000 1.790080 0.000000 
#    z 0.000000 0.000000 1.769620 
# 
# From -- ./inp_files/24895.got.cif
#   From: 2010.03.12/outbox.cif.g09.slc.cpg/sg74_13_cif.got.tgz:24895.got - 2010.04.16 15:46:19.
