data_PCOD8298352
_publ_section_title
;
Structure prediction by ZEFSAII (Michael W. Deem and Ramdas Pophale) SiO2 
 PCOD8298352
Probable space group: I M M A
;
_chemical_formula_sum "Si O2"
_cell_formula_units_Z 80
_cell_length_a 9.977006
_cell_length_b 17.288703
_cell_length_c 26.697676
_cell_angle_alpha 90.000000
_cell_angle_beta 90.000000
_cell_angle_gamma 90.000000
_cell_volume 4605.068613
_symmetry_space_group_name_H-M "I M M A"
_symmetry_group_IT_number 74
_symmetry_cell_setting 'orthorhombic'
loop_
_space_group_symop_operation_xyz
x,y,z
-x,1/2-y,z
x,-y,-z
-x,1/2+y,-z
-x,-y,-z
x,1/2+y,-z
-x,y,z
x,1/2-y,z
1/2+x,1/2+y,1/2+z
1/2-x,-y,1/2+z
1/2+x,1/2-y,1/2-z
1/2-x,y,1/2-z
1/2-x,1/2-y,1/2-z
1/2+x,y,1/2-z
1/2-x,1/2+y,1/2+z
1/2+x,-y,1/2+z
loop_
_atom_site_type_symbol
_atom_site_label
_atom_site_fract_x
_atom_site_fract_y
_atom_site_fract_z
Si Si1 0.500000 0.160100 0.800686
Si Si2 0.500000 0.343290 0.686463
Si Si3 0.653927 0.666111 0.894171
Si Si4 0.262726 0.424299 0.849366
Si Si5 0.655858 0.078707 0.205159
Si Si6 0.659535 0.986821 0.943122
O O1 0.500000 0.250000 0.793925
O O2 0.500000 0.127069 0.743985
O O3 0.627712 0.136920 0.832569
O O4 0.500000 0.250000 0.681337
O O5 0.376030 0.381280 0.658156
O O6 0.500000 0.673020 0.909782
O O7 0.723825 0.750000 0.903853
O O8 0.665986 0.645874 0.835774
O O9 0.717988 0.597511 0.927525
O O10 0.281072 0.499917 0.815589
O O11 0.277255 0.446946 0.907928
O O12 0.500000 0.065474 0.220907
O O13 0.750000 0.107087 0.250000
O O14 0.500000 0.989511 0.934993
O O15 0.702935 0.000000 0.000000
#
# Coordination Sequence:
#
# PCOD8298352 Si02
#       6
#     8   8  16  16  16  16
#     4  11  20  34  53  74 107 145 182 221 272 318
#     4  11  24  36  51  76 111 151 182 219 274 330
#     4   8  15  29  47  71 103 134 166 207 258 308
#     4  11  20  35  52  77 104 140 180 226 265 320
#     4  10  19  30  49  75 102 136 175 213 256 311
#     4   9  17  33  57  80 104 136 178 225 269 313
#
# _framework density 17.372161999999999
#
# number of rings (size 3 to 8) (size 9 to 14) (size 15 to 20)
#    0.000    2.200    2.000    3.600    1.400    2.000 
#    0.000    2.500    0.000    0.000    0.000    0.000 
#    0.000    0.000    0.000    0.000    0.000    0.000 
#
# Total GULP energy -495774.328132 kJ/mol
# GULP energy per Si atom -12394.358203 kJ/mol
# Density = 1.733262 g / cm^3
# Si number density = 17.372162 Si / 1000 Ang^3
#
#
#
# Elastic Constant Matrix: (Units=GPa)
#
#
# Indices 1 2 3 4 5 6 
#
# 1 96.9705 40.8602 48.5620 0.0000 0.0000 0.0000
# 2 40.8602 96.4523 54.7521 0.0000 0.0000 0.0000
# 3 48.5620 54.7521 136.4692 0.0000 0.0000 0.0000
# 4 0.0000 0.0000 0.0000 18.5837 0.0000 0.0000
# 5 0.0000 0.0000 0.0000 0.0000 17.8754 0.0000
# 6 0.0000 0.0000 0.0000 0.0000 0.0000 24.0319
#
#
#
# Elastic Compliance Matrix: (Units=1/GPa)
#
#
# Indices 1 2 3 4 5 6 
#
# 1 0.013595 -0.003902 -0.003272 0.000000 0.000000 0.000000
# 2 -0.003902 0.014545 -0.004447 0.000000 0.000000 0.000000
# 3 -0.003272 -0.004447 0.010276 0.000000 0.000000 0.000000
# 4 0.000000 0.000000 0.000000 0.053811 0.000000 0.000000
# 5 0.000000 0.000000 0.000000 0.000000 0.055943 0.000000
# 6 0.000000 0.000000 0.000000 0.000000 0.000000 0.041611
#
#
# Mechanical properties :
#
#
# Convention : Reuss Voigt Hill
#
# Bulk Modulus (GPa) = 65.90164 68.69343 67.29753
# Shear Modulus (GPa) = 22.92709 24.47936 23.70323
#
# Velocity S-wave (km/s) = 3.63679 3.75789 3.69784
# Velocity P-wave (km/s) = 7.46006 7.64572 7.55346
#
# Compressibility (1/GPa) = 0.01517413
#
# Stress axis : x y z
#
# Youngs Moduli (GPa) = 73.55487 68.75113 97.31058
#
# Poissons Ratio (x) = 0.26825 0.31844
# Poissons Ratio (y) = 0.28699 0.43276
# Poissons Ratio (z) = 0.24070 0.30575
#
# Static dielectric constant tensor:
#      x y z
#    x 3.059520 0.000000 0.000000 
#    y 0.000000 3.438860 0.000000 
#    z 0.000000 0.000000 3.216040 
# 
# 
# High freq. dielectric constant tensor:
#      x y z
#    x 1.640440 0.000000 0.000000 
#    y 0.000000 1.680550 0.000000 
#    z 0.000000 0.000000 1.661400 
# 
# From -- ./inp_files/64045.got.cif
#   From: 2010.03.12/outbox.cif.g09.slc.cpg/sg74_33_cif.got.tgz:64045.got - 2010.04.16 15:46:19.
