data_PCOD8298675
_publ_section_title
;
Structure prediction by ZEFSAII (Michael W. Deem and Ramdas Pophale) SiO2 
 PCOD8298675
Probable space group: I M M A
;
_chemical_formula_sum "Si O2"
_cell_formula_units_Z 80
_cell_length_a 20.046189
_cell_length_b 8.836854
_cell_length_c 27.882672
_cell_angle_alpha 90.000000
_cell_angle_beta 90.000000
_cell_angle_gamma 90.000000
_cell_volume 4939.282775
_symmetry_space_group_name_H-M "I M M A"
_symmetry_group_IT_number 74
_symmetry_cell_setting 'orthorhombic'
loop_
_space_group_symop_operation_xyz
x,y,z
-x,1/2-y,z
x,-y,-z
-x,1/2+y,-z
-x,-y,-z
x,1/2+y,-z
-x,y,z
x,1/2-y,z
1/2+x,1/2+y,1/2+z
1/2-x,-y,1/2+z
1/2+x,1/2-y,1/2-z
1/2-x,y,1/2-z
1/2-x,1/2-y,1/2-z
1/2+x,y,1/2-z
1/2-x,1/2+y,1/2+z
1/2+x,-y,1/2+z
loop_
_atom_site_type_symbol
_atom_site_label
_atom_site_fract_x
_atom_site_fract_y
_atom_site_fract_z
Si Si1 0.816256 0.078302 0.643510
Si Si2 0.423332 0.926600 0.794670
Si Si3 0.185026 0.929138 0.868528
Si Si4 0.250275 0.921338 0.049311
Si Si5 0.422291 0.925842 0.304758
O O1 0.818891 0.250000 0.662945
O O2 0.814671 0.075570 0.585026
O O3 0.880274 0.986090 0.660885
O O4 0.747552 0.998553 0.661871
O O5 0.500000 0.963044 0.806699
O O6 0.411203 0.750000 0.786861
O O7 0.399862 0.012005 0.746858
O O8 0.188561 0.750000 0.867527
O O9 0.189910 0.989490 0.923676
O O10 0.116058 0.985229 0.846226
O O11 0.227047 0.750000 0.039361
O O12 0.270461 0.000000 0.000000
O O13 0.500000 0.957271 0.313235
O O14 0.404437 0.750000 0.307482
#
# Coordination Sequence:
#
# PCOD8298675 Si02
#       5
#    16  16  16  16  16
#     4   9  19  33  50  74 100 129 166 205 244 292
#     4  10  20  33  50  73 101 133 168 204 245 294
#     4  10  19  32  51  75 101 129 164 207 247 289
#     4   9  18  32  52  76 100 127 161 202 248 298
#     4  10  20  34  51  71 100 136 169 202 243 293
#
# _framework density 16.196683
#
# number of rings (size 3 to 8) (size 9 to 14) (size 15 to 20)
#    1.200    1.200    0.000    3.600    0.000    3.200 
#    0.000    4.000    0.000    1.200    0.000    0.000 
#    0.000    0.000    0.000    0.000    0.000    0.000 
#
# Total GULP energy -495754.365163 kJ/mol
# GULP energy per Si atom -12393.859129 kJ/mol
# Density = 1.615982 g / cm^3
# Si number density = 16.196683 Si / 1000 Ang^3
#
#
#
# Elastic Constant Matrix: (Units=GPa)
#
#
# Indices 1 2 3 4 5 6 
#
# 1 58.0472 38.3735 33.1314 0.0000 0.0000 0.0000
# 2 38.3735 118.2147 32.8560 0.0000 0.0000 0.0000
# 3 33.1314 32.8560 70.9669 0.0000 0.0000 0.0000
# 4 0.0000 0.0000 0.0000 32.0402 0.0000 0.0000
# 5 0.0000 0.0000 0.0000 0.0000 12.8398 0.0000
# 6 0.0000 0.0000 0.0000 0.0000 0.0000 29.4194
#
#
#
# Elastic Compliance Matrix: (Units=1/GPa)
#
#
# Indices 1 2 3 4 5 6 
#
# 1 0.026718 -0.005975 -0.009707 0.000000 0.000000 0.000000
# 2 -0.005975 0.011045 -0.002324 0.000000 0.000000 0.000000
# 3 -0.009707 -0.002324 0.019699 0.000000 0.000000 0.000000
# 4 0.000000 0.000000 0.000000 0.031211 0.000000 0.000000
# 5 0.000000 0.000000 0.000000 0.000000 0.077883 0.000000
# 6 0.000000 0.000000 0.000000 0.000000 0.000000 0.033991
#
#
# Mechanical properties :
#
#
# Convention : Reuss Voigt Hill
#
# Bulk Modulus (GPa) = 46.62173 50.66117 48.64145
# Shear Modulus (GPa) = 20.51639 24.38441 22.45040
#
# Velocity S-wave (km/s) = 3.56294 3.88431 3.72709
# Velocity P-wave (km/s) = 6.76559 7.17383 6.97270
#
# Compressibility (1/GPa) = 0.02144923
#
# Stress axis : x y z
#
# Youngs Moduli (GPa) = 37.42846 90.54219 50.76436
#
# Poissons Ratio (x) = 0.54097 0.49278
# Poissons Ratio (y) = 0.22363 0.11798
# Poissons Ratio (z) = 0.36332 0.21042
#
# Static dielectric constant tensor:
#      x y z
#    x 2.854500 0.000000 0.000000 
#    y 0.000000 3.186610 0.000000 
#    z 0.000000 0.000000 2.871880 
# 
# 
# High freq. dielectric constant tensor:
#      x y z
#    x 1.600040 0.000000 0.000000 
#    y 0.000000 1.647520 0.000000 
#    z 0.000000 0.000000 1.603430 
# 
# From -- ./inp_files/70130.got.cif
#   From: 2010.03.12/outbox.cif.g09.slc.cpg/sg74_36_cif.got.tgz:70130.got - 2010.04.16 15:46:19.
