data_PCOD8298337
_publ_section_title
;
Structure prediction by ZEFSAII (Michael W. Deem and Ramdas Pophale) SiO2 
 PCOD8298337
Probable space group: I M M A
;
_chemical_formula_sum "Si O2"
_cell_formula_units_Z 96
_cell_length_a 19.358765
_cell_length_b 14.930008
_cell_length_c 18.378615
_cell_angle_alpha 90.000000
_cell_angle_beta 90.000000
_cell_angle_gamma 90.000000
_cell_volume 5311.907068
_symmetry_space_group_name_H-M "I M M A"
_symmetry_group_IT_number 74
_symmetry_cell_setting 'orthorhombic'
loop_
_space_group_symop_operation_xyz
x,y,z
-x,1/2-y,z
x,-y,-z
-x,1/2+y,-z
-x,-y,-z
x,1/2+y,-z
-x,y,z
x,1/2-y,z
1/2+x,1/2+y,1/2+z
1/2-x,-y,1/2+z
1/2+x,1/2-y,1/2-z
1/2-x,y,1/2-z
1/2-x,1/2-y,1/2-z
1/2+x,y,1/2-z
1/2-x,1/2+y,1/2+z
1/2+x,-y,1/2+z
loop_
_atom_site_type_symbol
_atom_site_label
_atom_site_fract_x
_atom_site_fract_y
_atom_site_fract_z
Si Si1 0.923574 0.460136 0.820916
Si Si2 0.575646 0.353067 0.825483
Si Si3 0.213334 0.353208 0.043906
Si Si4 0.217213 0.147065 0.607536
Si Si5 0.218855 0.975989 0.826211
Si Si6 0.423725 0.354754 0.531481
O O1 0.910099 0.404401 0.748570
O O2 0.864277 0.535272 0.822658
O O3 0.914467 0.396317 0.889746
O O4 0.000000 0.504492 0.820429
O O5 0.500000 0.378996 0.858315
O O6 0.577117 0.250000 0.803922
O O7 0.635708 0.374970 0.883610
O O8 0.210521 0.250000 0.068056
O O9 0.244892 0.410741 0.109807
O O10 0.264447 0.368017 0.976442
O O11 0.136223 0.389258 0.022741
O O12 0.234318 0.250000 0.630654
O O13 0.260812 0.079376 0.658005
O O14 0.250000 0.943289 0.750000
O O15 0.500000 0.378006 0.498923
O O16 0.413800 0.250000 0.543009
#
# Coordination Sequence:
#
# PCOD8298337 Si02
#       6
#    16  16  16  16  16  16
#     4  10  19  30  47  77 114 145 171 205 258 321
#     4   9  17  30  50  78 112 143 169 204 260 328
#     4  10  22  38  55  75 105 142 184 228 263 304
#     4  10  20  34  55  82 110 137 170 216 269 319
#     4  12  23  36  54  79 106 144 181 221 265 315
#     4   9  17  30  50  77 108 142 178 213 255 311
#
# _framework density 18.072606
#
# number of rings (size 3 to 8) (size 9 to 14) (size 15 to 20)
#    0.000    2.000    3.333    1.000    0.000    4.000 
#    0.000    1.667    0.000    3.000    0.000    0.000 
#    0.000    0.000    0.000    0.000    0.000    0.000 
#
# Total GULP energy -594992.963717 kJ/mol
# GULP energy per Si atom -12395.686744 kJ/mol
# Density = 1.803147 g / cm^3
# Si number density = 18.072606 Si / 1000 Ang^3
#
#
#
# Elastic Constant Matrix: (Units=GPa)
#
#
# Indices 1 2 3 4 5 6 
#
# 1 105.4483 27.7342 49.6259 0.0000 0.0000 0.0000
# 2 27.7342 43.0653 36.5664 0.0000 0.0000 0.0000
# 3 49.6259 36.5664 106.6337 0.0000 0.0000 0.0000
# 4 0.0000 0.0000 0.0000 22.6553 0.0000 0.0000
# 5 0.0000 0.0000 0.0000 0.0000 22.2661 0.0000
# 6 0.0000 0.0000 0.0000 0.0000 0.0000 12.2825
#
#
#
# Elastic Compliance Matrix: (Units=1/GPa)
#
#
# Indices 1 2 3 4 5 6 
#
# 1 0.012724 -0.004467 -0.004390 0.000000 0.000000 0.000000
# 2 -0.004467 0.034327 -0.009692 0.000000 0.000000 0.000000
# 3 -0.004390 -0.009692 0.014745 0.000000 0.000000 0.000000
# 4 0.000000 0.000000 0.000000 0.044140 0.000000 0.000000
# 5 0.000000 0.000000 0.000000 0.000000 0.044911 0.000000
# 6 0.000000 0.000000 0.000000 0.000000 0.000000 0.081417
#
#
# Mechanical properties :
#
#
# Convention : Reuss Voigt Hill
#
# Bulk Modulus (GPa) = 40.49037 53.66671 47.07854
# Shear Modulus (GPa) = 18.01188 20.85549 19.43369
#
# Velocity S-wave (km/s) = 3.16039 3.40072 3.28275
# Velocity P-wave (km/s) = 5.98083 6.72156 6.36198
#
# Compressibility (1/GPa) = 0.02469723
#
# Stress axis : x y z
#
# Youngs Moduli (GPa) = 78.59076 29.13157 67.82166
#
# Poissons Ratio (x) = 0.13013 0.29773
# Poissons Ratio (y) = 0.35106 0.65735
# Poissons Ratio (z) = 0.34500 0.28235
#
# Static dielectric constant tensor:
#      x y z
#    x 3.839480 0.000000 0.000000 
#    y 0.000000 3.062320 0.000000 
#    z 0.000000 0.000000 3.120850 
# 
# 
# High freq. dielectric constant tensor:
#      x y z
#    x 1.712810 0.000000 0.000000 
#    y 0.000000 1.672600 0.000000 
#    z 0.000000 0.000000 1.682190 
# 
# From -- ./inp_files/32335.got.cif
#   From: 2010.03.12/outbox.cif.g09.slc.cpg/sg74_17_cif.got.tgz:32335.got - 2010.04.16 15:46:19.
