data_PCOD8298577
_publ_section_title
;
Structure prediction by ZEFSAII (Michael W. Deem and Ramdas Pophale) SiO2 
 PCOD8298577
Probable space group: I M M A
;
_chemical_formula_sum "Si O2"
_cell_formula_units_Z 80
_cell_length_a 27.300754
_cell_length_b 34.265821
_cell_length_c 5.050832
_cell_angle_alpha 90.000000
_cell_angle_beta 90.000000
_cell_angle_gamma 90.000000
_cell_volume 4724.966208
_symmetry_space_group_name_H-M "I M M A"
_symmetry_group_IT_number 74
_symmetry_cell_setting 'orthorhombic'
loop_
_space_group_symop_operation_xyz
x,y,z
-x,1/2-y,z
x,-y,-z
-x,1/2+y,-z
-x,-y,-z
x,1/2+y,-z
-x,y,z
x,1/2-y,z
1/2+x,1/2+y,1/2+z
1/2-x,-y,1/2+z
1/2+x,1/2-y,1/2-z
1/2-x,y,1/2-z
1/2-x,1/2-y,1/2-z
1/2+x,y,1/2-z
1/2-x,1/2+y,1/2+z
1/2+x,-y,1/2+z
loop_
_atom_site_type_symbol
_atom_site_label
_atom_site_fract_x
_atom_site_fract_y
_atom_site_fract_z
Si Si1 0.000000 0.972537 0.753025
Si Si2 0.942240 0.842053 0.992446
Si Si3 0.557710 0.706650 0.015227
Si Si4 0.404634 0.073656 0.383821
Si Si5 0.853403 0.955902 0.400616
Si Si6 0.250000 0.473868 0.750000
O O1 0.952942 0.944942 0.755880
O O2 0.000000 0.000000 0.500000
O O3 0.000000 0.000000 0.000000
O O4 0.922227 0.821759 0.257451
O O5 0.000000 0.851373 0.001856
O O6 0.928408 0.812067 0.762886
O O7 0.912852 0.881787 0.960185
O O8 0.500000 0.710417 0.050684
O O9 0.581104 0.750000 0.034205
O O10 0.388198 0.050787 0.647600
O O11 0.364762 0.072283 0.148266
O O12 0.797057 0.947501 0.320407
O O13 0.860927 0.000000 0.500000
O O14 0.265488 0.500000 0.500000
#
# Coordination Sequence:
#
# PCOD8298577 Si02
#       6
#     8  16  16  16  16   8
#     4  12  24  34  46  64  93 134 177 204 226 266
#     4  10  19  32  46  66  99 131 163 197 239 286
#     4   9  17  29  48  68  89 124 168 203 233 278
#     4  12  22  35  49  71  99 135 165 206 244 288
#     4  11  22  36  54  71  94 124 170 213 257 298
#     4  10  20  36  56  74  90 116 159 218 271 306
#
# _framework density 16.931339000000001
#
# number of rings (size 3 to 8) (size 9 to 14) (size 15 to 20)
#    0.000    1.400    1.000    7.800    0.000    2.400 
#    0.000    0.000    0.000    0.000    0.000    0.000 
#    0.000    0.000    0.000   63.000    0.000    0.000 
#
# Total GULP energy -496045.986032 kJ/mol
# GULP energy per Si atom -12401.149651 kJ/mol
# Density = 1.689280 g / cm^3
# Si number density = 16.931339 Si / 1000 Ang^3
#
#
#
# Elastic Constant Matrix: (Units=GPa)
#
#
# Indices 1 2 3 4 5 6 
#
# 1 65.5032 32.6967 22.2229 0.0000 0.0000 0.0000
# 2 32.6967 70.3853 0.6773 0.0000 0.0000 0.0000
# 3 22.2229 0.6773 77.6959 0.0000 0.0000 0.0000
# 4 0.0000 0.0000 0.0000 -48.3921 0.0000 0.0000
# 5 0.0000 0.0000 0.0000 0.0000 24.0657 0.0000
# 6 0.0000 0.0000 0.0000 0.0000 0.0000 14.5136
#
#
#
# Elastic Compliance Matrix: (Units=1/GPa)
#
#
# Indices 1 2 3 4 5 6 
#
# 1 0.022657 -0.010464 -0.006389 0.000000 0.000000 0.000000
# 2 -0.010464 0.019041 0.002827 0.000000 0.000000 0.000000
# 3 -0.006389 0.002827 0.014674 0.000000 0.000000 0.000000
# 4 0.000000 0.000000 0.000000 -0.020665 0.000000 0.000000
# 5 0.000000 0.000000 0.000000 0.000000 0.041553 0.000000
# 6 0.000000 0.000000 0.000000 0.000000 0.000000 0.068901
#
#
# Mechanical properties :
#
#
# Convention : Reuss Voigt Hill
#
# Bulk Modulus (GPa) = 35.31116 36.08647 35.69881
# Shear Modulus (GPa) = 27.22520 8.56991 17.89756
#
# Velocity S-wave (km/s) = 4.01431 2.25223 3.25478
# Velocity P-wave (km/s) = 6.51053 5.30312 5.93760
#
# Compressibility (1/GPa) = 0.02831966
#
# Stress axis : x y z
#
# Youngs Moduli (GPa) = 44.13615 52.51797 68.14992
#
# Poissons Ratio (x) = 0.54953 0.43543
# Poissons Ratio (y) = 0.46183 -0.19265
# Poissons Ratio (z) = 0.28200 -0.14846
#
# Static dielectric constant tensor:
#      x y z
#    x 3.053000 0.000000 0.000000 
#    y 0.000000 2.792870 0.000000 
#    z 0.000000 0.000000 2.746010 
# 
# 
# High freq. dielectric constant tensor:
#      x y z
#    x 1.609160 0.000000 0.000000 
#    y 0.000000 1.639670 0.000000 
#    z 0.000000 0.000000 1.683630 
# 
# From -- ./inp_files/3896.got.cif
#   From: 2010.03.12/outbox.cif.g09.slc.cpg/sg74_2_cif.got.tgz:3896.got - 2010.04.16 15:46:19.
