data_PCOD8298672
_publ_section_title
;
Structure prediction by ZEFSAII (Michael W. Deem and Ramdas Pophale) SiO2 
 PCOD8298672
Probable space group: I M M A
;
_chemical_formula_sum "Si O2"
_cell_formula_units_Z 104
_cell_length_a 8.902177
_cell_length_b 20.417627
_cell_length_c 31.846339
_cell_angle_alpha 90.000000
_cell_angle_beta 90.000000
_cell_angle_gamma 90.000000
_cell_volume 5788.432916
_symmetry_space_group_name_H-M "I M M A"
_symmetry_group_IT_number 74
_symmetry_cell_setting 'orthorhombic'
loop_
_space_group_symop_operation_xyz
x,y,z
-x,1/2-y,z
x,-y,-z
-x,1/2+y,-z
-x,-y,-z
x,1/2+y,-z
-x,y,z
x,1/2-y,z
1/2+x,1/2+y,1/2+z
1/2-x,-y,1/2+z
1/2+x,1/2-y,1/2-z
1/2-x,y,1/2-z
1/2-x,1/2-y,1/2-z
1/2+x,y,1/2-z
1/2-x,1/2+y,1/2+z
1/2+x,-y,1/2+z
loop_
_atom_site_type_symbol
_atom_site_label
_atom_site_fract_x
_atom_site_fract_y
_atom_site_fract_z
Si Si1 0.669788 0.122467 0.677552
Si Si2 0.678124 0.504009 0.791712
Si Si3 0.677474 0.447900 0.117753
Si Si4 0.678355 0.678302 0.929262
Si Si5 0.322413 0.250000 0.795198
Si Si6 0.168227 0.571764 0.084266
Si Si7 0.676658 0.175706 0.975502
O O1 0.500000 0.132394 0.694763
O O2 0.767038 0.187509 0.679476
O O3 0.667201 0.104116 0.629404
O O4 0.752053 0.068209 0.705546
O O5 0.500000 0.499924 0.787022
O O6 0.750000 0.537734 0.750000
O O7 0.725526 0.544272 0.833467
O O8 0.500000 0.453211 0.113314
O O9 0.739909 0.377696 0.102023
O O10 0.743992 0.503266 0.087154
O O11 0.500000 0.679299 0.927998
O O12 0.739225 0.750000 0.914892
O O13 0.730181 0.663789 0.976747
O O14 0.500000 0.250000 0.791826
O O15 0.250000 0.250000 0.750000
O O16 0.243248 0.621916 0.052482
O O17 0.000000 0.557096 0.068688
O O18 0.500000 0.165429 0.970864
O O19 0.720126 0.250000 0.961736
#
# Coordination Sequence:
#
# PCOD8298672 Si02
#       7
#    16  16  16  16   8  16  16
#     4  10  21  36  50  67  94 129 167 207 251 294
#     4  10  19  32  51  74  98 127 163 202 248 298
#     4   9  18  33  54  77 100 129 168 209 248 297
#     4   8  15  31  55  80 102 127 165 210 251 292
#     4  12  24  36  50  68  92 124 164 210 256 302
#     4  10  21  34  49  71 102 136 168 207 252 297
#     4   9  18  32  51  74 100 133 172 212 252 295
#
# _framework density 17.966864999999999
#
# number of rings (size 3 to 8) (size 9 to 14) (size 15 to 20)
#    0.000    2.462    0.000    3.462    1.077    3.385 
#    0.000    3.846    0.000    1.846    0.000    0.000 
#    0.000    0.000    0.000    0.000    0.000    0.462 
#
# Total GULP energy -644646.030480 kJ/mol
# GULP energy per Si atom -12397.039048 kJ/mol
# Density = 1.792597 g / cm^3
# Si number density = 17.966865 Si / 1000 Ang^3
#
#
#
# Elastic Constant Matrix: (Units=GPa)
#
#
# Indices 1 2 3 4 5 6 
#
# 1 77.4858 44.4344 36.4845 0.0000 0.0000 0.0000
# 2 44.4344 137.3878 70.9652 0.0000 0.0000 0.0000
# 3 36.4845 70.9652 91.7727 0.0000 0.0000 0.0000
# 4 0.0000 0.0000 0.0000 12.4420 0.0000 0.0000
# 5 0.0000 0.0000 0.0000 0.0000 22.7577 0.0000
# 6 0.0000 0.0000 0.0000 0.0000 0.0000 8.5171
#
#
#
# Elastic Compliance Matrix: (Units=1/GPa)
#
#
# Indices 1 2 3 4 5 6 
#
# 1 0.016725 -0.003288 -0.004106 0.000000 0.000000 0.000000
# 2 -0.003288 0.012766 -0.008564 0.000000 0.000000 0.000000
# 3 -0.004106 -0.008564 0.019151 0.000000 0.000000 0.000000
# 4 0.000000 0.000000 0.000000 0.080373 0.000000 0.000000
# 5 0.000000 0.000000 0.000000 0.000000 0.043941 0.000000
# 6 0.000000 0.000000 0.000000 0.000000 0.000000 0.117410
#
#
# Mechanical properties :
#
#
# Convention : Reuss Voigt Hill
#
# Bulk Modulus (GPa) = 59.79232 67.82384 63.80808
# Shear Modulus (GPa) = 15.25047 19.06084 17.15565
#
# Velocity S-wave (km/s) = 2.91660 3.26066 3.09342
# Velocity P-wave (km/s) = 6.68532 7.21160 6.95344
#
# Compressibility (1/GPa) = 0.01672456
#
# Stress axis : x y z
#
# Youngs Moduli (GPa) = 59.79199 78.33409 52.21526
#
# Poissons Ratio (x) = 0.25757 0.21441
# Poissons Ratio (y) = 0.19660 0.44719
# Poissons Ratio (z) = 0.24553 0.67087
#
# Static dielectric constant tensor:
#      x y z
#    x 3.343510 0.000000 0.000000 
#    y 0.000000 3.487470 0.000000 
#    z 0.000000 0.000000 3.423320 
# 
# 
# High freq. dielectric constant tensor:
#      x y z
#    x 1.687920 0.000000 0.000000 
#    y 0.000000 1.686720 0.000000 
#    z 0.000000 0.000000 1.695010 
# 
# From -- ./inp_files/64494.got.cif
#   From: 2010.03.12/outbox.cif.g09.slc.cpg/sg74_33_cif.got.tgz:64494.got - 2010.04.16 15:46:19.
