data_PCOD8298954
_publ_section_title
;
Structure prediction by ZEFSAII (Michael W. Deem and Ramdas Pophale) SiO2 
 PCOD8298954
Probable space group: I M M A
;
_chemical_formula_sum "Si O2"
_cell_formula_units_Z 64
_cell_length_a 8.732057
_cell_length_b 20.744524
_cell_length_c 18.687413
_cell_angle_alpha 90.000000
_cell_angle_beta 90.000000
_cell_angle_gamma 90.000000
_cell_volume 3385.082205
_symmetry_space_group_name_H-M "I M M A"
_symmetry_group_IT_number 74
_symmetry_cell_setting 'orthorhombic'
loop_
_space_group_symop_operation_xyz
x,y,z
-x,1/2-y,z
x,-y,-z
-x,1/2+y,-z
-x,-y,-z
x,1/2+y,-z
-x,y,z
x,1/2-y,z
1/2+x,1/2+y,1/2+z
1/2-x,-y,1/2+z
1/2+x,1/2-y,1/2-z
1/2-x,y,1/2-z
1/2-x,1/2-y,1/2-z
1/2+x,y,1/2-z
1/2-x,1/2+y,1/2+z
1/2+x,-y,1/2+z
loop_
_atom_site_type_symbol
_atom_site_label
_atom_site_fract_x
_atom_site_fract_y
_atom_site_fract_z
Si Si1 0.825399 0.750000 0.569727
Si Si2 0.819703 0.996218 0.674204
Si Si3 0.324208 0.108949 0.592813
Si Si4 0.827523 0.250000 0.925264
Si Si5 0.316871 0.388648 0.062963
O O1 0.804409 0.750000 0.484442
O O2 0.757274 0.819162 0.595795
O O3 0.000000 0.750000 0.592069
O O4 0.750000 0.977333 0.750000
O O5 0.766928 0.066805 0.650057
O O6 0.000000 0.995316 0.681170
O O7 0.761867 0.943771 0.616779
O O8 0.500000 0.087009 0.592775
O O9 0.307252 0.183655 0.619168
O O10 0.258394 0.097891 0.513543
O O11 0.000000 0.250000 0.959653
O O12 0.500000 0.388109 0.052751
#
# Coordination Sequence:
#
# PCOD8298954 Si02
#       5
#     8  16  16   8  16
#     4   8  14  28  51  76 100 128 163 202 246 294
#     4  11  23  37  51  71 102 137 173 211 251 296
#     4  10  19  33  55  80 104 131 165 205 250 300
#     4   8  16  30  49  76 105 128 157 202 249 294
#     4   9  18  33  54  78 103 132 167 207 249 296
#
# _framework density 18.906483000000001
#
# number of rings (size 3 to 8) (size 9 to 14) (size 15 to 20)
#    0.000    2.500    0.000    2.250    0.000    6.000 
#    0.000    1.250    0.000    0.000    0.000    0.000 
#    0.000    0.000    0.000    0.000    0.000    0.000 
#
# Total GULP energy -396464.915567 kJ/mol
# GULP energy per Si atom -12389.528611 kJ/mol
# Density = 1.886345 g / cm^3
# Si number density = 18.906483 Si / 1000 Ang^3
#
#
#
# Elastic Constant Matrix: (Units=GPa)
#
#
# Indices 1 2 3 4 5 6 
#
# 1 45.6766 19.6193 16.3451 0.0000 0.0000 0.0000
# 2 19.6193 109.2132 19.7002 0.0000 0.0000 0.0000
# 3 16.3451 19.7002 51.0950 0.0000 0.0000 0.0000
# 4 0.0000 0.0000 0.0000 7.8985 0.0000 0.0000
# 5 0.0000 0.0000 0.0000 0.0000 27.9903 0.0000
# 6 0.0000 0.0000 0.0000 0.0000 0.0000 24.0343
#
#
#
# Elastic Compliance Matrix: (Units=1/GPa)
#
#
# Indices 1 2 3 4 5 6 
#
# 1 0.025838 -0.003386 -0.006960 0.000000 0.000000 0.000000
# 2 -0.003386 0.010285 -0.002882 0.000000 0.000000 0.000000
# 3 -0.006960 -0.002882 0.022909 0.000000 0.000000 0.000000
# 4 0.000000 0.000000 0.000000 0.126606 0.000000 0.000000
# 5 0.000000 0.000000 0.000000 0.000000 0.035727 0.000000
# 6 0.000000 0.000000 0.000000 0.000000 0.000000 0.041607
#
#
# Mechanical properties :
#
#
# Convention : Reuss Voigt Hill
#
# Bulk Modulus (GPa) = 30.69809 35.25711 32.97760
# Shear Modulus (GPa) = 16.65075 22.00597 19.32836
#
# Velocity S-wave (km/s) = 2.97086 3.41535 3.20083
# Velocity P-wave (km/s) = 5.29529 5.85162 5.58039
#
# Compressibility (1/GPa) = 0.03257532
#
# Stress axis : x y z
#
# Youngs Moduli (GPa) = 38.70259 97.23300 43.65083
#
# Poissons Ratio (x) = 0.32924 0.30381
# Poissons Ratio (y) = 0.13105 0.12581
# Poissons Ratio (z) = 0.26937 0.28024
#
# Static dielectric constant tensor:
#      x y z
#    x 3.455120 0.000000 0.000000 
#    y 0.000000 4.090450 0.000000 
#    z 0.000000 0.000000 3.059170 
# 
# 
# High freq. dielectric constant tensor:
#      x y z
#    x 1.734170 0.000000 0.000000 
#    y 0.000000 1.764350 0.000000 
#    z 0.000000 0.000000 1.684290 
# 
# From -- ./inp_files/28861.got.cif
#   From: 2010.03.12/outbox.cif.g09.slc.cpg/sg74_15_cif.got.tgz:28861.got - 2010.04.16 15:46:19.
