data_PCOD8298676
_publ_section_title
;
Structure prediction by ZEFSAII (Michael W. Deem and Ramdas Pophale) SiO2 
 PCOD8298676
Probable space group: I M M A
;
_chemical_formula_sum "Si O2"
_cell_formula_units_Z 80
_cell_length_a 18.067041
_cell_length_b 9.139271
_cell_length_c 27.332955
_cell_angle_alpha 90.000000
_cell_angle_beta 90.000000
_cell_angle_gamma 90.000000
_cell_volume 4513.206155
_symmetry_space_group_name_H-M "I M M A"
_symmetry_group_IT_number 74
_symmetry_cell_setting 'orthorhombic'
loop_
_space_group_symop_operation_xyz
x,y,z
-x,1/2-y,z
x,-y,-z
-x,1/2+y,-z
-x,-y,-z
x,1/2+y,-z
-x,y,z
x,1/2-y,z
1/2+x,1/2+y,1/2+z
1/2-x,-y,1/2+z
1/2+x,1/2-y,1/2-z
1/2-x,y,1/2-z
1/2-x,1/2-y,1/2-z
1/2+x,y,1/2-z
1/2-x,1/2+y,1/2+z
1/2+x,-y,1/2+z
loop_
_atom_site_type_symbol
_atom_site_label
_atom_site_fract_x
_atom_site_fract_y
_atom_site_fract_z
Si Si1 0.706687 0.922393 0.650751
Si Si2 0.226104 0.081529 0.451798
Si Si3 0.417022 0.418752 0.102940
Si Si4 0.653427 0.421891 0.810217
Si Si5 0.585334 0.079781 0.705496
O O1 0.710118 0.750000 0.660099
O O2 0.722261 0.960656 0.594074
O O3 0.767728 0.998966 0.685022
O O4 0.626408 0.985460 0.664023
O O5 0.232672 0.250000 0.464379
O O6 0.141122 0.037610 0.439305
O O7 0.253923 0.000000 0.500000
O O8 0.500000 0.443408 0.082939
O O9 0.403120 0.250000 0.118360
O O10 0.404845 0.518667 0.150258
O O11 0.664983 0.250000 0.818032
O O12 0.620110 0.458712 0.757683
O O13 0.500000 0.032891 0.705393
O O14 0.594874 0.250000 0.693194
#
# Coordination Sequence:
#
# PCOD8298676 Si02
#       5
#    16  16  16  16  16
#     4  10  21  36  53  75 102 131 167 208 247 293
#     4   9  19  34  51  72  96 125 164 209 254 299
#     4   9  18  32  48  70 104 139 169 205 246 288
#     4  10  19  32  51  75 104 138 173 204 237 284
#     4  10  21  35  51  75 106 135 165 204 247 291
#
# _framework density 17.725759
#
# number of rings (size 3 to 8) (size 9 to 14) (size 15 to 20)
#    0.000    2.400    0.000    3.600    0.000   10.000 
#    0.000    0.000    0.000    0.600    0.000    0.000 
#    0.000    0.000    0.000    0.000    0.000    0.000 
#
# Total GULP energy -496053.218062 kJ/mol
# GULP energy per Si atom -12401.330452 kJ/mol
# Density = 1.768541 g / cm^3
# Si number density = 17.725759 Si / 1000 Ang^3
#
#
#
# Elastic Constant Matrix: (Units=GPa)
#
#
# Indices 1 2 3 4 5 6 
#
# 1 108.3712 54.6954 66.3622 0.0000 0.0000 0.0000
# 2 54.6954 78.4114 63.3164 0.0000 0.0000 0.0000
# 3 66.3622 63.3164 115.9267 0.0000 0.0000 0.0000
# 4 0.0000 0.0000 0.0000 32.8721 0.0000 0.0000
# 5 0.0000 0.0000 0.0000 0.0000 12.9216 0.0000
# 6 0.0000 0.0000 0.0000 0.0000 0.0000 30.3673
#
#
#
# Elastic Compliance Matrix: (Units=1/GPa)
#
#
# Indices 1 2 3 4 5 6 
#
# 1 0.015970 -0.006723 -0.005470 0.000000 0.000000 0.000000
# 2 -0.006723 0.025646 -0.010159 0.000000 0.000000 0.000000
# 3 -0.005470 -0.010159 0.017306 0.000000 0.000000 0.000000
# 4 0.000000 0.000000 0.000000 0.030421 0.000000 0.000000
# 5 0.000000 0.000000 0.000000 0.000000 0.077390 0.000000
# 6 0.000000 0.000000 0.000000 0.000000 0.000000 0.032930
#
#
# Mechanical properties :
#
#
# Convention : Reuss Voigt Hill
#
# Bulk Modulus (GPa) = 70.33069 74.60635 72.46852
# Shear Modulus (GPa) = 20.07179 23.12124 21.59652
#
# Velocity S-wave (km/s) = 3.36869 3.61555 3.49430
# Velocity P-wave (km/s) = 7.40905 7.72076 7.56651
#
# Compressibility (1/GPa) = 0.01421854
#
# Stress axis : x y z
#
# Youngs Moduli (GPa) = 62.61571 38.99305 57.78309
#
# Poissons Ratio (x) = 0.26214 0.31610
# Poissons Ratio (y) = 0.42095 0.58699
# Poissons Ratio (z) = 0.34254 0.39611
#
# Static dielectric constant tensor:
#      x y z
#    x 3.308160 0.000000 0.000000 
#    y 0.000000 3.289180 0.000000 
#    z 0.000000 0.000000 3.128640 
# 
# 
# High freq. dielectric constant tensor:
#      x y z
#    x 1.678440 0.000000 0.000000 
#    y 0.000000 1.690460 0.000000 
#    z 0.000000 0.000000 1.671770 
# 
# From -- ./inp_files/63918.got.cif
#   From: 2010.03.12/outbox.cif.g09.slc.cpg/sg74_32_cif.got.tgz:63918.got - 2010.04.16 15:46:19.
