data_PCOD8298710
_publ_section_title
;
Structure prediction by ZEFSAII (Michael W. Deem and Ramdas Pophale) SiO2 
 PCOD8298710
Probable space group: I M M A
;
_chemical_formula_sum "Si O2"
_cell_formula_units_Z 80
_cell_length_a 18.933968
_cell_length_b 9.015834
_cell_length_c 25.813497
_cell_angle_alpha 90.000000
_cell_angle_beta 90.000000
_cell_angle_gamma 90.000000
_cell_volume 4406.506233
_symmetry_space_group_name_H-M "I M M A"
_symmetry_group_IT_number 74
_symmetry_cell_setting 'orthorhombic'
loop_
_space_group_symop_operation_xyz
x,y,z
-x,1/2-y,z
x,-y,-z
-x,1/2+y,-z
-x,-y,-z
x,1/2+y,-z
-x,y,z
x,1/2-y,z
1/2+x,1/2+y,1/2+z
1/2-x,-y,1/2+z
1/2+x,1/2-y,1/2-z
1/2-x,y,1/2-z
1/2-x,1/2-y,1/2-z
1/2+x,y,1/2-z
1/2-x,1/2+y,1/2+z
1/2+x,-y,1/2+z
loop_
_atom_site_type_symbol
_atom_site_label
_atom_site_fract_x
_atom_site_fract_y
_atom_site_fract_z
Si Si1 0.919234 0.075970 0.948086
Si Si2 0.165385 0.423303 0.645219
Si Si3 0.333917 0.582728 0.751475
Si Si4 0.330312 0.922517 0.350878
Si Si5 0.417828 0.923182 0.946691
O O1 0.910602 0.250000 0.955367
O O2 0.872688 0.017992 0.900433
O O3 0.000000 0.029849 0.937588
O O4 0.890209 0.000000 0.000000
O O5 0.147392 0.250000 0.643641
O O6 0.137847 0.489376 0.699645
O O7 0.248292 0.454403 0.639068
O O8 0.126187 0.505646 0.599266
O O9 0.362972 0.750000 0.755716
O O10 0.250000 0.579593 0.750000
O O11 0.361391 0.508904 0.698606
O O12 0.344142 0.750000 0.340647
O O13 0.500000 0.952093 0.935591
O O14 0.400302 0.750000 0.950680
O O15 0.394312 0.000000 0.000000
#
# Coordination Sequence:
#
# PCOD8298710 Si02
#       5
#    16  16  16  16  16
#     4   9  18  33  51  70  96 130 165 201 243 290
#     4  10  19  32  52  76 102 131 164 204 248 296
#     4   9  17  30  49  73 100 131 166 204 248 295
#     4   9  18  32  50  74 101 130 166 207 250 294
#     4  10  21  37  55  74  99 131 166 204 247 297
#
# _framework density 18.154972999999998
#
# number of rings (size 3 to 8) (size 9 to 14) (size 15 to 20)
#    0.000    2.600    0.000    1.800    0.000    6.000 
#    0.000    3.000    0.000    3.600    0.000    0.000 
#    0.000    0.000    0.000    0.000    0.000    0.000 
#
# Total GULP energy -496073.721699 kJ/mol
# GULP energy per Si atom -12401.843042 kJ/mol
# Density = 1.811365 g / cm^3
# Si number density = 18.154973 Si / 1000 Ang^3
#
#
#
# Elastic Constant Matrix: (Units=GPa)
#
#
# Indices 1 2 3 4 5 6 
#
# 1 44.7739 40.3168 64.1878 0.0000 0.0000 0.0000
# 2 40.3168 109.5806 87.3332 0.0000 0.0000 0.0000
# 3 64.1878 87.3332 201.7399 0.0000 0.0000 0.0000
# 4 0.0000 0.0000 0.0000 43.1848 0.0000 0.0000
# 5 0.0000 0.0000 0.0000 0.0000 -20.1151 0.0000
# 6 0.0000 0.0000 0.0000 0.0000 0.0000 21.6193
#
#
#
# Elastic Compliance Matrix: (Units=1/GPa)
#
#
# Indices 1 2 3 4 5 6 
#
# 1 0.045119 -0.007877 -0.010946 0.000000 0.000000 0.000000
# 2 -0.007877 0.015308 -0.004121 0.000000 0.000000 0.000000
# 3 -0.010946 -0.004121 0.010223 0.000000 0.000000 0.000000
# 4 0.000000 0.000000 0.000000 0.023156 0.000000 0.000000
# 5 0.000000 0.000000 0.000000 0.000000 -0.049714 0.000000
# 6 0.000000 0.000000 0.000000 0.000000 0.000000 0.046255
#
#
# Mechanical properties :
#
#
# Convention : Reuss Voigt Hill
#
# Bulk Modulus (GPa) = 40.38131 82.19666 61.28899
# Shear Modulus (GPa) = 34.60514 19.88824 27.24669
#
# Velocity S-wave (km/s) = 4.37062 3.31338 3.87820
# Velocity P-wave (km/s) = 6.91091 7.74670 7.34071
#
# Compressibility (1/GPa) = 0.02476393
#
# Stress axis : x y z
#
# Youngs Moduli (GPa) = 22.16377 65.32681 97.81600
#
# Poissons Ratio (x) = 0.51455 1.07066
# Poissons Ratio (y) = 0.17457 0.40306
# Poissons Ratio (z) = 0.24260 0.26918
#
# Static dielectric constant tensor:
#      x y z
#    x 3.131430 0.000000 0.000000 
#    y 0.000000 3.454590 0.000000 
#    z 0.000000 0.000000 3.572690 
# 
# 
# High freq. dielectric constant tensor:
#      x y z
#    x 1.672910 0.000000 0.000000 
#    y 0.000000 1.711570 0.000000 
#    z 0.000000 0.000000 1.719030 
# 
# From -- ./inp_files/67533.got.cif
#   From: 2010.03.12/outbox.cif.g09.slc.cpg/sg74_34_cif.got.tgz:67533.got - 2010.04.16 15:46:19.
