data_PCOD8298201
_publ_section_title
;
Structure prediction by ZEFSAII (Michael W. Deem and Ramdas Pophale) SiO2 
 PCOD8298201
Probable space group: I M M A
;
_chemical_formula_sum "Si O2"
_cell_formula_units_Z 80
_cell_length_a 11.089767
_cell_length_b 17.104045
_cell_length_c 25.251651
_cell_angle_alpha 90.000000
_cell_angle_beta 90.000000
_cell_angle_gamma 90.000000
_cell_volume 4789.729975
_symmetry_space_group_name_H-M "I M M A"
_symmetry_group_IT_number 74
_symmetry_cell_setting 'orthorhombic'
loop_
_space_group_symop_operation_xyz
x,y,z
-x,1/2-y,z
x,-y,-z
-x,1/2+y,-z
-x,-y,-z
x,1/2+y,-z
-x,y,z
x,1/2-y,z
1/2+x,1/2+y,1/2+z
1/2-x,-y,1/2+z
1/2+x,1/2-y,1/2-z
1/2-x,y,1/2-z
1/2-x,1/2-y,1/2-z
1/2+x,y,1/2-z
1/2-x,1/2+y,1/2+z
1/2+x,-y,1/2+z
loop_
_atom_site_type_symbol
_atom_site_label
_atom_site_fract_x
_atom_site_fract_y
_atom_site_fract_z
Si Si1 0.254135 0.409000 0.387182
Si Si2 0.138365 0.659038 0.711489
Si Si3 0.000000 0.840961 0.902269
Si Si4 0.717244 0.445195 0.548481
Si Si5 0.500000 0.841958 0.472172
Si Si6 0.635616 0.837826 0.986882
O O1 0.158670 0.392900 0.340881
O O2 0.387283 0.379939 0.372141
O O3 0.256819 0.501928 0.399900
O O4 0.221382 0.357770 0.438314
O O5 0.148940 0.750000 0.696396
O O6 0.250000 0.636277 0.750000
O O7 0.000000 0.641944 0.732546
O O8 0.000000 0.750000 0.889500
O O9 0.000000 0.859066 0.964941
O O10 0.676145 0.500000 0.500000
O O11 0.614126 0.380711 0.556886
O O12 0.839518 0.397826 0.534842
O O13 0.500000 0.750000 0.460687
O O14 0.500000 0.847810 0.967414
O O15 0.663902 0.750000 0.005975
#
# Coordination Sequence:
#
# PCOD8298201 Si02
#       6
#    16  16   8  16   8  16
#     4  11  21  31  49  69  97 128 163 207 247 294
#     4  10  22  39  56  75  98 129 169 210 251 298
#     4  11  19  27  47  71  94 132 172 198 237 284
#     4  10  19  29  43  67  96 129 165 203 243 287
#     4  11  18  30  46  66 102 138 170 204 238 282
#     4  10  19  30  44  64  93 130 167 199 236 289
#
# _framework density 16.702404000000001
#
# number of rings (size 3 to 8) (size 9 to 14) (size 15 to 20)
#    0.000    1.600    4.000    3.900    1.400    6.000 
#    0.000    0.000    0.000    0.000    0.000    0.000 
#    0.000    3.200    1.200    0.000    0.000    0.800 
#
# Total GULP energy -495812.956894 kJ/mol
# GULP energy per Si atom -12395.323922 kJ/mol
# Density = 1.666439 g / cm^3
# Si number density = 16.702404 Si / 1000 Ang^3
#
#
#
# Elastic Constant Matrix: (Units=GPa)
#
#
# Indices 1 2 3 4 5 6 
#
# 1 111.1091 38.6737 23.3463 0.0000 0.0000 0.0000
# 2 38.6737 95.3568 25.8231 0.0000 0.0000 0.0000
# 3 23.3463 25.8231 41.8435 0.0000 0.0000 0.0000
# 4 0.0000 0.0000 0.0000 18.0540 0.0000 0.0000
# 5 0.0000 0.0000 0.0000 0.0000 15.3752 0.0000
# 6 0.0000 0.0000 0.0000 0.0000 0.0000 22.7725
#
#
#
# Elastic Compliance Matrix: (Units=1/GPa)
#
#
# Indices 1 2 3 4 5 6 
#
# 1 0.011029 -0.003370 -0.004074 0.000000 0.000000 0.000000
# 2 -0.003370 0.013621 -0.006526 0.000000 0.000000 0.000000
# 3 -0.004074 -0.006526 0.030199 0.000000 0.000000 0.000000
# 4 0.000000 0.000000 0.000000 0.055389 0.000000 0.000000
# 5 0.000000 0.000000 0.000000 0.000000 0.065040 0.000000
# 6 0.000000 0.000000 0.000000 0.000000 0.000000 0.043913
#
#
# Mechanical properties :
#
#
# Convention : Reuss Voigt Hill
#
# Bulk Modulus (GPa) = 37.16124 47.11064 42.13594
# Shear Modulus (GPa) = 19.52368 21.93811 20.73090
#
# Velocity S-wave (km/s) = 3.42265 3.62812 3.52688
# Velocity P-wave (km/s) = 6.15765 6.76891 6.47050
#
# Compressibility (1/GPa) = 0.02690976
#
# Stress axis : x y z
#
# Youngs Moduli (GPa) = 90.66913 73.41707 33.11383
#
# Poissons Ratio (x) = 0.24740 0.13491
# Poissons Ratio (y) = 0.30554 0.21609
# Poissons Ratio (z) = 0.36938 0.47910
#
# Static dielectric constant tensor:
#      x y z
#    x 3.396360 0.000000 0.000000 
#    y 0.000000 3.250160 0.000000 
#    z 0.000000 0.000000 2.750510 
# 
# 
# High freq. dielectric constant tensor:
#      x y z
#    x 1.666670 0.000000 0.000000 
#    y 0.000000 1.637940 0.000000 
#    z 0.000000 0.000000 1.580380 
# 
# From -- ./inp_files/58545.got.cif
#   From: 2010.03.12/outbox.cif.g09.slc.cpg/sg74_30_cif.got.tgz:58545.got - 2010.04.16 15:46:19.
