data_PCOD8298071
_publ_section_title
;
Structure prediction by ZEFSAII (Michael W. Deem and Ramdas Pophale) SiO2 
 PCOD8298071
Probable space group: I M M A
;
_chemical_formula_sum "Si O2"
_cell_formula_units_Z 104
_cell_length_a 21.630680
_cell_length_b 13.902700
_cell_length_c 17.323676
_cell_angle_alpha 90.000000
_cell_angle_beta 90.000000
_cell_angle_gamma 90.000000
_cell_volume 5209.659950
_symmetry_space_group_name_H-M "I M M A"
_symmetry_group_IT_number 74
_symmetry_cell_setting 'orthorhombic'
loop_
_space_group_symop_operation_xyz
x,y,z
-x,1/2-y,z
x,-y,-z
-x,1/2+y,-z
-x,-y,-z
x,1/2+y,-z
-x,y,z
x,1/2-y,z
1/2+x,1/2+y,1/2+z
1/2-x,-y,1/2+z
1/2+x,1/2-y,1/2-z
1/2-x,y,1/2-z
1/2-x,1/2-y,1/2-z
1/2+x,y,1/2-z
1/2-x,1/2+y,1/2+z
1/2+x,-y,1/2+z
loop_
_atom_site_type_symbol
_atom_site_label
_atom_site_fract_x
_atom_site_fract_y
_atom_site_fract_z
Si Si1 0.784027 0.142663 0.131833
Si Si2 0.500000 0.107188 0.530153
Si Si3 0.170634 0.500000 0.500000
Si Si4 0.000000 0.146734 0.138145
Si Si5 0.360010 0.138839 0.127278
Si Si6 0.388033 0.357435 0.644256
Si Si7 0.611138 0.452602 0.281292
Si Si8 0.269883 0.139680 0.542297
O O1 0.808089 0.250000 0.149762
O O2 0.711640 0.135249 0.150435
O O3 0.821000 0.071820 0.187140
O O4 0.796876 0.116341 0.042678
O O5 0.500000 0.169979 0.452909
O O6 0.560139 0.130610 0.579701
O O7 0.500000 0.000000 0.500000
O O8 0.128873 0.427373 0.448679
O O9 0.213046 0.566221 0.442947
O O10 0.939259 0.088794 0.160587
O O11 0.000000 0.250000 0.180696
O O12 0.380935 0.250000 0.113007
O O13 0.399433 0.090188 0.196035
O O14 0.390735 0.250000 0.678920
O O15 0.396390 0.431405 0.715568
O O16 0.321869 0.377707 0.605512
O O17 0.245311 0.250000 0.543510
#
# Coordination Sequence:
#
# PCOD8298071 Si02
#       8
#    16   8   8   8  16  16  16  16
#     4   9  17  30  51  78 108 143 180 219 265 318
#     4  12  22  37  53  76 105 149 195 226 247 288
#     4  10  18  34  58  76 100 132 168 216 280 338
#     4  12  24  35  54  82 110 143 179 221 265 301
#     4  10  21  36  56  82 107 134 171 219 272 327
#     4  11  22  35  49  71 108 149 188 224 256 302
#     4  12  22  35  52  76 110 142 179 218 271 320
#     4   9  18  30  48  75 106 142 183 222 260 311
#
# _framework density 19.962914000000001
#
# number of rings (size 3 to 8) (size 9 to 14) (size 15 to 20)
#    0.000    1.538    1.538    6.692    1.077    2.462 
#    0.000    1.538    0.000    4.154    0.000    0.000 
#    0.000    0.000    0.000    0.000    0.000    0.000 
#
# Total GULP energy -644643.346830 kJ/mol
# GULP energy per Si atom -12396.987439 kJ/mol
# Density = 1.991748 g / cm^3
# Si number density = 19.962914 Si / 1000 Ang^3
#
#
#
# Elastic Constant Matrix: (Units=GPa)
#
#
# Indices 1 2 3 4 5 6 
#
# 1 22.1768 12.2446 18.3850 0.0000 0.0000 0.0000
# 2 12.2446 159.9472 61.5799 0.0000 0.0000 0.0000
# 3 18.3850 61.5799 83.7876 0.0000 0.0000 0.0000
# 4 0.0000 0.0000 0.0000 33.7079 0.0000 0.0000
# 5 0.0000 0.0000 0.0000 0.0000 12.0806 0.0000
# 6 0.0000 0.0000 0.0000 0.0000 0.0000 16.4098
#
#
#
# Elastic Compliance Matrix: (Units=1/GPa)
#
#
# Indices 1 2 3 4 5 6 
#
# 1 0.055161 0.000610 -0.012552 0.000000 0.000000 0.000000
# 2 0.000610 0.008726 -0.006547 0.000000 0.000000 0.000000
# 3 -0.012552 -0.006547 0.019501 0.000000 0.000000 0.000000
# 4 0.000000 0.000000 0.000000 0.029667 0.000000 0.000000
# 5 0.000000 0.000000 0.000000 0.000000 0.082777 0.000000
# 6 0.000000 0.000000 0.000000 0.000000 0.000000 0.060939
#
#
# Mechanical properties :
#
#
# Convention : Reuss Voigt Hill
#
# Bulk Modulus (GPa) = 21.54714 50.03676 35.79195
# Shear Modulus (GPa) = 16.16976 24.01981 20.09478
#
# Velocity S-wave (km/s) = 2.84912 3.47251 3.17615
# Velocity P-wave (km/s) = 4.65192 6.41849 5.60524
#
# Compressibility (1/GPa) = 0.04640986
#
# Stress axis : x y z
#
# Youngs Moduli (GPa) = 18.12867 114.60034 51.27997
#
# Poissons Ratio (x) = -0.06986 0.64365
# Poissons Ratio (y) = -0.01105 0.33573
# Poissons Ratio (z) = 0.22755 0.75028
#
# Static dielectric constant tensor:
#      x y z
#    x 3.340260 0.000000 0.000000 
#    y 0.000000 4.235780 0.000000 
#    z 0.000000 0.000000 3.486500 
# 
# 
# High freq. dielectric constant tensor:
#      x y z
#    x 1.737630 0.000000 0.000000 
#    y 0.000000 1.807450 0.000000 
#    z 0.000000 0.000000 1.741580 
# 
# From -- ./inp_files/45334.got.cif
#   From: 2010.03.12/outbox.cif.g09.slc.cpg/sg74_23_cif.got.tgz:45334.got - 2010.04.16 15:46:19.
