data_PCOD8298757
_publ_section_title
;
Structure prediction by ZEFSAII (Michael W. Deem and Ramdas Pophale) SiO2 
 PCOD8298757
Probable space group: I M M A
;
_chemical_formula_sum "Si O2"
_cell_formula_units_Z 96
_cell_length_a 9.208333
_cell_length_b 23.129604
_cell_length_c 25.574621
_cell_angle_alpha 90.000000
_cell_angle_beta 90.000000
_cell_angle_gamma 90.000000
_cell_volume 5447.013103
_symmetry_space_group_name_H-M "I M M A"
_symmetry_group_IT_number 74
_symmetry_cell_setting 'orthorhombic'
loop_
_space_group_symop_operation_xyz
x,y,z
-x,1/2-y,z
x,-y,-z
-x,1/2+y,-z
-x,-y,-z
x,1/2+y,-z
-x,y,z
x,1/2-y,z
1/2+x,1/2+y,1/2+z
1/2-x,-y,1/2+z
1/2+x,1/2-y,1/2-z
1/2-x,y,1/2-z
1/2-x,1/2-y,1/2-z
1/2+x,y,1/2-z
1/2-x,1/2+y,1/2+z
1/2+x,-y,1/2+z
loop_
_atom_site_type_symbol
_atom_site_label
_atom_site_fract_x
_atom_site_fract_y
_atom_site_fract_z
Si Si1 0.169939 0.683230 0.697543
Si Si2 0.169199 0.508327 0.439539
Si Si3 0.329502 0.883355 0.902814
Si Si4 0.330577 0.315864 0.698654
Si Si5 0.833428 0.317175 0.503105
Si Si6 0.171543 0.878084 0.093215
O O1 0.203166 0.750000 0.684322
O O2 0.250000 0.663310 0.750000
O O3 0.234152 0.644111 0.650395
O O4 0.000000 0.672673 0.705964
O O5 0.211835 0.500000 0.500000
O O6 0.207817 0.451008 0.406626
O O7 0.264046 0.558537 0.414578
O O8 0.000000 0.524310 0.434962
O O9 0.500000 0.871830 0.902931
O O10 0.265953 0.851002 0.953610
O O11 0.500000 0.319452 0.709962
O O12 0.283348 0.250000 0.685955
O O13 0.250000 0.339314 0.750000
O O14 0.285332 0.356591 0.650765
O O15 0.822312 0.250000 0.490704
O O16 0.738295 0.332375 0.553117
O O17 0.000000 0.336211 0.513652
O O18 0.000000 0.879773 0.085036
#
# Coordination Sequence:
#
# PCOD8298757 Si02
#       6
#    16  16  16  16  16  16
#     4   9  17  31  52  76 102 133 168 208 257 309
#     4  10  19  35  56  75 101 139 182 221 254 302
#     4   9  17  32  53  76 101 132 172 217 260 298
#     4   9  19  36  56  77 103 136 172 213 261 312
#     4  10  19  32  53  79 104 133 173 216 258 312
#     4  11  22  35  52  77 111 141 170 212 268 321
#
# _framework density 17.624338000000002
#
# number of rings (size 3 to 8) (size 9 to 14) (size 15 to 20)
#    0.000    2.333    1.667    1.500    0.000    4.667 
#    0.000    4.167    0.000    6.000    0.000    0.000 
#    0.000    0.000    0.000    0.000    0.000    0.000 
#
# Total GULP energy -595271.240254 kJ/mol
# GULP energy per Si atom -12401.484172 kJ/mol
# Density = 1.758422 g / cm^3
# Si number density = 17.624338 Si / 1000 Ang^3
#
#
#
# Elastic Constant Matrix: (Units=GPa)
#
#
# Indices 1 2 3 4 5 6 
#
# 1 51.6719 38.0122 55.1615 0.0000 0.0000 0.0000
# 2 38.0122 94.6201 63.8133 0.0000 0.0000 0.0000
# 3 55.1615 63.8133 149.9103 0.0000 0.0000 0.0000
# 4 0.0000 0.0000 0.0000 30.9700 0.0000 0.0000
# 5 0.0000 0.0000 0.0000 0.0000 29.5367 0.0000
# 6 0.0000 0.0000 0.0000 0.0000 0.0000 22.9333
#
#
#
# Elastic Compliance Matrix: (Units=1/GPa)
#
#
# Indices 1 2 3 4 5 6 
#
# 1 0.035406 -0.007627 -0.009781 0.000000 0.000000 0.000000
# 2 -0.007627 0.016467 -0.004203 0.000000 0.000000 0.000000
# 3 -0.009781 -0.004203 0.012059 0.000000 0.000000 0.000000
# 4 0.000000 0.000000 0.000000 0.032289 0.000000 0.000000
# 5 0.000000 0.000000 0.000000 0.000000 0.033856 0.000000
# 6 0.000000 0.000000 0.000000 0.000000 0.000000 0.043605
#
#
# Mechanical properties :
#
#
# Convention : Reuss Voigt Hill
#
# Bulk Modulus (GPa) = 48.28876 67.79738 58.04307
# Shear Modulus (GPa) = 22.34053 25.96901 24.15477
#
# Velocity S-wave (km/s) = 3.56419 3.84275 3.70609
# Velocity P-wave (km/s) = 6.66306 7.63155 7.16369
#
# Compressibility (1/GPa) = 0.02070875
#
# Stress axis : x y z
#
# Youngs Moduli (GPa) = 28.24417 60.72601 82.92505
#
# Poissons Ratio (x) = 0.46316 0.81112
# Poissons Ratio (y) = 0.21542 0.34856
# Poissons Ratio (z) = 0.27627 0.25525
#
# Static dielectric constant tensor:
#      x y z
#    x 3.076790 0.000000 0.000000 
#    y 0.000000 3.278880 0.000000 
#    z 0.000000 0.000000 3.394220 
# 
# 
# High freq. dielectric constant tensor:
#      x y z
#    x 1.659290 0.000000 0.000000 
#    y 0.000000 1.683490 0.000000 
#    z 0.000000 0.000000 1.685640 
# 
# From -- ./inp_files/57265.got.cif
#   From: 2010.03.12/outbox.cif.g09.slc.cpg/sg74_29_cif.got.tgz:57265.got - 2010.04.16 15:46:19.
