data_PCOD8298320
_publ_section_title
;
Structure prediction by ZEFSAII (Michael W. Deem and Ramdas Pophale) SiO2 
 PCOD8298320
Probable space group: I M M A
;
_chemical_formula_sum "Si O2"
_cell_formula_units_Z 80
_cell_length_a 18.445701
_cell_length_b 9.520251
_cell_length_c 23.477627
_cell_angle_alpha 90.000000
_cell_angle_beta 90.000000
_cell_angle_gamma 90.000000
_cell_volume 4122.852159
_symmetry_space_group_name_H-M "I M M A"
_symmetry_group_IT_number 74
_symmetry_cell_setting 'orthorhombic'
loop_
_space_group_symop_operation_xyz
x,y,z
-x,1/2-y,z
x,-y,-z
-x,1/2+y,-z
-x,-y,-z
x,1/2+y,-z
-x,y,z
x,1/2-y,z
1/2+x,1/2+y,1/2+z
1/2-x,-y,1/2+z
1/2+x,1/2-y,1/2-z
1/2-x,y,1/2-z
1/2-x,1/2-y,1/2-z
1/2+x,y,1/2-z
1/2-x,1/2+y,1/2+z
1/2+x,-y,1/2+z
loop_
_atom_site_type_symbol
_atom_site_label
_atom_site_fract_x
_atom_site_fract_y
_atom_site_fract_z
Si Si1 0.217027 0.914208 0.056213
Si Si2 0.850116 0.912383 0.363528
Si Si3 0.080420 0.915215 0.249911
Si Si4 0.918861 0.083229 0.875716
Si Si5 0.416517 0.095566 0.048665
O O1 0.215667 0.750000 0.040597
O O2 0.271837 0.943067 0.108999
O O3 0.139232 0.971841 0.078231
O O4 0.239312 0.000000 0.000000
O O5 0.872445 0.750000 0.373175
O O6 0.857094 0.952320 0.296425
O O7 0.908753 0.013891 0.392380
O O8 0.075869 0.750000 0.242948
O O9 0.100367 0.977179 0.187494
O O10 0.000000 0.970061 0.268528
O O11 0.913634 0.250000 0.874306
O O12 0.000000 0.034648 0.893553
O O13 0.500000 0.116180 0.033930
O O14 0.379150 0.250000 0.050057
O O15 0.378295 0.000000 0.000000
#
# Coordination Sequence:
#
# PCOD8298320 Si02
#       5
#    16  16  16  16  16
#     4  10  21  34  49  72 100 131 167 205 246 292
#     4  10  19  30  47  72 101 130 159 195 241 294
#     4   8  14  26  47  74 100 126 158 198 244 292
#     4   8  15  30  51  74  99 125 158 205 255 297
#     4  10  20  32  46  65  91 127 170 210 244 281
#
# _framework density 19.404043999999999
#
# number of rings (size 3 to 8) (size 9 to 14) (size 15 to 20)
#    0.000    2.800    0.000    3.000    0.000    5.600 
#    0.000    4.000    0.000    1.200    0.000    5.600 
#    0.000    0.000    0.000    0.000    0.000    0.000 
#
# Total GULP energy -495541.001628 kJ/mol
# GULP energy per Si atom -12388.525041 kJ/mol
# Density = 1.935988 g / cm^3
# Si number density = 19.404044 Si / 1000 Ang^3
#
#
#
# Elastic Constant Matrix: (Units=GPa)
#
#
# Indices 1 2 3 4 5 6 
#
# 1 84.3917 20.4366 43.7517 0.0000 0.0000 0.0000
# 2 20.4366 61.2916 23.6417 0.0000 0.0000 0.0000
# 3 43.7517 23.6417 82.4315 0.0000 0.0000 0.0000
# 4 0.0000 0.0000 0.0000 18.0316 0.0000 0.0000
# 5 0.0000 0.0000 0.0000 0.0000 29.6135 0.0000
# 6 0.0000 0.0000 0.0000 0.0000 0.0000 13.2236
#
#
#
# Elastic Compliance Matrix: (Units=1/GPa)
#
#
# Indices 1 2 3 4 5 6 
#
# 1 0.016659 -0.002411 -0.008151 0.000000 0.000000 0.000000
# 2 -0.002411 0.018694 -0.004082 0.000000 0.000000 0.000000
# 3 -0.008151 -0.004082 0.017628 0.000000 0.000000 0.000000
# 4 0.000000 0.000000 0.000000 0.055458 0.000000 0.000000
# 5 0.000000 0.000000 0.000000 0.000000 0.033768 0.000000
# 6 0.000000 0.000000 0.000000 0.000000 0.000000 0.075623
#
#
# Mechanical properties :
#
#
# Convention : Reuss Voigt Hill
#
# Bulk Modulus (GPa) = 42.20430 44.86387 43.53408
# Shear Modulus (GPa) = 19.60674 21.52604 20.56639
#
# Velocity S-wave (km/s) = 3.18220 3.33432 3.25915
# Velocity P-wave (km/s) = 5.94132 6.16398 6.05368
#
# Compressibility (1/GPa) = 0.02369427
#
# Stress axis : x y z
#
# Youngs Moduli (GPa) = 60.02826 53.49371 56.72790
#
# Poissons Ratio (x) = 0.12896 0.46236
# Poissons Ratio (y) = 0.14471 0.23156
# Poissons Ratio (z) = 0.48926 0.21836
#
# Static dielectric constant tensor:
#      x y z
#    x 3.589470 0.000000 0.000000 
#    y 0.000000 3.235010 0.000000 
#    z 0.000000 0.000000 3.776500 
# 
# 
# High freq. dielectric constant tensor:
#      x y z
#    x 1.748550 0.000000 0.000000 
#    y 0.000000 1.703520 0.000000 
#    z 0.000000 0.000000 1.756130 
# 
# From -- ./inp_files/63972.got.cif
#   From: 2010.03.12/outbox.cif.g09.slc.cpg/sg74_32_cif.got.tgz:63972.got - 2010.04.16 15:46:19.
