data_PCOD8298762
_publ_section_title
;
Structure prediction by ZEFSAII (Michael W. Deem and Ramdas Pophale) SiO2 
 PCOD8298762
Probable space group: I M M A
;
_chemical_formula_sum "Si O2"
_cell_formula_units_Z 104
_cell_length_a 9.002199
_cell_length_b 19.580916
_cell_length_c 32.957140
_cell_angle_alpha 90.000000
_cell_angle_beta 90.000000
_cell_angle_gamma 90.000000
_cell_volume 5809.397992
_symmetry_space_group_name_H-M "I M M A"
_symmetry_group_IT_number 74
_symmetry_cell_setting 'orthorhombic'
loop_
_space_group_symop_operation_xyz
x,y,z
-x,1/2-y,z
x,-y,-z
-x,1/2+y,-z
-x,-y,-z
x,1/2+y,-z
-x,y,z
x,1/2-y,z
1/2+x,1/2+y,1/2+z
1/2-x,-y,1/2+z
1/2+x,1/2-y,1/2-z
1/2-x,y,1/2-z
1/2-x,1/2-y,1/2-z
1/2+x,y,1/2-z
1/2-x,1/2+y,1/2+z
1/2+x,-y,1/2+z
loop_
_atom_site_type_symbol
_atom_site_label
_atom_site_fract_x
_atom_site_fract_y
_atom_site_fract_z
Si Si1 0.824957 0.423408 0.991256
Si Si2 0.328666 0.611788 0.333945
Si Si3 0.326269 0.829344 0.565157
Si Si4 0.327608 0.250000 0.708077
Si Si5 0.827048 0.562504 0.410148
Si Si6 0.826323 0.028818 0.207353
Si Si7 0.675788 0.420102 0.127698
O O1 0.753965 0.403833 0.948454
O O2 0.000000 0.419190 0.986766
O O3 0.769963 0.500000 0.000000
O O4 0.769150 0.371486 0.025952
O O5 0.500000 0.611302 0.348201
O O6 0.278013 0.682741 0.315263
O O7 0.220926 0.606476 0.371907
O O8 0.300417 0.551164 0.301817
O O9 0.500000 0.843107 0.572649
O O10 0.292818 0.750000 0.557355
O O11 0.237238 0.853058 0.605097
O O12 0.500000 0.250000 0.716394
O O13 0.250000 0.250000 0.750000
O O14 0.780587 0.484038 0.401129
O O15 0.000000 0.569041 0.417624
O O16 0.750000 0.047376 0.250000
O O17 0.752749 0.073695 0.171612
O O18 0.000000 0.046983 0.209847
O O19 0.500000 0.414960 0.134366
#
# Coordination Sequence:
#
# PCOD8298762 Si02
#       7
#    16  16  16   8  16  16  16
#     4  10  19  33  56  80 105 140 179 218 262 315
#     4   9  19  34  51  72 102 140 179 219 266 321
#     4  10  21  37  56  80 108 140 179 219 263 316
#     4  10  20  34  52  74 100 138 182 224 270 322
#     4  10  20  33  52  77 104 135 175 223 268 309
#     4  10  19  32  53  80 108 136 172 219 267 315
#     4  10  20  34  54  79 107 139 174 214 263 314
#
# _framework density 17.902028000000001
#
# number of rings (size 3 to 8) (size 9 to 14) (size 15 to 20)
#    0.000    2.154    1.538    1.846    0.000    3.692 
#    1.385    0.000    0.000    0.462    0.000    0.000 
#    0.000    0.000    0.000    0.000    0.000    0.000 
#
# Total GULP energy -644876.610612 kJ/mol
# GULP energy per Si atom -12401.473281 kJ/mol
# Density = 1.786128 g / cm^3
# Si number density = 17.902028 Si / 1000 Ang^3
#
#
#
# Elastic Constant Matrix: (Units=GPa)
#
#
# Indices 1 2 3 4 5 6 
#
# 1 53.5731 36.6137 52.7946 0.0000 0.0000 0.0000
# 2 36.6137 100.7613 59.2996 0.0000 0.0000 0.0000
# 3 52.7946 59.2996 135.8376 0.0000 0.0000 0.0000
# 4 0.0000 0.0000 0.0000 13.7902 0.0000 0.0000
# 5 0.0000 0.0000 0.0000 0.0000 35.3477 0.0000
# 6 0.0000 0.0000 0.0000 0.0000 0.0000 20.0655
#
#
#
# Elastic Compliance Matrix: (Units=1/GPa)
#
#
# Indices 1 2 3 4 5 6 
#
# 1 0.032684 -0.005922 -0.010118 0.000000 0.000000 0.000000
# 2 -0.005922 0.014429 -0.003997 0.000000 0.000000 0.000000
# 3 -0.010118 -0.003997 0.013039 0.000000 0.000000 0.000000
# 4 0.000000 0.000000 0.000000 0.072515 0.000000 0.000000
# 5 0.000000 0.000000 0.000000 0.000000 0.028290 0.000000
# 6 0.000000 0.000000 0.000000 0.000000 0.000000 0.049837
#
#
# Mechanical properties :
#
#
# Convention : Reuss Voigt Hill
#
# Bulk Modulus (GPa) = 49.80572 65.28755 57.54663
# Shear Modulus (GPa) = 19.41287 23.27161 21.34224
#
# Velocity S-wave (km/s) = 3.29659 3.60938 3.45653
# Velocity P-wave (km/s) = 6.50935 7.34294 6.93867
#
# Compressibility (1/GPa) = 0.02007802
#
# Stress axis : x y z
#
# Youngs Moduli (GPa) = 30.59589 69.30610 76.69264
#
# Poissons Ratio (x) = 0.41043 0.77596
# Poissons Ratio (y) = 0.18119 0.30656
# Poissons Ratio (z) = 0.30956 0.27703
#
# Static dielectric constant tensor:
#      x y z
#    x 3.297810 0.000000 0.000000 
#    y 0.000000 3.222310 0.000000 
#    z 0.000000 0.000000 3.298110 
# 
# 
# High freq. dielectric constant tensor:
#      x y z
#    x 1.695210 0.000000 0.000000 
#    y 0.000000 1.670750 0.000000 
#    z 0.000000 0.000000 1.699060 
# 
# From -- ./inp_files/70605.got.cif
#   From: 2010.03.12/outbox.cif.g09.slc.cpg/sg74_36_cif.got.tgz:70605.got - 2010.04.16 15:46:19.
