data_PCOD8298714
_publ_section_title
;
Structure prediction by ZEFSAII (Michael W. Deem and Ramdas Pophale) SiO2 
 PCOD8298714
Probable space group: I M M A
;
_chemical_formula_sum "Si O2"
_cell_formula_units_Z 104
_cell_length_a 28.267650
_cell_length_b 9.028391
_cell_length_c 24.198253
_cell_angle_alpha 90.000000
_cell_angle_beta 90.000000
_cell_angle_gamma 90.000000
_cell_volume 6175.669949
_symmetry_space_group_name_H-M "I M M A"
_symmetry_group_IT_number 74
_symmetry_cell_setting 'orthorhombic'
loop_
_space_group_symop_operation_xyz
x,y,z
-x,1/2-y,z
x,-y,-z
-x,1/2+y,-z
-x,-y,-z
x,1/2+y,-z
-x,y,z
x,1/2-y,z
1/2+x,1/2+y,1/2+z
1/2-x,-y,1/2+z
1/2+x,1/2-y,1/2-z
1/2-x,y,1/2-z
1/2-x,1/2-y,1/2-z
1/2+x,y,1/2-z
1/2-x,1/2+y,1/2+z
1/2+x,-y,1/2+z
loop_
_atom_site_type_symbol
_atom_site_label
_atom_site_fract_x
_atom_site_fract_y
_atom_site_fract_z
Si Si1 0.176207 0.076989 0.941321
Si Si2 0.778160 0.079109 0.557323
Si Si3 0.000000 0.426377 0.059609
Si Si4 0.584413 0.923397 0.377041
Si Si5 0.555680 0.079743 0.147653
Si Si6 0.945336 0.580968 0.242926
Si Si7 0.880612 0.424455 0.559509
O O1 0.172121 0.250000 0.953166
O O2 0.227920 0.037419 0.913407
O O3 0.135968 0.027676 0.898501
O O4 0.168293 0.000000 0.000000
O O5 0.778155 0.250000 0.543178
O O6 0.828308 0.040353 0.586824
O O7 0.778003 0.000000 0.500000
O O8 0.953705 0.477089 0.092138
O O9 0.000000 0.250000 0.053617
O O10 0.000000 0.500000 0.000000
O O11 0.573117 0.750000 0.387761
O O12 0.584268 0.957780 0.311797
O O13 0.500000 0.054759 0.141155
O O14 0.570211 0.250000 0.142049
O O15 0.572679 0.022472 0.207478
O O16 0.580065 0.987315 0.099761
O O17 0.937293 0.750000 0.261460
O O18 0.000000 0.551141 0.228757
O O19 0.885996 0.500000 0.500000
O O20 0.888797 0.250000 0.552239
#
# Coordination Sequence:
#
# PCOD8298714 Si02
#       7
#    16  16   8  16  16  16  16
#     4   9  17  29  47  70  98 127 159 200 245 291
#     4   8  15  28  46  70  96 125 159 195 234 283
#     4  12  24  34  46  66  98 134 167 206 253 300
#     4  10  19  33  51  71  96 127 164 206 250 296
#     4  10  21  35  51  73 100 127 160 200 239 283
#     4   9  17  32  52  70  92 124 164 204 243 288
#     4  10  19  32  52  76 103 131 160 192 235 288
#
# _framework density 16.840278999999999
#
# number of rings (size 3 to 8) (size 9 to 14) (size 15 to 20)
#    0.000    2.462    0.769    2.077    0.000    4.308 
#    0.000    0.000    0.000    0.923    0.000    6.462 
#    0.000    0.000    0.000    0.000    0.000    0.000 
#
# Total GULP energy -644350.774660 kJ/mol
# GULP energy per Si atom -12391.361051 kJ/mol
# Density = 1.680195 g / cm^3
# Si number density = 16.840279 Si / 1000 Ang^3
#
#
#
# Elastic Constant Matrix: (Units=GPa)
#
#
# Indices 1 2 3 4 5 6 
#
# 1 91.7801 46.9831 59.1860 0.0000 0.0000 0.0000
# 2 46.9831 76.8757 47.6833 0.0000 0.0000 0.0000
# 3 59.1860 47.6833 100.2786 0.0000 0.0000 0.0000
# 4 0.0000 0.0000 0.0000 27.1442 0.0000 0.0000
# 5 0.0000 0.0000 0.0000 0.0000 2.6176 0.0000
# 6 0.0000 0.0000 0.0000 0.0000 0.0000 19.7061
#
#
#
# Elastic Compliance Matrix: (Units=1/GPa)
#
#
# Indices 1 2 3 4 5 6 
#
# 1 0.019881 -0.006910 -0.008448 0.000000 0.000000 0.000000
# 2 -0.006910 0.020851 -0.005836 0.000000 0.000000 0.000000
# 3 -0.008448 -0.005836 0.017734 0.000000 0.000000 0.000000
# 4 0.000000 0.000000 0.000000 0.036840 0.000000 0.000000
# 5 0.000000 0.000000 0.000000 0.000000 0.382028 0.000000
# 6 0.000000 0.000000 0.000000 0.000000 0.000000 0.050746
#
#
# Mechanical properties :
#
#
# Convention : Reuss Voigt Hill
#
# Bulk Modulus (GPa) = 62.20331 64.07102 63.13716
# Shear Modulus (GPa) = 8.68313 17.56571 13.12442
#
# Velocity S-wave (km/s) = 2.27318 3.23317 2.79471
# Velocity P-wave (km/s) = 6.62625 7.21573 6.92727
#
# Compressibility (1/GPa) = 0.01607632
#
# Stress axis : x y z
#
# Youngs Moduli (GPa) = 50.29917 47.95831 56.38964
#
# Poissons Ratio (x) = 0.33141 0.47639
# Poissons Ratio (y) = 0.34758 0.32911
# Poissons Ratio (z) = 0.42494 0.27991
#
# Static dielectric constant tensor:
#      x y z
#    x 3.709950 0.000000 0.000000 
#    y 0.000000 2.786720 0.000000 
#    z 0.000000 0.000000 2.973800 
# 
# 
# High freq. dielectric constant tensor:
#      x y z
#    x 1.655070 0.000000 0.000000 
#    y 0.000000 1.654740 0.000000 
#    z 0.000000 0.000000 1.622990 
# 
# From -- ./inp_files/62365.got.cif
#   From: 2010.03.12/outbox.cif.g09.slc.cpg/sg74_32_cif.got.tgz:62365.got - 2010.04.16 15:46:19.
