data_PCOD8298572
_publ_section_title
;
Structure prediction by ZEFSAII (Michael W. Deem and Ramdas Pophale) SiO2 
 PCOD8298572
Probable space group: I M M A
;
_chemical_formula_sum "Si O2"
_cell_formula_units_Z 52
_cell_length_a 7.621502
_cell_length_b 12.091483
_cell_length_c 31.042746
_cell_angle_alpha 90.000000
_cell_angle_beta 90.000000
_cell_angle_gamma 90.000000
_cell_volume 2860.752387
_symmetry_space_group_name_H-M "I M M A"
_symmetry_group_IT_number 74
_symmetry_cell_setting 'orthorhombic'
loop_
_space_group_symop_operation_xyz
x,y,z
-x,1/2-y,z
x,-y,-z
-x,1/2+y,-z
-x,-y,-z
x,1/2+y,-z
-x,y,z
x,1/2-y,z
1/2+x,1/2+y,1/2+z
1/2-x,-y,1/2+z
1/2+x,1/2-y,1/2-z
1/2-x,y,1/2-z
1/2-x,1/2-y,1/2-z
1/2+x,y,1/2-z
1/2-x,1/2+y,1/2+z
1/2+x,-y,1/2+z
loop_
_atom_site_type_symbol
_atom_site_label
_atom_site_fract_x
_atom_site_fract_y
_atom_site_fract_z
Si Si1 0.803371 0.031008 0.116139
Si Si2 0.295036 0.624657 0.796949
Si Si3 0.500000 0.250000 0.994748
Si Si4 0.795691 0.250000 0.064460
Si Si5 0.000000 0.372356 0.587843
O O1 0.799406 0.049981 0.167429
O O2 0.745760 0.143602 0.092640
O O3 0.000000 0.996180 0.102781
O O4 0.674716 0.933936 0.102497
O O5 0.500000 0.621219 0.806082
O O6 0.221774 0.750000 0.799657
O O7 0.250000 0.575075 0.750000
O O8 0.677480 0.250000 0.022110
O O9 0.500000 0.140531 0.964295
O O10 0.000000 0.250000 0.050911
O O11 0.000000 0.250000 0.609401
#
# Coordination Sequence:
#
# PCOD8298572 Si02
#       5
#    16  16   4   8   8
#     4  11  21  37  62  89 121 158 193 244 306 363
#     4  10  19  31  54  91 130 156 184 229 294 370
#     4  10  24  42  60  80 120 158 210 260 292 346
#     4  10  22  36  61  95 123 147 189 248 317 379
#     4  10  25  43  58  82 112 166 214 256 286 347
#
# _framework density 18.177036000000001
#
# number of rings (size 3 to 8) (size 9 to 14) (size 15 to 20)
#    0.462    1.231    3.077    1.846    0.000    5.538 
#    0.000    3.077    0.000    0.923    0.000    0.000 
#    0.000    0.000    0.000    0.000    0.000    0.000 
#
# Total GULP energy -322427.824621 kJ/mol
# GULP energy per Si atom -12401.070178 kJ/mol
# Density = 1.813566 g / cm^3
# Si number density = 18.177036 Si / 1000 Ang^3
#
#
#
# Elastic Constant Matrix: (Units=GPa)
#
#
# Indices 1 2 3 4 5 6 
#
# 1 109.2854 62.3848 44.6856 -0.0001 0.0000 0.0000
# 2 62.3848 117.4313 53.2145 0.0001 0.0000 0.0000
# 3 44.6856 53.2145 137.4998 -0.0001 0.0000 0.0000
# 4 -0.0001 0.0001 -0.0001 -154.8706 0.0000 0.0000
# 5 0.0000 0.0000 0.0000 0.0000 32.5709 0.0000
# 6 0.0000 0.0000 0.0000 0.0000 0.0000 27.4595
#
#
#
# Elastic Compliance Matrix: (Units=1/GPa)
#
#
# Indices 1 2 3 4 5 6 
#
# 1 0.013556 -0.006312 -0.001963 0.000000 0.000000 0.000000
# 2 -0.006312 0.013266 -0.003083 0.000000 0.000000 0.000000
# 3 -0.001963 -0.003083 0.009104 0.000000 0.000000 0.000000
# 4 0.000000 0.000000 0.000000 -0.006457 0.000000 0.000000
# 5 0.000000 0.000000 0.000000 0.000000 0.030702 0.000000
# 6 0.000000 0.000000 0.000000 0.000000 0.000000 0.036417
#
#
# Mechanical properties :
#
#
# Convention : Reuss Voigt Hill
#
# Bulk Modulus (GPa) = 75.69741 76.08737 75.89239
# Shear Modulus (GPa) = 40.41810 -5.37260 17.52275
#
# Velocity S-wave (km/s) = 4.72060 -1.72108 3.10821
# Velocity P-wave (km/s) = 8.45263 6.16445 7.39755
#
# Compressibility (1/GPa) = 0.01321049
#
# Stress axis : x y z
#
# Youngs Moduli (GPa) = 73.76711 75.38105 109.84633
#
# Poissons Ratio (x) = 0.47583 0.21559
# Poissons Ratio (y) = 0.46564 0.33862
# Poissons Ratio (z) = 0.14478 0.23238
#
# Static dielectric constant tensor:
#      x y z
#    x 3.373690 0.000000 0.000000 
#    y 0.000000 3.076240 0.000000 
#    z 0.000000 0.000000 3.383690 
# 
# 
# High freq. dielectric constant tensor:
#      x y z
#    x 1.721280 0.000000 0.000000 
#    y 0.000000 1.667470 0.000000 
#    z 0.000000 0.000000 1.708910 
# 
# From -- ./inp_files/63179.got.cif
#   From: 2010.03.12/outbox.cif.g09.slc.cpg/sg74_32_cif.got.tgz:63179.got - 2010.04.16 15:46:19.
