data_PCOD8298769
_publ_section_title
;
Structure prediction by ZEFSAII (Michael W. Deem and Ramdas Pophale) SiO2 
 PCOD8298769
Probable space group: I M M A
;
_chemical_formula_sum "Si O2"
_cell_formula_units_Z 112
_cell_length_a 23.946603
_cell_length_b 15.009295
_cell_length_c 14.024472
_cell_angle_alpha 90.000000
_cell_angle_beta 90.000000
_cell_angle_gamma 90.000000
_cell_volume 5040.698568
_symmetry_space_group_name_H-M "I M M A"
_symmetry_group_IT_number 74
_symmetry_cell_setting 'orthorhombic'
loop_
_space_group_symop_operation_xyz
x,y,z
-x,1/2-y,z
x,-y,-z
-x,1/2+y,-z
-x,-y,-z
x,1/2+y,-z
-x,y,z
x,1/2-y,z
1/2+x,1/2+y,1/2+z
1/2-x,-y,1/2+z
1/2+x,1/2-y,1/2-z
1/2-x,y,1/2-z
1/2-x,1/2-y,1/2-z
1/2+x,y,1/2-z
1/2-x,1/2+y,1/2+z
1/2+x,-y,1/2+z
loop_
_atom_site_type_symbol
_atom_site_label
_atom_site_fract_x
_atom_site_fract_y
_atom_site_fract_z
Si Si1 0.624665 0.348855 0.638479
Si Si2 0.163596 0.599878 0.332541
Si Si3 0.436786 0.477214 0.132781
Si Si4 0.639486 0.153381 0.031725
Si Si5 0.657228 0.352879 0.431234
Si Si6 0.062380 0.966473 0.845745
Si Si7 0.234594 0.452291 0.399002
O O1 0.595603 0.250000 0.632528
O O2 0.664274 0.348205 0.732328
O O3 0.664601 0.360486 0.545884
O O4 0.581427 0.430202 0.644517
O O5 0.101618 0.562761 0.354029
O O6 0.168749 0.659830 0.427021
O O7 0.212774 0.525601 0.323100
O O8 0.500000 0.504244 0.104833
O O9 0.436103 0.430742 0.237119
O O10 0.412152 0.414672 0.048188
O O11 0.616721 0.250000 0.059889
O O12 0.689290 0.126877 0.103609
O O13 0.659055 0.250000 0.397710
O O14 0.598506 0.398169 0.407502
O O15 0.704845 0.410510 0.376868
O O16 0.000000 0.962185 0.887143
O O17 0.232639 0.500000 0.500000
#
# Coordination Sequence:
#
# PCOD8298769 Si02
#       7
#    16  16  16  16  16  16  16
#     4  10  21  38  62  93 124 156 199 247 302 368
#     4   9  19  36  58  85 117 155 194 241 299 357
#     4   9  19  36  56  78 108 150 197 242 295 358
#     4  10  19  32  53  82 115 150 191 240 293 352
#     4  11  23  39  62  89 119 158 201 248 302 359
#     4  10  22  41  63  86 117 157 201 253 308 362
#     4   9  18  36  58  80 112 153 192 236 288 348
#
# _framework density 22.219142999999999
#
# number of rings (size 3 to 8) (size 9 to 14) (size 15 to 20)
#    0.000    2.286    0.000    3.429    0.000    3.714 
#    0.000   20.714    0.000   24.000    0.000    0.000 
#    0.000    0.000    0.000    0.000    0.000    0.000 
#
# Total GULP energy -693778.695548 kJ/mol
# GULP energy per Si atom -12388.905278 kJ/mol
# Density = 2.216857 g / cm^3
# Si number density = 22.219143 Si / 1000 Ang^3
#
#
#
# Elastic Constant Matrix: (Units=GPa)
#
#
# Indices 1 2 3 4 5 6 
#
# 1 124.8792 45.2008 11.3633 0.0000 0.0000 0.0000
# 2 45.2008 117.9904 15.8209 0.0000 0.0000 0.0000
# 3 11.3633 15.8209 75.3274 0.0000 0.0000 0.0000
# 4 0.0000 0.0000 0.0000 23.4778 0.0000 0.0000
# 5 0.0000 0.0000 0.0000 0.0000 20.0918 0.0000
# 6 0.0000 0.0000 0.0000 0.0000 0.0000 16.7179
#
#
#
# Elastic Compliance Matrix: (Units=1/GPa)
#
#
# Indices 1 2 3 4 5 6 
#
# 1 0.009330 -0.003484 -0.000676 0.000000 0.000000 0.000000
# 2 -0.003484 0.010022 -0.001579 0.000000 0.000000 0.000000
# 3 -0.000676 -0.001579 0.013709 0.000000 0.000000 0.000000
# 4 0.000000 0.000000 0.000000 0.042593 0.000000 0.000000
# 5 0.000000 0.000000 0.000000 0.000000 0.049772 0.000000
# 6 0.000000 0.000000 0.000000 0.000000 0.000000 0.059816
#
#
# Mechanical properties :
#
#
# Convention : Reuss Voigt Hill
#
# Bulk Modulus (GPa) = 46.33226 51.44077 48.88652
# Shear Modulus (GPa) = 24.52016 28.44497 26.48256
#
# Velocity S-wave (km/s) = 3.32559 3.58187 3.45611
# Velocity P-wave (km/s) = 5.97024 6.34888 6.16247
#
# Compressibility (1/GPa) = 0.02158323
#
# Stress axis : x y z
#
# Youngs Moduli (GPa) = 107.17920 99.78469 72.94466
#
# Poissons Ratio (x) = 0.34762 0.04930
# Poissons Ratio (y) = 0.37338 0.11520
# Poissons Ratio (z) = 0.07243 0.15759
#
# Static dielectric constant tensor:
#      x y z
#    x 3.860180 0.000000 0.000000 
#    y 0.000000 3.878570 0.000000 
#    z 0.000000 0.000000 4.273390 
# 
# 
# High freq. dielectric constant tensor:
#      x y z
#    x 1.857710 0.000000 0.000000 
#    y 0.000000 1.860600 0.000000 
#    z 0.000000 0.000000 1.881500 
# 
# From -- ./inp_files/36498.got.cif
#   From: 2010.03.12/outbox.cif.g09.slc.cpg/sg74_19_cif.got.tgz:36498.got - 2010.04.16 15:46:19.
