data_PCOD8298558
_publ_section_title
;
Structure prediction by ZEFSAII (Michael W. Deem and Ramdas Pophale) SiO2 
 PCOD8298558
Probable space group: I M M A
;
_chemical_formula_sum "Si O2"
_cell_formula_units_Z 88
_cell_length_a 8.913764
_cell_length_b 17.077173
_cell_length_c 28.470371
_cell_angle_alpha 90.000000
_cell_angle_beta 90.000000
_cell_angle_gamma 90.000000
_cell_volume 4333.813680
_symmetry_space_group_name_H-M "I M M A"
_symmetry_group_IT_number 74
_symmetry_cell_setting 'orthorhombic'
loop_
_space_group_symop_operation_xyz
x,y,z
-x,1/2-y,z
x,-y,-z
-x,1/2+y,-z
-x,-y,-z
x,1/2+y,-z
-x,y,z
x,1/2-y,z
1/2+x,1/2+y,1/2+z
1/2-x,-y,1/2+z
1/2+x,1/2-y,1/2-z
1/2-x,y,1/2-z
1/2-x,1/2-y,1/2-z
1/2+x,y,1/2-z
1/2-x,1/2+y,1/2+z
1/2+x,-y,1/2+z
loop_
_atom_site_type_symbol
_atom_site_label
_atom_site_fract_x
_atom_site_fract_y
_atom_site_fract_z
Si Si1 0.677551 0.057392 0.299623
Si Si2 0.176185 0.589782 0.347235
Si Si3 0.321888 0.161883 0.386666
Si Si4 0.827501 0.921428 0.978379
Si Si5 0.672366 0.337673 0.571508
Si Si6 0.825346 0.250000 0.700663
O O1 0.500000 0.051404 0.293491
O O2 0.750000 0.080538 0.250000
O O3 0.724645 0.123352 0.337240
O O4 0.738371 0.974580 0.317185
O O5 0.233077 0.595466 0.401017
O O6 0.225542 0.673211 0.326808
O O7 0.000000 0.572749 0.345278
O O8 0.500000 0.165222 0.391948
O O9 0.255702 0.250000 0.388323
O O10 0.253869 0.109646 0.429597
O O11 0.000000 0.942219 0.967408
O O12 0.811288 0.852179 0.016071
O O13 0.750292 0.000000 0.000000
O O14 0.500000 0.345655 0.587191
O O15 0.733335 0.250000 0.581410
O O16 0.750000 0.250000 0.750000
O O17 0.000000 0.250000 0.708992
#
# Coordination Sequence:
#
# PCOD8298558 Si02
#       6
#    16  16  16  16  16   8
#     4  11  23  39  60  86 113 146 191 241 298 352
#     4  11  22  38  56  79 113 153 195 235 286 346
#     4   9  18  34  57  85 118 154 193 240 290 342
#     4   9  16  28  50  83 119 151 188 234 282 334
#     4  10  19  31  52  83 115 149 189 234 282 332
#     4  10  22  36  52  74 102 142 188 232 277 332
#
# _framework density 20.305443
#
# number of rings (size 3 to 8) (size 9 to 14) (size 15 to 20)
#    0.000    2.000    0.909    3.273    0.000    8.364 
#    0.000    0.000    0.000    7.636    0.000    0.000 
#    0.000    0.000    0.000    0.000    0.000    0.000 
#
# Total GULP energy -545526.525101 kJ/mol
# GULP energy per Si atom -12398.330116 kJ/mol
# Density = 2.025923 g / cm^3
# Si number density = 20.305443 Si / 1000 Ang^3
#
#
#
# Elastic Constant Matrix: (Units=GPa)
#
#
# Indices 1 2 3 4 5 6 
#
# 1 44.5686 29.7539 39.0266 0.0000 0.0000 0.0000
# 2 29.7539 141.3563 72.2474 0.0000 0.0000 0.0000
# 3 39.0266 72.2474 164.1671 0.0000 0.0000 0.0000
# 4 0.0000 0.0000 0.0000 29.3456 0.0000 0.0000
# 5 0.0000 0.0000 0.0000 0.0000 25.8583 0.0000
# 6 0.0000 0.0000 0.0000 0.0000 0.0000 14.5586
#
#
#
# Elastic Compliance Matrix: (Units=1/GPa)
#
#
# Indices 1 2 3 4 5 6 
#
# 1 0.029545 -0.003392 -0.005531 0.000000 0.000000 0.000000
# 2 -0.003392 0.009517 -0.003382 0.000000 0.000000 0.000000
# 3 -0.005531 -0.003382 0.008894 0.000000 0.000000 0.000000
# 4 0.000000 0.000000 0.000000 0.034077 0.000000 0.000000
# 5 0.000000 0.000000 0.000000 0.000000 0.038672 0.000000
# 6 0.000000 0.000000 0.000000 0.000000 0.000000 0.068688
#
#
# Mechanical properties :
#
#
# Convention : Reuss Voigt Hill
#
# Bulk Modulus (GPa) = 42.83240 70.23864 56.53552
# Shear Modulus (GPa) = 22.54443 27.89012 25.21728
#
# Velocity S-wave (km/s) = 3.33568 3.71014 3.52788
# Velocity P-wave (km/s) = 5.99796 7.28146 6.67065
#
# Compressibility (1/GPa) = 0.02334681
#
# Stress axis : x y z
#
# Youngs Moduli (GPa) = 33.84682 105.07781 112.42998
#
# Poissons Ratio (x) = 0.35643 0.62182
# Poissons Ratio (y) = 0.11481 0.38022
# Poissons Ratio (z) = 0.18720 0.35535
#
# Static dielectric constant tensor:
#      x y z
#    x -3.004860 0.000000 0.000000 
#    y 0.000000 3.833880 0.000000 
#    z 0.000000 0.000000 3.848390 
# 
# 
# High freq. dielectric constant tensor:
#      x y z
#    x 1.744390 0.000000 0.000000 
#    y 0.000000 1.801410 0.000000 
#    z 0.000000 0.000000 1.809140 
# 
# From -- ./inp_files/70205.got.cif
#   From: 2010.03.12/outbox.cif.g09.slc.cpg/sg74_36_cif.got.tgz:70205.got - 2010.04.16 15:46:19.
