data_PCOD8298889
_publ_section_title
;
Structure prediction by ZEFSAII (Michael W. Deem and Ramdas Pophale) SiO2 
 PCOD8298889
Probable space group: I M M A
;
_chemical_formula_sum "Si O2"
_cell_formula_units_Z 104
_cell_length_a 8.590399
_cell_length_b 20.697721
_cell_length_c 29.619202
_cell_angle_alpha 90.000000
_cell_angle_beta 90.000000
_cell_angle_gamma 90.000000
_cell_volume 5266.343929
_symmetry_space_group_name_H-M "I M M A"
_symmetry_group_IT_number 74
_symmetry_cell_setting 'orthorhombic'
loop_
_space_group_symop_operation_xyz
x,y,z
-x,1/2-y,z
x,-y,-z
-x,1/2+y,-z
-x,-y,-z
x,1/2+y,-z
-x,y,z
x,1/2-y,z
1/2+x,1/2+y,1/2+z
1/2-x,-y,1/2+z
1/2+x,1/2-y,1/2-z
1/2-x,y,1/2-z
1/2-x,1/2-y,1/2-z
1/2+x,y,1/2-z
1/2-x,1/2+y,1/2+z
1/2+x,-y,1/2+z
loop_
_atom_site_type_symbol
_atom_site_label
_atom_site_fract_x
_atom_site_fract_y
_atom_site_fract_z
Si Si1 0.315893 0.025914 0.203130
Si Si2 0.317659 0.368928 0.357758
Si Si3 0.317397 0.877637 0.203994
Si Si4 0.315807 0.572593 0.943585
Si Si5 0.814263 0.178684 0.612124
Si Si6 0.683898 0.750000 0.801207
Si Si7 0.315162 0.928156 0.045484
O O1 0.500000 0.036834 0.200190
O O2 0.250000 0.054050 0.250000
O O3 0.230353 0.062807 0.163204
O O4 0.266460 0.951747 0.197811
O O5 0.500000 0.355809 0.354957
O O6 0.266424 0.375892 0.410166
O O7 0.233684 0.312279 0.330098
O O8 0.500000 0.871980 0.206779
O O9 0.250000 0.848069 0.250000
O O10 0.250874 0.837078 0.162097
O O11 0.500000 0.579519 0.936657
O O12 0.260382 0.498204 0.936089
O O13 0.262885 0.588756 0.994635
O O14 0.757537 0.250000 0.598193
O O15 0.742968 0.127152 0.577277
O O16 0.000000 0.174025 0.611840
O O17 0.500000 0.750000 0.796188
O O18 0.750000 0.750000 0.750000
O O19 0.500000 0.928547 0.046809
#
# Coordination Sequence:
#
# PCOD8298889 Si02
#       7
#    16  16  16  16  16   8  16
#     4  10  19  33  53  77 105 137 178 223 271 323
#     4  12  24  38  56  83 115 147 183 226 278 335
#     4   9  18  31  49  74 104 138 176 222 269 314
#     4   9  17  33  57  82 108 140 183 233 285 334
#     4   9  16  27  45  72 104 137 176 222 271 319
#     4  12  26  46  66  84 112 152 194 234 281 342
#     4   8  15  30  53  79 108 142 183 236 287 335
#
# _framework density 19.748047
#
# number of rings (size 3 to 8) (size 9 to 14) (size 15 to 20)
#    0.000    2.308    0.000    4.846    0.000    3.385 
#    1.385    1.538    0.000    0.923    0.000    0.000 
#    0.000    0.000    0.000    0.000    0.000    0.000 
#
# Total GULP energy -644603.363937 kJ/mol
# GULP energy per Si atom -12396.218537 kJ/mol
# Density = 1.970310 g / cm^3
# Si number density = 19.748047 Si / 1000 Ang^3
#
#
#
# Elastic Constant Matrix: (Units=GPa)
#
#
# Indices 1 2 3 4 5 6 
#
# 1 62.6012 25.8822 28.3958 0.0000 0.0000 0.0000
# 2 25.8822 108.1784 80.0226 0.0000 0.0000 0.0000
# 3 28.3958 80.0226 151.0812 0.0000 0.0000 0.0000
# 4 0.0000 0.0000 0.0000 32.5865 0.0000 0.0000
# 5 0.0000 0.0000 0.0000 0.0000 29.4426 0.0000
# 6 0.0000 0.0000 0.0000 0.0000 0.0000 14.2260
#
#
#
# Elastic Compliance Matrix: (Units=1/GPa)
#
#
# Indices 1 2 3 4 5 6 
#
# 1 0.018025 -0.002970 -0.001815 0.000000 0.000000 0.000000
# 2 -0.002970 0.015689 -0.007751 0.000000 0.000000 0.000000
# 3 -0.001815 -0.007751 0.011066 0.000000 0.000000 0.000000
# 4 0.000000 0.000000 0.000000 0.030688 0.000000 0.000000
# 5 0.000000 0.000000 0.000000 0.000000 0.033964 0.000000
# 6 0.000000 0.000000 0.000000 0.000000 0.000000 0.070294
#
#
# Mechanical properties :
#
#
# Convention : Reuss Voigt Hill
#
# Bulk Modulus (GPa) = 50.74373 65.60687 58.17530
# Shear Modulus (GPa) = 23.65554 27.75504 25.70529
#
# Velocity S-wave (km/s) = 3.46478 3.75301 3.61177
# Velocity P-wave (km/s) = 6.46201 7.21624 6.84952
#
# Compressibility (1/GPa) = 0.01970687
#
# Stress axis : x y z
#
# Youngs Moduli (GPa) = 55.47760 63.74046 90.36942
#
# Poissons Ratio (x) = 0.18933 0.16398
# Poissons Ratio (y) = 0.16479 0.70049
# Poissons Ratio (z) = 0.10067 0.49408
#
# Static dielectric constant tensor:
#      x y z
#    x 3.261980 0.000000 0.000000 
#    y 0.000000 3.706630 0.000000 
#    z 0.000000 0.000000 3.819330 
# 
# 
# High freq. dielectric constant tensor:
#      x y z
#    x 1.733020 0.000000 0.000000 
#    y 0.000000 1.763360 0.000000 
#    z 0.000000 0.000000 1.784760 
# 
# From -- ./inp_files/64488.got.cif
#   From: 2010.03.12/outbox.cif.g09.slc.cpg/sg74_33_cif.got.tgz:64488.got - 2010.04.16 15:46:19.
