data_PCOD8298694
_publ_section_title
;
Structure prediction by ZEFSAII (Michael W. Deem and Ramdas Pophale) SiO2 
 PCOD8298694
Probable space group: I M M A
;
_chemical_formula_sum "Si O2"
_cell_formula_units_Z 96
_cell_length_a 14.357893
_cell_length_b 28.308286
_cell_length_c 10.611978
_cell_angle_alpha 90.000000
_cell_angle_beta 90.000000
_cell_angle_gamma 90.000000
_cell_volume 4313.210245
_symmetry_space_group_name_H-M "I M M A"
_symmetry_group_IT_number 74
_symmetry_cell_setting 'orthorhombic'
loop_
_space_group_symop_operation_xyz
x,y,z
-x,1/2-y,z
x,-y,-z
-x,1/2+y,-z
-x,-y,-z
x,1/2+y,-z
-x,y,z
x,1/2-y,z
1/2+x,1/2+y,1/2+z
1/2-x,-y,1/2+z
1/2+x,1/2-y,1/2-z
1/2-x,y,1/2-z
1/2-x,1/2-y,1/2-z
1/2+x,y,1/2-z
1/2-x,1/2+y,1/2+z
1/2+x,-y,1/2+z
loop_
_atom_site_type_symbol
_atom_site_label
_atom_site_fract_x
_atom_site_fract_y
_atom_site_fract_z
Si Si1 0.729559 0.196833 0.422600
Si Si2 0.892006 0.629035 0.533162
Si Si3 0.611476 0.052403 0.526553
Si Si4 0.349965 0.698344 0.310714
Si Si5 0.107151 0.877489 0.809552
Si Si6 0.601341 0.599785 0.226968
O O1 0.745910 0.250000 0.375461
O O2 0.829896 0.176039 0.461510
O O3 0.658809 0.194899 0.539413
O O4 0.674547 0.168200 0.313521
O O5 0.883661 0.601512 0.667182
O O6 0.854942 0.596651 0.414876
O O7 0.000000 0.643305 0.508013
O O8 0.500000 0.053419 0.531672
O O9 0.645704 0.084931 0.410879
O O10 0.654817 0.071981 0.659884
O O11 0.649371 0.000000 0.500000
O O12 0.392493 0.750000 0.274389
O O13 0.250000 0.692170 0.250000
O O14 0.411910 0.655169 0.261920
O O15 0.000000 0.863525 0.837350
O O16 0.500000 0.576268 0.219446
#
# Coordination Sequence:
#
# PCOD8298694 Si02
#       6
#    16  16  16  16  16  16
#     4  11  22  36  58  84 115 158 200 238 284 338
#     4  10  22  37  55  81 118 157 193 235 286 342
#     4   9  18  35  60  86 111 145 190 236 286 346
#     4  10  19  32  51  79 111 145 187 232 281 331
#     4  10  21  38  58  84 116 151 191 241 294 342
#     4  10  19  34  56  83 111 148 191 232 282 339
#
# _framework density 22.257204999999999
#
# number of rings (size 3 to 8) (size 9 to 14) (size 15 to 20)
#    0.000    2.000    3.333    0.500    0.000    2.333 
#    0.000    5.833    0.000   11.000    0.000    0.000 
#    0.000    0.000    0.000    0.000    0.000    0.000 
#
# Total GULP energy -594676.058575 kJ/mol
# GULP energy per Si atom -12389.084554 kJ/mol
# Density = 2.220655 g / cm^3
# Si number density = 22.257205 Si / 1000 Ang^3
#
#
#
# Elastic Constant Matrix: (Units=GPa)
#
#
# Indices 1 2 3 4 5 6 
#
# 1 53.7185 20.3228 23.2309 -0.0002 0.0001 0.0001
# 2 20.3228 120.1149 71.8390 0.0011 -0.0001 0.0001
# 3 23.2309 71.8390 207.6688 0.0039 -0.0026 0.0001
# 4 -0.0002 0.0011 0.0039 14.3218 -0.0006 0.0002
# 5 0.0001 -0.0001 -0.0026 -0.0006 23.9941 -0.0001
# 6 0.0001 0.0001 0.0001 0.0002 -0.0001 16.8657
#
#
#
# Elastic Compliance Matrix: (Units=1/GPa)
#
#
# Indices 1 2 3 4 5 6 
#
# 1 0.020188 -0.002604 -0.001358 0.000001 0.000000 0.000000
# 2 -0.002604 0.010833 -0.003456 0.000000 0.000000 0.000000
# 3 -0.001358 -0.003456 0.006163 -0.000001 0.000001 0.000000
# 4 0.000001 0.000000 -0.000001 0.069824 0.000002 -0.000001
# 5 0.000000 0.000000 0.000001 0.000002 0.041677 0.000000
# 6 0.000000 0.000000 0.000000 -0.000001 0.000000 0.059292
#
#
# Mechanical properties :
#
#
# Convention : Reuss Voigt Hill
#
# Bulk Modulus (GPa) = 44.74563 68.03194 56.38878
# Shear Modulus (GPa) = 21.71453 28.77694 25.24573
#
# Velocity S-wave (km/s) = 3.12688 3.59963 3.37155
# Velocity P-wave (km/s) = 5.76056 6.92164 6.36762
#
# Compressibility (1/GPa) = 0.02234855
#
# Stress axis : x y z
#
# Youngs Moduli (GPa) = 49.53510 92.31049 162.26290
#
# Poissons Ratio (x) = 0.24035 0.22029
# Poissons Ratio (y) = 0.12897 0.56081
# Poissons Ratio (z) = 0.06725 0.31904
#
# Static dielectric constant tensor:
#      x y z
#    x 3.724580 0.000000 0.000000 
#    y 0.000000 3.782930 0.000000 
#    z 0.000000 0.000000 4.583280 
# 
# 
# High freq. dielectric constant tensor:
#      x y z
#    x 1.856620 0.000000 0.000000 
#    y 0.000000 1.829240 0.000000 
#    z 0.000000 0.000000 1.908940 
# 
# From -- ./inp_files/22648.got.cif
#   From: 2010.03.12/outbox.cif.g09.slc.cpg/sg74_12_cif.got.tgz:22648.got - 2010.04.16 15:46:19.
