data_PCOD8298178
_publ_section_title
;
Structure prediction by ZEFSAII (Michael W. Deem and Ramdas Pophale) SiO2 
 PCOD8298178
Probable space group: I M M A
;
_chemical_formula_sum "Si O2"
_cell_formula_units_Z 112
_cell_length_a 27.795057
_cell_length_b 8.885634
_cell_length_c 25.699064
_cell_angle_alpha 90.000000
_cell_angle_beta 90.000000
_cell_angle_gamma 90.000000
_cell_volume 6347.070110
_symmetry_space_group_name_H-M "I M M A"
_symmetry_group_IT_number 74
_symmetry_cell_setting 'orthorhombic'
loop_
_space_group_symop_operation_xyz
x,y,z
-x,1/2-y,z
x,-y,-z
-x,1/2+y,-z
-x,-y,-z
x,1/2+y,-z
-x,y,z
x,1/2-y,z
1/2+x,1/2+y,1/2+z
1/2-x,-y,1/2+z
1/2+x,1/2-y,1/2-z
1/2-x,y,1/2-z
1/2-x,1/2-y,1/2-z
1/2+x,y,1/2-z
1/2-x,1/2+y,1/2+z
1/2+x,-y,1/2+z
loop_
_atom_site_type_symbol
_atom_site_label
_atom_site_fract_x
_atom_site_fract_y
_atom_site_fract_z
Si Si1 0.554207 0.071314 0.856967
Si Si2 0.667014 0.571835 0.447636
Si Si3 0.369180 0.428777 0.660811
Si Si4 0.553752 0.070815 0.740769
Si Si5 0.232845 0.929150 0.196175
Si Si6 0.270332 0.928243 0.089139
Si Si7 0.873657 0.570219 0.446040
O O1 0.500000 0.013379 0.869404
O O2 0.554573 0.250000 0.858330
O O3 0.569888 0.017360 0.798798
O O4 0.591518 0.009599 0.900039
O O5 0.645805 0.500000 0.500000
O O6 0.667367 0.750000 0.452608
O O7 0.631864 0.521809 0.400027
O O8 0.721912 0.512098 0.439156
O O9 0.370990 0.250000 0.663628
O O10 0.412787 0.497901 0.694890
O O11 0.320455 0.490426 0.686248
O O12 0.500000 0.012879 0.729436
O O13 0.555590 0.250000 0.739110
O O14 0.231804 0.750000 0.199729
O O15 0.250000 0.002471 0.250000
O O16 0.268337 0.979028 0.149587
O O17 0.270974 0.750000 0.085803
O O18 0.319432 0.991925 0.064195
O O19 0.892224 0.500000 0.500000
O O20 0.875001 0.750000 0.449324
#
# Coordination Sequence:
#
# PCOD8298178 Si02
#       7
#    16  16  16  16  16  16  16
#     4   8  15  26  39  57  80 105 132 164 204 246
#     4   9  16  27  41  58  83 110 137 166 194 231
#     4   8  14  22  34  55  80 103 129 163 200 237
#     4   8  13  22  37  57  81 106 129 158 203 252
#     4   8  13  19  30  51  79 105 125 154 202 247
#     4   8  15  25  36  55  81 107 134 164 197 235
#     4  10  19  29  42  59  81 108 138 169 201 235
#
# _framework density 17.645935999999999
#
# number of rings (size 3 to 8) (size 9 to 14) (size 15 to 20)
#    0.000    3.571    0.000    3.000    2.000    0.286 
#    0.000    0.000    0.000    0.429    0.000    1.000 
#    0.000    4.571    0.000    0.000    0.000    0.000 
#
# Total GULP energy -693740.942118 kJ/mol
# GULP energy per Si atom -12388.231109 kJ/mol
# Density = 1.760577 g / cm^3
# Si number density = 17.645936 Si / 1000 Ang^3
#
#
#
# Elastic Constant Matrix: (Units=GPa)
#
#
# Indices 1 2 3 4 5 6 
#
# 1 100.3245 8.7825 80.4471 0.0000 0.0000 0.0000
# 2 8.7825 5.4508 14.6818 0.0000 0.0000 0.0000
# 3 80.4471 14.6818 180.7195 0.0000 0.0000 0.0000
# 4 0.0000 0.0000 0.0000 18.7698 0.0000 0.0000
# 5 0.0000 0.0000 0.0000 0.0000 31.0975 0.0000
# 6 0.0000 0.0000 0.0000 0.0000 0.0000 5.3510
#
#
#
# Elastic Compliance Matrix: (Units=1/GPa)
#
#
# Indices 1 2 3 4 5 6 
#
# 1 0.015791 -0.008333 -0.006352 0.000000 0.000000 0.000000
# 2 -0.008333 0.239248 -0.015727 0.000000 0.000000 0.000000
# 3 -0.006352 -0.015727 0.009639 0.000000 0.000000 0.000000
# 4 0.000000 0.000000 0.000000 0.053277 0.000000 0.000000
# 5 0.000000 0.000000 0.000000 0.000000 0.032157 0.000000
# 6 0.000000 0.000000 0.000000 0.000000 0.000000 0.186882
#
#
# Mechanical properties :
#
#
# Convention : Reuss Voigt Hill
#
# Bulk Modulus (GPa) = 4.90551 54.92418 29.91484
# Shear Modulus (GPa) = 7.51011 23.21587 15.36299
#
# Velocity S-wave (km/s) = 2.06525 3.63112 2.95384
# Velocity P-wave (km/s) = 2.91084 6.98379 5.35006
#
# Compressibility (1/GPa) = 0.20385250
#
# Stress axis : x y z
#
# Youngs Moduli (GPa) = 63.32782 4.17977 103.74677
#
# Poissons Ratio (x) = 0.03483 0.65903
# Poissons Ratio (y) = 0.52770 1.63165
# Poissons Ratio (z) = 0.40228 0.06574
#
# Static dielectric constant tensor:
#      x y z
#    x 3.513900 0.000000 0.000000 
#    y 0.000000 2.495850 0.000000 
#    z 0.000000 0.000000 3.673130 
# 
# 
# High freq. dielectric constant tensor:
#      x y z
#    x 1.670130 0.000000 0.000000 
#    y 0.000000 1.601400 0.000000 
#    z 0.000000 0.000000 1.698320 
# 
# From -- ./inp_files/55409.got.cif
#   From: 2010.03.12/outbox.cif.g09.slc.cpg/sg74_28_cif.got.tgz:55409.got - 2010.04.16 15:46:19.
