data_PCOD8298711
_publ_section_title
;
Structure prediction by ZEFSAII (Michael W. Deem and Ramdas Pophale) SiO2 
 PCOD8298711
Probable space group: I M M A
;
_chemical_formula_sum "Si O2"
_cell_formula_units_Z 80
_cell_length_a 9.076847
_cell_length_b 18.591065
_cell_length_c 25.681859
_cell_angle_alpha 90.000000
_cell_angle_beta 90.000000
_cell_angle_gamma 90.000000
_cell_volume 4333.768829
_symmetry_space_group_name_H-M "I M M A"
_symmetry_group_IT_number 74
_symmetry_cell_setting 'orthorhombic'
loop_
_space_group_symop_operation_xyz
x,y,z
-x,1/2-y,z
x,-y,-z
-x,1/2+y,-z
-x,-y,-z
x,1/2+y,-z
-x,y,z
x,1/2-y,z
1/2+x,1/2+y,1/2+z
1/2-x,-y,1/2+z
1/2+x,1/2-y,1/2-z
1/2-x,y,1/2-z
1/2-x,1/2-y,1/2-z
1/2+x,y,1/2-z
1/2-x,1/2+y,1/2+z
1/2+x,-y,1/2+z
loop_
_atom_site_type_symbol
_atom_site_label
_atom_site_fract_x
_atom_site_fract_y
_atom_site_fract_z
Si Si1 0.175471 0.417069 0.087845
Si Si2 0.338788 0.594253 0.701796
Si Si3 0.665071 0.576232 0.299693
Si Si4 0.827750 0.065831 0.595747
Si Si5 0.667983 0.166913 0.000571
O O1 0.227731 0.387752 0.144729
O O2 0.253477 0.492582 0.075508
O O3 0.222278 0.358948 0.045507
O O4 0.000000 0.429386 0.087567
O O5 0.500000 0.628388 0.706192
O O6 0.250000 0.628505 0.750000
O O7 0.345018 0.508837 0.707030
O O8 0.500000 0.608755 0.302883
O O9 0.750000 0.609821 0.250000
O O10 0.754492 0.595715 0.351659
O O11 0.798462 0.125549 0.552483
O O12 0.000000 0.051774 0.605665
O O13 0.500000 0.153325 0.018640
O O14 0.699241 0.250000 0.989642
#
# Coordination Sequence:
#
# PCOD8298711 Si02
#       5
#    16  16  16  16  16
#     4  10  20  33  51  77 105 131 165 209 252 299
#     4   8  15  26  42  68  99 127 155 192 238 286
#     4   9  16  27  45  72 104 133 163 202 248 297
#     4  10  19  32  52  76 102 133 168 208 253 300
#     4  10  22  38  53  71  98 133 172 212 256 306
#
# _framework density 18.459682999999998
#
# number of rings (size 3 to 8) (size 9 to 14) (size 15 to 20)
#    0.000    2.600    0.000    3.600    0.000   10.000 
#    0.000    0.000    0.000    1.200    0.000    0.000 
#    0.000    0.000    0.000    0.000    0.000    0.000 
#
# Total GULP energy -495906.906928 kJ/mol
# GULP energy per Si atom -12397.672673 kJ/mol
# Density = 1.841767 g / cm^3
# Si number density = 18.459683 Si / 1000 Ang^3
#
#
#
# Elastic Constant Matrix: (Units=GPa)
#
#
# Indices 1 2 3 4 5 6 
#
# 1 103.4308 21.5924 63.2209 0.0000 0.0000 0.0000
# 2 21.5924 41.5891 38.0563 0.0000 0.0000 0.0000
# 3 63.2209 38.0563 137.8738 0.0000 0.0000 0.0000
# 4 0.0000 0.0000 0.0000 0.1694 0.0000 0.0000
# 5 0.0000 0.0000 0.0000 0.0000 36.3631 0.0000
# 6 0.0000 0.0000 0.0000 0.0000 0.0000 9.5466
#
#
#
# Elastic Compliance Matrix: (Units=1/GPa)
#
#
# Indices 1 2 3 4 5 6 
#
# 1 0.013534 -0.001803 -0.005708 0.000000 0.000000 0.000000
# 2 -0.001803 0.032411 -0.008119 0.000005 0.000000 0.000000
# 3 -0.005708 -0.008119 0.012111 -0.000001 0.000000 0.000000
# 4 0.000000 0.000005 -0.000001 5.901463 0.000000 -0.000001
# 5 0.000000 0.000000 0.000000 0.000000 0.027500 0.000000
# 6 0.000000 0.000000 0.000000 -0.000001 0.000000 0.104750
#
#
# Mechanical properties :
#
#
# Convention : Reuss Voigt Hill
#
# Bulk Modulus (GPa) = 37.32086 58.73701 48.02894
# Shear Modulus (GPa) = 0.81540 19.88410 10.34975
#
# Velocity S-wave (km/s) = 0.66534 3.28558 2.37041
# Velocity P-wave (km/s) = 4.56636 6.80305 5.79367
#
# Compressibility (1/GPa) = 0.02679467
#
# Stress axis : x y z
#
# Youngs Moduli (GPa) = 73.88948 30.85419 82.56654
#
# Poissons Ratio (x) = 0.05564 0.47129
# Poissons Ratio (y) = 0.13325 0.67037
# Poissons Ratio (z) = 0.42176 0.25051
#
# Static dielectric constant tensor:
#      x y z
#    x 3.620710 0.000000 0.000000 
#    y 0.000000 2.870980 0.000000 
#    z 0.000000 0.000000 3.643320 
# 
# 
# High freq. dielectric constant tensor:
#      x y z
#    x 1.725980 0.000000 0.000000 
#    y 0.000000 1.657670 0.000000 
#    z 0.000000 0.000000 1.734250 
# 
# From -- ./inp_files/63889.got.cif
#   From: 2010.03.12/outbox.cif.g09.slc.cpg/sg74_32_cif.got.tgz:63889.got - 2010.04.16 15:46:19.
