data_PCOD8298128
_publ_section_title
;
Structure prediction by ZEFSAII (Michael W. Deem and Ramdas Pophale) SiO2 
 PCOD8298128
Probable space group: I M M A
;
_chemical_formula_sum "Si O2"
_cell_formula_units_Z 128
_cell_length_a 24.562910
_cell_length_b 18.196937
_cell_length_c 18.320699
_cell_angle_alpha 90.000000
_cell_angle_beta 90.000000
_cell_angle_gamma 90.000000
_cell_volume 8188.797809
_symmetry_space_group_name_H-M "I M M A"
_symmetry_group_IT_number 74
_symmetry_cell_setting 'orthorhombic'
loop_
_space_group_symop_operation_xyz
x,y,z
-x,1/2-y,z
x,-y,-z
-x,1/2+y,-z
-x,-y,-z
x,1/2+y,-z
-x,y,z
x,1/2-y,z
1/2+x,1/2+y,1/2+z
1/2-x,-y,1/2+z
1/2+x,1/2-y,1/2-z
1/2-x,y,1/2-z
1/2-x,1/2-y,1/2-z
1/2+x,y,1/2-z
1/2-x,1/2+y,1/2+z
1/2+x,-y,1/2+z
loop_
_atom_site_type_symbol
_atom_site_label
_atom_site_fract_x
_atom_site_fract_y
_atom_site_fract_z
Si Si1 0.837622 0.395873 0.226044
Si Si2 0.254700 0.333605 0.977898
Si Si3 0.668125 0.063756 0.715311
Si Si4 0.937273 0.418248 0.009909
Si Si5 0.717196 0.438473 0.860508
Si Si6 0.938847 0.166401 0.156213
Si Si7 0.231273 0.894473 0.634232
Si Si8 0.139187 0.664597 0.091886
O O1 0.853185 0.480456 0.210954
O O2 0.892214 0.347898 0.216243
O O3 0.815932 0.376327 0.307067
O O4 0.790020 0.377299 0.168888
O O5 0.267074 0.250000 0.957179
O O6 0.293040 0.385198 0.928745
O O7 0.192501 0.354055 0.957020
O O8 0.270283 0.344970 0.062188
O O9 0.669380 0.080066 0.802293
O O10 0.727387 0.075309 0.682062
O O11 0.632058 0.120071 0.668231
O O12 0.911385 0.358990 0.956502
O O13 0.000000 0.421134 0.988562
O O14 0.911402 0.500000 0.000000
O O15 0.927719 0.390844 0.091735
O O16 0.720373 0.521742 0.889242
O O17 0.933448 0.250000 0.127519
O O18 0.000000 0.154112 0.188457
O O19 0.136407 0.750000 0.111690
#
# Coordination Sequence:
#
# PCOD8298128 Si02
#       8
#    16  16  16  16  16  16  16  16
#     4   9  17  30  46  62  83 112 145 179 210 246
#     4  10  19  27  38  61  89 114 140 169 207 255
#     4   8  15  28  44  61  80 107 143 174 204 245
#     4  10  20  32  45  60  79 108 147 185 214 241
#     4   8  15  28  43  58  81 112 141 170 204 246
#     4  10  20  32  45  61  84 115 145 173 210 253
#     4   9  17  28  44  64  84 111 144 176 213 250
#     4  10  19  28  41  62  86 112 139 171 213 255
#
# _framework density 15.631109
#
# number of rings (size 3 to 8) (size 9 to 14) (size 15 to 20)
#    0.000    2.750    0.000    3.750    0.000    5.250 
#    0.000    3.750    0.000    0.000    0.000    0.000 
#    0.000    9.000    0.000    2.000    0.000    0.000 
#
# Total GULP energy -793043.131295 kJ/mol
# GULP energy per Si atom -12391.298926 kJ/mol
# Density = 1.559553 g / cm^3
# Si number density = 15.631109 Si / 1000 Ang^3
#
#
#
# Elastic Constant Matrix: (Units=GPa)
#
#
# Indices 1 2 3 4 5 6 
#
# 1 59.5686 30.5949 30.9449 0.0000 0.0000 0.0000
# 2 30.5949 65.1030 34.8857 0.0000 0.0000 0.0000
# 3 30.9449 34.8857 72.2008 0.0000 0.0000 0.0000
# 4 0.0000 0.0000 0.0000 19.7457 0.0000 0.0000
# 5 0.0000 0.0000 0.0000 0.0000 19.8298 0.0000
# 6 0.0000 0.0000 0.0000 0.0000 0.0000 13.0309
#
#
#
# Elastic Compliance Matrix: (Units=1/GPa)
#
#
# Indices 1 2 3 4 5 6 
#
# 1 0.024252 -0.007863 -0.006595 0.000000 0.000000 0.000000
# 2 -0.007863 0.023276 -0.007876 0.000000 0.000000 0.000000
# 3 -0.006595 -0.007876 0.020483 0.000000 0.000000 0.000000
# 4 0.000000 0.000000 0.000000 0.050644 0.000000 0.000000
# 5 0.000000 0.000000 0.000000 0.000000 0.050429 0.000000
# 6 0.000000 0.000000 0.000000 0.000000 0.000000 0.076741
#
#
# Mechanical properties :
#
#
# Convention : Reuss Voigt Hill
#
# Bulk Modulus (GPa) = 42.84200 43.30260 43.07230
# Shear Modulus (GPa) = 16.76313 17.21774 16.99044
#
# Velocity S-wave (km/s) = 3.27834 3.32249 3.30049
# Velocity P-wave (km/s) = 6.46511 6.51779 6.49150
#
# Compressibility (1/GPa) = 0.02334158
#
# Stress axis : x y z
#
# Youngs Moduli (GPa) = 41.23382 42.96240 48.82215
#
# Poissons Ratio (x) = 0.33782 0.32198
# Poissons Ratio (y) = 0.32423 0.38454
# Poissons Ratio (z) = 0.27193 0.33839
#
# Static dielectric constant tensor:
#      x y z
#    x 2.794270 0.000000 0.000000 
#    y 0.000000 3.063780 0.000000 
#    z 0.000000 0.000000 4.537860 
# 
# 
# High freq. dielectric constant tensor:
#      x y z
#    x 1.556810 0.000000 0.000000 
#    y 0.000000 1.609060 0.000000 
#    z 0.000000 0.000000 1.590460 
# 
# From -- ./inp_files/44627.got.cif
#   From: 2010.03.12/outbox.cif.g09.slc.cpg/sg74_23_cif.got.tgz:44627.got - 2010.04.16 15:46:19.
