data_PCOD8298698
_publ_section_title
;
Structure prediction by ZEFSAII (Michael W. Deem and Ramdas Pophale) SiO2 
 PCOD8298698
Probable space group: I M M A
;
_chemical_formula_sum "Si O2"
_cell_formula_units_Z 88
_cell_length_a 18.298929
_cell_length_b 9.274888
_cell_length_c 30.083461
_cell_angle_alpha 90.000000
_cell_angle_beta 90.000000
_cell_angle_gamma 90.000000
_cell_volume 5105.780554
_symmetry_space_group_name_H-M "I M M A"
_symmetry_group_IT_number 74
_symmetry_cell_setting 'orthorhombic'
loop_
_space_group_symop_operation_xyz
x,y,z
-x,1/2-y,z
x,-y,-z
-x,1/2+y,-z
-x,-y,-z
x,1/2+y,-z
-x,y,z
x,1/2-y,z
1/2+x,1/2+y,1/2+z
1/2-x,-y,1/2+z
1/2+x,1/2-y,1/2-z
1/2-x,y,1/2-z
1/2-x,1/2-y,1/2-z
1/2+x,y,1/2-z
1/2-x,1/2+y,1/2+z
1/2+x,-y,1/2+z
loop_
_atom_site_type_symbol
_atom_site_label
_atom_site_fract_x
_atom_site_fract_y
_atom_site_fract_z
Si Si1 0.265846 0.079602 0.623144
Si Si2 0.500000 0.585157 0.044680
Si Si3 0.201687 0.416225 0.293442
Si Si4 0.083911 0.087679 0.751818
Si Si5 0.159005 0.581347 0.453624
Si Si6 0.420973 0.920130 0.351471
O O1 0.255344 0.250000 0.630285
O O2 0.220881 0.025577 0.580291
O O3 0.352279 0.038871 0.616944
O O4 0.237811 0.998867 0.666108
O O5 0.500000 0.750000 0.030625
O O6 0.422031 0.550479 0.068707
O O7 0.500000 0.500000 0.000000
O O8 0.192156 0.250000 0.306389
O O9 0.250000 0.438512 0.250000
O O10 0.123130 0.485099 0.283565
O O11 0.116436 0.250000 0.749121
O O12 0.093695 0.022505 0.801522
O O13 0.000000 0.089350 0.737775
O O14 0.169282 0.500000 0.500000
O O15 0.169342 0.750000 0.463138
O O16 0.500000 0.980910 0.369306
O O17 0.428217 0.750000 0.347536
#
# Coordination Sequence:
#
# PCOD8298698 Si02
#       6
#    16   8  16  16  16  16
#     4  10  19  32  52  74  96 126 167 206 246 292
#     4   8  14  28  48  70  96 120 152 190 230 282
#     4  11  22  33  46  69 103 137 164 198 249 297
#     4   9  17  31  51  70  90 126 172 211 244 279
#     4   9  18  32  52  75  96 124 157 198 245 290
#     4   8  14  26  47  72  93 118 161 210 244 278
#
# _framework density 17.235365999999999
#
# number of rings (size 3 to 8) (size 9 to 14) (size 15 to 20)
#    0.000    2.727    1.818    1.636    0.000    1.818 
#    1.636    0.000    0.000    1.091    0.000    0.000 
#    0.000    0.000    0.000    0.000    0.000    0.000 
#
# Total GULP energy -545100.391579 kJ/mol
# GULP energy per Si atom -12388.645263 kJ/mol
# Density = 1.719614 g / cm^3
# Si number density = 17.235366 Si / 1000 Ang^3
#
#
#
# Elastic Constant Matrix: (Units=GPa)
#
#
# Indices 1 2 3 4 5 6 
#
# 1 159.2552 35.1698 65.4502 0.0000 0.0000 0.0000
# 2 35.1698 43.3339 27.9360 0.0000 0.0000 0.0000
# 3 65.4502 27.9360 70.9660 0.0000 0.0000 0.0000
# 4 0.0000 0.0000 0.0000 19.9029 0.0000 0.0000
# 5 0.0000 0.0000 0.0000 0.0000 28.7542 0.0000
# 6 0.0000 0.0000 0.0000 0.0000 0.0000 9.4013
#
#
#
# Elastic Compliance Matrix: (Units=1/GPa)
#
#
# Indices 1 2 3 4 5 6 
#
# 1 0.010400 -0.003025 -0.008401 0.000000 0.000000 0.000000
# 2 -0.003025 0.031804 -0.009730 0.000000 0.000000 0.000000
# 3 -0.008401 -0.009730 0.025669 0.000000 0.000000 0.000000
# 4 0.000000 0.000000 0.000000 0.050244 0.000000 0.000000
# 5 0.000000 0.000000 0.000000 0.000000 0.034778 0.000000
# 6 0.000000 0.000000 0.000000 0.000000 0.000000 0.106369
#
#
# Mechanical properties :
#
#
# Convention : Reuss Voigt Hill
#
# Bulk Modulus (GPa) = 39.12056 58.96302 49.04179
# Shear Modulus (GPa) = 16.12409 21.27829 18.70119
#
# Velocity S-wave (km/s) = 3.06195 3.51746 3.29758
# Velocity P-wave (km/s) = 5.93699 7.12611 6.55855
#
# Compressibility (1/GPa) = 0.02556201
#
# Stress axis : x y z
#
# Youngs Moduli (GPa) = 96.15668 31.44239 38.95705
#
# Poissons Ratio (x) = 0.09510 0.32727
# Poissons Ratio (y) = 0.29085 0.37906
# Poissons Ratio (z) = 0.80778 0.30594
#
# Static dielectric constant tensor:
#      x y z
#    x 3.894300 0.000000 0.000000 
#    y 0.000000 3.152210 0.000000 
#    z 0.000000 0.000000 2.873360 
# 
# 
# High freq. dielectric constant tensor:
#      x y z
#    x 1.686700 0.000000 0.000000 
#    y 0.000000 1.644700 0.000000 
#    z 0.000000 0.000000 1.621910 
# 
# From -- ./inp_files/57020.got.cif
#   From: 2010.03.12/outbox.cif.g09.slc.cpg/sg74_29_cif.got.tgz:57020.got - 2010.04.16 15:46:19.
