data_PCOD8298148
_publ_section_title
;
Structure prediction by ZEFSAII (Michael W. Deem and Ramdas Pophale) SiO2 
 PCOD8298148
Probable space group: I M M A
;
_chemical_formula_sum "Si O2"
_cell_formula_units_Z 80
_cell_length_a 27.219441
_cell_length_b 9.496945
_cell_length_c 18.832735
_cell_angle_alpha 90.000000
_cell_angle_beta 90.000000
_cell_angle_gamma 90.000000
_cell_volume 4868.290889
_symmetry_space_group_name_H-M "I M M A"
_symmetry_group_IT_number 74
_symmetry_cell_setting 'orthorhombic'
loop_
_space_group_symop_operation_xyz
x,y,z
-x,1/2-y,z
x,-y,-z
-x,1/2+y,-z
-x,-y,-z
x,1/2+y,-z
-x,y,z
x,1/2-y,z
1/2+x,1/2+y,1/2+z
1/2-x,-y,1/2+z
1/2+x,1/2-y,1/2-z
1/2-x,y,1/2-z
1/2-x,1/2-y,1/2-z
1/2+x,y,1/2-z
1/2-x,1/2+y,1/2+z
1/2+x,-y,1/2+z
loop_
_atom_site_type_symbol
_atom_site_label
_atom_site_fract_x
_atom_site_fract_y
_atom_site_fract_z
Si Si1 0.855566 0.408216 0.835194
Si Si2 0.190667 0.596496 0.940164
Si Si3 0.297648 0.909761 0.202882
Si Si4 0.196281 0.092919 0.436637
Si Si5 0.444607 0.586859 0.430965
O O1 0.842525 0.250000 0.861141
O O2 0.815749 0.516717 0.866093
O O3 0.847592 0.418257 0.750555
O O4 0.910047 0.449347 0.862903
O O5 0.165110 0.750000 0.938699
O O6 0.247420 0.614690 0.957469
O O7 0.164493 0.500000 0.000000
O O8 0.290294 0.750000 0.174155
O O9 0.250000 0.952408 0.250000
O O10 0.307696 0.014924 0.138514
O O11 0.172016 0.250000 0.432014
O O12 0.171364 0.000000 0.500000
O O13 0.427769 0.500000 0.500000
O O14 0.500000 0.545247 0.408483
O O15 0.441122 0.750000 0.451374
#
# Coordination Sequence:
#
# PCOD8298148 Si02
#       5
#    16  16  16  16  16
#     4  10  19  30  45  64  87 117 151 187 229 271
#     4  10  19  28  40  59  84 114 150 188 222 260
#     4  10  19  31  46  64  90 120 150 188 229 270
#     4  10  20  32  46  62  85 118 154 188 222 264
#     4   9  18  32  48  66  90 120 155 193 230 268
#
# _framework density 16.432872
#
# number of rings (size 3 to 8) (size 9 to 14) (size 15 to 20)
#    0.000    2.200    2.000    1.800    0.000    5.200 
#    0.000    0.000    0.000    0.000    0.000    0.000 
#    0.000    0.800    0.000    1.400    0.000    2.000 
#
# Total GULP energy -495651.713054 kJ/mol
# GULP energy per Si atom -12391.292826 kJ/mol
# Density = 1.639547 g / cm^3
# Si number density = 16.432872 Si / 1000 Ang^3
#
#
#
# Elastic Constant Matrix: (Units=GPa)
#
#
# Indices 1 2 3 4 5 6 
#
# 1 48.1662 14.9929 27.2840 0.0000 0.0000 0.0000
# 2 14.9929 121.8922 65.8284 0.0000 0.0000 0.0000
# 3 27.2840 65.8284 106.0315 0.0000 0.0000 0.0000
# 4 0.0000 0.0000 0.0000 29.8399 0.0000 0.0000
# 5 0.0000 0.0000 0.0000 0.0000 22.3740 0.0000
# 6 0.0000 0.0000 0.0000 0.0000 0.0000 11.0940
#
#
#
# Elastic Compliance Matrix: (Units=1/GPa)
#
#
# Indices 1 2 3 4 5 6 
#
# 1 0.024332 0.000584 -0.006624 0.000000 0.000000 0.000000
# 2 0.000584 0.012356 -0.007822 0.000000 0.000000 0.000000
# 3 -0.006624 -0.007822 0.015992 0.000000 0.000000 0.000000
# 4 0.000000 0.000000 0.000000 0.033512 0.000000 0.000000
# 5 0.000000 0.000000 0.000000 0.000000 0.044695 0.000000
# 6 0.000000 0.000000 0.000000 0.000000 0.000000 0.090138
#
#
# Mechanical properties :
#
#
# Convention : Reuss Voigt Hill
#
# Bulk Modulus (GPa) = 40.06832 54.70006 47.38419
# Shear Modulus (GPa) = 19.45027 23.86056 21.65542
#
# Velocity S-wave (km/s) = 3.44411 3.81465 3.63410
# Velocity P-wave (km/s) = 6.34443 7.26370 6.81957
#
# Compressibility (1/GPa) = 0.02495737
#
# Stress axis : x y z
#
# Youngs Moduli (GPa) = 41.09873 80.93136 62.53315
#
# Poissons Ratio (x) = -0.04730 0.41421
# Poissons Ratio (y) = -0.02402 0.48911
# Poissons Ratio (z) = 0.27223 0.63301
#
# Static dielectric constant tensor:
#      x y z
#    x 2.848740 0.000000 0.000000 
#    y 0.000000 3.442080 0.000000 
#    z 0.000000 0.000000 3.004050 
# 
# 
# High freq. dielectric constant tensor:
#      x y z
#    x 1.578650 0.000000 0.000000 
#    y 0.000000 1.649350 0.000000 
#    z 0.000000 0.000000 1.618450 
# 
# From -- ./inp_files/39740.got.cif
#   From: 2010.03.12/outbox.cif.g09.slc.cpg/sg74_20_cif.got.tgz:39740.got - 2010.04.16 15:46:19.
