data_PCOD8298240
_publ_section_title
;
Structure prediction by ZEFSAII (Michael W. Deem and Ramdas Pophale) SiO2 
 PCOD8298240
Probable space group: I M M A
;
_chemical_formula_sum "Si O2"
_cell_formula_units_Z 104
_cell_length_a 24.296539
_cell_length_b 9.135003
_cell_length_c 27.198495
_cell_angle_alpha 90.000000
_cell_angle_beta 90.000000
_cell_angle_gamma 90.000000
_cell_volume 6036.677588
_symmetry_space_group_name_H-M "I M M A"
_symmetry_group_IT_number 74
_symmetry_cell_setting 'orthorhombic'
loop_
_space_group_symop_operation_xyz
x,y,z
-x,1/2-y,z
x,-y,-z
-x,1/2+y,-z
-x,-y,-z
x,1/2+y,-z
-x,y,z
x,1/2-y,z
1/2+x,1/2+y,1/2+z
1/2-x,-y,1/2+z
1/2+x,1/2-y,1/2-z
1/2-x,y,1/2-z
1/2-x,1/2-y,1/2-z
1/2+x,y,1/2-z
1/2-x,1/2+y,1/2+z
1/2+x,-y,1/2+z
loop_
_atom_site_type_symbol
_atom_site_label
_atom_site_fract_x
_atom_site_fract_y
_atom_site_fract_z
Si Si1 0.182789 0.582660 0.863541
Si Si2 0.500000 0.086636 0.306845
Si Si3 0.398595 0.411025 0.693535
Si Si4 0.000000 0.416946 0.949941
Si Si5 0.394498 0.088118 0.807155
Si Si6 0.000000 0.085411 0.310639
Si Si7 0.120828 0.922267 0.052332
Si Si8 0.782621 0.917066 0.701586
O O1 0.163734 0.750000 0.870752
O O2 0.154445 0.510001 0.815915
O O3 0.166910 0.489900 0.911612
O O4 0.246776 0.574541 0.848601
O O5 0.500000 0.250000 0.328663
O O6 0.500000 0.092057 0.248106
O O7 0.550777 0.998743 0.329606
O O8 0.393599 0.250000 0.668288
O O9 0.408640 0.390802 0.750551
O O10 0.059289 0.451857 0.923945
O O11 0.000000 0.250000 0.965333
O O12 0.000000 0.500000 0.000000
O O13 0.391467 0.250000 0.831762
O O14 0.444998 0.996177 0.830717
O O15 0.336231 0.009077 0.812162
O O16 0.000000 0.250000 0.332061
O O17 0.132477 0.750000 0.045919
O O18 0.127277 0.000000 0.000000
O O19 0.800279 0.750000 0.712905
O O20 0.750000 0.977623 0.750000
#
# Coordination Sequence:
#
# PCOD8298240 Si02
#       8
#    16   8  16   8  16   8  16  16
#     4  11  22  34  49  69  93 124 164 203 245 298
#     4   9  17  28  42  59  82 115 153 194 240 288
#     4  10  19  30  43  62  88 117 151 196 244 289
#     4   8  16  31  52  73  92 119 153 196 249 304
#     4  10  19  30  47  68  92 120 157 202 245 285
#     4   9  17  29  46  64  87 120 158 194 238 290
#     4  10  20  36  55  74  97 124 160 206 259 310
#     4  10  20  34  50  67  93 130 168 205 245 294
#
# _framework density 17.228019
#
# number of rings (size 3 to 8) (size 9 to 14) (size 15 to 20)
#    0.000    2.154    1.538    2.308    0.000    5.846 
#    0.000    2.308    0.000    0.000    0.000    0.000 
#    0.000    0.000    0.000    0.692    0.000    9.231 
#
# Total GULP energy -644259.366927 kJ/mol
# GULP energy per Si atom -12389.603210 kJ/mol
# Density = 1.718881 g / cm^3
# Si number density = 17.228019 Si / 1000 Ang^3
#
#
#
# Elastic Constant Matrix: (Units=GPa)
#
#
# Indices 1 2 3 4 5 6 
#
# 1 118.4178 70.6690 16.9307 0.0000 0.0000 0.0000
# 2 70.6690 140.8976 20.2829 0.0000 0.0000 0.0000
# 3 16.9307 20.2829 37.3364 0.0000 0.0000 0.0000
# 4 0.0000 0.0000 0.0000 19.5317 0.0000 0.0000
# 5 0.0000 0.0000 0.0000 0.0000 6.7721 0.0000
# 6 0.0000 0.0000 0.0000 0.0000 0.0000 29.6969
#
#
#
# Elastic Compliance Matrix: (Units=1/GPa)
#
#
# Indices 1 2 3 4 5 6 
#
# 1 0.012248 -0.005797 -0.002405 0.000000 0.000000 0.000000
# 2 -0.005797 0.010443 -0.003045 0.000000 0.000000 0.000000
# 3 -0.002405 -0.003045 0.029528 0.000000 0.000000 0.000000
# 4 0.000000 0.000000 0.000000 0.051199 0.000000 0.000000
# 5 0.000000 0.000000 0.000000 0.000000 0.147665 0.000000
# 6 0.000000 0.000000 0.000000 0.000000 0.000000 0.033674
#
#
# Mechanical properties :
#
#
# Convention : Reuss Voigt Hill
#
# Bulk Modulus (GPa) = 33.64002 56.93521 45.28762
# Shear Modulus (GPa) = 15.76502 23.78477 19.77489
#
# Velocity S-wave (km/s) = 3.02831 3.71966 3.39164
# Velocity P-wave (km/s) = 5.63882 7.18106 6.45615
#
# Compressibility (1/GPa) = 0.02972650
#
# Stress axis : x y z
#
# Youngs Moduli (GPa) = 81.64609 95.75654 33.86624
#
# Poissons Ratio (x) = 0.55510 0.08144
# Poissons Ratio (y) = 0.47330 0.10311
# Poissons Ratio (z) = 0.19635 0.29153
#
# Static dielectric constant tensor:
#      x y z
#    x 3.290980 0.000000 0.000000 
#    y 0.000000 3.475750 0.000000 
#    z 0.000000 0.000000 2.633640 
# 
# 
# High freq. dielectric constant tensor:
#      x y z
#    x 1.660990 0.000000 0.000000 
#    y 0.000000 1.687940 0.000000 
#    z 0.000000 0.000000 1.598610 
# 
# From -- ./inp_files/73724.got.cif
#   From: 2010.03.12/outbox.cif.g09.slc.cpg/sg74_37_cif.got.tgz:73724.got - 2010.04.16 15:46:19.
