data_PCOD8298030
_publ_section_title
;
Structure prediction by ZEFSAII (Michael W. Deem and Ramdas Pophale) SiO2 
 PCOD8298030
Probable space group: I M M A
;
_chemical_formula_sum "Si O2"
_cell_formula_units_Z 88
_cell_length_a 18.438951
_cell_length_b 8.635785
_cell_length_c 29.042013
_cell_angle_alpha 90.000000
_cell_angle_beta 90.000000
_cell_angle_gamma 90.000000
_cell_volume 4624.499610
_symmetry_space_group_name_H-M "I M M A"
_symmetry_group_IT_number 74
_symmetry_cell_setting 'orthorhombic'
loop_
_space_group_symop_operation_xyz
x,y,z
-x,1/2-y,z
x,-y,-z
-x,1/2+y,-z
-x,-y,-z
x,1/2+y,-z
-x,y,z
x,1/2-y,z
1/2+x,1/2+y,1/2+z
1/2-x,-y,1/2+z
1/2+x,1/2-y,1/2-z
1/2-x,y,1/2-z
1/2-x,1/2-y,1/2-z
1/2+x,y,1/2-z
1/2-x,1/2+y,1/2+z
1/2+x,-y,1/2+z
loop_
_atom_site_type_symbol
_atom_site_label
_atom_site_fract_x
_atom_site_fract_y
_atom_site_fract_z
Si Si1 0.313733 0.434275 0.281810
Si Si2 0.367913 0.567423 0.891203
Si Si3 0.705750 0.434104 0.383848
Si Si4 0.418673 0.433195 0.450598
Si Si5 0.500000 0.432698 0.948998
Si Si6 0.920799 0.566231 0.707148
O O1 0.308724 0.250000 0.285147
O O2 0.250000 0.499518 0.250000
O O3 0.308279 0.504936 0.332983
O O4 0.386125 0.489658 0.255319
O O5 0.380518 0.750000 0.897048
O O6 0.285110 0.518923 0.903975
O O7 0.426709 0.484211 0.923146
O O8 0.376621 0.514716 0.838083
O O9 0.701383 0.250000 0.381182
O O10 0.641546 0.500906 0.415788
O O11 0.399422 0.500000 0.500000
O O12 0.500000 0.484075 0.435072
O O13 0.413473 0.250000 0.453134
O O14 0.500000 0.250000 0.952312
O O15 0.500000 0.500000 0.000000
O O16 0.925000 0.750000 0.707252
O O17 0.000000 0.490727 0.704204
#
# Coordination Sequence:
#
# PCOD8298030 Si02
#       6
#    16  16  16  16   8  16
#     4   9  14  22  38  68 107 138 163 199 250 299
#     4  10  18  33  55  77 105 139 176 217 264 314
#     4   9  17  28  48  77 109 141 173 216 263 309
#     4   9  18  33  51  72 101 135 170 212 262 311
#     4  12  26  42  58  78 104 136 176 224 275 324
#     4   9  15  23  41  70 103 139 175 207 248 304
#
# _framework density 19.029087000000001
#
# number of rings (size 3 to 8) (size 9 to 14) (size 15 to 20)
#    0.000    2.545    2.727    0.818    0.000    1.455 
#    0.000    6.364    0.000    0.000    0.000    3.818 
#    0.000    0.000    0.000    0.000    0.000    0.000 
#
# Total GULP energy -545244.365663 kJ/mol
# GULP energy per Si atom -12391.917401 kJ/mol
# Density = 1.898578 g / cm^3
# Si number density = 19.029087 Si / 1000 Ang^3
#
#
#
# Elastic Constant Matrix: (Units=GPa)
#
#
# Indices 1 2 3 4 5 6 
#
# 1 178.4434 23.9513 99.8945 0.0000 0.0000 0.0000
# 2 23.9513 28.5804 26.6547 0.0000 0.0000 0.0000
# 3 99.8945 26.6547 153.2284 0.0000 0.0000 0.0000
# 4 0.0000 0.0000 0.0000 14.7367 0.0000 0.0000
# 5 0.0000 0.0000 0.0000 0.0000 39.4510 0.0000
# 6 0.0000 0.0000 0.0000 0.0000 0.0000 12.2744
#
#
#
# Elastic Compliance Matrix: (Units=1/GPa)
#
#
# Indices 1 2 3 4 5 6 
#
# 1 0.008967 -0.002462 -0.005418 0.000000 0.000000 0.000000
# 2 -0.002462 0.042441 -0.005778 0.000000 0.000000 0.000000
# 3 -0.005418 -0.005778 0.011063 0.000000 0.000000 0.000000
# 4 0.000000 0.000000 0.000000 0.067858 0.000000 0.000000
# 5 0.000000 0.000000 0.000000 0.000000 0.025348 0.000000
# 6 0.000000 0.000000 0.000000 0.000000 0.000000 0.081471
#
#
# Mechanical properties :
#
#
# Convention : Reuss Voigt Hill
#
# Bulk Modulus (GPa) = 28.44448 73.47257 50.95853
# Shear Modulus (GPa) = 18.10404 27.27586 22.68995
#
# Velocity S-wave (km/s) = 3.08780 3.79010 3.45684
# Velocity P-wave (km/s) = 5.26242 7.60577 6.53991
#
# Compressibility (1/GPa) = 0.03515621
#
# Stress axis : x y z
#
# Youngs Moduli (GPa) = 111.51392 23.56233 90.38881
#
# Poissons Ratio (x) = 0.05802 0.48972
# Poissons Ratio (y) = 0.27457 0.52222
# Poissons Ratio (z) = 0.60417 0.13613
#
# Static dielectric constant tensor:
#      x y z
#    x 3.908640 0.000000 0.000000 
#    y 0.000000 2.867830 0.000000 
#    z 0.000000 0.000000 3.659630 
# 
# 
# High freq. dielectric constant tensor:
#      x y z
#    x 1.757270 0.000000 0.000000 
#    y 0.000000 1.671570 0.000000 
#    z 0.000000 0.000000 1.742390 
# 
# From -- ./inp_files/72979.got.cif
#   From: 2010.03.12/outbox.cif.g09.slc.cpg/sg74_37_cif.got.tgz:72979.got - 2010.04.16 15:46:19.
