data_PCOD8298077
_publ_section_title
;
Structure prediction by ZEFSAII (Michael W. Deem and Ramdas Pophale) SiO2 
 PCOD8298077
Probable space group: I M M A
;
_chemical_formula_sum "Si O2"
_cell_formula_units_Z 96
_cell_length_a 8.611638
_cell_length_b 24.466112
_cell_length_c 22.653688
_cell_angle_alpha 90.000000
_cell_angle_beta 90.000000
_cell_angle_gamma 90.000000
_cell_volume 4772.980278
_symmetry_space_group_name_H-M "I M M A"
_symmetry_group_IT_number 74
_symmetry_cell_setting 'orthorhombic'
loop_
_space_group_symop_operation_xyz
x,y,z
-x,1/2-y,z
x,-y,-z
-x,1/2+y,-z
-x,-y,-z
x,1/2+y,-z
-x,y,z
x,1/2-y,z
1/2+x,1/2+y,1/2+z
1/2-x,-y,1/2+z
1/2+x,1/2-y,1/2-z
1/2-x,y,1/2-z
1/2-x,1/2-y,1/2-z
1/2+x,y,1/2-z
1/2-x,1/2+y,1/2+z
1/2+x,-y,1/2+z
loop_
_atom_site_type_symbol
_atom_site_label
_atom_site_fract_x
_atom_site_fract_y
_atom_site_fract_z
Si Si1 0.816023 0.750000 0.900385
Si Si2 0.184632 0.134839 0.922539
Si Si3 0.683508 0.566461 0.312675
Si Si4 0.819402 0.451720 0.349933
Si Si5 0.325996 0.059335 0.472906
Si Si6 0.315739 0.840787 0.689948
Si Si7 0.314977 0.750000 0.466379
O O1 0.759924 0.695933 0.865489
O O2 0.000000 0.750000 0.903417
O O3 0.746867 0.750000 0.966767
O O4 0.250170 0.108345 0.862197
O O5 0.244364 0.196961 0.930400
O O6 0.000000 0.131675 0.921472
O O7 0.244140 0.100416 0.978647
O O8 0.500000 0.569526 0.310214
O O9 0.750000 0.585352 0.250000
O O10 0.730021 0.505071 0.328221
O O11 0.790351 0.440367 0.418563
O O12 0.757178 0.400742 0.313376
O O13 0.000000 0.460342 0.337679
O O14 0.500000 0.077701 0.452491
O O15 0.336429 0.000000 0.500000
O O16 0.500000 0.844178 0.692624
O O17 0.250000 0.813742 0.750000
O O18 0.500000 0.750000 0.469992
#
# Coordination Sequence:
#
# PCOD8298077 Si02
#       7
#     8  16  16  16  16  16   8
#     4   9  19  35  60  87 113 145 192 241 288 337
#     4   9  18  33  57  85 115 147 186 232 283 339
#     4  11  22  39  58  82 112 150 191 236 287 343
#     4  12  24  37  55  85 119 155 191 237 289 344
#     4  10  18  34  58  84 114 150 189 234 283 338
#     4  11  22  38  58  83 115 155 197 243 285 339
#     4   9  16  31  56  87 113 141 184 233 282 343
#
# _framework density 20.113219000000001
#
# number of rings (size 3 to 8) (size 9 to 14) (size 15 to 20)
#    0.000    1.667    1.667    4.250    0.000    3.000 
#    0.000    1.667    0.000    0.000    0.000    4.083 
#    0.000    0.000    0.000    0.000    0.000    0.000 
#
# Total GULP energy -595242.092500 kJ/mol
# GULP energy per Si atom -12400.876927 kJ/mol
# Density = 2.006744 g / cm^3
# Si number density = 20.113219 Si / 1000 Ang^3
#
#
#
# Elastic Constant Matrix: (Units=GPa)
#
#
# Indices 1 2 3 4 5 6 
#
# 1 51.0170 9.0808 19.2086 0.0000 0.0000 0.0000
# 2 9.0808 135.2105 55.3097 0.0000 0.0000 0.0000
# 3 19.2086 55.3097 136.1789 0.0000 0.0000 0.0000
# 4 0.0000 0.0000 0.0000 23.2007 0.0000 0.0000
# 5 0.0000 0.0000 0.0000 0.0000 31.2526 0.0000
# 6 0.0000 0.0000 0.0000 0.0000 0.0000 15.7474
#
#
#
# Elastic Compliance Matrix: (Units=1/GPa)
#
#
# Indices 1 2 3 4 5 6 
#
# 1 0.020707 -0.000235 -0.002825 0.000000 0.000000 0.000000
# 2 -0.000235 0.008872 -0.003570 0.000000 0.000000 0.000000
# 3 -0.002825 -0.003570 0.009192 0.000000 0.000000 0.000000
# 4 0.000000 0.000000 0.000000 0.043102 0.000000 0.000000
# 5 0.000000 0.000000 0.000000 0.000000 0.031997 0.000000
# 6 0.000000 0.000000 0.000000 0.000000 0.000000 0.063503
#
#
# Mechanical properties :
#
#
# Convention : Reuss Voigt Hill
#
# Bulk Modulus (GPa) = 39.20073 54.40049 46.80061
# Shear Modulus (GPa) = 25.10826 29.96061 27.53444
#
# Velocity S-wave (km/s) = 3.53703 3.86372 3.70398
# Velocity P-wave (km/s) = 6.01773 6.85640 6.45071
#
# Compressibility (1/GPa) = 0.02550973
#
# Stress axis : x y z
#
# Youngs Moduli (GPa) = 48.29301 112.71232 108.79122
#
# Poissons Ratio (x) = 0.02648 0.30738
# Poissons Ratio (y) = 0.01135 0.38842
# Poissons Ratio (z) = 0.13645 0.40242
#
# Static dielectric constant tensor:
#      x y z
#    x 3.303130 0.000000 0.000000 
#    y 0.000000 3.833400 0.000000 
#    z 0.000000 0.000000 3.295480 
# 
# 
# High freq. dielectric constant tensor:
#      x y z
#    x 1.747670 0.000000 0.000000 
#    y 0.000000 1.788790 0.000000 
#    z 0.000000 0.000000 1.796380 
# 
# From -- ./inp_files/57326.got.cif
#   From: 2010.03.12/outbox.cif.g09.slc.cpg/sg74_29_cif.got.tgz:57326.got - 2010.04.16 15:46:19.
