data_PCOD8298978
_publ_section_title
;
Structure prediction by ZEFSAII (Michael W. Deem and Ramdas Pophale) SiO2 
 PCOD8298978
Probable space group: I M M A
;
_chemical_formula_sum "Si O2"
_cell_formula_units_Z 88
_cell_length_a 20.281154
_cell_length_b 8.915212
_cell_length_c 23.517519
_cell_angle_alpha 90.000000
_cell_angle_beta 90.000000
_cell_angle_gamma 90.000000
_cell_volume 4252.221131
_symmetry_space_group_name_H-M "I M M A"
_symmetry_group_IT_number 74
_symmetry_cell_setting 'orthorhombic'
loop_
_space_group_symop_operation_xyz
x,y,z
-x,1/2-y,z
x,-y,-z
-x,1/2+y,-z
-x,-y,-z
x,1/2+y,-z
-x,y,z
x,1/2-y,z
1/2+x,1/2+y,1/2+z
1/2-x,-y,1/2+z
1/2+x,1/2-y,1/2-z
1/2-x,y,1/2-z
1/2-x,1/2-y,1/2-z
1/2+x,y,1/2-z
1/2-x,1/2+y,1/2+z
1/2+x,-y,1/2+z
loop_
_atom_site_type_symbol
_atom_site_label
_atom_site_fract_x
_atom_site_fract_y
_atom_site_fract_z
Si Si1 0.867527 0.573283 0.276495
Si Si2 0.759137 0.427044 0.943499
Si Si3 0.500000 0.575332 0.938715
Si Si4 0.633077 0.574122 0.351767
Si Si5 0.500000 0.414173 0.360970
Si Si6 0.000000 0.917396 0.728140
Si Si7 0.141094 0.573474 0.611899
O O1 0.858200 0.750000 0.283181
O O2 0.848356 0.520282 0.212638
O O3 0.829486 0.491717 0.327983
O O4 0.940384 0.519265 0.291072
O O5 0.752896 0.250000 0.950472
O O6 0.806576 0.471084 0.891400
O O7 0.687107 0.498958 0.935730
O O8 0.790414 0.500000 0.000000
O O9 0.500000 0.750000 0.951375
O O10 0.434874 0.529845 0.902402
O O11 0.500000 0.500000 0.000000
O O12 0.619007 0.750000 0.350050
O O13 0.566640 0.501401 0.377539
O O14 0.500000 0.250000 0.390659
O O15 0.500000 0.390773 0.294343
O O16 0.000000 0.750000 0.698375
O O17 0.151621 0.750000 0.612190
#
# Coordination Sequence:
#
# PCOD8298978 Si02
#       7
#    16  16   8  16   8   8  16
#     4  10  19  33  55  84 115 152 194 235 285 349
#     4  11  24  43  63  84 112 151 196 243 294 353
#     4  10  23  40  59  83 114 152 196 240 284 331
#     4   9  20  38  60  85 119 157 192 234 290 352
#     4   9  17  30  55  88 117 145 185 232 278 332
#     4   9  16  28  47  77 117 153 182 224 279 335
#     4  11  23  39  59  86 119 154 192 243 298 348
#
# _framework density 20.695067000000002
#
# number of rings (size 3 to 8) (size 9 to 14) (size 15 to 20)
#    0.000    2.000    0.000    3.273    0.000    8.727 
#    0.000    4.091    0.000    0.000    0.000    0.000 
#    0.000    0.000    0.000    0.000    0.000    0.000 
#
# Total GULP energy -545305.879685 kJ/mol
# GULP energy per Si atom -12393.315447 kJ/mol
# Density = 2.064796 g / cm^3
# Si number density = 20.695067 Si / 1000 Ang^3
#
#
#
# Elastic Constant Matrix: (Units=GPa)
#
#
# Indices 1 2 3 4 5 6 
#
# 1 89.8368 44.9816 48.1707 0.0000 0.0000 0.0000
# 2 44.9816 85.4275 55.4740 0.0000 0.0000 0.0000
# 3 48.1707 55.4740 136.6601 0.0000 0.0000 0.0000
# 4 0.0000 0.0000 0.0000 33.6913 0.0000 0.0000
# 5 0.0000 0.0000 0.0000 0.0000 23.4114 0.0000
# 6 0.0000 0.0000 0.0000 0.0000 0.0000 16.4346
#
#
#
# Elastic Compliance Matrix: (Units=1/GPa)
#
#
# Indices 1 2 3 4 5 6 
#
# 1 0.015980 -0.006459 -0.003011 0.000000 0.000000 0.000000
# 2 -0.006459 0.018507 -0.005236 0.000000 0.000000 0.000000
# 3 -0.003011 -0.005236 0.010504 0.000000 0.000000 0.000000
# 4 0.000000 0.000000 0.000000 0.029681 0.000000 0.000000
# 5 0.000000 0.000000 0.000000 0.000000 0.042714 0.000000
# 6 0.000000 0.000000 0.000000 0.000000 0.000000 0.060847
#
#
# Mechanical properties :
#
#
# Convention : Reuss Voigt Hill
#
# Bulk Modulus (GPa) = 64.18662 67.68635 65.93649
# Shear Modulus (GPa) = 23.49217 25.59401 24.54309
#
# Velocity S-wave (km/s) = 3.37287 3.52052 3.44748
# Velocity P-wave (km/s) = 6.80081 7.02160 6.91209
#
# Compressibility (1/GPa) = 0.01557957
#
# Stress axis : x y z
#
# Youngs Moduli (GPa) = 62.57940 54.03451 95.20216
#
# Poissons Ratio (x) = 0.34901 0.28663
# Poissons Ratio (y) = 0.40420 0.49845
# Poissons Ratio (z) = 0.18841 0.28291
#
# Static dielectric constant tensor:
#      x y z
#    x 3.691530 0.000000 0.000000 
#    y 0.000000 3.741620 0.000000 
#    z 0.000000 0.000000 3.965040 
# 
# 
# High freq. dielectric constant tensor:
#      x y z
#    x 1.798750 0.000000 0.000000 
#    y 0.000000 1.811200 0.000000 
#    z 0.000000 0.000000 1.812130 
# 
# From -- ./inp_files/61507.got.cif
#   From: 2010.03.12/outbox.cif.g09.slc.cpg/sg74_31_cif.got.tgz:61507.got - 2010.04.16 15:46:19.
