data_PCOD8298282
_publ_section_title
;
Structure prediction by ZEFSAII (Michael W. Deem and Ramdas Pophale) SiO2 
 PCOD8298282
Probable space group: I M M A
;
_chemical_formula_sum "Si O2"
_cell_formula_units_Z 104
_cell_length_a 28.115315
_cell_length_b 9.070368
_cell_length_c 28.041130
_cell_angle_alpha 90.000000
_cell_angle_beta 90.000000
_cell_angle_gamma 90.000000
_cell_volume 7150.943916
_symmetry_space_group_name_H-M "I M M A"
_symmetry_group_IT_number 74
_symmetry_cell_setting 'orthorhombic'
loop_
_space_group_symop_operation_xyz
x,y,z
-x,1/2-y,z
x,-y,-z
-x,1/2+y,-z
-x,-y,-z
x,1/2+y,-z
-x,y,z
x,1/2-y,z
1/2+x,1/2+y,1/2+z
1/2-x,-y,1/2+z
1/2+x,1/2-y,1/2-z
1/2-x,y,1/2-z
1/2-x,1/2-y,1/2-z
1/2+x,y,1/2-z
1/2-x,1/2+y,1/2+z
1/2+x,-y,1/2+z
loop_
_atom_site_type_symbol
_atom_site_label
_atom_site_fract_x
_atom_site_fract_y
_atom_site_fract_z
Si Si1 0.000000 0.416985 0.451755
Si Si2 0.580948 0.589053 0.089472
Si Si3 0.787777 0.584789 0.208331
Si Si4 0.782660 0.424030 0.356219
Si Si5 0.055028 0.414622 0.695818
Si Si6 0.315482 0.077296 0.949607
Si Si7 0.143018 0.922848 0.726340
O O1 0.000000 0.500000 0.500000
O O2 0.953540 0.456134 0.422467
O O3 0.000000 0.250000 0.464524
O O4 0.562496 0.750000 0.071500
O O5 0.582980 0.592603 0.146081
O O6 0.630006 0.552524 0.064138
O O7 0.800397 0.750000 0.190234
O O8 0.750000 0.595280 0.250000
O O9 0.765904 0.487132 0.166027
O O10 0.834629 0.505214 0.228266
O O11 0.777751 0.250000 0.363126
O O12 0.785884 0.500382 0.407715
O O13 0.828053 0.461571 0.322372
O O14 0.055330 0.250000 0.718227
O O15 0.087700 0.526434 0.725793
O O16 0.000000 0.470349 0.691661
O O17 0.302475 0.250000 0.952684
O O18 0.304282 0.000000 0.000000
O O19 0.145075 0.750000 0.735950
#
# Coordination Sequence:
#
# PCOD8298282 Si02
#       7
#     8  16  16  16  16  16  16
#     4  12  24  34  46  58  72  94 130 178 228 274
#     4  10  20  35  49  60  77 103 138 181 225 268
#     4   9  17  29  47  68  88 111 139 169 212 263
#     4  10  19  31  47  67  90 111 138 177 221 264
#     4  10  19  32  48  63  83 112 145 180 222 269
#     4  11  22  34  48  63  83 111 145 181 223 269
#     4  10  19  30  46  67  90 111 138 178 221 263
#
# _framework density 14.543533999999999
#
# number of rings (size 3 to 8) (size 9 to 14) (size 15 to 20)
#    0.000    1.846    2.308    3.000    0.000    6.462 
#    0.000    0.000    0.000    0.000    0.000    0.000 
#    0.000    0.000    0.000    0.000    0.000    0.769 
#
# Total GULP energy -644506.220313 kJ/mol
# GULP energy per Si atom -12394.350391 kJ/mol
# Density = 1.451043 g / cm^3
# Si number density = 14.543534 Si / 1000 Ang^3
#
#
#
# Elastic Constant Matrix: (Units=GPa)
#
#
# Indices 1 2 3 4 5 6 
#
# 1 57.8755 40.6236 41.8103 0.0000 0.0000 0.0000
# 2 40.6236 105.6335 44.7175 0.0000 0.0000 0.0000
# 3 41.8103 44.7175 69.6167 0.0000 0.0000 0.0000
# 4 0.0000 0.0000 0.0000 24.6079 0.0000 0.0000
# 5 0.0000 0.0000 0.0000 0.0000 21.6145 0.0000
# 6 0.0000 0.0000 0.0000 0.0000 0.0000 20.8032
#
#
#
# Elastic Compliance Matrix: (Units=1/GPa)
#
#
# Indices 1 2 3 4 5 6 
#
# 1 0.033003 -0.005908 -0.016026 0.000000 0.000000 0.000000
# 2 -0.005908 0.014060 -0.005483 0.000000 0.000000 0.000000
# 3 -0.016026 -0.005483 0.027511 0.000000 0.000000 0.000000
# 4 0.000000 0.000000 0.000000 0.040637 0.000000 0.000000
# 5 0.000000 0.000000 0.000000 0.000000 0.046265 0.000000
# 6 0.000000 0.000000 0.000000 0.000000 0.000000 0.048070
#
#
# Mechanical properties :
#
#
# Convention : Reuss Voigt Hill
#
# Bulk Modulus (GPa) = 50.65817 54.15873 52.40845
# Shear Modulus (GPa) = 18.45298 20.47007 19.46152
#
# Velocity S-wave (km/s) = 3.56590 3.75574 3.66205
# Velocity P-wave (km/s) = 7.20152 7.49182 7.34810
#
# Compressibility (1/GPa) = 0.01974015
#
# Stress axis : x y z
#
# Youngs Moduli (GPa) = 30.30073 71.12496 36.34884
#
# Poissons Ratio (x) = 0.42018 0.58252
# Poissons Ratio (y) = 0.17901 0.19931
# Poissons Ratio (z) = 0.48560 0.38999
#
# Static dielectric constant tensor:
#      x y z
#    x 2.687080 0.000000 0.000000 
#    y 0.000000 2.903820 0.000000 
#    z 0.000000 0.000000 2.674320 
# 
# 
# High freq. dielectric constant tensor:
#      x y z
#    x 1.527610 0.000000 0.000000 
#    y 0.000000 1.574990 0.000000 
#    z 0.000000 0.000000 1.521070 
# 
# From -- ./inp_files/57836.got.cif
#   From: 2010.03.12/outbox.cif.g09.slc.cpg/sg74_29_cif.got.tgz:57836.got - 2010.04.16 15:46:19.
