data_PCOD8298394
_publ_section_title
;
Structure prediction by ZEFSAII (Michael W. Deem and Ramdas Pophale) SiO2 
 PCOD8298394
Probable space group: I M M A
;
_chemical_formula_sum "Si O2"
_cell_formula_units_Z 88
_cell_length_a 8.427919
_cell_length_b 18.259156
_cell_length_c 29.475628
_cell_angle_alpha 90.000000
_cell_angle_beta 90.000000
_cell_angle_gamma 90.000000
_cell_volume 4535.906763
_symmetry_space_group_name_H-M "I M M A"
_symmetry_group_IT_number 74
_symmetry_cell_setting 'orthorhombic'
loop_
_space_group_symop_operation_xyz
x,y,z
-x,1/2-y,z
x,-y,-z
-x,1/2+y,-z
-x,-y,-z
x,1/2+y,-z
-x,y,z
x,1/2-y,z
1/2+x,1/2+y,1/2+z
1/2-x,-y,1/2+z
1/2+x,1/2-y,1/2-z
1/2-x,y,1/2-z
1/2-x,1/2-y,1/2-z
1/2+x,y,1/2-z
1/2-x,1/2+y,1/2+z
1/2+x,-y,1/2+z
loop_
_atom_site_type_symbol
_atom_site_label
_atom_site_fract_x
_atom_site_fract_y
_atom_site_fract_z
Si Si1 0.688346 0.957426 0.800584
Si Si2 0.689140 0.668457 0.867673
Si Si3 0.311623 0.250000 0.800124
Si Si4 0.188598 0.071514 0.554134
Si Si5 0.189209 0.394756 0.651881
Si Si6 0.311442 0.592985 0.956700
O O1 0.500000 0.957908 0.800363
O O2 0.750000 0.948103 0.750000
O O3 0.752942 0.889165 0.830419
O O4 0.753603 0.033050 0.822268
O O5 0.500000 0.666670 0.868104
O O6 0.751349 0.750000 0.855691
O O7 0.754940 0.647327 0.917951
O O8 0.500000 0.250000 0.801382
O O9 0.250000 0.250000 0.750000
O O10 0.242940 0.322418 0.824180
O O11 0.253245 0.108766 0.600041
O O12 0.245532 0.113933 0.508130
O O13 0.000000 0.070512 0.555021
O O14 0.251094 0.988363 0.553903
O O15 0.000000 0.395913 0.652672
O O16 0.500000 0.594028 0.954827
#
# Coordination Sequence:
#
# PCOD8298394 Si02
#       6
#    16  16   8  16  16  16
#     4  10  19  31  47  64  85 115 148 182 218 257
#     4   9  16  26  39  58  86 117 145 176 216 260
#     4  10  20  32  46  64  88 118 148 182 221 258
#     4   8  12  20  37  57  81 113 142 168 207 260
#     4   9  16  28  43  61  87 116 144 176 219 263
#     4   8  12  20  35  56  82 113 142 167 205 259
#
# _framework density 19.400751
#
# number of rings (size 3 to 8) (size 9 to 14) (size 15 to 20)
#    0.000    3.091    1.818    1.636    0.000    0.364 
#    1.636    0.000    0.000    0.000    0.000    0.000 
#    0.000    4.364    0.000    0.000    0.000    0.000 
#
# Total GULP energy -545144.136670 kJ/mol
# GULP energy per Si atom -12389.639470 kJ/mol
# Density = 1.935659 g / cm^3
# Si number density = 19.400751 Si / 1000 Ang^3
#
#
#
# Elastic Constant Matrix: (Units=GPa)
#
#
# Indices 1 2 3 4 5 6 
#
# 1 2.5647 6.3207 4.2474 0.0000 0.0000 0.0000
# 2 6.3207 168.6675 108.2251 0.0000 0.0000 0.0000
# 3 4.2474 108.2251 218.2595 0.0000 0.0000 0.0000
# 4 0.0000 0.0000 0.0000 32.6445 0.0000 0.0000
# 5 0.0000 0.0000 0.0000 0.0000 18.1238 0.0000
# 6 0.0000 0.0000 0.0000 0.0000 0.0000 4.0838
#
#
#
# Elastic Compliance Matrix: (Units=1/GPa)
#
#
# Indices 1 2 3 4 5 6 
#
# 1 0.429629 -0.015745 -0.000554 0.000000 0.000000 0.000000
# 2 -0.015745 0.009272 -0.004291 0.000000 0.000000 0.000000
# 3 -0.000554 -0.004291 0.006720 0.000000 0.000000 0.000000
# 4 0.000000 0.000000 0.000000 0.030633 0.000000 0.000000
# 5 0.000000 0.000000 0.000000 0.000000 0.055176 0.000000
# 6 0.000000 0.000000 0.000000 0.000000 0.000000 0.244872
#
#
# Mechanical properties :
#
#
# Convention : Reuss Voigt Hill
#
# Bulk Modulus (GPa) = 2.47254 69.67535 36.07394
# Shear Modulus (GPa) = 5.25046 29.01697 17.13371
#
# Velocity S-wave (km/s) = 1.64687 3.87157 2.97500
# Velocity P-wave (km/s) = 2.21212 7.48179 5.51682
#
# Compressibility (1/GPa) = 0.40444255
#
# Stress axis : x y z
#
# Youngs Moduli (GPa) = 2.32759 107.84700 148.80129
#
# Poissons Ratio (x) = 1.69803 0.08238
# Poissons Ratio (y) = 0.03665 0.63856
# Poissons Ratio (z) = 0.00129 0.46281
#
# Static dielectric constant tensor:
#      x y z
#    x 2.728320 0.000000 0.000000 
#    y 0.000000 3.792530 0.000000 
#    z 0.000000 0.000000 4.084120 
# 
# 
# High freq. dielectric constant tensor:
#      x y z
#    x 1.670890 0.000000 0.000000 
#    y 0.000000 1.745670 0.000000 
#    z 0.000000 0.000000 1.779200 
# 
# From -- ./inp_files/71966.got.cif
#   From: 2010.03.12/outbox.cif.g09.slc.cpg/sg74_36_cif.got.tgz:71966.got - 2010.04.16 15:46:19.
