data_PCOD8298507
_publ_section_title
;
Structure prediction by ZEFSAII (Michael W. Deem and Ramdas Pophale) SiO2 
 PCOD8298507
Probable space group: I M M A
;
_chemical_formula_sum "Si O2"
_cell_formula_units_Z 112
_cell_length_a 20.069651
_cell_length_b 25.811714
_cell_length_c 12.241383
_cell_angle_alpha 90.000000
_cell_angle_beta 90.000000
_cell_angle_gamma 90.000000
_cell_volume 6341.429241
_symmetry_space_group_name_H-M "I M M A"
_symmetry_group_IT_number 74
_symmetry_cell_setting 'orthorhombic'
loop_
_space_group_symop_operation_xyz
x,y,z
-x,1/2-y,z
x,-y,-z
-x,1/2+y,-z
-x,-y,-z
x,1/2+y,-z
-x,y,z
x,1/2-y,z
1/2+x,1/2+y,1/2+z
1/2-x,-y,1/2+z
1/2+x,1/2-y,1/2-z
1/2-x,y,1/2-z
1/2-x,1/2-y,1/2-z
1/2+x,y,1/2-z
1/2-x,1/2+y,1/2+z
1/2+x,-y,1/2+z
loop_
_atom_site_type_symbol
_atom_site_label
_atom_site_fract_x
_atom_site_fract_y
_atom_site_fract_z
Si Si1 0.863952 0.513329 0.381573
Si Si2 0.817650 0.093274 0.310965
Si Si3 0.328608 0.308288 0.768457
Si Si4 0.926232 0.022258 0.838101
Si Si5 0.852684 0.881607 0.079283
Si Si6 0.423532 0.404723 0.368251
Si Si7 0.697230 0.381782 0.951243
O O1 0.895628 0.500000 0.500000
O O2 0.814852 0.467786 0.339696
O O3 0.923248 0.518061 0.293886
O O4 0.820488 0.564950 0.390562
O O5 0.750000 0.109008 0.250000
O O6 0.880425 0.109814 0.237602
O O7 0.827093 0.123893 0.424449
O O8 0.356791 0.250000 0.773124
O O9 0.250000 0.309118 0.750000
O O10 0.367589 0.338430 0.671717
O O11 0.339784 0.336156 0.884725
O O12 0.869137 0.061250 0.876075
O O13 0.000000 0.043102 0.869206
O O14 0.914906 0.966145 0.893984
O O15 0.776451 0.878164 0.045938
O O16 0.897865 0.871818 0.972175
O O17 0.500000 0.390574 0.343713
#
# Coordination Sequence:
#
# PCOD8298507 Si02
#       7
#    16  16  16  16  16  16  16
#     4   9  19  29  45  72 101 137 176 213 259 300
#     4  10  19  31  50  76 107 140 175 217 252 312
#     4   9  19  34  54  79 104 130 167 220 275 316
#     4  10  20  31  45  70 106 144 177 209 254 316
#     4  11  19  30  53  74 103 136 172 215 260 321
#     4  10  21  34  49  76 111 145 174 207 259 319
#     4  10  19  32  51  77 102 134 176 219 268 308
#
# _framework density 17.661635
#
# number of rings (size 3 to 8) (size 9 to 14) (size 15 to 20)
#    0.000    2.143    2.857    0.857    4.000    2.571 
#    0.000    2.143    0.000    3.000    0.000    0.000 
#    0.000    0.000    0.000    0.000    0.000    0.000 
#
# Total GULP energy -694227.369928 kJ/mol
# GULP energy per Si atom -12396.917320 kJ/mol
# Density = 1.762144 g / cm^3
# Si number density = 17.661635 Si / 1000 Ang^3
#
#
#
# Elastic Constant Matrix: (Units=GPa)
#
#
# Indices 1 2 3 4 5 6 
#
# 1 79.8403 29.2578 47.1525 0.0000 0.0000 0.0000
# 2 29.2578 74.8295 59.4132 0.0000 0.0000 0.0000
# 3 47.1525 59.4132 137.8538 0.0000 0.0000 0.0000
# 4 0.0000 0.0000 0.0000 20.8716 0.0000 0.0000
# 5 0.0000 0.0000 0.0000 0.0000 23.1532 0.0000
# 6 0.0000 0.0000 0.0000 0.0000 0.0000 11.0472
#
#
#
# Elastic Compliance Matrix: (Units=1/GPa)
#
#
# Indices 1 2 3 4 5 6 
#
# 1 0.016106 -0.002924 -0.004249 0.000000 0.000000 0.000000
# 2 -0.002924 0.020846 -0.007984 0.000000 0.000000 0.000000
# 3 -0.004249 -0.007984 0.012149 0.000000 0.000000 0.000000
# 4 0.000000 0.000000 0.000000 0.047912 0.000000 0.000000
# 5 0.000000 0.000000 0.000000 0.000000 0.043191 0.000000
# 6 0.000000 0.000000 0.000000 0.000000 0.000000 0.090521
#
#
# Mechanical properties :
#
#
# Convention : Reuss Voigt Hill
#
# Bulk Modulus (GPa) = 53.22936 62.68561 57.95749
# Shear Modulus (GPa) = 18.70555 21.46106 20.08331
#
# Velocity S-wave (km/s) = 3.25792 3.48964 3.37577
# Velocity P-wave (km/s) = 6.66002 7.19767 6.93406
#
# Compressibility (1/GPa) = 0.01878662
#
# Stress axis : x y z
#
# Youngs Moduli (GPa) = 62.08978 47.96994 82.31426
#
# Poissons Ratio (x) = 0.14025 0.34974
# Poissons Ratio (y) = 0.18153 0.65724
# Poissons Ratio (z) = 0.26381 0.38301
#
# Static dielectric constant tensor:
#      x y z
#    x 3.005200 0.000000 0.000000 
#    y 0.000000 3.070180 0.000000 
#    z 0.000000 0.000000 3.604630 
# 
# 
# High freq. dielectric constant tensor:
#      x y z
#    x 1.659820 0.000000 0.000000 
#    y 0.000000 1.636410 0.000000 
#    z 0.000000 0.000000 1.706800 
# 
# From -- ./inp_files/24339.got.cif
#   From: 2010.03.12/outbox.cif.g09.slc.cpg/sg74_13_cif.got.tgz:24339.got - 2010.04.16 15:46:19.
