data_PCOD8298058
_publ_section_title
;
Structure prediction by ZEFSAII (Michael W. Deem and Ramdas Pophale) SiO2 
 PCOD8298058
Probable space group: I M M A
;
_chemical_formula_sum "Si O2"
_cell_formula_units_Z 96
_cell_length_a 11.258933
_cell_length_b 14.247055
_cell_length_c 31.760852
_cell_angle_alpha 90.000000
_cell_angle_beta 90.000000
_cell_angle_gamma 90.000000
_cell_volume 5094.651480
_symmetry_space_group_name_H-M "I M M A"
_symmetry_group_IT_number 74
_symmetry_cell_setting 'orthorhombic'
loop_
_space_group_symop_operation_xyz
x,y,z
-x,1/2-y,z
x,-y,-z
-x,1/2+y,-z
-x,-y,-z
x,1/2+y,-z
-x,y,z
x,1/2-y,z
1/2+x,1/2+y,1/2+z
1/2-x,-y,1/2+z
1/2+x,1/2-y,1/2-z
1/2-x,y,1/2-z
1/2-x,1/2-y,1/2-z
1/2+x,y,1/2-z
1/2-x,1/2+y,1/2+z
1/2+x,-y,1/2+z
loop_
_atom_site_type_symbol
_atom_site_label
_atom_site_fract_x
_atom_site_fract_y
_atom_site_fract_z
Si Si1 0.370915 0.360888 0.480927
Si Si2 0.136281 0.534290 0.134980
Si Si3 0.750010 0.860938 0.895195
Si Si4 0.758275 0.641182 0.438711
Si Si5 0.000000 0.605191 0.484955
Si Si6 0.000000 0.146245 0.419498
Si Si7 0.135389 0.141623 0.778840
O O1 0.500000 0.403312 0.472389
O O2 0.374155 0.250000 0.486477
O O3 0.290555 0.387435 0.441902
O O4 0.321355 0.403940 0.524144
O O5 0.174690 0.423916 0.137503
O O6 0.227085 0.586012 0.103679
O O7 0.151355 0.576837 0.180837
O O8 0.000000 0.543798 0.119652
O O9 0.765704 0.750000 0.884505
O O10 0.615314 0.899660 0.897953
O O11 0.730102 0.750000 0.430129
O O12 0.892384 0.630104 0.454254
O O13 0.000000 0.500000 0.500000
O O14 0.000000 0.658806 0.529573
O O15 0.000000 0.250000 0.401598
O O16 0.144928 0.250000 0.792395
O O17 0.250000 0.115978 0.750000
O O18 0.000000 0.124349 0.759549
#
# Coordination Sequence:
#
# PCOD8298058 Si02
#       7
#    16  16  16  16   8   8  16
#     4   9  17  29  47  70 100 142 187 228 268 316
#     4  11  23  37  57  85 114 144 180 228 282 336
#     4  10  20  35  54  78 110 149 194 236 276 323
#     4  11  22  35  51  75 108 145 187 236 286 331
#     4  12  22  34  50  70 104 150 197 240 283 330
#     4  10  18  34  54  68  98 152 200 236 279 322
#     4   9  19  40  67  91 117 147 178 217 273 344
#
# _framework density 18.843292000000002
#
# number of rings (size 3 to 8) (size 9 to 14) (size 15 to 20)
#    0.000    1.833    1.667    3.250    0.000    2.667 
#    3.000    1.667    0.000    0.500    0.000    0.000 
#    0.000    0.000    0.000    0.000    0.000    0.000 
#
# Total GULP energy -594672.416877 kJ/mol
# GULP energy per Si atom -12389.008685 kJ/mol
# Density = 1.880040 g / cm^3
# Si number density = 18.843292 Si / 1000 Ang^3
#
#
#
# Elastic Constant Matrix: (Units=GPa)
#
#
# Indices 1 2 3 4 5 6 
#
# 1 127.0034 33.8670 44.5721 0.0000 0.0000 0.0000
# 2 33.8670 78.4525 39.0586 0.0000 0.0000 0.0000
# 3 44.5721 39.0586 70.3548 0.0000 0.0000 0.0000
# 4 0.0000 0.0000 0.0000 26.0064 0.0000 0.0000
# 5 0.0000 0.0000 0.0000 0.0000 29.6067 0.0000
# 6 0.0000 0.0000 0.0000 0.0000 0.0000 21.7428
#
#
#
# Elastic Compliance Matrix: (Units=1/GPa)
#
#
# Indices 1 2 3 4 5 6 
#
# 1 0.010278 -0.001651 -0.005594 0.000000 0.000000 0.000000
# 2 -0.001651 0.017881 -0.008881 0.000000 0.000000 0.000000
# 3 -0.005594 -0.008881 0.022688 0.000000 0.000000 0.000000
# 4 0.000000 0.000000 0.000000 0.038452 0.000000 0.000000
# 5 0.000000 0.000000 0.000000 0.000000 0.033776 0.000000
# 6 0.000000 0.000000 0.000000 0.000000 0.000000 0.045992
#
#
# Mechanical properties :
#
#
# Convention : Reuss Voigt Hill
#
# Bulk Modulus (GPa) = 53.78170 56.75622 55.26896
# Shear Modulus (GPa) = 24.09439 26.02539 25.05989
#
# Velocity S-wave (km/s) = 3.57973 3.72041 3.65075
# Velocity P-wave (km/s) = 6.75940 6.97430 6.86769
#
# Compressibility (1/GPa) = 0.01859369
#
# Stress axis : x y z
#
# Youngs Moduli (GPa) = 97.29972 55.92603 44.07618
#
# Poissons Ratio (x) = 0.09236 0.24658
# Poissons Ratio (y) = 0.16069 0.39142
# Poissons Ratio (z) = 0.54432 0.49665
#
# Static dielectric constant tensor:
#      x y z
#    x 4.067840 0.000000 0.000000 
#    y 0.000000 3.584060 0.000000 
#    z 0.000000 0.000000 2.977560 
# 
# 
# High freq. dielectric constant tensor:
#      x y z
#    x 1.756920 0.000000 0.000000 
#    y 0.000000 1.737220 0.000000 
#    z 0.000000 0.000000 1.677210 
# 
# From -- ./inp_files/71812.got.cif
#   From: 2010.03.12/outbox.cif.g09.slc.cpg/sg74_36_cif.got.tgz:71812.got - 2010.04.16 15:46:19.
