data_PCOD8298987
_publ_section_title
;
Structure prediction by ZEFSAII (Michael W. Deem and Ramdas Pophale) SiO2 
 PCOD8298987
Probable space group: I M M A
;
_chemical_formula_sum "Si O2"
_cell_formula_units_Z 96
_cell_length_a 14.686514
_cell_length_b 15.440964
_cell_length_c 21.299322
_cell_angle_alpha 90.000000
_cell_angle_beta 90.000000
_cell_angle_gamma 90.000000
_cell_volume 4830.131041
_symmetry_space_group_name_H-M "I M M A"
_symmetry_group_IT_number 74
_symmetry_cell_setting 'orthorhombic'
loop_
_space_group_symop_operation_xyz
x,y,z
-x,1/2-y,z
x,-y,-z
-x,1/2+y,-z
-x,-y,-z
x,1/2+y,-z
-x,y,z
x,1/2-y,z
1/2+x,1/2+y,1/2+z
1/2-x,-y,1/2+z
1/2+x,1/2-y,1/2-z
1/2-x,y,1/2-z
1/2-x,1/2-y,1/2-z
1/2+x,y,1/2-z
1/2-x,1/2+y,1/2+z
1/2+x,-y,1/2+z
loop_
_atom_site_type_symbol
_atom_site_label
_atom_site_fract_x
_atom_site_fract_y
_atom_site_fract_z
Si Si1 0.755965 0.411021 0.034370
Si Si2 0.680147 0.845281 0.193255
Si Si3 0.323989 0.344893 0.589658
Si Si4 0.394036 0.849613 0.875478
Si Si5 0.104378 0.518446 0.868439
Si Si6 0.103475 0.519572 0.728509
O O1 0.664382 0.369873 0.062542
O O2 0.832475 0.423462 0.087603
O O3 0.729784 0.500000 0.000000
O O4 0.799250 0.346452 0.983760
O O5 0.632459 0.750000 0.194054
O O6 0.750000 0.851642 0.250000
O O7 0.730916 0.860106 0.127686
O O8 0.608326 0.922638 0.200354
O O9 0.365427 0.250000 0.605444
O O10 0.395951 0.418397 0.608846
O O11 0.500000 0.870292 0.890226
O O12 0.381358 0.750000 0.855444
O O13 0.354755 0.909757 0.819153
O O14 0.147573 0.524748 0.798106
O O15 0.000000 0.551181 0.872200
O O16 0.000000 0.544594 0.738411
#
# Coordination Sequence:
#
# PCOD8298987 Si02
#       6
#    16  16  16  16  16  16
#     4  10  21  36  58  82 112 150 188 235 282 339
#     4  10  19  33  56  82 110 146 184 229 282 337
#     4  10  20  34  53  80 111 145 186 228 277 337
#     4  10  22  40  61  86 115 148 190 240 291 344
#     4  10  21  36  55  80 111 149 190 233 278 327
#     4  10  20  35  57  83 113 148 188 235 283 337
#
# _framework density 19.875236999999998
#
# number of rings (size 3 to 8) (size 9 to 14) (size 15 to 20)
#    0.000    2.000    1.667    2.500    0.000    4.000 
#    0.000    5.000    0.000    4.500    0.000    0.000 
#    0.000    0.000    0.000    0.000    0.000    0.000 
#
# Total GULP energy -595055.922930 kJ/mol
# GULP energy per Si atom -12396.998394 kJ/mol
# Density = 1.983000 g / cm^3
# Si number density = 19.875237 Si / 1000 Ang^3
#
#
#
# Elastic Constant Matrix: (Units=GPa)
#
#
# Indices 1 2 3 4 5 6 
#
# 1 53.6159 23.2805 26.9371 0.0000 0.0000 0.0000
# 2 23.2805 88.5154 34.3525 0.0000 0.0000 0.0000
# 3 26.9371 34.3525 108.2735 0.0000 0.0000 0.0000
# 4 0.0000 0.0000 0.0000 19.4302 0.0000 0.0000
# 5 0.0000 0.0000 0.0000 0.0000 27.3366 0.0000
# 6 0.0000 0.0000 0.0000 0.0000 0.0000 17.4899
#
#
#
# Elastic Compliance Matrix: (Units=1/GPa)
#
#
# Indices 1 2 3 4 5 6 
#
# 1 0.022667 -0.004303 -0.004274 0.000000 0.000000 0.000000
# 2 -0.004303 0.013701 -0.003276 0.000000 0.000000 0.000000
# 3 -0.004274 -0.003276 0.011339 0.000000 0.000000 0.000000
# 4 0.000000 0.000000 0.000000 0.051466 0.000000 0.000000
# 5 0.000000 0.000000 0.000000 0.000000 0.036581 0.000000
# 6 0.000000 0.000000 0.000000 0.000000 0.000000 0.057176
#
#
# Mechanical properties :
#
#
# Convention : Reuss Voigt Hill
#
# Bulk Modulus (GPa) = 41.66725 46.61611 44.14168
# Shear Modulus (GPa) = 22.25822 23.90697 23.08259
#
# Velocity S-wave (km/s) = 3.35012 3.47198 3.41159
# Velocity P-wave (km/s) = 5.99786 6.29112 6.14624
#
# Compressibility (1/GPa) = 0.02399966
#
# Stress axis : x y z
#
# Youngs Moduli (GPa) = 44.11732 72.98879 88.19346
#
# Poissons Ratio (x) = 0.31406 0.37694
# Poissons Ratio (y) = 0.18983 0.28896
# Poissons Ratio (z) = 0.18856 0.23914
#
# Static dielectric constant tensor:
#      x y z
#    x 3.237420 0.000000 0.000000 
#    y 0.000000 3.712680 0.000000 
#    z 0.000000 0.000000 3.925340 
# 
# 
# High freq. dielectric constant tensor:
#      x y z
#    x 1.747880 0.000000 0.000000 
#    y 0.000000 1.775240 0.000000 
#    z 0.000000 0.000000 1.787130 
# 
# From -- ./inp_files/51837.got.cif
#   From: 2010.03.12/outbox.cif.g09.slc.cpg/sg74_26_cif.got.tgz:51837.got - 2010.04.16 15:46:19.
