data_PCOD8298299
_publ_section_title
;
Structure prediction by ZEFSAII (Michael W. Deem and Ramdas Pophale) SiO2 
 PCOD8298299
Probable space group: I M M A
;
_chemical_formula_sum "Si O2"
_cell_formula_units_Z 88
_cell_length_a 16.948663
_cell_length_b 14.296506
_cell_length_c 21.316324
_cell_angle_alpha 90.000000
_cell_angle_beta 90.000000
_cell_angle_gamma 90.000000
_cell_volume 5165.087320
_symmetry_space_group_name_H-M "I M M A"
_symmetry_group_IT_number 74
_symmetry_cell_setting 'orthorhombic'
loop_
_space_group_symop_operation_xyz
x,y,z
-x,1/2-y,z
x,-y,-z
-x,1/2+y,-z
-x,-y,-z
x,1/2+y,-z
-x,y,z
x,1/2-y,z
1/2+x,1/2+y,1/2+z
1/2-x,-y,1/2+z
1/2+x,1/2-y,1/2-z
1/2-x,y,1/2-z
1/2-x,1/2-y,1/2-z
1/2+x,y,1/2-z
1/2-x,1/2+y,1/2+z
1/2+x,-y,1/2+z
loop_
_atom_site_type_symbol
_atom_site_label
_atom_site_fract_x
_atom_site_fract_y
_atom_site_fract_z
Si Si1 0.588477 0.642303 0.959522
Si Si2 0.910374 0.998642 0.223866
Si Si3 0.179436 0.146545 0.701580
Si Si4 0.769984 0.002626 0.133269
Si Si5 0.788321 0.500000 0.500000
Si Si6 0.647875 0.859179 0.822282
O O1 0.500000 0.611461 0.978801
O O2 0.602694 0.750000 0.974600
O O3 0.652901 0.588632 0.001250
O O4 0.597569 0.623103 0.885227
O O5 0.895396 0.093131 0.263338
O O6 0.000000 0.996006 0.200807
O O7 0.893576 0.908217 0.267203
O O8 0.857452 0.992691 0.161007
O O9 0.151649 0.250000 0.679736
O O10 0.250000 0.155087 0.750000
O O11 0.213243 0.086783 0.644031
O O12 0.771442 0.009971 0.058300
O O13 0.733496 0.093710 0.167660
O O14 0.659001 0.750000 0.807441
#
# Coordination Sequence:
#
# PCOD8298299 Si02
#       6
#    16  16  16  16   8  16
#     4   9  17  29  47  72  96 117 146 184 228 278
#     4  10  19  30  46  71  98 120 149 191 235 276
#     4   8  15  30  50  68  87 112 144 187 237 282
#     4   9  19  32  47  68  92 123 161 192 221 267
#     4  10  19  32  47  62  90 130 164 190 217 254
#     4   9  17  31  51  72  95 122 149 182 231 287
#
# _framework density 17.037465999999998
#
# number of rings (size 3 to 8) (size 9 to 14) (size 15 to 20)
#    0.000    2.909    0.000    2.455    0.000    3.636 
#    0.000    1.364    0.000    0.000    0.000    0.000 
#    0.000    7.273    0.000    0.000    0.000    0.000 
#
# Total GULP energy -545379.469968 kJ/mol
# GULP energy per Si atom -12394.987954 kJ/mol
# Density = 1.699869 g / cm^3
# Si number density = 17.037466 Si / 1000 Ang^3
#
#
#
# Elastic Constant Matrix: (Units=GPa)
#
#
# Indices 1 2 3 4 5 6 
#
# 1 115.5225 38.3343 46.5270 0.0000 0.0000 0.0000
# 2 38.3343 119.8988 27.7433 0.0000 0.0000 0.0000
# 3 46.5270 27.7433 65.8532 0.0000 0.0000 0.0000
# 4 0.0000 0.0000 0.0000 20.4331 0.0000 0.0000
# 5 0.0000 0.0000 0.0000 0.0000 15.8855 0.0000
# 6 0.0000 0.0000 0.0000 0.0000 0.0000 15.9057
#
#
#
# Elastic Compliance Matrix: (Units=1/GPa)
#
#
# Indices 1 2 3 4 5 6 
#
# 1 0.012593 -0.002180 -0.007979 0.000000 0.000000 0.000000
# 2 -0.002180 0.009619 -0.002512 0.000000 0.000000 0.000000
# 3 -0.007979 -0.002512 0.021881 0.000000 0.000000 0.000000
# 4 0.000000 0.000000 0.000000 0.048940 0.000000 0.000000
# 5 0.000000 0.000000 0.000000 0.000000 0.062950 0.000000
# 6 0.000000 0.000000 0.000000 0.000000 0.000000 0.062870
#
#
# Mechanical properties :
#
#
# Convention : Reuss Voigt Hill
#
# Bulk Modulus (GPa) = 53.33127 58.49820 55.91473
# Shear Modulus (GPa) = 19.96436 23.02288 21.49362
#
# Velocity S-wave (km/s) = 3.42686 3.68000 3.55568
# Velocity P-wave (km/s) = 6.85770 7.24335 7.05316
#
# Compressibility (1/GPa) = 0.01875073
#
# Stress axis : x y z
#
# Youngs Moduli (GPa) = 79.40709 103.96495 45.70184
#
# Poissons Ratio (x) = 0.22665 0.36466
# Poissons Ratio (y) = 0.17312 0.11480
# Poissons Ratio (z) = 0.63359 0.26115
#
# Static dielectric constant tensor:
#      x y z
#    x 2.966320 0.000000 0.000000 
#    y 0.000000 3.584240 0.000000 
#    z 0.000000 0.000000 2.984960 
# 
# 
# High freq. dielectric constant tensor:
#      x y z
#    x 1.634530 0.000000 0.000000 
#    y 0.000000 1.665990 0.000000 
#    z 0.000000 0.000000 1.637690 
# 
# From -- ./inp_files/51721.got.cif
#   From: 2010.03.12/outbox.cif.g09.slc.cpg/sg74_26_cif.got.tgz:51721.got - 2010.04.16 15:46:19.
