data_PCOD8298430
_publ_section_title
;
Structure prediction by ZEFSAII (Michael W. Deem and Ramdas Pophale) SiO2 
 PCOD8298430
Probable space group: I M M A
;
_chemical_formula_sum "Si O2"
_cell_formula_units_Z 112
_cell_length_a 27.931523
_cell_length_b 13.976029
_cell_length_c 13.323524
_cell_angle_alpha 90.000000
_cell_angle_beta 90.000000
_cell_angle_gamma 90.000000
_cell_volume 5201.127719
_symmetry_space_group_name_H-M "I M M A"
_symmetry_group_IT_number 74
_symmetry_cell_setting 'orthorhombic'
loop_
_space_group_symop_operation_xyz
x,y,z
-x,1/2-y,z
x,-y,-z
-x,1/2+y,-z
-x,-y,-z
x,1/2+y,-z
-x,y,z
x,1/2-y,z
1/2+x,1/2+y,1/2+z
1/2-x,-y,1/2+z
1/2+x,1/2-y,1/2-z
1/2-x,y,1/2-z
1/2-x,1/2-y,1/2-z
1/2+x,y,1/2-z
1/2-x,1/2+y,1/2+z
1/2+x,-y,1/2+z
loop_
_atom_site_type_symbol
_atom_site_label
_atom_site_fract_x
_atom_site_fract_y
_atom_site_fract_z
Si Si1 0.287950 0.139252 0.141205
Si Si2 0.215519 0.513729 0.116758
Si Si3 0.641744 0.858705 0.270937
Si Si4 0.607262 0.358766 0.182219
Si Si5 0.446880 0.143670 0.981797
Si Si6 0.946106 0.540204 0.278270
Si Si7 0.299691 0.357991 0.917047
O O1 0.274451 0.250000 0.148809
O O2 0.237473 0.084661 0.166537
O O3 0.336469 0.116242 0.203608
O O4 0.305038 0.104663 0.030369
O O5 0.169412 0.558974 0.168613
O O6 0.258124 0.586419 0.139446
O O7 0.202905 0.500000 0.000000
O O8 0.652469 0.750000 0.308804
O O9 0.585598 0.882596 0.282786
O O10 0.652865 0.869077 0.151223
O O11 0.596608 0.250000 0.218546
O O12 0.574823 0.433932 0.242876
O O13 0.594623 0.367556 0.064204
O O14 0.500000 0.134598 0.032437
O O15 0.441867 0.250000 0.932588
O O16 0.442943 0.062464 0.896967
O O17 0.000000 0.546623 0.237309
O O18 0.282225 0.250000 0.921723
#
# Coordination Sequence:
#
# PCOD8298430 Si02
#       7
#    16  16  16  16  16  16  16
#     4   9  18  32  50  74 106 142 178 213 250 299
#     4  10  20  34  53  77 106 137 171 211 259 313
#     4  11  22  36  57  83 109 137 172 216 266 318
#     4  10  19  31  48  72 106 150 191 218 246 298
#     4   9  17  29  46  71 105 145 188 228 263 304
#     4  11  22  34  50  74 105 140 179 227 278 319
#     4   9  17  30  51  80 110 139 171 211 258 306
#
# _framework density 21.533792999999999
#
# number of rings (size 3 to 8) (size 9 to 14) (size 15 to 20)
#    0.000    2.143    0.000    3.857    0.000    9.143 
#    0.000    0.714    0.000    3.857    0.000    0.000 
#    0.000    0.000    0.000    0.000    0.000    0.000 
#
# Total GULP energy -693893.254858 kJ/mol
# GULP energy per Si atom -12390.950980 kJ/mol
# Density = 2.148478 g / cm^3
# Si number density = 21.533793 Si / 1000 Ang^3
#
#
#
# Elastic Constant Matrix: (Units=GPa)
#
#
# Indices 1 2 3 4 5 6 
#
# 1 156.5794 54.0018 20.6927 0.0000 0.0000 0.0000
# 2 54.0018 95.2760 12.8153 0.0000 0.0000 0.0000
# 3 20.6927 12.8153 29.4924 0.0000 0.0000 0.0000
# 4 0.0000 0.0000 0.0000 17.7856 0.0000 0.0000
# 5 0.0000 0.0000 0.0000 0.0000 22.0699 0.0000
# 6 0.0000 0.0000 0.0000 0.0000 0.0000 23.0262
#
#
#
# Elastic Compliance Matrix: (Units=1/GPa)
#
#
# Indices 1 2 3 4 5 6 
#
# 1 0.008370 -0.004200 -0.004048 0.000000 0.000000 0.000000
# 2 -0.004200 0.013254 -0.002813 0.000000 0.000000 0.000000
# 3 -0.004048 -0.002813 0.037969 0.000000 0.000000 0.000000
# 4 0.000000 0.000000 0.000000 0.056225 0.000000 0.000000
# 5 0.000000 0.000000 0.000000 0.000000 0.045311 0.000000
# 6 0.000000 0.000000 0.000000 0.000000 0.000000 0.043429
#
#
# Mechanical properties :
#
#
# Convention : Reuss Voigt Hill
#
# Bulk Modulus (GPa) = 26.68566 50.70748 38.69657
# Shear Modulus (GPa) = 20.90568 25.49888 23.20228
#
# Velocity S-wave (km/s) = 3.11920 3.44486 3.28606
# Velocity P-wave (km/s) = 5.03904 6.27867 5.69270
#
# Compressibility (1/GPa) = 0.03747331
#
# Stress axis : x y z
#
# Youngs Moduli (GPa) = 119.47714 75.44638 26.33706
#
# Poissons Ratio (x) = 0.31684 0.10660
# Poissons Ratio (y) = 0.50175 0.07408
# Poissons Ratio (z) = 0.48360 0.21223
#
# Static dielectric constant tensor:
#      x y z
#    x 3.994800 0.000000 0.000000 
#    y 0.000000 4.195940 0.000000 
#    z 0.000000 0.000000 3.450970 
# 
# 
# High freq. dielectric constant tensor:
#      x y z
#    x 1.845030 0.000000 0.000000 
#    y 0.000000 1.870320 0.000000 
#    z 0.000000 0.000000 1.776100 
# 
# From -- ./inp_files/37422.got.cif
#   From: 2010.03.12/outbox.cif.g09.slc.cpg/sg74_19_cif.got.tgz:37422.got - 2010.04.16 15:46:19.
