data_PCOD8298702
_publ_section_title
;
Structure prediction by ZEFSAII (Michael W. Deem and Ramdas Pophale) SiO2 
 PCOD8298702
Probable space group: I M M A
;
_chemical_formula_sum "Si O2"
_cell_formula_units_Z 104
_cell_length_a 9.069961
_cell_length_b 20.155483
_cell_length_c 32.087949
_cell_angle_alpha 90.000000
_cell_angle_beta 90.000000
_cell_angle_gamma 90.000000
_cell_volume 5865.980140
_symmetry_space_group_name_H-M "I M M A"
_symmetry_group_IT_number 74
_symmetry_cell_setting 'orthorhombic'
loop_
_space_group_symop_operation_xyz
x,y,z
-x,1/2-y,z
x,-y,-z
-x,1/2+y,-z
-x,-y,-z
x,1/2+y,-z
-x,y,z
x,1/2-y,z
1/2+x,1/2+y,1/2+z
1/2-x,-y,1/2+z
1/2+x,1/2-y,1/2-z
1/2-x,y,1/2-z
1/2-x,1/2-y,1/2-z
1/2+x,y,1/2-z
1/2-x,1/2+y,1/2+z
1/2+x,-y,1/2+z
loop_
_atom_site_type_symbol
_atom_site_label
_atom_site_fract_x
_atom_site_fract_y
_atom_site_fract_z
Si Si1 0.830357 0.018168 0.792879
Si Si2 0.325874 0.325461 0.478957
Si Si3 0.171049 0.421803 0.414969
Si Si4 0.331120 0.750000 0.707826
Si Si5 0.671686 0.942280 0.123729
Si Si6 0.832044 0.883688 0.835196
Si Si7 0.168783 0.825080 0.435532
O O1 0.750000 0.038760 0.750000
O O2 0.815095 0.939211 0.799503
O O3 0.000000 0.040119 0.789144
O O4 0.761899 0.054088 0.833313
O O5 0.500000 0.331643 0.477391
O O6 0.277765 0.250000 0.465527
O O7 0.260782 0.383258 0.450220
O O8 0.272335 0.340281 0.525456
O O9 0.211633 0.500095 0.410231
O O10 0.212225 0.391669 0.370758
O O11 0.000000 0.411226 0.424789
O O12 0.500000 0.750000 0.719079
O O13 0.250000 0.750000 0.750000
O O14 0.285010 0.686183 0.682436
O O15 0.500000 0.947718 0.135485
O O16 0.713209 0.872687 0.102505
O O17 0.000000 0.884221 0.852892
O O18 0.190936 0.750000 0.419629
O O19 0.000000 0.838016 0.449286
#
# Coordination Sequence:
#
# PCOD8298702 Si02
#       7
#    16  16  16   8  16  16  16
#     4  10  19  32  52  75 101 133 169 208 250 301
#     4  10  21  35  51  72 102 139 175 213 254 297
#     4  10  20  33  50  73 101 133 171 212 253 299
#     4  10  20  32  46  64  90 124 164 210 256 300
#     4   9  19  35  54  78 106 133 164 207 257 303
#     4   9  19  33  47  67  96 131 168 209 257 300
#     4   9  18  35  58  80 102 131 167 205 249 306
#
# _framework density 17.729346
#
# number of rings (size 3 to 8) (size 9 to 14) (size 15 to 20)
#    0.000    2.462    0.000    1.846    1.077    4.000 
#    0.000    3.077    0.000    0.462    0.000    0.000 
#    0.000    0.000    0.000    0.000    0.000    0.000 
#
# Total GULP energy -644619.422034 kJ/mol
# GULP energy per Si atom -12396.527347 kJ/mol
# Density = 1.768899 g / cm^3
# Si number density = 17.729346 Si / 1000 Ang^3
#
#
#
# Elastic Constant Matrix: (Units=GPa)
#
#
# Indices 1 2 3 4 5 6 
#
# 1 76.4924 47.5362 57.8118 0.0000 0.0000 0.0000
# 2 47.5362 108.4294 66.1002 0.0000 0.0000 0.0000
# 3 57.8118 66.1002 100.1629 0.0000 0.0000 0.0000
# 4 0.0000 0.0000 0.0000 23.1867 0.0000 0.0000
# 5 0.0000 0.0000 0.0000 0.0000 34.1108 0.0000
# 6 0.0000 0.0000 0.0000 0.0000 0.0000 20.4569
#
#
#
# Elastic Compliance Matrix: (Units=1/GPa)
#
#
# Indices 1 2 3 4 5 6 
#
# 1 0.023943 -0.003467 -0.011531 0.000000 0.000000 0.000000
# 2 -0.003467 0.015932 -0.008513 0.000000 0.000000 0.000000
# 3 -0.011531 -0.008513 0.022257 0.000000 0.000000 0.000000
# 4 0.000000 0.000000 0.000000 0.043128 0.000000 0.000000
# 5 0.000000 0.000000 0.000000 0.000000 0.029316 0.000000
# 6 0.000000 0.000000 0.000000 0.000000 0.000000 0.048883
#
#
# Mechanical properties :
#
#
# Convention : Reuss Voigt Hill
#
# Bulk Modulus (GPa) = 66.18252 69.77566 67.97909
# Shear Modulus (GPa) = 21.22964 23.12664 22.17814
#
# Velocity S-wave (km/s) = 3.46414 3.61560 3.54068
# Velocity P-wave (km/s) = 7.30827 7.54133 7.42571
#
# Compressibility (1/GPa) = 0.01510973
#
# Stress axis : x y z
#
# Youngs Moduli (GPa) = 41.76578 62.76583 44.92906
#
# Poissons Ratio (x) = 0.21762 0.51809
# Poissons Ratio (y) = 0.14481 0.38248
# Poissons Ratio (z) = 0.48162 0.53432
#
# Static dielectric constant tensor:
#      x y z
#    x 3.308390 0.000000 0.000000 
#    y 0.000000 4.828310 0.000000 
#    z 0.000000 0.000000 3.096780 
# 
# 
# High freq. dielectric constant tensor:
#      x y z
#    x 1.691770 0.000000 0.000000 
#    y 0.000000 1.680140 0.000000 
#    z 0.000000 0.000000 1.676080 
# 
# From -- ./inp_files/64470.got.cif
#   From: 2010.03.12/outbox.cif.g09.slc.cpg/sg74_33_cif.got.tgz:64470.got - 2010.04.16 15:46:19.
