data_PCOD8298879
_publ_section_title
;
Structure prediction by ZEFSAII (Michael W. Deem and Ramdas Pophale) SiO2 
 PCOD8298879
Probable space group: I M M A
;
_chemical_formula_sum "Si O2"
_cell_formula_units_Z 104
_cell_length_a 8.899061
_cell_length_b 19.967636
_cell_length_c 32.553761
_cell_angle_alpha 90.000000
_cell_angle_beta 90.000000
_cell_angle_gamma 90.000000
_cell_volume 5784.582315
_symmetry_space_group_name_H-M "I M M A"
_symmetry_group_IT_number 74
_symmetry_cell_setting 'orthorhombic'
loop_
_space_group_symop_operation_xyz
x,y,z
-x,1/2-y,z
x,-y,-z
-x,1/2+y,-z
-x,-y,-z
x,1/2+y,-z
-x,y,z
x,1/2-y,z
1/2+x,1/2+y,1/2+z
1/2-x,-y,1/2+z
1/2+x,1/2-y,1/2-z
1/2-x,y,1/2-z
1/2-x,1/2-y,1/2-z
1/2+x,y,1/2-z
1/2-x,1/2+y,1/2+z
1/2+x,-y,1/2+z
loop_
_atom_site_type_symbol
_atom_site_label
_atom_site_fract_x
_atom_site_fract_y
_atom_site_fract_z
Si Si1 0.677619 0.326647 0.982864
Si Si2 0.327909 0.615816 0.334156
Si Si3 0.326883 0.827650 0.569299
Si Si4 0.674898 0.250000 0.707352
Si Si5 0.824443 0.573101 0.413573
Si Si6 0.825963 0.021008 0.206802
Si Si7 0.678695 0.435821 0.122964
O O1 0.500000 0.334189 0.989293
O O2 0.715908 0.250000 0.968712
O O3 0.742885 0.382239 0.950880
O O4 0.758638 0.344128 0.025098
O O5 0.500000 0.617394 0.349796
O O6 0.271311 0.684909 0.316169
O O7 0.216193 0.608736 0.371655
O O8 0.307261 0.558454 0.299949
O O9 0.500000 0.849911 0.569624
O O10 0.308309 0.750000 0.580071
O O11 0.235864 0.866875 0.604052
O O12 0.500000 0.250000 0.714349
O O13 0.750000 0.250000 0.750000
O O14 0.768055 0.495940 0.408238
O O15 0.000000 0.573402 0.420101
O O16 0.750000 0.041415 0.250000
O O17 0.748451 0.058064 0.168398
O O18 0.000000 0.042361 0.208403
O O19 0.500000 0.435963 0.127592
#
# Coordination Sequence:
#
# PCOD8298879 Si02
#       7
#    16  16  16   8  16  16  16
#     4   9  18  33  52  74 103 140 180 218 257 304
#     4   9  19  32  46  67  98 134 172 217 265 309
#     4  10  21  37  56  79 105 134 170 210 255 310
#     4  10  20  32  44  64  92 128 174 220 266 312
#     4   9  19  33  50  75 103 134 176 219 259 303
#     4  10  19  33  53  76 103 135 172 213 257 307
#     4  10  20  35  55  79 107 137 171 212 259 310
#
# _framework density 17.978825000000001
#
# number of rings (size 3 to 8) (size 9 to 14) (size 15 to 20)
#    0.000    2.462    0.000    1.846    1.077    4.000 
#    0.000    3.077    0.000    0.462    0.000    0.000 
#    0.000    0.000    0.000    0.000    0.000    0.000 
#
# Total GULP energy -644558.362026 kJ/mol
# GULP energy per Si atom -12395.353116 kJ/mol
# Density = 1.793790 g / cm^3
# Si number density = 17.978825 Si / 1000 Ang^3
#
#
#
# Elastic Constant Matrix: (Units=GPa)
#
#
# Indices 1 2 3 4 5 6 
#
# 1 48.0559 32.8931 43.5198 0.0000 0.0000 0.0000
# 2 32.8931 82.4861 62.8691 0.0000 0.0000 0.0000
# 3 43.5198 62.8691 111.6109 0.0000 0.0000 0.0000
# 4 0.0000 0.0000 0.0000 -24.3869 0.0000 0.0000
# 5 0.0000 0.0000 0.0000 0.0000 33.7107 0.0000
# 6 0.0000 0.0000 0.0000 0.0000 0.0000 23.6410
#
#
#
# Elastic Compliance Matrix: (Units=1/GPa)
#
#
# Indices 1 2 3 4 5 6 
#
# 1 0.033789 -0.006015 -0.009787 0.000000 0.000000 0.000000
# 2 -0.006015 0.022314 -0.010224 0.000000 0.000000 0.000000
# 3 -0.009787 -0.010224 0.018535 0.000000 0.000000 0.000000
# 4 0.000000 0.000000 0.000000 -0.041006 0.000000 0.000000
# 5 0.000000 0.000000 0.000000 0.000000 0.029664 0.000000
# 6 0.000000 0.000000 0.000000 0.000000 0.000000 0.042299
#
#
# Mechanical properties :
#
#
# Convention : Reuss Voigt Hill
#
# Bulk Modulus (GPa) = 44.27377 57.85743 51.06560
# Shear Modulus (GPa) = 30.27040 13.45104 21.86072
#
# Velocity S-wave (km/s) = 4.10771 2.73822 3.49078
# Velocity P-wave (km/s) = 6.86852 6.49984 6.68672
#
# Compressibility (1/GPa) = 0.02258674
#
# Stress axis : x y z
#
# Youngs Moduli (GPa) = 29.59505 44.81432 53.95141
#
# Poissons Ratio (x) = 0.26954 0.52804
# Poissons Ratio (y) = 0.17800 0.55161
# Poissons Ratio (z) = 0.28966 0.45819
#
# Static dielectric constant tensor:
#      x y z
#    x 3.284480 0.000000 0.000000 
#    y 0.000000 3.489090 0.000000 
#    z 0.000000 0.000000 3.227480 
# 
# 
# High freq. dielectric constant tensor:
#      x y z
#    x 1.697770 0.000000 0.000000 
#    y 0.000000 1.689980 0.000000 
#    z 0.000000 0.000000 1.691920 
# 
# From -- ./inp_files/64417.got.cif
#   From: 2010.03.12/outbox.cif.g09.slc.cpg/sg74_33_cif.got.tgz:64417.got - 2010.04.16 15:46:19.
