data_PCOD8298501
_publ_section_title
;
Structure prediction by ZEFSAII (Michael W. Deem and Ramdas Pophale) SiO2 
 PCOD8298501
Probable space group: I M M A
;
_chemical_formula_sum "Si O2"
_cell_formula_units_Z 104
_cell_length_a 25.632536
_cell_length_b 9.034072
_cell_length_c 21.262854
_cell_angle_alpha 90.000000
_cell_angle_beta 90.000000
_cell_angle_gamma 90.000000
_cell_volume 4923.757787
_symmetry_space_group_name_H-M "I M M A"
_symmetry_group_IT_number 74
_symmetry_cell_setting 'orthorhombic'
loop_
_space_group_symop_operation_xyz
x,y,z
-x,1/2-y,z
x,-y,-z
-x,1/2+y,-z
-x,-y,-z
x,1/2+y,-z
-x,y,z
x,1/2-y,z
1/2+x,1/2+y,1/2+z
1/2-x,-y,1/2+z
1/2+x,1/2-y,1/2-z
1/2-x,y,1/2-z
1/2-x,1/2-y,1/2-z
1/2+x,y,1/2-z
1/2-x,1/2+y,1/2+z
1/2+x,-y,1/2+z
loop_
_atom_site_type_symbol
_atom_site_label
_atom_site_fract_x
_atom_site_fract_y
_atom_site_fract_z
Si Si1 0.600523 0.920980 0.875555
Si Si2 0.441768 0.418812 0.651003
Si Si3 0.624086 0.585172 0.560876
Si Si4 0.500000 0.927785 0.068657
Si Si5 0.785814 0.582803 0.837326
Si Si6 0.205780 0.080871 0.436900
Si Si7 0.356130 0.922860 0.245733
O O1 0.583626 0.750000 0.865052
O O2 0.643256 0.932147 0.931060
O O3 0.550755 0.019783 0.893218
O O4 0.629949 0.983742 0.815252
O O5 0.500000 0.457761 0.673529
O O6 0.436170 0.250000 0.630091
O O7 0.428109 0.514103 0.589705
O O8 0.404365 0.454316 0.708765
O O9 0.644200 0.500000 0.500000
O O10 0.610281 0.750000 0.540443
O O11 0.668647 0.577408 0.612238
O O12 0.500000 0.750000 0.063048
O O13 0.500000 0.000000 0.000000
O O14 0.776305 0.750000 0.813007
O O15 0.734590 0.518269 0.873679
O O16 0.802223 0.483296 0.777068
O O17 0.224119 0.250000 0.443975
O O18 0.224359 0.000000 0.500000
O O19 0.349304 0.750000 0.229692
#
# Coordination Sequence:
#
# PCOD8298501 Si02
#       7
#    16  16  16   8  16  16  16
#     4  11  24  42  64  93 125 162 204 250 307 369
#     4   9  19  35  53  73 102 141 186 239 295 349
#     4  10  19  31  50  75 105 142 187 235 289 349
#     4  12  26  46  70  96 128 164 205 254 309 368
#     4   9  19  37  58  83 117 158 198 244 298 356
#     4  10  22  39  62  90 122 159 202 250 304 364
#     4  10  21  37  59  88 119 156 201 250 303 358
#
# _framework density 21.122078999999999
#
# number of rings (size 3 to 8) (size 9 to 14) (size 15 to 20)
#    0.000    2.000    0.000    3.000    1.077    5.538 
#    0.000    3.077    0.000    0.000    0.000    0.000 
#    0.000    0.000    0.000    0.000    0.000    0.000 
#
# Total GULP energy -644771.089294 kJ/mol
# GULP energy per Si atom -12399.444025 kJ/mol
# Density = 2.107400 g / cm^3
# Si number density = 21.122079 Si / 1000 Ang^3
#
#
#
# Elastic Constant Matrix: (Units=GPa)
#
#
# Indices 1 2 3 4 5 6 
#
# 1 102.5702 35.7730 23.6397 0.0000 0.0000 0.0000
# 2 35.7730 122.0988 50.1550 0.0000 0.0000 0.0000
# 3 23.6397 50.1550 90.7504 0.0000 0.0000 0.0000
# 4 0.0000 0.0000 0.0000 37.4848 0.0000 0.0000
# 5 0.0000 0.0000 0.0000 0.0000 17.6819 0.0000
# 6 0.0000 0.0000 0.0000 0.0000 0.0000 27.0874
#
#
#
# Elastic Compliance Matrix: (Units=1/GPa)
#
#
# Indices 1 2 3 4 5 6 
#
# 1 0.010995 -0.002645 -0.001402 0.000000 0.000000 0.000000
# 2 -0.002645 0.011232 -0.005518 0.000000 0.000000 0.000000
# 3 -0.001402 -0.005518 0.014434 0.000000 0.000000 0.000000
# 4 0.000000 0.000000 0.000000 0.026677 0.000000 0.000000
# 5 0.000000 0.000000 0.000000 0.000000 0.056555 0.000000
# 6 0.000000 0.000000 0.000000 0.000000 0.000000 0.036918
#
#
# Mechanical properties :
#
#
# Convention : Reuss Voigt Hill
#
# Bulk Modulus (GPa) = 57.04662 59.39498 58.22080
# Shear Modulus (GPa) = 27.50471 30.17424 28.83947
#
# Velocity S-wave (km/s) = 3.61249 3.78374 3.69910
# Velocity P-wave (km/s) = 6.66834 6.87530 6.77261
#
# Compressibility (1/GPa) = 0.01752952
#
# Stress axis : x y z
#
# Youngs Moduli (GPa) = 90.94859 89.03112 69.27907
#
# Poissons Ratio (x) = 0.23553 0.09713
# Poissons Ratio (y) = 0.24060 0.38232
# Poissons Ratio (z) = 0.12752 0.49132
#
# Static dielectric constant tensor:
#      x y z
#    x 4.102030 0.000000 0.000000 
#    y 0.000000 3.916640 0.000000 
#    z 0.000000 0.000000 3.773430 
# 
# 
# High freq. dielectric constant tensor:
#      x y z
#    x 1.835020 0.000000 0.000000 
#    y 0.000000 1.825840 0.000000 
#    z 0.000000 0.000000 1.829020 
# 
# From -- ./inp_files/55205.got.cif
#   From: 2010.03.12/outbox.cif.g09.slc.cpg/sg74_28_cif.got.tgz:55205.got - 2010.04.16 15:46:19.
