data_PCOD8298434
_publ_section_title
;
Structure prediction by ZEFSAII (Michael W. Deem and Ramdas Pophale) SiO2 
 PCOD8298434
Probable space group: I M M A
;
_chemical_formula_sum "Si O2"
_cell_formula_units_Z 112
_cell_length_a 23.480313
_cell_length_b 10.115718
_cell_length_c 27.533413
_cell_angle_alpha 90.000000
_cell_angle_beta 90.000000
_cell_angle_gamma 90.000000
_cell_volume 6539.742447
_symmetry_space_group_name_H-M "I M M A"
_symmetry_group_IT_number 74
_symmetry_cell_setting 'orthorhombic'
loop_
_space_group_symop_operation_xyz
x,y,z
-x,1/2-y,z
x,-y,-z
-x,1/2+y,-z
-x,-y,-z
x,1/2+y,-z
-x,y,z
x,1/2-y,z
1/2+x,1/2+y,1/2+z
1/2-x,-y,1/2+z
1/2+x,1/2-y,1/2-z
1/2-x,y,1/2-z
1/2-x,1/2-y,1/2-z
1/2+x,y,1/2-z
1/2-x,1/2+y,1/2+z
1/2+x,-y,1/2+z
loop_
_atom_site_type_symbol
_atom_site_label
_atom_site_fract_x
_atom_site_fract_y
_atom_site_fract_z
Si Si1 0.065624 0.597304 0.955560
Si Si2 0.654892 0.595288 0.193346
Si Si3 0.356276 0.105423 0.961409
Si Si4 0.333692 0.599757 0.617015
Si Si5 0.756774 0.894114 0.385042
Si Si6 0.562396 0.406864 0.881724
Si Si7 0.185702 0.398325 0.230643
O O1 0.073448 0.750000 0.972560
O O2 0.105060 0.568986 0.908024
O O3 0.000000 0.570909 0.940216
O O4 0.082975 0.500000 0.000000
O O5 0.648632 0.750000 0.206030
O O6 0.715933 0.567965 0.167247
O O7 0.603460 0.540654 0.160378
O O8 0.649414 0.509006 0.241736
O O9 0.365361 0.250000 0.985709
O O10 0.308685 0.118176 0.921151
O O11 0.413759 0.054818 0.934984
O O12 0.335909 0.000000 0.000000
O O13 0.315739 0.750000 0.605341
O O14 0.287263 0.501307 0.594070
O O15 0.329207 0.573019 0.674447
O O16 0.726562 0.750000 0.381160
O O17 0.500000 0.470395 0.875408
O O18 0.560401 0.250000 0.878103
O O19 0.164641 0.250000 0.242942
O O20 0.250000 0.412606 0.250000
#
# Coordination Sequence:
#
# PCOD8298434 Si02
#       7
#    16  16  16  16  16  16  16
#     4   9  19  37  58  76  97 128 165 204 247 295
#     4   9  17  30  49  71  94 126 166 201 236 282
#     4   9  18  31  46  67  94 125 159 199 247 291
#     4  10  20  33  51  76 101 129 163 195 238 294
#     4   9  18  31  46  67  97 128 160 198 241 287
#     4   8  15  30  50  68  90 124 164 203 242 285
#     4  10  19  31  48  73 105 134 159 192 237 289
#
# _framework density 17.126055999999998
#
# number of rings (size 3 to 8) (size 9 to 14) (size 15 to 20)
#    0.000    2.857    1.429    1.714    0.000    2.857 
#    0.000    5.714    0.000    2.143    0.000    0.000 
#    0.000    0.000    0.000    0.000    0.000    0.000 
#
# Total GULP energy -693813.171420 kJ/mol
# GULP energy per Si atom -12389.520918 kJ/mol
# Density = 1.708708 g / cm^3
# Si number density = 17.126056 Si / 1000 Ang^3
#
#
#
# Elastic Constant Matrix: (Units=GPa)
#
#
# Indices 1 2 3 4 5 6 
#
# 1 82.0300 42.8783 32.3923 0.0000 0.0000 0.0000
# 2 42.8783 82.6783 46.8826 0.0000 0.0000 0.0000
# 3 32.3923 46.8826 82.6033 0.0000 0.0000 0.0000
# 4 0.0000 0.0000 0.0000 26.1309 0.0000 0.0000
# 5 0.0000 0.0000 0.0000 0.0000 18.2710 0.0000
# 6 0.0000 0.0000 0.0000 0.0000 0.0000 15.5711
#
#
#
# Elastic Compliance Matrix: (Units=1/GPa)
#
#
# Indices 1 2 3 4 5 6 
#
# 1 0.017057 -0.007451 -0.002460 0.000000 0.000000 0.000000
# 2 -0.007451 0.021090 -0.009048 0.000000 0.000000 0.000000
# 3 -0.002460 -0.009048 0.018206 0.000000 0.000000 0.000000
# 4 0.000000 0.000000 0.000000 0.038269 0.000000 0.000000
# 5 0.000000 0.000000 0.000000 0.000000 0.054731 0.000000
# 6 0.000000 0.000000 0.000000 0.000000 0.000000 0.064222
#
#
# Mechanical properties :
#
#
# Convention : Reuss Voigt Hill
#
# Bulk Modulus (GPa) = 54.24459 54.62422 54.43440
# Shear Modulus (GPa) = 19.40712 20.33850 19.87281
#
# Velocity S-wave (km/s) = 3.36994 3.44986 3.41014
# Velocity P-wave (km/s) = 6.84723 6.91617 6.88178
#
# Compressibility (1/GPa) = 0.01843502
#
# Stress axis : x y z
#
# Youngs Moduli (GPa) = 58.62771 47.41579 54.92719
#
# Poissons Ratio (x) = 0.35330 0.13510
# Poissons Ratio (y) = 0.43684 0.49698
# Poissons Ratio (z) = 0.14421 0.42902
#
# Static dielectric constant tensor:
#      x y z
#    x 3.285460 0.000000 0.000000 
#    y 0.000000 3.358540 0.000000 
#    z 0.000000 0.000000 3.149070 
# 
# 
# High freq. dielectric constant tensor:
#      x y z
#    x 1.644430 0.000000 0.000000 
#    y 0.000000 1.658200 0.000000 
#    z 0.000000 0.000000 1.649560 
# 
# From -- ./inp_files/54701.got.cif
#   From: 2010.03.12/outbox.cif.g09.slc.cpg/sg74_28_cif.got.tgz:54701.got - 2010.04.16 15:46:19.
