data_PCOD8298323
_publ_section_title
;
Structure prediction by ZEFSAII (Michael W. Deem and Ramdas Pophale) SiO2 
 PCOD8298323
Probable space group: I M M A
;
_chemical_formula_sum "Si O2"
_cell_formula_units_Z 80
_cell_length_a 8.788148
_cell_length_b 27.807575
_cell_length_c 17.967049
_cell_angle_alpha 90.000000
_cell_angle_beta 90.000000
_cell_angle_gamma 90.000000
_cell_volume 4390.735054
_symmetry_space_group_name_H-M "I M M A"
_symmetry_group_IT_number 74
_symmetry_cell_setting 'orthorhombic'
loop_
_space_group_symop_operation_xyz
x,y,z
-x,1/2-y,z
x,-y,-z
-x,1/2+y,-z
-x,-y,-z
x,1/2+y,-z
-x,y,z
x,1/2-y,z
1/2+x,1/2+y,1/2+z
1/2-x,-y,1/2+z
1/2+x,1/2-y,1/2-z
1/2-x,y,1/2-z
1/2-x,1/2-y,1/2-z
1/2+x,y,1/2-z
1/2-x,1/2+y,1/2+z
1/2+x,-y,1/2+z
loop_
_atom_site_type_symbol
_atom_site_label
_atom_site_fract_x
_atom_site_fract_y
_atom_site_fract_z
Si Si1 0.322462 0.059918 0.404002
Si Si2 0.323187 0.958652 0.329979
Si Si3 0.319172 0.101214 0.951865
Si Si4 0.320100 0.853089 0.826267
Si Si5 0.179888 0.302579 0.475155
O O1 0.500000 0.071961 0.409621
O O2 0.247182 0.066527 0.484556
O O3 0.245762 0.094150 0.342860
O O4 0.292936 0.005714 0.378861
O O5 0.500000 0.947691 0.320191
O O6 0.250000 0.965335 0.250000
O O7 0.245376 0.913789 0.371873
O O8 0.500000 0.096867 0.953469
O O9 0.265155 0.156319 0.967335
O O10 0.500000 0.857332 0.819150
O O11 0.250000 0.832944 0.750000
O O12 0.269919 0.816923 0.891736
O O13 0.250179 0.250000 0.495019
O O14 0.000000 0.299485 0.478112
#
# Coordination Sequence:
#
# PCOD8298323 Si02
#       5
#    16  16  16  16  16
#     4  10  20  34  52  74 103 139 174 206 242 289
#     4  11  23  36  52  75 104 136 169 207 250 296
#     4  10  20  34  55  79 103 133 167 206 250 297
#     4  10  19  30  47  72 103 138 172 209 250 292
#     4   8  16  32  52  73  97 128 167 208 252 301
#
# _framework density 18.220185000000001
#
# number of rings (size 3 to 8) (size 9 to 14) (size 15 to 20)
#    0.000    2.200    0.000    4.800    0.000    7.600 
#    0.000    0.000    0.000   21.600    0.000    0.000 
#    0.000    0.000    0.000    0.000    0.000    0.000 
#
# Total GULP energy -495992.455463 kJ/mol
# GULP energy per Si atom -12399.811387 kJ/mol
# Density = 1.817871 g / cm^3
# Si number density = 18.220185 Si / 1000 Ang^3
#
#
#
# Elastic Constant Matrix: (Units=GPa)
#
#
# Indices 1 2 3 4 5 6 
#
# 1 92.1305 48.0396 41.0833 0.0000 0.0000 0.0000
# 2 48.0396 107.9594 33.2220 0.0001 0.0000 0.0000
# 3 41.0833 33.2220 60.0686 0.0003 0.0001 0.0000
# 4 0.0000 0.0001 0.0003 15.9416 0.0000 0.0000
# 5 0.0000 0.0000 0.0001 0.0000 34.6727 0.0000
# 6 0.0000 0.0000 0.0000 0.0000 0.0000 16.6640
#
#
#
# Elastic Compliance Matrix: (Units=1/GPa)
#
#
# Indices 1 2 3 4 5 6 
#
# 1 0.017582 -0.004969 -0.009277 0.000000 0.000000 0.000000
# 2 -0.004969 0.012567 -0.003552 0.000000 0.000000 0.000000
# 3 -0.009277 -0.003552 0.024957 0.000000 0.000000 0.000000
# 4 0.000000 0.000000 0.000000 0.062729 0.000000 0.000000
# 5 0.000000 0.000000 0.000000 0.000000 0.028841 0.000000
# 6 0.000000 0.000000 0.000000 0.000000 0.000000 0.060010
#
#
# Mechanical properties :
#
#
# Convention : Reuss Voigt Hill
#
# Bulk Modulus (GPa) = 51.25475 56.09427 53.67451
# Shear Modulus (GPa) = 20.09776 22.64321 21.37049
#
# Velocity S-wave (km/s) = 3.32482 3.52910 3.42848
# Velocity P-wave (km/s) = 6.55218 6.88910 6.72275
#
# Compressibility (1/GPa) = 0.01951039
#
# Stress axis : x y z
#
# Youngs Moduli (GPa) = 56.87687 79.57486 40.06905
#
# Poissons Ratio (x) = 0.39539 0.37171
# Poissons Ratio (y) = 0.28261 0.14232
# Poissons Ratio (z) = 0.52764 0.28264
#
# Static dielectric constant tensor:
#      x y z
#    x 3.330720 0.000000 0.000000 
#    y 0.000000 3.617010 0.000000 
#    z 0.000000 0.000000 3.301340 
# 
# 
# High freq. dielectric constant tensor:
#      x y z
#    x 1.704840 0.000000 0.000000 
#    y 0.000000 1.699120 0.000000 
#    z 0.000000 0.000000 1.695700 
# 
# From -- ./inp_files/39689.got.cif
#   From: 2010.03.12/outbox.cif.g09.slc.cpg/sg74_20_cif.got.tgz:39689.got - 2010.04.16 15:46:19.
