data_PCOD8298276
_publ_section_title
;
Structure prediction by ZEFSAII (Michael W. Deem and Ramdas Pophale) SiO2 
 PCOD8298276
Probable space group: I M M A
;
_chemical_formula_sum "Si O2"
_cell_formula_units_Z 80
_cell_length_a 27.729471
_cell_length_b 9.291252
_cell_length_c 17.784185
_cell_angle_alpha 90.000000
_cell_angle_beta 90.000000
_cell_angle_gamma 90.000000
_cell_volume 4581.944151
_symmetry_space_group_name_H-M "I M M A"
_symmetry_group_IT_number 74
_symmetry_cell_setting 'orthorhombic'
loop_
_space_group_symop_operation_xyz
x,y,z
-x,1/2-y,z
x,-y,-z
-x,1/2+y,-z
-x,-y,-z
x,1/2+y,-z
-x,y,z
x,1/2-y,z
1/2+x,1/2+y,1/2+z
1/2-x,-y,1/2+z
1/2+x,1/2-y,1/2-z
1/2-x,y,1/2-z
1/2-x,1/2-y,1/2-z
1/2+x,y,1/2-z
1/2-x,1/2+y,1/2+z
1/2+x,-y,1/2+z
loop_
_atom_site_type_symbol
_atom_site_label
_atom_site_fract_x
_atom_site_fract_y
_atom_site_fract_z
Si Si1 0.403597 0.080886 0.928696
Si Si2 0.289803 0.581030 0.577013
Si Si3 0.554356 0.582352 0.230761
Si Si4 0.684158 0.083338 0.131255
Si Si5 0.858760 0.916513 0.790664
O O1 0.400563 0.250000 0.944523
O O2 0.435865 0.044301 0.856301
O O3 0.349980 0.018080 0.918138
O O4 0.427523 0.000000 0.000000
O O5 0.299702 0.500000 0.500000
O O6 0.292679 0.750000 0.561988
O O7 0.238396 0.538760 0.611928
O O8 0.330542 0.530508 0.635704
O O9 0.500000 0.534948 0.250402
O O10 0.562355 0.750000 0.244648
O O11 0.590770 0.500040 0.285476
O O12 0.673574 0.250000 0.111625
O O13 0.675392 0.052970 0.219229
O O14 0.871881 0.750000 0.796243
#
# Coordination Sequence:
#
# PCOD8298276 Si02
#       5
#    16  16  16  16  16
#     4  10  19  30  45  68  99 131 162 196 232 274
#     4  10  20  32  48  72 101 130 159 193 234 280
#     4   9  19  35  52  70  93 122 157 199 246 289
#     4   9  17  31  50  70  96 131 165 194 228 273
#     4   9  18  33  52  73  96 124 160 199 236 278
#
# _framework density 17.459837
#
# number of rings (size 3 to 8) (size 9 to 14) (size 15 to 20)
#    0.000    2.600    0.000    1.800    0.000    7.200 
#    0.000    0.000    0.000    6.600    0.000    0.000 
#    0.000    0.000    0.000    0.000    0.000    0.000 
#
# Total GULP energy -496058.847173 kJ/mol
# GULP energy per Si atom -12401.471179 kJ/mol
# Density = 1.742010 g / cm^3
# Si number density = 17.459837 Si / 1000 Ang^3
#
#
#
# Elastic Constant Matrix: (Units=GPa)
#
#
# Indices 1 2 3 4 5 6 
#
# 1 108.0142 36.1339 46.7436 0.0000 0.0000 0.0000
# 2 36.1339 50.1692 32.0548 0.0000 0.0000 0.0000
# 3 46.7436 32.0548 88.6251 0.0000 0.0000 0.0000
# 4 0.0000 0.0000 0.0000 31.4315 0.0000 0.0000
# 5 0.0000 0.0000 0.0000 0.0000 14.5497 0.0000
# 6 0.0000 0.0000 0.0000 0.0000 0.0000 27.1674
#
#
#
# Elastic Compliance Matrix: (Units=1/GPa)
#
#
# Indices 1 2 3 4 5 6 
#
# 1 0.013554 -0.006756 -0.004705 0.000000 0.000000 0.000000
# 2 -0.006756 0.029291 -0.007031 0.000000 0.000000 0.000000
# 3 -0.004705 -0.007031 0.016308 0.000000 0.000000 0.000000
# 4 0.000000 0.000000 0.000000 0.031815 0.000000 0.000000
# 5 0.000000 0.000000 0.000000 0.000000 0.068730 0.000000
# 6 0.000000 0.000000 0.000000 0.000000 0.000000 0.036809
#
#
# Mechanical properties :
#
#
# Convention : Reuss Voigt Hill
#
# Bulk Modulus (GPa) = 45.10828 52.96367 49.03597
# Shear Modulus (GPa) = 20.75708 23.42147 22.08928
#
# Velocity S-wave (km/s) = 3.45171 3.66655 3.56075
# Velocity P-wave (km/s) = 6.46353 6.95164 6.71202
#
# Compressibility (1/GPa) = 0.02216888
#
# Stress axis : x y z
#
# Youngs Moduli (GPa) = 73.77673 34.14051 61.31856
#
# Poissons Ratio (x) = 0.23065 0.28853
# Poissons Ratio (y) = 0.49843 0.43112
# Poissons Ratio (z) = 0.34715 0.24004
#
# Static dielectric constant tensor:
#      x y z
#    x 3.210120 0.000000 0.000000 
#    y 0.000000 3.203000 0.000000 
#    z 0.000000 0.000000 3.247260 
# 
# 
# High freq. dielectric constant tensor:
#      x y z
#    x 1.665920 0.000000 0.000000 
#    y 0.000000 1.672130 0.000000 
#    z 0.000000 0.000000 1.664910 
# 
# From -- ./inp_files/39690.got.cif
#   From: 2010.03.12/outbox.cif.g09.slc.cpg/sg74_20_cif.got.tgz:39690.got - 2010.04.16 15:46:19.
