data_PCOD8298165
_publ_section_title
;
Structure prediction by ZEFSAII (Michael W. Deem and Ramdas Pophale) SiO2 
 PCOD8298165
Probable space group: I M M A
;
_chemical_formula_sum "Si O2"
_cell_formula_units_Z 96
_cell_length_a 28.391747
_cell_length_b 8.745624
_cell_length_c 29.141842
_cell_angle_alpha 90.000000
_cell_angle_beta 90.000000
_cell_angle_gamma 90.000000
_cell_volume 7236.022646
_symmetry_space_group_name_H-M "I M M A"
_symmetry_group_IT_number 74
_symmetry_cell_setting 'orthorhombic'
loop_
_space_group_symop_operation_xyz
x,y,z
-x,1/2-y,z
x,-y,-z
-x,1/2+y,-z
-x,-y,-z
x,1/2+y,-z
-x,y,z
x,1/2-y,z
1/2+x,1/2+y,1/2+z
1/2-x,-y,1/2+z
1/2+x,1/2-y,1/2-z
1/2-x,y,1/2-z
1/2-x,1/2-y,1/2-z
1/2+x,y,1/2-z
1/2-x,1/2+y,1/2+z
1/2+x,-y,1/2+z
loop_
_atom_site_type_symbol
_atom_site_label
_atom_site_fract_x
_atom_site_fract_y
_atom_site_fract_z
Si Si1 0.596826 0.929937 0.548692
Si Si2 0.314371 0.426286 0.227695
Si Si3 0.765264 0.574242 0.187154
Si Si4 0.601481 0.570254 0.715232
Si Si5 0.650674 0.573998 0.371578
Si Si6 0.500000 0.929724 0.694953
Si Si7 0.000000 0.432167 0.092043
O O1 0.595354 0.750000 0.543924
O O2 0.546360 0.993918 0.566016
O O3 0.609774 0.000000 0.500000
O O4 0.637750 0.974885 0.584231
O O5 0.308722 0.250000 0.214841
O O6 0.290338 0.524620 0.186091
O O7 0.288284 0.463293 0.275342
O O8 0.369412 0.467341 0.237885
O O9 0.769741 0.750000 0.202848
O O10 0.793311 0.550166 0.139383
O O11 0.606280 0.750000 0.703255
O O12 0.620435 0.475739 0.672236
O O13 0.546954 0.520905 0.722730
O O14 0.639566 0.750000 0.382186
O O15 0.500000 0.750000 0.688566
O O16 0.500000 0.000275 0.643600
O O17 0.000000 0.250000 0.092928
#
# Coordination Sequence:
#
# PCOD8298165 Si02
#       7
#    16  16  16  16  16   8   8
#     4  11  21  33  45  56  70  89 115 149 189 227
#     4   9  15  22  35  55  72  88 112 140 170 205
#     4   9  16  25  37  51  70  92 110 133 171 214
#     4   9  16  26  40  54  71  94 118 146 178 213
#     4  10  19  29  40  55  71  89 114 144 180 221
#     4   9  14  25  41  55  70  93 123 149 181 221
#     4   9  17  29  45  57  66  88 118 150 188 227
#
# _framework density 13.266957
#
# number of rings (size 3 to 8) (size 9 to 14) (size 15 to 20)
#    0.000    2.500    1.667    3.250    0.000    2.667 
#    0.000    2.500    0.000    0.000    0.000    0.000 
#    0.000    0.000    0.000    0.000    0.000    0.000 
#
# Total GULP energy -594674.822810 kJ/mol
# GULP energy per Si atom -12389.058809 kJ/mol
# Density = 1.323676 g / cm^3
# Si number density = 13.266957 Si / 1000 Ang^3
#
#
#
# Elastic Constant Matrix: (Units=GPa)
#
#
# Indices 1 2 3 4 5 6 
#
# 1 96.7088 24.1900 50.2395 0.0000 0.0000 0.0000
# 2 24.1900 37.0369 17.6449 0.0000 0.0000 0.0000
# 3 50.2395 17.6449 46.5862 0.0000 0.0000 0.0000
# 4 0.0000 0.0000 0.0000 16.2100 0.0000 0.0000
# 5 0.0000 0.0000 0.0000 0.0000 14.8893 0.0000
# 6 0.0000 0.0000 0.0000 0.0000 0.0000 12.0360
#
#
#
# Elastic Compliance Matrix: (Units=1/GPa)
#
#
# Indices 1 2 3 4 5 6 
#
# 1 0.024008 -0.004082 -0.024345 0.000000 0.000000 0.000000
# 2 -0.004082 0.033639 -0.008339 0.000000 0.000000 0.000000
# 3 -0.024345 -0.008339 0.050878 0.000000 0.000000 0.000000
# 4 0.000000 0.000000 0.000000 0.061690 0.000000 0.000000
# 5 0.000000 0.000000 0.000000 0.000000 0.067162 0.000000
# 6 0.000000 0.000000 0.000000 0.000000 0.000000 0.083084
#
#
# Mechanical properties :
#
#
# Convention : Reuss Voigt Hill
#
# Bulk Modulus (GPa) = 28.57657 40.49784 34.53721
# Shear Modulus (GPa) = 12.32564 14.51090 13.41827
#
# Velocity S-wave (km/s) = 3.05134 3.31080 3.18371
# Velocity P-wave (km/s) = 5.83100 6.72360 6.29315
#
# Compressibility (1/GPa) = 0.03499370
#
# Stress axis : x y z
#
# Youngs Moduli (GPa) = 41.65194 29.72732 19.65488
#
# Poissons Ratio (x) = 0.12136 0.47850
# Poissons Ratio (y) = 0.17004 0.16389
# Poissons Ratio (z) = 1.01401 0.24788
#
# Static dielectric constant tensor:
#      x y z
#    x 3.201510 0.000000 0.000000 
#    y 0.000000 2.639370 0.000000 
#    z 0.000000 0.000000 2.451100 
# 
# 
# High freq. dielectric constant tensor:
#      x y z
#    x 1.500600 0.000000 0.000000 
#    y 0.000000 1.509480 0.000000 
#    z 0.000000 0.000000 1.449750 
# 
# From -- ./inp_files/74007.got.cif
#   From: 2010.03.12/outbox.cif.g09.slc.cpg/sg74_38_cif.got.tgz:74007.got - 2010.04.16 15:46:19.
