data_PCOD8298149
_publ_section_title
;
Structure prediction by ZEFSAII (Michael W. Deem and Ramdas Pophale) SiO2 
 PCOD8298149
Probable space group: I M M A
;
_chemical_formula_sum "Si O2"
_cell_formula_units_Z 120
_cell_length_a 23.013386
_cell_length_b 15.331434
_cell_length_c 22.643842
_cell_angle_alpha 90.000000
_cell_angle_beta 90.000000
_cell_angle_gamma 90.000000
_cell_volume 7989.386208
_symmetry_space_group_name_H-M "I M M A"
_symmetry_group_IT_number 74
_symmetry_cell_setting 'orthorhombic'
loop_
_space_group_symop_operation_xyz
x,y,z
-x,1/2-y,z
x,-y,-z
-x,1/2+y,-z
-x,-y,-z
x,1/2+y,-z
-x,y,z
x,1/2-y,z
1/2+x,1/2+y,1/2+z
1/2-x,-y,1/2+z
1/2+x,1/2-y,1/2-z
1/2-x,y,1/2-z
1/2-x,1/2-y,1/2-z
1/2+x,y,1/2-z
1/2-x,1/2+y,1/2+z
1/2+x,-y,1/2+z
loop_
_atom_site_type_symbol
_atom_site_label
_atom_site_fract_x
_atom_site_fract_y
_atom_site_fract_z
Si Si1 0.847135 0.925430 0.957986
Si Si2 0.826877 0.150593 0.425959
Si Si3 0.629874 0.146201 0.256249
Si Si4 0.250000 0.048502 0.250000
Si Si5 0.753057 0.497164 0.122540
Si Si6 0.436456 0.351825 0.141416
Si Si7 0.254761 0.651732 0.035871
Si Si8 0.064712 0.647969 0.872190
O O1 0.815677 0.969181 0.901876
O O2 0.900539 0.869937 0.932932
O O3 0.801698 0.868020 0.995749
O O4 0.873382 0.000000 0.000000
O O5 0.812246 0.250000 0.404607
O O6 0.790532 0.082837 0.387587
O O7 0.894981 0.129919 0.415080
O O8 0.811897 0.140772 0.495007
O O9 0.634327 0.250000 0.256605
O O10 0.694399 0.110217 0.251184
O O11 0.592728 0.110462 0.200852
O O12 0.598660 0.110327 0.315385
O O13 0.246927 0.985639 0.192629
O O14 0.734979 0.586362 0.089948
O O15 0.500000 0.395310 0.130945
O O16 0.445032 0.250000 0.150782
O O17 0.249271 0.750000 0.060519
O O18 0.058599 0.750000 0.864391
O O19 0.000000 0.606253 0.875912
#
# Coordination Sequence:
#
# PCOD8298149 Si02
#       8
#    16  16  16   8  16  16  16  16
#     4   9  17  30  46  65  88 113 143 180 224 269
#     4   9  16  27  45  68  91 120 147 173 213 265
#     4  10  19  28  40  61  92 124 149 174 211 259
#     4  12  19  28  45  66  86 116 144 192 224 258
#     4  10  19  30  45  67  91 114 147 188 226 265
#     4   9  16  26  40  62  93 125 150 170 201 253
#     4   9  18  32  49  65  86 116 148 186 234 271
#     4  10  19  29  41  60  89 123 153 178 207 254
#
# _framework density 15.019926999999999
#
# number of rings (size 3 to 8) (size 9 to 14) (size 15 to 20)
#    0.000    2.400    2.667    2.200    0.000    2.933 
#    0.000    0.333    0.000    1.600    0.000    0.000 
#    0.000    0.000    0.000    3.467    0.000    0.000 
#
# Total GULP energy -743586.031446 kJ/mol
# GULP energy per Si atom -12393.100524 kJ/mol
# Density = 1.498574 g / cm^3
# Si number density = 15.019927 Si / 1000 Ang^3
#
#
#
# Elastic Constant Matrix: (Units=GPa)
#
#
# Indices 1 2 3 4 5 6 
#
# 1 111.0355 24.1137 46.0793 0.0000 0.0000 0.0000
# 2 24.1137 57.3093 41.1637 0.0000 0.0000 0.0000
# 3 46.0793 41.1637 99.3100 0.0000 0.0000 0.0000
# 4 0.0000 0.0000 0.0000 20.9311 0.0000 0.0000
# 5 0.0000 0.0000 0.0000 0.0000 11.9521 0.0000
# 6 0.0000 0.0000 0.0000 0.0000 0.0000 9.7592
#
#
#
# Elastic Compliance Matrix: (Units=1/GPa)
#
#
# Indices 1 2 3 4 5 6 
#
# 1 0.011232 -0.001399 -0.004632 0.000000 0.000000 0.000000
# 2 -0.001399 0.025021 -0.009722 0.000000 0.000000 0.000000
# 3 -0.004632 -0.009722 0.016248 0.000000 0.000000 0.000000
# 4 0.000000 0.000000 0.000000 0.047776 0.000000 0.000000
# 5 0.000000 0.000000 0.000000 0.000000 0.083667 0.000000
# 6 0.000000 0.000000 0.000000 0.000000 0.000000 0.102467
#
#
# Mechanical properties :
#
#
# Convention : Reuss Voigt Hill
#
# Bulk Modulus (GPa) = 47.62882 54.48534 51.05708
# Shear Modulus (GPa) = 15.38863 18.94836 17.16850
#
# Velocity S-wave (km/s) = 3.20433 3.55568 3.38457
# Velocity P-wave (km/s) = 6.74311 7.29461 7.02427
#
# Compressibility (1/GPa) = 0.02099569
#
# Stress axis : x y z
#
# Youngs Moduli (GPa) = 89.03029 39.96672 61.54533
#
# Poissons Ratio (x) = 0.05593 0.28506
# Poissons Ratio (y) = 0.12458 0.59833
# Poissons Ratio (z) = 0.41236 0.38855
#
# Static dielectric constant tensor:
#      x y z
#    x 3.035080 0.000000 0.000000 
#    y 0.000000 2.618110 0.000000 
#    z 0.000000 0.000000 2.966000 
# 
# 
# High freq. dielectric constant tensor:
#      x y z
#    x 1.574080 0.000000 0.000000 
#    y 0.000000 1.534780 0.000000 
#    z 0.000000 0.000000 1.571390 
# 
# From -- ./inp_files/61744.got.cif
#   From: 2010.03.12/outbox.cif.g09.slc.cpg/sg74_31_cif.got.tgz:61744.got - 2010.04.16 15:46:19.
