data_PCOD8298852
_publ_section_title
;
Structure prediction by ZEFSAII (Michael W. Deem and Ramdas Pophale) SiO2 
 PCOD8298852
Probable space group: I M M A
;
_chemical_formula_sum "Si O2"
_cell_formula_units_Z 96
_cell_length_a 27.459235
_cell_length_b 9.449716
_cell_length_c 19.348873
_cell_angle_alpha 90.000000
_cell_angle_beta 90.000000
_cell_angle_gamma 90.000000
_cell_volume 5020.683728
_symmetry_space_group_name_H-M "I M M A"
_symmetry_group_IT_number 74
_symmetry_cell_setting 'orthorhombic'
loop_
_space_group_symop_operation_xyz
x,y,z
-x,1/2-y,z
x,-y,-z
-x,1/2+y,-z
-x,-y,-z
x,1/2+y,-z
-x,y,z
x,1/2-y,z
1/2+x,1/2+y,1/2+z
1/2-x,-y,1/2+z
1/2+x,1/2-y,1/2-z
1/2-x,y,1/2-z
1/2-x,1/2-y,1/2-z
1/2+x,y,1/2-z
1/2-x,1/2+y,1/2+z
1/2+x,-y,1/2+z
loop_
_atom_site_type_symbol
_atom_site_label
_atom_site_fract_x
_atom_site_fract_y
_atom_site_fract_z
Si Si1 0.802960 0.405078 0.439595
Si Si2 0.299158 0.582030 0.784425
Si Si3 0.944515 0.412374 0.066056
Si Si4 0.602311 0.914860 0.708706
Si Si5 0.555897 0.089853 0.817490
Si Si6 0.914265 0.405863 0.440724
O O1 0.777831 0.500000 0.500000
O O2 0.777270 0.250000 0.439053
O O3 0.800478 0.476882 0.363232
O O4 0.858659 0.382594 0.461242
O O5 0.299299 0.750000 0.788806
O O6 0.250000 0.522865 0.750000
O O7 0.344655 0.534707 0.736386
O O8 0.943065 0.250000 0.043947
O O9 0.905560 0.440563 0.127239
O O10 0.000000 0.454280 0.088053
O O11 0.926788 0.500000 0.000000
O O12 0.592775 0.750000 0.727260
O O13 0.562246 0.016294 0.743465
O O14 0.500000 0.091936 0.839073
O O15 0.576818 0.250000 0.817829
O O16 0.585072 0.989968 0.869431
O O17 0.940693 0.500000 0.500000
O O18 0.939357 0.250000 0.434615
#
# Coordination Sequence:
#
# PCOD8298852 Si02
#       6
#    16  16  16  16  16  16
#     4   9  17  31  52  77 101 134 175 214 258 307
#     4   9  17  32  55  81 106 134 175 222 268 319
#     4   9  18  32  52  77 105 138 174 213 260 317
#     4  10  19  35  56  78 103 137 180 221 263 317
#     4  11  23  35  49  74 106 140 176 216 265 315
#     4  10  19  33  52  74 101 137 179 218 258 305
#
# _framework density 19.120902000000001
#
# number of rings (size 3 to 8) (size 9 to 14) (size 15 to 20)
#    0.000    2.333    1.667    1.500    0.000    3.667 
#    0.000    2.500    0.000    2.000    0.000    0.000 
#    0.000    0.000    0.000    0.000    0.000    0.000 
#
# Total GULP energy -594864.820447 kJ/mol
# GULP energy per Si atom -12393.017093 kJ/mol
# Density = 1.907738 g / cm^3
# Si number density = 19.120902 Si / 1000 Ang^3
#
#
#
# Elastic Constant Matrix: (Units=GPa)
#
#
# Indices 1 2 3 4 5 6 
#
# 1 50.9992 18.8256 39.0954 0.0000 0.0000 0.0000
# 2 18.8256 107.5979 64.4127 0.0000 0.0000 0.0000
# 3 39.0954 64.4127 155.0081 0.0000 0.0000 0.0000
# 4 0.0000 0.0000 0.0000 36.8363 0.0000 0.0000
# 5 0.0000 0.0000 0.0000 0.0000 17.6570 0.0000
# 6 0.0000 0.0000 0.0000 0.0000 0.0000 11.3898
#
#
#
# Elastic Compliance Matrix: (Units=1/GPa)
#
#
# Indices 1 2 3 4 5 6 
#
# 1 0.024357 -0.000777 -0.005820 0.000000 0.000000 0.000000
# 2 -0.000777 0.012396 -0.004955 0.000000 0.000000 0.000000
# 3 -0.005820 -0.004955 0.009978 0.000000 0.000000 0.000000
# 4 0.000000 0.000000 0.000000 0.027147 0.000000 0.000000
# 5 0.000000 0.000000 0.000000 0.000000 0.056635 0.000000
# 6 0.000000 0.000000 0.000000 0.000000 0.000000 0.087798
#
#
# Mechanical properties :
#
#
# Convention : Reuss Voigt Hill
#
# Bulk Modulus (GPa) = 42.32615 62.03032 52.17824
# Shear Modulus (GPa) = 20.05685 25.92806 22.99246
#
# Velocity S-wave (km/s) = 3.24226 3.68639 3.47144
# Velocity P-wave (km/s) = 6.01668 7.11554 6.58906
#
# Compressibility (1/GPa) = 0.02362605
#
# Stress axis : x y z
#
# Youngs Moduli (GPa) = 41.05637 80.66982 100.21780
#
# Poissons Ratio (x) = 0.06271 0.58328
# Poissons Ratio (y) = 0.03192 0.49659
# Poissons Ratio (z) = 0.23895 0.39973
#
# Static dielectric constant tensor:
#      x y z
#    x 3.204530 0.000000 0.000000 
#    y 0.000000 3.670510 0.000000 
#    z 0.000000 0.000000 3.531380 
# 
# 
# High freq. dielectric constant tensor:
#      x y z
#    x 1.704140 0.000000 0.000000 
#    y 0.000000 1.730910 0.000000 
#    z 0.000000 0.000000 1.748780 
# 
# From -- ./inp_files/55108.got.cif
#   From: 2010.03.12/outbox.cif.g09.slc.cpg/sg74_28_cif.got.tgz:55108.got - 2010.04.16 15:46:19.
