data_PCOD8298108
_publ_section_title
;
Structure prediction by ZEFSAII (Michael W. Deem and Ramdas Pophale) SiO2 
 PCOD8298108
Probable space group: I M M A
;
_chemical_formula_sum "Si O2"
_cell_formula_units_Z 104
_cell_length_a 23.188926
_cell_length_b 21.890023
_cell_length_c 10.271638
_cell_angle_alpha 90.000000
_cell_angle_beta 90.000000
_cell_angle_gamma 90.000000
_cell_volume 5213.946347
_symmetry_space_group_name_H-M "I M M A"
_symmetry_group_IT_number 74
_symmetry_cell_setting 'orthorhombic'
loop_
_space_group_symop_operation_xyz
x,y,z
-x,1/2-y,z
x,-y,-z
-x,1/2+y,-z
-x,-y,-z
x,1/2+y,-z
-x,y,z
x,1/2-y,z
1/2+x,1/2+y,1/2+z
1/2-x,-y,1/2+z
1/2+x,1/2-y,1/2-z
1/2-x,y,1/2-z
1/2-x,1/2-y,1/2-z
1/2+x,y,1/2-z
1/2-x,1/2+y,1/2+z
1/2+x,-y,1/2+z
loop_
_atom_site_type_symbol
_atom_site_label
_atom_site_fract_x
_atom_site_fract_y
_atom_site_fract_z
Si Si1 0.131728 0.179970 0.952947
Si Si2 0.722415 0.413605 0.616227
Si Si3 0.189065 0.500000 0.500000
Si Si4 0.432951 0.368945 0.786452
Si Si5 0.068454 0.681471 0.560968
Si Si6 0.873847 0.492276 0.761675
Si Si7 0.568370 0.385277 0.319883
O O1 0.147123 0.250000 0.979758
O O2 0.191062 0.141620 0.958484
O O3 0.102369 0.173339 0.812210
O O4 0.087035 0.156813 0.060700
O O5 0.750000 0.388214 0.750000
O O6 0.772060 0.440010 0.523795
O O7 0.678006 0.468212 0.648929
O O8 0.149482 0.484873 0.376880
O O9 0.500000 0.354179 0.769995
O O10 0.421583 0.439985 0.759248
O O11 0.410458 0.353077 0.931092
O O12 0.093980 0.750000 0.563088
O O13 0.091013 0.645011 0.686436
O O14 0.000000 0.684010 0.563844
O O15 0.903631 0.548111 0.836296
O O16 0.500000 0.392109 0.321765
#
# Coordination Sequence:
#
# PCOD8298108 Si02
#       7
#    16  16   8  16  16  16  16
#     4  11  23  38  58  84 112 150 197 234 278 343
#     4   9  20  37  58  83 109 142 185 242 300 337
#     4  10  18  36  61  80 107 144 186 236 290 346
#     4  10  20  35  56  83 115 148 187 233 276 329
#     4   9  18  32  49  71 105 151 192 222 260 312
#     4  10  20  34  56  85 112 145 188 230 284 348
#     4  11  22  35  54  83 122 157 184 225 278 337
#
# _framework density 19.946503
#
# number of rings (size 3 to 8) (size 9 to 14) (size 15 to 20)
#    0.000    2.000    0.000    3.692    0.000    4.615 
#    0.000    6.923    0.000    2.769    0.000    0.000 
#    0.000    0.000    0.000    0.000    0.000    0.000 
#
# Total GULP energy -645020.713131 kJ/mol
# GULP energy per Si atom -12404.244483 kJ/mol
# Density = 1.990110 g / cm^3
# Si number density = 19.946503 Si / 1000 Ang^3
#
#
#
# Elastic Constant Matrix: (Units=GPa)
#
#
# Indices 1 2 3 4 5 6 
#
# 1 55.8589 16.6679 9.6960 0.0000 0.0000 0.0000
# 2 16.6679 114.3763 25.6919 0.0000 0.0000 0.0000
# 3 9.6960 25.6919 83.1788 0.0000 0.0000 0.0000
# 4 0.0000 0.0000 0.0000 26.6718 0.0000 0.0000
# 5 0.0000 0.0000 0.0000 0.0000 31.0719 0.0000
# 6 0.0000 0.0000 0.0000 0.0000 0.0000 12.3640
#
#
#
# Elastic Compliance Matrix: (Units=1/GPa)
#
#
# Indices 1 2 3 4 5 6 
#
# 1 0.018878 -0.002425 -0.001452 0.000000 0.000000 0.000000
# 2 -0.002425 0.009706 -0.002715 0.000000 0.000000 0.000000
# 3 -0.001452 -0.002715 0.013030 0.000000 0.000000 0.000000
# 4 0.000000 0.000000 0.000000 0.037493 0.000000 0.000000
# 5 0.000000 0.000000 0.000000 0.000000 0.032183 0.000000
# 6 0.000000 0.000000 0.000000 0.000000 0.000000 0.080880
#
#
# Mechanical properties :
#
#
# Convention : Reuss Voigt Hill
#
# Bulk Modulus (GPa) = 35.17336 39.72506 37.44921
# Shear Modulus (GPa) = 23.27406 27.44541 25.35974
#
# Velocity S-wave (km/s) = 3.41959 3.71341 3.56952
# Velocity P-wave (km/s) = 5.76746 6.19232 5.98366
#
# Compressibility (1/GPa) = 0.02843060
#
# Stress axis : x y z
#
# Youngs Moduli (GPa) = 52.97226 103.02470 76.74463
#
# Poissons Ratio (x) = 0.24983 0.11140
# Poissons Ratio (y) = 0.12846 0.20839
# Poissons Ratio (z) = 0.07689 0.27975
#
# Static dielectric constant tensor:
#      x y z
#    x 3.492620 0.000000 0.000000 
#    y 0.000000 3.572740 0.000000 
#    z 0.000000 0.000000 3.733110 
# 
# 
# High freq. dielectric constant tensor:
#      x y z
#    x 1.765120 0.000000 0.000000 
#    y 0.000000 1.774110 0.000000 
#    z 0.000000 0.000000 1.786660 
# 
# From -- ./inp_files/15213.got.cif
#   From: 2010.03.12/outbox.cif.g09.slc.cpg/sg74_8_cif.got.tgz:15213.got - 2010.04.16 15:46:19.
