data_PCOD8298589
_publ_section_title
;
Structure prediction by ZEFSAII (Michael W. Deem and Ramdas Pophale) SiO2 
 PCOD8298589
Probable space group: I M M A
;
_chemical_formula_sum "Si O2"
_cell_formula_units_Z 104
_cell_length_a 27.215415
_cell_length_b 9.324250
_cell_length_c 23.605337
_cell_angle_alpha 90.000000
_cell_angle_beta 90.000000
_cell_angle_gamma 90.000000
_cell_volume 5990.169001
_symmetry_space_group_name_H-M "I M M A"
_symmetry_group_IT_number 74
_symmetry_cell_setting 'orthorhombic'
loop_
_space_group_symop_operation_xyz
x,y,z
-x,1/2-y,z
x,-y,-z
-x,1/2+y,-z
-x,-y,-z
x,1/2+y,-z
-x,y,z
x,1/2-y,z
1/2+x,1/2+y,1/2+z
1/2-x,-y,1/2+z
1/2+x,1/2-y,1/2-z
1/2-x,y,1/2-z
1/2-x,1/2-y,1/2-z
1/2+x,y,1/2-z
1/2-x,1/2+y,1/2+z
1/2+x,-y,1/2+z
loop_
_atom_site_type_symbol
_atom_site_label
_atom_site_fract_x
_atom_site_fract_y
_atom_site_fract_z
Si Si1 0.122580 0.586474 0.662155
Si Si2 0.126638 0.585257 0.161145
Si Si3 0.056331 0.080884 0.442423
Si Si4 0.000000 0.408444 0.054260
Si Si5 0.607184 0.583419 0.559049
Si Si6 0.943607 0.910872 0.769950
Si Si7 0.696454 0.084090 0.765934
O O1 0.139954 0.750000 0.654323
O O2 0.095864 0.529729 0.605016
O O3 0.081601 0.571652 0.709681
O O4 0.170947 0.496540 0.680860
O O5 0.120571 0.750000 0.143596
O O6 0.141820 0.493835 0.105301
O O7 0.075590 0.527624 0.186000
O O8 0.167519 0.560363 0.208036
O O9 0.061181 0.250000 0.452546
O O10 0.000000 0.043100 0.424314
O O11 0.070539 0.000000 0.500000
O O12 0.051722 0.433700 0.086363
O O13 0.000000 0.250000 0.029519
O O14 0.000000 0.500000 0.000000
O O15 0.612362 0.500000 0.500000
O O16 0.621869 0.750000 0.550893
O O17 0.934624 0.750000 0.794249
O O18 0.000000 0.942440 0.759594
O O19 0.699389 0.250000 0.783677
O O20 0.750000 0.022064 0.750000
#
# Coordination Sequence:
#
# PCOD8298589 Si02
#       7
#    16  16  16   8  16  16  16
#     4   9  17  30  49  73  98 126 163 205 243 285
#     4  10  20  32  47  70  95 121 157 197 240 288
#     4   9  17  29  46  71 105 142 175 203 236 283
#     4   8  16  28  42  60  84 118 156 186 213 252
#     4  10  19  32  48  67  93 126 161 194 231 273
#     4   9  17  29  45  65  93 128 160 192 235 284
#     4   9  19  36  55  73  95 123 156 199 252 303
#
# _framework density 17.36178
#
# number of rings (size 3 to 8) (size 9 to 14) (size 15 to 20)
#    0.000    2.769    0.000    1.385    1.077    4.308 
#    0.000    0.000    0.000    3.692    0.000    2.154 
#    0.000    0.000    0.000    0.000    0.000    0.000 
#
# Total GULP energy -644303.458623 kJ/mol
# GULP energy per Si atom -12390.451127 kJ/mol
# Density = 1.732226 g / cm^3
# Si number density = 17.361780 Si / 1000 Ang^3
#
#
#
# Elastic Constant Matrix: (Units=GPa)
#
#
# Indices 1 2 3 4 5 6 
#
# 1 90.5560 40.0977 42.4543 0.0000 0.0000 0.0000
# 2 40.0977 88.0796 56.0263 0.0000 0.0000 0.0000
# 3 42.4543 56.0263 99.3693 0.0000 0.0000 0.0000
# 4 0.0000 0.0000 0.0000 32.6585 0.0000 0.0000
# 5 0.0000 0.0000 0.0000 0.0000 19.9614 0.0000
# 6 0.0000 0.0000 0.0000 0.0000 0.0000 21.3439
#
#
#
# Elastic Compliance Matrix: (Units=1/GPa)
#
#
# Indices 1 2 3 4 5 6 
#
# 1 0.014750 -0.004220 -0.003923 0.000000 0.000000 0.000000
# 2 -0.004220 0.018909 -0.008858 0.000000 0.000000 0.000000
# 3 -0.003923 -0.008858 0.016734 0.000000 0.000000 0.000000
# 4 0.000000 0.000000 0.000000 0.030620 0.000000 0.000000
# 5 0.000000 0.000000 0.000000 0.000000 0.050097 0.000000
# 6 0.000000 0.000000 0.000000 0.000000 0.000000 0.046852
#
#
# Mechanical properties :
#
#
# Convention : Reuss Voigt Hill
#
# Bulk Modulus (GPa) = 61.00715 61.68462 61.34588
# Shear Modulus (GPa) = 22.99612 24.08786 23.54199
#
# Velocity S-wave (km/s) = 3.64335 3.72883 3.68634
# Velocity P-wave (km/s) = 7.27418 7.35833 7.31638
#
# Compressibility (1/GPa) = 0.01639152
#
# Stress axis : x y z
#
# Youngs Moduli (GPa) = 67.79448 52.88433 59.75862
#
# Poissons Ratio (x) = 0.22316 0.23442
# Poissons Ratio (y) = 0.28608 0.52937
# Poissons Ratio (z) = 0.26594 0.46847
#
# Static dielectric constant tensor:
#      x y z
#    x 3.111180 0.000000 0.000000 
#    y 0.000000 3.323860 0.000000 
#    z 0.000000 0.000000 3.182440 
# 
# 
# High freq. dielectric constant tensor:
#      x y z
#    x 1.642640 0.000000 0.000000 
#    y 0.000000 1.673150 0.000000 
#    z 0.000000 0.000000 1.668790 
# 
# From -- ./inp_files/57830.got.cif
#   From: 2010.03.12/outbox.cif.g09.slc.cpg/sg74_29_cif.got.tgz:57830.got - 2010.04.16 15:46:19.
