data_PCOD8298779
_publ_section_title
;
Structure prediction by ZEFSAII (Michael W. Deem and Ramdas Pophale) SiO2 
 PCOD8298779
Probable space group: I M M A
;
_chemical_formula_sum "Si O2"
_cell_formula_units_Z 112
_cell_length_a 15.567093
_cell_length_b 28.833483
_cell_length_c 13.939108
_cell_angle_alpha 90.000000
_cell_angle_beta 90.000000
_cell_angle_gamma 90.000000
_cell_volume 6256.617571
_symmetry_space_group_name_H-M "I M M A"
_symmetry_group_IT_number 74
_symmetry_cell_setting 'orthorhombic'
loop_
_space_group_symop_operation_xyz
x,y,z
-x,1/2-y,z
x,-y,-z
-x,1/2+y,-z
-x,-y,-z
x,1/2+y,-z
-x,y,z
x,1/2-y,z
1/2+x,1/2+y,1/2+z
1/2-x,-y,1/2+z
1/2+x,1/2-y,1/2-z
1/2-x,y,1/2-z
1/2-x,1/2-y,1/2-z
1/2+x,y,1/2-z
1/2-x,1/2+y,1/2+z
1/2+x,-y,1/2+z
loop_
_atom_site_type_symbol
_atom_site_label
_atom_site_fract_x
_atom_site_fract_y
_atom_site_fract_z
Si Si1 0.689766 0.610596 0.500092
Si Si2 0.250127 0.535651 0.362716
Si Si3 0.097288 0.301561 0.227391
Si Si4 0.691733 0.617983 0.833441
Si Si5 0.097753 0.698668 0.997222
Si Si6 0.404037 0.530819 0.842177
Si Si7 0.902955 0.531901 0.884059
O O1 0.745739 0.583931 0.419591
O O2 0.752549 0.633897 0.576849
O O3 0.643733 0.655125 0.449997
O O4 0.622268 0.577933 0.557241
O O5 0.250000 0.546197 0.250000
O O6 0.162130 0.507443 0.383900
O O7 0.333189 0.508256 0.403941
O O8 0.131434 0.250000 0.248669
O O9 0.152743 0.336096 0.289597
O O10 0.103469 0.312499 0.115384
O O11 0.000000 0.306828 0.262135
O O12 0.750000 0.593234 0.750000
O O13 0.624319 0.581407 0.878586
O O14 0.137631 0.750000 0.020087
O O15 0.000000 0.699278 0.031999
O O16 0.500000 0.517655 0.877488
O O17 0.401450 0.539159 0.728898
O O18 0.000000 0.516946 0.915110
#
# Coordination Sequence:
#
# PCOD8298779 Si02
#       7
#    16  16  16  16  16  16  16
#     4  12  21  31  52  76 106 134 179 215 259 310
#     4  10  22  39  51  72 105 137 178 225 269 312
#     4   9  18  32  48  71 108 146 173 203 252 315
#     4  12  19  29  47  76 106 137 174 215 252 303
#     4   9  18  32  50  77 110 138 164 203 263 329
#     4  10  19  35  53  70 102 144 179 216 261 307
#     4  10  19  32  54  80 105 131 165 214 270 322
#
# _framework density 17.901046000000001
#
# number of rings (size 3 to 8) (size 9 to 14) (size 15 to 20)
#    0.000    1.714    4.286    2.571    0.000    4.857 
#    0.000    2.143    0.000    0.429    0.000    0.000 
#    0.000    2.286    0.000    0.000    0.000    0.000 
#
# Total GULP energy -693887.860285 kJ/mol
# GULP energy per Si atom -12390.854648 kJ/mol
# Density = 1.786030 g / cm^3
# Si number density = 17.901046 Si / 1000 Ang^3
#
#
#
# Elastic Constant Matrix: (Units=GPa)
#
#
# Indices 1 2 3 4 5 6 
#
# 1 114.9730 54.9852 18.4873 0.0002 0.0000 -0.0001
# 2 54.9852 119.7840 27.3208 -0.0001 0.0001 -0.0001
# 3 18.4873 27.3208 28.5421 -0.0036 0.0001 -0.0001
# 4 0.0002 -0.0001 -0.0036 28.5258 0.0000 -0.0003
# 5 0.0000 0.0001 0.0001 0.0000 4.8231 0.0004
# 6 -0.0001 -0.0001 -0.0001 -0.0003 0.0004 94.5126
#
#
#
# Elastic Compliance Matrix: (Units=1/GPa)
#
#
# Indices 1 2 3 4 5 6 
#
# 1 0.011345 -0.004518 -0.003023 0.000000 0.000000 0.000000
# 2 -0.004518 0.012479 -0.009019 -0.000001 0.000000 0.000000
# 3 -0.003023 -0.009019 0.045627 0.000006 -0.000001 0.000000
# 4 0.000000 -0.000001 0.000006 0.035056 0.000000 0.000000
# 5 0.000000 0.000000 -0.000001 0.000000 0.207334 -0.000001
# 6 0.000000 0.000000 0.000000 0.000000 -0.000001 0.010581
#
#
# Mechanical properties :
#
#
# Convention : Reuss Voigt Hill
#
# Bulk Modulus (GPa) = 27.52512 51.65396 39.58954
# Shear Modulus (GPa) = 13.59980 36.40604 25.00292
#
# Velocity S-wave (km/s) = 2.75929 4.51459 3.74134
# Velocity P-wave (km/s) = 5.05581 7.48955 6.38962
#
# Compressibility (1/GPa) = 0.03633046
#
# Stress axis : x y z
#
# Youngs Moduli (GPa) = 88.14808 80.13241 21.91668
#
# Poissons Ratio (x) = 0.36203 0.06626
# Poissons Ratio (y) = 0.39825 0.19767
# Poissons Ratio (z) = 0.26651 0.72271
#
# Static dielectric constant tensor:
#      x y z
#    x 3.627350 0.000000 0.000000 
#    y 0.000000 3.287160 0.000000 
#    z 0.000000 0.000000 2.957810 
# 
# 
# High freq. dielectric constant tensor:
#      x y z
#    x 1.698460 0.000000 0.000000 
#    y 0.000000 1.688190 0.000000 
#    z 0.000000 0.000000 1.648820 
# 
# From -- ./inp_files/32953.got.cif
#   From: 2010.03.12/outbox.cif.g09.slc.cpg/sg74_17_cif.got.tgz:32953.got - 2010.04.16 15:46:19.
