data_PCOD8298162
_publ_section_title
;
Structure prediction by ZEFSAII (Michael W. Deem and Ramdas Pophale) SiO2 
 PCOD8298162
Probable space group: I M M A
;
_chemical_formula_sum "Si O2"
_cell_formula_units_Z 80
_cell_length_a 8.928421
_cell_length_b 18.468437
_cell_length_c 36.546619
_cell_angle_alpha 90.000000
_cell_angle_beta 90.000000
_cell_angle_gamma 90.000000
_cell_volume 6026.317490
_symmetry_space_group_name_H-M "I M M A"
_symmetry_group_IT_number 74
_symmetry_cell_setting 'orthorhombic'
loop_
_space_group_symop_operation_xyz
x,y,z
-x,1/2-y,z
x,-y,-z
-x,1/2+y,-z
-x,-y,-z
x,1/2+y,-z
-x,y,z
x,1/2-y,z
1/2+x,1/2+y,1/2+z
1/2-x,-y,1/2+z
1/2+x,1/2-y,1/2-z
1/2-x,y,1/2-z
1/2-x,1/2-y,1/2-z
1/2+x,y,1/2-z
1/2-x,1/2+y,1/2+z
1/2+x,-y,1/2+z
loop_
_atom_site_type_symbol
_atom_site_label
_atom_site_fract_x
_atom_site_fract_y
_atom_site_fract_z
Si Si1 0.834757 0.464531 0.460393
Si Si2 0.323648 0.093415 0.571334
Si Si3 0.824441 0.332084 0.503222
Si Si4 0.668527 0.163960 0.714099
Si Si5 0.676078 0.166067 0.860124
O O1 0.842871 0.500000 0.500000
O O2 0.720307 0.509151 0.435159
O O3 0.781476 0.381584 0.467850
O O4 0.000000 0.466267 0.442121
O O5 0.500000 0.100048 0.574027
O O6 0.266365 0.144812 0.538996
O O7 0.251934 0.118279 0.608982
O O8 0.783389 0.250000 0.493035
O O9 0.000000 0.341452 0.512521
O O10 0.500000 0.133014 0.712148
O O11 0.665389 0.250000 0.716428
O O12 0.750000 0.131948 0.750000
O O13 0.759876 0.138807 0.678544
O O14 0.500000 0.153021 0.860459
O O15 0.715888 0.250000 0.866989
#
# Coordination Sequence:
#
# PCOD8298162 Si02
#       5
#    16  16  16  16  16
#     4   8  15  28  42  53  68  92 119 146 179 220
#     4  11  20  27  37  54  75  96 119 150 187 223
#     4   9  17  29  43  56  70  91 120 152 185 221
#     4   9  16  26  39  54  72  93 118 148 181 216
#     4  10  19  29  40  53  70  94 124 156 188 219
#
# _framework density 13.275105
#
# number of rings (size 3 to 8) (size 9 to 14) (size 15 to 20)
#    0.000    2.600    0.000    4.800    0.000   10.000 
#    0.000    0.000    0.000    0.000    0.000    0.000 
#    0.000    0.000    0.000    0.000    0.000    1.000 
#
# Total GULP energy -495847.493749 kJ/mol
# GULP energy per Si atom -12396.187344 kJ/mol
# Density = 1.324489 g / cm^3
# Si number density = 13.275105 Si / 1000 Ang^3
#
#
#
# Elastic Constant Matrix: (Units=GPa)
#
#
# Indices 1 2 3 4 5 6 
#
# 1 88.1891 32.9159 50.4416 0.0000 0.0000 0.0000
# 2 32.9159 77.8646 43.1613 0.0000 0.0000 0.0000
# 3 50.4416 43.1613 87.5927 0.0000 0.0000 0.0000
# 4 0.0000 0.0000 0.0000 14.0231 0.0000 0.0000
# 5 0.0000 0.0000 0.0000 0.0000 23.1529 0.0000
# 6 0.0000 0.0000 0.0000 0.0000 0.0000 12.1222
#
#
#
# Elastic Compliance Matrix: (Units=1/GPa)
#
#
# Indices 1 2 3 4 5 6 
#
# 1 0.017243 -0.002456 -0.008720 0.000000 0.000000 0.000000
# 2 -0.002456 0.018019 -0.007464 0.000000 0.000000 0.000000
# 3 -0.008720 -0.007464 0.020116 0.000000 0.000000 0.000000
# 4 0.000000 0.000000 0.000000 0.071311 0.000000 0.000000
# 5 0.000000 0.000000 0.000000 0.000000 0.043191 0.000000
# 6 0.000000 0.000000 0.000000 0.000000 0.000000 0.082493
#
#
# Mechanical properties :
#
#
# Convention : Reuss Voigt Hill
#
# Bulk Modulus (GPa) = 55.25506 56.29821 55.77663
# Shear Modulus (GPa) = 16.90986 18.33482 17.62234
#
# Velocity S-wave (km/s) = 3.57291 3.72041 3.64740
# Velocity P-wave (km/s) = 7.66383 7.80744 7.73597
#
# Compressibility (1/GPa) = 0.01809789
#
# Stress axis : x y z
#
# Youngs Moduli (GPa) = 57.99350 55.49820 49.71186
#
# Poissons Ratio (x) = 0.13630 0.43347
# Poissons Ratio (y) = 0.14243 0.37107
# Poissons Ratio (z) = 0.50569 0.41426
#
# Static dielectric constant tensor:
#      x y z
#    x 2.757910 0.000000 0.000000 
#    y 0.000000 2.828020 0.000000 
#    z 0.000000 0.000000 2.576990 
# 
# 
# High freq. dielectric constant tensor:
#      x y z
#    x 1.517090 0.000000 0.000000 
#    y 0.000000 1.470820 0.000000 
#    z 0.000000 0.000000 1.482330 
# 
# From -- ./inp_files/70118.got.cif
#   From: 2010.03.12/outbox.cif.g09.slc.cpg/sg74_36_cif.got.tgz:70118.got - 2010.04.16 15:46:19.
