data_PCOD8298578
_publ_section_title
;
Structure prediction by ZEFSAII (Michael W. Deem and Ramdas Pophale) SiO2 
 PCOD8298578
Probable space group: I M M A
;
_chemical_formula_sum "Si O2"
_cell_formula_units_Z 96
_cell_length_a 16.525143
_cell_length_b 18.178242
_cell_length_c 20.454511
_cell_angle_alpha 90.000000
_cell_angle_beta 90.000000
_cell_angle_gamma 90.000000
_cell_volume 6144.495188
_symmetry_space_group_name_H-M "I M M A"
_symmetry_group_IT_number 74
_symmetry_cell_setting 'orthorhombic'
loop_
_space_group_symop_operation_xyz
x,y,z
-x,1/2-y,z
x,-y,-z
-x,1/2+y,-z
-x,-y,-z
x,1/2+y,-z
-x,y,z
x,1/2-y,z
1/2+x,1/2+y,1/2+z
1/2-x,-y,1/2+z
1/2+x,1/2-y,1/2-z
1/2-x,y,1/2-z
1/2-x,1/2-y,1/2-z
1/2+x,y,1/2-z
1/2-x,1/2+y,1/2+z
1/2+x,-y,1/2+z
loop_
_atom_site_type_symbol
_atom_site_label
_atom_site_fract_x
_atom_site_fract_y
_atom_site_fract_z
Si Si1 0.764385 0.903352 0.892307
Si Si2 0.095335 0.406163 0.600718
Si Si3 0.804674 0.000000 0.500000
Si Si4 0.813235 0.750000 0.589765
Si Si5 0.406736 0.894971 0.699356
Si Si6 0.093254 0.750000 0.453987
Si Si7 0.095396 0.750000 0.724599
Si Si8 0.325915 0.498612 0.791634
O O1 0.743870 0.820083 0.908420
O O2 0.856426 0.906001 0.867098
O O3 0.703322 0.935670 0.838501
O O4 0.756283 0.951144 0.957546
O O5 0.135496 0.450069 0.541827
O O6 0.114687 0.320367 0.590400
O O7 0.134587 0.430993 0.669323
O O8 0.000000 0.422901 0.601340
O O9 0.861287 0.750000 0.522358
O O10 0.872940 0.750000 0.651068
O O11 0.500000 0.888044 0.679758
O O12 0.374485 0.821889 0.736286
O O13 0.394044 0.965963 0.745290
O O14 0.000000 0.750000 0.473729
O O15 0.000000 0.750000 0.718862
O O16 0.250000 0.467788 0.750000
#
# Coordination Sequence:
#
# PCOD8298578 Si02
#       8
#    16  16   8   8  16   8   8  16
#     4  10  20  30  50  67  94 127 158 194 232 281
#     4  10  19  32  49  70  96 126 155 195 235 275
#     4  10  19  34  45  70  94 124 164 194 233 278
#     4  12  18  32  46  68  99 135 162 179 236 277
#     4  10  19  32  46  70  97 124 158 195 233 275
#     4  10  21  33  46  70 102 127 159 192 228 277
#     4  10  20  29  44  70 103 130 158 191 225 276
#     4   9  18  32  49  71  95 124 154 192 235 281
#
# _framework density 15.623741000000001
#
# number of rings (size 3 to 8) (size 9 to 14) (size 15 to 20)
#    0.000    2.000    3.333    1.500    0.000    0.667 
#    0.000    0.833    0.000    0.000    0.000    0.000 
#    0.000    0.000    0.000    0.000    0.000    0.000 
#
# Total GULP energy -595224.510761 kJ/mol
# GULP energy per Si atom -12400.510641 kJ/mol
# Density = 1.558818 g / cm^3
# Si number density = 15.623741 Si / 1000 Ang^3
#
#
#
# Elastic Constant Matrix: (Units=GPa)
#
#
# Indices 1 2 3 4 5 6 
#
# 1 82.4063 53.0697 57.4166 0.0000 0.0000 0.0000
# 2 53.0697 113.5697 65.6025 0.0000 0.0000 0.0000
# 3 57.4166 65.6025 103.3938 0.0000 0.0000 0.0000
# 4 0.0000 0.0000 0.0000 22.0045 0.0000 0.0000
# 5 0.0000 0.0000 0.0000 0.0000 29.7741 0.0000
# 6 0.0000 0.0000 0.0000 0.0000 0.0000 25.9999
#
#
#
# Elastic Compliance Matrix: (Units=1/GPa)
#
#
# Indices 1 2 3 4 5 6 
#
# 1 0.021425 -0.004955 -0.008754 0.000000 0.000000 0.000000
# 2 -0.004955 0.015045 -0.006794 0.000000 0.000000 0.000000
# 3 -0.008754 -0.006794 0.018844 0.000000 0.000000 0.000000
# 4 0.000000 0.000000 0.000000 0.045445 0.000000 0.000000
# 5 0.000000 0.000000 0.000000 0.000000 0.033586 0.000000
# 6 0.000000 0.000000 0.000000 0.000000 0.000000 0.038462
#
#
# Mechanical properties :
#
#
# Convention : Reuss Voigt Hill
#
# Bulk Modulus (GPa) = 69.89258 72.39418 71.14338
# Shear Modulus (GPa) = 22.87443 23.77443 23.32443
#
# Velocity S-wave (km/s) = 3.83048 3.90511 3.86798
# Velocity P-wave (km/s) = 8.02468 8.17128 8.09831
#
# Compressibility (1/GPa) = 0.01430767
#
# Stress axis : x y z
#
# Youngs Moduli (GPa) = 46.67344 66.46529 53.06717
#
# Poissons Ratio (x) = 0.32935 0.46455
# Poissons Ratio (y) = 0.23128 0.36056
# Poissons Ratio (z) = 0.40858 0.45160
#
# Static dielectric constant tensor:
#      x y z
#    x 2.840870 0.000000 0.000000 
#    y 0.000000 2.954030 0.000000 
#    z 0.000000 0.000000 3.007110 
# 
# 
# High freq. dielectric constant tensor:
#      x y z
#    x 1.591860 0.000000 0.000000 
#    y 0.000000 1.599840 0.000000 
#    z 0.000000 0.000000 1.592410 
# 
# From -- ./inp_files/44176.got.cif
#   From: 2010.03.12/outbox.cif.g09.slc.cpg/sg74_23_cif.got.tgz:44176.got - 2010.04.16 15:46:19.
