data_PCOD8298648
_publ_section_title
;
Structure prediction by ZEFSAII (Michael W. Deem and Ramdas Pophale) SiO2 
 PCOD8298648
Probable space group: I M M A
;
_chemical_formula_sum "Si O2"
_cell_formula_units_Z 104
_cell_length_a 27.317457
_cell_length_b 9.061096
_cell_length_c 24.175027
_cell_angle_alpha 90.000000
_cell_angle_beta 90.000000
_cell_angle_gamma 90.000000
_cell_volume 5983.950159
_symmetry_space_group_name_H-M "I M M A"
_symmetry_group_IT_number 74
_symmetry_cell_setting 'orthorhombic'
loop_
_space_group_symop_operation_xyz
x,y,z
-x,1/2-y,z
x,-y,-z
-x,1/2+y,-z
-x,-y,-z
x,1/2+y,-z
-x,y,z
x,1/2-y,z
1/2+x,1/2+y,1/2+z
1/2-x,-y,1/2+z
1/2+x,1/2-y,1/2-z
1/2-x,y,1/2-z
1/2-x,1/2-y,1/2-z
1/2+x,y,1/2-z
1/2-x,1/2+y,1/2+z
1/2+x,-y,1/2+z
loop_
_atom_site_type_symbol
_atom_site_label
_atom_site_fract_x
_atom_site_fract_y
_atom_site_fract_z
Si Si1 0.606688 0.575162 0.059956
Si Si2 0.176062 0.575247 0.648065
Si Si3 0.354866 0.919711 0.730486
Si Si4 0.945310 0.580039 0.839163
Si Si5 0.941675 0.584868 0.052853
Si Si6 0.267583 0.917031 0.312674
Si Si7 0.000000 0.418806 0.556726
O O1 0.616766 0.750000 0.054750
O O2 0.646438 0.502408 0.099492
O O3 0.552005 0.544417 0.086710
O O4 0.611195 0.500000 0.000000
O O5 0.177467 0.750000 0.638151
O O6 0.150312 0.531533 0.705914
O O7 0.231285 0.511570 0.648479
O O8 0.339041 0.750000 0.724104
O O9 0.411180 0.947295 0.713907
O O10 0.321453 0.011676 0.687709
O O11 0.945765 0.750000 0.857071
O O12 0.923605 0.491458 0.891036
O O13 0.000000 0.526669 0.823159
O O14 0.921003 0.750000 0.051657
O O15 0.000000 0.581815 0.050631
O O16 0.919679 0.500000 0.000000
O O17 0.269965 0.750000 0.335211
O O18 0.250000 0.922756 0.250000
O O19 0.000000 0.500000 0.500000
O O20 0.000000 0.250000 0.540167
#
# Coordination Sequence:
#
# PCOD8298648 Si02
#       7
#    16  16  16  16  16  16   8
#     4  10  19  33  52  74 101 133 171 213 257 304
#     4  10  19  32  50  75 101 128 164 206 250 299
#     4   9  18  32  49  71  99 132 166 203 247 295
#     4   9  17  30  47  67  96 131 163 195 235 284
#     4   9  16  26  42  64  88 116 154 195 231 268
#     4   9  17  30  50  73  94 121 157 200 243 287
#     4   8  16  30  48  68  94 128 166 206 247 292
#
# _framework density 17.379823999999999
#
# number of rings (size 3 to 8) (size 9 to 14) (size 15 to 20)
#    0.000    2.769    0.000    1.846    0.000    5.538 
#    1.385    0.000    0.000    0.923    0.000    2.154 
#    0.000    0.000    0.000    0.000    0.000    0.000 
#
# Total GULP energy -644471.387420 kJ/mol
# GULP energy per Si atom -12393.680527 kJ/mol
# Density = 1.734027 g / cm^3
# Si number density = 17.379824 Si / 1000 Ang^3
#
#
#
# Elastic Constant Matrix: (Units=GPa)
#
#
# Indices 1 2 3 4 5 6 
#
# 1 95.7646 44.6038 47.5445 0.0000 0.0000 0.0000
# 2 44.6038 96.5313 41.5882 0.0000 0.0000 0.0000
# 3 47.5445 41.5882 74.5109 0.0000 0.0000 0.0000
# 4 0.0000 0.0000 0.0000 26.6351 0.0000 0.0000
# 5 0.0000 0.0000 0.0000 0.0000 24.8882 0.0000
# 6 0.0000 0.0000 0.0000 0.0000 0.0000 24.0838
#
#
#
# Elastic Compliance Matrix: (Units=1/GPa)
#
#
# Indices 1 2 3 4 5 6 
#
# 1 0.016400 -0.004041 -0.008209 0.000000 0.000000 0.000000
# 2 -0.004041 0.014635 -0.005590 0.000000 0.000000 0.000000
# 3 -0.008209 -0.005590 0.021779 0.000000 0.000000 0.000000
# 4 0.000000 0.000000 0.000000 0.037544 0.000000 0.000000
# 5 0.000000 0.000000 0.000000 0.000000 0.040180 0.000000
# 6 0.000000 0.000000 0.000000 0.000000 0.000000 0.041522
#
#
# Mechanical properties :
#
#
# Convention : Reuss Voigt Hill
#
# Bulk Modulus (GPa) = 58.36461 59.36443 58.86452
# Shear Modulus (GPa) = 23.42454 23.99276 23.70865
#
# Velocity S-wave (km/s) = 3.67522 3.71953 3.69744
# Velocity P-wave (km/s) = 7.18780 7.25795 7.22296
#
# Compressibility (1/GPa) = 0.01713367
#
# Stress axis : x y z
#
# Youngs Moduli (GPa) = 60.97507 68.32991 45.91590
#
# Poissons Ratio (x) = 0.27614 0.37693
# Poissons Ratio (y) = 0.24641 0.25666
# Poissons Ratio (z) = 0.50055 0.38195
#
# Static dielectric constant tensor:
#      x y z
#    x 3.343250 0.000000 0.000000 
#    y 0.000000 3.381170 0.000000 
#    z 0.000000 0.000000 2.971960 
# 
# 
# High freq. dielectric constant tensor:
#      x y z
#    x 1.659520 0.000000 0.000000 
#    y 0.000000 1.683890 0.000000 
#    z 0.000000 0.000000 1.640560 
# 
# From -- ./inp_files/62333.got.cif
#   From: 2010.03.12/outbox.cif.g09.slc.cpg/sg74_32_cif.got.tgz:62333.got - 2010.04.16 15:46:19.
