data_PCOD8298457
_publ_section_title
;
Structure prediction by ZEFSAII (Michael W. Deem and Ramdas Pophale) SiO2 
 PCOD8298457
Probable space group: I M M A
;
_chemical_formula_sum "Si O2"
_cell_formula_units_Z 104
_cell_length_a 8.946322
_cell_length_b 22.034538
_cell_length_c 29.940304
_cell_angle_alpha 90.000000
_cell_angle_beta 90.000000
_cell_angle_gamma 90.000000
_cell_volume 5902.074405
_symmetry_space_group_name_H-M "I M M A"
_symmetry_group_IT_number 74
_symmetry_cell_setting 'orthorhombic'
loop_
_space_group_symop_operation_xyz
x,y,z
-x,1/2-y,z
x,-y,-z
-x,1/2+y,-z
-x,-y,-z
x,1/2+y,-z
-x,y,z
x,1/2-y,z
1/2+x,1/2+y,1/2+z
1/2-x,-y,1/2+z
1/2+x,1/2-y,1/2-z
1/2-x,y,1/2-z
1/2-x,1/2-y,1/2-z
1/2+x,y,1/2-z
1/2-x,1/2+y,1/2+z
1/2+x,-y,1/2+z
loop_
_atom_site_type_symbol
_atom_site_label
_atom_site_fract_x
_atom_site_fract_y
_atom_site_fract_z
Si Si1 0.175722 0.537687 0.295941
Si Si2 0.177197 0.865422 0.144755
Si Si3 0.824862 0.320241 0.378669
Si Si4 0.674387 0.102420 0.204715
Si Si5 0.168374 0.322106 0.032046
Si Si6 0.673918 0.678663 0.057283
Si Si7 0.824080 0.250000 0.797911
O O1 0.250000 0.560456 0.250000
O O2 0.247323 0.573946 0.336718
O O3 0.213852 0.467519 0.304535
O O4 0.000000 0.550178 0.293157
O O5 0.234467 0.856658 0.094743
O O6 0.229436 0.808892 0.174967
O O7 0.000000 0.872568 0.144345
O O8 0.786827 0.250000 0.370075
O O9 0.764500 0.357963 0.336419
O O10 0.741733 0.346210 0.422291
O O11 0.000000 0.330277 0.386300
O O12 0.500000 0.112573 0.210839
O O13 0.750000 0.125866 0.250000
O O14 0.169827 0.250000 0.032777
O O15 0.000000 0.347294 0.027997
O O16 0.265513 0.345238 0.990224
O O17 0.500000 0.662795 0.061067
O O18 0.703717 0.750000 0.062804
O O19 0.750000 0.250000 0.750000
O O20 0.000000 0.250000 0.791300
#
# Coordination Sequence:
#
# PCOD8298457 Si02
#       7
#    16  16  16  16  16  16   8
#     4  10  20  35  52  71  95 129 172 210 248 295
#     4  11  21  34  50  71  98 130 166 209 256 298
#     4   9  17  31  51  76 105 135 166 200 244 297
#     4   9  19  34  52  74 102 134 168 207 246 290
#     4   9  17  29  47  72 102 134 165 202 245 293
#     4  10  19  31  49  73 100 132 167 204 248 300
#     4  10  22  34  46  66  96 128 158 200 253 300
#
# _framework density 17.620923000000001
#
# number of rings (size 3 to 8) (size 9 to 14) (size 15 to 20)
#    0.000    2.308    0.769    2.308    0.000    6.462 
#    0.000    0.000    0.000    0.923    0.000    6.462 
#    0.000    0.000    0.000    0.000    0.000    0.000 
#
# Total GULP energy -644958.695051 kJ/mol
# GULP energy per Si atom -12403.051828 kJ/mol
# Density = 1.758082 g / cm^3
# Si number density = 17.620923 Si / 1000 Ang^3
#
#
#
# Elastic Constant Matrix: (Units=GPa)
#
#
# Indices 1 2 3 4 5 6 
#
# 1 77.5599 31.9749 56.1616 0.0000 0.0000 0.0000
# 2 31.9749 51.5847 53.9897 0.0000 0.0000 0.0000
# 3 56.1616 53.9897 163.1544 0.0000 0.0000 0.0000
# 4 0.0000 0.0000 0.0000 20.8883 0.0000 0.0000
# 5 0.0000 0.0000 0.0000 0.0000 38.3159 0.0000
# 6 0.0000 0.0000 0.0000 0.0000 0.0000 19.7344
#
#
#
# Elastic Compliance Matrix: (Units=1/GPa)
#
#
# Indices 1 2 3 4 5 6 
#
# 1 0.018900 -0.007506 -0.004022 0.000000 0.000000 0.000000
# 2 -0.007506 0.032638 -0.008217 0.000000 0.000000 0.000000
# 3 -0.004022 -0.008217 0.010233 0.000000 0.000000 0.000000
# 4 0.000000 0.000000 0.000000 0.047874 0.000000 0.000000
# 5 0.000000 0.000000 0.000000 0.000000 0.026099 0.000000
# 6 0.000000 0.000000 0.000000 0.000000 0.000000 0.050673
#
#
# Mechanical properties :
#
#
# Convention : Reuss Voigt Hill
#
# Bulk Modulus (GPa) = 44.87992 64.06127 54.47059
# Shear Modulus (GPa) = 21.42875 25.79924 23.61400
#
# Velocity S-wave (km/s) = 3.49104 3.83054 3.66472
# Velocity P-wave (km/s) = 6.46334 7.48319 6.99189
#
# Compressibility (1/GPa) = 0.02228168
#
# Stress axis : x y z
#
# Youngs Moduli (GPa) = 52.91016 30.63952 97.72645
#
# Poissons Ratio (x) = 0.22997 0.39307
# Poissons Ratio (y) = 0.39712 0.80298
# Poissons Ratio (z) = 0.21281 0.25175
#
# Static dielectric constant tensor:
#      x y z
#    x 3.318280 0.000000 0.000000 
#    y 0.000000 3.077030 0.000000 
#    z 0.000000 0.000000 3.419000 
# 
# 
# High freq. dielectric constant tensor:
#      x y z
#    x 1.689550 0.000000 0.000000 
#    y 0.000000 1.646800 0.000000 
#    z 0.000000 0.000000 1.692090 
# 
# From -- ./inp_files/64753.got.cif
#   From: 2010.03.12/outbox.cif.g09.slc.cpg/sg74_33_cif.got.tgz:64753.got - 2010.04.16 15:46:19.
