data_PCOD8298612
_publ_section_title
;
Structure prediction by ZEFSAII (Michael W. Deem and Ramdas Pophale) SiO2 
 PCOD8298612
Probable space group: I M M A
;
_chemical_formula_sum "Si O2"
_cell_formula_units_Z 96
_cell_length_a 20.363749
_cell_length_b 8.752169
_cell_length_c 30.037200
_cell_angle_alpha 90.000000
_cell_angle_beta 90.000000
_cell_angle_gamma 90.000000
_cell_volume 5353.439225
_symmetry_space_group_name_H-M "I M M A"
_symmetry_group_IT_number 74
_symmetry_cell_setting 'orthorhombic'
loop_
_space_group_symop_operation_xyz
x,y,z
-x,1/2-y,z
x,-y,-z
-x,1/2+y,-z
-x,-y,-z
x,1/2+y,-z
-x,y,z
x,1/2-y,z
1/2+x,1/2+y,1/2+z
1/2-x,-y,1/2+z
1/2+x,1/2-y,1/2-z
1/2-x,y,1/2-z
1/2-x,1/2-y,1/2-z
1/2+x,y,1/2-z
1/2-x,1/2+y,1/2+z
1/2+x,-y,1/2+z
loop_
_atom_site_type_symbol
_atom_site_label
_atom_site_fract_x
_atom_site_fract_y
_atom_site_fract_z
Si Si1 0.759807 0.070135 0.864881
Si Si2 0.311648 0.428890 0.280572
Si Si3 0.730878 0.921519 0.544232
Si Si4 0.887077 0.917994 0.542885
Si Si5 0.425886 0.074945 0.773365
Si Si6 0.881527 0.932655 0.639700
O O1 0.746348 0.250000 0.865888
O O2 0.810817 0.025596 0.826180
O O3 0.789634 0.018211 0.912319
O O4 0.693747 0.979405 0.853081
O O5 0.310575 0.250000 0.291576
O O6 0.250000 0.476010 0.250000
O O7 0.379051 0.469618 0.256017
O O8 0.702705 0.750000 0.548422
O O9 0.808890 0.916747 0.539928
O O10 0.700793 0.000000 0.500000
O O11 0.916593 0.750000 0.540939
O O12 0.906465 0.989891 0.590848
O O13 0.918253 0.000000 0.500000
O O14 0.500000 0.061398 0.755035
O O15 0.401435 0.250000 0.772159
O O16 0.426253 0.014514 0.823987
O O17 0.886040 0.750000 0.643860
#
# Coordination Sequence:
#
# PCOD8298612 Si02
#       6
#    16  16  16  16  16  16
#     4  11  20  30  49  75 104 136 172 215 262 307
#     4  11  22  36  56  79 104 136 175 218 261 312
#     4   9  16  27  42  65 100 136 171 208 254 308
#     4   8  15  25  40  63  91 122 160 205 251 299
#     4  11  24  39  55  77 103 133 171 215 264 319
#     4  10  19  32  49  71  98 131 171 213 257 310
#
# _framework density 17.932397999999999
#
# number of rings (size 3 to 8) (size 9 to 14) (size 15 to 20)
#    0.000    2.000    1.667    4.500    0.000    6.667 
#    0.000    0.000    0.000    0.500    0.000    0.000 
#    0.000    0.667    0.000    2.500    0.000    4.000 
#
# Total GULP energy -595096.330587 kJ/mol
# GULP energy per Si atom -12397.840221 kJ/mol
# Density = 1.789158 g / cm^3
# Si number density = 17.932398 Si / 1000 Ang^3
#
#
#
# Elastic Constant Matrix: (Units=GPa)
#
#
# Indices 1 2 3 4 5 6 
#
# 1 44.4415 12.5732 25.8086 0.0000 0.0000 0.0000
# 2 12.5732 80.2232 31.4478 0.0000 0.0000 0.0000
# 3 25.8086 31.4478 116.3469 0.0000 0.0000 0.0000
# 4 0.0000 0.0000 0.0000 37.0305 0.0000 0.0000
# 5 0.0000 0.0000 0.0000 0.0000 11.7289 0.0000
# 6 0.0000 0.0000 0.0000 0.0000 0.0000 14.5224
#
#
#
# Elastic Compliance Matrix: (Units=1/GPa)
#
#
# Indices 1 2 3 4 5 6 
#
# 1 0.026123 -0.002039 -0.005244 0.000000 0.000000 0.000000
# 2 -0.002039 0.014102 -0.003359 0.000000 0.000000 0.000000
# 3 -0.005244 -0.003359 0.010666 0.000000 0.000000 0.000000
# 4 0.000000 0.000000 0.000000 0.027005 0.000000 0.000000
# 5 0.000000 0.000000 0.000000 0.000000 0.085259 0.000000
# 6 0.000000 0.000000 0.000000 0.000000 0.000000 0.068859
#
#
# Mechanical properties :
#
#
# Convention : Reuss Voigt Hill
#
# Bulk Modulus (GPa) = 33.77504 42.29675 38.03590
# Shear Modulus (GPa) = 18.99933 24.06850 21.53391
#
# Velocity S-wave (km/s) = 3.25852 3.66755 3.46907
# Velocity P-wave (km/s) = 5.74742 6.44768 6.10759
#
# Compressibility (1/GPa) = 0.02960766
#
# Stress axis : x y z
#
# Youngs Moduli (GPa) = 38.27972 70.91383 93.75406
#
# Poissons Ratio (x) = 0.14457 0.49163
# Poissons Ratio (y) = 0.07804 0.31495
# Poissons Ratio (z) = 0.20073 0.23822
#
# Static dielectric constant tensor:
#      x y z
#    x 2.735300 0.000000 0.000000 
#    y 0.000000 3.430810 0.000000 
#    z 0.000000 0.000000 3.650380 
# 
# 
# High freq. dielectric constant tensor:
#      x y z
#    x 1.625950 0.000000 0.000000 
#    y 0.000000 1.706550 0.000000 
#    z 0.000000 0.000000 1.708730 
# 
# From -- ./inp_files/68134.got.cif
#   From: 2010.03.12/outbox.cif.g09.slc.cpg/sg74_35_cif.got.tgz:68134.got - 2010.04.16 15:46:19.
