data_PCOD8298864
_publ_section_title
;
Structure prediction by ZEFSAII (Michael W. Deem and Ramdas Pophale) SiO2 
 PCOD8298864
Probable space group: I M M A
;
_chemical_formula_sum "Si O2"
_cell_formula_units_Z 96
_cell_length_a 17.019599
_cell_length_b 25.481171
_cell_length_c 12.083544
_cell_angle_alpha 90.000000
_cell_angle_beta 90.000000
_cell_angle_gamma 90.000000
_cell_volume 5240.383054
_symmetry_space_group_name_H-M "I M M A"
_symmetry_group_IT_number 74
_symmetry_cell_setting 'orthorhombic'
loop_
_space_group_symop_operation_xyz
x,y,z
-x,1/2-y,z
x,-y,-z
-x,1/2+y,-z
-x,-y,-z
x,1/2+y,-z
-x,y,z
x,1/2-y,z
1/2+x,1/2+y,1/2+z
1/2-x,-y,1/2+z
1/2+x,1/2-y,1/2-z
1/2-x,y,1/2-z
1/2-x,1/2-y,1/2-z
1/2+x,y,1/2-z
1/2-x,1/2+y,1/2+z
1/2+x,-y,1/2+z
loop_
_atom_site_type_symbol
_atom_site_label
_atom_site_fract_x
_atom_site_fract_y
_atom_site_fract_z
Si Si1 0.909310 0.935316 0.789802
Si Si2 0.763761 0.810198 0.377322
Si Si3 0.407927 0.945514 0.336837
Si Si4 0.194352 0.399733 0.022192
Si Si5 0.632753 0.558305 0.959013
Si Si6 0.913534 0.869074 0.357453
O O1 0.851106 0.896538 0.859507
O O2 0.897355 0.925372 0.661039
O O3 0.000000 0.924725 0.823409
O O4 0.884400 0.995683 0.805492
O O5 0.744436 0.750000 0.403481
O O6 0.750000 0.825089 0.250000
O O7 0.710520 0.843443 0.463538
O O8 0.856362 0.821452 0.390878
O O9 0.500000 0.939982 0.356934
O O10 0.364362 0.933901 0.449739
O O11 0.379751 0.904246 0.243590
O O12 0.274961 0.430786 0.033038
O O13 0.614914 0.500000 0.000000
O O14 0.579980 0.593598 0.037778
O O15 0.000000 0.846365 0.329357
#
# Coordination Sequence:
#
# PCOD8298864 Si02
#       6
#    16  16  16  16  16  16
#     4  11  22  35  53  78 117 160 193 226 275 342
#     4  10  21  39  60  82 109 143 189 244 300 346
#     4  10  19  33  52  79 115 152 184 222 283 350
#     4  11  22  35  54  81 111 148 190 238 288 344
#     4  11  21  33  53  80 115 152 192 230 274 337
#     4  10  20  34  56  82 113 147 183 232 285 342
#
# _framework density 18.319271000000001
#
# number of rings (size 3 to 8) (size 9 to 14) (size 15 to 20)
#    0.000    1.500    3.333    3.000    0.000    2.333 
#    0.000    0.000    0.000   10.000    0.000    0.000 
#    0.000    0.000    0.000    0.000    0.000    0.000 
#
# Total GULP energy -595007.913005 kJ/mol
# GULP energy per Si atom -12395.998188 kJ/mol
# Density = 1.827758 g / cm^3
# Si number density = 18.319271 Si / 1000 Ang^3
#
#
#
# Elastic Constant Matrix: (Units=GPa)
#
#
# Indices 1 2 3 4 5 6 
#
# 1 61.3761 25.8467 14.3576 0.0000 0.0000 0.0000
# 2 25.8467 50.7652 12.1370 -0.0001 0.0001 0.0000
# 3 14.3576 12.1370 86.3112 0.0000 0.0001 -0.0008
# 4 0.0000 -0.0001 0.0000 15.7672 0.0000 -0.0002
# 5 0.0000 0.0001 0.0001 0.0000 50.1698 0.0000
# 6 0.0000 0.0000 -0.0008 -0.0002 0.0000 62.4247
#
#
#
# Elastic Compliance Matrix: (Units=1/GPa)
#
#
# Indices 1 2 3 4 5 6 
#
# 1 0.021091 -0.010244 -0.002068 0.000000 0.000000 0.000000
# 2 -0.010244 0.025359 -0.001862 0.000000 0.000000 0.000000
# 3 -0.002068 -0.001862 0.012192 0.000000 0.000000 0.000000
# 4 0.000000 0.000000 0.000000 0.063423 0.000000 0.000000
# 5 0.000000 0.000000 0.000000 0.000000 0.019932 0.000000
# 6 0.000000 0.000000 0.000000 0.000000 0.000000 0.016019
#
#
# Mechanical properties :
#
#
# Convention : Reuss Voigt Hill
#
# Bulk Modulus (GPa) = 33.00939 33.68169 33.34554
# Shear Modulus (GPa) = 25.45034 35.41309 30.43171
#
# Velocity S-wave (km/s) = 3.73133 4.40148 4.08019
# Velocity P-wave (km/s) = 6.05160 6.65256 6.35918
#
# Compressibility (1/GPa) = 0.03029441
#
# Stress axis : x y z
#
# Youngs Moduli (GPa) = 47.41467 39.43350 82.02239
#
# Poissons Ratio (x) = 0.40394 0.16961
# Poissons Ratio (y) = 0.48570 0.15272
# Poissons Ratio (z) = 0.09805 0.07342
#
# Static dielectric constant tensor:
#      x y z
#    x 3.457930 0.000000 0.000000 
#    y 0.000000 3.098880 0.000000 
#    z 0.000000 0.000000 3.288740 
# 
# 
# High freq. dielectric constant tensor:
#      x y z
#    x 1.724020 0.000000 0.000000 
#    y 0.000000 1.671910 0.000000 
#    z 0.000000 0.000000 1.718880 
# 
# From -- ./inp_files/22415.got.cif
#   From: 2010.03.12/outbox.cif.g09.slc.cpg/sg74_12_cif.got.tgz:22415.got - 2010.04.16 15:46:19.
