data_PCOD8298329
_publ_section_title
;
Structure prediction by ZEFSAII (Michael W. Deem and Ramdas Pophale) SiO2 
 PCOD8298329
Probable space group: I M M A
;
_chemical_formula_sum "Si O2"
_cell_formula_units_Z 96
_cell_length_a 23.940064
_cell_length_b 8.752158
_cell_length_c 25.250525
_cell_angle_alpha 90.000000
_cell_angle_beta 90.000000
_cell_angle_gamma 90.000000
_cell_volume 5290.672374
_symmetry_space_group_name_H-M "I M M A"
_symmetry_group_IT_number 74
_symmetry_cell_setting 'orthorhombic'
loop_
_space_group_symop_operation_xyz
x,y,z
-x,1/2-y,z
x,-y,-z
-x,1/2+y,-z
-x,-y,-z
x,1/2+y,-z
-x,y,z
x,1/2-y,z
1/2+x,1/2+y,1/2+z
1/2-x,-y,1/2+z
1/2+x,1/2-y,1/2-z
1/2-x,y,1/2-z
1/2-x,1/2-y,1/2-z
1/2+x,y,1/2-z
1/2-x,1/2+y,1/2+z
1/2+x,-y,1/2+z
loop_
_atom_site_type_symbol
_atom_site_label
_atom_site_fract_x
_atom_site_fract_y
_atom_site_fract_z
Si Si1 0.687845 0.070056 0.556305
Si Si2 0.306410 0.925656 0.945686
Si Si3 0.562225 0.431032 0.250946
Si Si4 0.253883 0.414249 0.689616
Si Si5 0.644242 0.423796 0.160762
Si Si6 0.359161 0.927509 0.654606
O O1 0.688427 0.250000 0.550408
O O2 0.671489 0.000000 0.500000
O O3 0.749525 0.010097 0.574760
O O4 0.640409 0.018429 0.598768
O O5 0.289705 0.750000 0.956017
O O6 0.358121 0.935600 0.903653
O O7 0.328034 0.000000 0.000000
O O8 0.500000 0.501836 0.251994
O O9 0.559582 0.250000 0.254851
O O10 0.590030 0.477969 0.194237
O O11 0.595978 0.492342 0.302557
O O12 0.269921 0.250000 0.661464
O O13 0.250000 0.378757 0.750000
O O14 0.193028 0.462976 0.673617
O O15 0.298137 0.547608 0.679227
O O16 0.658443 0.250000 0.177687
O O17 0.369477 0.750000 0.643372
#
# Coordination Sequence:
#
# PCOD8298329 Si02
#       6
#    16  16  16  16  16  16
#     4  11  21  33  50  75 109 143 173 210 251 309
#     4  10  19  30  47  73 106 141 175 210 253 309
#     4   9  19  35  55  78 101 132 177 224 266 309
#     4  11  21  30  45  74 108 138 169 207 259 319
#     4  10  19  32  52  75 102 137 175 215 258 311
#     4  11  20  32  53  77 105 139 172 212 261 316
#
# _framework density 18.145142
#
# number of rings (size 3 to 8) (size 9 to 14) (size 15 to 20)
#    0.000    1.667    3.333    4.000    0.000    1.333 
#    0.000    0.000    0.000    5.500    0.000    0.000 
#    0.000    0.000    0.000    0.000    0.000    0.667 
#
# Total GULP energy -594641.549995 kJ/mol
# GULP energy per Si atom -12388.365625 kJ/mol
# Density = 1.810384 g / cm^3
# Si number density = 18.145142 Si / 1000 Ang^3
#
#
#
# Elastic Constant Matrix: (Units=GPa)
#
#
# Indices 1 2 3 4 5 6 
#
# 1 94.6604 22.0297 65.8040 0.0000 0.0000 0.0000
# 2 22.0297 87.0754 40.8339 0.0000 0.0000 0.0000
# 3 65.8040 40.8339 141.5021 0.0000 0.0000 0.0000
# 4 0.0000 0.0000 0.0000 27.1020 0.0000 0.0000
# 5 0.0000 0.0000 0.0000 0.0000 16.0169 0.0000
# 6 0.0000 0.0000 0.0000 0.0000 0.0000 9.8118
#
#
#
# Elastic Compliance Matrix: (Units=1/GPa)
#
#
# Indices 1 2 3 4 5 6 
#
# 1 0.015641 -0.000632 -0.007091 0.000000 0.000000 0.000000
# 2 -0.000632 0.013307 -0.003546 0.000000 0.000000 0.000000
# 3 -0.007091 -0.003546 0.011388 0.000000 0.000000 0.000000
# 4 0.000000 0.000000 0.000000 0.036898 0.000000 0.000000
# 5 0.000000 0.000000 0.000000 0.000000 0.062434 0.000000
# 6 0.000000 0.000000 0.000000 0.000000 0.000000 0.101918
#
#
# Mechanical properties :
#
#
# Convention : Reuss Voigt Hill
#
# Bulk Modulus (GPa) = 56.18773 64.50811 60.34792
# Shear Modulus (GPa) = 18.51462 23.55749 21.03606
#
# Velocity S-wave (km/s) = 3.19778 3.60708 3.40858
# Velocity P-wave (km/s) = 6.68336 7.27849 6.98726
#
# Compressibility (1/GPa) = 0.01779748
#
# Stress axis : x y z
#
# Youngs Moduli (GPa) = 63.93621 75.14746 87.81074
#
# Poissons Ratio (x) = 0.04746 0.62269
# Poissons Ratio (y) = 0.04038 0.31141
# Poissons Ratio (z) = 0.45339 0.26650
#
# Static dielectric constant tensor:
#      x y z
#    x 3.155120 0.000000 0.000000 
#    y 0.000000 3.341330 0.000000 
#    z 0.000000 0.000000 3.734220 
# 
# 
# High freq. dielectric constant tensor:
#      x y z
#    x 1.644940 0.000000 0.000000 
#    y 0.000000 1.702580 0.000000 
#    z 0.000000 0.000000 1.726460 
# 
# From -- ./inp_files/68143.got.cif
#   From: 2010.03.12/outbox.cif.g09.slc.cpg/sg74_35_cif.got.tgz:68143.got - 2010.04.16 15:46:19.
