data_PCOD8298342
_publ_section_title
;
Structure prediction by ZEFSAII (Michael W. Deem and Ramdas Pophale) SiO2 
 PCOD8298342
Probable space group: I M M A
;
_chemical_formula_sum "Si O2"
_cell_formula_units_Z 80
_cell_length_a 19.300403
_cell_length_b 9.244949
_cell_length_c 25.766846
_cell_angle_alpha 90.000000
_cell_angle_beta 90.000000
_cell_angle_gamma 90.000000
_cell_volume 4597.610319
_symmetry_space_group_name_H-M "I M M A"
_symmetry_group_IT_number 74
_symmetry_cell_setting 'orthorhombic'
loop_
_space_group_symop_operation_xyz
x,y,z
-x,1/2-y,z
x,-y,-z
-x,1/2+y,-z
-x,-y,-z
x,1/2+y,-z
-x,y,z
x,1/2-y,z
1/2+x,1/2+y,1/2+z
1/2-x,-y,1/2+z
1/2+x,1/2-y,1/2-z
1/2-x,y,1/2-z
1/2-x,1/2-y,1/2-z
1/2+x,y,1/2-z
1/2-x,1/2+y,1/2+z
1/2+x,-y,1/2+z
loop_
_atom_site_type_symbol
_atom_site_label
_atom_site_fract_x
_atom_site_fract_y
_atom_site_fract_z
Si Si1 0.920956 0.419066 0.050796
Si Si2 0.332126 0.409669 0.244597
Si Si3 0.822455 0.079102 0.645503
Si Si4 0.678518 0.420514 0.357311
Si Si5 0.420689 0.418680 0.948778
O O1 0.913447 0.250000 0.040546
O O2 0.875342 0.469961 0.099178
O O3 0.000000 0.463150 0.062655
O O4 0.892925 0.500000 0.000000
O O5 0.360877 0.250000 0.230221
O O6 0.250000 0.403886 0.250000
O O7 0.354610 0.521293 0.199845
O O8 0.357929 0.458449 0.301883
O O9 0.813322 0.250000 0.649977
O O10 0.874790 0.033544 0.600067
O O11 0.748923 0.007559 0.633383
O O12 0.695920 0.250000 0.359631
O O13 0.500000 0.461282 0.936480
O O14 0.412859 0.250000 0.959886
O O15 0.393613 0.500000 0.000000
#
# Coordination Sequence:
#
# PCOD8298342 Si02
#       5
#    16  16  16  16  16
#     4   9  18  33  51  69  92 124 158 191 230 274
#     4   8  15  29  47  67  93 124 154 185 226 273
#     4  10  19  30  48  73  96 119 151 192 233 273
#     4   9  18  32  49  69  95 125 155 190 229 270
#     4   9  19  35  51  67  91 123 156 190 230 275
#
# _framework density 17.400345000000002
#
# number of rings (size 3 to 8) (size 9 to 14) (size 15 to 20)
#    0.000    3.000    0.000    1.800    0.000    6.800 
#    0.000    5.000    0.000    1.200    0.000    0.000 
#    0.000    0.000    0.000    0.000    0.000    0.000 
#
# Total GULP energy -495877.310551 kJ/mol
# GULP energy per Si atom -12396.932764 kJ/mol
# Density = 1.736074 g / cm^3
# Si number density = 17.400345 Si / 1000 Ang^3
#
#
#
# Elastic Constant Matrix: (Units=GPa)
#
#
# Indices 1 2 3 4 5 6 
#
# 1 63.9092 39.7399 76.4192 0.0000 0.0000 0.0000
# 2 39.7399 62.7703 68.2620 0.0000 0.0000 0.0000
# 3 76.4192 68.2620 191.9256 0.0000 0.0000 0.0000
# 4 0.0000 0.0000 0.0000 34.7532 0.0000 0.0000
# 5 0.0000 0.0000 0.0000 0.0000 11.3903 0.0000
# 6 0.0000 0.0000 0.0000 0.0000 0.0000 18.2741
#
#
#
# Elastic Compliance Matrix: (Units=1/GPa)
#
#
# Indices 1 2 3 4 5 6 
#
# 1 0.034033 -0.011105 -0.009601 0.000000 0.000000 0.000000
# 2 -0.011105 0.029603 -0.006107 0.000000 0.000000 0.000000
# 3 -0.009601 -0.006107 0.011205 0.000000 0.000000 0.000000
# 4 0.000000 0.000000 0.000000 0.028774 0.000000 0.000000
# 5 0.000000 0.000000 0.000000 0.000000 0.087794 0.000000
# 6 0.000000 0.000000 0.000000 0.000000 0.000000 0.054722
#
#
# Mechanical properties :
#
#
# Convention : Reuss Voigt Hill
#
# Bulk Modulus (GPa) = 47.13718 76.38302 61.76010
# Shear Modulus (GPa) = 16.29556 21.82912 19.06234
#
# Velocity S-wave (km/s) = 3.06356 3.54577 3.31345
# Velocity P-wave (km/s) = 6.29782 7.79461 7.08585
#
# Compressibility (1/GPa) = 0.02121467
#
# Stress axis : x y z
#
# Youngs Moduli (GPa) = 29.38294 33.77992 89.24220
#
# Poissons Ratio (x) = 0.37513 0.85684
# Poissons Ratio (y) = 0.32630 0.54502
# Poissons Ratio (z) = 0.28211 0.20630
#
# Static dielectric constant tensor:
#      x y z
#    x 3.035130 0.000000 0.000000 
#    y 0.000000 3.195640 0.000000 
#    z 0.000000 0.000000 3.772910 
# 
# 
# High freq. dielectric constant tensor:
#      x y z
#    x 1.642130 0.000000 0.000000 
#    y 0.000000 1.668540 0.000000 
#    z 0.000000 0.000000 1.688280 
# 
# From -- ./inp_files/72861.got.cif
#   From: 2010.03.12/outbox.cif.g09.slc.cpg/sg74_37_cif.got.tgz:72861.got - 2010.04.16 15:46:19.
