data_PCOD8298877
_publ_section_title
;
Structure prediction by ZEFSAII (Michael W. Deem and Ramdas Pophale) SiO2 
 PCOD8298877
Probable space group: I M M A
;
_chemical_formula_sum "Si O2"
_cell_formula_units_Z 104
_cell_length_a 31.192332
_cell_length_b 9.241033
_cell_length_c 19.458202
_cell_angle_alpha 90.000000
_cell_angle_beta 90.000000
_cell_angle_gamma 90.000000
_cell_volume 5608.814455
_symmetry_space_group_name_H-M "I M M A"
_symmetry_group_IT_number 74
_symmetry_cell_setting 'orthorhombic'
loop_
_space_group_symop_operation_xyz
x,y,z
-x,1/2-y,z
x,-y,-z
-x,1/2+y,-z
-x,-y,-z
x,1/2+y,-z
-x,y,z
x,1/2-y,z
1/2+x,1/2+y,1/2+z
1/2-x,-y,1/2+z
1/2+x,1/2-y,1/2-z
1/2-x,y,1/2-z
1/2-x,1/2-y,1/2-z
1/2+x,y,1/2-z
1/2-x,1/2+y,1/2+z
1/2+x,-y,1/2+z
loop_
_atom_site_type_symbol
_atom_site_label
_atom_site_fract_x
_atom_site_fract_y
_atom_site_fract_z
Si Si1 0.793052 0.077877 0.784951
Si Si2 0.181914 0.083051 0.933118
Si Si3 0.625304 0.077750 0.802168
Si Si4 0.452501 0.421855 0.709565
Si Si5 0.093357 0.920515 0.572946
Si Si6 0.418756 0.583162 0.433752
Si Si7 0.000000 0.913398 0.568288
O O1 0.793057 0.250000 0.786342
O O2 0.750000 0.016051 0.750000
O O3 0.795827 0.021930 0.863692
O O4 0.833620 0.025147 0.740810
O O5 0.193147 0.250000 0.944247
O O6 0.131594 0.058083 0.923620
O O7 0.199759 0.000000 0.000000
O O8 0.625232 0.250000 0.814095
O O9 0.583014 0.021920 0.762467
O O10 0.626646 0.995695 0.875119
O O11 0.500000 0.474730 0.732263
O O12 0.449805 0.250000 0.707073
O O13 0.442367 0.480662 0.633240
O O14 0.103583 0.750000 0.564598
O O15 0.045285 0.946063 0.606123
O O16 0.097862 0.000000 0.500000
O O17 0.436456 0.500000 0.500000
O O18 0.429763 0.750000 0.444739
O O19 0.000000 0.750000 0.543279
O O20 0.000000 0.000000 0.500000
#
# Coordination Sequence:
#
# PCOD8298877 Si02
#       7
#    16  16  16  16  16  16   8
#     4   9  17  32  55  79 102 132 172 213 255 306
#     4   9  16  29  50  74  98 127 164 203 243 291
#     4  10  19  33  53  76 101 132 171 213 257 308
#     4   9  17  29  46  70 100 134 169 205 247 299
#     4  10  20  35  53  75 103 136 172 211 257 308
#     4   9  16  28  46  68  96 129 166 205 241 285
#     4   8  16  30  48  70  98 130 167 206 245 296
#
# _framework density 18.542242999999999
#
# number of rings (size 3 to 8) (size 9 to 14) (size 15 to 20)
#    0.000    2.769    1.538    0.462    1.077    0.923 
#    0.000    2.308    0.000    4.615    0.000    0.000 
#    0.000    0.000    0.000    0.000    0.000    0.000 
#
# Total GULP energy -644430.150163 kJ/mol
# GULP energy per Si atom -12392.887503 kJ/mol
# Density = 1.850004 g / cm^3
# Si number density = 18.542243 Si / 1000 Ang^3
#
#
#
# Elastic Constant Matrix: (Units=GPa)
#
#
# Indices 1 2 3 4 5 6 
#
# 1 98.6406 28.9697 70.1274 0.0000 0.0000 0.0000
# 2 28.9697 43.9833 42.3726 0.0000 0.0000 0.0000
# 3 70.1274 42.3726 144.4660 0.0000 0.0000 0.0000
# 4 0.0000 0.0000 0.0000 31.1930 0.0000 0.0000
# 5 0.0000 0.0000 0.0000 0.0000 28.3284 0.0000
# 6 0.0000 0.0000 0.0000 0.0000 0.0000 10.2885
#
#
#
# Elastic Compliance Matrix: (Units=1/GPa)
#
#
# Indices 1 2 3 4 5 6 
#
# 1 0.016035 -0.004269 -0.006532 0.000000 0.000000 0.000000
# 2 -0.004269 0.032827 -0.007556 0.000000 0.000000 0.000000
# 3 -0.006532 -0.007556 0.012309 0.000000 0.000000 0.000000
# 4 0.000000 0.000000 0.000000 0.032058 0.000000 0.000000
# 5 0.000000 0.000000 0.000000 0.000000 0.035300 0.000000
# 6 0.000000 0.000000 0.000000 0.000000 0.000000 0.097196
#
#
# Mechanical properties :
#
#
# Convention : Reuss Voigt Hill
#
# Bulk Modulus (GPa) = 40.88724 63.33659 52.11192
# Shear Modulus (GPa) = 18.47801 23.67001 21.07401
#
# Velocity S-wave (km/s) = 3.16022 3.57675 3.37492
# Velocity P-wave (km/s) = 5.95103 7.16168 6.58424
#
# Compressibility (1/GPa) = 0.02445751
#
# Stress axis : x y z
#
# Youngs Moduli (GPa) = 62.36246 30.46273 81.24172
#
# Poissons Ratio (x) = 0.13005 0.53065
# Poissons Ratio (y) = 0.26623 0.61386
# Poissons Ratio (z) = 0.40734 0.23018
#
# Static dielectric constant tensor:
#      x y z
#    x 3.610730 0.000000 0.000000 
#    y 0.000000 3.035100 0.000000 
#    z 0.000000 0.000000 3.479380 
# 
# 
# High freq. dielectric constant tensor:
#      x y z
#    x 1.703680 0.000000 0.000000 
#    y 0.000000 1.680750 0.000000 
#    z 0.000000 0.000000 1.726810 
# 
# From -- ./inp_files/55216.got.cif
#   From: 2010.03.12/outbox.cif.g09.slc.cpg/sg74_28_cif.got.tgz:55216.got - 2010.04.16 15:46:19.
