data_PCOD8298041
_publ_section_title
;
Structure prediction by ZEFSAII (Michael W. Deem and Ramdas Pophale) SiO2 
 PCOD8298041
Probable space group: I M M A
;
_chemical_formula_sum "Si O2"
_cell_formula_units_Z 88
_cell_length_a 27.648238
_cell_length_b 9.019300
_cell_length_c 19.510999
_cell_angle_alpha 90.000000
_cell_angle_beta 90.000000
_cell_angle_gamma 90.000000
_cell_volume 4865.413979
_symmetry_space_group_name_H-M "I M M A"
_symmetry_group_IT_number 74
_symmetry_cell_setting 'orthorhombic'
loop_
_space_group_symop_operation_xyz
x,y,z
-x,1/2-y,z
x,-y,-z
-x,1/2+y,-z
-x,-y,-z
x,1/2+y,-z
-x,y,z
x,1/2-y,z
1/2+x,1/2+y,1/2+z
1/2-x,-y,1/2+z
1/2+x,1/2-y,1/2-z
1/2-x,y,1/2-z
1/2-x,1/2-y,1/2-z
1/2+x,y,1/2-z
1/2-x,1/2+y,1/2+z
1/2+x,-y,1/2+z
loop_
_atom_site_type_symbol
_atom_site_label
_atom_site_fract_x
_atom_site_fract_y
_atom_site_fract_z
Si Si1 0.369116 0.074400 0.929116
Si Si2 0.580823 0.425500 0.323352
Si Si3 0.054602 0.580471 0.315423
Si Si4 0.000000 0.074648 0.073029
Si Si5 0.288934 0.574105 0.847184
Si Si6 0.186474 0.074913 0.195812
O O1 0.366619 0.250000 0.938048
O O2 0.409287 0.023893 0.874182
O O3 0.316758 0.012972 0.906604
O O4 0.384461 0.000000 0.000000
O O5 0.578931 0.250000 0.317589
O O6 0.560578 0.485243 0.252459
O O7 0.547520 0.480150 0.385933
O O8 0.635921 0.481740 0.336574
O O9 0.066154 0.750000 0.296552
O O10 0.000000 0.562123 0.343106
O O11 0.000000 0.250000 0.063536
O O12 0.000000 0.000000 0.000000
O O13 0.295113 0.750000 0.858118
O O14 0.232361 0.523771 0.849724
O O15 0.309972 0.519167 0.774146
O O16 0.188425 0.250000 0.199496
#
# Coordination Sequence:
#
# PCOD8298041 Si02
#       6
#    16  16  16   8  16  16
#     4  11  23  37  53  76 108 147 185 225 273 324
#     4  10  18  33  57  84 108 137 180 221 260 318
#     4  10  21  36  54  79 109 139 176 225 277 322
#     4  10  22  36  54  80 109 142 175 212 261 316
#     4   9  16  31  54  79 106 140 174 213 267 319
#     4   8  15  28  53  83 108 134 170 216 264 315
#
# _framework density 18.086848
#
# number of rings (size 3 to 8) (size 9 to 14) (size 15 to 20)
#    0.000    2.364    2.727    1.636    0.000    1.818 
#    0.000    3.636    0.000    2.182    0.000    0.000 
#    0.000    0.000    0.000    0.000    0.000    0.000 
#
# Total GULP energy -545484.558515 kJ/mol
# GULP energy per Si atom -12397.376330 kJ/mol
# Density = 1.804568 g / cm^3
# Si number density = 18.086848 Si / 1000 Ang^3
#
#
#
# Elastic Constant Matrix: (Units=GPa)
#
#
# Indices 1 2 3 4 5 6 
#
# 1 153.3345 31.8291 69.2449 0.0000 0.0000 0.0000
# 2 31.8291 39.6913 36.2704 0.0000 0.0000 0.0000
# 3 69.2449 36.2704 124.0441 0.0000 0.0000 0.0000
# 4 0.0000 0.0000 0.0000 27.2472 0.0000 0.0000
# 5 0.0000 0.0000 0.0000 0.0000 29.5030 0.0000
# 6 0.0000 0.0000 0.0000 0.0000 0.0000 15.0736
#
#
#
# Elastic Compliance Matrix: (Units=1/GPa)
#
#
# Indices 1 2 3 4 5 6 
#
# 1 0.009085 -0.003618 -0.004014 0.000000 0.000000 0.000000
# 2 -0.003618 0.035822 -0.008455 0.000000 0.000000 0.000000
# 3 -0.004014 -0.008455 0.012774 0.000000 0.000000 0.000000
# 4 0.000000 0.000000 0.000000 0.036701 0.000000 0.000000
# 5 0.000000 0.000000 0.000000 0.000000 0.033895 0.000000
# 6 0.000000 0.000000 0.000000 0.000000 0.000000 0.066341
#
#
# Mechanical properties :
#
#
# Convention : Reuss Voigt Hill
#
# Bulk Modulus (GPa) = 39.20220 65.75096 52.47658
# Shear Modulus (GPa) = 21.25003 26.34646 23.79825
#
# Velocity S-wave (km/s) = 3.43138 3.82077 3.63130
# Velocity P-wave (km/s) = 6.11724 7.47638 6.83070
#
# Compressibility (1/GPa) = 0.02550877
#
# Stress axis : x y z
#
# Youngs Moduli (GPa) = 110.06817 27.91615 78.28149
#
# Poissons Ratio (x) = 0.10099 0.31421
# Poissons Ratio (y) = 0.39820 0.66184
# Poissons Ratio (z) = 0.44179 0.23602
#
# Static dielectric constant tensor:
#      x y z
#    x 3.992440 0.000000 0.000000 
#    y 0.000000 3.084870 0.000000 
#    z 0.000000 0.000000 3.152300 
# 
# 
# High freq. dielectric constant tensor:
#      x y z
#    x 1.720280 0.000000 0.000000 
#    y 0.000000 1.678190 0.000000 
#    z 0.000000 0.000000 1.677890 
# 
# From -- ./inp_files/40067.got.cif
#   From: 2010.03.12/outbox.cif.g09.slc.cpg/sg74_21_cif.got.tgz:40067.got - 2010.04.16 15:46:19.
