data_PCOD8298955
_publ_section_title
;
Structure prediction by ZEFSAII (Michael W. Deem and Ramdas Pophale) SiO2 
 PCOD8298955
Probable space group: I M M A
;
_chemical_formula_sum "Si O2"
_cell_formula_units_Z 64
_cell_length_a 9.619099
_cell_length_b 17.494996
_cell_length_c 18.613569
_cell_angle_alpha 90.000000
_cell_angle_beta 90.000000
_cell_angle_gamma 90.000000
_cell_volume 3132.404907
_symmetry_space_group_name_H-M "I M M A"
_symmetry_group_IT_number 74
_symmetry_cell_setting 'orthorhombic'
loop_
_space_group_symop_operation_xyz
x,y,z
-x,1/2-y,z
x,-y,-z
-x,1/2+y,-z
-x,-y,-z
x,1/2+y,-z
-x,y,z
x,1/2-y,z
1/2+x,1/2+y,1/2+z
1/2-x,-y,1/2+z
1/2+x,1/2-y,1/2-z
1/2-x,y,1/2-z
1/2-x,1/2-y,1/2-z
1/2+x,y,1/2-z
1/2-x,1/2+y,1/2+z
1/2+x,-y,1/2+z
loop_
_atom_site_type_symbol
_atom_site_label
_atom_site_fract_x
_atom_site_fract_y
_atom_site_fract_z
Si Si1 0.348072 0.163689 0.191127
Si Si2 0.159824 0.605134 0.919964
Si Si3 0.838181 0.539062 0.178825
Si Si4 0.663230 0.164600 0.572662
O O1 0.500000 0.122857 0.187043
O O2 0.372931 0.250000 0.216039
O O3 0.250000 0.120775 0.250000
O O4 0.266786 0.164073 0.116240
O O5 0.188243 0.522755 0.884482
O O6 0.000000 0.630452 0.906517
O O7 0.197944 0.610840 0.003940
O O8 0.750000 0.522343 0.250000
O O9 0.787581 0.619606 0.144091
O O10 0.000000 0.540804 0.200197
O O11 0.500000 0.175005 0.576369
O O12 0.731599 0.250000 0.568906
#
# Coordination Sequence:
#
# PCOD8298955 Si02
#       4
#    16  16  16  16
#     4  10  20  32  47  71 105 143 181 220 263 316
#     4  10  19  33  55  80 106 136 174 222 273 322
#     4  10  21  36  55  81 111 143 181 224 269 320
#     4   9  18  34  57  82 107 140 183 227 270 319
#
# _framework density 20.431584999999998
#
# number of rings (size 3 to 8) (size 9 to 14) (size 15 to 20)
#    0.000    2.250    0.000    3.000    0.000    9.000 
#    0.000    1.250    0.000    4.500    0.000    0.000 
#    0.000    0.000    0.000    0.000    0.000    0.000 
#
# Total GULP energy -396454.092025 kJ/mol
# GULP energy per Si atom -12389.190376 kJ/mol
# Density = 2.038508 g / cm^3
# Si number density = 20.431585 Si / 1000 Ang^3
#
#
#
# Elastic Constant Matrix: (Units=GPa)
#
#
# Indices 1 2 3 4 5 6 
#
# 1 100.7676 25.6800 43.9749 0.0000 0.0000 0.0000
# 2 25.6800 104.0839 53.1613 0.0000 0.0000 0.0000
# 3 43.9749 53.1613 102.7922 0.0000 0.0000 0.0000
# 4 0.0000 0.0000 0.0000 30.3766 0.0000 0.0000
# 5 0.0000 0.0000 0.0000 0.0000 26.2300 0.0000
# 6 0.0000 0.0000 0.0000 0.0000 0.0000 15.7427
#
#
#
# Elastic Compliance Matrix: (Units=1/GPa)
#
#
# Indices 1 2 3 4 5 6 
#
# 1 0.012219 -0.000469 -0.004985 0.000000 0.000000 0.000000
# 2 -0.000469 0.013074 -0.006561 0.000000 0.000000 0.000000
# 3 -0.004985 -0.006561 0.015254 0.000000 0.000000 0.000000
# 4 0.000000 0.000000 0.000000 0.032920 0.000000 0.000000
# 5 0.000000 0.000000 0.000000 0.000000 0.038124 0.000000
# 6 0.000000 0.000000 0.000000 0.000000 0.000000 0.063521
#
#
# Mechanical properties :
#
#
# Convention : Reuss Voigt Hill
#
# Bulk Modulus (GPa) = 60.54053 61.47512 61.00783
# Shear Modulus (GPa) = 24.43215 26.79171 25.61193
#
# Velocity S-wave (km/s) = 3.46179 3.62510 3.54439
# Velocity P-wave (km/s) = 6.75824 6.90474 6.83188
#
# Compressibility (1/GPa) = 0.01651786
#
# Stress axis : x y z
#
# Youngs Moduli (GPa) = 81.84237 76.48509 65.55575
#
# Poissons Ratio (x) = 0.03584 0.32678
# Poissons Ratio (y) = 0.03835 0.43013
# Poissons Ratio (z) = 0.40797 0.50184
#
# Static dielectric constant tensor:
#      x y z
#    x 3.678570 0.000000 0.000000 
#    y 0.000000 3.896960 0.000000 
#    z 0.000000 0.000000 3.771950 
# 
# 
# High freq. dielectric constant tensor:
#      x y z
#    x 1.766810 0.000000 0.000000 
#    y 0.000000 1.795060 0.000000 
#    z 0.000000 0.000000 1.794290 
# 
# From -- ./inp_files/39058.got.cif
#   From: 2010.03.12/outbox.cif.g09.slc.cpg/sg74_20_cif.got.tgz:39058.got - 2010.04.16 15:46:19.
