data_PCOD8298595
_publ_section_title
;
Structure prediction by ZEFSAII (Michael W. Deem and Ramdas Pophale) SiO2 
 PCOD8298595
Probable space group: I M M A
;
_chemical_formula_sum "Si O2"
_cell_formula_units_Z 104
_cell_length_a 27.259021
_cell_length_b 9.443382
_cell_length_c 23.548673
_cell_angle_alpha 90.000000
_cell_angle_beta 90.000000
_cell_angle_gamma 90.000000
_cell_volume 6061.836958
_symmetry_space_group_name_H-M "I M M A"
_symmetry_group_IT_number 74
_symmetry_cell_setting 'orthorhombic'
loop_
_space_group_symop_operation_xyz
x,y,z
-x,1/2-y,z
x,-y,-z
-x,1/2+y,-z
-x,-y,-z
x,1/2+y,-z
-x,y,z
x,1/2-y,z
1/2+x,1/2+y,1/2+z
1/2-x,-y,1/2+z
1/2+x,1/2-y,1/2-z
1/2-x,y,1/2-z
1/2-x,1/2-y,1/2-z
1/2+x,y,1/2-z
1/2-x,1/2+y,1/2+z
1/2+x,-y,1/2+z
loop_
_atom_site_type_symbol
_atom_site_label
_atom_site_fract_x
_atom_site_fract_y
_atom_site_fract_z
Si Si1 0.192099 0.909335 0.751366
Si Si2 0.607788 0.413731 0.170042
Si Si3 0.443319 0.584704 0.943600
Si Si4 0.500000 0.093114 0.445804
Si Si5 0.606527 0.415199 0.441432
Si Si6 0.141138 0.088500 0.843359
Si Si7 0.445232 0.091662 0.737555
O O1 0.176533 0.750000 0.770292
O O2 0.250000 0.920742 0.750000
O O3 0.164509 0.941756 0.690639
O O4 0.177597 0.026197 0.796847
O O5 0.594546 0.250000 0.172194
O O6 0.594185 0.466733 0.106414
O O7 0.571640 0.486317 0.213996
O O8 0.500000 0.552359 0.926326
O O9 0.436325 0.750000 0.956765
O O10 0.428381 0.500000 0.000000
O O11 0.500000 0.250000 0.470954
O O12 0.448318 0.069529 0.413143
O O13 0.500000 0.000000 0.500000
O O14 0.609445 0.500000 0.500000
O O15 0.620853 0.250000 0.449996
O O16 0.644596 0.491070 0.399216
O O17 0.156428 0.250000 0.857545
O O18 0.086311 0.080025 0.819379
O O19 0.500000 0.051931 0.719015
O O20 0.441625 0.250000 0.762847
#
# Coordination Sequence:
#
# PCOD8298595 Si02
#       7
#    16  16  16   8  16  16  16
#     4   9  18  34  55  75  94 120 156 201 253 302
#     4   9  17  30  48  70  94 121 157 198 238 284
#     4   9  17  28  43  66  97 131 162 189 221 267
#     4   8  16  28  42  62  88 122 162 196 227 266
#     4  10  19  32  48  68  95 128 165 202 239 282
#     4  10  20  32  48  71  97 126 160 199 243 292
#     4   9  18  30  43  64  95 128 158 191 234 282
#
# _framework density 17.156516
#
# number of rings (size 3 to 8) (size 9 to 14) (size 15 to 20)
#    0.000    2.769    0.000    1.385    1.077    3.077 
#    0.000    1.538    0.000    0.923    0.000    2.154 
#    0.000    0.000    0.000    0.000    0.000    0.000 
#
# Total GULP energy -644217.460736 kJ/mol
# GULP energy per Si atom -12388.797322 kJ/mol
# Density = 1.711747 g / cm^3
# Si number density = 17.156516 Si / 1000 Ang^3
#
#
#
# Elastic Constant Matrix: (Units=GPa)
#
#
# Indices 1 2 3 4 5 6 
#
# 1 73.5693 29.9271 33.0114 0.0000 0.0000 0.0000
# 2 29.9271 90.8192 51.1069 0.0000 0.0000 0.0000
# 3 33.0114 51.1069 92.7132 0.0000 0.0000 0.0000
# 4 0.0000 0.0000 0.0000 31.3266 0.0000 0.0000
# 5 0.0000 0.0000 0.0000 0.0000 15.6631 0.0000
# 6 0.0000 0.0000 0.0000 0.0000 0.0000 16.0105
#
#
#
# Elastic Compliance Matrix: (Units=1/GPa)
#
#
# Indices 1 2 3 4 5 6 
#
# 1 0.016773 -0.003141 -0.004241 0.000000 0.000000 0.000000
# 2 -0.003141 0.016550 -0.008005 0.000000 0.000000 0.000000
# 3 -0.004241 -0.008005 0.016709 0.000000 0.000000 0.000000
# 4 0.000000 0.000000 0.000000 0.031922 0.000000 0.000000
# 5 0.000000 0.000000 0.000000 0.000000 0.063844 0.000000
# 6 0.000000 0.000000 0.000000 0.000000 0.000000 0.062459
#
#
# Mechanical properties :
#
#
# Convention : Reuss Voigt Hill
#
# Bulk Modulus (GPa) = 51.92361 53.91028 52.91694
# Shear Modulus (GPa) = 20.37072 22.13712 21.25392
#
# Velocity S-wave (km/s) = 3.44953 3.59598 3.52351
# Velocity P-wave (km/s) = 6.79676 6.98085 6.88942
#
# Compressibility (1/GPa) = 0.01925906
#
# Stress axis : x y z
#
# Youngs Moduli (GPa) = 59.61899 60.42129 59.84930
#
# Poissons Ratio (x) = 0.18976 0.25382
# Poissons Ratio (y) = 0.18724 0.47909
# Poissons Ratio (z) = 0.25285 0.48367
#
# Static dielectric constant tensor:
#      x y z
#    x 3.115710 0.000000 0.000000 
#    y 0.000000 3.354970 0.000000 
#    z 0.000000 0.000000 3.018590 
# 
# 
# High freq. dielectric constant tensor:
#      x y z
#    x 1.634520 0.000000 0.000000 
#    y 0.000000 1.674580 0.000000 
#    z 0.000000 0.000000 1.645800 
# 
# From -- ./inp_files/55619.got.cif
#   From: 2010.03.12/outbox.cif.g09.slc.cpg/sg74_28_cif.got.tgz:55619.got - 2010.04.16 15:46:19.
