data_PCOD8298139
_publ_section_title
;
Structure prediction by ZEFSAII (Michael W. Deem and Ramdas Pophale) SiO2 
 PCOD8298139
Probable space group: I M M A
;
_chemical_formula_sum "Si O2"
_cell_formula_units_Z 80
_cell_length_a 23.064023
_cell_length_b 8.852696
_cell_length_c 29.085066
_cell_angle_alpha 90.000000
_cell_angle_beta 90.000000
_cell_angle_gamma 90.000000
_cell_volume 5938.553413
_symmetry_space_group_name_H-M "I M M A"
_symmetry_group_IT_number 74
_symmetry_cell_setting 'orthorhombic'
loop_
_space_group_symop_operation_xyz
x,y,z
-x,1/2-y,z
x,-y,-z
-x,1/2+y,-z
-x,-y,-z
x,1/2+y,-z
-x,y,z
x,1/2-y,z
1/2+x,1/2+y,1/2+z
1/2-x,-y,1/2+z
1/2+x,1/2-y,1/2-z
1/2-x,y,1/2-z
1/2-x,1/2-y,1/2-z
1/2+x,y,1/2-z
1/2-x,1/2+y,1/2+z
1/2+x,-y,1/2+z
loop_
_atom_site_type_symbol
_atom_site_label
_atom_site_fract_x
_atom_site_fract_y
_atom_site_fract_z
Si Si1 0.434185 0.074607 0.719666
Si Si2 0.770563 0.576393 0.811955
Si Si3 0.877926 0.576445 0.867426
Si Si4 0.066015 0.927313 0.047258
Si Si5 0.827543 0.924371 0.274170
O O1 0.500000 0.034932 0.732653
O O2 0.426868 0.250000 0.705622
O O3 0.395678 0.038823 0.765428
O O4 0.415181 0.975130 0.676343
O O5 0.773286 0.750000 0.795792
O O6 0.808631 0.555704 0.858115
O O7 0.797533 0.466648 0.773922
O O8 0.702773 0.522271 0.815527
O O9 0.893325 0.750000 0.877185
O O10 0.892759 0.479334 0.911800
O O11 0.070711 0.750000 0.041957
O O12 0.000000 0.978270 0.057799
O O13 0.088293 0.000000 0.000000
O O14 0.818164 0.750000 0.285964
#
# Coordination Sequence:
#
# PCOD8298139 Si02
#       5
#    16  16  16  16  16
#     4   9  17  27  37  51  72  96 121 150 183 215
#     4   9  16  25  36  50  69  90 112 143 180 212
#     4  10  19  28  39  55  72  91 118 151 184 217
#     4  10  20  32  44  56  71  92 117 147 183 220
#     4   9  15  23  36  51  67  89 117 146 175 210
#
# _framework density 13.471294
#
# number of rings (size 3 to 8) (size 9 to 14) (size 15 to 20)
#    0.000    2.600    0.000    4.200    0.000    7.200 
#    0.000    0.000    0.000    0.000    0.000    0.000 
#    0.000    0.000    0.000    0.000    0.000    1.000 
#
# Total GULP energy -495597.562201 kJ/mol
# GULP energy per Si atom -12389.939055 kJ/mol
# Density = 1.344063 g / cm^3
# Si number density = 13.471294 Si / 1000 Ang^3
#
#
#
# Elastic Constant Matrix: (Units=GPa)
#
#
# Indices 1 2 3 4 5 6 
#
# 1 86.7980 29.5135 43.7765 0.0000 0.0000 0.0000
# 2 29.5135 48.4516 23.6336 0.0000 0.0000 0.0000
# 3 43.7765 23.6336 51.5080 0.0000 0.0000 0.0000
# 4 0.0000 0.0000 0.0000 19.7437 0.0000 0.0000
# 5 0.0000 0.0000 0.0000 0.0000 18.3434 0.0000
# 6 0.0000 0.0000 0.0000 0.0000 0.0000 18.2247
#
#
#
# Elastic Compliance Matrix: (Units=1/GPa)
#
#
# Indices 1 2 3 4 5 6 
#
# 1 0.021173 -0.005308 -0.015560 0.000000 0.000000 0.000000
# 2 -0.005308 0.027921 -0.008300 0.000000 0.000000 0.000000
# 3 -0.015560 -0.008300 0.036447 0.000000 0.000000 0.000000
# 4 0.000000 0.000000 0.000000 0.050649 0.000000 0.000000
# 5 0.000000 0.000000 0.000000 0.000000 0.054516 0.000000
# 6 0.000000 0.000000 0.000000 0.000000 0.000000 0.054871
#
#
# Mechanical properties :
#
#
# Convention : Reuss Voigt Hill
#
# Bulk Modulus (GPa) = 36.75638 42.28940 39.52289
# Shear Modulus (GPa) = 15.97547 17.25130 16.61338
#
# Velocity S-wave (km/s) = 3.44741 3.58242 3.51557
# Velocity P-wave (km/s) = 6.57194 6.96937 6.77357
#
# Compressibility (1/GPa) = 0.02720616
#
# Stress axis : x y z
#
# Youngs Moduli (GPa) = 47.22934 35.81557 27.43712
#
# Poissons Ratio (x) = 0.19010 0.42692
# Poissons Ratio (y) = 0.25068 0.22773
# Poissons Ratio (z) = 0.73488 0.29727
#
# Static dielectric constant tensor:
#      x y z
#    x 3.232040 0.000000 0.000000 
#    y 0.000000 2.795430 0.000000 
#    z 0.000000 0.000000 2.451120 
# 
# 
# High freq. dielectric constant tensor:
#      x y z
#    x 1.506770 0.000000 0.000000 
#    y 0.000000 1.531760 0.000000 
#    z 0.000000 0.000000 1.460000 
# 
# From -- ./inp_files/70383.got.cif
#   From: 2010.03.12/outbox.cif.g09.slc.cpg/sg74_36_cif.got.tgz:70383.got - 2010.04.16 15:46:19.
