data_PCOD8298898
_publ_section_title
;
Structure prediction by ZEFSAII (Michael W. Deem and Ramdas Pophale) SiO2 
 PCOD8298898
Probable space group: I M M A
;
_chemical_formula_sum "Si O2"
_cell_formula_units_Z 128
_cell_length_a 16.798077
_cell_length_b 18.090058
_cell_length_c 23.576424
_cell_angle_alpha 90.000000
_cell_angle_beta 90.000000
_cell_angle_gamma 90.000000
_cell_volume 7164.360986
_symmetry_space_group_name_H-M "I M M A"
_symmetry_group_IT_number 74
_symmetry_cell_setting 'orthorhombic'
loop_
_space_group_symop_operation_xyz
x,y,z
-x,1/2-y,z
x,-y,-z
-x,1/2+y,-z
-x,-y,-z
x,1/2+y,-z
-x,y,z
x,1/2-y,z
1/2+x,1/2+y,1/2+z
1/2-x,-y,1/2+z
1/2+x,1/2-y,1/2-z
1/2-x,y,1/2-z
1/2-x,1/2-y,1/2-z
1/2+x,y,1/2-z
1/2-x,1/2+y,1/2+z
1/2+x,-y,1/2+z
loop_
_atom_site_type_symbol
_atom_site_label
_atom_site_fract_x
_atom_site_fract_y
_atom_site_fract_z
Si Si1 0.590881 0.977996 0.721749
Si Si2 0.669745 0.928621 0.375145
Si Si3 0.296121 0.978127 0.936516
Si Si4 0.207297 0.834092 0.939871
Si Si5 0.593117 0.041650 0.840504
Si Si6 0.288964 0.335793 0.810741
Si Si7 0.909689 0.831481 0.836497
Si Si8 0.088206 0.165775 0.959794
O O1 0.500000 0.999531 0.708923
O O2 0.608225 0.891565 0.711649
O O3 0.644258 0.028423 0.681228
O O4 0.611470 0.988599 0.787421
O O5 0.727871 0.861640 0.358745
O O6 0.596040 0.890416 0.406982
O O7 0.713413 0.984313 0.418065
O O8 0.282362 0.889312 0.934730
O O9 0.366753 0.003522 0.894910
O O10 0.320844 0.000000 0.000000
O O11 0.239872 0.750000 0.941947
O O12 0.148307 0.846068 0.888090
O O13 0.156497 0.853632 0.995451
O O14 0.500000 0.051742 0.853072
O O15 0.628790 0.120957 0.822433
O O16 0.308611 0.250000 0.817776
O O17 0.250000 0.353421 0.750000
O O18 0.895830 0.750000 0.810059
O O19 0.000000 0.839299 0.859316
O O20 0.097587 0.250000 0.938542
O O21 0.000000 0.154271 0.986095
#
# Coordination Sequence:
#
# PCOD8298898 Si02
#       8
#    16  16  16  16  16  16  16  16
#     4  10  19  33  53  80 113 150 183 222 275 332
#     4  11  19  33  53  79 114 145 183 227 270 329
#     4  11  22  38  58  82 105 141 191 238 287 330
#     4  10  19  34  52  77 112 149 190 231 274 325
#     4  10  23  41  61  82 110 145 185 234 285 333
#     4  10  20  35  57  83 112 146 180 219 269 326
#     4   9  17  30  50  77 111 150 186 221 267 328
#     4  10  20  32  48  75 115 158 190 220 269 332
#
# _framework density 17.866212999999998
#
# number of rings (size 3 to 8) (size 9 to 14) (size 15 to 20)
#    0.000    1.875    3.750    1.125    0.000    2.000 
#    0.000    1.250    0.000    2.625    0.000    0.000 
#    0.000    0.000    0.000    0.000    0.000    0.000 
#
# Total GULP energy -793465.187430 kJ/mol
# GULP energy per Si atom -12397.893554 kJ/mol
# Density = 1.782555 g / cm^3
# Si number density = 17.866213 Si / 1000 Ang^3
#
#
#
# Elastic Constant Matrix: (Units=GPa)
#
#
# Indices 1 2 3 4 5 6 
#
# 1 87.5734 58.9033 44.1367 0.0000 0.0000 0.0000
# 2 58.9033 131.4016 61.4592 0.0000 0.0000 0.0000
# 3 44.1367 61.4592 105.2598 0.0000 0.0000 0.0000
# 4 0.0000 0.0000 0.0000 25.1906 0.0000 0.0000
# 5 0.0000 0.0000 0.0000 0.0000 7.0330 0.0000
# 6 0.0000 0.0000 0.0000 0.0000 0.0000 23.5895
#
#
#
# Elastic Compliance Matrix: (Units=1/GPa)
#
#
# Indices 1 2 3 4 5 6 
#
# 1 0.017369 -0.006025 -0.003765 0.000000 0.000000 0.000000
# 2 -0.006025 0.012559 -0.004807 0.000000 0.000000 0.000000
# 3 -0.003765 -0.004807 0.013886 0.000000 0.000000 0.000000
# 4 0.000000 0.000000 0.000000 0.039697 0.000000 0.000000
# 5 0.000000 0.000000 0.000000 0.000000 0.142188 0.000000
# 6 0.000000 0.000000 0.000000 0.000000 0.000000 0.042392
#
#
# Mechanical properties :
#
#
# Convention : Reuss Voigt Hill
#
# Bulk Modulus (GPa) = 68.39867 72.58146 70.49006
# Shear Modulus (GPa) = 16.54761 21.81165 19.17963
#
# Velocity S-wave (km/s) = 3.04665 3.49783 3.28001
# Velocity P-wave (km/s) = 7.12341 7.55157 7.34062
#
# Compressibility (1/GPa) = 0.01462017
#
# Stress axis : x y z
#
# Youngs Moduli (GPa) = 57.57331 79.62224 72.01659
#
# Poissons Ratio (x) = 0.47972 0.27116
# Poissons Ratio (y) = 0.34688 0.34617
# Poissons Ratio (z) = 0.21678 0.38273
#
# Static dielectric constant tensor:
#      x y z
#    x 3.148290 0.000000 0.000000 
#    y 0.000000 3.443240 0.000000 
#    z 0.000000 0.000000 3.252180 
# 
# 
# High freq. dielectric constant tensor:
#      x y z
#    x 1.670610 0.000000 0.000000 
#    y 0.000000 1.701110 0.000000 
#    z 0.000000 0.000000 1.686400 
# 
# From -- ./inp_files/61147.got.cif
#   From: 2010.03.12/outbox.cif.g09.slc.cpg/sg74_31_cif.got.tgz:61147.got - 2010.04.16 15:46:19.
