data_PCOD8298652
_publ_section_title
;
Structure prediction by ZEFSAII (Michael W. Deem and Ramdas Pophale) SiO2 
 PCOD8298652
Probable space group: I M M A
;
_chemical_formula_sum "Si O2"
_cell_formula_units_Z 88
_cell_length_a 19.817997
_cell_length_b 18.908001
_cell_length_c 12.252595
_cell_angle_alpha 90.000000
_cell_angle_beta 90.000000
_cell_angle_gamma 90.000000
_cell_volume 4591.276557
_symmetry_space_group_name_H-M "I M M A"
_symmetry_group_IT_number 74
_symmetry_cell_setting 'orthorhombic'
loop_
_space_group_symop_operation_xyz
x,y,z
-x,1/2-y,z
x,-y,-z
-x,1/2+y,-z
-x,-y,-z
x,1/2+y,-z
-x,y,z
x,1/2-y,z
1/2+x,1/2+y,1/2+z
1/2-x,-y,1/2+z
1/2+x,1/2-y,1/2-z
1/2-x,y,1/2-z
1/2-x,1/2-y,1/2-z
1/2+x,y,1/2-z
1/2-x,1/2+y,1/2+z
1/2+x,-y,1/2+z
loop_
_atom_site_type_symbol
_atom_site_label
_atom_site_fract_x
_atom_site_fract_y
_atom_site_fract_z
Si Si1 0.925814 0.666324 0.445826
Si Si2 0.750000 0.374887 0.250000
Si Si3 0.888534 0.328874 0.320937
Si Si4 0.715892 0.332891 0.865014
Si Si5 0.925178 0.667628 0.911190
Si Si6 0.304341 0.580036 0.529911
O O1 0.928060 0.750000 0.456378
O O2 0.909806 0.632527 0.566077
O O3 0.864444 0.647104 0.362970
O O4 0.000000 0.638583 0.405508
O O5 0.807680 0.327037 0.304993
O O6 0.718657 0.423311 0.344435
O O7 0.916061 0.250000 0.330535
O O8 0.923125 0.362514 0.213342
O O9 0.726003 0.250000 0.894683
O O10 0.750000 0.351070 0.750000
O O11 0.748448 0.382192 0.956418
O O12 0.903225 0.750000 0.912825
O O13 0.873494 0.624108 0.985781
O O14 0.000000 0.657514 0.959517
O O15 0.318415 0.500000 0.500000
#
# Coordination Sequence:
#
# PCOD8298652 Si02
#       6
#    16   8  16  16  16  16
#     4   9  16  28  50  80 109 138 179 231 284 334
#     4  10  19  32  50  80 107 146 184 232 290 338
#     4   9  15  25  48  81 113 138 170 223 283 338
#     4  10  21  38  58  81 111 151 194 238 288 348
#     4   9  18  33  54  82 115 148 185 232 290 350
#     4  11  23  36  56  82 112 151 194 243 288 348
#
# _framework density 19.166784
#
# number of rings (size 3 to 8) (size 9 to 14) (size 15 to 20)
#    0.000    2.364    1.818    1.364    1.273    4.000 
#    0.000    0.909    0.000    3.818    0.000    0.000 
#    0.000    0.000    0.000    0.000    0.000    0.000 
#
# Total GULP energy -545143.445691 kJ/mol
# GULP energy per Si atom -12389.623766 kJ/mol
# Density = 1.912316 g / cm^3
# Si number density = 19.166784 Si / 1000 Ang^3
#
#
#
# Elastic Constant Matrix: (Units=GPa)
#
#
# Indices 1 2 3 4 5 6 
#
# 1 171.0417 38.4846 51.8741 0.0000 0.0000 0.0000
# 2 38.4846 67.0595 29.9349 0.0000 0.0000 0.0000
# 3 51.8741 29.9349 77.5737 0.0000 0.0000 0.0000
# 4 0.0000 0.0000 0.0000 17.2184 0.0000 0.0000
# 5 0.0000 0.0000 0.0000 0.0000 26.8963 0.0000
# 6 0.0000 0.0000 0.0000 0.0000 0.0000 6.9089
#
#
#
# Elastic Compliance Matrix: (Units=1/GPa)
#
#
# Indices 1 2 3 4 5 6 
#
# 1 0.007680 -0.002555 -0.004150 0.000000 0.000000 0.000000
# 2 -0.002555 0.018865 -0.005571 0.000000 0.000000 0.000000
# 3 -0.004150 -0.005571 0.017816 0.000000 0.000000 0.000000
# 4 0.000000 0.000000 0.000000 0.058077 0.000000 0.000000
# 5 0.000000 0.000000 0.000000 0.000000 0.037180 0.000000
# 6 0.000000 0.000000 0.000000 0.000000 0.000000 0.144741
#
#
# Mechanical properties :
#
#
# Convention : Reuss Voigt Hill
#
# Bulk Modulus (GPa) = 50.48210 61.80690 56.14450
# Shear Modulus (GPa) = 15.84710 23.23014 19.53862
#
# Velocity S-wave (km/s) = 2.87853 3.48516 3.19627
# Velocity P-wave (km/s) = 6.11910 6.96505 6.55574
#
# Compressibility (1/GPa) = 0.01980900
#
# Stress axis : x y z
#
# Youngs Moduli (GPa) = 130.20928 53.00691 56.12986
#
# Poissons Ratio (x) = 0.13543 0.23292
# Poissons Ratio (y) = 0.33269 0.31272
# Poissons Ratio (z) = 0.54033 0.29532
#
# Static dielectric constant tensor:
#      x y z
#    x 3.880690 0.000000 0.000000 
#    y 0.000000 2.965880 0.000000 
#    z 0.000000 0.000000 3.487080 
# 
# 
# High freq. dielectric constant tensor:
#      x y z
#    x 1.762610 0.000000 0.000000 
#    y 0.000000 1.685360 0.000000 
#    z 0.000000 0.000000 1.732510 
# 
# From -- ./inp_files/23706.got.cif
#   From: 2010.03.12/outbox.cif.g09.slc.cpg/sg74_12_cif.got.tgz:23706.got - 2010.04.16 15:46:19.
