data_PCOD8298718
_publ_section_title
;
Structure prediction by ZEFSAII (Michael W. Deem and Ramdas Pophale) SiO2 
 PCOD8298718
Probable space group: I M M A
;
_chemical_formula_sum "Si O2"
_cell_formula_units_Z 104
_cell_length_a 20.490875
_cell_length_b 9.218755
_cell_length_c 29.825580
_cell_angle_alpha 90.000000
_cell_angle_beta 90.000000
_cell_angle_gamma 90.000000
_cell_volume 5634.062691
_symmetry_space_group_name_H-M "I M M A"
_symmetry_group_IT_number 74
_symmetry_cell_setting 'orthorhombic'
loop_
_space_group_symop_operation_xyz
x,y,z
-x,1/2-y,z
x,-y,-z
-x,1/2+y,-z
-x,-y,-z
x,1/2+y,-z
-x,y,z
x,1/2-y,z
1/2+x,1/2+y,1/2+z
1/2-x,-y,1/2+z
1/2+x,1/2-y,1/2-z
1/2-x,y,1/2-z
1/2-x,1/2-y,1/2-z
1/2+x,y,1/2-z
1/2-x,1/2+y,1/2+z
1/2+x,-y,1/2+z
loop_
_atom_site_type_symbol
_atom_site_label
_atom_site_fract_x
_atom_site_fract_y
_atom_site_fract_z
Si Si1 0.779650 0.916554 0.122017
Si Si2 0.076782 0.410867 0.458598
Si Si3 0.641863 0.420764 0.452213
Si Si4 0.000000 0.585279 0.955069
Si Si5 0.310191 0.922785 0.279314
Si Si6 0.072825 0.422477 0.719997
Si Si7 0.874549 0.916016 0.375137
O O1 0.800914 0.750000 0.114072
O O2 0.806712 0.976384 0.169415
O O3 0.702483 0.931656 0.122966
O O4 0.806284 0.015224 0.082198
O O5 0.108047 0.500000 0.500000
O O6 0.107809 0.250000 0.458782
O O7 0.091950 0.487923 0.412405
O O8 0.000000 0.400144 0.464983
O O9 0.649339 0.500000 0.500000
O O10 0.655429 0.250000 0.458949
O O11 0.569004 0.448637 0.430375
O O12 0.000000 0.750000 0.970344
O O13 0.000000 0.500000 0.000000
O O14 0.305889 0.750000 0.278282
O O15 0.250000 0.985527 0.250000
O O16 0.378322 0.980080 0.258512
O O17 0.072364 0.250000 0.720568
O O18 0.099245 0.476032 0.672115
O O19 0.000000 0.484106 0.728791
O O20 0.896227 0.750000 0.382490
#
# Coordination Sequence:
#
# PCOD8298718 Si02
#       7
#    16  16  16   8  16  16  16
#     4  10  20  33  52  79 109 141 177 214 259 312
#     4  10  21  36  53  74 102 135 171 215 264 313
#     4  10  20  36  57  79 106 138 175 218 264 315
#     4   8  16  32  54  76  98 132 172 212 258 310
#     4   9  15  29  50  72 104 142 175 213 261 310
#     4   9  16  27  48  77 104 133 175 222 262 305
#     4  10  19  32  52  76 103 138 177 217 260 309
#
# _framework density 18.459149
#
# number of rings (size 3 to 8) (size 9 to 14) (size 15 to 20)
#    0.000    2.462    1.538    1.385    0.000    3.385 
#    1.385    0.000    0.000    1.385    0.000    0.000 
#    0.000    0.000    0.000    0.000    0.000    0.000 
#
# Total GULP energy -644522.396369 kJ/mol
# GULP energy per Si atom -12394.661469 kJ/mol
# Density = 1.841713 g / cm^3
# Si number density = 18.459149 Si / 1000 Ang^3
#
#
#
# Elastic Constant Matrix: (Units=GPa)
#
#
# Indices 1 2 3 4 5 6 
#
# 1 89.7632 22.7687 36.1155 0.0000 0.0000 0.0000
# 2 22.7687 63.3327 34.4899 0.0000 0.0000 0.0000
# 3 36.1155 34.4899 104.2565 0.0000 0.0000 0.0000
# 4 0.0000 0.0000 0.0000 19.7435 0.0000 0.0000
# 5 0.0000 0.0000 0.0000 0.0000 42.7373 0.0000
# 6 0.0000 0.0000 0.0000 0.0000 0.0000 16.4798
#
#
#
# Elastic Compliance Matrix: (Units=1/GPa)
#
#
# Indices 1 2 3 4 5 6 
#
# 1 0.013334 -0.002779 -0.003700 0.000000 0.000000 0.000000
# 2 -0.002779 0.019838 -0.005600 0.000000 0.000000 0.000000
# 3 -0.003700 -0.005600 0.012726 0.000000 0.000000 0.000000
# 4 0.000000 0.000000 0.000000 0.050650 0.000000 0.000000
# 5 0.000000 0.000000 0.000000 0.000000 0.023399 0.000000
# 6 0.000000 0.000000 0.000000 0.000000 0.000000 0.060680
#
#
# Mechanical properties :
#
#
# Convention : Reuss Voigt Hill
#
# Bulk Modulus (GPa) = 45.99676 49.34451 47.67063
# Shear Modulus (GPa) = 23.58139 26.72400 25.15270
#
# Velocity S-wave (km/s) = 3.57808 3.80904 3.69536
# Velocity P-wave (km/s) = 6.48401 6.79226 6.63993
#
# Compressibility (1/GPa) = 0.02174066
#
# Stress axis : x y z
#
# Youngs Moduli (GPa) = 74.99725 50.40712 78.57919
#
# Poissons Ratio (x) = 0.14007 0.29072
# Poissons Ratio (y) = 0.20841 0.44007
# Poissons Ratio (z) = 0.27747 0.28229
#
# Static dielectric constant tensor:
#      x y z
#    x 3.730970 0.000000 0.000000 
#    y 0.000000 3.186760 0.000000 
#    z 0.000000 0.000000 3.419700 
# 
# 
# High freq. dielectric constant tensor:
#      x y z
#    x 1.723320 0.000000 0.000000 
#    y 0.000000 1.682480 0.000000 
#    z 0.000000 0.000000 1.712390 
# 
# From -- ./inp_files/73354.got.cif
#   From: 2010.03.12/outbox.cif.g09.slc.cpg/sg74_37_cif.got.tgz:73354.got - 2010.04.16 15:46:19.
