data_PCOD8298827
_publ_section_title
;
Structure prediction by ZEFSAII (Michael W. Deem and Ramdas Pophale) SiO2 
 PCOD8298827
Probable space group: I M M A
;
_chemical_formula_sum "Si O2"
_cell_formula_units_Z 96
_cell_length_a 17.388809
_cell_length_b 9.412406
_cell_length_c 28.939215
_cell_angle_alpha 90.000000
_cell_angle_beta 90.000000
_cell_angle_gamma 90.000000
_cell_volume 4736.496662
_symmetry_space_group_name_H-M "I M M A"
_symmetry_group_IT_number 74
_symmetry_cell_setting 'orthorhombic'
loop_
_space_group_symop_operation_xyz
x,y,z
-x,1/2-y,z
x,-y,-z
-x,1/2+y,-z
-x,-y,-z
x,1/2+y,-z
-x,y,z
x,1/2-y,z
1/2+x,1/2+y,1/2+z
1/2-x,-y,1/2+z
1/2+x,1/2-y,1/2-z
1/2-x,y,1/2-z
1/2-x,1/2-y,1/2-z
1/2+x,y,1/2-z
1/2-x,1/2+y,1/2+z
1/2+x,-y,1/2+z
loop_
_atom_site_type_symbol
_atom_site_label
_atom_site_fract_x
_atom_site_fract_y
_atom_site_fract_z
Si Si1 0.678107 0.579356 0.853004
Si Si2 0.186649 0.909154 0.195674
Si Si3 0.324727 0.594825 0.958911
Si Si4 0.647938 0.403925 0.461077
Si Si5 0.412664 0.415889 0.782755
Si Si6 0.086428 0.407658 0.887451
O O1 0.681271 0.750000 0.849528
O O2 0.753290 0.516602 0.827413
O O3 0.670805 0.530647 0.906846
O O4 0.603798 0.513731 0.827470
O O5 0.223298 0.750000 0.197917
O O6 0.154763 0.956673 0.245828
O O7 0.108932 0.904543 0.165896
O O8 0.365173 0.750000 0.959647
O O9 0.236565 0.615548 0.973033
O O10 0.363400 0.500000 0.000000
O O11 0.606281 0.500000 0.500000
O O12 0.607377 0.250000 0.459192
O O13 0.641899 0.481420 0.412249
O O14 0.500000 0.449428 0.765747
O O15 0.406000 0.250000 0.795575
O O16 0.096258 0.250000 0.909151
O O17 0.000000 0.462286 0.892213
#
# Coordination Sequence:
#
# PCOD8298827 Si02
#       6
#    16  16  16  16  16  16
#     4  11  22  37  58  88 120 148 184 232 282 336
#     4  10  20  36  58  82 110 148 192 234 275 322
#     4   9  19  34  54  81 112 143 180 228 279 330
#     4  10  19  33  50  70  99 137 181 228 280 332
#     4  10  22  40  60  84 115 151 192 235 278 330
#     4  10  20  33  50  73 102 140 185 232 280 327
#
# _framework density 20.268143999999999
#
# number of rings (size 3 to 8) (size 9 to 14) (size 15 to 20)
#    0.000    2.000    1.667    2.000    0.000    7.667 
#    0.000    0.000    0.000    3.500    0.000    0.000 
#    0.000    0.000    0.000    0.000    0.000    0.000 
#
# Total GULP energy -594780.150383 kJ/mol
# GULP energy per Si atom -12391.253133 kJ/mol
# Density = 2.022201 g / cm^3
# Si number density = 20.268144 Si / 1000 Ang^3
#
#
#
# Elastic Constant Matrix: (Units=GPa)
#
#
# Indices 1 2 3 4 5 6 
#
# 1 42.7445 18.9549 19.4777 0.0000 0.0000 0.0000
# 2 18.9549 104.6419 62.9760 0.0000 0.0000 0.0000
# 3 19.4777 62.9760 140.7030 0.0000 0.0000 0.0000
# 4 0.0000 0.0000 0.0000 32.6511 0.0000 0.0000
# 5 0.0000 0.0000 0.0000 0.0000 15.4675 0.0000
# 6 0.0000 0.0000 0.0000 0.0000 0.0000 19.3620
#
#
#
# Elastic Compliance Matrix: (Units=1/GPa)
#
#
# Indices 1 2 3 4 5 6 
#
# 1 0.025855 -0.003462 -0.002030 0.000000 0.000000 0.000000
# 2 -0.003462 0.013543 -0.005582 0.000000 0.000000 0.000000
# 3 -0.002030 -0.005582 0.009887 0.000000 0.000000 0.000000
# 4 0.000000 0.000000 0.000000 0.030627 0.000000 0.000000
# 5 0.000000 0.000000 0.000000 0.000000 0.064652 0.000000
# 6 0.000000 0.000000 0.000000 0.000000 0.000000 0.051647
#
#
# Mechanical properties :
#
#
# Convention : Reuss Voigt Hill
#
# Bulk Modulus (GPa) = 36.85029 54.54516 45.69773
# Shear Modulus (GPa) = 21.98730 25.94152 23.96441
#
# Velocity S-wave (km/s) = 3.29723 3.58147 3.44229
# Velocity P-wave (km/s) = 5.71984 6.63873 6.19634
#
# Compressibility (1/GPa) = 0.02713683
#
# Stress axis : x y z
#
# Youngs Moduli (GPa) = 38.67745 73.83833 101.14587
#
# Poissons Ratio (x) = 0.25562 0.20529
# Poissons Ratio (y) = 0.13390 0.56464
# Poissons Ratio (z) = 0.07850 0.41220
#
# Static dielectric constant tensor:
#      x y z
#    x 3.317560 0.000000 0.000000 
#    y 0.000000 3.905310 0.000000 
#    z 0.000000 0.000000 3.773220 
# 
# 
# High freq. dielectric constant tensor:
#      x y z
#    x 1.758490 0.000000 0.000000 
#    y 0.000000 1.788620 0.000000 
#    z 0.000000 0.000000 1.799160 
# 
# From -- ./inp_files/68121.got.cif
#   From: 2010.03.12/outbox.cif.g09.slc.cpg/sg74_35_cif.got.tgz:68121.got - 2010.04.16 15:46:19.
