data_PCOD8298934
_publ_section_title
;
Structure prediction by ZEFSAII (Michael W. Deem and Ramdas Pophale) SiO2 
 PCOD8298934
Probable space group: I M M A
;
_chemical_formula_sum "Si O2"
_cell_formula_units_Z 96
_cell_length_a 23.795495
_cell_length_b 8.797584
_cell_length_c 23.792141
_cell_angle_alpha 90.000000
_cell_angle_beta 90.000000
_cell_angle_gamma 90.000000
_cell_volume 4980.714987
_symmetry_space_group_name_H-M "I M M A"
_symmetry_group_IT_number 74
_symmetry_cell_setting 'orthorhombic'
loop_
_space_group_symop_operation_xyz
x,y,z
-x,1/2-y,z
x,-y,-z
-x,1/2+y,-z
-x,-y,-z
x,1/2+y,-z
-x,y,z
x,1/2-y,z
1/2+x,1/2+y,1/2+z
1/2-x,-y,1/2+z
1/2+x,1/2-y,1/2-z
1/2-x,y,1/2-z
1/2-x,1/2-y,1/2-z
1/2+x,y,1/2-z
1/2-x,1/2+y,1/2+z
1/2+x,-y,1/2+z
loop_
_atom_site_type_symbol
_atom_site_label
_atom_site_fract_x
_atom_site_fract_y
_atom_site_fract_z
Si Si1 0.681439 0.569387 0.561797
Si Si2 0.940842 0.927381 0.939799
Si Si3 0.733749 0.069103 0.666129
Si Si4 0.169008 0.570546 0.736934
Si Si5 0.566888 0.919630 0.055241
Si Si6 0.062784 0.072609 0.331109
O O1 0.689328 0.500000 0.500000
O O2 0.691788 0.750000 0.559956
O O3 0.619063 0.527457 0.587610
O O4 0.725781 0.488757 0.602657
O O5 0.939484 0.750000 0.949823
O O6 0.000000 0.971571 0.907036
O O7 0.943515 0.000000 0.000000
O O8 0.738029 0.250000 0.668418
O O9 0.790853 0.995181 0.688675
O O10 0.681611 0.012151 0.704301
O O11 0.179528 0.750000 0.743440
O O12 0.104530 0.534505 0.720223
O O13 0.500000 0.923609 0.052533
O O14 0.590681 0.750000 0.055927
O O15 0.587344 0.999725 0.112071
O O16 0.592352 0.000000 0.000000
O O17 0.060516 0.250000 0.342950
O O18 0.000000 0.011360 0.316284
#
# Coordination Sequence:
#
# PCOD8298934 Si02
#       6
#    16  16  16  16  16  16
#     4  10  19  33  54  80 110 141 175 217 266 315
#     4   8  14  25  43  68  98 133 170 206 247 300
#     4  11  22  37  57  79 105 138 178 220 261 308
#     4  10  20  37  60  81 103 135 176 218 260 309
#     4   9  16  26  43  68 100 138 175 209 248 300
#     4   9  18  33  54  80 108 136 168 211 263 315
#
# _framework density 19.274341
#
# number of rings (size 3 to 8) (size 9 to 14) (size 15 to 20)
#    0.000    2.500    0.000    4.000    0.000    4.000 
#    0.000    1.667    0.000    9.000    0.000    0.000 
#    0.000    0.000    0.000    0.000    0.000    0.000 
#
# Total GULP energy -594697.762267 kJ/mol
# GULP energy per Si atom -12389.536714 kJ/mol
# Density = 1.923047 g / cm^3
# Si number density = 19.274341 Si / 1000 Ang^3
#
#
#
# Elastic Constant Matrix: (Units=GPa)
#
#
# Indices 1 2 3 4 5 6 
#
# 1 59.4799 17.6594 29.7786 0.0000 0.0000 0.0000
# 2 17.6594 60.4237 16.2837 0.0000 0.0000 0.0000
# 3 29.7786 16.2837 71.3992 0.0000 0.0000 0.0000
# 4 0.0000 0.0000 0.0000 32.5824 0.0000 0.0000
# 5 0.0000 0.0000 0.0000 0.0000 23.5036 0.0000
# 6 0.0000 0.0000 0.0000 0.0000 0.0000 16.5718
#
#
#
# Elastic Compliance Matrix: (Units=1/GPa)
#
#
# Indices 1 2 3 4 5 6 
#
# 1 0.022233 -0.004261 -0.008301 0.000000 0.000000 0.000000
# 2 -0.004261 0.018450 -0.002431 0.000000 0.000000 0.000000
# 3 -0.008301 -0.002431 0.018022 0.000000 0.000000 0.000000
# 4 0.000000 0.000000 0.000000 0.030691 0.000000 0.000000
# 5 0.000000 0.000000 0.000000 0.000000 0.042547 0.000000
# 6 0.000000 0.000000 0.000000 0.000000 0.000000 0.060343
#
#
# Mechanical properties :
#
#
# Convention : Reuss Voigt Hill
#
# Bulk Modulus (GPa) = 34.81856 35.41625 35.11741
# Shear Modulus (GPa) = 21.56603 23.03699 22.30151
#
# Velocity S-wave (km/s) = 3.34862 3.46094 3.40524
# Velocity P-wave (km/s) = 5.74935 5.86392 5.80691
#
# Compressibility (1/GPa) = 0.02872031
#
# Stress axis : x y z
#
# Youngs Moduli (GPa) = 44.97740 54.20012 55.48682
#
# Poissons Ratio (x) = 0.23094 0.46060
# Poissons Ratio (y) = 0.19164 0.13487
# Poissons Ratio (z) = 0.37336 0.13175
#
# Static dielectric constant tensor:
#      x y z
#    x 3.824060 0.000000 0.000000 
#    y 0.000000 3.542190 0.000000 
#    z 0.000000 0.000000 3.337900 
# 
# 
# High freq. dielectric constant tensor:
#      x y z
#    x 1.741580 0.000000 0.000000 
#    y 0.000000 1.756880 0.000000 
#    z 0.000000 0.000000 1.726510 
# 
# From -- ./inp_files/61921.got.cif
#   From: 2010.03.12/outbox.cif.g09.slc.cpg/sg74_31_cif.got.tgz:61921.got - 2010.04.16 15:46:19.
