data_PCOD8298659
_publ_section_title
;
Structure prediction by ZEFSAII (Michael W. Deem and Ramdas Pophale) SiO2 
 PCOD8298659
Probable space group: I M M A
;
_chemical_formula_sum "Si O2"
_cell_formula_units_Z 120
_cell_length_a 27.220247
_cell_length_b 9.104473
_cell_length_c 28.103955
_cell_angle_alpha 90.000000
_cell_angle_beta 90.000000
_cell_angle_gamma 90.000000
_cell_volume 6964.890860
_symmetry_space_group_name_H-M "I M M A"
_symmetry_group_IT_number 74
_symmetry_cell_setting 'orthorhombic'
loop_
_space_group_symop_operation_xyz
x,y,z
-x,1/2-y,z
x,-y,-z
-x,1/2+y,-z
-x,-y,-z
x,1/2+y,-z
-x,y,z
x,1/2-y,z
1/2+x,1/2+y,1/2+z
1/2-x,-y,1/2+z
1/2+x,1/2-y,1/2-z
1/2-x,y,1/2-z
1/2-x,1/2-y,1/2-z
1/2+x,y,1/2-z
1/2-x,1/2+y,1/2+z
1/2+x,-y,1/2+z
loop_
_atom_site_type_symbol
_atom_site_label
_atom_site_fract_x
_atom_site_fract_y
_atom_site_fract_z
Si Si1 0.854289 0.423503 0.197676
Si Si2 0.388371 0.576530 0.548062
Si Si3 0.000000 0.418896 0.451242
Si Si4 0.553731 0.423452 0.360677
Si Si5 0.392824 0.577260 0.949022
Si Si6 0.308931 0.077528 0.122876
Si Si7 0.700948 0.078873 0.394075
Si Si8 0.199969 0.423808 0.723730
O O1 0.848613 0.250000 0.207503
O O2 0.909323 0.466812 0.181607
O O3 0.815998 0.482087 0.157471
O O4 0.844993 0.513511 0.245598
O O5 0.404825 0.500000 0.500000
O O6 0.389966 0.750000 0.540451
O O7 0.425937 0.522330 0.588580
O O8 0.333645 0.519701 0.563391
O O9 0.000000 0.500000 0.500000
O O10 0.947505 0.457202 0.426168
O O11 0.000000 0.250000 0.464247
O O12 0.500000 0.493617 0.351141
O O13 0.549972 0.250000 0.362874
O O14 0.385409 0.750000 0.957533
O O15 0.352948 0.519787 0.910821
O O16 0.385225 0.500000 0.000000
O O17 0.314550 0.250000 0.134136
O O18 0.257798 0.044204 0.095276
O O19 0.306796 0.990177 0.171691
O O20 0.689649 0.250000 0.390472
O O21 0.197041 0.250000 0.719649
O O22 0.250000 0.475208 0.750000
#
# Coordination Sequence:
#
# PCOD8298659 Si02
#       8
#    16  16   8  16  16  16  16  16
#     4   9  16  30  53  72  88 121 163 199 237 287
#     4   9  17  29  44  65  94 127 159 196 242 286
#     4   8  14  28  48  70  94 120 156 194 230 272
#     4   8  15  29  50  73  94 120 162 210 247 282
#     4   9  18  31  50  74  99 129 161 197 236 277
#     4  10  19  32  51  73  96 127 167 200 232 283
#     4   8  15  28  45  64  88 120 158 195 231 280
#     4  11  22  33  48  74 103 127 154 198 250 290
#
# _framework density 17.229272000000002
#
# number of rings (size 3 to 8) (size 9 to 14) (size 15 to 20)
#    0.000    2.933    1.333    2.000    0.000    1.867 
#    0.000    3.333    1.467    1.200    0.000    0.000 
#    0.000    0.000    0.000    0.000    0.000    0.000 
#
# Total GULP energy -743396.769819 kJ/mol
# GULP energy per Si atom -12389.946164 kJ/mol
# Density = 1.719006 g / cm^3
# Si number density = 17.229272 Si / 1000 Ang^3
#
#
#
# Elastic Constant Matrix: (Units=GPa)
#
#
# Indices 1 2 3 4 5 6 
#
# 1 152.7795 31.3277 59.0656 0.0000 0.0000 0.0000
# 2 31.3277 32.5627 31.8147 0.0000 0.0000 0.0000
# 3 59.0656 31.8147 91.4656 0.0000 0.0000 0.0000
# 4 0.0000 0.0000 0.0000 25.6639 0.0000 0.0000
# 5 0.0000 0.0000 0.0000 0.0000 20.8751 0.0000
# 6 0.0000 0.0000 0.0000 0.0000 0.0000 11.5966
#
#
#
# Elastic Compliance Matrix: (Units=1/GPa)
#
#
# Indices 1 2 3 4 5 6 
#
# 1 0.009155 -0.004592 -0.004315 0.000000 0.000000 0.000000
# 2 -0.004592 0.048823 -0.014017 0.000000 0.000000 0.000000
# 3 -0.004315 -0.014017 0.018595 0.000000 0.000000 0.000000
# 4 0.000000 0.000000 0.000000 0.038965 0.000000 0.000000
# 5 0.000000 0.000000 0.000000 0.000000 0.047904 0.000000
# 6 0.000000 0.000000 0.000000 0.000000 0.000000 0.086232
#
#
# Mechanical properties :
#
#
# Convention : Reuss Voigt Hill
#
# Bulk Modulus (GPa) = 32.54636 57.91377 45.23006
# Shear Modulus (GPa) = 16.35256 21.93378 19.14317
#
# Velocity S-wave (km/s) = 3.08411 3.57186 3.33691
# Velocity P-wave (km/s) = 5.62259 7.12021 6.41525
#
# Compressibility (1/GPa) = 0.03072541
#
# Stress axis : x y z
#
# Youngs Moduli (GPa) = 109.22808 20.48234 53.77843
#
# Poissons Ratio (x) = 0.09406 0.23204
# Poissons Ratio (y) = 0.50160 0.75379
# Poissons Ratio (z) = 0.47129 0.28709
#
# Static dielectric constant tensor:
#      x y z
#    x 3.910510 0.000000 0.000000 
#    y 0.000000 3.021130 0.000000 
#    z 0.000000 0.000000 3.036850 
# 
# 
# High freq. dielectric constant tensor:
#      x y z
#    x 1.674610 0.000000 0.000000 
#    y 0.000000 1.634240 0.000000 
#    z 0.000000 0.000000 1.646820 
# 
# From -- ./inp_files/69012.got.cif
#   From: 2010.03.12/outbox.cif.g09.slc.cpg/sg74_35_cif.got.tgz:69012.got - 2010.04.16 15:46:19.
