data_PCOD8298185
_publ_section_title
;
Structure prediction by ZEFSAII (Michael W. Deem and Ramdas Pophale) SiO2 
 PCOD8298185
Probable space group: I M M A
;
_chemical_formula_sum "Si O2"
_cell_formula_units_Z 96
_cell_length_a 22.719220
_cell_length_b 9.018823
_cell_length_c 26.177919
_cell_angle_alpha 90.000000
_cell_angle_beta 90.000000
_cell_angle_gamma 90.000000
_cell_volume 5363.871935
_symmetry_space_group_name_H-M "I M M A"
_symmetry_group_IT_number 74
_symmetry_cell_setting 'orthorhombic'
loop_
_space_group_symop_operation_xyz
x,y,z
-x,1/2-y,z
x,-y,-z
-x,1/2+y,-z
-x,-y,-z
x,1/2+y,-z
-x,y,z
x,1/2-y,z
1/2+x,1/2+y,1/2+z
1/2-x,-y,1/2+z
1/2+x,1/2-y,1/2-z
1/2-x,y,1/2-z
1/2-x,1/2-y,1/2-z
1/2+x,y,1/2-z
1/2-x,1/2+y,1/2+z
1/2+x,-y,1/2+z
loop_
_atom_site_type_symbol
_atom_site_label
_atom_site_fract_x
_atom_site_fract_y
_atom_site_fract_z
Si Si1 0.068170 0.422855 0.946382
Si Si2 0.756674 0.911947 0.455074
Si Si3 0.069485 0.419048 0.448044
Si Si4 0.166807 0.924803 0.892032
Si Si5 0.760813 0.076036 0.307990
Si Si6 0.647272 0.086331 0.870502
O O1 0.083643 0.250000 0.950781
O O2 0.103658 0.494674 0.898247
O O3 0.000000 0.448860 0.933478
O O4 0.084880 0.500000 0.000000
O O5 0.733604 0.750000 0.472284
O O6 0.801057 0.891318 0.409912
O O7 0.790325 0.000000 0.500000
O O8 0.702658 0.018486 0.441001
O O9 0.089808 0.500000 0.500000
O O10 0.092032 0.250000 0.451341
O O11 0.095003 0.494770 0.396977
O O12 0.000000 0.427019 0.442096
O O13 0.157295 0.750000 0.893469
O O14 0.203434 0.972986 0.841179
O O15 0.770751 0.250000 0.314811
O O16 0.750000 0.028924 0.250000
O O17 0.822730 0.999707 0.323395
O O18 0.624208 0.250000 0.853473
#
# Coordination Sequence:
#
# PCOD8298185 Si02
#       6
#    16  16  16  16  16  16
#     4  10  20  33  49  70  99 134 167 198 233 278
#     4  10  19  29  42  64  95 127 158 192 234 285
#     4  10  20  33  50  73 103 139 174 207 244 290
#     4  10  19  31  49  71  95 124 158 198 242 288
#     4   9  19  36  56  76  98 126 162 206 256 305
#     4  10  20  32  49  73  99 129 164 204 249 297
#
# _framework density 17.897518999999999
#
# number of rings (size 3 to 8) (size 9 to 14) (size 15 to 20)
#    0.000    2.167    0.000    3.500    0.000    6.333 
#    0.000    0.000    0.000    1.000    0.000    2.333 
#    0.000    0.000    0.000    0.000    0.000    0.000 
#
# Total GULP energy -594923.369507 kJ/mol
# GULP energy per Si atom -12394.236865 kJ/mol
# Density = 1.785678 g / cm^3
# Si number density = 17.897519 Si / 1000 Ang^3
#
#
#
# Elastic Constant Matrix: (Units=GPa)
#
#
# Indices 1 2 3 4 5 6 
#
# 1 62.2968 40.0792 28.0038 0.0000 0.0000 0.0000
# 2 40.0792 116.7293 50.7533 0.0000 0.0000 0.0000
# 3 28.0038 50.7533 89.5097 0.0000 0.0000 0.0000
# 4 0.0000 0.0000 0.0000 23.5647 0.0000 0.0000
# 5 0.0000 0.0000 0.0000 0.0000 -1.3589 0.0000
# 6 0.0000 0.0000 0.0000 0.0000 0.0000 32.4452
#
#
#
# Elastic Compliance Matrix: (Units=1/GPa)
#
#
# Indices 1 2 3 4 5 6 
#
# 1 0.021333 -0.005870 -0.003346 0.000000 0.000000 0.000000
# 2 -0.005870 0.012985 -0.005526 0.000000 0.000000 0.000000
# 3 -0.003346 -0.005526 0.015352 0.000000 0.000000 0.000000
# 4 0.000000 0.000000 0.000000 0.042436 0.000000 0.000000
# 5 0.000000 0.000000 0.000000 0.000000 -0.735882 0.000000
# 6 0.000000 0.000000 0.000000 0.000000 0.000000 0.030821
#
#
# Mechanical properties :
#
#
# Convention : Reuss Voigt Hill
#
# Bulk Modulus (GPa) = 49.53920 56.24538 52.89229
# Shear Modulus (GPa) = -8.66938 20.91016 6.12039
#
# Velocity S-wave (km/s) = -2.20327 3.42179 1.85125
# Velocity P-wave (km/s) = 4.61160 6.86339 5.84692
#
# Compressibility (1/GPa) = 0.02018604
#
# Stress axis : x y z
#
# Youngs Moduli (GPa) = 46.87662 77.01153 65.13724
#
# Poissons Ratio (x) = 0.45205 0.21793
# Poissons Ratio (y) = 0.27516 0.35997
# Poissons Ratio (z) = 0.15684 0.42559
#
# Static dielectric constant tensor:
#      x y z
#    x 3.308540 0.000000 0.000000 
#    y 0.000000 3.712660 0.000000 
#    z 0.000000 0.000000 3.390180 
# 
# 
# High freq. dielectric constant tensor:
#      x y z
#    x 1.685800 0.000000 0.000000 
#    y 0.000000 1.712010 0.000000 
#    z 0.000000 0.000000 1.658920 
# 
# From -- ./inp_files/64667.got.cif
#   From: 2010.03.12/outbox.cif.g09.slc.cpg/sg74_33_cif.got.tgz:64667.got - 2010.04.16 15:46:19.
