data_PCOD8298486
_publ_section_title
;
Structure prediction by ZEFSAII (Michael W. Deem and Ramdas Pophale) SiO2 
 PCOD8298486
Probable space group: I M M A
;
_chemical_formula_sum "Si O2"
_cell_formula_units_Z 96
_cell_length_a 23.930611
_cell_length_b 23.108025
_cell_length_c 8.162340
_cell_angle_alpha 90.000000
_cell_angle_beta 90.000000
_cell_angle_gamma 90.000000
_cell_volume 4513.685518
_symmetry_space_group_name_H-M "I M M A"
_symmetry_group_IT_number 74
_symmetry_cell_setting 'orthorhombic'
loop_
_space_group_symop_operation_xyz
x,y,z
-x,1/2-y,z
x,-y,-z
-x,1/2+y,-z
-x,-y,-z
x,1/2+y,-z
-x,y,z
x,1/2-y,z
1/2+x,1/2+y,1/2+z
1/2-x,-y,1/2+z
1/2+x,1/2-y,1/2-z
1/2-x,y,1/2-z
1/2-x,1/2-y,1/2-z
1/2+x,y,1/2-z
1/2-x,1/2+y,1/2+z
1/2+x,-y,1/2+z
loop_
_atom_site_type_symbol
_atom_site_label
_atom_site_fract_x
_atom_site_fract_y
_atom_site_fract_z
Si Si1 0.310466 0.314701 0.678975
Si Si2 0.648079 0.459046 0.129847
Si Si3 0.397513 0.857993 0.072389
Si Si4 0.436447 0.186028 0.251126
Si Si5 0.361272 0.096132 0.443467
Si Si6 0.936501 0.956285 0.214353
O O1 0.313214 0.250000 0.602127
O O2 0.250000 0.327153 0.750000
O O3 0.357459 0.317849 0.818757
O O4 0.318556 0.364770 0.544683
O O5 0.673949 0.442515 0.309041
O O6 0.590031 0.493243 0.172351
O O7 0.682772 0.500000 0.000000
O O8 0.640962 0.399794 0.034807
O O9 0.438105 0.895586 0.187660
O O10 0.432706 0.819256 0.946503
O O11 0.500000 0.178538 0.305871
O O12 0.414801 0.250000 0.301106
O O13 0.402648 0.137652 0.345587
O O14 0.398500 0.052912 0.552857
O O15 0.000000 0.973410 0.167685
#
# Coordination Sequence:
#
# PCOD8298486 Si02
#       6
#    16  16  16  16  16  16
#     4  10  21  39  62  84 107 141 188 243 298 342
#     4   9  19  33  51  75 108 144 179 220 269 324
#     4   9  19  34  53  77 110 143 181 231 284 336
#     4  10  19  31  49  76 112 151 185 220 276 350
#     4  10  20  34  53  79 113 145 185 236 283 330
#     4  10  19  31  52  81 112 149 191 230 274 334
#
# _framework density 21.268651999999999
#
# number of rings (size 3 to 8) (size 9 to 14) (size 15 to 20)
#    0.000    2.333    0.000    2.500    0.000    7.000 
#    0.000    3.333    0.000   47.000    0.000    0.000 
#    0.000    0.000    0.000    0.000    0.000    0.000 
#
# Total GULP energy -594644.361488 kJ/mol
# GULP energy per Si atom -12388.424198 kJ/mol
# Density = 2.122024 g / cm^3
# Si number density = 21.268652 Si / 1000 Ang^3
#
#
#
# Elastic Constant Matrix: (Units=GPa)
#
#
# Indices 1 2 3 4 5 6 
#
# 1 40.2568 20.6553 13.4683 0.0000 0.0000 0.0000
# 2 20.6553 85.2894 33.3318 0.0000 0.0000 0.0000
# 3 13.4683 33.3318 118.4307 0.0000 0.0000 0.0000
# 4 0.0000 0.0000 0.0000 29.8301 0.0000 0.0000
# 5 0.0000 0.0000 0.0000 0.0000 11.8441 0.0000
# 6 0.0000 0.0000 0.0000 0.0000 0.0000 18.4842
#
#
#
# Elastic Compliance Matrix: (Units=1/GPa)
#
#
# Indices 1 2 3 4 5 6 
#
# 1 0.028589 -0.006352 -0.001464 0.000000 0.000000 0.000000
# 2 -0.006352 0.014585 -0.003383 0.000000 0.000000 0.000000
# 3 -0.001464 -0.003383 0.009562 0.000000 0.000000 0.000000
# 4 0.000000 0.000000 0.000000 0.033523 0.000000 0.000000
# 5 0.000000 0.000000 0.000000 0.000000 0.084430 0.000000
# 6 0.000000 0.000000 0.000000 0.000000 0.000000 0.054100
#
#
# Mechanical properties :
#
#
# Convention : Reuss Voigt Hill
#
# Bulk Modulus (GPa) = 32.95908 42.09863 37.52885
# Shear Modulus (GPa) = 19.43264 23.79979 21.61622
#
# Velocity S-wave (km/s) = 3.02599 3.34879 3.19147
# Velocity P-wave (km/s) = 5.26678 5.89824 5.59143
#
# Compressibility (1/GPa) = 0.03034066
#
# Stress axis : x y z
#
# Youngs Moduli (GPa) = 34.97826 68.56373 104.57848
#
# Poissons Ratio (x) = 0.43550 0.15306
# Poissons Ratio (y) = 0.22217 0.35374
# Poissons Ratio (z) = 0.05119 0.23192
#
# Static dielectric constant tensor:
#      x y z
#    x 3.237060 0.000000 0.000000 
#    y 0.000000 4.054430 0.000000 
#    z 0.000000 0.000000 4.372400 
# 
# 
# High freq. dielectric constant tensor:
#      x y z
#    x 1.777010 0.000000 0.000000 
#    y 0.000000 1.851690 0.000000 
#    z 0.000000 0.000000 1.851720 
# 
# From -- ./inp_files/13926.got.cif
#   From: 2010.03.12/outbox.cif.g09.slc.cpg/sg74_7_cif.got.tgz:13926.got - 2010.04.16 15:46:19.
