data_PCOD8298628
_publ_section_title
;
Structure prediction by ZEFSAII (Michael W. Deem and Ramdas Pophale) SiO2 
 PCOD8298628
Probable space group: I M M A
;
_chemical_formula_sum "Si O2"
_cell_formula_units_Z 96
_cell_length_a 8.930906
_cell_length_b 22.496025
_cell_length_c 27.218667
_cell_angle_alpha 90.000000
_cell_angle_beta 90.000000
_cell_angle_gamma 90.000000
_cell_volume 5468.499247
_symmetry_space_group_name_H-M "I M M A"
_symmetry_group_IT_number 74
_symmetry_cell_setting 'orthorhombic'
loop_
_space_group_symop_operation_xyz
x,y,z
-x,1/2-y,z
x,-y,-z
-x,1/2+y,-z
-x,-y,-z
x,1/2+y,-z
-x,y,z
x,1/2-y,z
1/2+x,1/2+y,1/2+z
1/2-x,-y,1/2+z
1/2+x,1/2-y,1/2-z
1/2-x,y,1/2-z
1/2-x,1/2-y,1/2-z
1/2+x,y,1/2-z
1/2-x,1/2+y,1/2+z
1/2+x,-y,1/2+z
loop_
_atom_site_type_symbol
_atom_site_label
_atom_site_fract_x
_atom_site_fract_y
_atom_site_fract_z
Si Si1 0.179364 0.750000 0.513341
Si Si2 0.322136 0.522851 0.699408
Si Si3 0.828262 0.868711 0.461808
Si Si4 0.826778 0.452085 0.895139
Si Si5 0.172511 0.867483 0.648735
Si Si6 0.832505 0.555718 0.555690
Si Si7 0.178463 0.750000 0.879198
O O1 0.236763 0.693104 0.482453
O O2 0.255030 0.750000 0.566267
O O3 0.000000 0.750000 0.521428
O O4 0.500000 0.530712 0.703649
O O5 0.250000 0.500570 0.750000
O O6 0.278889 0.472294 0.659548
O O7 0.249160 0.585671 0.685206
O O8 0.750932 0.890269 0.411259
O O9 0.801386 0.920593 0.501432
O O10 0.000000 0.858702 0.449556
O O11 0.785832 0.504905 0.932477
O O12 0.000000 0.439987 0.898404
O O13 0.182926 0.889151 0.592620
O O14 0.263596 0.806391 0.651677
O O15 0.000000 0.858099 0.664682
O O16 0.000000 0.528388 0.559651
O O17 0.000000 0.750000 0.881793
#
# Coordination Sequence:
#
# PCOD8298628 Si02
#       7
#     8  16  16  16  16  16   8
#     4  10  20  36  52  71 102 145 186 218 247 293
#     4  10  21  38  57  79 103 130 166 214 268 319
#     4  10  19  32  50  72 101 137 178 211 244 297
#     4  10  21  33  48  74 106 132 162 208 260 309
#     4  10  19  34  54  74 101 139 178 217 257 302
#     4   9  17  30  49  71  98 135 175 209 244 295
#     4  12  22  32  49  75 106 141 181 220 255 299
#
# _framework density 17.555091999999998
#
# number of rings (size 3 to 8) (size 9 to 14) (size 15 to 20)
#    0.000    2.000    1.667    2.750    0.000    6.000 
#    0.000    0.417    0.000    0.000    0.000    0.583 
#    0.000    0.000    0.000    0.000    0.000    0.000 
#
# Total GULP energy -595189.010032 kJ/mol
# GULP energy per Si atom -12399.771042 kJ/mol
# Density = 1.751514 g / cm^3
# Si number density = 17.555092 Si / 1000 Ang^3
#
#
#
# Elastic Constant Matrix: (Units=GPa)
#
#
# Indices 1 2 3 4 5 6 
#
# 1 71.5020 27.8718 40.6313 0.0000 0.0000 0.0000
# 2 27.8718 43.8218 32.4154 0.0000 0.0000 0.0000
# 3 40.6313 32.4154 85.0801 0.0000 0.0000 0.0000
# 4 0.0000 0.0000 0.0000 14.6257 0.0000 0.0000
# 5 0.0000 0.0000 0.0000 0.0000 26.8761 0.0000
# 6 0.0000 0.0000 0.0000 0.0000 0.0000 24.2341
#
#
#
# Elastic Compliance Matrix: (Units=1/GPa)
#
#
# Indices 1 2 3 4 5 6 
#
# 1 0.021178 -0.008338 -0.006937 0.000000 0.000000 0.000000
# 2 -0.008338 0.035058 -0.009375 0.000000 0.000000 0.000000
# 3 -0.006937 -0.009375 0.018638 0.000000 0.000000 0.000000
# 4 0.000000 0.000000 0.000000 0.068373 0.000000 0.000000
# 5 0.000000 0.000000 0.000000 0.000000 0.037208 0.000000
# 6 0.000000 0.000000 0.000000 0.000000 0.000000 0.041264
#
#
# Mechanical properties :
#
#
# Convention : Reuss Voigt Hill
#
# Bulk Modulus (GPa) = 39.10276 44.69344 41.89810
# Shear Modulus (GPa) = 17.88630 19.77953 18.83291
#
# Velocity S-wave (km/s) = 3.19543 3.36029 3.27890
# Velocity P-wave (km/s) = 5.99475 6.36943 6.18493
#
# Compressibility (1/GPa) = 0.02557364
#
# Stress axis : x y z
#
# Youngs Moduli (GPa) = 47.21899 28.52436 53.65303
#
# Poissons Ratio (x) = 0.23785 0.37219
# Poissons Ratio (y) = 0.39373 0.50299
# Poissons Ratio (z) = 0.32756 0.26741
#
# Static dielectric constant tensor:
#      x y z
#    x 3.265790 0.000000 0.000000 
#    y 0.000000 3.251210 0.000000 
#    z 0.000000 0.000000 3.183980 
# 
# 
# High freq. dielectric constant tensor:
#      x y z
#    x 1.681910 0.000000 0.000000 
#    y 0.000000 1.665560 0.000000 
#    z 0.000000 0.000000 1.658930 
# 
# From -- ./inp_files/64725.got.cif
#   From: 2010.03.12/outbox.cif.g09.slc.cpg/sg74_33_cif.got.tgz:64725.got - 2010.04.16 15:46:19.
