data_PCOD8298253
_publ_section_title
;
Structure prediction by ZEFSAII (Michael W. Deem and Ramdas Pophale) SiO2 
 PCOD8298253
Probable space group: I M M A
;
_chemical_formula_sum "Si O2"
_cell_formula_units_Z 88
_cell_length_a 28.113833
_cell_length_b 8.940044
_cell_length_c 19.724514
_cell_angle_alpha 90.000000
_cell_angle_beta 90.000000
_cell_angle_gamma 90.000000
_cell_volume 4957.537731
_symmetry_space_group_name_H-M "I M M A"
_symmetry_group_IT_number 74
_symmetry_cell_setting 'orthorhombic'
loop_
_space_group_symop_operation_xyz
x,y,z
-x,1/2-y,z
x,-y,-z
-x,1/2+y,-z
-x,-y,-z
x,1/2+y,-z
-x,y,z
x,1/2-y,z
1/2+x,1/2+y,1/2+z
1/2-x,-y,1/2+z
1/2+x,1/2-y,1/2-z
1/2-x,y,1/2-z
1/2-x,1/2-y,1/2-z
1/2+x,y,1/2-z
1/2-x,1/2+y,1/2+z
1/2+x,-y,1/2+z
loop_
_atom_site_type_symbol
_atom_site_label
_atom_site_fract_x
_atom_site_fract_y
_atom_site_fract_z
Si Si1 0.212560 0.572469 0.340187
Si Si2 0.000000 0.571974 0.073287
Si Si3 0.813940 0.427800 0.807791
Si Si4 0.052979 0.072518 0.681389
Si Si5 0.627729 0.927505 0.071429
Si Si6 0.417556 0.572009 0.328235
O O1 0.211769 0.750000 0.336801
O O2 0.190748 0.512358 0.269347
O O3 0.267302 0.516359 0.349742
O O4 0.179671 0.517902 0.402235
O O5 0.046957 0.514096 0.113286
O O6 0.000000 0.750000 0.066478
O O7 0.000000 0.500000 0.000000
O O8 0.815075 0.250000 0.806296
O O9 0.863265 0.485482 0.841530
O O10 0.056715 0.250000 0.684386
O O11 0.088728 0.011280 0.624435
O O12 0.066156 0.007997 0.755380
O O13 0.000000 0.019795 0.661910
O O14 0.625257 0.750000 0.064302
O O15 0.616551 0.000000 0.000000
O O16 0.419906 0.750000 0.326685
#
# Coordination Sequence:
#
# PCOD8298253 Si02
#       6
#    16   8  16  16  16  16
#     4   8  13  22  38  63  90 111 138 184 232 259
#     4  10  20  32  48  70  95 120 144 176 225 276
#     4   8  12  20  39  66  89 106 138 191 231 251
#     4   9  15  25  43  67  89 111 149 195 227 251
#     4  10  19  30  44  64  93 125 150 181 226 270
#     4   9  14  24  44  69  90 111 146 190 225 256
#
# _framework density 17.750747
#
# number of rings (size 3 to 8) (size 9 to 14) (size 15 to 20)
#    0.000    3.091    2.727    1.091    0.000    0.364 
#    0.000    0.909    0.000    1.091    0.000    2.545 
#    0.000    0.000    0.000    0.000    0.000    0.000 
#
# Total GULP energy -545133.950147 kJ/mol
# GULP energy per Si atom -12389.407958 kJ/mol
# Density = 1.771035 g / cm^3
# Si number density = 17.750747 Si / 1000 Ang^3
#
#
#
# Elastic Constant Matrix: (Units=GPa)
#
#
# Indices 1 2 3 4 5 6 
#
# 1 189.2563 13.5591 87.8247 0.0000 0.0000 0.0000
# 2 13.5591 7.3290 15.1336 0.0000 0.0000 0.0000
# 3 87.8247 15.1336 137.3235 0.0000 0.0000 0.0000
# 4 0.0000 0.0000 0.0000 19.7913 0.0000 0.0000
# 5 0.0000 0.0000 0.0000 0.0000 30.2408 0.0000
# 6 0.0000 0.0000 0.0000 0.0000 0.0000 4.7932
#
#
#
# Elastic Compliance Matrix: (Units=1/GPa)
#
#
# Indices 1 2 3 4 5 6 
#
# 1 0.007667 -0.005255 -0.004324 0.000000 0.000000 0.000000
# 2 -0.005255 0.180243 -0.016502 0.000000 0.000000 0.000000
# 3 -0.004324 -0.016502 0.011866 0.000000 0.000000 0.000000
# 4 0.000000 0.000000 0.000000 0.050527 0.000000 0.000000
# 5 0.000000 0.000000 0.000000 0.000000 0.033068 0.000000
# 6 0.000000 0.000000 0.000000 0.000000 0.000000 0.208631
#
#
# Mechanical properties :
#
#
# Convention : Reuss Voigt Hill
#
# Bulk Modulus (GPa) = 6.77451 62.99374 34.88413
# Shear Modulus (GPa) = 8.42643 25.45781 16.94212
#
# Velocity S-wave (km/s) = 2.18114 3.79117 3.09276
# Velocity P-wave (km/s) = 3.18872 7.39790 5.69635
#
# Compressibility (1/GPa) = 0.14761214
#
# Stress axis : x y z
#
# Youngs Moduli (GPa) = 130.42852 5.54806 84.27243
#
# Poissons Ratio (x) = 0.02916 0.36442
# Poissons Ratio (y) = 0.68545 1.39070
# Poissons Ratio (z) = 0.56401 0.09156
#
# Static dielectric constant tensor:
#      x y z
#    x 3.955410 0.000000 0.000000 
#    y 0.000000 2.507350 0.000000 
#    z 0.000000 0.000000 3.190230 
# 
# 
# High freq. dielectric constant tensor:
#      x y z
#    x 1.713200 0.000000 0.000000 
#    y 0.000000 1.602320 0.000000 
#    z 0.000000 0.000000 1.667250 
# 
# From -- ./inp_files/26994.got.cif
#   From: 2010.03.12/outbox.cif.g09.slc.cpg/sg74_14_cif.got.tgz:26994.got - 2010.04.16 15:46:19.
