data_PCOD8298038
_publ_section_title
;
Structure prediction by ZEFSAII (Michael W. Deem and Ramdas Pophale) SiO2 
 PCOD8298038
Probable space group: I M M A
;
_chemical_formula_sum "Si O2"
_cell_formula_units_Z 104
_cell_length_a 8.813382
_cell_length_b 32.693686
_cell_length_c 19.646433
_cell_angle_alpha 90.000000
_cell_angle_beta 90.000000
_cell_angle_gamma 90.000000
_cell_volume 5660.961392
_symmetry_space_group_name_H-M "I M M A"
_symmetry_group_IT_number 74
_symmetry_cell_setting 'orthorhombic'
loop_
_space_group_symop_operation_xyz
x,y,z
-x,1/2-y,z
x,-y,-z
-x,1/2+y,-z
-x,-y,-z
x,1/2+y,-z
-x,y,z
x,1/2-y,z
1/2+x,1/2+y,1/2+z
1/2-x,-y,1/2+z
1/2+x,1/2-y,1/2-z
1/2-x,y,1/2-z
1/2-x,1/2-y,1/2-z
1/2+x,y,1/2-z
1/2-x,1/2+y,1/2+z
1/2+x,-y,1/2+z
loop_
_atom_site_type_symbol
_atom_site_label
_atom_site_fract_x
_atom_site_fract_y
_atom_site_fract_z
Si Si1 0.177805 0.073001 0.098425
Si Si2 0.320364 0.642728 0.821525
Si Si3 0.330166 0.991068 0.079279
Si Si4 0.178917 0.591205 0.056417
Si Si5 0.320465 0.750000 0.175730
Si Si6 0.180319 0.795189 0.565902
Si Si7 0.319852 0.675562 0.080351
O O1 0.266217 0.098261 0.155447
O O2 0.000000 0.077039 0.110358
O O3 0.227141 0.026387 0.111991
O O4 0.224115 0.089585 0.023491
O O5 0.500000 0.643622 0.816234
O O6 0.250000 0.655152 0.750000
O O7 0.256173 0.675134 0.876088
O O8 0.500000 0.991515 0.110241
O O9 0.253576 0.947410 0.094542
O O10 0.337018 0.000000 0.000000
O O11 0.241954 0.631774 0.093361
O O12 0.000000 0.588635 0.065913
O O13 0.500000 0.750000 0.181635
O O14 0.250000 0.750000 0.250000
O O15 0.267287 0.709002 0.136094
O O16 0.242649 0.750000 0.581543
O O17 0.240298 0.809063 0.492481
O O18 0.000000 0.795600 0.564945
O O19 0.500000 0.669824 0.081323
#
# Coordination Sequence:
#
# PCOD8298038 Si02
#       7
#    16  16  16  16   8  16  16
#     4  10  19  32  50  74 108 142 179 226 278 328
#     4  11  22  35  53  75 105 146 190 235 281 330
#     4   9  17  29  48  75 106 140 178 217 264 323
#     4  10  19  30  49  80 113 141 173 224 280 323
#     4  10  22  38  60  86 115 146 180 221 268 329
#     4   9  17  32  55  79 103 137 185 232 274 322
#     4  10  18  33  57  82 107 143 186 224 266 325
#
# _framework density 18.371437
#
# number of rings (size 3 to 8) (size 9 to 14) (size 15 to 20)
#    0.000    2.154    2.308    1.846    0.000    4.000 
#    0.000    0.000    0.000    4.154    0.000    4.308 
#    0.000    0.000    0.000    0.000    0.000    0.000 
#
# Total GULP energy -644813.305012 kJ/mol
# GULP energy per Si atom -12400.255866 kJ/mol
# Density = 1.832962 g / cm^3
# Si number density = 18.371437 Si / 1000 Ang^3
#
#
#
# Elastic Constant Matrix: (Units=GPa)
#
#
# Indices 1 2 3 4 5 6 
#
# 1 66.4572 39.6725 29.1983 0.0000 0.0000 0.0000
# 2 39.6725 162.2373 57.7057 0.0000 0.0000 0.0000
# 3 29.1983 57.7057 99.0125 -0.0004 0.0000 -0.0001
# 4 0.0000 0.0000 -0.0004 17.4935 0.0000 0.0000
# 5 0.0000 0.0000 0.0000 0.0000 24.6466 0.0000
# 6 0.0000 0.0000 -0.0001 0.0000 0.0000 23.4039
#
#
#
# Elastic Compliance Matrix: (Units=1/GPa)
#
#
# Indices 1 2 3 4 5 6 
#
# 1 0.018568 -0.003271 -0.003569 0.000000 0.000000 0.000000
# 2 -0.003271 0.008352 -0.003903 0.000000 0.000000 0.000000
# 3 -0.003569 -0.003903 0.013427 0.000000 0.000000 0.000000
# 4 0.000000 0.000000 0.000000 0.057164 0.000000 0.000000
# 5 0.000000 0.000000 0.000000 0.000000 0.040574 0.000000
# 6 0.000000 0.000000 0.000000 0.000000 0.000000 0.042728
#
#
# Mechanical properties :
#
#
# Convention : Reuss Voigt Hill
#
# Bulk Modulus (GPa) = 53.02082 64.54001 58.78041
# Shear Modulus (GPa) = 23.97093 26.51750 25.24422
#
# Velocity S-wave (km/s) = 3.61611 3.80334 3.71091
# Velocity P-wave (km/s) = 6.80868 7.38201 7.10114
#
# Compressibility (1/GPa) = 0.01886052
#
# Stress axis : x y z
#
# Youngs Moduli (GPa) = 53.85576 119.73287 74.47664
#
# Poissons Ratio (x) = 0.39164 0.26583
# Poissons Ratio (y) = 0.17616 0.29068
# Poissons Ratio (z) = 0.19223 0.46732
#
# Static dielectric constant tensor:
#      x y z
#    x 3.232490 0.000000 0.000000 
#    y 0.000000 3.628830 0.000000 
#    z 0.000000 0.000000 3.161950 
# 
# 
# High freq. dielectric constant tensor:
#      x y z
#    x 1.704560 0.000000 0.000000 
#    y 0.000000 1.728950 0.000000 
#    z 0.000000 0.000000 1.672320 
# 
# From -- ./inp_files/49656.got.cif
#   From: 2010.03.12/outbox.cif.g09.slc.cpg/sg74_25_cif.got.tgz:49656.got - 2010.04.16 15:46:19.
