data_PCOD8298704
_publ_section_title
;
Structure prediction by ZEFSAII (Michael W. Deem and Ramdas Pophale) SiO2 
 PCOD8298704
Probable space group: I M M A
;
_chemical_formula_sum "Si O2"
_cell_formula_units_Z 80
_cell_length_a 18.670123
_cell_length_b 8.636477
_cell_length_c 27.012073
_cell_angle_alpha 90.000000
_cell_angle_beta 90.000000
_cell_angle_gamma 90.000000
_cell_volume 4355.537073
_symmetry_space_group_name_H-M "I M M A"
_symmetry_group_IT_number 74
_symmetry_cell_setting 'orthorhombic'
loop_
_space_group_symop_operation_xyz
x,y,z
-x,1/2-y,z
x,-y,-z
-x,1/2+y,-z
-x,-y,-z
x,1/2+y,-z
-x,y,z
x,1/2-y,z
1/2+x,1/2+y,1/2+z
1/2-x,-y,1/2+z
1/2+x,1/2-y,1/2-z
1/2-x,y,1/2-z
1/2-x,1/2-y,1/2-z
1/2+x,y,1/2-z
1/2-x,1/2+y,1/2+z
1/2+x,-y,1/2+z
loop_
_atom_site_type_symbol
_atom_site_label
_atom_site_fract_x
_atom_site_fract_y
_atom_site_fract_z
Si Si1 0.219556 0.432844 0.896841
Si Si2 0.081584 0.431455 0.649519
Si Si3 0.214263 0.433050 0.301443
Si Si4 0.852240 0.933404 0.552525
Si Si5 0.421386 0.068064 0.552211
O O1 0.232000 0.250000 0.899452
O O2 0.234576 0.494981 0.842526
O O3 0.271298 0.511706 0.937066
O O4 0.137773 0.481289 0.907782
O O5 0.096752 0.250000 0.645072
O O6 0.133672 0.501330 0.691829
O O7 0.096204 0.506535 0.596074
O O8 0.000000 0.466376 0.665363
O O9 0.210992 0.250000 0.307489
O O10 0.250000 0.483769 0.250000
O O11 0.855779 0.750000 0.550907
O O12 0.878838 0.000000 0.500000
O O13 0.500000 0.005796 0.568695
O O14 0.423388 0.250000 0.546004
O O15 0.398000 0.000000 0.500000
#
# Coordination Sequence:
#
# PCOD8298704 Si02
#       5
#    16  16  16  16  16
#     4  10  19  32  52  75 101 133 171 216 260 305
#     4  10  21  37  57  81 107 135 170 211 256 306
#     4  10  21  37  57  79 103 133 170 211 256 306
#     4  11  21  33  51  75 106 141 176 212 251 301
#     4   9  18  31  47  70 100 134 169 205 249 299
#
# _framework density 18.367425000000001
#
# number of rings (size 3 to 8) (size 9 to 14) (size 15 to 20)
#    0.000    2.000    0.000    6.600    0.000    6.800 
#    0.000    1.000    0.000    3.600    0.000    0.000 
#    0.000    0.000    0.000    0.000    0.000    0.000 
#
# Total GULP energy -495963.114388 kJ/mol
# GULP energy per Si atom -12399.077860 kJ/mol
# Density = 1.832562 g / cm^3
# Si number density = 18.367425 Si / 1000 Ang^3
#
#
#
# Elastic Constant Matrix: (Units=GPa)
#
#
# Indices 1 2 3 4 5 6 
#
# 1 152.7418 52.4069 72.0093 0.0000 0.0000 0.0000
# 2 52.4069 108.0993 51.4490 0.0000 0.0000 0.0000
# 3 72.0093 51.4490 117.4015 0.0000 0.0000 0.0000
# 4 0.0000 0.0000 0.0000 30.5897 0.0000 0.0000
# 5 0.0000 0.0000 0.0000 0.0000 -89.7734 0.0000
# 6 0.0000 0.0000 0.0000 0.0000 0.0000 23.7177
#
#
#
# Elastic Compliance Matrix: (Units=1/GPa)
#
#
# Indices 1 2 3 4 5 6 
#
# 1 0.009663 -0.002355 -0.004895 0.000000 0.000000 0.000000
# 2 -0.002355 0.012263 -0.003929 0.000000 0.000000 0.000000
# 3 -0.004895 -0.003929 0.013242 0.000000 0.000000 0.000000
# 4 0.000000 0.000000 0.000000 0.032691 0.000000 0.000000
# 5 0.000000 0.000000 0.000000 0.000000 -0.011139 0.000000
# 6 0.000000 0.000000 0.000000 0.000000 0.000000 0.042163
#
#
# Mechanical properties :
#
#
# Convention : Reuss Voigt Hill
#
# Bulk Modulus (GPa) = 78.06917 81.10813 79.58865
# Shear Modulus (GPa) = 39.83783 6.39864 23.11824
#
# Velocity S-wave (km/s) = 4.66224 1.86849 3.55160
# Velocity P-wave (km/s) = 8.46040 6.99354 7.76170
#
# Compressibility (1/GPa) = 0.01280915
#
# Stress axis : x y z
#
# Youngs Moduli (GPa) = 103.49279 81.54870 75.51752
#
# Poissons Ratio (x) = 0.19204 0.36963
# Poissons Ratio (y) = 0.24371 0.29674
# Poissons Ratio (z) = 0.50656 0.32044
#
# Static dielectric constant tensor:
#      x y z
#    x 3.696130 0.000000 0.000000 
#    y 0.000000 3.486300 0.000000 
#    z 0.000000 0.000000 3.290800 
# 
# 
# High freq. dielectric constant tensor:
#      x y z
#    x 1.718700 0.000000 0.000000 
#    y 0.000000 1.726850 0.000000 
#    z 0.000000 0.000000 1.693850 
# 
# From -- ./inp_files/67546.got.cif
#   From: 2010.03.12/outbox.cif.g09.slc.cpg/sg74_34_cif.got.tgz:67546.got - 2010.04.16 15:46:19.
