data_PCOD8298826
_publ_section_title
;
Structure prediction by ZEFSAII (Michael W. Deem and Ramdas Pophale) SiO2 
 PCOD8298826
Probable space group: I M M A
;
_chemical_formula_sum "Si O2"
_cell_formula_units_Z 104
_cell_length_a 9.096344
_cell_length_b 27.465289
_cell_length_c 23.453701
_cell_angle_alpha 90.000000
_cell_angle_beta 90.000000
_cell_angle_gamma 90.000000
_cell_volume 5859.525294
_symmetry_space_group_name_H-M "I M M A"
_symmetry_group_IT_number 74
_symmetry_cell_setting 'orthorhombic'
loop_
_space_group_symop_operation_xyz
x,y,z
-x,1/2-y,z
x,-y,-z
-x,1/2+y,-z
-x,-y,-z
x,1/2+y,-z
-x,y,z
x,1/2-y,z
1/2+x,1/2+y,1/2+z
1/2-x,-y,1/2+z
1/2+x,1/2-y,1/2-z
1/2-x,y,1/2-z
1/2-x,1/2-y,1/2-z
1/2+x,y,1/2-z
1/2-x,1/2+y,1/2+z
1/2+x,-y,1/2+z
loop_
_atom_site_type_symbol
_atom_site_label
_atom_site_fract_x
_atom_site_fract_y
_atom_site_fract_z
Si Si1 0.166622 0.557454 0.995047
Si Si2 0.171873 0.384187 0.585492
Si Si3 0.326640 0.305960 0.190060
Si Si4 0.664473 0.750000 0.306960
Si Si5 0.833736 0.694671 0.019758
Si Si6 0.329241 0.144414 0.689643
Si Si7 0.834593 0.364116 0.093621
O O1 0.210962 0.582723 0.934075
O O2 0.000000 0.575945 0.008241
O O3 0.174033 0.500000 0.000000
O O4 0.278769 0.573347 0.043538
O O5 0.217908 0.332900 0.558873
O O6 0.252898 0.392657 0.645988
O O7 0.000000 0.386325 0.595875
O O8 0.500000 0.312900 0.197309
O O9 0.289586 0.250000 0.171535
O O10 0.250000 0.317817 0.250000
O O11 0.271415 0.345831 0.144051
O O12 0.500000 0.750000 0.284980
O O13 0.750000 0.750000 0.250000
O O14 0.694675 0.698808 0.338999
O O15 0.783699 0.750000 0.020254
O O16 0.000000 0.688247 0.043726
O O17 0.824795 0.675959 0.955487
O O18 0.500000 0.131341 0.697153
O O19 0.250000 0.140106 0.750000
O O20 0.000000 0.367362 0.118313
#
# Coordination Sequence:
#
# PCOD8298826 Si02
#       7
#    16  16  16   8  16  16  16
#     4   9  19  38  61  80  99 129 169 213 263 317
#     4  11  22  33  48  75 105 133 167 208 257 310
#     4  10  20  32  48  73 107 147 184 214 246 294
#     4   8  16  28  44  64  88 124 166 204 237 276
#     4   9  18  32  49  69  98 137 175 210 250 298
#     4  10  19  33  50  70  97 133 173 211 251 295
#     4   9  17  31  52  77 102 130 166 210 258 306
#
# _framework density 17.748878000000001
#
# number of rings (size 3 to 8) (size 9 to 14) (size 15 to 20)
#    0.000    2.462    0.000    3.692    1.077    5.231 
#    0.000    0.000    0.000    0.923    0.000    4.308 
#    0.000    0.000    0.000    0.000    0.000    0.000 
#
# Total GULP energy -644273.549621 kJ/mol
# GULP energy per Si atom -12389.875954 kJ/mol
# Density = 1.770848 g / cm^3
# Si number density = 17.748878 Si / 1000 Ang^3
#
#
#
# Elastic Constant Matrix: (Units=GPa)
#
#
# Indices 1 2 3 4 5 6 
#
# 1 115.7410 32.5365 60.7825 0.0000 0.0000 0.0000
# 2 32.5365 89.0243 35.8761 -0.0001 0.0000 0.0000
# 3 60.7825 35.8761 95.7813 -0.0003 0.0000 0.0000
# 4 0.0000 -0.0001 -0.0003 18.1400 0.0000 0.0000
# 5 0.0000 0.0000 0.0000 0.0000 31.8691 0.0000
# 6 0.0000 0.0000 0.0000 0.0000 0.0000 19.6170
#
#
#
# Elastic Compliance Matrix: (Units=1/GPa)
#
#
# Indices 1 2 3 4 5 6 
#
# 1 0.013174 -0.001703 -0.007723 0.000000 0.000000 0.000000
# 2 -0.001703 0.013450 -0.003957 0.000000 0.000000 0.000000
# 3 -0.007723 -0.003957 0.016823 0.000000 0.000000 0.000000
# 4 0.000000 0.000000 0.000000 0.055127 0.000000 0.000000
# 5 0.000000 0.000000 0.000000 0.000000 0.031378 0.000000
# 6 0.000000 0.000000 0.000000 0.000000 0.000000 0.050976
#
#
# Mechanical properties :
#
#
# Convention : Reuss Voigt Hill
#
# Bulk Modulus (GPa) = 59.94333 62.10408 61.02370
# Shear Modulus (GPa) = 23.44614 25.34866 24.39740
#
# Velocity S-wave (km/s) = 3.63849 3.78323 3.71157
# Velocity P-wave (km/s) = 7.17620 7.35868 7.26801
#
# Compressibility (1/GPa) = 0.01668242
#
# Stress axis : x y z
#
# Youngs Moduli (GPa) = 75.90587 74.34960 59.44108
#
# Poissons Ratio (x) = 0.12660 0.45903
# Poissons Ratio (y) = 0.12925 0.23522
# Poissons Ratio (z) = 0.58618 0.29422
#
# Static dielectric constant tensor:
#      x y z
#    x 3.285100 0.000000 0.000000 
#    y 0.000000 3.165740 0.000000 
#    z 0.000000 0.000000 3.192850 
# 
# 
# High freq. dielectric constant tensor:
#      x y z
#    x 1.688390 0.000000 0.000000 
#    y 0.000000 1.661460 0.000000 
#    z 0.000000 0.000000 1.681540 
# 
# From -- ./inp_files/57828.got.cif
#   From: 2010.03.12/outbox.cif.g09.slc.cpg/sg74_29_cif.got.tgz:57828.got - 2010.04.16 15:46:19.
