data_PCOD8298527
_publ_section_title
;
Structure prediction by ZEFSAII (Michael W. Deem and Ramdas Pophale) SiO2 
 PCOD8298527
Probable space group: I M M A
;
_chemical_formula_sum "Si O2"
_cell_formula_units_Z 96
_cell_length_a 8.738291
_cell_length_b 23.209309
_cell_length_c 24.835657
_cell_angle_alpha 90.000000
_cell_angle_beta 90.000000
_cell_angle_gamma 90.000000
_cell_volume 5036.912045
_symmetry_space_group_name_H-M "I M M A"
_symmetry_group_IT_number 74
_symmetry_cell_setting 'orthorhombic'
loop_
_space_group_symop_operation_xyz
x,y,z
-x,1/2-y,z
x,-y,-z
-x,1/2+y,-z
-x,-y,-z
x,1/2+y,-z
-x,y,z
x,1/2-y,z
1/2+x,1/2+y,1/2+z
1/2-x,-y,1/2+z
1/2+x,1/2-y,1/2-z
1/2-x,y,1/2-z
1/2-x,1/2-y,1/2-z
1/2+x,y,1/2-z
1/2-x,1/2+y,1/2+z
1/2+x,-y,1/2+z
loop_
_atom_site_type_symbol
_atom_site_label
_atom_site_fract_x
_atom_site_fract_y
_atom_site_fract_z
Si Si1 0.179094 0.120308 0.612512
Si Si2 0.817252 0.521412 0.308229
Si Si3 0.167316 0.683456 0.199206
Si Si4 0.680069 0.600735 0.693531
Si Si5 0.175507 0.817514 0.609684
Si Si6 0.818077 0.185593 0.511236
O O1 0.244042 0.063967 0.643900
O O2 0.225715 0.175538 0.647587
O O3 0.244055 0.136062 0.552712
O O4 0.000000 0.113569 0.608486
O O5 0.750000 0.539367 0.250000
O O6 0.758650 0.458573 0.324949
O O7 0.000000 0.522144 0.304630
O O8 0.146157 0.750000 0.211194
O O9 0.250000 0.653181 0.250000
O O10 0.000000 0.654821 0.191003
O O11 0.500000 0.591201 0.700210
O O12 0.750000 0.621881 0.750000
O O13 0.712589 0.649070 0.649392
O O14 0.193078 0.750000 0.620817
O O15 0.229665 0.832499 0.549001
O O16 0.000000 0.836825 0.618940
O O17 0.753094 0.250000 0.524602
O O18 0.000000 0.189129 0.514841
#
# Coordination Sequence:
#
# PCOD8298527 Si02
#       6
#    16  16  16  16  16  16
#     4  10  19  31  51  76 100 133 177 220 261 306
#     4  10  20  34  52  75 104 138 177 220 265 312
#     4  10  20  31  43  63  93 129 169 217 271 319
#     4  11  22  37  58  81 107 138 170 209 257 310
#     4   9  18  35  59  84 110 139 170 207 252 304
#     4   8  15  30  53  79 106 138 176 216 258 305
#
# _framework density 19.059297000000001
#
# number of rings (size 3 to 8) (size 9 to 14) (size 15 to 20)
#    0.000    2.333    0.000    5.500    0.000    5.000 
#    0.000    1.667    0.000    6.000    0.000    0.000 
#    0.000    0.000    0.000    0.000    0.000    0.000 
#
# Total GULP energy -594796.816051 kJ/mol
# GULP energy per Si atom -12391.600334 kJ/mol
# Density = 1.901592 g / cm^3
# Si number density = 19.059297 Si / 1000 Ang^3
#
#
#
# Elastic Constant Matrix: (Units=GPa)
#
#
# Indices 1 2 3 4 5 6 
#
# 1 34.0124 31.1605 24.8214 0.0000 0.0000 0.0000
# 2 31.1605 81.1211 69.7461 0.0000 0.0000 0.0000
# 3 24.8214 69.7461 141.5526 0.0000 0.0000 0.0000
# 4 0.0000 0.0000 0.0000 32.5546 0.0000 0.0000
# 5 0.0000 0.0000 0.0000 0.0000 24.5222 0.0000
# 6 0.0000 0.0000 0.0000 0.0000 0.0000 24.1898
#
#
#
# Elastic Compliance Matrix: (Units=1/GPa)
#
#
# Indices 1 2 3 4 5 6 
#
# 1 0.045464 -0.018407 0.001098 0.000000 0.000000 0.000000
# 2 -0.018407 0.028841 -0.010983 0.000000 0.000000 0.000000
# 3 0.001098 -0.010983 0.012283 0.000000 0.000000 0.000000
# 4 0.000000 0.000000 0.000000 0.030718 0.000000 0.000000
# 5 0.000000 0.000000 0.000000 0.000000 0.040779 0.000000
# 6 0.000000 0.000000 0.000000 0.000000 0.000000 0.041340
#
#
# Mechanical properties :
#
#
# Convention : Reuss Voigt Hill
#
# Bulk Modulus (GPa) = 33.32994 56.46024 44.89509
# Shear Modulus (GPa) = 18.79622 24.98386 21.89004
#
# Velocity S-wave (km/s) = 3.14378 3.62449 3.39266
# Velocity P-wave (km/s) = 5.54106 6.87050 6.24127
#
# Compressibility (1/GPa) = 0.03000305
#
# Stress axis : x y z
#
# Youngs Moduli (GPa) = 21.99541 34.67332 81.41044
#
# Poissons Ratio (x) = 0.63825 -0.08936
# Poissons Ratio (y) = 0.40488 0.89410
# Poissons Ratio (z) = -0.02414 0.38080
#
# Static dielectric constant tensor:
#      x y z
#    x 3.412690 0.000000 0.000000 
#    y 0.000000 3.452780 0.000000 
#    z 0.000000 0.000000 3.766450 
# 
# 
# High freq. dielectric constant tensor:
#      x y z
#    x 1.725200 0.000000 0.000000 
#    y 0.000000 1.728980 0.000000 
#    z 0.000000 0.000000 1.739960 
# 
# From -- ./inp_files/49132.got.cif
#   From: 2010.03.12/outbox.cif.g09.slc.cpg/sg74_25_cif.got.tgz:49132.got - 2010.04.16 15:46:19.
