data_PCOD8298256
_publ_section_title
;
Structure prediction by ZEFSAII (Michael W. Deem and Ramdas Pophale) SiO2 
 PCOD8298256
Probable space group: I M M A
;
_chemical_formula_sum "Si O2"
_cell_formula_units_Z 80
_cell_length_a 9.971146
_cell_length_b 15.223039
_cell_length_c 29.719863
_cell_angle_alpha 90.000000
_cell_angle_beta 90.000000
_cell_angle_gamma 90.000000
_cell_volume 4511.212017
_symmetry_space_group_name_H-M "I M M A"
_symmetry_group_IT_number 74
_symmetry_cell_setting 'orthorhombic'
loop_
_space_group_symop_operation_xyz
x,y,z
-x,1/2-y,z
x,-y,-z
-x,1/2+y,-z
-x,-y,-z
x,1/2+y,-z
-x,y,z
x,1/2-y,z
1/2+x,1/2+y,1/2+z
1/2-x,-y,1/2+z
1/2+x,1/2-y,1/2-z
1/2-x,y,1/2-z
1/2-x,1/2-y,1/2-z
1/2+x,y,1/2-z
1/2-x,1/2+y,1/2+z
1/2+x,-y,1/2+z
loop_
_atom_site_type_symbol
_atom_site_label
_atom_site_fract_x
_atom_site_fract_y
_atom_site_fract_z
Si Si1 0.357315 0.650119 0.982424
Si Si2 0.344915 0.499403 0.637151
Si Si3 0.648317 0.071044 0.539173
Si Si4 0.842387 0.648089 0.617291
Si Si5 0.154142 0.850071 0.208580
O O1 0.500000 0.603425 0.994575
O O2 0.388971 0.750000 0.973640
O O3 0.305250 0.617398 0.933692
O O4 0.255096 0.643439 0.023945
O O5 0.500000 0.528448 0.642356
O O6 0.313636 0.466693 0.587154
O O7 0.249762 0.583571 0.648106
O O8 0.309102 0.418170 0.669394
O O9 0.500000 0.112999 0.540330
O O10 0.659996 0.000000 0.500000
O O11 0.803867 0.750000 0.626955
O O12 0.000000 0.632901 0.627393
O O13 0.178450 0.750000 0.191365
O O14 0.250000 0.872193 0.250000
O O15 0.000000 0.861748 0.223977
#
# Coordination Sequence:
#
# PCOD8298256 Si02
#       5
#    16  16  16  16  16
#     4   9  18  31  45  63  91 131 176 215 252 295
#     4  10  20  33  52  78 105 135 173 215 261 312
#     4  10  19  30  44  68 101 134 170 208 250 303
#     4   9  18  32  49  71 101 138 177 213 251 297
#     4   9  19  37  59  81 106 135 168 212 267 322
#
# _framework density 17.733592999999999
#
# number of rings (size 3 to 8) (size 9 to 14) (size 15 to 20)
#    0.000    2.600    2.000    1.200    0.000    3.600 
#    0.000    4.000    0.000    3.000    0.000    0.000 
#    0.000    0.000    0.000    0.000    0.000    0.000 
#
# Total GULP energy -495556.640006 kJ/mol
# GULP energy per Si atom -12388.916000 kJ/mol
# Density = 1.769323 g / cm^3
# Si number density = 17.733593 Si / 1000 Ang^3
#
#
#
# Elastic Constant Matrix: (Units=GPa)
#
#
# Indices 1 2 3 4 5 6 
#
# 1 90.0975 68.9245 47.6709 0.0000 0.0000 0.0000
# 2 68.9245 99.4896 57.8399 0.0000 0.0000 0.0000
# 3 47.6709 57.8399 78.7928 0.0000 0.0000 0.0000
# 4 0.0000 0.0000 0.0000 25.5836 0.0000 0.0000
# 5 0.0000 0.0000 0.0000 0.0000 19.5617 0.0000
# 6 0.0000 0.0000 0.0000 0.0000 0.0000 32.2626
#
#
#
# Elastic Compliance Matrix: (Units=1/GPa)
#
#
# Indices 1 2 3 4 5 6 
#
# 1 0.024349 -0.014487 -0.004097 0.000000 0.000000 0.000000
# 2 -0.014487 0.026153 -0.010434 0.000000 0.000000 0.000000
# 3 -0.004097 -0.010434 0.022830 0.000000 0.000000 0.000000
# 4 0.000000 0.000000 0.000000 0.039087 0.000000 0.000000
# 5 0.000000 0.000000 0.000000 0.000000 0.051120 0.000000
# 6 0.000000 0.000000 0.000000 0.000000 0.000000 0.030996
#
#
# Mechanical properties :
#
#
# Convention : Reuss Voigt Hill
#
# Bulk Modulus (GPa) = 65.37433 68.58338 66.97886
# Shear Modulus (GPa) = 19.40463 21.74455 20.57459
#
# Velocity S-wave (km/s) = 3.31150 3.50548 3.40987
# Velocity P-wave (km/s) = 7.18096 7.42582 7.30441
#
# Compressibility (1/GPa) = 0.01529652
#
# Stress axis : x y z
#
# Youngs Moduli (GPa) = 41.06891 38.23618 43.80249
#
# Poissons Ratio (x) = 0.55391 0.17948
# Poissons Ratio (y) = 0.59495 0.45703
# Poissons Ratio (z) = 0.16828 0.39895
#
# Static dielectric constant tensor:
#      x y z
#    x 3.512870 0.000000 0.000000 
#    y 0.000000 3.197480 0.000000 
#    z 0.000000 0.000000 3.151330 
# 
# 
# High freq. dielectric constant tensor:
#      x y z
#    x 1.696640 0.000000 0.000000 
#    y 0.000000 1.681260 0.000000 
#    z 0.000000 0.000000 1.650350 
# 
# From -- ./inp_files/63945.got.cif
#   From: 2010.03.12/outbox.cif.g09.slc.cpg/sg74_32_cif.got.tgz:63945.got - 2010.04.16 15:46:19.
