data_PCOD8298739
_publ_section_title
;
Structure prediction by ZEFSAII (Michael W. Deem and Ramdas Pophale) SiO2 
 PCOD8298739
Probable space group: I M M A
;
_chemical_formula_sum "Si O2"
_cell_formula_units_Z 104
_cell_length_a 9.242704
_cell_length_b 23.616819
_cell_length_c 25.408094
_cell_angle_alpha 90.000000
_cell_angle_beta 90.000000
_cell_angle_gamma 90.000000
_cell_volume 5546.161778
_symmetry_space_group_name_H-M "I M M A"
_symmetry_group_IT_number 74
_symmetry_cell_setting 'orthorhombic'
loop_
_space_group_symop_operation_xyz
x,y,z
-x,1/2-y,z
x,-y,-z
-x,1/2+y,-z
-x,-y,-z
x,1/2+y,-z
-x,y,z
x,1/2-y,z
1/2+x,1/2+y,1/2+z
1/2-x,-y,1/2+z
1/2+x,1/2-y,1/2-z
1/2-x,y,1/2-z
1/2-x,1/2-y,1/2-z
1/2+x,y,1/2-z
1/2-x,1/2+y,1/2+z
1/2+x,-y,1/2+z
loop_
_atom_site_type_symbol
_atom_site_label
_atom_site_fract_x
_atom_site_fract_y
_atom_site_fract_z
Si Si1 0.250000 0.105369 0.750000
Si Si2 0.838532 0.686258 0.341363
Si Si3 0.326629 0.384000 0.580634
Si Si4 0.170709 0.412623 0.122233
Si Si5 0.668443 0.185822 0.302383
Si Si6 0.159683 0.471636 0.838230
Si Si7 0.671393 0.435448 0.014360
O O1 0.165138 0.145189 0.709525
O O2 0.152221 0.061136 0.782726
O O3 0.803093 0.750000 0.322347
O O4 0.726075 0.671945 0.388178
O O5 0.000000 0.682125 0.364714
O O6 0.500000 0.381412 0.574293
O O7 0.261172 0.434871 0.616836
O O8 0.250324 0.391355 0.524641
O O9 0.216794 0.354185 0.149743
O O10 0.216608 0.463694 0.162679
O O11 0.266674 0.420168 0.070949
O O12 0.000000 0.412288 0.108269
O O13 0.500000 0.178671 0.290402
O O14 0.708457 0.250000 0.318346
O O15 0.750000 0.166778 0.250000
O O16 0.000000 0.475913 0.860801
O O17 0.500000 0.425461 0.012838
O O18 0.711936 0.500000 0.000000
#
# Coordination Sequence:
#
# PCOD8298739 Si02
#       7
#     8  16  16  16  16  16  16
#     4  10  19  32  52  80 111 150 186 232 274 334
#     4  10  21  37  56  79 112 152 193 238 284 329
#     4  10  20  36  58  80 107 144 186 232 281 338
#     4  10  20  35  55  80 112 148 187 226 271 330
#     4   9  19  36  58  82 111 147 184 224 269 322
#     4   9  18  31  48  75 107 142 181 225 274 325
#     4  11  22  36  56  84 114 144 181 227 282 343
#
# _framework density 18.751707
#
# number of rings (size 3 to 8) (size 9 to 14) (size 15 to 20)
#    0.000    2.154    1.538    1.615    1.077    2.154 
#    0.000    1.538    0.000    2.769    0.000    0.000 
#    0.000    0.000    0.000    0.000    0.000    0.000 
#
# Total GULP energy -644296.550108 kJ/mol
# GULP energy per Si atom -12390.318271 kJ/mol
# Density = 1.870903 g / cm^3
# Si number density = 18.751707 Si / 1000 Ang^3
#
#
#
# Elastic Constant Matrix: (Units=GPa)
#
#
# Indices 1 2 3 4 5 6 
#
# 1 83.4094 43.8869 51.9042 0.0000 0.0000 0.0000
# 2 43.8869 111.5220 73.7060 0.0000 0.0000 0.0000
# 3 51.9042 73.7060 127.5548 0.0000 0.0000 0.0000
# 4 0.0000 0.0000 0.0000 28.8943 0.0000 0.0000
# 5 0.0000 0.0000 0.0000 0.0000 33.0017 0.0000
# 6 0.0000 0.0000 0.0000 0.0000 0.0000 23.1732
#
#
#
# Elastic Compliance Matrix: (Units=1/GPa)
#
#
# Indices 1 2 3 4 5 6 
#
# 1 0.016810 -0.003388 -0.004882 0.000000 0.000000 0.000000
# 2 -0.003388 0.015190 -0.007399 0.000000 0.000000 0.000000
# 3 -0.004882 -0.007399 0.014102 0.000000 0.000000 0.000000
# 4 0.000000 0.000000 0.000000 0.034609 0.000000 0.000000
# 5 0.000000 0.000000 0.000000 0.000000 0.030302 0.000000
# 6 0.000000 0.000000 0.000000 0.000000 0.000000 0.043153
#
#
# Mechanical properties :
#
#
# Convention : Reuss Voigt Hill
#
# Bulk Modulus (GPa) = 67.73643 73.49781 70.61712
# Shear Modulus (GPa) = 26.25700 27.21311 26.73505
#
# Velocity S-wave (km/s) = 3.74605 3.81364 3.77999
# Velocity P-wave (km/s) = 7.41024 7.65977 7.53604
#
# Compressibility (1/GPa) = 0.01476310
#
# Stress axis : x y z
#
# Youngs Moduli (GPa) = 59.48794 65.83240 70.91364
#
# Poissons Ratio (x) = 0.22307 0.34623
# Poissons Ratio (y) = 0.20157 0.52466
# Poissons Ratio (z) = 0.29044 0.48707
#
# Static dielectric constant tensor:
#      x y z
#    x 3.304910 0.000000 0.000000 
#    y 0.000000 3.673340 0.000000 
#    z 0.000000 0.000000 3.318000 
# 
# 
# High freq. dielectric constant tensor:
#      x y z
#    x 1.717850 0.000000 0.000000 
#    y 0.000000 1.729760 0.000000 
#    z 0.000000 0.000000 1.719950 
# 
# From -- ./inp_files/57583.got.cif
#   From: 2010.03.12/outbox.cif.g09.slc.cpg/sg74_29_cif.got.tgz:57583.got - 2010.04.16 15:46:19.
