data_PCOD8298484
_publ_section_title
;
Structure prediction by ZEFSAII (Michael W. Deem and Ramdas Pophale) SiO2 
 PCOD8298484
Probable space group: I M M A
;
_chemical_formula_sum "Si O2"
_cell_formula_units_Z 96
_cell_length_a 21.483734
_cell_length_b 16.294418
_cell_length_c 14.823572
_cell_angle_alpha 90.000000
_cell_angle_beta 90.000000
_cell_angle_gamma 90.000000
_cell_volume 5189.212872
_symmetry_space_group_name_H-M "I M M A"
_symmetry_group_IT_number 74
_symmetry_cell_setting 'orthorhombic'
loop_
_space_group_symop_operation_xyz
x,y,z
-x,1/2-y,z
x,-y,-z
-x,1/2+y,-z
-x,-y,-z
x,1/2+y,-z
-x,y,z
x,1/2-y,z
1/2+x,1/2+y,1/2+z
1/2-x,-y,1/2+z
1/2+x,1/2-y,1/2-z
1/2-x,y,1/2-z
1/2-x,1/2-y,1/2-z
1/2+x,y,1/2-z
1/2-x,1/2+y,1/2+z
1/2+x,-y,1/2+z
loop_
_atom_site_type_symbol
_atom_site_label
_atom_site_fract_x
_atom_site_fract_y
_atom_site_fract_z
Si Si1 0.375014 0.068824 0.341660
Si Si2 0.649084 0.750000 0.245056
Si Si3 0.569947 0.662007 0.510541
Si Si4 0.187231 0.159634 0.307062
Si Si5 0.253481 0.589784 0.535315
Si Si6 0.925146 0.395108 0.819342
Si Si7 0.251474 0.750000 0.404861
O O1 0.430959 0.102615 0.403000
O O2 0.367750 0.122580 0.252444
O O3 0.317211 0.079029 0.409698
O O4 0.391166 0.980800 0.301213
O O5 0.603761 0.670762 0.250231
O O6 0.695146 0.750000 0.329971
O O7 0.685533 0.750000 0.149427
O O8 0.500000 0.680025 0.483291
O O9 0.603321 0.750000 0.531935
O O10 0.599119 0.623590 0.420671
O O11 0.166933 0.250000 0.336005
O O12 0.250000 0.160208 0.250000
O O13 0.196652 0.108549 0.397820
O O14 0.236185 0.500000 0.500000
O O15 0.258075 0.665536 0.463646
O O16 0.000000 0.399851 0.807645
#
# Coordination Sequence:
#
# PCOD8298484 Si02
#       7
#    16   8  16  16  16  16   8
#     4  11  21  32  55  81 112 150 186 231 284 344
#     4  11  23  38  58  84 116 155 196 248 291 345
#     4  10  19  31  49  76 109 144 182 223 274 341
#     4   9  19  35  53  77 110 150 190 228 283 347
#     4  11  22  36  55  81 117 153 189 239 291 350
#     4  11  22  38  57  84 118 156 198 241 291 350
#     4  11  24  38  59  86 121 156 201 240 298 352
#
# _framework density 18.499915999999999
#
# number of rings (size 3 to 8) (size 9 to 14) (size 15 to 20)
#    0.000    1.500    1.667    4.750    4.667    1.333 
#    0.000    0.000    0.000    0.000    0.000    5.833 
#    0.000    0.000    0.000    0.000    0.000    0.000 
#
# Total GULP energy -594684.237230 kJ/mol
# GULP energy per Si atom -12389.254942 kJ/mol
# Density = 1.845781 g / cm^3
# Si number density = 18.499916 Si / 1000 Ang^3
#
#
#
# Elastic Constant Matrix: (Units=GPa)
#
#
# Indices 1 2 3 4 5 6 
#
# 1 58.8934 35.0615 35.5390 0.0000 0.0000 0.0000
# 2 35.0615 157.6580 46.0114 0.0000 0.0000 0.0000
# 3 35.5390 46.0114 74.1872 0.0000 0.0000 0.0000
# 4 0.0000 0.0000 0.0000 24.4444 0.0000 0.0000
# 5 0.0000 0.0000 0.0000 0.0000 27.7319 0.0000
# 6 0.0000 0.0000 0.0000 0.0000 0.0000 28.0652
#
#
#
# Elastic Compliance Matrix: (Units=1/GPa)
#
#
# Indices 1 2 3 4 5 6 
#
# 1 0.024657 -0.002486 -0.010270 0.000000 0.000000 0.000000
# 2 -0.002486 0.007995 -0.003768 0.000000 0.000000 0.000000
# 3 -0.010270 -0.003768 0.020736 0.000000 0.000000 0.000000
# 4 0.000000 0.000000 0.000000 0.040909 0.000000 0.000000
# 5 0.000000 0.000000 0.000000 0.000000 0.036060 0.000000
# 6 0.000000 0.000000 0.000000 0.000000 0.000000 0.035631
#
#
# Mechanical properties :
#
#
# Convention : Reuss Voigt Hill
#
# Bulk Modulus (GPa) = 49.16252 58.21805 53.69028
# Shear Modulus (GPa) = 24.29342 27.65675 25.97509
#
# Velocity S-wave (km/s) = 3.62769 3.87067 3.75115
# Velocity P-wave (km/s) = 6.64673 7.17731 6.91711
#
# Compressibility (1/GPa) = 0.02034070
#
# Stress axis : x y z
#
# Youngs Moduli (GPa) = 40.55576 125.07256 48.22538
#
# Poissons Ratio (x) = 0.31097 0.49527
# Poissons Ratio (y) = 0.10083 0.18170
# Poissons Ratio (z) = 0.41651 0.47124
#
# Static dielectric constant tensor:
#      x y z
#    x 3.257340 0.000000 0.000000 
#    y 0.000000 3.686170 0.000000 
#    z 0.000000 0.000000 3.404980 
# 
# 
# High freq. dielectric constant tensor:
#      x y z
#    x 1.692530 0.000000 0.000000 
#    y 0.000000 1.740890 0.000000 
#    z 0.000000 0.000000 1.696120 
# 
# From -- ./inp_files/35306.got.cif
#   From: 2010.03.12/outbox.cif.g09.slc.cpg/sg74_18_cif.got.tgz:35306.got - 2010.04.16 15:46:19.
