data_PCOD8298569
_publ_section_title
;
Structure prediction by ZEFSAII (Michael W. Deem and Ramdas Pophale) SiO2 
 PCOD8298569
Probable space group: I M M A
;
_chemical_formula_sum "Si O2"
_cell_formula_units_Z 112
_cell_length_a 14.087630
_cell_length_b 15.561206
_cell_length_c 25.661773
_cell_angle_alpha 90.000000
_cell_angle_beta 90.000000
_cell_angle_gamma 90.000000
_cell_volume 5625.587028
_symmetry_space_group_name_H-M "I M M A"
_symmetry_group_IT_number 74
_symmetry_cell_setting 'orthorhombic'
loop_
_space_group_symop_operation_xyz
x,y,z
-x,1/2-y,z
x,-y,-z
-x,1/2+y,-z
-x,-y,-z
x,1/2+y,-z
-x,y,z
x,1/2-y,z
1/2+x,1/2+y,1/2+z
1/2-x,-y,1/2+z
1/2+x,1/2-y,1/2-z
1/2-x,y,1/2-z
1/2-x,1/2-y,1/2-z
1/2+x,y,1/2-z
1/2-x,1/2+y,1/2+z
1/2+x,-y,1/2+z
loop_
_atom_site_type_symbol
_atom_site_label
_atom_site_fract_x
_atom_site_fract_y
_atom_site_fract_z
Si Si1 0.602562 0.904637 0.343426
Si Si2 0.609224 0.999352 0.938466
Si Si3 0.195499 0.150944 0.624965
Si Si4 0.891819 0.151147 0.272202
Si Si5 0.796540 0.347644 0.377525
Si Si6 0.893169 0.400896 0.158965
Si Si7 0.142384 0.843016 0.263611
O O1 0.500000 0.869103 0.363854
O O2 0.690098 0.851376 0.366879
O O3 0.596808 0.904251 0.279866
O O4 0.613270 0.002306 0.361308
O O5 0.500000 0.999296 0.919650
O O6 0.661051 0.912507 0.919766
O O7 0.662093 0.085794 0.919441
O O8 0.616106 0.000000 0.000000
O O9 0.170299 0.250000 0.610581
O O10 0.139028 0.120458 0.677273
O O11 0.870144 0.250000 0.259877
O O12 0.829813 0.119011 0.320791
O O13 0.864229 0.100601 0.219932
O O14 0.000000 0.135901 0.288402
O O15 0.831366 0.250000 0.389398
O O16 0.681500 0.348372 0.376385
O O17 0.000000 0.362925 0.151745
O O18 0.090881 0.750000 0.261736
O O19 0.250000 0.827567 0.250000
#
# Coordination Sequence:
#
# PCOD8298569 Si02
#       7
#    16  16  16  16  16  16  16
#     4  10  19  31  53  88 127 164 198 232 273 330
#     4  11  26  46  66  88 112 140 184 247 309 355
#     4  10  21  39  62  87 118 157 197 236 286 347
#     4   9  18  31  49  81 121 158 197 236 277 333
#     4  11  22  38  62  87 116 157 197 237 288 344
#     4  10  20  32  52  87 127 164 198 231 273 333
#     4   8  16  29  47  78 118 157 194 229 267 322
#
# _framework density 19.909033999999998
#
# number of rings (size 3 to 8) (size 9 to 14) (size 15 to 20)
#    0.000    2.143    1.429    2.571    2.000    6.571 
#    0.000    2.857    0.000    1.714    0.000    2.000 
#    0.000    0.000    0.000    0.000    0.000    0.000 
#
# Total GULP energy -693965.705925 kJ/mol
# GULP energy per Si atom -12392.244749 kJ/mol
# Density = 1.986372 g / cm^3
# Si number density = 19.909034 Si / 1000 Ang^3
#
#
#
# Elastic Constant Matrix: (Units=GPa)
#
#
# Indices 1 2 3 4 5 6 
#
# 1 113.8839 33.0552 41.3092 0.0000 0.0000 0.0000
# 2 33.0552 91.6664 33.5348 0.0000 0.0000 0.0000
# 3 41.3092 33.5348 61.3058 0.0000 0.0000 0.0000
# 4 0.0000 0.0000 0.0000 10.4805 0.0000 0.0000
# 5 0.0000 0.0000 0.0000 0.0000 22.4656 0.0000
# 6 0.0000 0.0000 0.0000 0.0000 0.0000 -7.7582
#
#
#
# Elastic Compliance Matrix: (Units=1/GPa)
#
#
# Indices 1 2 3 4 5 6 
#
# 1 0.011826 -0.001687 -0.007046 0.000000 0.000000 0.000000
# 2 -0.001687 0.013879 -0.006455 0.000000 0.000000 0.000000
# 3 -0.007046 -0.006455 0.024591 0.000000 0.000000 0.000000
# 4 0.000000 0.000000 0.000000 0.095415 0.000000 0.000000
# 5 0.000000 0.000000 0.000000 0.000000 0.044512 0.000000
# 6 0.000000 0.000000 0.000000 0.000000 0.000000 -0.128895
#
#
# Mechanical properties :
#
#
# Convention : Reuss Voigt Hill
#
# Bulk Modulus (GPa) = 50.20235 53.62826 51.91531
# Shear Modulus (GPa) = 50.84147 15.63470 33.23809
#
# Velocity S-wave (km/s) = 5.05889 2.80537 4.09038
# Velocity P-wave (km/s) = 7.70673 6.12279 6.95997
#
# Compressibility (1/GPa) = 0.01991939
#
# Stress axis : x y z
#
# Youngs Moduli (GPa) = 84.55709 72.05132 40.66597
#
# Poissons Ratio (x) = 0.12154 0.28654
# Poissons Ratio (y) = 0.14264 0.26251
# Poissons Ratio (z) = 0.59580 0.46511
#
# Static dielectric constant tensor:
#      x y z
#    x 3.827570 0.000000 0.000000 
#    y 0.000000 3.499990 0.000000 
#    z 0.000000 0.000000 3.279360 
# 
# 
# High freq. dielectric constant tensor:
#      x y z
#    x 1.790240 0.000000 0.000000 
#    y 0.000000 1.776350 0.000000 
#    z 0.000000 0.000000 1.721300 
# 
# From -- ./inp_files/67182.got.cif
#   From: 2010.03.12/outbox.cif.g09.slc.cpg/sg74_34_cif.got.tgz:67182.got - 2010.04.16 15:46:19.
