data_PCOD8298237
_publ_section_title
;
Structure prediction by ZEFSAII (Michael W. Deem and Ramdas Pophale) SiO2 
 PCOD8298237
Probable space group: I M M A
;
_chemical_formula_sum "Si O2"
_cell_formula_units_Z 112
_cell_length_a 8.761670
_cell_length_b 32.007231
_cell_length_c 31.698563
_cell_angle_alpha 90.000000
_cell_angle_beta 90.000000
_cell_angle_gamma 90.000000
_cell_volume 8889.443434
_symmetry_space_group_name_H-M "I M M A"
_symmetry_group_IT_number 74
_symmetry_cell_setting 'orthorhombic'
loop_
_space_group_symop_operation_xyz
x,y,z
-x,1/2-y,z
x,-y,-z
-x,1/2+y,-z
-x,-y,-z
x,1/2+y,-z
-x,y,z
x,1/2-y,z
1/2+x,1/2+y,1/2+z
1/2-x,-y,1/2+z
1/2+x,1/2-y,1/2-z
1/2-x,y,1/2-z
1/2-x,1/2-y,1/2-z
1/2+x,y,1/2-z
1/2-x,1/2+y,1/2+z
1/2+x,-y,1/2+z
loop_
_atom_site_type_symbol
_atom_site_label
_atom_site_fract_x
_atom_site_fract_y
_atom_site_fract_z
Si Si1 0.672083 0.972859 0.957769
Si Si2 0.680385 0.333684 0.705625
Si Si3 0.821464 0.250000 0.922599
Si Si4 0.828586 0.402803 0.996127
Si Si5 0.675929 0.614335 0.134360
Si Si6 0.328548 0.956908 0.411960
Si Si7 0.675871 0.331992 0.949091
Si Si8 0.318820 0.750000 0.168965
O O1 0.500000 0.963892 0.943424
O O2 0.754957 0.928603 0.965348
O O3 0.756297 0.997587 0.920160
O O4 0.675135 0.000000 0.000000
O O5 0.500000 0.328244 0.708828
O O6 0.750000 0.347740 0.750000
O O7 0.720379 0.369770 0.672470
O O8 0.754237 0.290227 0.692098
O O9 0.777883 0.290465 0.949882
O O10 0.725612 0.250000 0.879775
O O11 0.000000 0.250000 0.911880
O O12 0.000000 0.389933 0.008573
O O13 0.828579 0.431364 0.955030
O O14 0.730331 0.361300 0.987462
O O15 0.500000 0.613460 0.148209
O O16 0.728590 0.567596 0.122612
O O17 0.701673 0.645209 0.095297
O O18 0.500000 0.962524 0.394828
O O19 0.500000 0.320335 0.956049
O O20 0.500000 0.750000 0.172448
#
# Coordination Sequence:
#
# PCOD8298237 Si02
#       8
#    16  16   8  16  16  16  16   8
#     4   9  15  23  35  52  73  95 117 137 163 195
#     4  12  24  37  50  62  75  91 112 141 179 222
#     4  12  22  31  45  60  74  92 117 146 180 218
#     4   9  16  25  37  53  73  93 116 140 166 199
#     4  10  19  31  45  59  75  92 113 139 171 211
#     4   9  16  25  38  55  74  94 115 137 164 197
#     4  10  19  30  43  56  73  93 115 142 175 211
#     4  12  23  37  50  62  75  88 110 142 180 222
#
# _framework density 12.599213000000001
#
# number of rings (size 3 to 8) (size 9 to 14) (size 15 to 20)
#    0.000    1.857    1.429    4.929    0.000    6.286 
#    0.000    0.000    0.000    0.000    0.000    0.000 
#    0.000    0.000    0.000    0.000    0.000    0.000 
#
# Total GULP energy -694495.012456 kJ/mol
# GULP energy per Si atom -12401.696651 kJ/mol
# Density = 1.257054 g / cm^3
# Si number density = 12.599213 Si / 1000 Ang^3
#
#
#
# Elastic Constant Matrix: (Units=GPa)
#
#
# Indices 1 2 3 4 5 6 
#
# 1 105.9949 36.2215 24.0525 0.0000 0.0000 0.0000
# 2 36.2215 62.9886 36.4296 0.0000 0.0000 0.0000
# 3 24.0525 36.4296 31.1331 0.0000 0.0000 0.0000
# 4 0.0000 0.0000 0.0000 -13.1051 0.0000 0.0000
# 5 0.0000 0.0000 0.0000 0.0000 16.4586 0.0000
# 6 0.0000 0.0000 0.0000 0.0000 0.0000 23.5056
#
#
#
# Elastic Compliance Matrix: (Units=1/GPa)
#
#
# Indices 1 2 3 4 5 6 
#
# 1 0.011875 -0.004711 -0.003662 0.000000 0.000000 0.000000
# 2 -0.004711 0.050981 -0.056015 0.000000 0.000000 0.000000
# 3 -0.003662 -0.056015 0.100494 0.000000 0.000000 0.000000
# 4 0.000000 0.000000 0.000000 -0.076306 0.000000 0.000000
# 5 0.000000 0.000000 0.000000 0.000000 0.060759 0.000000
# 6 0.000000 0.000000 0.000000 0.000000 0.000000 0.042543
#
#
# Mechanical properties :
#
#
# Convention : Reuss Voigt Hill
#
# Bulk Modulus (GPa) = 28.92316 43.72487 36.32401
# Shear Modulus (GPa) = 15.12190 12.26602 13.69396
#
# Velocity S-wave (km/s) = 3.46819 3.12357 3.30038
# Velocity P-wave (km/s) = 6.24851 6.91294 6.58910
#
# Compressibility (1/GPa) = 0.03457437
#
# Stress axis : x y z
#
# Youngs Moduli (GPa) = 84.20863 19.61509 9.95087
#
# Poissons Ratio (x) = 0.09240 0.03644
# Poissons Ratio (y) = 0.39669 0.55740
# Poissons Ratio (z) = 0.30840 1.09874
#
# Static dielectric constant tensor:
#      x y z
#    x 2.771040 0.000000 0.000000 
#    y 0.000000 2.574730 0.000000 
#    z 0.000000 0.000000 2.271200 
# 
# 
# High freq. dielectric constant tensor:
#      x y z
#    x 1.503580 0.000000 0.000000 
#    y 0.000000 1.463180 0.000000 
#    z 0.000000 0.000000 1.420580 
# 
# From -- ./inp_files/71145.got.cif
#   From: 2010.03.12/outbox.cif.g09.slc.cpg/sg74_36_cif.got.tgz:71145.got - 2010.04.16 15:46:19.
