data_PCOD8298000
_publ_section_title
;
Structure prediction by ZEFSAII (Michael W. Deem and Ramdas Pophale) SiO2 
 PCOD8298000
Probable space group: I M M A
;
_chemical_formula_sum "Si O2"
_cell_formula_units_Z 104
_cell_length_a 19.834356
_cell_length_b 15.899386
_cell_length_c 14.783319
_cell_angle_alpha 90.000000
_cell_angle_beta 90.000000
_cell_angle_gamma 90.000000
_cell_volume 4661.979994
_symmetry_space_group_name_H-M "I M M A"
_symmetry_group_IT_number 74
_symmetry_cell_setting 'orthorhombic'
loop_
_space_group_symop_operation_xyz
x,y,z
-x,1/2-y,z
x,-y,-z
-x,1/2+y,-z
-x,-y,-z
x,1/2+y,-z
-x,y,z
x,1/2-y,z
1/2+x,1/2+y,1/2+z
1/2-x,-y,1/2+z
1/2+x,1/2-y,1/2-z
1/2-x,y,1/2-z
1/2-x,1/2-y,1/2-z
1/2+x,y,1/2-z
1/2-x,1/2+y,1/2+z
1/2+x,-y,1/2+z
loop_
_atom_site_type_symbol
_atom_site_label
_atom_site_fract_x
_atom_site_fract_y
_atom_site_fract_z
Si Si1 0.000000 0.840173 0.571834
Si Si2 0.853940 0.495193 0.603717
Si Si3 0.368201 0.155556 0.193197
Si Si4 0.000000 0.937641 0.385711
Si Si5 0.500000 0.349234 0.698190
Si Si6 0.074272 0.348987 0.116320
Si Si7 0.236522 0.342745 0.646514
Si Si8 0.122041 0.649669 0.075715
O O1 0.063869 0.846585 0.636331
O O2 0.000000 0.750000 0.523440
O O3 0.000000 0.902721 0.487523
O O4 0.835059 0.500000 0.500000
O O5 0.822653 0.579274 0.652129
O O6 0.824899 0.407263 0.638814
O O7 0.934261 0.496114 0.623243
O O8 0.335280 0.250000 0.185970
O O9 0.379815 0.130454 0.297433
O O10 0.000000 0.870893 0.304286
O O11 0.500000 0.250000 0.689393
O O12 0.433488 0.385405 0.647046
O O13 0.066509 0.250000 0.105606
O O14 0.000000 0.388959 0.129710
O O15 0.106670 0.385846 0.024577
O O16 0.217588 0.250000 0.604742
O O17 0.250000 0.327457 0.750000
O O18 0.303311 0.382250 0.600842
O O19 0.121199 0.750000 0.078740
#
# Coordination Sequence:
#
# PCOD8298000 Si02
#       8
#     8  16  16   8   8  16  16  16
#     4  10  18  32  56  86 126 168 209 261 325 394
#     4  12  25  42  64  91 129 170 219 277 326 377
#     4  10  20  36  60  91 128 170 211 259 324 391
#     4  12  23  36  57  88 131 165 215 276 329 371
#     4  10  19  33  63 103 132 161 207 263 322 383
#     4   9  15  28  58  97 130 160 197 252 322 385
#     4  10  23  45  69  92 128 176 219 262 325 395
#     4   9  17  34  62  97 131 161 205 262 317 386
#
# _framework density 22.308118
#
# number of rings (size 3 to 8) (size 9 to 14) (size 15 to 20)
#    0.000    1.846    3.077    1.846    0.000    3.077 
#    2.769    0.000    0.000    1.385    0.000    0.000 
#    0.000    0.000    0.000    0.154    0.000    0.000 
#
# Total GULP energy -644399.307684 kJ/mol
# GULP energy per Si atom -12392.294379 kJ/mol
# Density = 2.225734 g / cm^3
# Si number density = 22.308118 Si / 1000 Ang^3
#
#
#
# Elastic Constant Matrix: (Units=GPa)
#
#
# Indices 1 2 3 4 5 6 
#
# 1 64.5532 32.6700 21.0423 0.0000 0.0000 0.0000
# 2 32.6700 99.1672 24.7902 0.0000 0.0000 0.0000
# 3 21.0423 24.7902 134.0781 0.0000 0.0000 0.0000
# 4 0.0000 0.0000 0.0000 0.3873 0.0000 0.0000
# 5 0.0000 0.0000 0.0000 0.0000 178.8974 0.0000
# 6 0.0000 0.0000 0.0000 0.0000 0.0000 23.4868
#
#
#
# Elastic Compliance Matrix: (Units=1/GPa)
#
#
# Indices 1 2 3 4 5 6 
#
# 1 0.019050 -0.005796 -0.001918 0.000000 0.000000 0.000000
# 2 -0.005796 0.012336 -0.001371 0.000000 0.000000 0.000000
# 3 -0.001918 -0.001371 0.008013 0.000000 0.000000 0.000000
# 4 0.000000 0.000000 0.000000 2.582086 0.000000 0.000000
# 5 0.000000 0.000000 0.000000 0.000000 0.005590 0.000000
# 6 0.000000 0.000000 0.000000 0.000000 0.000000 0.042577
#
#
# Mechanical properties :
#
#
# Convention : Reuss Voigt Hill
#
# Bulk Modulus (GPa) = 47.10788 50.53373 48.82081
# Shear Modulus (GPa) = 1.85536 55.17402 28.51469
#
# Velocity S-wave (km/s) = 0.91296 4.97859 3.57910
# Velocity P-wave (km/s) = 4.71954 7.46661 6.24598
#
# Compressibility (1/GPa) = 0.02122787
#
# Stress axis : x y z
#
# Youngs Moduli (GPa) = 52.49395 81.06125 124.79905
#
# Poissons Ratio (x) = 0.46986 0.23936
# Poissons Ratio (y) = 0.30428 0.17113
# Poissons Ratio (z) = 0.10068 0.11115
#
# Static dielectric constant tensor:
#      x y z
#    x 3.712400 0.000000 0.000000 
#    y 0.000000 4.342420 0.000000 
#    z 0.000000 0.000000 4.124090 
# 
# 
# High freq. dielectric constant tensor:
#      x y z
#    x 1.847120 0.000000 0.000000 
#    y 0.000000 1.869770 0.000000 
#    z 0.000000 0.000000 1.890320 
# 
# From -- ./inp_files/35524.got.cif
#   From: 2010.03.12/outbox.cif.g09.slc.cpg/sg74_18_cif.got.tgz:35524.got - 2010.04.16 15:46:19.
