data_PCOD8298645
_publ_section_title
;
Structure prediction by ZEFSAII (Michael W. Deem and Ramdas Pophale) SiO2 
 PCOD8298645
Probable space group: I M M A
;
_chemical_formula_sum "Si O2"
_cell_formula_units_Z 96
_cell_length_a 22.285469
_cell_length_b 8.894762
_cell_length_c 27.308752
_cell_angle_alpha 90.000000
_cell_angle_beta 90.000000
_cell_angle_gamma 90.000000
_cell_volume 5413.248495
_symmetry_space_group_name_H-M "I M M A"
_symmetry_group_IT_number 74
_symmetry_cell_setting 'orthorhombic'
loop_
_space_group_symop_operation_xyz
x,y,z
-x,1/2-y,z
x,-y,-z
-x,1/2+y,-z
-x,-y,-z
x,1/2+y,-z
-x,y,z
x,1/2-y,z
1/2+x,1/2+y,1/2+z
1/2-x,-y,1/2+z
1/2+x,1/2-y,1/2-z
1/2-x,y,1/2-z
1/2-x,1/2-y,1/2-z
1/2+x,y,1/2-z
1/2-x,1/2+y,1/2+z
1/2+x,-y,1/2+z
loop_
_atom_site_type_symbol
_atom_site_label
_atom_site_fract_x
_atom_site_fract_y
_atom_site_fract_z
Si Si1 0.300549 0.076641 0.638118
Si Si2 0.381678 0.074656 0.105189
Si Si3 0.000000 0.573836 0.733301
Si Si4 0.238147 0.426973 0.448457
Si Si5 0.179659 0.081235 0.688538
Si Si6 0.000000 0.927697 0.374135
Si Si7 0.890335 0.921289 0.217463
O O1 0.301068 0.250000 0.621922
O O2 0.248849 0.045407 0.678155
O O3 0.363729 0.033257 0.664075
O O4 0.289163 0.977609 0.589950
O O5 0.394867 0.250000 0.099887
O O6 0.328262 0.020928 0.069034
O O7 0.362362 0.037781 0.160591
O O8 0.442708 0.984096 0.094656
O O9 0.000000 0.489499 0.681374
O O10 0.942832 0.531807 0.766301
O O11 0.000000 0.750000 0.722375
O O12 0.253277 0.500000 0.500000
O O13 0.241005 0.250000 0.453486
O O14 0.163454 0.250000 0.669972
O O15 0.166122 0.066095 0.745767
O O16 0.000000 0.750000 0.371070
O O17 0.914763 0.750000 0.216540
#
# Coordination Sequence:
#
# PCOD8298645 Si02
#       7
#    16  16   8  16  16   8  16
#     4   9  18  32  52  78 105 134 169 212 259 308
#     4  10  20  33  50  74 102 134 173 218 261 301
#     4  12  24  34  48  71 106 147 182 218 253 291
#     4  10  21  37  57  79 104 132 167 214 267 318
#     4   9  16  28  48  73 103 137 171 206 248 301
#     4  12  22  34  51  71  98 139 184 218 254 305
#     4  10  19  32  50  74 105 140 178 211 248 302
#
# _framework density 17.734266999999999
#
# number of rings (size 3 to 8) (size 9 to 14) (size 15 to 20)
#    0.000    2.000    1.667    3.000    0.000    4.667 
#    0.000    0.417    0.000    5.000    0.000    0.583 
#    0.000    0.000    0.000    0.000    0.000    0.000 
#
# Total GULP energy -595086.263959 kJ/mol
# GULP energy per Si atom -12397.630499 kJ/mol
# Density = 1.769390 g / cm^3
# Si number density = 17.734267 Si / 1000 Ang^3
#
#
#
# Elastic Constant Matrix: (Units=GPa)
#
#
# Indices 1 2 3 4 5 6 
#
# 1 44.2921 19.4141 26.5866 0.0000 0.0000 0.0000
# 2 19.4141 75.9315 29.1260 0.0000 0.0000 0.0000
# 3 26.5866 29.1260 87.5328 0.0000 0.0000 0.0000
# 4 0.0000 0.0000 0.0000 24.2390 0.0000 0.0000
# 5 0.0000 0.0000 0.0000 0.0000 14.9959 0.0000
# 6 0.0000 0.0000 0.0000 0.0000 0.0000 27.4063
#
#
#
# Elastic Compliance Matrix: (Units=1/GPa)
#
#
# Indices 1 2 3 4 5 6 
#
# 1 0.028959 -0.004620 -0.007259 0.000000 0.000000 0.000000
# 2 -0.004620 0.015834 -0.003865 0.000000 0.000000 0.000000
# 3 -0.007259 -0.003865 0.014915 0.000000 0.000000 0.000000
# 4 0.000000 0.000000 0.000000 0.041256 0.000000 0.000000
# 5 0.000000 0.000000 0.000000 0.000000 0.066685 0.000000
# 6 0.000000 0.000000 0.000000 0.000000 0.000000 0.036488
#
#
# Mechanical properties :
#
#
# Convention : Reuss Voigt Hill
#
# Bulk Modulus (GPa) = 35.43547 39.77886 37.60716
# Shear Modulus (GPa) = 20.40552 22.17021 21.28787
#
# Velocity S-wave (km/s) = 3.39577 3.53956 3.46841
# Velocity P-wave (km/s) = 5.94977 6.25970 6.10670
#
# Compressibility (1/GPa) = 0.02822031
#
# Stress axis : x y z
#
# Youngs Moduli (GPa) = 34.53101 63.15662 67.04603
#
# Poissons Ratio (x) = 0.29179 0.48666
# Poissons Ratio (y) = 0.15953 0.25915
# Poissons Ratio (z) = 0.25065 0.24412
#
# Static dielectric constant tensor:
#      x y z
#    x 3.296310 0.000000 0.000000 
#    y 0.000000 3.267640 0.000000 
#    z 0.000000 0.000000 3.069610 
# 
# 
# High freq. dielectric constant tensor:
#      x y z
#    x 1.671780 0.000000 0.000000 
#    y 0.000000 1.686020 0.000000 
#    z 0.000000 0.000000 1.658300 
# 
# From -- ./inp_files/57318.got.cif
#   From: 2010.03.12/outbox.cif.g09.slc.cpg/sg74_29_cif.got.tgz:57318.got - 2010.04.16 15:46:19.
