data_PCOD8298470
_publ_section_title
;
Structure prediction by ZEFSAII (Michael W. Deem and Ramdas Pophale) SiO2 
 PCOD8298470
Probable space group: I M M A
;
_chemical_formula_sum "Si O2"
_cell_formula_units_Z 80
_cell_length_a 26.987702
_cell_length_b 9.393554
_cell_length_c 18.310713
_cell_angle_alpha 90.000000
_cell_angle_beta 90.000000
_cell_angle_gamma 90.000000
_cell_volume 4641.956837
_symmetry_space_group_name_H-M "I M M A"
_symmetry_group_IT_number 74
_symmetry_cell_setting 'orthorhombic'
loop_
_space_group_symop_operation_xyz
x,y,z
-x,1/2-y,z
x,-y,-z
-x,1/2+y,-z
-x,-y,-z
x,1/2+y,-z
-x,y,z
x,1/2-y,z
1/2+x,1/2+y,1/2+z
1/2-x,-y,1/2+z
1/2+x,1/2-y,1/2-z
1/2-x,y,1/2-z
1/2-x,1/2-y,1/2-z
1/2+x,y,1/2-z
1/2-x,1/2+y,1/2+z
1/2+x,-y,1/2+z
loop_
_atom_site_type_symbol
_atom_site_label
_atom_site_fract_x
_atom_site_fract_y
_atom_site_fract_z
Si Si1 0.444273 0.914525 0.344616
Si Si2 0.848501 0.587029 0.070316
Si Si3 0.943523 0.414486 0.431183
Si Si4 0.804419 0.915059 0.223717
Si Si5 0.895116 0.917664 0.720695
O O1 0.500000 0.940519 0.374001
O O2 0.435955 0.750000 0.321876
O O3 0.404710 0.956065 0.407087
O O4 0.435416 0.011702 0.274046
O O5 0.846058 0.750000 0.046972
O O6 0.811160 0.554850 0.137315
O O7 0.831122 0.500000 0.000000
O O8 0.921891 0.500000 0.500000
O O9 0.940143 0.250000 0.451297
O O10 0.910695 0.451889 0.361472
O O11 0.000000 0.460136 0.414672
O O12 0.816275 0.750000 0.240425
O O13 0.750000 0.957536 0.250000
O O14 0.841389 0.013786 0.268949
O O15 0.893330 0.750000 0.736874
#
# Coordination Sequence:
#
# PCOD8298470 Si02
#       5
#    16  16  16  16  16
#     4   9  18  32  49  70  98 134 172 201 229 279
#     4   9  18  32  50  73  99 127 160 198 240 285
#     4   9  18  31  46  67  97 131 164 198 238 285
#     4   9  19  37  57  73  93 126 165 201 241 293
#     4  10  19  31  49  74 101 125 157 206 253 290
#
# _framework density 17.234110000000001
#
# number of rings (size 3 to 8) (size 9 to 14) (size 15 to 20)
#    0.000    2.800    0.000    2.400    0.000    6.800 
#    0.000    3.000    0.000    4.800    0.000    0.000 
#    0.000    0.000    0.000    0.000    0.000    0.000 
#
# Total GULP energy -495982.387657 kJ/mol
# GULP energy per Si atom -12399.559691 kJ/mol
# Density = 1.719488 g / cm^3
# Si number density = 17.234110 Si / 1000 Ang^3
#
#
#
# Elastic Constant Matrix: (Units=GPa)
#
#
# Indices 1 2 3 4 5 6 
#
# 1 98.3856 31.1360 48.7187 0.0000 0.0000 0.0000
# 2 31.1360 69.5984 61.5484 0.0000 0.0000 0.0000
# 3 48.7187 61.5484 121.8149 0.0000 0.0000 0.0000
# 4 0.0000 0.0000 0.0000 34.6529 0.0000 0.0000
# 5 0.0000 0.0000 0.0000 0.0000 16.7489 0.0000
# 6 0.0000 0.0000 0.0000 0.0000 0.0000 17.8757
#
#
#
# Elastic Compliance Matrix: (Units=1/GPa)
#
#
# Indices 1 2 3 4 5 6 
#
# 1 0.012854 -0.002177 -0.004041 0.000000 0.000000 0.000000
# 2 -0.002177 0.026342 -0.012439 0.000000 0.000000 0.000000
# 3 -0.004041 -0.012439 0.016110 0.000000 0.000000 0.000000
# 4 0.000000 0.000000 0.000000 0.028858 0.000000 0.000000
# 5 0.000000 0.000000 0.000000 0.000000 0.059705 0.000000
# 6 0.000000 0.000000 0.000000 0.000000 0.000000 0.055942
#
#
# Mechanical properties :
#
#
# Convention : Reuss Voigt Hill
#
# Bulk Modulus (GPa) = 55.57799 63.62280 59.60039
# Shear Modulus (GPa) = 20.56570 23.74856 22.15713
#
# Velocity S-wave (km/s) = 3.45818 3.71617 3.58949
# Velocity P-wave (km/s) = 6.94725 7.44380 7.19980
#
# Compressibility (1/GPa) = 0.01799274
#
# Stress axis : x y z
#
# Youngs Moduli (GPa) = 77.79679 37.96157 62.07197
#
# Poissons Ratio (x) = 0.08264 0.25083
# Poissons Ratio (y) = 0.16936 0.77212
# Poissons Ratio (z) = 0.31437 0.47221
#
# Static dielectric constant tensor:
#      x y z
#    x 3.192320 0.000000 0.000000 
#    y 0.000000 3.208630 0.000000 
#    z 0.000000 0.000000 3.101730 
# 
# 
# High freq. dielectric constant tensor:
#      x y z
#    x 1.654170 0.000000 0.000000 
#    y 0.000000 1.668010 0.000000 
#    z 0.000000 0.000000 1.658650 
# 
# From -- ./inp_files/39682.got.cif
#   From: 2010.03.12/outbox.cif.g09.slc.cpg/sg74_20_cif.got.tgz:39682.got - 2010.04.16 15:46:19.
