data_PCOD8298120
_publ_section_title
;
Structure prediction by ZEFSAII (Michael W. Deem and Ramdas Pophale) SiO2 
 PCOD8298120
Probable space group: I M M A
;
_chemical_formula_sum "Si O2"
_cell_formula_units_Z 112
_cell_length_a 23.925127
_cell_length_b 14.531455
_cell_length_c 14.499932
_cell_angle_alpha 90.000000
_cell_angle_beta 90.000000
_cell_angle_gamma 90.000000
_cell_volume 5041.146501
_symmetry_space_group_name_H-M "I M M A"
_symmetry_group_IT_number 74
_symmetry_cell_setting 'orthorhombic'
loop_
_space_group_symop_operation_xyz
x,y,z
-x,1/2-y,z
x,-y,-z
-x,1/2+y,-z
-x,-y,-z
x,1/2+y,-z
-x,y,z
x,1/2-y,z
1/2+x,1/2+y,1/2+z
1/2-x,-y,1/2+z
1/2+x,1/2-y,1/2-z
1/2-x,y,1/2-z
1/2-x,1/2-y,1/2-z
1/2+x,y,1/2-z
1/2-x,1/2+y,1/2+z
1/2+x,-y,1/2+z
loop_
_atom_site_type_symbol
_atom_site_label
_atom_site_fract_x
_atom_site_fract_y
_atom_site_fract_z
Si Si1 0.276731 0.107790 0.013883
Si Si2 0.621476 0.500524 0.719618
Si Si3 0.936485 0.647233 0.095273
Si Si4 0.435886 0.901202 0.036121
Si Si5 0.344069 0.096999 0.454975
Si Si6 0.380551 0.349535 0.136015
Si Si7 0.660247 0.850683 0.164850
O O1 0.215136 0.149961 0.035360
O O2 0.317976 0.132756 0.097557
O O3 0.295389 0.151348 0.917157
O O4 0.276303 0.000000 0.000000
O O5 0.576949 0.433268 0.669213
O O6 0.645175 0.578991 0.652555
O O7 0.597323 0.564825 0.801803
O O8 0.670018 0.431088 0.758730
O O9 0.931061 0.750000 0.139333
O O10 0.000000 0.630353 0.061075
O O11 0.895890 0.646057 0.005829
O O12 0.500000 0.899093 0.065278
O O13 0.422837 0.835705 0.949743
O O14 0.401996 0.870505 0.126101
O O15 0.414764 0.000000 0.000000
O O16 0.334475 0.000000 0.500000
O O17 0.380855 0.250000 0.188195
O O18 0.661991 0.750000 0.212722
#
# Coordination Sequence:
#
# PCOD8298120 Si02
#       7
#    16  16  16  16  16  16  16
#     4  10  18  39  62  87 128 174 212 253 313 383
#     4  11  22  41  60  96 128 160 204 266 320 380
#     4  10  23  45  70  94 125 167 217 271 327 384
#     4  10  19  35  57  83 121 170 213 252 304 372
#     4   9  22  40  66  89 119 166 210 261 319 385
#     4  11  22  37  59  88 126 172 213 260 314 373
#     4  11  21  36  62  93 128 168 208 256 314 373
#
# _framework density 22.217167
#
# number of rings (size 3 to 8) (size 9 to 14) (size 15 to 20)
#    0.000    1.714    2.857    3.000    0.000    7.143 
#    2.571    0.714    0.000    3.429    0.000    0.000 
#    0.000    0.000    0.000    0.000    0.000    0.000 
#
# Total GULP energy -693769.452108 kJ/mol
# GULP energy per Si atom -12388.740216 kJ/mol
# Density = 2.216660 g / cm^3
# Si number density = 22.217167 Si / 1000 Ang^3
#
#
#
# Elastic Constant Matrix: (Units=GPa)
#
#
# Indices 1 2 3 4 5 6 
#
# 1 120.0949 18.1241 29.0390 0.0000 0.0000 0.0000
# 2 18.1241 138.5337 24.3592 0.0000 0.0000 0.0000
# 3 29.0390 24.3592 84.2693 0.0000 0.0000 0.0000
# 4 0.0000 0.0000 0.0000 21.8819 0.0000 0.0000
# 5 0.0000 0.0000 0.0000 0.0000 29.4788 0.0000
# 6 0.0000 0.0000 0.0000 0.0000 0.0000 15.1119
#
#
#
# Elastic Compliance Matrix: (Units=1/GPa)
#
#
# Indices 1 2 3 4 5 6 
#
# 1 0.009143 -0.000677 -0.002955 0.000000 0.000000 0.000000
# 2 -0.000677 0.007655 -0.001980 0.000000 0.000000 0.000000
# 3 -0.002955 -0.001980 0.013457 0.000000 0.000000 0.000000
# 4 0.000000 0.000000 0.000000 0.045700 0.000000 0.000000
# 5 0.000000 0.000000 0.000000 0.000000 0.033923 0.000000
# 6 0.000000 0.000000 0.000000 0.000000 0.000000 0.066173
#
#
# Mechanical properties :
#
#
# Convention : Reuss Voigt Hill
#
# Bulk Modulus (GPa) = 52.54062 53.99363 53.26712
# Shear Modulus (GPa) = 25.82398 31.38623 28.60511
#
# Velocity S-wave (km/s) = 3.41301 3.76267 3.59210
# Velocity P-wave (km/s) = 6.26351 6.57513 6.42121
#
# Compressibility (1/GPa) = 0.01903289
#
# Stress axis : x y z
#
# Youngs Moduli (GPa) = 109.36818 130.63239 74.30894
#
# Poissons Ratio (x) = 0.08838 0.21960
# Poissons Ratio (y) = 0.07400 0.14711
# Poissons Ratio (z) = 0.32321 0.25861
#
# Static dielectric constant tensor:
#      x y z
#    x 4.056850 0.000000 0.000000 
#    y 0.000000 4.262270 0.000000 
#    z 0.000000 0.000000 2.667390 
# 
# 
# High freq. dielectric constant tensor:
#      x y z
#    x 1.854170 0.000000 0.000000 
#    y 0.000000 1.889730 0.000000 
#    z 0.000000 0.000000 1.855720 
# 
# From -- ./inp_files/36556.got.cif
#   From: 2010.03.12/outbox.cif.g09.slc.cpg/sg74_19_cif.got.tgz:36556.got - 2010.04.16 15:46:19.
