data_PCOD8298224
_publ_section_title
;
Structure prediction by ZEFSAII (Michael W. Deem and Ramdas Pophale) SiO2 
 PCOD8298224
Probable space group: I M M A
;
_chemical_formula_sum "Si O2"
_cell_formula_units_Z 104
_cell_length_a 22.504072
_cell_length_b 8.891696
_cell_length_c 29.657652
_cell_angle_alpha 90.000000
_cell_angle_beta 90.000000
_cell_angle_gamma 90.000000
_cell_volume 5934.477391
_symmetry_space_group_name_H-M "I M M A"
_symmetry_group_IT_number 74
_symmetry_cell_setting 'orthorhombic'
loop_
_space_group_symop_operation_xyz
x,y,z
-x,1/2-y,z
x,-y,-z
-x,1/2+y,-z
-x,-y,-z
x,1/2+y,-z
-x,y,z
x,1/2-y,z
1/2+x,1/2+y,1/2+z
1/2-x,-y,1/2+z
1/2+x,1/2-y,1/2-z
1/2-x,y,1/2-z
1/2-x,1/2-y,1/2-z
1/2+x,y,1/2-z
1/2-x,1/2+y,1/2+z
1/2+x,-y,1/2+z
loop_
_atom_site_type_symbol
_atom_site_label
_atom_site_fract_x
_atom_site_fract_y
_atom_site_fract_z
Si Si1 0.889021 0.925748 0.606912
Si Si2 0.846234 0.571693 0.047587
Si Si3 0.432207 0.073730 0.806314
Si Si4 0.069410 0.925194 0.882321
Si Si5 0.277341 0.427894 0.047193
Si Si6 0.000000 0.072007 0.451370
Si Si7 0.429501 0.916302 0.717730
O O1 0.896621 0.750000 0.614782
O O2 0.826603 0.966610 0.584259
O O3 0.942141 0.985725 0.575349
O O4 0.890798 0.003807 0.655404
O O5 0.840212 0.750000 0.042400
O O6 0.896294 0.532246 0.083567
O O7 0.783857 0.501672 0.063935
O O8 0.864947 0.500000 0.000000
O O9 0.500000 0.015546 0.812463
O O10 0.428835 0.250000 0.810204
O O11 0.407008 0.026433 0.757211
O O12 0.082948 0.750000 0.891988
O O13 0.091760 0.968893 0.831864
O O14 0.000000 0.958813 0.888362
O O15 0.269184 0.250000 0.040679
O O16 0.297711 0.500000 0.000000
O O17 0.000000 0.250000 0.457192
O O18 0.000000 0.000000 0.500000
O O19 0.500000 0.911495 0.716196
O O20 0.404547 0.750000 0.728253
#
# Coordination Sequence:
#
# PCOD8298224 Si02
#       7
#    16  16  16  16  16   8  16
#     4  10  20  33  50  70  97 133 171 212 258 309
#     4  11  22  36  55  77 104 138 171 208 249 294
#     4  10  19  29  45  72 103 134 169 211 255 298
#     4   9  18  34  56  82 109 136 167 203 247 299
#     4  10  20  35  54  74  96 130 174 215 255 302
#     4  10  20  32  46  68  98 130 164 208 261 312
#     4   8  15  29  50  73 100 135 167 199 244 300
#
# _framework density 17.524709999999999
#
# number of rings (size 3 to 8) (size 9 to 14) (size 15 to 20)
#    0.000    2.308    0.769    4.615    0.000    3.692 
#    0.000    1.538    0.000    0.923    0.000    6.462 
#    0.000    0.000    0.000    0.000    0.000    0.000 
#
# Total GULP energy -644776.228992 kJ/mol
# GULP energy per Si atom -12399.542865 kJ/mol
# Density = 1.748482 g / cm^3
# Si number density = 17.524710 Si / 1000 Ang^3
#
#
#
# Elastic Constant Matrix: (Units=GPa)
#
#
# Indices 1 2 3 4 5 6 
#
# 1 69.4325 42.4435 60.5813 0.0000 0.0000 0.0000
# 2 42.4435 79.3556 52.5318 0.0000 0.0000 0.0000
# 3 60.5813 52.5318 132.9666 0.0000 0.0000 0.0000
# 4 0.0000 0.0000 0.0000 34.4839 0.0000 0.0000
# 5 0.0000 0.0000 0.0000 0.0000 21.2232 0.0000
# 6 0.0000 0.0000 0.0000 0.0000 0.0000 23.3572
#
#
#
# Elastic Compliance Matrix: (Units=1/GPa)
#
#
# Indices 1 2 3 4 5 6 
#
# 1 0.027790 -0.008777 -0.009194 0.000000 0.000000 0.000000
# 2 -0.008777 0.019837 -0.003838 0.000000 0.000000 0.000000
# 3 -0.009194 -0.003838 0.013226 0.000000 0.000000 0.000000
# 4 0.000000 0.000000 0.000000 0.028999 0.000000 0.000000
# 5 0.000000 0.000000 0.000000 0.000000 0.047118 0.000000
# 6 0.000000 0.000000 0.000000 0.000000 0.000000 0.042813
#
#
# Mechanical properties :
#
#
# Convention : Reuss Voigt Hill
#
# Bulk Modulus (GPa) = 58.02397 65.87423 61.94910
# Shear Modulus (GPa) = 21.82024 24.22607 23.02316
#
# Velocity S-wave (km/s) = 3.53244 3.72209 3.62851
# Velocity P-wave (km/s) = 7.05827 7.49286 7.27881
#
# Compressibility (1/GPa) = 0.01723426
#
# Stress axis : x y z
#
# Youngs Moduli (GPa) = 35.98474 50.41155 75.61060
#
# Poissons Ratio (x) = 0.44248 0.69513
# Poissons Ratio (y) = 0.31585 0.29019
# Poissons Ratio (z) = 0.33083 0.19348
#
# Static dielectric constant tensor:
#      x y z
#    x 3.056400 0.000000 0.000000 
#    y 0.000000 3.238320 0.000000 
#    z 0.000000 0.000000 3.393110 
# 
# 
# High freq. dielectric constant tensor:
#      x y z
#    x 1.647140 0.000000 0.000000 
#    y 0.000000 1.679260 0.000000 
#    z 0.000000 0.000000 1.685620 
# 
# From -- ./inp_files/73680.got.cif
#   From: 2010.03.12/outbox.cif.g09.slc.cpg/sg74_37_cif.got.tgz:73680.got - 2010.04.16 15:46:19.
