data_PCOD8298131
_publ_section_title
;
Structure prediction by ZEFSAII (Michael W. Deem and Ramdas Pophale) SiO2 
 PCOD8298131
Probable space group: I M M A
;
_chemical_formula_sum "Si O2"
_cell_formula_units_Z 96
_cell_length_a 8.995069
_cell_length_b 31.508177
_cell_length_c 26.810162
_cell_angle_alpha 90.000000
_cell_angle_beta 90.000000
_cell_angle_gamma 90.000000
_cell_volume 7598.488558
_symmetry_space_group_name_H-M "I M M A"
_symmetry_group_IT_number 74
_symmetry_cell_setting 'orthorhombic'
loop_
_space_group_symop_operation_xyz
x,y,z
-x,1/2-y,z
x,-y,-z
-x,1/2+y,-z
-x,-y,-z
x,1/2+y,-z
-x,y,z
x,1/2-y,z
1/2+x,1/2+y,1/2+z
1/2-x,-y,1/2+z
1/2+x,1/2-y,1/2-z
1/2-x,y,1/2-z
1/2-x,1/2-y,1/2-z
1/2+x,y,1/2-z
1/2-x,1/2+y,1/2+z
1/2+x,-y,1/2+z
loop_
_atom_site_type_symbol
_atom_site_label
_atom_site_fract_x
_atom_site_fract_y
_atom_site_fract_z
Si Si1 0.828106 0.799603 0.698892
Si Si2 0.331965 0.957862 0.466990
Si Si3 0.327167 0.448084 0.302895
Si Si4 0.167765 0.911691 0.548679
Si Si5 0.332284 0.004262 0.114507
Si Si6 0.672810 0.365145 0.367880
O O1 0.806495 0.750000 0.688955
O O2 0.750000 0.813752 0.750000
O O3 0.752964 0.823502 0.652904
O O4 0.000000 0.812467 0.702938
O O5 0.500000 0.943417 0.455869
O O6 0.248107 0.920057 0.495962
O O7 0.249031 0.966155 0.414687
O O8 0.331123 0.000000 0.500000
O O9 0.500000 0.457923 0.296271
O O10 0.250000 0.445555 0.250000
O O11 0.255391 0.486270 0.334559
O O12 0.299424 0.403515 0.329888
O O13 0.256933 0.875514 0.578367
O O14 0.000000 0.896096 0.538751
O O15 0.167603 0.954464 0.580276
O O16 0.500000 0.990246 0.127302
O O17 0.500000 0.355622 0.375350
#
# Coordination Sequence:
#
# PCOD8298131 Si02
#       6
#    16  16  16  16  16  16
#     4  10  20  32  44  56  69  86 109 137 170 209
#     4   9  15  23  35  50  68  87 107 131 159 193
#     4  10  19  28  37  50  67  87 111 139 171 205
#     4   9  16  25  37  52  69  87 107 131 161 198
#     4   9  16  25  36  49  65  86 110 134 162 196
#     4  10  19  29  41  55  70  87 108 136 171 209
#
# _framework density 12.634091
#
# number of rings (size 3 to 8) (size 9 to 14) (size 15 to 20)
#    0.000    2.500    0.000    3.500    0.000   10.333 
#    0.000    0.000    0.000    0.000    0.000    0.000 
#    0.000    0.000    0.000    0.000    0.000    0.000 
#
# Total GULP energy -595242.087923 kJ/mol
# GULP energy per Si atom -12400.876832 kJ/mol
# Density = 1.260534 g / cm^3
# Si number density = 12.634091 Si / 1000 Ang^3
#
#
#
# Elastic Constant Matrix: (Units=GPa)
#
#
# Indices 1 2 3 4 5 6 
#
# 1 122.6968 32.5660 41.6280 0.0000 0.0000 0.0000
# 2 32.5660 32.8254 23.5335 0.0000 0.0000 0.0000
# 3 41.6280 23.5335 34.7234 0.0000 0.0000 0.0000
# 4 0.0000 0.0000 0.0000 21.6302 0.0000 0.0000
# 5 0.0000 0.0000 0.0000 0.0000 25.4387 0.0000
# 6 0.0000 0.0000 0.0000 0.0000 0.0000 16.6308
#
#
#
# Elastic Compliance Matrix: (Units=1/GPa)
#
#
# Indices 1 2 3 4 5 6 
#
# 1 0.013953 -0.003599 -0.014288 0.000000 0.000000 0.000000
# 2 -0.003599 0.060185 -0.036475 0.000000 0.000000 0.000000
# 3 -0.014288 -0.036475 0.070649 0.000000 0.000000 0.000000
# 4 0.000000 0.000000 0.000000 0.046232 0.000000 0.000000
# 5 0.000000 0.000000 0.000000 0.000000 0.039310 0.000000
# 6 0.000000 0.000000 0.000000 0.000000 0.000000 0.060129
#
#
# Mechanical properties :
#
#
# Convention : Reuss Voigt Hill
#
# Bulk Modulus (GPa) = 27.72984 42.85561 35.29272
# Shear Modulus (GPa) = 12.15942 18.90783 15.53362
#
# Velocity S-wave (km/s) = 3.10567 3.87275 3.51023
# Velocity P-wave (km/s) = 5.90392 7.34792 6.66514
#
# Compressibility (1/GPa) = 0.03606223
#
# Stress axis : x y z
#
# Youngs Moduli (GPa) = 71.66845 16.61550 14.15445
#
# Poissons Ratio (x) = 0.05980 0.20224
# Poissons Ratio (y) = 0.25794 0.51628
# Poissons Ratio (z) = 1.02403 0.60605
#
# Static dielectric constant tensor:
#      x y z
#    x 2.813420 0.000000 0.000000 
#    y 0.000000 2.247530 0.000000 
#    z 0.000000 0.000000 2.507640 
# 
# 
# High freq. dielectric constant tensor:
#      x y z
#    x 1.505750 0.000000 0.000000 
#    y 0.000000 1.424560 0.000000 
#    z 0.000000 0.000000 1.461380 
# 
# From -- ./inp_files/57494.got.cif
#   From: 2010.03.12/outbox.cif.g09.slc.cpg/sg74_29_cif.got.tgz:57494.got - 2010.04.16 15:46:19.
