data_PCOD8298554
_publ_section_title
;
Structure prediction by ZEFSAII (Michael W. Deem and Ramdas Pophale) SiO2 
 PCOD8298554
Probable space group: I M M A
;
_chemical_formula_sum "Si O2"
_cell_formula_units_Z 88
_cell_length_a 22.367467
_cell_length_b 8.898518
_cell_length_c 24.749122
_cell_angle_alpha 90.000000
_cell_angle_beta 90.000000
_cell_angle_gamma 90.000000
_cell_volume 4925.998611
_symmetry_space_group_name_H-M "I M M A"
_symmetry_group_IT_number 74
_symmetry_cell_setting 'orthorhombic'
loop_
_space_group_symop_operation_xyz
x,y,z
-x,1/2-y,z
x,-y,-z
-x,1/2+y,-z
-x,-y,-z
x,1/2+y,-z
-x,y,z
x,1/2-y,z
1/2+x,1/2+y,1/2+z
1/2-x,-y,1/2+z
1/2+x,1/2-y,1/2-z
1/2-x,y,1/2-z
1/2-x,1/2-y,1/2-z
1/2+x,y,1/2-z
1/2-x,1/2+y,1/2+z
1/2+x,-y,1/2+z
loop_
_atom_site_type_symbol
_atom_site_label
_atom_site_fract_x
_atom_site_fract_y
_atom_site_fract_z
Si Si1 0.137952 0.926147 0.231264
Si Si2 0.000000 0.428486 0.941164
Si Si3 0.276452 0.420897 0.339580
Si Si4 0.844251 0.926416 0.352706
Si Si5 0.404334 0.079081 0.367302
Si Si6 0.567686 0.072744 0.945263
O O1 0.131974 0.750000 0.221086
O O2 0.129538 0.968518 0.293893
O O3 0.204166 0.983672 0.213578
O O4 0.088341 0.010663 0.193762
O O5 0.940710 0.480793 0.909888
O O6 0.000000 0.250000 0.946289
O O7 0.000000 0.500000 0.000000
O O8 0.263268 0.250000 0.322347
O O9 0.217909 0.491864 0.366253
O O10 0.333026 0.427286 0.381611
O O11 0.832631 0.750000 0.357250
O O12 0.892409 0.984632 0.395679
O O13 0.428333 0.250000 0.367894
O O14 0.500000 0.018779 0.934334
O O15 0.571271 0.250000 0.951347
O O16 0.592860 0.000000 0.000000
#
# Coordination Sequence:
#
# PCOD8298554 Si02
#       6
#    16   8  16  16  16  16
#     4   9  17  31  51  79 112 145 180 218 268 325
#     4  12  24  40  64  84 104 144 189 228 269 322
#     4   9  19  32  51  78 111 144 175 216 269 320
#     4  10  19  31  52  81 110 142 181 222 267 328
#     4   9  20  37  54  78 111 144 178 223 270 313
#     4   9  19  37  56  74 101 137 178 223 270 318
#
# _framework density 17.864398999999999
#
# number of rings (size 3 to 8) (size 9 to 14) (size 15 to 20)
#    1.091    1.455    0.000    2.455    0.000    4.364 
#    1.636    0.909    0.000    2.182    0.000    0.000 
#    0.000    0.000    0.000    0.000    0.000    0.000 
#
# Total GULP energy -545240.815725 kJ/mol
# GULP energy per Si atom -12391.836721 kJ/mol
# Density = 1.782374 g / cm^3
# Si number density = 17.864399 Si / 1000 Ang^3
#
#
#
# Elastic Constant Matrix: (Units=GPa)
#
#
# Indices 1 2 3 4 5 6 
#
# 1 83.1892 45.7219 82.2139 0.0000 0.0000 0.0000
# 2 45.7219 93.8422 53.8979 0.0000 0.0000 0.0000
# 3 82.2139 53.8979 130.8056 0.0000 0.0000 0.0000
# 4 0.0000 0.0000 0.0000 27.5989 0.0000 0.0000
# 5 0.0000 0.0000 0.0000 0.0000 25.9086 0.0000
# 6 0.0000 0.0000 0.0000 0.0000 0.0000 27.1010
#
#
#
# Elastic Compliance Matrix: (Units=1/GPa)
#
#
# Indices 1 2 3 4 5 6 
#
# 1 0.033833 -0.005595 -0.018959 0.000000 0.000000 0.000000
# 2 -0.005595 0.014885 -0.002617 0.000000 0.000000 0.000000
# 3 -0.018959 -0.002617 0.020639 0.000000 0.000000 0.000000
# 4 0.000000 0.000000 0.000000 0.036233 0.000000 0.000000
# 5 0.000000 0.000000 0.000000 0.000000 0.038597 0.000000
# 6 0.000000 0.000000 0.000000 0.000000 0.000000 0.036899
#
#
# Mechanical properties :
#
#
# Convention : Reuss Voigt Hill
#
# Bulk Modulus (GPa) = 66.59828 74.61161 70.60495
# Shear Modulus (GPa) = 20.79573 24.52190 22.65882
#
# Velocity S-wave (km/s) = 3.41557 3.70897 3.56529
# Velocity P-wave (km/s) = 7.27432 7.75875 7.52043
#
# Compressibility (1/GPa) = 0.01501540
#
# Stress axis : x y z
#
# Youngs Moduli (GPa) = 29.55719 67.18123 48.45093
#
# Poissons Ratio (x) = 0.37587 0.91859
# Poissons Ratio (y) = 0.16537 0.12679
# Poissons Ratio (z) = 0.56038 0.17580
#
# Static dielectric constant tensor:
#      x y z
#    x 3.226260 0.000000 0.000000 
#    y 0.000000 3.312200 0.000000 
#    z 0.000000 0.000000 3.180540 
# 
# 
# High freq. dielectric constant tensor:
#      x y z
#    x 1.680870 0.000000 0.000000 
#    y 0.000000 1.700210 0.000000 
#    z 0.000000 0.000000 1.670800 
# 
# From -- ./inp_files/55069.got.cif
#   From: 2010.03.12/outbox.cif.g09.slc.cpg/sg74_28_cif.got.tgz:55069.got - 2010.04.16 15:46:19.
