data_PCOD8298564
_publ_section_title
;
Structure prediction by ZEFSAII (Michael W. Deem and Ramdas Pophale) SiO2 
 PCOD8298564
Probable space group: I M M A
;
_chemical_formula_sum "Si O2"
_cell_formula_units_Z 96
_cell_length_a 19.079219
_cell_length_b 8.758102
_cell_length_c 30.400032
_cell_angle_alpha 90.000000
_cell_angle_beta 90.000000
_cell_angle_gamma 90.000000
_cell_volume 5079.776828
_symmetry_space_group_name_H-M "I M M A"
_symmetry_group_IT_number 74
_symmetry_cell_setting 'orthorhombic'
loop_
_space_group_symop_operation_xyz
x,y,z
-x,1/2-y,z
x,-y,-z
-x,1/2+y,-z
-x,-y,-z
x,1/2+y,-z
-x,y,z
x,1/2-y,z
1/2+x,1/2+y,1/2+z
1/2-x,-y,1/2+z
1/2+x,1/2-y,1/2-z
1/2-x,y,1/2-z
1/2-x,1/2-y,1/2-z
1/2+x,y,1/2-z
1/2-x,1/2+y,1/2+z
1/2+x,-y,1/2+z
loop_
_atom_site_type_symbol
_atom_site_label
_atom_site_fract_x
_atom_site_fract_y
_atom_site_fract_z
Si Si1 0.182143 0.070872 0.223477
Si Si2 0.081332 0.929731 0.046742
Si Si3 0.832991 0.568650 0.623007
Si Si4 0.824500 0.931093 0.875907
Si Si5 0.420963 0.569650 0.956568
Si Si6 0.921867 0.429990 0.296756
O O1 0.197021 0.250000 0.218750
O O2 0.250000 0.001914 0.250000
O O3 0.166747 0.007573 0.174380
O O4 0.111006 0.032303 0.249451
O O5 0.092959 0.750000 0.043804
O O6 0.000000 0.972541 0.054337
O O7 0.123774 0.992252 0.088865
O O8 0.107355 0.000000 0.000000
O O9 0.835345 0.750000 0.625855
O O10 0.754328 0.516283 0.613351
O O11 0.878655 0.501318 0.583773
O O12 0.867989 0.501125 0.667293
O O13 0.836102 0.750000 0.879077
O O14 0.500000 0.510880 0.951441
O O15 0.416594 0.750000 0.958341
O O16 0.386219 0.500000 0.000000
O O17 0.928160 0.250000 0.303912
O O18 0.000000 0.502457 0.300260
#
# Coordination Sequence:
#
# PCOD8298564 Si02
#       6
#    16  16  16  16  16  16
#     4   9  15  26  43  69 107 145 177 218 269 314
#     4  10  22  41  62  82 107 139 176 221 272 327
#     4   9  16  27  43  67  97 130 166 207 255 303
#     4  10  19  31  53  81 110 141 173 214 267 322
#     4   9  17  29  44  62  87 121 161 203 246 293
#     4   9  15  23  39  65  97 134 176 219 260 303
#
# _framework density 18.898468000000001
#
# number of rings (size 3 to 8) (size 9 to 14) (size 15 to 20)
#    0.000    2.667    1.667    1.000    0.000    4.333 
#    0.000    4.167    0.000    0.500    0.000    0.000 
#    0.000    4.000    0.000    0.000    0.000    0.000 
#
# Total GULP energy -594739.331189 kJ/mol
# GULP energy per Si atom -12390.402733 kJ/mol
# Density = 1.885545 g / cm^3
# Si number density = 18.898468 Si / 1000 Ang^3
#
#
#
# Elastic Constant Matrix: (Units=GPa)
#
#
# Indices 1 2 3 4 5 6 
#
# 1 120.8571 24.3026 80.8827 0.0000 0.0000 0.0000
# 2 24.3026 25.9542 30.5609 0.0000 0.0000 0.0000
# 3 80.8827 30.5609 187.9260 0.0000 0.0000 0.0000
# 4 0.0000 0.0000 0.0000 20.5288 0.0000 0.0000
# 5 0.0000 0.0000 0.0000 0.0000 34.9689 0.0000
# 6 0.0000 0.0000 0.0000 0.0000 0.0000 14.3433
#
#
#
# Elastic Compliance Matrix: (Units=1/GPa)
#
#
# Indices 1 2 3 4 5 6 
#
# 1 0.012481 -0.006631 -0.004293 0.000000 0.000000 0.000000
# 2 -0.006631 0.051178 -0.005469 0.000000 0.000000 0.000000
# 3 -0.004293 -0.005469 0.008058 0.000000 0.000000 0.000000
# 4 0.000000 0.000000 0.000000 0.048712 0.000000 0.000000
# 5 0.000000 0.000000 0.000000 0.000000 0.028597 0.000000
# 6 0.000000 0.000000 0.000000 0.000000 0.000000 0.069719
#
#
# Mechanical properties :
#
#
# Convention : Reuss Voigt Hill
#
# Bulk Modulus (GPa) = 25.68660 67.35886 46.52273
# Shear Modulus (GPa) = 18.90297 27.23426 23.06862
#
# Velocity S-wave (km/s) = 3.16609 3.80028 3.49759
# Velocity P-wave (km/s) = 5.19489 7.41458 6.40168
#
# Compressibility (1/GPa) = 0.03893081
#
# Stress axis : x y z
#
# Youngs Moduli (GPa) = 80.12158 19.53965 124.09399
#
# Poissons Ratio (x) = 0.12958 0.53278
# Poissons Ratio (y) = 0.53132 0.67861
# Poissons Ratio (z) = 0.34399 0.10685
#
# Static dielectric constant tensor:
#      x y z
#    x 3.609630 0.000000 0.000000 
#    y 0.000000 2.870150 0.000000 
#    z 0.000000 0.000000 3.412190 
# 
# 
# High freq. dielectric constant tensor:
#      x y z
#    x 1.738260 0.000000 0.000000 
#    y 0.000000 1.668810 0.000000 
#    z 0.000000 0.000000 1.752970 
# 
# From -- ./inp_files/68131.got.cif
#   From: 2010.03.12/outbox.cif.g09.slc.cpg/sg74_35_cif.got.tgz:68131.got - 2010.04.16 15:46:19.
