data_PCOD8298601
_publ_section_title
;
Structure prediction by ZEFSAII (Michael W. Deem and Ramdas Pophale) SiO2 
 PCOD8298601
Probable space group: I M M A
;
_chemical_formula_sum "Si O2"
_cell_formula_units_Z 128
_cell_length_a 17.832972
_cell_length_b 16.986607
_cell_length_c 22.878648
_cell_angle_alpha 90.000000
_cell_angle_beta 90.000000
_cell_angle_gamma 90.000000
_cell_volume 6930.438649
_symmetry_space_group_name_H-M "I M M A"
_symmetry_group_IT_number 74
_symmetry_cell_setting 'orthorhombic'
loop_
_space_group_symop_operation_xyz
x,y,z
-x,1/2-y,z
x,-y,-z
-x,1/2+y,-z
-x,-y,-z
x,1/2+y,-z
-x,y,z
x,1/2-y,z
1/2+x,1/2+y,1/2+z
1/2-x,-y,1/2+z
1/2+x,1/2-y,1/2-z
1/2-x,y,1/2-z
1/2-x,1/2-y,1/2-z
1/2+x,y,1/2-z
1/2-x,1/2+y,1/2+z
1/2+x,-y,1/2+z
loop_
_atom_site_type_symbol
_atom_site_label
_atom_site_fract_x
_atom_site_fract_y
_atom_site_fract_z
Si Si1 0.088480 0.837664 0.427561
Si Si2 0.082611 0.627576 0.079355
Si Si3 0.089017 0.004756 0.635014
Si Si4 0.584155 0.045628 0.369816
Si Si5 0.586116 0.164358 0.705035
Si Si6 0.342538 0.417733 0.032320
Si Si7 0.161597 0.011883 0.756211
Si Si8 0.325671 0.911843 0.524731
O O1 0.117621 0.750000 0.408586
O O2 0.119025 0.908216 0.385630
O O3 0.112525 0.853853 0.494389
O O4 0.000000 0.838852 0.425041
O O5 0.080475 0.537813 0.099249
O O6 0.106258 0.676354 0.136648
O O7 0.000000 0.652830 0.057153
O O8 0.140793 0.643348 0.026749
O O9 0.121861 0.982941 0.697678
O O10 0.000000 0.004698 0.636698
O O11 0.116917 0.933579 0.593839
O O12 0.500000 0.077092 0.357018
O O13 0.626236 0.101581 0.416224
O O14 0.630964 0.040611 0.309685
O O15 0.500000 0.133280 0.711381
O O16 0.594831 0.250000 0.735350
O O17 0.642031 0.103878 0.735421
O O18 0.258312 0.385699 0.040578
O O19 0.341454 0.500000 0.000000
O O20 0.250000 0.001338 0.750000
O O21 0.328141 0.000000 0.500000
#
# Coordination Sequence:
#
# PCOD8298601 Si02
#       8
#    16  16  16  16  16  16  16  16
#     4   9  18  32  49  68  90 119 156 195 231 272
#     4   8  14  25  41  60  80 107 144 182 222 269
#     4  10  19  32  49  66  88 123 161 192 228 278
#     4   9  16  27  42  60  84 113 144 181 225 269
#     4   9  18  32  46  59  83 122 162 196 228 265
#     4   9  17  29  45  67  93 118 145 186 240 283
#     4  11  21  31  43  63  91 120 153 194 236 277
#     4   9  15  24  41  64  87 110 138 178 227 273
#
# _framework density 18.469249000000001
#
# number of rings (size 3 to 8) (size 9 to 14) (size 15 to 20)
#    0.000    2.750    0.000    3.375    0.000    6.750 
#    0.000    3.125    0.000    0.000    0.000    0.000 
#    0.000    5.500    0.000    6.000    0.000    1.375 
#
# Total GULP energy -793122.327280 kJ/mol
# GULP energy per Si atom -12392.536364 kJ/mol
# Density = 1.842721 g / cm^3
# Si number density = 18.469249 Si / 1000 Ang^3
#
#
#
# Elastic Constant Matrix: (Units=GPa)
#
#
# Indices 1 2 3 4 5 6 
#
# 1 69.7907 4.9271 39.4801 0.0000 0.0000 0.0000
# 2 4.9271 10.2537 2.8584 0.0000 0.0000 0.0000
# 3 39.4801 2.8584 109.3215 0.0000 0.0000 0.0000
# 4 0.0000 0.0000 0.0000 67.7180 0.0000 0.0000
# 5 0.0000 0.0000 0.0000 0.0000 32.5117 0.0000
# 6 0.0000 0.0000 0.0000 0.0000 0.0000 7.4541
#
#
#
# Elastic Compliance Matrix: (Units=1/GPa)
#
#
# Indices 1 2 3 4 5 6 
#
# 1 0.018504 -0.007080 -0.006497 0.000000 0.000000 0.000000
# 2 -0.007080 0.100951 -0.000083 0.000000 0.000000 0.000000
# 3 -0.006497 -0.000083 0.011496 0.000000 0.000000 0.000000
# 4 0.000000 0.000000 0.000000 0.014767 0.000000 0.000000
# 5 0.000000 0.000000 0.000000 0.000000 0.030758 0.000000
# 6 0.000000 0.000000 0.000000 0.000000 0.000000 0.134154
#
#
# Mechanical properties :
#
#
# Convention : Reuss Voigt Hill
#
# Bulk Modulus (GPa) = 9.64969 31.54413 20.59691
# Shear Modulus (GPa) = 13.42306 31.01014 22.21660
#
# Velocity S-wave (km/s) = 2.69881 4.10202 3.47204
# Velocity P-wave (km/s) = 3.86620 6.28902 5.22012
#
# Compressibility (1/GPa) = 0.10363024
#
# Stress axis : x y z
#
# Youngs Moduli (GPa) = 54.04263 9.90582 86.98740
#
# Poissons Ratio (x) = 0.07014 0.56519
# Poissons Ratio (y) = 0.38264 0.00718
# Poissons Ratio (z) = 0.35113 0.00082
#
# Static dielectric constant tensor:
#      x y z
#    x 3.510970 0.000000 0.000000 
#    y 0.000000 1.963880 0.000000 
#    z 0.000000 0.000000 3.535240 
# 
# 
# High freq. dielectric constant tensor:
#      x y z
#    x 1.718430 0.000000 0.000000 
#    y 0.000000 1.657750 0.000000 
#    z 0.000000 0.000000 1.714770 
# 
# From -- ./inp_files/53436.got.cif
#   From: 2010.03.12/outbox.cif.g09.slc.cpg/sg74_27_cif.got.tgz:53436.got - 2010.04.16 15:46:19.
