data_PCOD8298520
_publ_section_title
;
Structure prediction by ZEFSAII (Michael W. Deem and Ramdas Pophale) SiO2 
 PCOD8298520
Probable space group: I M M A
;
_chemical_formula_sum "Si O2"
_cell_formula_units_Z 104
_cell_length_a 13.496282
_cell_length_b 28.424001
_cell_length_c 14.298556
_cell_angle_alpha 90.000000
_cell_angle_beta 90.000000
_cell_angle_gamma 90.000000
_cell_volume 5485.188218
_symmetry_space_group_name_H-M "I M M A"
_symmetry_group_IT_number 74
_symmetry_cell_setting 'orthorhombic'
loop_
_space_group_symop_operation_xyz
x,y,z
-x,1/2-y,z
x,-y,-z
-x,1/2+y,-z
-x,-y,-z
x,1/2+y,-z
-x,y,z
x,1/2-y,z
1/2+x,1/2+y,1/2+z
1/2-x,-y,1/2+z
1/2+x,1/2-y,1/2-z
1/2-x,y,1/2-z
1/2-x,1/2-y,1/2-z
1/2+x,y,1/2-z
1/2-x,1/2+y,1/2+z
1/2+x,-y,1/2+z
loop_
_atom_site_type_symbol
_atom_site_label
_atom_site_fract_x
_atom_site_fract_y
_atom_site_fract_z
Si Si1 0.615425 0.863025 0.507739
Si Si2 0.117208 0.961721 0.079340
Si Si3 0.727962 0.696723 0.644051
Si Si4 0.387237 0.697646 0.007124
Si Si5 0.382237 0.632330 0.173326
Si Si6 0.383047 0.301328 0.662743
Si Si7 0.750000 0.054836 0.750000
O O1 0.500000 0.868774 0.522028
O O2 0.654103 0.912267 0.465178
O O3 0.658320 0.845456 0.606624
O O4 0.646271 0.821195 0.438061
O O5 0.181734 0.973541 0.173838
O O6 0.000000 0.960200 0.106324
O O7 0.138584 0.000000 0.000000
O O8 0.682503 0.750000 0.634728
O O9 0.750000 0.684155 0.750000
O O10 0.831278 0.693707 0.590059
O O11 0.500000 0.686368 0.983199
O O12 0.376673 0.750000 0.051630
O O13 0.346902 0.658976 0.079930
O O14 0.500000 0.623956 0.175633
O O15 0.343301 0.663984 0.258610
O O16 0.326268 0.583342 0.184504
O O17 0.500000 0.297553 0.673327
O O18 0.333871 0.250000 0.672755
#
# Coordination Sequence:
#
# PCOD8298520 Si02
#       7
#    16  16  16  16  16  16   8
#     4  10  19  35  56  80 109 143 180 225 280 333
#     4  10  22  41  63  86 114 145 181 229 284 340
#     4  10  21  35  50  74 106 142 189 241 277 311
#     4   9  18  32  47  66 101 148 188 218 258 312
#     4  10  19  31  50  79 115 148 177 214 261 321
#     4   9  16  27  46  76 114 149 178 210 254 317
#     4  12  20  34  61  88 110 142 187 220 274 334
#
# _framework density 18.960152000000001
#
# number of rings (size 3 to 8) (size 9 to 14) (size 15 to 20)
#    0.000    2.154    1.538    2.308    0.000    3.385 
#    1.385    2.308    0.000    1.846    0.000    0.000 
#    0.000    0.000    0.000    0.000    0.000    0.000 
#
# Total GULP energy -644491.177088 kJ/mol
# GULP energy per Si atom -12394.061098 kJ/mol
# Density = 1.891700 g / cm^3
# Si number density = 18.960152 Si / 1000 Ang^3
#
#
#
# Elastic Constant Matrix: (Units=GPa)
#
#
# Indices 1 2 3 4 5 6 
#
# 1 55.3164 17.1948 32.3893 0.0001 0.0000 0.0000
# 2 17.1948 46.0461 23.3327 0.0001 0.0000 -0.0001
# 3 32.3893 23.3327 120.9525 0.0025 0.0001 0.0000
# 4 0.0001 0.0001 0.0025 26.9214 -0.0002 -0.0001
# 5 0.0000 0.0000 0.0001 -0.0002 29.3873 0.0000
# 6 0.0000 -0.0001 0.0000 -0.0001 0.0000 18.9601
#
#
#
# Elastic Compliance Matrix: (Units=1/GPa)
#
#
# Indices 1 2 3 4 5 6 
#
# 1 0.022853 -0.006021 -0.004958 0.000000 0.000000 0.000000
# 2 -0.006021 0.025657 -0.003337 0.000000 0.000000 0.000000
# 3 -0.004958 -0.003337 0.010239 -0.000001 0.000000 0.000000
# 4 0.000000 0.000000 -0.000001 0.037145 0.000000 0.000000
# 5 0.000000 0.000000 0.000000 0.000000 0.034028 0.000000
# 6 0.000000 0.000000 0.000000 0.000000 0.000000 0.052742
#
#
# Mechanical properties :
#
#
# Convention : Reuss Voigt Hill
#
# Bulk Modulus (GPa) = 33.20517 40.90540 37.05528
# Shear Modulus (GPa) = 22.59012 25.01365 23.80189
#
# Velocity S-wave (km/s) = 3.45549 3.63612 3.54696
# Velocity P-wave (km/s) = 5.78547 6.26496 6.02998
#
# Compressibility (1/GPa) = 0.03011580
#
# Stress axis : x y z
#
# Youngs Moduli (GPa) = 43.75869 38.97593 97.66472
#
# Poissons Ratio (x) = 0.23469 0.48422
# Poissons Ratio (y) = 0.26349 0.32590
# Poissons Ratio (z) = 0.21696 0.13006
#
# Static dielectric constant tensor:
#      x y z
#    x 3.502430 0.000000 0.000000 
#    y 0.000000 3.341270 0.000000 
#    z 0.000000 0.000000 3.420300 
# 
# 
# High freq. dielectric constant tensor:
#      x y z
#    x 1.747490 0.000000 0.000000 
#    y 0.000000 1.704920 0.000000 
#    z 0.000000 0.000000 1.728960 
# 
# From -- ./inp_files/21108.got.cif
#   From: 2010.03.12/outbox.cif.g09.slc.cpg/sg74_11_cif.got.tgz:21108.got - 2010.04.16 15:46:19.
