data_PCOD8298057
_publ_section_title
;
Structure prediction by ZEFSAII (Michael W. Deem and Ramdas Pophale) SiO2 
 PCOD8298057
Probable space group: I M M A
;
_chemical_formula_sum "Si O2"
_cell_formula_units_Z 80
_cell_length_a 17.245654
_cell_length_b 16.618497
_cell_length_c 15.585952
_cell_angle_alpha 90.000000
_cell_angle_beta 90.000000
_cell_angle_gamma 90.000000
_cell_volume 4466.884736
_symmetry_space_group_name_H-M "I M M A"
_symmetry_group_IT_number 74
_symmetry_cell_setting 'orthorhombic'
loop_
_space_group_symop_operation_xyz
x,y,z
-x,1/2-y,z
x,-y,-z
-x,1/2+y,-z
-x,-y,-z
x,1/2+y,-z
-x,y,z
x,1/2-y,z
1/2+x,1/2+y,1/2+z
1/2-x,-y,1/2+z
1/2+x,1/2-y,1/2-z
1/2-x,y,1/2-z
1/2-x,1/2-y,1/2-z
1/2+x,y,1/2-z
1/2-x,1/2+y,1/2+z
1/2+x,-y,1/2+z
loop_
_atom_site_type_symbol
_atom_site_label
_atom_site_fract_x
_atom_site_fract_y
_atom_site_fract_z
Si Si1 0.820497 0.060179 0.435684
Si Si2 0.190134 0.156227 0.987097
Si Si3 0.663607 0.841421 0.779833
Si Si4 0.089898 0.919108 0.868579
Si Si5 0.704554 0.051255 0.662981
O O1 0.777125 0.134861 0.481563
O O2 0.867478 0.100772 0.357083
O O3 0.870036 0.000000 0.500000
O O4 0.756490 0.999188 0.401629
O O5 0.174399 0.250000 0.000062
O O6 0.181858 0.133669 0.886332
O O7 0.126703 0.105375 0.040523
O O8 0.667076 0.750000 0.812365
O O9 0.750000 0.870673 0.750000
O O10 0.605226 0.847568 0.699941
O O11 0.000000 0.934282 0.883699
O O12 0.126905 0.998503 0.823541
O O13 0.750000 0.072169 0.750000
#
# Coordination Sequence:
#
# PCOD8298057 Si02
#       5
#    16  16  16  16  16
#     4   9  16  29  50  71  95 128 163 211 257 300
#     4  10  20  31  48  77 106 131 166 213 262 305
#     4  11  18  29  51  75 101 132 171 217 265 309
#     4  11  21  34  51  76 111 143 169 205 262 327
#     4  10  18  34  53  72  99 137 179 215 249 302
#
# _framework density 17.909573999999999
#
# number of rings (size 3 to 8) (size 9 to 14) (size 15 to 20)
#    0.000    1.800    6.000    3.000    0.000    3.600 
#    0.000    0.000    0.000    0.600    0.000    0.000 
#    0.000    0.000    0.000    0.000    0.000    0.000 
#
# Total GULP energy -495602.916964 kJ/mol
# GULP energy per Si atom -12390.072924 kJ/mol
# Density = 1.786881 g / cm^3
# Si number density = 17.909574 Si / 1000 Ang^3
#
#
#
# Elastic Constant Matrix: (Units=GPa)
#
#
# Indices 1 2 3 4 5 6 
#
# 1 49.7285 15.0436 35.5249 0.0000 0.0000 0.0000
# 2 15.0436 55.9097 47.5747 0.0000 0.0000 0.0000
# 3 35.5249 47.5747 125.0374 0.0000 0.0000 0.0000
# 4 0.0000 0.0000 0.0000 34.9754 0.0000 0.0000
# 5 0.0000 0.0000 0.0000 0.0000 14.1880 0.0000
# 6 0.0000 0.0000 0.0000 0.0000 0.0000 7.2457
#
#
#
# Elastic Compliance Matrix: (Units=1/GPa)
#
#
# Indices 1 2 3 4 5 6 
#
# 1 0.025269 -0.001021 -0.006791 0.000000 0.000000 0.000000
# 2 -0.001021 0.026490 -0.009789 0.000000 0.000000 0.000000
# 3 -0.006791 -0.009789 0.013652 0.000000 0.000000 0.000000
# 4 0.000000 0.000000 0.000000 0.028591 0.000000 0.000000
# 5 0.000000 0.000000 0.000000 0.000000 0.070482 0.000000
# 6 0.000000 0.000000 0.000000 0.000000 0.000000 0.138012
#
#
# Mechanical properties :
#
#
# Convention : Reuss Voigt Hill
#
# Bulk Modulus (GPa) = 33.10189 47.44024 40.27106
# Shear Modulus (GPa) = 14.37737 20.11733 17.24735
#
# Velocity S-wave (km/s) = 2.83640 3.35516 3.10663
# Velocity P-wave (km/s) = 5.40831 6.44637 5.95002
#
# Compressibility (1/GPa) = 0.03020976
#
# Stress axis : x y z
#
# Youngs Moduli (GPa) = 39.57373 37.74946 73.25090
#
# Poissons Ratio (x) = 0.03852 0.49745
# Poissons Ratio (y) = 0.04039 0.71707
# Poissons Ratio (z) = 0.26875 0.36954
#
# Static dielectric constant tensor:
#      x y z
#    x 2.787640 0.000000 0.000000 
#    y 0.000000 3.322980 0.000000 
#    z 0.000000 0.000000 3.543070 
# 
# 
# High freq. dielectric constant tensor:
#      x y z
#    x 1.626140 0.000000 0.000000 
#    y 0.000000 1.689730 0.000000 
#    z 0.000000 0.000000 1.701960 
# 
# From -- ./inp_files/33960.got.cif
#   From: 2010.03.12/outbox.cif.g09.slc.cpg/sg74_17_cif.got.tgz:33960.got - 2010.04.16 15:46:19.
