data_PCOD8298152
_publ_section_title
;
Structure prediction by ZEFSAII (Michael W. Deem and Ramdas Pophale) SiO2 
 PCOD8298152
Probable space group: I M M A
;
_chemical_formula_sum "Si O2"
_cell_formula_units_Z 104
_cell_length_a 14.417241
_cell_length_b 26.692943
_cell_length_c 18.935068
_cell_angle_alpha 90.000000
_cell_angle_beta 90.000000
_cell_angle_gamma 90.000000
_cell_volume 7286.944913
_symmetry_space_group_name_H-M "I M M A"
_symmetry_group_IT_number 74
_symmetry_cell_setting 'orthorhombic'
loop_
_space_group_symop_operation_xyz
x,y,z
-x,1/2-y,z
x,-y,-z
-x,1/2+y,-z
-x,-y,-z
x,1/2+y,-z
-x,y,z
x,1/2-y,z
1/2+x,1/2+y,1/2+z
1/2-x,-y,1/2+z
1/2+x,1/2-y,1/2-z
1/2-x,y,1/2-z
1/2-x,1/2-y,1/2-z
1/2+x,y,1/2-z
1/2-x,1/2+y,1/2+z
1/2+x,-y,1/2+z
loop_
_atom_site_type_symbol
_atom_site_label
_atom_site_fract_x
_atom_site_fract_y
_atom_site_fract_z
Si Si1 0.394363 0.481550 0.344930
Si Si2 0.606005 0.692141 0.649087
Si Si3 0.605705 0.605435 0.550021
Si Si4 0.750000 0.139735 0.250000
Si Si5 0.787529 0.454117 0.944780
Si Si6 0.892620 0.937565 0.696529
Si Si7 0.901184 0.016906 0.579108
O O1 0.500000 0.494043 0.359807
O O2 0.365811 0.430131 0.384356
O O3 0.340491 0.529862 0.373893
O O4 0.373342 0.474248 0.262564
O O5 0.500000 0.681984 0.676572
O O6 0.621380 0.750000 0.631535
O O7 0.621119 0.662168 0.575814
O O8 0.681691 0.675022 0.705670
O O9 0.500000 0.595235 0.527320
O O10 0.668724 0.594844 0.481146
O O11 0.817634 0.107149 0.300752
O O12 0.681676 0.442482 0.920490
O O13 0.791815 0.500000 0.000000
O O14 0.000000 0.917954 0.698804
O O15 0.872535 0.968595 0.625620
O O16 0.000000 0.039262 0.607176
O O17 0.916540 0.000000 0.500000
#
# Coordination Sequence:
#
# PCOD8298152 Si02
#       7
#    16  16  16   8  16  16  16
#     4   9  15  25  39  60  82 103 132 168 204 239
#     4  10  21  34  45  60  82 106 137 178 218 253
#     4   9  16  28  43  60  79 102 132 168 209 249
#     4  12  19  28  48  62  78 106 144 180 209 242
#     4   9  16  24  39  59  78 103 131 167 199 239
#     4  10  19  28  41  61  84 113 144 174 204 241
#     4   9  18  28  36  51  80 111 141 168 195 234
#
# _framework density 14.272099000000001
#
# number of rings (size 3 to 8) (size 9 to 14) (size 15 to 20)
#    0.000    2.462    1.538    2.077    4.308    1.846 
#    0.000    0.000    0.000    0.000    0.000    0.000 
#    0.000    0.000    0.000    2.769    0.000   15.077 
#
# Total GULP energy -644353.596487 kJ/mol
# GULP energy per Si atom -12391.415317 kJ/mol
# Density = 1.423962 g / cm^3
# Si number density = 14.272099 Si / 1000 Ang^3
#
#
#
# Elastic Constant Matrix: (Units=GPa)
#
#
# Indices 1 2 3 4 5 6 
#
# 1 104.2875 50.5759 31.6696 0.0000 0.0000 0.0000
# 2 50.5759 67.1395 41.9631 -0.0001 0.0000 0.0000
# 3 31.6696 41.9631 56.4432 -0.0001 0.0000 0.0000
# 4 0.0000 -0.0001 -0.0001 17.8191 0.0000 0.0000
# 5 0.0000 0.0000 0.0000 0.0000 13.6514 0.0000
# 6 0.0000 0.0000 0.0000 0.0000 0.0000 17.4851
#
#
#
# Elastic Compliance Matrix: (Units=1/GPa)
#
#
# Indices 1 2 3 4 5 6 
#
# 1 0.015108 -0.011363 -0.000030 0.000000 0.000000 0.000000
# 2 -0.011363 0.036368 -0.020663 0.000000 0.000000 0.000000
# 3 -0.000030 -0.020663 0.033095 0.000000 0.000000 0.000000
# 4 0.000000 0.000000 0.000000 0.056120 0.000000 0.000000
# 5 0.000000 0.000000 0.000000 0.000000 0.073253 0.000000
# 6 0.000000 0.000000 0.000000 0.000000 0.000000 0.057192
#
#
# Mechanical properties :
#
#
# Convention : Reuss Voigt Hill
#
# Bulk Modulus (GPa) = 48.87075 52.92084 50.89580
# Shear Modulus (GPa) = 14.61704 16.70188 15.65946
#
# Velocity S-wave (km/s) = 3.20374 3.42460 3.31601
# Velocity P-wave (km/s) = 6.92833 7.26620 7.09927
#
# Compressibility (1/GPa) = 0.02046214
#
# Stress axis : x y z
#
# Youngs Moduli (GPa) = 66.18878 27.49644 30.21564
#
# Poissons Ratio (x) = 0.31243 0.00089
# Poissons Ratio (y) = 0.75208 0.62434
# Poissons Ratio (z) = 0.00195 0.56816
#
# Static dielectric constant tensor:
#      x y z
#    x 3.306930 0.000000 0.000000 
#    y 0.000000 2.475170 0.000000 
#    z 0.000000 0.000000 2.714780 
# 
# 
# High freq. dielectric constant tensor:
#      x y z
#    x 1.573280 0.000000 0.000000 
#    y 0.000000 1.486470 0.000000 
#    z 0.000000 0.000000 1.530770 
# 
# From -- ./inp_files/43166.got.cif
#   From: 2010.03.12/outbox.cif.g09.slc.cpg/sg74_22_cif.got.tgz:43166.got - 2010.04.16 15:46:19.
