data_PCOD8298695
_publ_section_title
;
Structure prediction by ZEFSAII (Michael W. Deem and Ramdas Pophale) SiO2 
 PCOD8298695
Probable space group: I M M A
;
_chemical_formula_sum "Si O2"
_cell_formula_units_Z 96
_cell_length_a 8.122286
_cell_length_b 27.000577
_cell_length_c 22.023104
_cell_angle_alpha 90.000000
_cell_angle_beta 90.000000
_cell_angle_gamma 90.000000
_cell_volume 4829.807844
_symmetry_space_group_name_H-M "I M M A"
_symmetry_group_IT_number 74
_symmetry_cell_setting 'orthorhombic'
loop_
_space_group_symop_operation_xyz
x,y,z
-x,1/2-y,z
x,-y,-z
-x,1/2+y,-z
-x,-y,-z
x,1/2+y,-z
-x,y,z
x,1/2-y,z
1/2+x,1/2+y,1/2+z
1/2-x,-y,1/2+z
1/2+x,1/2-y,1/2-z
1/2-x,y,1/2-z
1/2-x,1/2-y,1/2-z
1/2+x,y,1/2-z
1/2-x,1/2+y,1/2+z
1/2+x,-y,1/2+z
loop_
_atom_site_type_symbol
_atom_site_label
_atom_site_fract_x
_atom_site_fract_y
_atom_site_fract_z
Si Si1 0.685844 0.304414 0.137960
Si Si2 0.691526 0.806888 0.317110
Si Si3 0.814468 0.305913 0.009809
Si Si4 0.179362 0.399258 0.189944
Si Si5 0.816498 0.876794 0.417667
Si Si6 0.500000 0.050304 0.412198
Si Si7 0.500000 0.063464 0.551678
O O1 0.500000 0.304767 0.113375
O O2 0.723790 0.250000 0.167645
O O3 0.808098 0.313410 0.081851
O O4 0.709354 0.350302 0.182941
O O5 0.500000 0.819135 0.324831
O O6 0.728092 0.750000 0.334069
O O7 0.750000 0.818921 0.250000
O O8 0.797755 0.841878 0.359731
O O9 0.765544 0.250000 0.992413
O O10 0.000000 0.317528 0.987092
O O11 0.690155 0.342978 0.977522
O O12 0.250000 0.428177 0.250000
O O13 0.000000 0.379318 0.207271
O O14 0.161925 0.434066 0.128860
O O15 0.669029 0.916451 0.419155
O O16 0.000000 0.901542 0.415778
O O17 0.500000 0.075952 0.478925
O O18 0.500000 0.993115 0.428230
#
# Coordination Sequence:
#
# PCOD8298695 Si02
#       7
#    16  16  16  16  16   8   8
#     4  10  20  33  53  89 131 168 206 252 301 361
#     4  10  20  36  57  86 128 175 220 265 313 382
#     4  10  19  32  51  82 127 172 211 256 309 371
#     4  10  21  39  64  91 120 160 210 247 306 375
#     4  12  23  36  62  92 125 166 214 262 331 388
#     4   9  24  44  73  91 123 166 202 267 345 374
#     4  11  22  48  69  95 131 153 210 285 331 397
#
# _framework density 19.876567999999999
#
# number of rings (size 3 to 8) (size 9 to 14) (size 15 to 20)
#    0.500    1.167    1.667    3.500    0.000    5.333 
#    0.000    5.000    0.000    0.000    0.000    0.000 
#    0.000    0.000    0.000    0.000    0.000    0.000 
#
# Total GULP energy -594740.277890 kJ/mol
# GULP energy per Si atom -12390.422456 kJ/mol
# Density = 1.983133 g / cm^3
# Si number density = 19.876568 Si / 1000 Ang^3
#
#
#
# Elastic Constant Matrix: (Units=GPa)
#
#
# Indices 1 2 3 4 5 6 
#
# 1 103.8420 30.6240 28.1343 0.0000 0.0000 0.0000
# 2 30.6240 71.4926 38.2039 0.0000 0.0000 0.0000
# 3 28.1343 38.2039 97.6748 -0.0001 0.0000 -0.0001
# 4 0.0000 0.0000 -0.0001 18.7730 0.0000 0.0000
# 5 0.0000 0.0000 0.0000 0.0000 33.0443 0.0000
# 6 0.0000 0.0000 -0.0001 0.0000 0.0000 59.4409
#
#
#
# Elastic Compliance Matrix: (Units=1/GPa)
#
#
# Indices 1 2 3 4 5 6 
#
# 1 0.011245 -0.003901 -0.001713 0.000000 0.000000 0.000000
# 2 -0.003901 0.019037 -0.006322 0.000000 0.000000 0.000000
# 3 -0.001713 -0.006322 0.013204 0.000000 0.000000 0.000000
# 4 0.000000 0.000000 0.000000 0.053268 0.000000 0.000000
# 5 0.000000 0.000000 0.000000 0.000000 0.030262 0.000000
# 6 0.000000 0.000000 0.000000 0.000000 0.000000 0.016823
#
#
# Mechanical properties :
#
#
# Convention : Reuss Voigt Hill
#
# Bulk Modulus (GPa) = 50.98692 51.88154 51.43423
# Shear Modulus (GPa) = 28.69429 33.98812 31.34121
#
# Velocity S-wave (km/s) = 3.80363 4.13965 3.97519
# Velocity P-wave (km/s) = 6.70802 7.00053 6.85584
#
# Compressibility (1/GPa) = 0.01961287
#
# Stress axis : x y z
#
# Youngs Moduli (GPa) = 88.93116 52.52911 75.73270
#
# Poissons Ratio (x) = 0.20493 0.12973
# Poissons Ratio (y) = 0.34695 0.47881
# Poissons Ratio (z) = 0.15234 0.33210
#
# Static dielectric constant tensor:
#      x y z
#    x 3.565460 0.000000 0.000000 
#    y 0.000000 3.351200 0.000000 
#    z 0.000000 0.000000 3.625030 
# 
# 
# High freq. dielectric constant tensor:
#      x y z
#    x 1.775080 0.000000 0.000000 
#    y 0.000000 1.747070 0.000000 
#    z 0.000000 0.000000 1.777900 
# 
# From -- ./inp_files/57540.got.cif
#   From: 2010.03.12/outbox.cif.g09.slc.cpg/sg74_29_cif.got.tgz:57540.got - 2010.04.16 15:46:19.
