data_PCOD8298144
_publ_section_title
;
Structure prediction by ZEFSAII (Michael W. Deem and Ramdas Pophale) SiO2 
 PCOD8298144
Probable space group: I M M A
;
_chemical_formula_sum "Si O2"
_cell_formula_units_Z 80
_cell_length_a 7.620268
_cell_length_b 26.339712
_cell_length_c 28.439613
_cell_angle_alpha 90.000000
_cell_angle_beta 90.000000
_cell_angle_gamma 90.000000
_cell_volume 5708.275821
_symmetry_space_group_name_H-M "I M M A"
_symmetry_group_IT_number 74
_symmetry_cell_setting 'orthorhombic'
loop_
_space_group_symop_operation_xyz
x,y,z
-x,1/2-y,z
x,-y,-z
-x,1/2+y,-z
-x,-y,-z
x,1/2+y,-z
-x,y,z
x,1/2-y,z
1/2+x,1/2+y,1/2+z
1/2-x,-y,1/2+z
1/2+x,1/2-y,1/2-z
1/2-x,y,1/2-z
1/2-x,1/2-y,1/2-z
1/2+x,y,1/2-z
1/2-x,1/2+y,1/2+z
1/2+x,-y,1/2+z
loop_
_atom_site_type_symbol
_atom_site_label
_atom_site_fract_x
_atom_site_fract_y
_atom_site_fract_z
Si Si1 0.792981 0.250000 0.944655
Si Si2 0.204802 0.144567 0.802324
Si Si3 0.000000 0.013363 0.575515
Si Si4 0.300208 0.142130 0.521740
Si Si5 0.000000 0.419556 0.482908
Si Si6 0.289967 0.250000 0.660662
Si Si7 0.799424 0.575648 0.114113
O O1 0.733697 0.299933 0.973087
O O2 0.713220 0.250000 0.892219
O O3 0.000000 0.250000 0.938837
O O4 0.250000 0.126526 0.750000
O O5 0.285959 0.200254 0.812696
O O6 0.275113 0.102606 0.838883
O O7 0.000000 0.148248 0.810816
O O8 0.824124 0.027195 0.604399
O O9 0.000000 0.043966 0.527369
O O10 0.000000 0.953151 0.564600
O O11 0.500000 0.138945 0.502998
O O12 0.175060 0.114862 0.483892
O O13 0.285205 0.116667 0.572722
O O14 0.500000 0.250000 0.660776
O O15 0.000000 0.556318 0.119466
#
# Coordination Sequence:
#
# PCOD8298144 Si02
#       7
#     8  16   8  16   8   8  16
#     4   9  14  24  42  58  75 108 138 165 195 243
#     4  10  19  28  40  55  76 102 133 174 213 252
#     4   9  18  30  44  56  78  94 122 168 212 257
#     4   9  16  27  43  58  78 103 130 159 200 239
#     4   9  18  29  40  62  78  93 122 169 210 248
#     4   9  15  27  41  53  73 102 138 170 208 249
#     4   9  17  29  43  57  72 101 132 162 207 251
#
# _framework density 14.01474
#
# number of rings (size 3 to 8) (size 9 to 14) (size 15 to 20)
#    0.000    2.800    2.000    0.300    1.400    1.200 
#    0.000    4.000    2.200    0.000    0.000    0.000 
#    0.000    0.000    0.000    0.000    0.000    0.000 
#
# Total GULP energy -495838.784519 kJ/mol
# GULP energy per Si atom -12395.969613 kJ/mol
# Density = 1.398284 g / cm^3
# Si number density = 14.014740 Si / 1000 Ang^3
#
#
#
# Elastic Constant Matrix: (Units=GPa)
#
#
# Indices 1 2 3 4 5 6 
#
# 1 65.1247 38.9085 28.4079 0.0000 0.0000 0.0000
# 2 38.9085 83.9763 50.4829 0.0000 0.0000 0.0000
# 3 28.4079 50.4829 55.3874 0.0000 0.0000 0.0000
# 4 0.0000 0.0000 0.0000 8.4482 0.0000 0.0000
# 5 0.0000 0.0000 0.0000 0.0000 13.9414 0.0000
# 6 0.0000 0.0000 0.0000 0.0000 0.0000 15.2101
#
#
#
# Elastic Compliance Matrix: (Units=1/GPa)
#
#
# Indices 1 2 3 4 5 6 
#
# 1 0.021696 -0.007439 -0.004348 0.000000 0.000000 0.000000
# 2 -0.007439 0.028891 -0.022518 0.000000 0.000000 0.000000
# 3 -0.004348 -0.022518 0.040808 0.000000 0.000000 0.000000
# 4 0.000000 0.000000 0.000000 0.118368 0.000000 0.000000
# 5 0.000000 0.000000 0.000000 0.000000 0.071729 0.000000
# 6 0.000000 0.000000 0.000000 0.000000 0.000000 0.065746
#
#
# Mechanical properties :
#
#
# Convention : Reuss Voigt Hill
#
# Bulk Modulus (GPa) = 43.88410 48.89855 46.39132
# Shear Modulus (GPa) = 11.80800 13.29923 12.55361
#
# Velocity S-wave (km/s) = 2.90581 3.08384 2.99614
# Velocity P-wave (km/s) = 6.52986 6.90265 6.71884
#
# Compressibility (1/GPa) = 0.02278730
#
# Stress axis : x y z
#
# Youngs Moduli (GPa) = 46.09172 34.61248 24.50476
#
# Poissons Ratio (x) = 0.25747 0.10654
# Poissons Ratio (y) = 0.34286 0.55179
# Poissons Ratio (z) = 0.20040 0.77940
#
# Static dielectric constant tensor:
#      x y z
#    x 2.797820 0.000000 0.000000 
#    y 0.000000 2.803930 0.000000 
#    z 0.000000 0.000000 2.721960 
# 
# 
# High freq. dielectric constant tensor:
#      x y z
#    x 1.541360 0.000000 0.000000 
#    y 0.000000 1.509370 0.000000 
#    z 0.000000 0.000000 1.485940 
# 
# From -- ./inp_files/46545.got.cif
#   From: 2010.03.12/outbox.cif.g09.slc.cpg/sg74_24_cif.got.tgz:46545.got - 2010.04.16 15:46:19.
