data_PCOD8298463
_publ_section_title
;
Structure prediction by ZEFSAII (Michael W. Deem and Ramdas Pophale) SiO2 
 PCOD8298463
Probable space group: I M M A
;
_chemical_formula_sum "Si O2"
_cell_formula_units_Z 80
_cell_length_a 27.413492
_cell_length_b 9.000340
_cell_length_c 18.070410
_cell_angle_alpha 90.000000
_cell_angle_beta 90.000000
_cell_angle_gamma 90.000000
_cell_volume 4458.525787
_symmetry_space_group_name_H-M "I M M A"
_symmetry_group_IT_number 74
_symmetry_cell_setting 'orthorhombic'
loop_
_space_group_symop_operation_xyz
x,y,z
-x,1/2-y,z
x,-y,-z
-x,1/2+y,-z
-x,-y,-z
x,1/2+y,-z
-x,y,z
x,1/2-y,z
1/2+x,1/2+y,1/2+z
1/2-x,-y,1/2+z
1/2+x,1/2-y,1/2-z
1/2-x,y,1/2-z
1/2-x,1/2-y,1/2-z
1/2+x,y,1/2-z
1/2-x,1/2+y,1/2+z
1/2+x,-y,1/2+z
loop_
_atom_site_type_symbol
_atom_site_label
_atom_site_fract_x
_atom_site_fract_y
_atom_site_fract_z
Si Si1 0.791072 0.924788 0.423466
Si Si2 0.555216 0.079003 0.279721
Si Si3 0.588883 0.577101 0.424930
Si Si4 0.142096 0.575130 0.287649
Si Si5 0.191299 0.421544 0.859347
O O1 0.786007 0.750000 0.436529
O O2 0.833886 0.962335 0.365893
O O3 0.740254 0.995271 0.392741
O O4 0.805754 0.000000 0.500000
O O5 0.500000 0.062937 0.250775
O O6 0.569661 0.250000 0.291940
O O7 0.559942 0.994476 0.357321
O O8 0.590201 0.007415 0.217569
O O9 0.571233 0.500000 0.500000
O O10 0.575733 0.750000 0.428166
O O11 0.646822 0.551654 0.415554
O O12 0.132853 0.750000 0.276464
O O13 0.177203 0.514519 0.221615
O O14 0.203547 0.250000 0.848200
#
# Coordination Sequence:
#
# PCOD8298463 Si02
#       5
#    16  16  16  16  16
#     4  10  19  31  49  74 104 134 163 197 239 288
#     4  10  21  36  53  72  94 123 161 207 256 300
#     4  10  19  31  49  73 103 137 169 202 238 280
#     4   9  18  33  53  74  97 129 166 203 242 287
#     4   8  15  29  49  72  99 133 169 199 231 277
#
# _framework density 17.943149999999999
#
# number of rings (size 3 to 8) (size 9 to 14) (size 15 to 20)
#    0.000    2.600    0.000    3.600    0.000    5.200 
#    0.000    4.000    0.000    6.600    0.000    0.000 
#    0.000    0.000    0.000    0.000    0.000    0.000 
#
# Total GULP energy -495967.693914 kJ/mol
# GULP energy per Si atom -12399.192348 kJ/mol
# Density = 1.790231 g / cm^3
# Si number density = 17.943150 Si / 1000 Ang^3
#
#
#
# Elastic Constant Matrix: (Units=GPa)
#
#
# Indices 1 2 3 4 5 6 
#
# 1 101.4252 44.9593 48.5039 0.0000 0.0000 0.0000
# 2 44.9593 72.5304 39.4058 0.0000 0.0000 0.0000
# 3 48.5039 39.4058 104.7275 0.0000 0.0000 0.0000
# 4 0.0000 0.0000 0.0000 30.3978 0.0000 0.0000
# 5 0.0000 0.0000 0.0000 0.0000 13.9791 0.0000
# 6 0.0000 0.0000 0.0000 0.0000 0.0000 23.8199
#
#
#
# Elastic Compliance Matrix: (Units=1/GPa)
#
#
# Indices 1 2 3 4 5 6 
#
# 1 0.015015 -0.006950 -0.004339 0.000000 0.000000 0.000000
# 2 -0.006950 0.020547 -0.004512 0.000000 0.000000 0.000000
# 3 -0.004339 -0.004512 0.013256 0.000000 0.000000 0.000000
# 4 0.000000 0.000000 0.000000 0.032897 0.000000 0.000000
# 5 0.000000 0.000000 0.000000 0.000000 0.071535 0.000000
# 6 0.000000 0.000000 0.000000 0.000000 0.000000 0.041982
#
#
# Mechanical properties :
#
#
# Convention : Reuss Voigt Hill
#
# Bulk Modulus (GPa) = 58.08780 60.49123 59.28951
# Shear Modulus (GPa) = 21.49851 23.36031 22.42941
#
# Velocity S-wave (km/s) = 3.46518 3.61211 3.53941
# Velocity P-wave (km/s) = 6.96085 7.15418 7.05818
#
# Compressibility (1/GPa) = 0.01721532
#
# Stress axis : x y z
#
# Youngs Moduli (GPa) = 66.59845 48.66897 75.43698
#
# Poissons Ratio (x) = 0.33825 0.32733
# Poissons Ratio (y) = 0.46286 0.34040
# Poissons Ratio (z) = 0.28898 0.21961
#
# Static dielectric constant tensor:
#      x y z
#    x 3.308600 0.000000 0.000000 
#    y 0.000000 3.171420 0.000000 
#    z 0.000000 0.000000 3.171610 
# 
# 
# High freq. dielectric constant tensor:
#      x y z
#    x 1.689990 0.000000 0.000000 
#    y 0.000000 1.678550 0.000000 
#    z 0.000000 0.000000 1.680130 
# 
# From -- ./inp_files/39723.got.cif
#   From: 2010.03.12/outbox.cif.g09.slc.cpg/sg74_20_cif.got.tgz:39723.got - 2010.04.16 15:46:19.
