data_PCOD8298217
_publ_section_title
;
Structure prediction by ZEFSAII (Michael W. Deem and Ramdas Pophale) SiO2 
 PCOD8298217
Probable space group: I M M A
;
_chemical_formula_sum "Si O2"
_cell_formula_units_Z 96
_cell_length_a 23.115123
_cell_length_b 9.661563
_cell_length_c 32.334570
_cell_angle_alpha 90.000000
_cell_angle_beta 90.000000
_cell_angle_gamma 90.000000
_cell_volume 7221.221869
_symmetry_space_group_name_H-M "I M M A"
_symmetry_group_IT_number 74
_symmetry_cell_setting 'orthorhombic'
loop_
_space_group_symop_operation_xyz
x,y,z
-x,1/2-y,z
x,-y,-z
-x,1/2+y,-z
-x,-y,-z
x,1/2+y,-z
-x,y,z
x,1/2-y,z
1/2+x,1/2+y,1/2+z
1/2-x,-y,1/2+z
1/2+x,1/2-y,1/2-z
1/2-x,y,1/2-z
1/2-x,1/2-y,1/2-z
1/2+x,y,1/2-z
1/2-x,1/2+y,1/2+z
1/2+x,-y,1/2+z
loop_
_atom_site_type_symbol
_atom_site_label
_atom_site_fract_x
_atom_site_fract_y
_atom_site_fract_z
Si Si1 0.283850 0.092709 0.792665
Si Si2 0.394616 0.001449 0.400288
Si Si3 0.000000 0.416422 0.846395
Si Si4 0.433341 0.750000 0.547357
Si Si5 0.068903 0.250000 0.949695
Si Si6 0.000000 0.905176 0.768502
Si Si7 0.189494 0.912549 0.831674
Si Si8 0.373365 0.405815 0.246375
O O1 0.293967 0.250000 0.808984
O O2 0.250000 0.096965 0.750000
O O3 0.247648 0.001517 0.825163
O O4 0.344752 0.015581 0.784918
O O5 0.402696 0.121457 0.432751
O O6 0.336650 0.027384 0.374188
O O7 0.444992 0.984523 0.367322
O O8 0.394216 0.872797 0.430671
O O9 0.000000 0.250000 0.848219
O O10 0.000000 0.467484 0.799725
O O11 0.500000 0.750000 0.559436
O O12 0.425346 0.750000 0.498480
O O13 0.000000 0.250000 0.936619
O O14 0.057592 0.920366 0.740856
O O15 0.000000 0.750000 0.789316
O O16 0.204363 0.750000 0.836309
O O17 0.144783 0.936154 0.793905
O O18 0.352953 0.250000 0.234710
#
# Coordination Sequence:
#
# PCOD8298217 Si02
#       8
#    16  16   8   8   8   8  16  16
#     4   9  18  30  43  59  81 106 130 163 209 251
#     4  12  20  32  45  62  79 103 138 178 217 261
#     4  12  22  30  39  62  85 105 132 180 224 251
#     4  11  22  32  50  58  77 108 140 173 214 267
#     4  11  22  36  42  60  83 108 134 171 224 267
#     4  10  20  30  46  63  85 113 141 169 207 251
#     4  10  19  29  45  62  77 103 136 174 211 244
#     4   9  17  29  43  61  84 106 135 167 201 246
#
# _framework density 13.294149000000001
#
# number of rings (size 3 to 8) (size 9 to 14) (size 15 to 20)
#    0.000    1.667    5.000    1.000    2.333    4.000 
#    0.000    0.000    0.000    0.000    0.000    0.000 
#    0.000    0.000    0.000    0.000    0.000    0.000 
#
# Total GULP energy -594885.213088 kJ/mol
# GULP energy per Si atom -12393.441939 kJ/mol
# Density = 1.326389 g / cm^3
# Si number density = 13.294149 Si / 1000 Ang^3
#
#
#
# Elastic Constant Matrix: (Units=GPa)
#
#
# Indices 1 2 3 4 5 6 
#
# 1 71.2554 45.2062 35.2288 0.0000 0.0000 0.0000
# 2 45.2062 115.2439 43.1785 0.0000 0.0000 0.0000
# 3 35.2288 43.1785 55.8828 0.0000 0.0000 0.0000
# 4 0.0000 0.0000 0.0000 36.7041 0.0000 0.0000
# 5 0.0000 0.0000 0.0000 0.0000 23.2339 0.0000
# 6 0.0000 0.0000 0.0000 0.0000 0.0000 20.1578
#
#
#
# Elastic Compliance Matrix: (Units=1/GPa)
#
#
# Indices 1 2 3 4 5 6 
#
# 1 0.022175 -0.004871 -0.010216 0.000000 0.000000 0.000000
# 2 -0.004871 0.013283 -0.007192 0.000000 0.000000 0.000000
# 3 -0.010216 -0.007192 0.029892 0.000000 0.000000 0.000000
# 4 0.000000 0.000000 0.000000 0.027245 0.000000 0.000000
# 5 0.000000 0.000000 0.000000 0.000000 0.043041 0.000000
# 6 0.000000 0.000000 0.000000 0.000000 0.000000 0.049609
#
#
# Mechanical properties :
#
#
# Convention : Reuss Voigt Hill
#
# Bulk Modulus (GPa) = 48.09628 54.40102 51.24865
# Shear Modulus (GPa) = 21.12093 23.93704 22.52899
#
# Velocity S-wave (km/s) = 3.99022 4.24792 4.12108
# Velocity P-wave (km/s) = 7.58197 8.06657 7.82802
#
# Compressibility (1/GPa) = 0.02079163
#
# Stress axis : x y z
#
# Youngs Moduli (GPa) = 45.09606 75.28560 33.45399
#
# Poissons Ratio (x) = 0.36672 0.34175
# Poissons Ratio (y) = 0.21966 0.24061
# Poissons Ratio (z) = 0.46068 0.54148
#
# Static dielectric constant tensor:
#      x y z
#    x 2.540460 0.000000 0.000000 
#    y 0.000000 2.902090 0.000000 
#    z 0.000000 0.000000 2.420810 
# 
# 
# High freq. dielectric constant tensor:
#      x y z
#    x 1.479640 0.000000 0.000000 
#    y 0.000000 1.528240 0.000000 
#    z 0.000000 0.000000 1.467300 
# 
# From -- ./inp_files/68622.got.cif
#   From: 2010.03.12/outbox.cif.g09.slc.cpg/sg74_35_cif.got.tgz:68622.got - 2010.04.16 15:46:19.
