data_PCOD8298196
_publ_section_title
;
Structure prediction by ZEFSAII (Michael W. Deem and Ramdas Pophale) SiO2 
 PCOD8298196
Probable space group: I M M A
;
_chemical_formula_sum "Si O2"
_cell_formula_units_Z 80
_cell_length_a 14.741230
_cell_length_b 13.886880
_cell_length_c 26.906764
_cell_angle_alpha 90.000000
_cell_angle_beta 90.000000
_cell_angle_gamma 90.000000
_cell_volume 5508.075373
_symmetry_space_group_name_H-M "I M M A"
_symmetry_group_IT_number 74
_symmetry_cell_setting 'orthorhombic'
loop_
_space_group_symop_operation_xyz
x,y,z
-x,1/2-y,z
x,-y,-z
-x,1/2+y,-z
-x,-y,-z
x,1/2+y,-z
-x,y,z
x,1/2-y,z
1/2+x,1/2+y,1/2+z
1/2-x,-y,1/2+z
1/2+x,1/2-y,1/2-z
1/2-x,y,1/2-z
1/2-x,1/2-y,1/2-z
1/2+x,y,1/2-z
1/2-x,1/2+y,1/2+z
1/2+x,-y,1/2+z
loop_
_atom_site_type_symbol
_atom_site_label
_atom_site_fract_x
_atom_site_fract_y
_atom_site_fract_z
Si Si1 0.500000 0.856529 0.834024
Si Si2 0.826734 0.545650 0.622276
Si Si3 0.198058 0.365158 0.199148
Si Si4 0.894225 0.640834 0.416334
Si Si5 0.000000 0.355497 0.217554
Si Si6 0.602495 0.863083 0.970687
O O1 0.500000 0.750000 0.859060
O O2 0.411311 0.912998 0.848484
O O3 0.500000 0.844515 0.775912
O O4 0.737920 0.577539 0.652083
O O5 0.835774 0.429390 0.619181
O O6 0.825683 0.587641 0.566244
O O7 0.204448 0.250000 0.190898
O O8 0.250000 0.392810 0.250000
O O9 0.094368 0.405124 0.201042
O O10 0.858639 0.750000 0.409475
O O11 0.881149 0.603204 0.472824
O O12 0.000000 0.635287 0.402169
O O13 0.000000 0.250000 0.193121
O O14 0.500000 0.891372 0.953640
O O15 0.615967 0.750000 0.968427
#
# Coordination Sequence:
#
# PCOD8298196 Si02
#       6
#     8  16  16  16   8  16
#     4  11  18  24  40  66  92 113 138 172 209 254
#     4  12  18  25  43  66  86 119 151 174 205 255
#     4  10  19  29  43  65  91 115 142 173 212 262
#     4   9  18  30  40  58  89 121 149 179 216 253
#     4   9  18  32  42  58  93 121 135 170 216 256
#     4   9  16  25  39  61  91 117 139 173 215 260
#
# _framework density 14.52413
#
# number of rings (size 3 to 8) (size 9 to 14) (size 15 to 20)
#    0.000    2.000    4.000    3.600    0.000    1.600 
#    0.000    0.000    0.000    0.600    0.000    3.500 
#    0.000    3.200    0.000    0.000    0.000    0.000 
#
# Total GULP energy -495743.577483 kJ/mol
# GULP energy per Si atom -12393.589437 kJ/mol
# Density = 1.449107 g / cm^3
# Si number density = 14.524130 Si / 1000 Ang^3
#
#
#
# Elastic Constant Matrix: (Units=GPa)
#
#
# Indices 1 2 3 4 5 6 
#
# 1 93.0205 32.7754 37.0713 0.0000 0.0000 0.0000
# 2 32.7754 53.2917 40.4815 0.0000 0.0000 0.0000
# 3 37.0713 40.4815 54.7907 0.0000 0.0000 0.0000
# 4 0.0000 0.0000 0.0000 20.5748 0.0000 0.0000
# 5 0.0000 0.0000 0.0000 0.0000 42.4009 0.0000
# 6 0.0000 0.0000 0.0000 0.0000 0.0000 41.5010
#
#
#
# Elastic Compliance Matrix: (Units=1/GPa)
#
#
# Indices 1 2 3 4 5 6 
#
# 1 0.014993 -0.003453 -0.007593 0.000000 0.000000 0.000000
# 2 -0.003453 0.043563 -0.029849 0.000000 0.000000 0.000000
# 3 -0.007593 -0.029849 0.045442 0.000000 0.000000 0.000000
# 4 0.000000 0.000000 0.000000 0.048603 0.000000 0.000000
# 5 0.000000 0.000000 0.000000 0.000000 0.023584 0.000000
# 6 0.000000 0.000000 0.000000 0.000000 0.000000 0.024096
#
#
# Mechanical properties :
#
#
# Convention : Reuss Voigt Hill
#
# Bulk Modulus (GPa) = 45.03040 46.86216 45.94628
# Shear Modulus (GPa) = 17.27269 26.94700 22.10984
#
# Velocity S-wave (km/s) = 3.45228 4.31202 3.90588
# Velocity P-wave (km/s) = 6.85289 7.55821 7.21417
#
# Compressibility (1/GPa) = 0.02220722
#
# Stress axis : x y z
#
# Youngs Moduli (GPa) = 66.69766 22.95547 22.00591
#
# Poissons Ratio (x) = 0.07927 0.16709
# Poissons Ratio (y) = 0.23033 0.65686
# Poissons Ratio (z) = 0.50642 0.68520
#
# Static dielectric constant tensor:
#      x y z
#    x 2.194250 0.000000 0.000000 
#    y 0.000000 2.791780 0.000000 
#    z 0.000000 0.000000 2.831630 
# 
# 
# High freq. dielectric constant tensor:
#      x y z
#    x 1.515360 0.000000 0.000000 
#    y 0.000000 1.544520 0.000000 
#    z 0.000000 0.000000 1.549060 
# 
# From -- ./inp_files/60900.got.cif
#   From: 2010.03.12/outbox.cif.g09.slc.cpg/sg74_31_cif.got.tgz:60900.got - 2010.04.16 15:46:19.
