data_PCOD8298510
_publ_section_title
;
Structure prediction by ZEFSAII (Michael W. Deem and Ramdas Pophale) SiO2 
 PCOD8298510
Probable space group: I M M A
;
_chemical_formula_sum "Si O2"
_cell_formula_units_Z 56
_cell_length_a 14.500800
_cell_length_b 24.466901
_cell_length_c 8.444919
_cell_angle_alpha 90.000000
_cell_angle_beta 90.000000
_cell_angle_gamma 90.000000
_cell_volume 2996.169755
_symmetry_space_group_name_H-M "I M M A"
_symmetry_group_IT_number 74
_symmetry_cell_setting 'orthorhombic'
loop_
_space_group_symop_operation_xyz
x,y,z
-x,1/2-y,z
x,-y,-z
-x,1/2+y,-z
-x,-y,-z
x,1/2+y,-z
-x,y,z
x,1/2-y,z
1/2+x,1/2+y,1/2+z
1/2-x,-y,1/2+z
1/2+x,1/2-y,1/2-z
1/2-x,y,1/2-z
1/2-x,1/2-y,1/2-z
1/2+x,y,1/2-z
1/2-x,1/2+y,1/2+z
1/2+x,-y,1/2+z
loop_
_atom_site_type_symbol
_atom_site_label
_atom_site_fract_x
_atom_site_fract_y
_atom_site_fract_z
Si Si1 0.313140 0.810867 0.120063
Si Si2 0.500000 0.183487 0.395025
Si Si3 0.000000 0.064264 0.488054
Si Si4 0.154003 0.373357 0.313454
Si Si5 0.000000 0.846072 0.254165
O O1 0.274574 0.750000 0.103678
O O2 0.250000 0.842708 0.250000
O O3 0.416068 0.810912 0.183125
O O4 0.305354 0.834866 0.947656
O O5 0.500000 0.250000 0.408410
O O6 0.592783 0.163166 0.306810
O O7 0.500000 0.152446 0.564057
O O8 0.091017 0.079633 0.388909
O O9 0.000000 0.093539 0.661731
O O10 0.000000 0.000000 0.500000
O O11 0.250000 0.399683 0.250000
#
# Coordination Sequence:
#
# PCOD8298510 Si02
#       5
#    16   8   8  16   8
#     4  10  19  31  50  76 109 148 183 218 267 332
#     4  11  21  33  54  84 120 155 181 219 280 348
#     4   9  21  43  62  76 104 145 189 241 290 328
#     4  10  21  36  54  81 112 143 186 236 284 337
#     4  10  20  34  53  76 106 140 184 226 267 330
#
# _framework density 18.690529000000002
#
# number of rings (size 3 to 8) (size 9 to 14) (size 15 to 20)
#    0.000    2.000    0.000    4.714    0.000    4.571 
#    0.000   11.429    0.000    0.000    0.000    0.000 
#    0.000    0.000    0.000    0.000    0.000    0.000 
#
# Total GULP energy -346915.455900 kJ/mol
# GULP energy per Si atom -12389.837711 kJ/mol
# Density = 1.864799 g / cm^3
# Si number density = 18.690529 Si / 1000 Ang^3
#
#
#
# Elastic Constant Matrix: (Units=GPa)
#
#
# Indices 1 2 3 4 5 6 
#
# 1 133.0295 35.3257 44.8110 -0.0003 0.0002 0.0001
# 2 35.3257 116.6575 50.6322 -0.0003 -0.0002 -0.0001
# 3 44.8110 50.6322 136.5590 -0.0024 -0.0014 -0.0007
# 4 -0.0003 -0.0003 -0.0024 14.6229 -0.0008 -0.0004
# 5 0.0002 -0.0002 -0.0014 -0.0008 44.6369 0.0000
# 6 0.0001 -0.0001 -0.0007 -0.0004 0.0000 12.7478
#
#
#
# Elastic Compliance Matrix: (Units=1/GPa)
#
#
# Indices 1 2 3 4 5 6 
#
# 1 0.008715 -0.001666 -0.002242 0.000000 0.000000 0.000000
# 2 -0.001666 0.010535 -0.003359 0.000000 0.000000 0.000000
# 3 -0.002242 -0.003359 0.009304 0.000001 0.000000 0.000000
# 4 0.000000 0.000000 0.000001 0.068386 0.000001 0.000002
# 5 0.000000 0.000000 0.000000 0.000001 0.022403 0.000000
# 6 0.000000 0.000000 0.000000 0.000002 0.000000 0.078445
#
#
# Mechanical properties :
#
#
# Convention : Reuss Voigt Hill
#
# Bulk Modulus (GPa) = 71.33161 71.97598 71.65379
# Shear Modulus (GPa) = 23.04207 31.43332 27.23770
#
# Velocity S-wave (km/s) = 3.51496 4.10540 3.82160
# Velocity P-wave (km/s) = 7.39735 7.81443 7.60875
#
# Compressibility (1/GPa) = 0.01401903
#
# Stress axis : x y z
#
# Youngs Moduli (GPa) = 114.74834 94.92572 107.47973
#
# Poissons Ratio (x) = 0.15813 0.24097
# Poissons Ratio (y) = 0.19115 0.36105
# Poissons Ratio (z) = 0.25727 0.31888
#
# Static dielectric constant tensor:
#      x y z
#    x 3.655010 0.000000 0.000000 
#    y 0.000000 2.963700 -0.000010 
#    z 0.000000 -0.000010 3.782650 
# 
# 
# High freq. dielectric constant tensor:
#      x y z
#    x 1.749930 0.000000 0.000000 
#    y 0.000000 1.679010 0.000000 
#    z 0.000000 0.000000 1.743910 
# 
# From -- ./inp_files/8489.got.cif
#   From: 2010.03.12/outbox.cif.g09.slc.cpg/sg74_5_cif.got.tgz:8489.got - 2010.04.16 15:46:19.
