data_PCOD8298874
_publ_section_title
;
Structure prediction by ZEFSAII (Michael W. Deem and Ramdas Pophale) SiO2 
 PCOD8298874
Probable space group: I M M A
;
_chemical_formula_sum "Si O2"
_cell_formula_units_Z 64
_cell_length_a 15.002290
_cell_length_b 13.996451
_cell_length_c 17.136398
_cell_angle_alpha 90.000000
_cell_angle_beta 90.000000
_cell_angle_gamma 90.000000
_cell_volume 3598.280578
_symmetry_space_group_name_H-M "I M M A"
_symmetry_group_IT_number 74
_symmetry_cell_setting 'orthorhombic'
loop_
_space_group_symop_operation_xyz
x,y,z
-x,1/2-y,z
x,-y,-z
-x,1/2+y,-z
-x,-y,-z
x,1/2+y,-z
-x,y,z
x,1/2-y,z
1/2+x,1/2+y,1/2+z
1/2-x,-y,1/2+z
1/2+x,1/2-y,1/2-z
1/2-x,y,1/2-z
1/2-x,1/2-y,1/2-z
1/2+x,y,1/2-z
1/2-x,1/2+y,1/2+z
1/2+x,-y,1/2+z
loop_
_atom_site_type_symbol
_atom_site_label
_atom_site_fract_x
_atom_site_fract_y
_atom_site_fract_z
Si Si1 0.279354 0.250000 0.589778
Si Si2 0.099893 0.887515 0.181409
Si Si3 0.839415 0.594146 0.792884
Si Si4 0.101000 0.250000 0.679988
Si Si5 0.774869 0.250000 0.093365
Si Si6 0.903310 0.250000 0.321063
O O1 0.327968 0.155562 0.622045
O O2 0.174502 0.250000 0.611722
O O3 0.289887 0.250000 0.497798
O O4 0.116698 0.844121 0.267352
O O5 0.000000 0.859576 0.153904
O O6 0.106133 0.001353 0.182460
O O7 0.750000 0.560575 0.750000
O O8 0.818829 0.655533 0.870058
O O9 0.896143 0.656850 0.732975
O O10 0.000000 0.250000 0.644864
O O11 0.669659 0.250000 0.111265
O O12 0.000000 0.250000 0.361648
#
# Coordination Sequence:
#
# PCOD8298874 Si02
#       6
#     8  16  16   8   8   8
#     4  11  20  34  49  71 107 137 155 197 248 294
#     4  10  19  33  53  75  95 126 170 209 243 285
#     4   9  17  33  53  72  95 127 163 203 245 286
#     4   9  19  33  53  77  96 123 169 208 242 289
#     4   9  21  33  47  72 104 133 162 192 243 304
#     4   9  17  32  53  76  96 121 163 211 246 285
#
# _framework density 17.786272
#
# number of rings (size 3 to 8) (size 9 to 14) (size 15 to 20)
#    0.000    2.500    0.000    6.375    0.000    1.500 
#    0.000    8.750    0.000    0.000    0.000   14.000 
#    0.000    0.000    0.000    0.000    0.000    0.000 
#
# Total GULP energy -396743.741426 kJ/mol
# GULP energy per Si atom -12398.241920 kJ/mol
# Density = 1.774579 g / cm^3
# Si number density = 17.786272 Si / 1000 Ang^3
#
#
#
# Elastic Constant Matrix: (Units=GPa)
#
#
# Indices 1 2 3 4 5 6 
#
# 1 91.5152 20.8818 17.3266 0.0000 0.0000 0.0000
# 2 20.8818 115.7415 15.9815 0.0000 0.0000 0.0000
# 3 17.3266 15.9815 71.8362 0.0000 0.0000 0.0000
# 4 0.0000 0.0000 0.0000 8.6375 0.0000 0.0000
# 5 0.0000 0.0000 0.0000 0.0000 13.5804 0.0000
# 6 0.0000 0.0000 0.0000 0.0000 0.0000 16.5934
#
#
#
# Elastic Compliance Matrix: (Units=1/GPa)
#
#
# Indices 1 2 3 4 5 6 
#
# 1 0.011799 -0.001791 -0.002447 0.000000 0.000000 0.000000
# 2 -0.001791 0.009186 -0.001612 0.000000 0.000000 0.000000
# 3 -0.002447 -0.001612 0.014869 0.000000 0.000000 0.000000
# 4 0.000000 0.000000 0.000000 0.115774 0.000000 0.000000
# 5 0.000000 0.000000 0.000000 0.000000 0.073636 0.000000
# 6 0.000000 0.000000 0.000000 0.000000 0.000000 0.060265
#
#
# Mechanical properties :
#
#
# Convention : Reuss Voigt Hill
#
# Bulk Modulus (GPa) = 41.40046 43.05252 42.22649
# Shear Modulus (GPa) = 16.37837 22.75577 19.56707
#
# Velocity S-wave (km/s) = 3.03783 3.58075 3.32041
# Velocity P-wave (km/s) = 5.96923 6.43069 6.20425
#
# Compressibility (1/GPa) = 0.02415432
#
# Stress axis : x y z
#
# Youngs Moduli (GPa) = 84.75174 108.86640 67.25210
#
# Poissons Ratio (x) = 0.19496 0.16460
# Poissons Ratio (y) = 0.15178 0.10838
# Poissons Ratio (z) = 0.20743 0.17545
#
# Static dielectric constant tensor:
#      x y z
#    x 3.397090 0.000000 0.000000 
#    y 0.000000 3.275360 0.000000 
#    z 0.000000 0.000000 2.876680 
# 
# 
# High freq. dielectric constant tensor:
#      x y z
#    x 1.703010 0.000000 0.000000 
#    y 0.000000 1.693600 0.000000 
#    z 0.000000 0.000000 1.648800 
# 
# From -- ./inp_files/42453.got.cif
#   From: 2010.03.12/outbox.cif.g09.slc.cpg/sg74_22_cif.got.tgz:42453.got - 2010.04.16 15:46:19.
