data_PCOD8298968
_publ_section_title
;
Structure prediction by ZEFSAII (Michael W. Deem and Ramdas Pophale) SiO2 
 PCOD8298968
Probable space group: I M M A
;
_chemical_formula_sum "Si O2"
_cell_formula_units_Z 120
_cell_length_a 25.407563
_cell_length_b 9.059515
_cell_length_c 27.502062
_cell_angle_alpha 90.000000
_cell_angle_beta 90.000000
_cell_angle_gamma 90.000000
_cell_volume 6330.430080
_symmetry_space_group_name_H-M "I M M A"
_symmetry_group_IT_number 74
_symmetry_cell_setting 'orthorhombic'
loop_
_space_group_symop_operation_xyz
x,y,z
-x,1/2-y,z
x,-y,-z
-x,1/2+y,-z
-x,-y,-z
x,1/2+y,-z
-x,y,z
x,1/2-y,z
1/2+x,1/2+y,1/2+z
1/2-x,-y,1/2+z
1/2+x,1/2-y,1/2-z
1/2-x,y,1/2-z
1/2-x,1/2-y,1/2-z
1/2+x,y,1/2-z
1/2-x,1/2+y,1/2+z
1/2+x,-y,1/2+z
loop_
_atom_site_type_symbol
_atom_site_label
_atom_site_fract_x
_atom_site_fract_y
_atom_site_fract_z
Si Si1 0.441131 0.581794 0.140308
Si Si2 0.500000 0.076256 0.551766
Si Si3 0.154257 0.920478 0.294565
Si Si4 0.211746 0.576645 0.051420
Si Si5 0.605244 0.578246 0.393274
Si Si6 0.763283 0.581264 0.637845
Si Si7 0.845750 0.917750 0.806915
Si Si8 0.937228 0.584658 0.546483
O O1 0.500000 0.528001 0.153870
O O2 0.441978 0.750000 0.122247
O O3 0.405820 0.562214 0.187930
O O4 0.416610 0.488670 0.096000
O O5 0.500000 0.250000 0.542807
O O6 0.448585 0.026088 0.581524
O O7 0.500000 0.000000 0.500000
O O8 0.171913 0.750000 0.292345
O O9 0.190578 0.005707 0.332276
O O10 0.157277 0.988788 0.241711
O O11 0.222395 0.750000 0.046721
O O12 0.152804 0.543582 0.069964
O O13 0.254459 0.507535 0.087991
O O14 0.219297 0.500000 0.000000
O O15 0.603746 0.750000 0.379339
O O16 0.611576 0.487138 0.343535
O O17 0.778428 0.750000 0.625816
O O18 0.711437 0.574642 0.670096
O O19 0.862322 0.750000 0.795278
O O20 0.913662 0.500000 0.500000
O O21 0.915617 0.750000 0.544603
O O22 0.000000 0.578111 0.545479
#
# Coordination Sequence:
#
# PCOD8298968 Si02
#       8
#    16   8  16  16  16  16  16  16
#     4   9  19  36  54  74 103 137 173 210 253 311
#     4  10  20  34  54  82 116 154 194 236 281 328
#     4  11  22  36  57  82 107 139 178 222 273 326
#     4  10  19  33  55  82 113 148 185 224 274 332
#     4   9  19  35  54  79 111 149 191 233 275 327
#     4  10  21  37  57  81 109 140 177 224 274 325
#     4  10  21  37  57  80 107 140 180 226 277 327
#     4   9  16  27  47  73  98 127 163 204 248 293
#
# _framework density 18.956057000000001
#
# number of rings (size 3 to 8) (size 9 to 14) (size 15 to 20)
#    0.000    2.267    0.000    2.800    0.000    6.933 
#    1.200    0.667    0.000    3.200    0.000    0.000 
#    0.000    0.000    0.000    0.000    0.000    0.000 
#
# Total GULP energy -744140.770442 kJ/mol
# GULP energy per Si atom -12402.346174 kJ/mol
# Density = 1.891291 g / cm^3
# Si number density = 18.956057 Si / 1000 Ang^3
#
#
#
# Elastic Constant Matrix: (Units=GPa)
#
#
# Indices 1 2 3 4 5 6 
#
# 1 73.4789 40.5251 48.0156 0.0000 0.0000 0.0000
# 2 40.5251 128.2790 73.5492 0.0000 0.0000 0.0000
# 3 48.0156 73.5492 136.4084 0.0000 0.0000 0.0000
# 4 0.0000 0.0000 0.0000 42.4621 0.0000 0.0000
# 5 0.0000 0.0000 0.0000 0.0000 17.7064 0.0000
# 6 0.0000 0.0000 0.0000 0.0000 0.0000 21.6594
#
#
#
# Elastic Compliance Matrix: (Units=1/GPa)
#
#
# Indices 1 2 3 4 5 6 
#
# 1 0.018464 -0.003049 -0.004855 0.000000 0.000000 0.000000
# 2 -0.003049 0.011787 -0.005282 0.000000 0.000000 0.000000
# 3 -0.004855 -0.005282 0.011888 0.000000 0.000000 0.000000
# 4 0.000000 0.000000 0.000000 0.023550 0.000000 0.000000
# 5 0.000000 0.000000 0.000000 0.000000 0.056477 0.000000
# 6 0.000000 0.000000 0.000000 0.000000 0.000000 0.046169
#
#
# Mechanical properties :
#
#
# Convention : Reuss Voigt Hill
#
# Bulk Modulus (GPa) = 63.42788 73.59401 68.51094
# Shear Modulus (GPa) = 25.00450 28.10402 26.55426
#
# Velocity S-wave (km/s) = 3.63585 3.85462 3.74683
# Velocity P-wave (km/s) = 7.15255 7.66280 7.41207
#
# Compressibility (1/GPa) = 0.01576594
#
# Stress axis : x y z
#
# Youngs Moduli (GPa) = 54.16039 84.83632 84.11834
#
# Poissons Ratio (x) = 0.25869 0.40840
# Poissons Ratio (y) = 0.16515 0.44433
# Poissons Ratio (z) = 0.26295 0.44813
#
# Static dielectric constant tensor:
#      x y z
#    x 3.398050 0.000000 0.000000 
#    y 0.000000 3.659250 0.000000 
#    z 0.000000 0.000000 3.478280 
# 
# 
# High freq. dielectric constant tensor:
#      x y z
#    x 1.719810 0.000000 0.000000 
#    y 0.000000 1.748110 0.000000 
#    z 0.000000 0.000000 1.741190 
# 
# From -- ./inp_files/69019.got.cif
#   From: 2010.03.12/outbox.cif.g09.slc.cpg/sg74_35_cif.got.tgz:69019.got - 2010.04.16 15:46:19.
