data_PCOD8298450
_publ_section_title
;
Structure prediction by ZEFSAII (Michael W. Deem and Ramdas Pophale) SiO2 
 PCOD8298450
Probable space group: I M M A
;
_chemical_formula_sum "Si O2"
_cell_formula_units_Z 80
_cell_length_a 28.732524
_cell_length_b 9.132995
_cell_length_c 17.459492
_cell_angle_alpha 90.000000
_cell_angle_beta 90.000000
_cell_angle_gamma 90.000000
_cell_volume 4581.615099
_symmetry_space_group_name_H-M "I M M A"
_symmetry_group_IT_number 74
_symmetry_cell_setting 'orthorhombic'
loop_
_space_group_symop_operation_xyz
x,y,z
-x,1/2-y,z
x,-y,-z
-x,1/2+y,-z
-x,-y,-z
x,1/2+y,-z
-x,y,z
x,1/2-y,z
1/2+x,1/2+y,1/2+z
1/2-x,-y,1/2+z
1/2+x,1/2-y,1/2-z
1/2-x,y,1/2-z
1/2-x,1/2-y,1/2-z
1/2+x,y,1/2-z
1/2-x,1/2+y,1/2+z
1/2+x,-y,1/2+z
loop_
_atom_site_type_symbol
_atom_site_label
_atom_site_fract_x
_atom_site_fract_y
_atom_site_fract_z
Si Si1 0.716706 0.923245 0.920768
Si Si2 0.945514 0.909726 0.930708
Si Si3 0.351827 0.579229 0.785609
Si Si4 0.785946 0.915132 0.181081
Si Si5 0.949449 0.923254 0.762857
O O1 0.722799 0.750000 0.931653
O O2 0.674018 0.962230 0.864068
O O3 0.764729 0.990637 0.888605
O O4 0.703742 0.000000 0.000000
O O5 0.921701 0.750000 0.931727
O O6 0.937928 0.986448 0.847743
O O7 0.000000 0.893869 0.946588
O O8 0.921870 0.000000 0.000000
O O9 0.344813 0.750000 0.767554
O O10 0.332503 0.491509 0.712288
O O11 0.406776 0.537140 0.794059
O O12 0.796687 0.750000 0.152935
O O13 0.750000 0.913457 0.250000
O O14 0.953945 0.750000 0.772016
O O15 0.000000 0.983961 0.733112
#
# Coordination Sequence:
#
# PCOD8298450 Si02
#       5
#    16  16  16  16  16
#     4  10  19  31  49  72  96 122 154 193 238 288
#     4   8  13  22  37  56  78 105 138 177 218 257
#     4   9  17  30  49  71  94 123 159 197 236 279
#     4   9  17  30  48  69  93 120 149 185 232 284
#     4   8  14  26  45  67  90 121 163 203 233 266
#
# _framework density 17.461091
#
# number of rings (size 3 to 8) (size 9 to 14) (size 15 to 20)
#    0.000    3.200    0.000    2.400    0.000    3.200 
#    0.000    2.000    0.000    4.800    0.000    0.000 
#    0.000    0.000    0.000    0.000    0.000    0.600 
#
# Total GULP energy -495594.457561 kJ/mol
# GULP energy per Si atom -12389.861439 kJ/mol
# Density = 1.742135 g / cm^3
# Si number density = 17.461091 Si / 1000 Ang^3
#
#
#
# Elastic Constant Matrix: (Units=GPa)
#
#
# Indices 1 2 3 4 5 6 
#
# 1 109.0786 35.3884 49.3235 0.0000 0.0000 0.0000
# 2 35.3884 76.3736 41.4672 0.0000 0.0000 0.0000
# 3 49.3235 41.4672 87.7496 0.0000 0.0000 0.0000
# 4 0.0000 0.0000 0.0000 26.4757 0.0000 0.0000
# 5 0.0000 0.0000 0.0000 0.0000 18.7459 0.0000
# 6 0.0000 0.0000 0.0000 0.0000 0.0000 12.9792
#
#
#
# Elastic Compliance Matrix: (Units=1/GPa)
#
#
# Indices 1 2 3 4 5 6 
#
# 1 0.012693 -0.002701 -0.005858 0.000000 0.000000 0.000000
# 2 -0.002701 0.018187 -0.007077 0.000000 0.000000 0.000000
# 3 -0.005858 -0.007077 0.018033 0.000000 0.000000 0.000000
# 4 0.000000 0.000000 0.000000 0.037771 0.000000 0.000000
# 5 0.000000 0.000000 0.000000 0.000000 0.053345 0.000000
# 6 0.000000 0.000000 0.000000 0.000000 0.000000 0.077046
#
#
# Mechanical properties :
#
#
# Convention : Reuss Voigt Hill
#
# Bulk Modulus (GPa) = 56.68266 58.39556 57.53911
# Shear Modulus (GPa) = 19.66748 21.44167 20.55457
#
# Velocity S-wave (km/s) = 3.35977 3.50804 3.43470
# Velocity P-wave (km/s) = 6.89808 7.06571 6.98240
#
# Compressibility (1/GPa) = 0.01764208
#
# Stress axis : x y z
#
# Youngs Moduli (GPa) = 78.78401 54.98400 55.45327
#
# Poissons Ratio (x) = 0.14849 0.32487
# Poissons Ratio (y) = 0.21276 0.39242
# Poissons Ratio (z) = 0.46155 0.38910
#
# Static dielectric constant tensor:
#      x y z
#    x 3.277330 0.000000 0.000000 
#    y 0.000000 3.309420 0.000000 
#    z 0.000000 0.000000 3.096620 
# 
# 
# High freq. dielectric constant tensor:
#      x y z
#    x 1.657790 0.000000 0.000000 
#    y 0.000000 1.659570 0.000000 
#    z 0.000000 0.000000 1.650090 
# 
# From -- ./inp_files/39955.got.cif
#   From: 2010.03.12/outbox.cif.g09.slc.cpg/sg74_20_cif.got.tgz:39955.got - 2010.04.16 15:46:19.
