data_PCOD8298759
_publ_section_title
;
Structure prediction by ZEFSAII (Michael W. Deem and Ramdas Pophale) SiO2 
 PCOD8298759
Probable space group: I M M A
;
_chemical_formula_sum "Si O2"
_cell_formula_units_Z 104
_cell_length_a 9.159274
_cell_length_b 29.550803
_cell_length_c 21.034137
_cell_angle_alpha 90.000000
_cell_angle_beta 90.000000
_cell_angle_gamma 90.000000
_cell_volume 5693.181587
_symmetry_space_group_name_H-M "I M M A"
_symmetry_group_IT_number 74
_symmetry_cell_setting 'orthorhombic'
loop_
_space_group_symop_operation_xyz
x,y,z
-x,1/2-y,z
x,-y,-z
-x,1/2+y,-z
-x,-y,-z
x,1/2+y,-z
-x,y,z
x,1/2-y,z
1/2+x,1/2+y,1/2+z
1/2-x,-y,1/2+z
1/2+x,1/2-y,1/2-z
1/2-x,y,1/2-z
1/2-x,1/2-y,1/2-z
1/2+x,y,1/2-z
1/2-x,1/2+y,1/2+z
1/2+x,-y,1/2+z
loop_
_atom_site_type_symbol
_atom_site_label
_atom_site_fract_x
_atom_site_fract_y
_atom_site_fract_z
Si Si1 0.671496 0.250000 0.315522
Si Si2 0.340205 0.628146 0.511823
Si Si3 0.159978 0.348281 0.154415
Si Si4 0.170450 0.197643 0.565713
Si Si5 0.163531 0.696166 0.190206
Si Si6 0.668747 0.456077 0.042909
Si Si7 0.672250 0.934280 0.812945
O O1 0.500000 0.250000 0.306583
O O2 0.750000 0.250000 0.250000
O O3 0.720564 0.203369 0.349775
O O4 0.500000 0.628025 0.477434
O O5 0.367075 0.634252 0.584968
O O6 0.237815 0.669218 0.490885
O O7 0.258991 0.580686 0.502821
O O8 0.276511 0.381677 0.187107
O O9 0.000000 0.350177 0.189252
O O10 0.204219 0.250000 0.552381
O O11 0.248868 0.179971 0.628950
O O12 0.000000 0.188448 0.572854
O O13 0.158380 0.750000 0.194238
O O14 0.250000 0.675847 0.250000
O O15 0.000000 0.676228 0.188899
O O16 0.500000 0.441939 0.041233
O O17 0.713938 0.458833 0.118843
O O18 0.698006 0.500000 0.000000
O O19 0.500000 0.936750 0.801963
O O20 0.750000 0.957013 0.750000
#
# Coordination Sequence:
#
# PCOD8298759 Si02
#       7
#     8  16  16  16  16  16  16
#     4  10  20  32  44  62  90 130 173 210 247 290
#     4  10  20  33  52  76 102 132 169 216 264 311
#     4   9  19  33  48  67  96 134 175 215 258 302
#     4  10  20  32  47  70 101 137 175 214 254 305
#     4   9  16  27  44  66  92 124 164 209 255 303
#     4   9  19  37  59  80 104 136 172 213 264 321
#     4  10  19  32  53  79 106 133 168 212 259 312
#
# _framework density 18.267465999999999
#
# number of rings (size 3 to 8) (size 9 to 14) (size 15 to 20)
#    0.000    2.462    0.000    2.308    1.077    6.154 
#    0.000    0.000    0.000    0.923    0.000    4.308 
#    0.000    0.000    0.000    0.000    0.000    0.000 
#
# Total GULP energy -644207.723126 kJ/mol
# GULP energy per Si atom -12388.610060 kJ/mol
# Density = 1.822589 g / cm^3
# Si number density = 18.267466 Si / 1000 Ang^3
#
#
#
# Elastic Constant Matrix: (Units=GPa)
#
#
# Indices 1 2 3 4 5 6 
#
# 1 109.5980 41.7780 44.9410 0.0000 0.0000 0.0000
# 2 41.7780 76.5048 35.6017 0.0000 0.0000 0.0000
# 3 44.9410 35.6017 75.3284 -0.0002 0.0000 0.0000
# 4 0.0000 0.0000 -0.0002 22.7015 0.0000 0.0000
# 5 0.0000 0.0000 0.0000 0.0000 32.7222 0.0000
# 6 0.0000 0.0000 0.0000 0.0000 0.0000 22.5856
#
#
#
# Elastic Compliance Matrix: (Units=1/GPa)
#
#
# Indices 1 2 3 4 5 6 
#
# 1 0.013207 -0.004545 -0.005731 0.000000 0.000000 0.000000
# 2 -0.004545 0.018321 -0.005947 0.000000 0.000000 0.000000
# 3 -0.005731 -0.005947 0.019505 0.000000 0.000000 0.000000
# 4 0.000000 0.000000 0.000000 0.044050 0.000000 0.000000
# 5 0.000000 0.000000 0.000000 0.000000 0.030560 0.000000
# 6 0.000000 0.000000 0.000000 0.000000 0.000000 0.044276
#
#
# Mechanical properties :
#
#
# Convention : Reuss Voigt Hill
#
# Bulk Modulus (GPa) = 53.80397 56.23029 55.01713
# Shear Modulus (GPa) = 23.97386 24.87591 24.42488
#
# Velocity S-wave (km/s) = 3.62661 3.69421 3.66056
# Velocity P-wave (km/s) = 6.85958 7.00319 6.93176
#
# Compressibility (1/GPa) = 0.01858599
#
# Stress axis : x y z
#
# Youngs Moduli (GPa) = 75.71813 54.58355 51.26868
#
# Poissons Ratio (x) = 0.24809 0.29383
# Poissons Ratio (y) = 0.34414 0.30490
# Poissons Ratio (z) = 0.43395 0.32461
#
# Static dielectric constant tensor:
#      x y z
#    x 3.708930 0.000000 0.000000 
#    y 0.000000 3.039330 0.000000 
#    z 0.000000 0.000000 3.501120 
# 
# 
# High freq. dielectric constant tensor:
#      x y z
#    x 1.722310 0.000000 0.000000 
#    y 0.000000 1.666770 0.000000 
#    z 0.000000 0.000000 1.707360 
# 
# From -- ./inp_files/49629.got.cif
#   From: 2010.03.12/outbox.cif.g09.slc.cpg/sg74_25_cif.got.tgz:49629.got - 2010.04.16 15:46:19.
