data_PCOD8298651
_publ_section_title
;
Structure prediction by ZEFSAII (Michael W. Deem and Ramdas Pophale) SiO2 
 PCOD8298651
Probable space group: I M M A
;
_chemical_formula_sum "Si O2"
_cell_formula_units_Z 96
_cell_length_a 19.076127
_cell_length_b 25.894813
_cell_length_c 10.378966
_cell_angle_alpha 90.000000
_cell_angle_beta 90.000000
_cell_angle_gamma 90.000000
_cell_volume 5126.926288
_symmetry_space_group_name_H-M "I M M A"
_symmetry_group_IT_number 74
_symmetry_cell_setting 'orthorhombic'
loop_
_space_group_symop_operation_xyz
x,y,z
-x,1/2-y,z
x,-y,-z
-x,1/2+y,-z
-x,-y,-z
x,1/2+y,-z
-x,y,z
x,1/2-y,z
1/2+x,1/2+y,1/2+z
1/2-x,-y,1/2+z
1/2+x,1/2-y,1/2-z
1/2-x,y,1/2-z
1/2-x,1/2-y,1/2-z
1/2+x,y,1/2-z
1/2-x,1/2+y,1/2+z
1/2+x,-y,1/2+z
loop_
_atom_site_type_symbol
_atom_site_label
_atom_site_fract_x
_atom_site_fract_y
_atom_site_fract_z
Si Si1 0.215393 0.855604 0.877540
Si Si2 0.420909 0.001372 0.197222
Si Si3 0.188967 0.191662 0.851896
Si Si4 0.576954 0.089046 0.390903
Si Si5 0.921068 0.604829 0.182626
Si Si6 0.779212 0.534751 0.611800
O O1 0.250000 0.828855 0.750000
O O2 0.136237 0.871925 0.837913
O O3 0.260605 0.906047 0.913820
O O4 0.215699 0.819009 0.002213
O O5 0.500000 0.006716 0.139855
O O6 0.401517 0.941246 0.219394
O O7 0.415759 0.032351 0.331301
O O8 0.363657 0.027019 0.103034
O O9 0.160153 0.250000 0.849426
O O10 0.250000 0.184037 0.750000
O O11 0.128096 0.154232 0.802488
O O12 0.500000 0.113072 0.359773
O O13 0.587415 0.080841 0.541772
O O14 0.000000 0.623944 0.208278
O O15 0.744128 0.500000 0.500000
O O16 0.750000 0.515742 0.750000
#
# Coordination Sequence:
#
# PCOD8298651 Si02
#       6
#    16  16  16  16  16  16
#     4  10  20  36  54  82 109 141 189 222 276 327
#     4  10  19  32  50  77 114 151 181 216 262 326
#     4  10  23  39  59  82 106 140 184 237 287 327
#     4   9  16  30  50  76 113 146 178 217 261 321
#     4   9  19  32  54  82 108 143 182 224 276 324
#     4  11  24  34  51  81 115 152 185 220 266 324
#
# _framework density 18.724668999999999
#
# number of rings (size 3 to 8) (size 9 to 14) (size 15 to 20)
#    0.000    2.167    3.333    0.500    7.000    3.000 
#    0.000    0.000    0.000    1.000    0.000    0.000 
#    0.000    0.000    0.000    0.000    0.000    0.000 
#
# Total GULP energy -594895.471903 kJ/mol
# GULP energy per Si atom -12393.655665 kJ/mol
# Density = 1.868205 g / cm^3
# Si number density = 18.724669 Si / 1000 Ang^3
#
#
#
# Elastic Constant Matrix: (Units=GPa)
#
#
# Indices 1 2 3 4 5 6 
#
# 1 117.4773 47.6950 20.8264 0.0000 0.0000 0.0000
# 2 47.6950 91.9328 27.2273 0.0000 0.0000 0.0000
# 3 20.8264 27.2273 48.9333 0.0000 0.0000 0.0000
# 4 0.0000 0.0000 0.0000 23.9693 0.0000 0.0000
# 5 0.0000 0.0000 0.0000 0.0000 19.9224 0.0000
# 6 0.0000 0.0000 0.0000 0.0000 0.0000 21.4266
#
#
#
# Elastic Compliance Matrix: (Units=1/GPa)
#
#
# Indices 1 2 3 4 5 6 
#
# 1 0.010913 -0.005132 -0.001789 0.000000 0.000000 0.000000
# 2 -0.005132 0.015437 -0.006405 0.000000 0.000000 0.000000
# 3 -0.001789 -0.006405 0.024761 0.000000 0.000000 0.000000
# 4 0.000000 0.000000 0.000000 0.041720 0.000000 0.000000
# 5 0.000000 0.000000 0.000000 0.000000 0.050195 0.000000
# 6 0.000000 0.000000 0.000000 0.000000 0.000000 0.046671
#
#
# Mechanical properties :
#
#
# Convention : Reuss Voigt Hill
#
# Bulk Modulus (GPa) = 40.88499 49.98232 45.43366
# Shear Modulus (GPa) = 22.27145 23.90329 23.08737
#
# Velocity S-wave (km/s) = 3.45253 3.57678 3.51521
# Velocity P-wave (km/s) = 6.14618 6.61884 6.38689
#
# Compressibility (1/GPa) = 0.02445885
#
# Stress axis : x y z
#
# Youngs Moduli (GPa) = 91.63437 64.77988 40.38534
#
# Poissons Ratio (x) = 0.33243 0.07226
# Poissons Ratio (y) = 0.47025 0.25868
# Poissons Ratio (z) = 0.16395 0.41493
#
# Static dielectric constant tensor:
#      x y z
#    x 3.852740 0.000000 0.000000 
#    y 0.000000 3.164630 0.000000 
#    z 0.000000 0.000000 3.367570 
# 
# 
# High freq. dielectric constant tensor:
#      x y z
#    x 1.740870 0.000000 0.000000 
#    y 0.000000 1.691860 0.000000 
#    z 0.000000 0.000000 1.719450 
# 
# From -- ./inp_files/22631.got.cif
#   From: 2010.03.12/outbox.cif.g09.slc.cpg/sg74_12_cif.got.tgz:22631.got - 2010.04.16 15:46:19.
