data_PCOD8298417
_publ_section_title
;
Structure prediction by ZEFSAII (Michael W. Deem and Ramdas Pophale) SiO2 
 PCOD8298417
Probable space group: I M M A
;
_chemical_formula_sum "Si O2"
_cell_formula_units_Z 80
_cell_length_a 18.755554
_cell_length_b 15.035382
_cell_length_c 16.956360
_cell_angle_alpha 90.000000
_cell_angle_beta 90.000000
_cell_angle_gamma 90.000000
_cell_volume 4781.641278
_symmetry_space_group_name_H-M "I M M A"
_symmetry_group_IT_number 74
_symmetry_cell_setting 'orthorhombic'
loop_
_space_group_symop_operation_xyz
x,y,z
-x,1/2-y,z
x,-y,-z
-x,1/2+y,-z
-x,-y,-z
x,1/2+y,-z
-x,y,z
x,1/2-y,z
1/2+x,1/2+y,1/2+z
1/2-x,-y,1/2+z
1/2+x,1/2-y,1/2-z
1/2-x,y,1/2-z
1/2-x,1/2-y,1/2-z
1/2+x,y,1/2-z
1/2-x,1/2+y,1/2+z
1/2+x,-y,1/2+z
loop_
_atom_site_type_symbol
_atom_site_label
_atom_site_fract_x
_atom_site_fract_y
_atom_site_fract_z
Si Si1 0.500000 0.647701 0.356373
Si Si2 0.150015 0.351982 0.617955
Si Si3 0.865025 0.070896 0.938711
Si Si4 0.749522 0.493794 0.162545
Si Si5 0.000000 0.354860 0.681683
Si Si6 0.265248 0.349716 0.033141
O O1 0.500000 0.750000 0.338475
O O2 0.429987 0.627530 0.406647
O O3 0.500000 0.601081 0.269819
O O4 0.162286 0.250000 0.647599
O O5 0.200954 0.418122 0.665973
O O6 0.069507 0.384950 0.632957
O O7 0.167150 0.358628 0.524991
O O8 0.828682 0.020675 0.864963
O O9 0.806371 0.130703 0.983474
O O10 0.896934 0.000000 0.000000
O O11 0.750000 0.452461 0.250000
O O12 0.720089 0.418853 0.103113
O O13 0.000000 0.250000 0.689129
O O14 0.259522 0.250000 0.067739
#
# Coordination Sequence:
#
# PCOD8298417 Si02
#       6
#     8  16  16  16   8  16
#     4  11  19  27  43  68  95 119 147 181 226 278
#     4   9  17  31  49  68  94 123 151 184 226 276
#     4   9  18  31  46  65  90 120 153 187 225 271
#     4  10  19  31  48  70  94 120 153 192 231 269
#     4   9  18  29  44  70  96 117 144 185 230 270
#     4   9  18  33  50  67  90 122 158 191 225 269
#
# _framework density 16.730657000000001
#
# number of rings (size 3 to 8) (size 9 to 14) (size 15 to 20)
#    0.000    2.600    0.000    3.900    0.000    1.600 
#    0.000    2.000    0.000    0.000    0.000    0.000 
#    0.000    9.600    0.000    0.000    0.000    0.000 
#
# Total GULP energy -495812.349750 kJ/mol
# GULP energy per Si atom -12395.308744 kJ/mol
# Density = 1.669258 g / cm^3
# Si number density = 16.730657 Si / 1000 Ang^3
#
#
#
# Elastic Constant Matrix: (Units=GPa)
#
#
# Indices 1 2 3 4 5 6 
#
# 1 100.2565 29.5099 52.9670 0.0000 0.0000 0.0000
# 2 29.5099 72.6349 40.6198 0.0000 0.0000 0.0000
# 3 52.9670 40.6198 113.4963 0.0000 0.0000 0.0000
# 4 0.0000 0.0000 0.0000 21.4549 0.0000 0.0000
# 5 0.0000 0.0000 0.0000 0.0000 28.8018 0.0000
# 6 0.0000 0.0000 0.0000 0.0000 0.0000 20.4535
#
#
#
# Elastic Compliance Matrix: (Units=1/GPa)
#
#
# Indices 1 2 3 4 5 6 
#
# 1 0.013583 -0.002467 -0.005456 0.000000 0.000000 0.000000
# 2 -0.002467 0.017661 -0.005169 0.000000 0.000000 0.000000
# 3 -0.005456 -0.005169 0.013207 0.000000 0.000000 0.000000
# 4 0.000000 0.000000 0.000000 0.046609 0.000000 0.000000
# 5 0.000000 0.000000 0.000000 0.000000 0.034720 0.000000
# 6 0.000000 0.000000 0.000000 0.000000 0.000000 0.048891
#
#
# Mechanical properties :
#
#
# Convention : Reuss Voigt Hill
#
# Bulk Modulus (GPa) = 54.74691 59.17568 56.96130
# Shear Modulus (GPa) = 24.16094 25.02810 24.59452
#
# Velocity S-wave (km/s) = 3.80427 3.87194 3.83825
# Velocity P-wave (km/s) = 7.21735 7.44551 7.33232
#
# Compressibility (1/GPa) = 0.01826587
#
# Stress axis : x y z
#
# Youngs Moduli (GPa) = 73.62065 56.62287 75.71669
#
# Poissons Ratio (x) = 0.13971 0.41311
# Poissons Ratio (y) = 0.18165 0.39140
# Poissons Ratio (z) = 0.40167 0.29270
#
# Static dielectric constant tensor:
#      x y z
#    x 3.125850 0.000000 0.000000 
#    y 0.000000 3.089150 0.000000 
#    z 0.000000 0.000000 3.128390 
# 
# 
# High freq. dielectric constant tensor:
#      x y z
#    x 1.636310 0.000000 0.000000 
#    y 0.000000 1.633450 0.000000 
#    z 0.000000 0.000000 1.640600 
# 
# From -- ./inp_files/34028.got.cif
#   From: 2010.03.12/outbox.cif.g09.slc.cpg/sg74_18_cif.got.tgz:34028.got - 2010.04.16 15:46:19.
