data_PCOD8298391
_publ_section_title
;
Structure prediction by ZEFSAII (Michael W. Deem and Ramdas Pophale) SiO2 
 PCOD8298391
Probable space group: I M M A
;
_chemical_formula_sum "Si O2"
_cell_formula_units_Z 104
_cell_length_a 9.044239
_cell_length_b 28.635569
_cell_length_c 24.183515
_cell_angle_alpha 90.000000
_cell_angle_beta 90.000000
_cell_angle_gamma 90.000000
_cell_volume 6263.214305
_symmetry_space_group_name_H-M "I M M A"
_symmetry_group_IT_number 74
_symmetry_cell_setting 'orthorhombic'
loop_
_space_group_symop_operation_xyz
x,y,z
-x,1/2-y,z
x,-y,-z
-x,1/2+y,-z
-x,-y,-z
x,1/2+y,-z
-x,y,z
x,1/2-y,z
1/2+x,1/2+y,1/2+z
1/2-x,-y,1/2+z
1/2+x,1/2-y,1/2-z
1/2-x,y,1/2-z
1/2-x,1/2-y,1/2-z
1/2+x,y,1/2-z
1/2-x,1/2+y,1/2+z
1/2+x,-y,1/2+z
loop_
_atom_site_type_symbol
_atom_site_label
_atom_site_fract_x
_atom_site_fract_y
_atom_site_fract_z
Si Si1 0.669034 0.978004 0.193314
Si Si2 0.673518 0.750000 0.691376
Si Si3 0.674000 0.920570 0.809719
Si Si4 0.825464 0.123114 0.690722
Si Si5 0.174508 0.659425 0.876992
Si Si6 0.324167 0.301824 0.895529
Si Si7 0.329747 0.304580 0.019595
O O1 0.500000 0.975816 0.209655
O O2 0.750000 0.980366 0.250000
O O3 0.710829 0.928558 0.164084
O O4 0.701929 0.027476 0.163023
O O5 0.500000 0.750000 0.701073
O O6 0.750000 0.750000 0.750000
O O7 0.724369 0.795569 0.658016
O O8 0.500000 0.910190 0.802687
O O9 0.750000 0.915021 0.750000
O O10 0.745190 0.885418 0.852658
O O11 0.750000 0.129900 0.750000
O O12 0.759232 0.161159 0.648297
O O13 0.000000 0.130394 0.698431
O O14 0.226707 0.665658 0.939893
O O15 0.000000 0.651808 0.875501
O O16 0.500000 0.301231 0.893828
O O17 0.263960 0.250000 0.880688
O O18 0.275438 0.316060 0.957410
O O19 0.500000 0.319269 0.028305
O O20 0.309113 0.250000 0.031843
#
# Coordination Sequence:
#
# PCOD8298391 Si02
#       7
#    16   8  16  16  16  16  16
#     4   8  15  27  44  65  90 120 154 189 225 268
#     4  10  22  34  44  62  90 118 143 176 223 276
#     4  10  19  31  46  67  92 119 154 193 232 275
#     4   9  16  28  47  71  99 128 154 185 227 274
#     4  11  21  33  47  66  91 120 152 190 235 279
#     4   8  15  28  47  71  97 124 156 192 228 269
#     4   9  17  31  50  68  86 117 160 197 229 269
#
# _framework density 16.604893000000001
#
# number of rings (size 3 to 8) (size 9 to 14) (size 15 to 20)
#    0.000    2.769    0.769    2.308    0.000    3.385 
#    0.000    0.769    0.000    1.846    0.000    6.462 
#    0.000    0.000    0.000    0.000    0.000    0.000 
#
# Total GULP energy -644267.624683 kJ/mol
# GULP energy per Si atom -12389.762013 kJ/mol
# Density = 1.656710 g / cm^3
# Si number density = 16.604893 Si / 1000 Ang^3
#
#
#
# Elastic Constant Matrix: (Units=GPa)
#
#
# Indices 1 2 3 4 5 6 
#
# 1 46.1952 44.5459 33.9123 0.0000 0.0000 0.0000
# 2 44.5459 148.6738 80.4420 0.0000 0.0000 0.0000
# 3 33.9123 80.4420 102.9869 -0.0001 0.0000 0.0000
# 4 0.0000 0.0000 -0.0001 11.8388 0.0000 0.0000
# 5 0.0000 0.0000 0.0000 0.0000 21.9961 0.0000
# 6 0.0000 0.0000 0.0000 0.0000 0.0000 20.4640
#
#
#
# Elastic Compliance Matrix: (Units=1/GPa)
#
#
# Indices 1 2 3 4 5 6 
#
# 1 0.032021 -0.006736 -0.005283 0.000000 0.000000 0.000000
# 2 -0.006736 0.013066 -0.007988 0.000000 0.000000 0.000000
# 3 -0.005283 -0.007988 0.017689 0.000000 0.000000 0.000000
# 4 0.000000 0.000000 0.000000 0.084468 0.000000 0.000000
# 5 0.000000 0.000000 0.000000 0.000000 0.045463 0.000000
# 6 0.000000 0.000000 0.000000 0.000000 0.000000 0.048866
#
#
# Mechanical properties :
#
#
# Convention : Reuss Voigt Hill
#
# Bulk Modulus (GPa) = 43.93126 68.40624 56.16875
# Shear Modulus (GPa) = 17.29066 20.12349 18.70708
#
# Velocity S-wave (km/s) = 3.23042 3.48501 3.36013
# Velocity P-wave (km/s) = 6.35833 7.58153 6.99671
#
# Compressibility (1/GPa) = 0.02276284
#
# Stress axis : x y z
#
# Youngs Moduli (GPa) = 31.22979 76.53273 56.53290
#
# Poissons Ratio (x) = 0.51551 0.29865
# Poissons Ratio (y) = 0.21036 0.45158
# Poissons Ratio (z) = 0.16498 0.61134
#
# Static dielectric constant tensor:
#      x y z
#    x 2.896330 0.000000 0.000000 
#    y 0.000000 3.844420 0.000000 
#    z 0.000000 0.000000 2.976740 
# 
# 
# High freq. dielectric constant tensor:
#      x y z
#    x 1.629900 0.000000 0.000000 
#    y 0.000000 1.649330 0.000000 
#    z 0.000000 0.000000 1.612970 
# 
# From -- ./inp_files/57813.got.cif
#   From: 2010.03.12/outbox.cif.g09.slc.cpg/sg74_29_cif.got.tgz:57813.got - 2010.04.16 15:46:19.
