data_PCOD8298067
_publ_section_title
;
Structure prediction by ZEFSAII (Michael W. Deem and Ramdas Pophale) SiO2 
 PCOD8298067
Probable space group: I M M A
;
_chemical_formula_sum "Si O2"
_cell_formula_units_Z 76
_cell_length_a 10.619421
_cell_length_b 24.101473
_cell_length_c 14.824378
_cell_angle_alpha 90.000000
_cell_angle_beta 90.000000
_cell_angle_gamma 90.000000
_cell_volume 3794.205985
_symmetry_space_group_name_H-M "I M M A"
_symmetry_group_IT_number 74
_symmetry_cell_setting 'orthorhombic'
loop_
_space_group_symop_operation_xyz
x,y,z
-x,1/2-y,z
x,-y,-z
-x,1/2+y,-z
-x,-y,-z
x,1/2+y,-z
-x,y,z
x,1/2-y,z
1/2+x,1/2+y,1/2+z
1/2-x,-y,1/2+z
1/2+x,1/2-y,1/2-z
1/2-x,y,1/2-z
1/2-x,1/2-y,1/2-z
1/2+x,y,1/2-z
1/2-x,1/2+y,1/2+z
1/2+x,-y,1/2+z
loop_
_atom_site_type_symbol
_atom_site_label
_atom_site_fract_x
_atom_site_fract_y
_atom_site_fract_z
Si Si1 0.753885 0.141062 0.352844
Si Si2 0.853500 0.368602 0.674956
Si Si3 0.000000 0.250000 0.907354
Si Si4 0.647936 0.938338 0.000288
Si Si5 0.500000 0.311847 0.421062
Si Si6 0.859181 0.750000 0.577868
Si Si7 0.273740 0.250000 0.882523
O O1 0.750000 0.121635 0.250000
O O2 0.811117 0.090964 0.408775
O O3 0.616628 0.152624 0.389645
O O4 0.839159 0.196123 0.360909
O O5 0.750000 0.384881 0.750000
O O6 0.810574 0.403438 0.587725
O O7 0.846211 0.303498 0.652819
O O8 0.000000 0.381250 0.703448
O O9 0.872328 0.250000 0.847136
O O10 0.000000 0.305499 0.969918
O O11 0.500000 0.943056 0.999813
O O12 0.708304 0.000000 0.000000
O O13 0.500000 0.250000 0.375967
O O14 0.765076 0.750000 0.492130
O O15 0.000000 0.750000 0.538451
#
# Coordination Sequence:
#
# PCOD8298067 Si02
#       7
#    16  16   4  16   8   8   8
#     4  12  24  37  62  95 129 166 207 253 309 381
#     4  11  24  42  67  96 126 164 211 266 319 379
#     4  10  18  34  56  80 130 176 192 244 306 366
#     4  10  23  46  69  89 121 167 217 266 313 366
#     4  10  20  38  51  91 136 163 195 239 311 376
#     4  12  21  35  61  91 129 167 210 249 305 387
#     4  12  21  37  62  94 128 166 212 252 316 385
#
# _framework density 20.030540999999999
#
# number of rings (size 3 to 8) (size 9 to 14) (size 15 to 20)
#    0.316    0.632    5.263    2.211    4.421    0.842 
#    1.895    0.526    0.000    0.000    0.000    0.000 
#    0.000    0.000    0.000    0.000    0.000    0.000 
#
# Total GULP energy -471216.825194 kJ/mol
# GULP energy per Si atom -12400.442768 kJ/mol
# Density = 1.998495 g / cm^3
# Si number density = 20.030541 Si / 1000 Ang^3
#
#
#
# Elastic Constant Matrix: (Units=GPa)
#
#
# Indices 1 2 3 4 5 6 
#
# 1 56.9216 6.1138 14.0331 0.0001 0.0000 -0.0002
# 2 6.1138 130.5321 52.6391 -0.0003 0.0000 0.0009
# 3 14.0331 52.6391 122.9993 -0.0004 0.0001 0.0031
# 4 0.0001 -0.0003 -0.0004 2.3832 0.0000 0.0023
# 5 0.0000 0.0000 0.0001 0.0000 16.4165 0.0002
# 6 -0.0002 0.0009 0.0031 0.0023 0.0002 227.5748
#
#
#
# Elastic Compliance Matrix: (Units=1/GPa)
#
#
# Indices 1 2 3 4 5 6 
#
# 1 0.018076 -0.000018 -0.002055 -0.000001 0.000000 0.000000
# 2 -0.000018 0.009259 -0.003960 0.000000 0.000000 0.000000
# 3 -0.002055 -0.003960 0.010059 0.000001 0.000000 0.000000
# 4 -0.000001 0.000000 0.000001 0.419604 -0.000001 -0.000004
# 5 0.000000 0.000000 0.000000 -0.000001 0.060914 0.000000
# 6 0.000000 0.000000 0.000000 -0.000004 0.000000 0.004394
#
#
# Mechanical properties :
#
#
# Convention : Reuss Voigt Hill
#
# Bulk Modulus (GPa) = 39.48106 50.66944 45.07525
# Shear Modulus (GPa) = 9.21122 65.11936 37.16529
#
# Velocity S-wave (km/s) = 2.14676 5.70794 4.31214
# Velocity P-wave (km/s) = 5.08901 8.29408 6.88076
#
# Compressibility (1/GPa) = 0.02532860
#
# Stress axis : x y z
#
# Youngs Moduli (GPa) = 55.32048 108.00430 99.40911
#
# Poissons Ratio (x) = 0.00196 0.20425
# Poissons Ratio (y) = 0.00100 0.39370
# Poissons Ratio (z) = 0.11366 0.42774
#
# Static dielectric constant tensor:
#      x y z
#    x 3.700040 0.000000 0.000000 
#    y 0.000000 3.549110 0.000000 
#    z 0.000000 0.000000 3.693740 
# 
# 
# High freq. dielectric constant tensor:
#      x y z
#    x 1.790160 0.000000 0.000000 
#    y 0.000000 1.760880 0.000000 
#    z 0.000000 0.000000 1.779210 
# 
# From -- ./inp_files/30784.got.cif
#   From: 2010.03.12/outbox.cif.g09.slc.cpg/sg74_16_cif.got.tgz:30784.got - 2010.04.16 15:46:19.
