data_PCOD8298699
_publ_section_title
;
Structure prediction by ZEFSAII (Michael W. Deem and Ramdas Pophale) SiO2 
 PCOD8298699
Probable space group: I M M A
;
_chemical_formula_sum "Si O2"
_cell_formula_units_Z 96
_cell_length_a 9.616571
_cell_length_b 23.494048
_cell_length_c 21.399078
_cell_angle_alpha 90.000000
_cell_angle_beta 90.000000
_cell_angle_gamma 90.000000
_cell_volume 4834.740357
_symmetry_space_group_name_H-M "I M M A"
_symmetry_group_IT_number 74
_symmetry_cell_setting 'orthorhombic'
loop_
_space_group_symop_operation_xyz
x,y,z
-x,1/2-y,z
x,-y,-z
-x,1/2+y,-z
-x,-y,-z
x,1/2+y,-z
-x,y,z
x,1/2-y,z
1/2+x,1/2+y,1/2+z
1/2-x,-y,1/2+z
1/2+x,1/2-y,1/2-z
1/2-x,y,1/2-z
1/2-x,1/2-y,1/2-z
1/2+x,y,1/2-z
1/2-x,1/2+y,1/2+z
1/2+x,-y,1/2+z
loop_
_atom_site_type_symbol
_atom_site_label
_atom_site_fract_x
_atom_site_fract_y
_atom_site_fract_z
Si Si1 0.158027 0.870507 0.427590
Si Si2 0.339933 0.185920 0.472914
Si Si3 0.344592 0.812466 0.853860
Si Si4 0.161032 0.065901 0.308837
Si Si5 0.342397 0.500612 0.069709
Si Si6 0.153677 0.316976 0.697032
O O1 0.259027 0.859280 0.485070
O O2 0.213583 0.832204 0.370685
O O3 0.000000 0.854022 0.446440
O O4 0.166817 0.935400 0.405116
O O5 0.500000 0.167301 0.468601
O O6 0.325324 0.250000 0.500061
O O7 0.274171 0.182713 0.405087
O O8 0.500000 0.816923 0.883838
O O9 0.329921 0.750000 0.820410
O O10 0.324107 0.865389 0.807245
O O11 0.250000 0.042264 0.250000
O O12 0.220193 0.040106 0.375259
O O13 0.000000 0.047265 0.300155
O O14 0.500000 0.479259 0.059493
O O15 0.270034 0.500000 0.000000
O O16 0.148264 0.250000 0.705272
O O17 0.250000 0.344808 0.750000
O O18 0.000000 0.343640 0.704166
#
# Coordination Sequence:
#
# PCOD8298699 Si02
#       6
#    16  16  16  16  16  16
#     4  10  19  32  52  74  97 133 179 218 257 317
#     4  10  20  32  49  78 112 139 167 214 274 324
#     4   9  18  34  56  79 104 140 183 219 256 313
#     4  10  21  37  57  82 112 144 180 226 277 326
#     4   9  18  34  56  79 103 137 182 226 265 310
#     4   9  18  31  46  66  93 125 162 205 252 302
#
# _framework density 19.856290000000001
#
# number of rings (size 3 to 8) (size 9 to 14) (size 15 to 20)
#    0.000    2.500    0.000    2.000    0.000    6.667 
#    0.000    2.500    0.000    2.000    0.000    0.000 
#    0.000    0.000    0.000    0.000    0.000    0.000 
#
# Total GULP energy -594806.287772 kJ/mol
# GULP energy per Si atom -12391.797662 kJ/mol
# Density = 1.981110 g / cm^3
# Si number density = 19.856290 Si / 1000 Ang^3
#
#
#
# Elastic Constant Matrix: (Units=GPa)
#
#
# Indices 1 2 3 4 5 6 
#
# 1 75.1171 22.9641 43.3786 0.0000 0.0000 0.0000
# 2 22.9641 53.8369 23.4638 0.0000 0.0000 0.0000
# 3 43.3786 23.4638 110.6868 0.0000 0.0000 0.0000
# 4 0.0000 0.0000 0.0000 22.8554 0.0000 0.0000
# 5 0.0000 0.0000 0.0000 0.0000 32.9355 0.0000
# 6 0.0000 0.0000 0.0000 0.0000 0.0000 10.3222
#
#
#
# Elastic Compliance Matrix: (Units=1/GPa)
#
#
# Indices 1 2 3 4 5 6 
#
# 1 0.018438 -0.005195 -0.006124 0.000000 0.000000 0.000000
# 2 -0.005195 0.021929 -0.002613 0.000000 0.000000 0.000000
# 3 -0.006124 -0.002613 0.011989 0.000000 0.000000 0.000000
# 4 0.000000 0.000000 0.000000 0.043753 0.000000 0.000000
# 5 0.000000 0.000000 0.000000 0.000000 0.030362 0.000000
# 6 0.000000 0.000000 0.000000 0.000000 0.000000 0.096879
#
#
# Mechanical properties :
#
#
# Convention : Reuss Voigt Hill
#
# Bulk Modulus (GPa) = 40.83180 46.58377 43.70778
# Shear Modulus (GPa) = 19.27688 23.21157 21.24423
#
# Velocity S-wave (km/s) = 3.11918 3.42274 3.27448
# Velocity P-wave (km/s) = 5.79488 6.25553 6.02960
#
# Compressibility (1/GPa) = 0.02449071
#
# Stress axis : x y z
#
# Youngs Moduli (GPa) = 54.23723 45.60105 83.41321
#
# Poissons Ratio (x) = 0.23691 0.51086
# Poissons Ratio (y) = 0.28178 0.21793
# Poissons Ratio (z) = 0.33217 0.11914
#
# Static dielectric constant tensor:
#      x y z
#    x 3.523570 0.000000 0.000000 
#    y 0.000000 3.642660 0.000000 
#    z 0.000000 0.000000 3.468010 
# 
# 
# High freq. dielectric constant tensor:
#      x y z
#    x 1.747230 0.000000 0.000000 
#    y 0.000000 1.773860 0.000000 
#    z 0.000000 0.000000 1.761810 
# 
# From -- ./inp_files/49085.got.cif
#   From: 2010.03.12/outbox.cif.g09.slc.cpg/sg74_25_cif.got.tgz:49085.got - 2010.04.16 15:46:19.
