data_PCOD8298778
_publ_section_title
;
Structure prediction by ZEFSAII (Michael W. Deem and Ramdas Pophale) SiO2 
 PCOD8298778
Probable space group: I M M A
;
_chemical_formula_sum "Si O2"
_cell_formula_units_Z 88
_cell_length_a 18.249132
_cell_length_b 8.850682
_cell_length_c 28.826857
_cell_angle_alpha 90.000000
_cell_angle_beta 90.000000
_cell_angle_gamma 90.000000
_cell_volume 4656.035075
_symmetry_space_group_name_H-M "I M M A"
_symmetry_group_IT_number 74
_symmetry_cell_setting 'orthorhombic'
loop_
_space_group_symop_operation_xyz
x,y,z
-x,1/2-y,z
x,-y,-z
-x,1/2+y,-z
-x,-y,-z
x,1/2+y,-z
-x,y,z
x,1/2-y,z
1/2+x,1/2+y,1/2+z
1/2-x,-y,1/2+z
1/2+x,1/2-y,1/2-z
1/2-x,y,1/2-z
1/2-x,1/2-y,1/2-z
1/2+x,y,1/2-z
1/2-x,1/2+y,1/2+z
1/2+x,-y,1/2+z
loop_
_atom_site_type_symbol
_atom_site_label
_atom_site_fract_x
_atom_site_fract_y
_atom_site_fract_z
Si Si1 0.082068 0.572058 0.451620
Si Si2 0.686377 0.072693 0.781655
Si Si3 0.709203 0.929875 0.115699
Si Si4 0.500000 0.429180 0.449066
Si Si5 0.139238 0.928727 0.888166
Si Si6 0.417227 0.426892 0.702698
O O1 0.104441 0.500000 0.500000
O O2 0.086106 0.750000 0.457210
O O3 0.140635 0.513891 0.414427
O O4 0.000000 0.521871 0.436356
O O5 0.699034 0.250000 0.786987
O O6 0.750000 0.001364 0.750000
O O7 0.690615 0.004065 0.833129
O O8 0.610625 0.037121 0.754857
O O9 0.717370 0.750000 0.114980
O O10 0.783926 0.000468 0.094851
O O11 0.500000 0.250000 0.454056
O O12 0.500000 0.500000 0.500000
O O13 0.572358 0.484375 0.421056
O O14 0.144711 0.750000 0.889455
O O15 0.128118 0.982599 0.835490
O O16 0.500000 0.482464 0.700345
O O17 0.408243 0.250000 0.691626
#
# Coordination Sequence:
#
# PCOD8298778 Si02
#       6
#    16  16  16   8  16  16
#     4   9  19  36  58  82 109 143 179 221 276 331
#     4   9  16  29  50  77 108 136 171 221 266 303
#     4  10  20  35  57  83 112 145 185 228 270 324
#     4  10  24  42  58  78 106 142 182 234 285 328
#     4  11  22  37  55  78 110 144 181 225 279 329
#     4  10  19  32  54  80 104 141 188 224 264 321
#
# _framework density 18.900200999999999
#
# number of rings (size 3 to 8) (size 9 to 14) (size 15 to 20)
#    0.000    2.182    2.727    0.545    0.000    3.636 
#    0.000    9.091    0.000    0.000    0.000    2.545 
#    0.000    0.000    0.000    0.000    0.000    0.000 
#
# Total GULP energy -545484.195013 kJ/mol
# GULP energy per Si atom -12397.368068 kJ/mol
# Density = 1.885718 g / cm^3
# Si number density = 18.900201 Si / 1000 Ang^3
#
#
#
# Elastic Constant Matrix: (Units=GPa)
#
#
# Indices 1 2 3 4 5 6 
#
# 1 153.7105 31.9861 86.9519 0.0000 0.0000 0.0000
# 2 31.9861 27.6725 26.6329 0.0000 0.0000 0.0000
# 3 86.9519 26.6329 140.8774 0.0000 0.0000 0.0000
# 4 0.0000 0.0000 0.0000 18.8037 0.0000 0.0000
# 5 0.0000 0.0000 0.0000 0.0000 32.1852 0.0000
# 6 0.0000 0.0000 0.0000 0.0000 0.0000 23.6217
#
#
#
# Elastic Compliance Matrix: (Units=1/GPa)
#
#
# Indices 1 2 3 4 5 6 
#
# 1 0.011190 -0.007686 -0.005454 0.000000 0.000000 0.000000
# 2 -0.007686 0.049453 -0.004605 0.000000 0.000000 0.000000
# 3 -0.005454 -0.004605 0.011335 0.000000 0.000000 0.000000
# 4 0.000000 0.000000 0.000000 0.053181 0.000000 0.000000
# 5 0.000000 0.000000 0.000000 0.000000 0.031070 0.000000
# 6 0.000000 0.000000 0.000000 0.000000 0.000000 0.042334
#
#
# Mechanical properties :
#
#
# Convention : Reuss Voigt Hill
#
# Bulk Modulus (GPa) = 27.40576 68.15580 47.78078
# Shear Modulus (GPa) = 20.30737 26.70142 23.50439
#
# Velocity S-wave (km/s) = 3.28144 3.76275 3.53030
# Velocity P-wave (km/s) = 5.37484 7.41733 6.47710
#
# Compressibility (1/GPa) = 0.03648867
#
# Stress axis : x y z
#
# Youngs Moduli (GPa) = 89.36390 20.22127 88.22068
#
# Poissons Ratio (x) = 0.15541 0.48114
# Poissons Ratio (y) = 0.68681 0.40629
# Poissons Ratio (z) = 0.48737 0.09313
#
# Static dielectric constant tensor:
#      x y z
#    x 3.779590 0.000000 0.000000 
#    y 0.000000 3.151240 0.000000 
#    z 0.000000 0.000000 3.546210 
# 
# 
# High freq. dielectric constant tensor:
#      x y z
#    x 1.748730 0.000000 0.000000 
#    y 0.000000 1.701760 0.000000 
#    z 0.000000 0.000000 1.733070 
# 
# From -- ./inp_files/72950.got.cif
#   From: 2010.03.12/outbox.cif.g09.slc.cpg/sg74_37_cif.got.tgz:72950.got - 2010.04.16 15:46:19.
