data_PCOD8298636
_publ_section_title
;
Structure prediction by ZEFSAII (Michael W. Deem and Ramdas Pophale) SiO2 
 PCOD8298636
Probable space group: I M M A
;
_chemical_formula_sum "Si O2"
_cell_formula_units_Z 104
_cell_length_a 23.911666
_cell_length_b 9.428299
_cell_length_c 22.354487
_cell_angle_alpha 90.000000
_cell_angle_beta 90.000000
_cell_angle_gamma 90.000000
_cell_volume 5039.737202
_symmetry_space_group_name_H-M "I M M A"
_symmetry_group_IT_number 74
_symmetry_cell_setting 'orthorhombic'
loop_
_space_group_symop_operation_xyz
x,y,z
-x,1/2-y,z
x,-y,-z
-x,1/2+y,-z
-x,-y,-z
x,1/2+y,-z
-x,y,z
x,1/2-y,z
1/2+x,1/2+y,1/2+z
1/2-x,-y,1/2+z
1/2+x,1/2-y,1/2-z
1/2-x,y,1/2-z
1/2-x,1/2-y,1/2-z
1/2+x,y,1/2-z
1/2-x,1/2+y,1/2+z
1/2+x,-y,1/2+z
loop_
_atom_site_type_symbol
_atom_site_label
_atom_site_fract_x
_atom_site_fract_y
_atom_site_fract_z
Si Si1 0.500000 0.914962 0.560941
Si Si2 0.886722 0.413379 0.126923
Si Si3 0.500000 0.083114 0.796967
Si Si4 0.313894 0.914345 0.841185
Si Si5 0.882043 0.096150 0.450644
Si Si6 0.120063 0.919530 0.245788
Si Si7 0.500000 0.094774 0.088032
Si Si8 0.775924 0.913489 0.940093
O O1 0.500000 0.750000 0.544298
O O2 0.446220 0.956979 0.599791
O O3 0.500000 0.000000 0.500000
O O4 0.886832 0.250000 0.149775
O O5 0.871355 0.520194 0.179793
O O6 0.840850 0.435132 0.075220
O O7 0.500000 0.250000 0.800065
O O8 0.442660 0.031250 0.765095
O O9 0.500000 0.028678 0.864099
O O10 0.307912 0.750000 0.820173
O O11 0.367704 0.941389 0.882746
O O12 0.260465 0.961539 0.881491
O O13 0.328584 0.013460 0.784592
O O14 0.858200 0.250000 0.465892
O O15 0.948205 0.083162 0.456757
O O16 0.851882 0.000000 0.500000
O O17 0.126486 0.750000 0.246838
O O18 0.500000 0.250000 0.120384
O O19 0.761878 0.750000 0.953439
O O20 0.760929 0.000000 0.000000
#
# Coordination Sequence:
#
# PCOD8298636 Si02
#       8
#     8  16   8  16  16  16   8  16
#     4  10  21  38  64  95 125 159 197 239 293 355
#     4  10  22  40  61  89 122 157 194 234 290 356
#     4  10  21  36  54  80 113 146 186 237 291 338
#     4  10  21  38  58  81 112 154 197 238 288 346
#     4  10  20  32  49  74 104 140 186 235 286 338
#     4  11  23  38  59  87 117 153 197 246 295 345
#     4  10  19  32  50  73 100 139 185 230 282 341
#     4  10  22  40  63  89 118 153 194 240 292 347
#
# _framework density 20.635997
#
# number of rings (size 3 to 8) (size 9 to 14) (size 15 to 20)
#    0.000    1.846    1.538    2.077    0.000    4.308 
#    0.000    3.077    0.000    0.000    0.000    0.000 
#    0.000    0.000    0.000    0.000    0.000    0.000 
#
# Total GULP energy -644463.769228 kJ/mol
# GULP energy per Si atom -12393.534024 kJ/mol
# Density = 2.058903 g / cm^3
# Si number density = 20.635997 Si / 1000 Ang^3
#
#
#
# Elastic Constant Matrix: (Units=GPa)
#
#
# Indices 1 2 3 4 5 6 
#
# 1 124.3875 31.2667 36.1669 0.0000 0.0000 0.0000
# 2 31.2667 69.8470 61.8522 0.0000 0.0000 0.0000
# 3 36.1669 61.8522 115.6207 0.0000 0.0000 0.0000
# 4 0.0000 0.0000 0.0000 44.4081 0.0000 0.0000
# 5 0.0000 0.0000 0.0000 0.0000 -23.8900 0.0000
# 6 0.0000 0.0000 0.0000 0.0000 0.0000 19.1657
#
#
#
# Elastic Compliance Matrix: (Units=1/GPa)
#
#
# Indices 1 2 3 4 5 6 
#
# 1 0.009157 -0.002969 -0.001276 0.000000 0.000000 0.000000
# 2 -0.002969 0.028167 -0.014139 0.000000 0.000000 0.000000
# 3 -0.001276 -0.014139 0.016612 0.000000 0.000000 0.000000
# 4 0.000000 0.000000 0.000000 0.022518 0.000000 0.000000
# 5 0.000000 0.000000 0.000000 0.000000 -0.041858 0.000000
# 6 0.000000 0.000000 0.000000 0.000000 0.000000 0.052177
#
#
# Mechanical properties :
#
#
# Convention : Reuss Voigt Hill
#
# Bulk Modulus (GPa) = 58.25134 63.15853 60.70494
# Shear Modulus (GPa) = 38.68059 19.97472 29.32766
#
# Velocity S-wave (km/s) = 4.33416 3.11457 3.77396
# Velocity P-wave (km/s) = 7.30314 6.60352 6.96213
#
# Compressibility (1/GPa) = 0.01716699
#
# Stress axis : x y z
#
# Youngs Moduli (GPa) = 109.20954 35.50234 60.19699
#
# Poissons Ratio (x) = 0.10541 0.07681
# Poissons Ratio (y) = 0.32425 0.85115
# Poissons Ratio (z) = 0.13935 0.50199
#
# Static dielectric constant tensor:
#      x y z
#    x 4.027900 0.000000 0.000000 
#    y 0.000000 3.680320 0.000000 
#    z 0.000000 0.000000 3.516940 
# 
# 
# High freq. dielectric constant tensor:
#      x y z
#    x 1.824090 0.000000 0.000000 
#    y 0.000000 1.797170 0.000000 
#    z 0.000000 0.000000 1.797530 
# 
# From -- ./inp_files/55301.got.cif
#   From: 2010.03.12/outbox.cif.g09.slc.cpg/sg74_28_cif.got.tgz:55301.got - 2010.04.16 15:46:19.
