data_PCOD8298679
_publ_section_title
;
Structure prediction by ZEFSAII (Michael W. Deem and Ramdas Pophale) SiO2 
 PCOD8298679
Probable space group: I M M A
;
_chemical_formula_sum "Si O2"
_cell_formula_units_Z 96
_cell_length_a 18.594990
_cell_length_b 8.838856
_cell_length_c 32.058084
_cell_angle_alpha 90.000000
_cell_angle_beta 90.000000
_cell_angle_gamma 90.000000
_cell_volume 5269.016641
_symmetry_space_group_name_H-M "I M M A"
_symmetry_group_IT_number 74
_symmetry_cell_setting 'orthorhombic'
loop_
_space_group_symop_operation_xyz
x,y,z
-x,1/2-y,z
x,-y,-z
-x,1/2+y,-z
-x,-y,-z
x,1/2+y,-z
-x,y,z
x,1/2-y,z
1/2+x,1/2+y,1/2+z
1/2-x,-y,1/2+z
1/2+x,1/2-y,1/2-z
1/2-x,y,1/2-z
1/2-x,1/2-y,1/2-z
1/2+x,y,1/2-z
1/2-x,1/2+y,1/2+z
1/2+x,-y,1/2+z
loop_
_atom_site_type_symbol
_atom_site_label
_atom_site_fract_x
_atom_site_fract_y
_atom_site_fract_z
Si Si1 0.417672 0.574418 0.830951
Si Si2 0.289861 0.072518 0.542630
Si Si3 0.207177 0.928225 0.374986
Si Si4 0.836146 0.426507 0.168671
Si Si5 0.416959 0.926370 0.256446
Si Si6 0.581559 0.073546 0.414320
O O1 0.500000 0.547267 0.844233
O O2 0.402239 0.750000 0.822464
O O3 0.368619 0.512063 0.868445
O O4 0.397796 0.480589 0.789794
O O5 0.292635 0.250000 0.537176
O O6 0.235882 0.023505 0.579480
O O7 0.260977 0.000000 0.500000
O O8 0.370144 0.015341 0.552507
O O9 0.196520 0.750000 0.371312
O O10 0.263011 0.982668 0.339799
O O11 0.817646 0.250000 0.170793
O O12 0.868069 0.479521 0.212263
O O13 0.893886 0.463077 0.132697
O O14 0.500000 0.960929 0.266566
O O15 0.399205 0.750000 0.260559
O O16 0.500000 0.016979 0.419353
O O17 0.589049 0.250000 0.424092
#
# Coordination Sequence:
#
# PCOD8298679 Si02
#       6
#    16  16  16  16  16  16
#     4  10  21  37  57  80 104 132 168 209 255 308
#     4  10  21  36  55  78 103 133 168 208 254 305
#     4  10  21  37  56  79 105 133 168 209 257 310
#     4  10  19  32  51  75 105 141 181 221 258 298
#     4  10  20  33  50  74 106 143 180 218 258 299
#     4   9  18  32  50  73 103 140 179 217 256 297
#
# _framework density 18.219718
#
# number of rings (size 3 to 8) (size 9 to 14) (size 15 to 20)
#    0.000    2.167    0.000    3.000    0.000    6.667 
#    0.000    3.333    0.000    0.500    0.000    0.000 
#    0.000    0.000    0.000    0.000    0.000    0.000 
#
# Total GULP energy -595420.158751 kJ/mol
# GULP energy per Si atom -12404.586641 kJ/mol
# Density = 1.817825 g / cm^3
# Si number density = 18.219718 Si / 1000 Ang^3
#
#
#
# Elastic Constant Matrix: (Units=GPa)
#
#
# Indices 1 2 3 4 5 6 
#
# 1 94.3325 31.8173 54.9621 0.0000 0.0000 0.0000
# 2 31.8173 52.8485 27.3227 0.0000 0.0000 0.0000
# 3 54.9621 27.3227 84.7174 0.0000 0.0000 0.0000
# 4 0.0000 0.0000 0.0000 32.2292 0.0000 0.0000
# 5 0.0000 0.0000 0.0000 0.0000 16.9801 0.0000
# 6 0.0000 0.0000 0.0000 0.0000 0.0000 32.3832
#
#
#
# Elastic Compliance Matrix: (Units=1/GPa)
#
#
# Indices 1 2 3 4 5 6 
#
# 1 0.018462 -0.005908 -0.010072 0.000000 0.000000 0.000000
# 2 -0.005908 0.024599 -0.004101 0.000000 0.000000 0.000000
# 3 -0.010072 -0.004101 0.019661 0.000000 0.000000 0.000000
# 4 0.000000 0.000000 0.000000 0.031028 0.000000 0.000000
# 5 0.000000 0.000000 0.000000 0.000000 0.058892 0.000000
# 6 0.000000 0.000000 0.000000 0.000000 0.000000 0.030880
#
#
# Mechanical properties :
#
#
# Convention : Reuss Voigt Hill
#
# Bulk Modulus (GPa) = 44.32532 51.12252 47.72392
# Shear Modulus (GPa) = 21.62596 24.17159 22.89878
#
# Velocity S-wave (km/s) = 3.44896 3.64630 3.54900
# Velocity P-wave (km/s) = 6.34361 6.77105 6.56082
#
# Compressibility (1/GPa) = 0.02256047
#
# Stress axis : x y z
#
# Youngs Moduli (GPa) = 54.16571 40.65245 50.86185
#
# Poissons Ratio (x) = 0.24016 0.51229
# Poissons Ratio (y) = 0.31999 0.20858
# Poissons Ratio (z) = 0.54557 0.16671
#
# Static dielectric constant tensor:
#      x y z
#    x 3.365710 0.000000 0.000000 
#    y 0.000000 3.403480 0.000000 
#    z 0.000000 0.000000 3.290030 
# 
# 
# High freq. dielectric constant tensor:
#      x y z
#    x 1.698350 0.000000 0.000000 
#    y 0.000000 1.719240 0.000000 
#    z 0.000000 0.000000 1.694970 
# 
# From -- ./inp_files/68161.got.cif
#   From: 2010.03.12/outbox.cif.g09.slc.cpg/sg74_35_cif.got.tgz:68161.got - 2010.04.16 15:46:19.
