data_PCOD8298650
_publ_section_title
;
Structure prediction by ZEFSAII (Michael W. Deem and Ramdas Pophale) SiO2 
 PCOD8298650
Probable space group: I M M A
;
_chemical_formula_sum "Si O2"
_cell_formula_units_Z 112
_cell_length_a 27.960703
_cell_length_b 19.103890
_cell_length_c 12.378664
_cell_angle_alpha 90.000000
_cell_angle_beta 90.000000
_cell_angle_gamma 90.000000
_cell_volume 6612.164812
_symmetry_space_group_name_H-M "I M M A"
_symmetry_group_IT_number 74
_symmetry_cell_setting 'orthorhombic'
loop_
_space_group_symop_operation_xyz
x,y,z
-x,1/2-y,z
x,-y,-z
-x,1/2+y,-z
-x,-y,-z
x,1/2+y,-z
-x,y,z
x,1/2-y,z
1/2+x,1/2+y,1/2+z
1/2-x,-y,1/2+z
1/2+x,1/2-y,1/2-z
1/2-x,y,1/2-z
1/2-x,1/2-y,1/2-z
1/2+x,y,1/2-z
1/2-x,1/2+y,1/2+z
1/2+x,-y,1/2+z
loop_
_atom_site_type_symbol
_atom_site_label
_atom_site_fract_x
_atom_site_fract_y
_atom_site_fract_z
Si Si1 0.885397 0.080052 0.969114
Si Si2 0.612412 0.075804 0.953622
Si Si3 0.944653 0.550791 0.236463
Si Si4 0.554050 0.607056 0.668929
Si Si5 0.805710 0.170057 0.628529
Si Si6 0.303411 0.670280 0.379945
Si Si7 0.555475 0.671766 0.887360
O O1 0.919185 0.088149 0.864716
O O2 0.835030 0.117804 0.950619
O O3 0.911296 0.118657 0.068096
O O4 0.875318 0.000000 0.000000
O O5 0.581002 0.074582 0.845650
O O6 0.661887 0.116044 0.936211
O O7 0.583585 0.115828 0.044416
O O8 0.625023 0.000000 0.000000
O O9 0.939702 0.468143 0.224399
O O10 0.000000 0.574449 0.240213
O O11 0.500000 0.615786 0.626107
O O12 0.567079 0.663644 0.760142
O O13 0.821927 0.250000 0.606408
O O14 0.751671 0.159067 0.587470
O O15 0.810171 0.152843 0.754551
O O16 0.319061 0.750000 0.403586
O O17 0.500000 0.656766 0.907483
O O18 0.569778 0.750000 0.922808
#
# Coordination Sequence:
#
# PCOD8298650 Si02
#       7
#    16  16  16  16  16  16  16
#     4  10  19  32  55  80 106 133 174 219 265 305
#     4  12  21  32  55  80 106 134 177 221 264 306
#     4  10  19  32  50  77 108 137 171 219 264 303
#     4   9  18  33  51  73 105 143 178 208 250 310
#     4   9  19  36  56  76 102 134 169 214 267 321
#     4   9  18  35  57  77 100 134 172 212 265 322
#     4  10  21  35  50  72 106 147 182 210 249 308
#
# _framework density 16.938476999999999
#
# number of rings (size 3 to 8) (size 9 to 14) (size 15 to 20)
#    0.000    2.143    2.857    2.143    0.000    3.429 
#    0.000    0.000    0.000    3.000    0.000    3.000 
#    0.000    0.000    0.000    0.000    0.000    0.000 
#
# Total GULP energy -694435.398981 kJ/mol
# GULP energy per Si atom -12400.632125 kJ/mol
# Density = 1.689992 g / cm^3
# Si number density = 16.938477 Si / 1000 Ang^3
#
#
#
# Elastic Constant Matrix: (Units=GPa)
#
#
# Indices 1 2 3 4 5 6 
#
# 1 101.9277 58.0041 59.2703 0.0000 0.0000 0.0000
# 2 58.0041 87.1387 47.6023 0.0000 0.0000 0.0000
# 3 59.2703 47.6023 77.1669 0.0000 0.0000 0.0000
# 4 0.0000 0.0000 0.0000 14.0855 0.0000 0.0000
# 5 0.0000 0.0000 0.0000 0.0000 29.0101 0.0000
# 6 0.0000 0.0000 0.0000 0.0000 0.0000 21.6400
#
#
#
# Elastic Compliance Matrix: (Units=1/GPa)
#
#
# Indices 1 2 3 4 5 6 
#
# 1 0.020642 -0.007661 -0.011129 0.000000 0.000000 0.000000
# 2 -0.007661 0.020152 -0.006547 0.000000 0.000000 0.000000
# 3 -0.011129 -0.006547 0.025545 0.000000 0.000000 0.000000
# 4 0.000000 0.000000 0.000000 0.070995 0.000000 0.000000
# 5 0.000000 0.000000 0.000000 0.000000 0.034471 0.000000
# 6 0.000000 0.000000 0.000000 0.000000 0.000000 0.046211
#
#
# Mechanical properties :
#
#
# Convention : Reuss Voigt Hill
#
# Bulk Modulus (GPa) = 63.83332 66.22073 65.02703
# Shear Modulus (GPa) = 18.25411 19.70421 18.97916
#
# Velocity S-wave (km/s) = 3.28635 3.41439 3.35098
# Velocity P-wave (km/s) = 7.22270 7.39755 7.31065
#
# Compressibility (1/GPa) = 0.01566580
#
# Stress axis : x y z
#
# Youngs Moduli (GPa) = 48.44579 49.62292 39.14593
#
# Poissons Ratio (x) = 0.38015 0.43564
# Poissons Ratio (y) = 0.37113 0.25630
# Poissons Ratio (z) = 0.53914 0.32489
#
# Static dielectric constant tensor:
#      x y z
#    x 3.142590 0.000000 0.000000 
#    y 0.000000 3.115380 0.000000 
#    z 0.000000 0.000000 3.125980 
# 
# 
# High freq. dielectric constant tensor:
#      x y z
#    x 1.649750 0.000000 0.000000 
#    y 0.000000 1.648630 0.000000 
#    z 0.000000 0.000000 1.651440 
# 
# From -- ./inp_files/24185.got.cif
#   From: 2010.03.12/outbox.cif.g09.slc.cpg/sg74_13_cif.got.tgz:24185.got - 2010.04.16 15:46:19.
