data_PCOD8298882
_publ_section_title
;
Structure prediction by ZEFSAII (Michael W. Deem and Ramdas Pophale) SiO2 
 PCOD8298882
Probable space group: I M M A
;
_chemical_formula_sum "Si O2"
_cell_formula_units_Z 64
_cell_length_a 19.003172
_cell_length_b 8.453793
_cell_length_c 23.283572
_cell_angle_alpha 90.000000
_cell_angle_beta 90.000000
_cell_angle_gamma 90.000000
_cell_volume 3740.479821
_symmetry_space_group_name_H-M "I M M A"
_symmetry_group_IT_number 74
_symmetry_cell_setting 'orthorhombic'
loop_
_space_group_symop_operation_xyz
x,y,z
-x,1/2-y,z
x,-y,-z
-x,1/2+y,-z
-x,-y,-z
x,1/2+y,-z
-x,y,z
x,1/2-y,z
1/2+x,1/2+y,1/2+z
1/2-x,-y,1/2+z
1/2+x,1/2-y,1/2-z
1/2-x,y,1/2-z
1/2-x,1/2-y,1/2-z
1/2+x,y,1/2-z
1/2-x,1/2+y,1/2+z
1/2+x,-y,1/2+z
loop_
_atom_site_type_symbol
_atom_site_label
_atom_site_fract_x
_atom_site_fract_y
_atom_site_fract_z
Si Si1 0.224625 0.933460 0.834320
Si Si2 0.650789 0.567595 0.225517
Si Si3 0.856357 0.436655 0.936815
Si Si4 0.000000 0.934005 0.238206
Si Si5 0.000000 0.934812 0.886370
O O1 0.207268 0.750000 0.826254
O O2 0.307325 0.964738 0.821775
O O3 0.178070 0.032280 0.789536
O O4 0.205078 0.988595 0.897911
O O5 0.664410 0.750000 0.211500
O O6 0.568045 0.526151 0.223057
O O7 0.849869 0.250000 0.935609
O O8 0.932401 0.486507 0.914500
O O9 0.843240 0.500000 0.000000
O O10 0.000000 0.750000 0.219047
O O11 0.000000 0.041081 0.181725
O O12 0.000000 0.750000 0.900598
#
# Coordination Sequence:
#
# PCOD8298882 Si02
#       5
#    16  16  16   8   8
#     4  11  21  34  51  76 104 136 176 219 262 309
#     4  10  19  33  53  76 104 139 174 215 264 313
#     4  12  24  39  55  74 103 140 181 220 261 309
#     4  10  20  33  53  78 107 141 177 213 260 313
#     4  12  23  35  52  76 107 141 179 217 256 305
#
# _framework density 17.110104
#
# number of rings (size 3 to 8) (size 9 to 14) (size 15 to 20)
#    0.000    1.000    2.500    8.250    0.000    1.000 
#    0.000    0.000    0.000    0.000    0.000    0.875 
#    0.000    0.000    0.000    0.000    0.000    0.000 
#
# Total GULP energy -396915.303594 kJ/mol
# GULP energy per Si atom -12403.603237 kJ/mol
# Density = 1.707116 g / cm^3
# Si number density = 17.110104 Si / 1000 Ang^3
#
#
#
# Elastic Constant Matrix: (Units=GPa)
#
#
# Indices 1 2 3 4 5 6 
#
# 1 125.4566 25.6749 58.5525 0.0000 0.0000 0.0000
# 2 25.6749 69.3184 21.7281 0.0000 0.0000 0.0000
# 3 58.5525 21.7281 94.9468 0.0000 0.0000 0.0000
# 4 0.0000 0.0000 0.0000 28.1412 0.0000 0.0000
# 5 0.0000 0.0000 0.0000 0.0000 15.8789 0.0000
# 6 0.0000 0.0000 0.0000 0.0000 0.0000 17.8897
#
#
#
# Elastic Compliance Matrix: (Units=1/GPa)
#
#
# Indices 1 2 3 4 5 6 
#
# 1 0.011493 -0.002193 -0.006586 0.000000 0.000000 0.000000
# 2 -0.002193 0.015959 -0.002300 0.000000 0.000000 0.000000
# 3 -0.006586 -0.002300 0.015120 0.000000 0.000000 0.000000
# 4 0.000000 0.000000 0.000000 0.035535 0.000000 0.000000
# 5 0.000000 0.000000 0.000000 0.000000 0.062977 0.000000
# 6 0.000000 0.000000 0.000000 0.000000 0.000000 0.055898
#
#
# Mechanical properties :
#
#
# Convention : Reuss Voigt Hill
#
# Bulk Modulus (GPa) = 48.98280 55.73697 52.35988
# Shear Modulus (GPa) = 22.12924 24.63304 23.38114
#
# Velocity S-wave (km/s) = 3.60021 3.79843 3.70064
# Velocity P-wave (km/s) = 6.78028 7.20303 6.99485
#
# Compressibility (1/GPa) = 0.02041533
#
# Stress axis : x y z
#
# Youngs Moduli (GPa) = 87.00612 62.65955 66.13696
#
# Poissons Ratio (x) = 0.13739 0.43558
# Poissons Ratio (y) = 0.19077 0.15212
# Poissons Ratio (z) = 0.57303 0.14412
#
# Static dielectric constant tensor:
#      x y z
#    x 3.449130 0.000000 0.000000 
#    y 0.000000 3.345870 0.000000 
#    z 0.000000 0.000000 3.072010 
# 
# 
# High freq. dielectric constant tensor:
#      x y z
#    x 1.658880 0.000000 0.000000 
#    y 0.000000 1.680990 0.000000 
#    z 0.000000 0.000000 1.630120 
# 
# From -- ./inp_files/39132.got.cif
#   From: 2010.03.12/outbox.cif.g09.slc.cpg/sg74_20_cif.got.tgz:39132.got - 2010.04.16 15:46:19.
