data_PCOD8298278
_publ_section_title
;
Structure prediction by ZEFSAII (Michael W. Deem and Ramdas Pophale) SiO2 
 PCOD8298278
Probable space group: I M M A
;
_chemical_formula_sum "Si O2"
_cell_formula_units_Z 64
_cell_length_a 13.583862
_cell_length_b 8.915250
_cell_length_c 34.504298
_cell_angle_alpha 90.000000
_cell_angle_beta 90.000000
_cell_angle_gamma 90.000000
_cell_volume 4178.592139
_symmetry_space_group_name_H-M "I M M A"
_symmetry_group_IT_number 74
_symmetry_cell_setting 'orthorhombic'
loop_
_space_group_symop_operation_xyz
x,y,z
-x,1/2-y,z
x,-y,-z
-x,1/2+y,-z
-x,-y,-z
x,1/2+y,-z
-x,y,z
x,1/2-y,z
1/2+x,1/2+y,1/2+z
1/2-x,-y,1/2+z
1/2+x,1/2-y,1/2-z
1/2-x,y,1/2-z
1/2-x,1/2-y,1/2-z
1/2+x,y,1/2-z
1/2-x,1/2+y,1/2+z
1/2+x,-y,1/2+z
loop_
_atom_site_type_symbol
_atom_site_label
_atom_site_fract_x
_atom_site_fract_y
_atom_site_fract_z
Si Si1 0.387986 0.574306 0.115232
Si Si2 0.887210 0.925871 0.765952
Si Si3 0.382753 0.581033 0.961982
Si Si4 0.287223 0.071851 0.805597
O O1 0.500000 0.521832 0.123158
O O2 0.384270 0.750000 0.107785
O O3 0.343175 0.496353 0.077104
O O4 0.321959 0.526444 0.151623
O O5 0.863280 0.750000 0.763404
O O6 0.000000 0.955904 0.776854
O O7 0.820993 0.002619 0.799186
O O8 0.863593 0.001360 0.724793
O O9 0.500000 0.571507 0.962587
O O10 0.344186 0.750000 0.962554
O O11 0.339194 0.500000 0.000000
O O12 0.285033 0.250000 0.799658
#
# Coordination Sequence:
#
# PCOD8298278 Si02
#       4
#    16  16  16  16
#     4   9  17  28  41  59  84 111 139 172 208 246
#     4  10  20  32  45  61  84 113 142 175 214 254
#     4   9  16  25  38  56  79 109 141 170 202 241
#     4  10  19  30  46  65  84 109 142 179 214 250
#
# _framework density 15.316164000000001
#
# number of rings (size 3 to 8) (size 9 to 14) (size 15 to 20)
#    0.000    2.500    0.000    4.500    0.000    8.000 
#    0.000    2.500    0.000    0.000    0.000    0.000 
#    0.000    1.000    0.000    3.250    0.000    4.750 
#
# Total GULP energy -396775.421055 kJ/mol
# GULP energy per Si atom -12399.231908 kJ/mol
# Density = 1.528130 g / cm^3
# Si number density = 15.316164 Si / 1000 Ang^3
#
#
#
# Elastic Constant Matrix: (Units=GPa)
#
#
# Indices 1 2 3 4 5 6 
#
# 1 72.9554 38.5178 50.7586 0.0000 0.0000 0.0000
# 2 38.5178 91.9891 67.9465 0.0000 0.0000 0.0000
# 3 50.7586 67.9465 156.3388 0.0000 0.0000 0.0000
# 4 0.0000 0.0000 0.0000 29.0744 0.0000 0.0000
# 5 0.0000 0.0000 0.0000 0.0000 19.3265 0.0000
# 6 0.0000 0.0000 0.0000 0.0000 0.0000 19.0648
#
#
#
# Elastic Compliance Matrix: (Units=1/GPa)
#
#
# Indices 1 2 3 4 5 6 
#
# 1 0.019179 -0.005054 -0.004031 0.000000 0.000000 0.000000
# 2 -0.005054 0.017342 -0.005896 0.000000 0.000000 0.000000
# 3 -0.004031 -0.005896 0.010268 0.000000 0.000000 0.000000
# 4 0.000000 0.000000 0.000000 0.034394 0.000000 0.000000
# 5 0.000000 0.000000 0.000000 0.000000 0.051742 0.000000
# 6 0.000000 0.000000 0.000000 0.000000 0.000000 0.052453
#
#
# Mechanical properties :
#
#
# Convention : Reuss Voigt Hill
#
# Bulk Modulus (GPa) = 59.42483 70.63658 65.03071
# Shear Modulus (GPa) = 22.62963 24.43052 23.53007
#
# Velocity S-wave (km/s) = 3.84800 3.99818 3.92381
# Velocity P-wave (km/s) = 7.65675 8.21785 7.94225
#
# Compressibility (1/GPa) = 0.01682798
#
# Stress axis : x y z
#
# Youngs Moduli (GPa) = 52.13908 57.66291 97.39387
#
# Poissons Ratio (x) = 0.29141 0.39256
# Poissons Ratio (y) = 0.26350 0.57426
# Poissons Ratio (z) = 0.21015 0.34000
#
# Static dielectric constant tensor:
#      x y z
#    x 2.662950 0.000000 0.000000 
#    y 0.000000 3.068320 0.000000 
#    z 0.000000 0.000000 3.014230 
# 
# 
# High freq. dielectric constant tensor:
#      x y z
#    x 1.540220 0.000000 0.000000 
#    y 0.000000 1.604250 0.000000 
#    z 0.000000 0.000000 1.587950 
# 
# From -- ./inp_files/69900.got.cif
#   From: 2010.03.12/outbox.cif.g09.slc.cpg/sg74_35_cif.got.tgz:69900.got - 2010.04.16 15:46:19.
