data_PCOD8298338
_publ_section_title
;
Structure prediction by ZEFSAII (Michael W. Deem and Ramdas Pophale) SiO2 
 PCOD8298338
Probable space group: I M M A
;
_chemical_formula_sum "Si O2"
_cell_formula_units_Z 72
_cell_length_a 13.043822
_cell_length_b 25.424880
_cell_length_c 12.246203
_cell_angle_alpha 90.000000
_cell_angle_beta 90.000000
_cell_angle_gamma 90.000000
_cell_volume 4061.301483
_symmetry_space_group_name_H-M "I M M A"
_symmetry_group_IT_number 74
_symmetry_cell_setting 'orthorhombic'
loop_
_space_group_symop_operation_xyz
x,y,z
-x,1/2-y,z
x,-y,-z
-x,1/2+y,-z
-x,-y,-z
x,1/2+y,-z
-x,y,z
x,1/2-y,z
1/2+x,1/2+y,1/2+z
1/2-x,-y,1/2+z
1/2+x,1/2-y,1/2-z
1/2-x,y,1/2-z
1/2-x,1/2-y,1/2-z
1/2+x,y,1/2-z
1/2-x,1/2+y,1/2+z
1/2+x,-y,1/2+z
loop_
_atom_site_type_symbol
_atom_site_label
_atom_site_fract_x
_atom_site_fract_y
_atom_site_fract_z
Si Si1 0.000000 0.452386 0.911867
Si Si2 0.500000 0.091448 0.294695
Si Si3 0.774673 0.690350 0.623605
Si Si4 0.500000 0.995301 0.167767
Si Si5 0.330725 0.500000 0.000000
Si Si6 0.826874 0.409769 0.038172
Si Si7 0.500000 0.691656 0.829095
O O1 0.000000 0.470103 0.787293
O O2 0.000000 0.500000 0.000000
O O3 0.897820 0.416938 0.930487
O O4 0.397532 0.076072 0.358789
O O5 0.500000 0.153489 0.274416
O O6 0.500000 0.058850 0.181778
O O7 0.740078 0.750000 0.595453
O O8 0.750000 0.677392 0.750000
O O9 0.715369 0.649817 0.545074
O O10 0.896614 0.683212 0.600430
O O11 0.600348 0.978884 0.100125
O O12 0.264671 0.451108 0.040743
O O13 0.500000 0.750000 0.777778
#
# Coordination Sequence:
#
# PCOD8298338 Si02
#       7
#     8   8  16   8   8  16   8
#     4  11  21  39  55  80 107 151 195 234 282 336
#     4  11  19  32  54  74 111 152 183 226 271 338
#     4  10  20  33  53  83 117 153 185 227 285 341
#     4  11  23  38  52  78 115 141 195 239 277 346
#     4  11  24  35  54  82 108 155 188 233 296 336
#     4  11  21  34  54  83 110 152 190 224 283 345
#     4  10  19  30  47  79 116 156 186 220 280 345
#
# _framework density 17.728307000000001
#
# number of rings (size 3 to 8) (size 9 to 14) (size 15 to 20)
#    0.000    1.333    5.556    1.333    0.000    3.556 
#    0.000    1.667    0.000    0.000    0.000    4.667 
#    0.000    0.000    0.000    0.000    0.000    0.000 
#
# Total GULP energy -446250.974927 kJ/mol
# GULP energy per Si atom -12395.860415 kJ/mol
# Density = 1.768796 g / cm^3
# Si number density = 17.728307 Si / 1000 Ang^3
#
#
#
# Elastic Constant Matrix: (Units=GPa)
#
#
# Indices 1 2 3 4 5 6 
#
# 1 137.1165 61.9633 46.2276 0.0000 0.0000 0.0000
# 2 61.9633 126.8307 49.0351 0.0005 0.0000 0.0000
# 3 46.2276 49.0351 88.9859 0.0005 0.0000 0.0000
# 4 0.0000 0.0005 0.0005 26.9471 0.0000 0.0000
# 5 0.0000 0.0000 0.0000 0.0000 20.2474 0.0000
# 6 0.0000 0.0000 0.0000 0.0000 0.0000 34.9740
#
#
#
# Elastic Compliance Matrix: (Units=1/GPa)
#
#
# Indices 1 2 3 4 5 6 
#
# 1 0.010024 -0.003665 -0.003188 0.000000 0.000000 0.000000
# 2 -0.003665 0.011359 -0.004355 0.000000 0.000000 0.000000
# 3 -0.003188 -0.004355 0.015294 0.000000 0.000000 0.000000
# 4 0.000000 0.000000 0.000000 0.037110 0.000000 0.000000
# 5 0.000000 0.000000 0.000000 0.000000 0.049389 0.000000
# 6 0.000000 0.000000 0.000000 0.000000 0.000000 0.028593
#
#
# Mechanical properties :
#
#
# Convention : Reuss Voigt Hill
#
# Bulk Modulus (GPa) = 70.12382 74.15391 72.13887
# Shear Modulus (GPa) = 27.94269 29.48085 28.71177
#
# Velocity S-wave (km/s) = 3.97440 4.08232 4.02872
# Velocity P-wave (km/s) = 7.79113 8.00870 7.90066
#
# Compressibility (1/GPa) = 0.01426049
#
# Stress axis : x y z
#
# Youngs Moduli (GPa) = 99.76115 88.03746 65.38562
#
# Poissons Ratio (x) = 0.32263 0.20845
# Poissons Ratio (y) = 0.36559 0.28478
# Poissons Ratio (z) = 0.31804 0.38344
#
# Static dielectric constant tensor:
#      x y z
#    x 3.742430 0.000000 0.000000 
#    y 0.000000 3.433240 0.000000 
#    z 0.000000 0.000000 2.985330 
# 
# 
# High freq. dielectric constant tensor:
#      x y z
#    x 1.714010 0.000000 0.000000 
#    y 0.000000 1.685590 0.000000 
#    z 0.000000 0.000000 1.632910 
# 
# From -- ./inp_files/18854.got.cif
#   From: 2010.03.12/outbox.cif.g09.slc.cpg/sg74_10_cif.got.tgz:18854.got - 2010.04.16 15:46:19.
