data_PCOD8298660
_publ_section_title
;
Structure prediction by ZEFSAII (Michael W. Deem and Ramdas Pophale) SiO2 
 PCOD8298660
Probable space group: I M M A
;
_chemical_formula_sum "Si O2"
_cell_formula_units_Z 72
_cell_length_a 22.361883
_cell_length_b 9.451881
_cell_length_c 17.872196
_cell_angle_alpha 90.000000
_cell_angle_beta 90.000000
_cell_angle_gamma 90.000000
_cell_volume 3777.500536
_symmetry_space_group_name_H-M "I M M A"
_symmetry_group_IT_number 74
_symmetry_cell_setting 'orthorhombic'
loop_
_space_group_symop_operation_xyz
x,y,z
-x,1/2-y,z
x,-y,-z
-x,1/2+y,-z
-x,-y,-z
x,1/2+y,-z
-x,y,z
x,1/2-y,z
1/2+x,1/2+y,1/2+z
1/2-x,-y,1/2+z
1/2+x,1/2-y,1/2-z
1/2-x,y,1/2-z
1/2-x,1/2-y,1/2-z
1/2+x,y,1/2-z
1/2-x,1/2+y,1/2+z
1/2+x,-y,1/2+z
loop_
_atom_site_type_symbol
_atom_site_label
_atom_site_fract_x
_atom_site_fract_y
_atom_site_fract_z
Si Si1 0.838546 0.586191 0.809378
Si Si2 0.242661 0.084224 0.426216
Si Si3 0.567452 0.412090 0.432224
Si Si4 0.877034 0.414771 0.348264
Si Si5 0.500000 0.919893 0.921569
O O1 0.824974 0.750000 0.795291
O O2 0.781034 0.526508 0.854837
O O3 0.897760 0.558242 0.856648
O O4 0.852505 0.513536 0.728943
O O5 0.256716 0.250000 0.439261
O O6 0.172568 0.056973 0.411697
O O7 0.262171 0.000000 0.500000
O O8 0.596407 0.500000 0.500000
O O9 0.500000 0.462053 0.417115
O O10 0.571318 0.250000 0.456310
O O11 0.885574 0.250000 0.332398
O O12 0.941297 0.472610 0.375809
O O13 0.500000 0.750000 0.934559
O O14 0.500000 0.000000 0.000000
#
# Coordination Sequence:
#
# PCOD8298660 Si02
#       5
#    16  16  16  16   8
#     4   9  17  29  48  72  96 122 160 202 238 277
#     4  10  19  32  51  73  98 128 160 198 242 288
#     4   9  17  28  44  66  92 123 157 195 235 279
#     4   9  18  31  50  75  98 124 162 205 242 278
#     4  10  20  34  54  76  99 128 162 200 241 286
#
# _framework density 19.060222
#
# number of rings (size 3 to 8) (size 9 to 14) (size 15 to 20)
#    0.000    2.667    0.000    2.000    1.556    2.667 
#    0.000    0.000    0.000    6.667    0.000    0.000 
#    0.000    0.000    0.000    0.000    0.000    0.000 
#
# Total GULP energy -446152.737321 kJ/mol
# GULP energy per Si atom -12393.131592 kJ/mol
# Density = 1.901684 g / cm^3
# Si number density = 19.060222 Si / 1000 Ang^3
#
#
#
# Elastic Constant Matrix: (Units=GPa)
#
#
# Indices 1 2 3 4 5 6 
#
# 1 128.8739 18.7234 58.7456 0.0000 0.0000 0.0000
# 2 18.7234 25.2545 30.4587 0.0000 0.0000 0.0000
# 3 58.7456 30.4587 136.5036 0.0000 0.0000 0.0000
# 4 0.0000 0.0000 0.0000 25.2057 0.0000 0.0000
# 5 0.0000 0.0000 0.0000 0.0000 -36.7626 0.0000
# 6 0.0000 0.0000 0.0000 0.0000 0.0000 12.1697
#
#
#
# Elastic Compliance Matrix: (Units=1/GPa)
#
#
# Indices 1 2 3 4 5 6 
#
# 1 0.009815 -0.002986 -0.003558 0.000000 0.000000 0.000000
# 2 -0.002986 0.055085 -0.011006 0.000000 0.000000 0.000000
# 3 -0.003558 -0.011006 0.011313 0.000000 0.000000 0.000000
# 4 0.000000 0.000000 0.000000 0.039674 0.000000 0.000000
# 5 0.000000 0.000000 0.000000 0.000000 -0.027202 0.000000
# 6 0.000000 0.000000 0.000000 0.000000 0.000000 0.082171
#
#
# Mechanical properties :
#
#
# Convention : Reuss Voigt Hill
#
# Bulk Modulus (GPa) = 24.32327 56.27638 40.29983
# Shear Modulus (GPa) = 22.76240 12.30286 17.53263
#
# Velocity S-wave (km/s) = 3.45952 2.54337 3.03620
# Velocity P-wave (km/s) = 5.36159 6.18180 5.78625
#
# Compressibility (1/GPa) = 0.04111289
#
# Stress axis : x y z
#
# Youngs Moduli (GPa) = 101.88401 18.15376 88.39506
#
# Poissons Ratio (x) = 0.05420 0.31449
# Poissons Ratio (y) = 0.30421 0.97291
# Poissons Ratio (z) = 0.36248 0.19981
#
# Static dielectric constant tensor:
#      x y z
#    x 3.824070 0.000000 0.000000 
#    y 0.000000 2.993420 0.000000 
#    z 0.000000 0.000000 3.677370 
# 
# 
# High freq. dielectric constant tensor:
#      x y z
#    x 1.762200 0.000000 0.000000 
#    y 0.000000 1.672790 0.000000 
#    z 0.000000 0.000000 1.749420 
# 
# From -- ./inp_files/30592.got.cif
#   From: 2010.03.12/outbox.cif.g09.slc.cpg/sg74_16_cif.got.tgz:30592.got - 2010.04.16 15:46:19.
