data_PCOD8298163
_publ_section_title
;
Structure prediction by ZEFSAII (Michael W. Deem and Ramdas Pophale) SiO2 
 PCOD8298163
Probable space group: I M M A
;
_chemical_formula_sum "Si O2"
_cell_formula_units_Z 88
_cell_length_a 25.125563
_cell_length_b 9.063619
_cell_length_c 27.717132
_cell_angle_alpha 90.000000
_cell_angle_beta 90.000000
_cell_angle_gamma 90.000000
_cell_volume 6311.981732
_symmetry_space_group_name_H-M "I M M A"
_symmetry_group_IT_number 74
_symmetry_cell_setting 'orthorhombic'
loop_
_space_group_symop_operation_xyz
x,y,z
-x,1/2-y,z
x,-y,-z
-x,1/2+y,-z
-x,-y,-z
x,1/2+y,-z
-x,y,z
x,1/2-y,z
1/2+x,1/2+y,1/2+z
1/2-x,-y,1/2+z
1/2+x,1/2-y,1/2-z
1/2-x,y,1/2-z
1/2-x,1/2-y,1/2-z
1/2+x,y,1/2-z
1/2-x,1/2+y,1/2+z
1/2+x,-y,1/2+z
loop_
_atom_site_type_symbol
_atom_site_label
_atom_site_fract_x
_atom_site_fract_y
_atom_site_fract_z
Si Si1 0.807577 0.584838 0.725583
Si Si2 0.390626 0.424318 0.399167
Si Si3 0.736024 0.412733 0.856955
Si Si4 0.000000 0.920682 0.949380
Si Si5 0.293324 0.925623 0.450483
Si Si6 0.351207 0.084719 0.690305
O O1 0.829898 0.750000 0.722338
O O2 0.750000 0.582027 0.750000
O O3 0.803685 0.521987 0.671074
O O4 0.849129 0.488833 0.756736
O O5 0.378977 0.250000 0.398733
O O6 0.448701 0.464789 0.418428
O O7 0.348980 0.504182 0.434207
O O8 0.387647 0.486293 0.344769
O O9 0.710303 0.250000 0.855750
O O10 0.746669 0.463423 0.911986
O O11 0.792435 0.408363 0.830779
O O12 0.000000 0.750000 0.961650
O O13 0.000000 0.000000 0.000000
O O14 0.301136 0.750000 0.455720
O O15 0.274793 0.000000 0.500000
O O16 0.374831 0.250000 0.694667
#
# Coordination Sequence:
#
# PCOD8298163 Si02
#       6
#    16  16  16   8  16  16
#     4   9  15  22  35  54  72  90 111 135 166 205
#     4  10  19  31  43  55  70  88 115 150 188 227
#     4   8  15  25  35  49  70  92 113 139 171 207
#     4  10  22  34  44  56  70  90 116 152 193 230
#     4  10  19  29  40  54  71  93 120 150 184 217
#     4   9  16  26  39  54  71  90 110 136 174 215
#
# _framework density 13.941738000000001
#
# number of rings (size 3 to 8) (size 9 to 14) (size 15 to 20)
#    0.000    2.727    0.000    3.818    0.000   10.182 
#    0.000    0.000    0.000    0.000    0.000    0.000 
#    0.000    0.000    0.000    0.000    0.000    0.000 
#
# Total GULP energy -545438.086521 kJ/mol
# GULP energy per Si atom -12396.320148 kJ/mol
# Density = 1.391001 g / cm^3
# Si number density = 13.941738 Si / 1000 Ang^3
#
#
#
# Elastic Constant Matrix: (Units=GPa)
#
#
# Indices 1 2 3 4 5 6 
#
# 1 25.0917 25.5326 38.8523 0.0000 0.0000 0.0000
# 2 25.5326 102.8360 65.3515 0.0000 0.0000 0.0000
# 3 38.8523 65.3515 121.2754 0.0000 0.0000 0.0000
# 4 0.0000 0.0000 0.0000 28.8299 0.0000 0.0000
# 5 0.0000 0.0000 0.0000 0.0000 14.6617 0.0000
# 6 0.0000 0.0000 0.0000 0.0000 0.0000 13.0700
#
#
#
# Elastic Compliance Matrix: (Units=1/GPa)
#
#
# Indices 1 2 3 4 5 6 
#
# 1 0.081087 -0.005512 -0.023007 0.000000 0.000000 0.000000
# 2 -0.005512 0.015163 -0.006405 0.000000 0.000000 0.000000
# 3 -0.023007 -0.006405 0.019068 0.000000 0.000000 0.000000
# 4 0.000000 0.000000 0.000000 0.034686 0.000000 0.000000
# 5 0.000000 0.000000 0.000000 0.000000 0.068205 0.000000
# 6 0.000000 0.000000 0.000000 0.000000 0.000000 0.076511
#
#
# Mechanical properties :
#
#
# Convention : Reuss Voigt Hill
#
# Bulk Modulus (GPa) = 21.99256 56.51953 39.25604
# Shear Modulus (GPa) = 13.16738 19.27677 16.22207
#
# Velocity S-wave (km/s) = 3.07654 3.72246 3.41480
# Velocity P-wave (km/s) = 5.33188 7.68787 6.61560
#
# Compressibility (1/GPa) = 0.04546992
#
# Stress axis : x y z
#
# Youngs Moduli (GPa) = 12.33237 65.94946 52.44387
#
# Poissons Ratio (x) = 0.36349 1.20660
# Poissons Ratio (y) = 0.06797 0.33591
# Poissons Ratio (z) = 0.28374 0.42242
#
# Static dielectric constant tensor:
#      x y z
#    x 2.309090 0.000000 0.000000 
#    y 0.000000 2.976500 0.000000 
#    z 0.000000 0.000000 3.114480 
# 
# 
# High freq. dielectric constant tensor:
#      x y z
#    x 1.458570 0.000000 0.000000 
#    y 0.000000 1.552170 0.000000 
#    z 0.000000 0.000000 1.532690 
# 
# From -- ./inp_files/57756.got.cif
#   From: 2010.03.12/outbox.cif.g09.slc.cpg/sg74_29_cif.got.tgz:57756.got - 2010.04.16 15:46:19.
