data_PCOD8298942
_publ_section_title
;
Structure prediction by ZEFSAII (Michael W. Deem and Ramdas Pophale) SiO2 
 PCOD8298942
Probable space group: I M M A
;
_chemical_formula_sum "Si O2"
_cell_formula_units_Z 88
_cell_length_a 27.797401
_cell_length_b 8.869773
_cell_length_c 19.065165
_cell_angle_alpha 90.000000
_cell_angle_beta 90.000000
_cell_angle_gamma 90.000000
_cell_volume 4700.642964
_symmetry_space_group_name_H-M "I M M A"
_symmetry_group_IT_number 74
_symmetry_cell_setting 'orthorhombic'
loop_
_space_group_symop_operation_xyz
x,y,z
-x,1/2-y,z
x,-y,-z
-x,1/2+y,-z
-x,-y,-z
x,1/2+y,-z
-x,y,z
x,1/2-y,z
1/2+x,1/2+y,1/2+z
1/2-x,-y,1/2+z
1/2+x,1/2-y,1/2-z
1/2-x,y,1/2-z
1/2-x,1/2-y,1/2-z
1/2+x,y,1/2-z
1/2-x,1/2+y,1/2+z
1/2+x,-y,1/2+z
loop_
_atom_site_type_symbol
_atom_site_label
_atom_site_fract_x
_atom_site_fract_y
_atom_site_fract_z
Si Si1 0.500000 0.428731 0.575883
Si Si2 0.825519 0.928008 0.077075
Si Si3 0.944870 0.576426 0.691871
Si Si4 0.278914 0.576702 0.073084
Si Si5 0.911804 0.073496 0.154729
Si Si6 0.116953 0.572876 0.424170
O O1 0.500000 0.250000 0.569721
O O2 0.500000 0.500000 0.500000
O O3 0.452857 0.481759 0.615830
O O4 0.837233 0.750000 0.071867
O O5 0.772027 0.955150 0.111934
O O6 0.860622 0.011412 0.130385
O O7 0.831015 0.000000 0.000000
O O8 0.941038 0.750000 0.670365
O O9 0.915491 0.543439 0.762548
O O10 0.923561 0.480033 0.628962
O O11 0.000000 0.528484 0.704030
O O12 0.283678 0.750000 0.055840
O O13 0.329860 0.526045 0.107817
O O14 0.272878 0.500000 0.000000
O O15 0.917446 0.250000 0.137138
O O16 0.108775 0.500000 0.500000
O O17 0.111741 0.750000 0.433491
#
# Coordination Sequence:
#
# PCOD8298942 Si02
#       6
#     8  16  16  16  16  16
#     4  12  24  38  58  82 109 144 189 234 276 326
#     4  10  19  33  54  82 113 148 187 229 273 325
#     4  10  22  41  60  78 107 147 184 228 283 332
#     4   8  16  31  52  79 112 144 178 222 274 323
#     4  11  22  39  57  78 110 148 187 231 279 326
#     4  10  20  36  60  88 113 142 181 227 275 332
#
# _framework density 18.720842000000001
#
# number of rings (size 3 to 8) (size 9 to 14) (size 15 to 20)
#    0.000    2.000    0.909    3.000    0.000    3.636 
#    0.000    0.909    0.000    5.455    0.000    0.000 
#    0.000    0.000    0.000    0.000    0.000    0.000 
#
# Total GULP energy -545233.692775 kJ/mol
# GULP energy per Si atom -12391.674836 kJ/mol
# Density = 1.867823 g / cm^3
# Si number density = 18.720842 Si / 1000 Ang^3
#
#
#
# Elastic Constant Matrix: (Units=GPa)
#
#
# Indices 1 2 3 4 5 6 
#
# 1 102.7688 46.6890 52.6666 0.0000 0.0000 0.0000
# 2 46.6890 96.5657 50.7123 0.0000 0.0000 0.0000
# 3 52.6666 50.7123 89.7072 0.0000 0.0000 0.0000
# 4 0.0000 0.0000 0.0000 28.9949 0.0000 0.0000
# 5 0.0000 0.0000 0.0000 0.0000 69.5412 0.0000
# 6 0.0000 0.0000 0.0000 0.0000 0.0000 27.9999
#
#
#
# Elastic Compliance Matrix: (Units=1/GPa)
#
#
# Indices 1 2 3 4 5 6 
#
# 1 0.014785 -0.003684 -0.006598 0.000000 0.000000 0.000000
# 2 -0.003684 0.015646 -0.006682 0.000000 0.000000 0.000000
# 3 -0.006598 -0.006682 0.018798 0.000000 0.000000 0.000000
# 4 0.000000 0.000000 0.000000 0.034489 0.000000 0.000000
# 5 0.000000 0.000000 0.000000 0.000000 0.014380 0.000000
# 6 0.000000 0.000000 0.000000 0.000000 0.000000 0.035714
#
#
# Mechanical properties :
#
#
# Convention : Reuss Voigt Hill
#
# Bulk Modulus (GPa) = 65.35007 65.46417 65.40712
# Shear Modulus (GPa) = 28.92827 34.57212 31.75019
#
# Velocity S-wave (km/s) = 3.93522 4.30201 4.12270
# Velocity P-wave (km/s) = 7.45865 7.72793 7.59448
#
# Compressibility (1/GPa) = 0.01530220
#
# Stress axis : x y z
#
# Youngs Moduli (GPa) = 67.63407 63.91480 53.19575
#
# Poissons Ratio (x) = 0.23544 0.35099
# Poissons Ratio (y) = 0.24914 0.35546
# Poissons Ratio (z) = 0.44625 0.42708
#
# Static dielectric constant tensor:
#      x y z
#    x 4.056620 0.000000 0.000000 
#    y 0.000000 3.433500 0.000000 
#    z 0.000000 0.000000 3.128390 
# 
# 
# High freq. dielectric constant tensor:
#      x y z
#    x 1.749670 0.000000 0.000000 
#    y 0.000000 1.738490 0.000000 
#    z 0.000000 0.000000 1.697250 
# 
# From -- ./inp_files/47061.got.cif
#   From: 2010.03.12/outbox.cif.g09.slc.cpg/sg74_24_cif.got.tgz:47061.got - 2010.04.16 15:46:19.
