data_PCOD8298886
_publ_section_title
;
Structure prediction by ZEFSAII (Michael W. Deem and Ramdas Pophale) SiO2 
 PCOD8298886
Probable space group: I M M A
;
_chemical_formula_sum "Si O2"
_cell_formula_units_Z 56
_cell_length_a 8.941015
_cell_length_b 35.034949
_cell_length_c 10.082351
_cell_angle_alpha 90.000000
_cell_angle_beta 90.000000
_cell_angle_gamma 90.000000
_cell_volume 3158.276332
_symmetry_space_group_name_H-M "I M M A"
_symmetry_group_IT_number 74
_symmetry_cell_setting 'orthorhombic'
loop_
_space_group_symop_operation_xyz
x,y,z
-x,1/2-y,z
x,-y,-z
-x,1/2+y,-z
-x,-y,-z
x,1/2+y,-z
-x,y,z
x,1/2-y,z
1/2+x,1/2+y,1/2+z
1/2-x,-y,1/2+z
1/2+x,1/2-y,1/2-z
1/2-x,y,1/2-z
1/2-x,1/2-y,1/2-z
1/2+x,y,1/2-z
1/2-x,1/2+y,1/2+z
1/2+x,-y,1/2+z
loop_
_atom_site_type_symbol
_atom_site_label
_atom_site_fract_x
_atom_site_fract_y
_atom_site_fract_z
Si Si1 0.323950 0.385333 0.887633
Si Si2 0.825350 0.973277 0.384221
Si Si3 0.671000 0.250000 0.387313
Si Si4 0.176834 0.832840 0.894941
O O1 0.500000 0.377518 0.879758
O O2 0.250000 0.371785 0.750000
O O3 0.286191 0.429464 0.915146
O O4 0.252920 0.362802 0.008764
O O5 0.750000 0.987395 0.250000
O O6 0.000000 0.979504 0.367158
O O7 0.760447 0.000000 0.500000
O O8 0.500000 0.250000 0.348946
O O9 0.750000 0.250000 0.250000
O O10 0.709109 0.290345 0.459065
O O11 0.250000 0.836786 0.750000
O O12 0.000000 0.840995 0.884174
#
# Coordination Sequence:
#
# PCOD8298886 Si02
#       4
#    16  16   8  16
#     4  10  20  35  53  74 102 135 169 206 251 299
#     4   9  19  35  53  74 100 130 165 204 246 294
#     4   8  16  30  49  72  99 130 164 204 248 294
#     4  10  19  33  53  77 103 132 168 208 250 296
#
# _framework density 17.731190000000002
#
# number of rings (size 3 to 8) (size 9 to 14) (size 15 to 20)
#    0.000    2.571    0.000    1.714    0.000    4.000 
#    0.000    3.571    0.000    0.000    0.000    0.000 
#    0.000    0.000    0.000    0.000    0.000    0.000 
#
# Total GULP energy -347002.693657 kJ/mol
# GULP energy per Si atom -12392.953345 kJ/mol
# Density = 1.769083 g / cm^3
# Si number density = 17.731190 Si / 1000 Ang^3
#
#
#
# Elastic Constant Matrix: (Units=GPa)
#
#
# Indices 1 2 3 4 5 6 
#
# 1 74.3745 50.1715 56.9656 0.0018 -0.0001 -0.0019
# 2 50.1715 103.2766 86.3795 0.0007 0.0010 -0.0046
# 3 56.9656 86.3795 136.3332 0.0117 0.0012 -0.0096
# 4 0.0018 0.0007 0.0117 23.4663 0.0004 -0.0018
# 5 -0.0001 0.0010 0.0012 0.0004 35.0935 0.0007
# 6 -0.0019 -0.0046 -0.0096 -0.0018 0.0007 12.1177
#
#
#
# Elastic Compliance Matrix: (Units=1/GPa)
#
#
# Indices 1 2 3 4 5 6 
#
# 1 0.021510 -0.006238 -0.005036 0.000001 0.000000 -0.000003
# 2 -0.006238 0.022407 -0.011591 0.000006 0.000000 -0.000002
# 3 -0.005036 -0.011591 0.016783 -0.000008 0.000000 0.000008
# 4 0.000001 0.000006 -0.000008 0.042614 0.000000 0.000006
# 5 0.000000 0.000000 0.000000 0.000000 0.028495 -0.000002
# 6 -0.000003 -0.000002 0.000008 0.000006 -0.000002 0.082524
#
#
# Mechanical properties :
#
#
# Convention : Reuss Voigt Hill
#
# Bulk Modulus (GPa) = 66.79073 77.89083 72.34078
# Shear Modulus (GPa) = 18.86411 22.16668 20.51539
#
# Velocity S-wave (km/s) = 3.26528 3.53958 3.40519
# Velocity P-wave (km/s) = 7.20877 7.79288 7.50651
#
# Compressibility (1/GPa) = 0.01497214
#
# Stress axis : x y z
#
# Youngs Moduli (GPa) = 46.48922 44.62792 59.58469
#
# Poissons Ratio (x) = 0.27839 0.30004
# Poissons Ratio (y) = 0.29000 0.69063
# Poissons Ratio (z) = 0.23410 0.51727
#
# Static dielectric constant tensor:
#      x y z
#    x 3.388580 0.000000 0.000000 
#    y 0.000000 3.932570 0.000000 
#    z 0.000000 0.000000 3.165690 
# 
# 
# High freq. dielectric constant tensor:
#      x y z
#    x 1.697120 0.000000 0.000000 
#    y 0.000000 1.696800 0.000000 
#    z 0.000000 0.000000 1.668470 
# 
# From -- ./inp_files/15777.got.cif
#   From: 2010.03.12/outbox.cif.g09.slc.cpg/sg74_8_cif.got.tgz:15777.got - 2010.04.16 15:46:19.
