data_PCOD8298985
_publ_section_title
;
Structure prediction by ZEFSAII (Michael W. Deem and Ramdas Pophale) SiO2 
 PCOD8298985
Probable space group: I M M A
;
_chemical_formula_sum "Si O2"
_cell_formula_units_Z 80
_cell_length_a 10.357017
_cell_length_b 17.271231
_cell_length_c 22.960132
_cell_angle_alpha 90.000000
_cell_angle_beta 90.000000
_cell_angle_gamma 90.000000
_cell_volume 4107.072435
_symmetry_space_group_name_H-M "I M M A"
_symmetry_group_IT_number 74
_symmetry_cell_setting 'orthorhombic'
loop_
_space_group_symop_operation_xyz
x,y,z
-x,1/2-y,z
x,-y,-z
-x,1/2+y,-z
-x,-y,-z
x,1/2+y,-z
-x,y,z
x,1/2-y,z
1/2+x,1/2+y,1/2+z
1/2-x,-y,1/2+z
1/2+x,1/2-y,1/2-z
1/2-x,y,1/2-z
1/2-x,1/2-y,1/2-z
1/2+x,y,1/2-z
1/2-x,1/2+y,1/2+z
1/2+x,-y,1/2+z
loop_
_atom_site_type_symbol
_atom_site_label
_atom_site_fract_x
_atom_site_fract_y
_atom_site_fract_z
Si Si1 0.738288 0.389262 0.616419
Si Si2 0.500000 0.426733 0.176558
Si Si3 0.147771 0.338949 0.006275
Si Si4 0.500000 0.389566 0.693462
Si Si5 0.500000 0.610694 0.176076
Si Si6 0.000000 0.926611 0.807098
Si Si7 0.761069 0.573195 0.883787
O O1 0.719648 0.348970 0.554683
O O2 0.626819 0.360136 0.660003
O O3 0.734505 0.481295 0.608862
O O4 0.873956 0.359992 0.642086
O O5 0.500000 0.518692 0.180042
O O6 0.500000 0.391912 0.241908
O O7 0.626162 0.397403 0.142642
O O8 0.153144 0.250000 0.025712
O O9 0.222945 0.390121 0.053007
O O10 0.000000 0.368011 0.000868
O O11 0.500000 0.354758 0.758576
O O12 0.500000 0.481554 0.696281
O O13 0.126206 0.896952 0.841055
#
# Coordination Sequence:
#
# PCOD8298985 Si02
#       7
#    16   8  16   8   8   8  16
#     4  10  19  33  56  82 107 137 174 213 255 308
#     4   9  18  31  51  84 116 135 162 213 266 305
#     4  11  23  38  55  74 102 138 179 224 264 305
#     4   9  16  29  53  82 110 139 170 207 254 309
#     4   9  18  31  51  84 116 135 162 213 266 305
#     4   9  16  29  53  82 110 139 170 207 254 309
#     4  10  19  33  56  82 107 137 174 213 255 308
#
# _framework density 19.478594999999999
#
# number of rings (size 3 to 8) (size 9 to 14) (size 15 to 20)
#    0.000    2.200    2.000    1.800    0.000    6.400 
#    0.000    5.000    0.000    7.200    0.000    0.000 
#    0.000    0.000    0.000    0.000    0.000    0.000 
#
# Total GULP energy -496106.079764 kJ/mol
# GULP energy per Si atom -12402.651994 kJ/mol
# Density = 1.943426 g / cm^3
# Si number density = 19.478595 Si / 1000 Ang^3
#
#
#
# Elastic Constant Matrix: (Units=GPa)
#
#
# Indices 1 2 3 4 5 6 
#
# 1 175.4984 12.8417 68.5754 0.0000 0.0000 0.0000
# 2 12.8417 22.8301 11.0414 0.0000 0.0000 0.0000
# 3 68.5754 11.0414 136.8933 0.0000 0.0000 0.0000
# 4 0.0000 0.0000 0.0000 -2.9022 0.0000 0.0000
# 5 0.0000 0.0000 0.0000 0.0000 33.6990 0.0000
# 6 0.0000 0.0000 0.0000 0.0000 0.0000 11.3660
#
#
#
# Elastic Compliance Matrix: (Units=1/GPa)
#
#
# Indices 1 2 3 4 5 6 
#
# 1 0.007209 -0.002402 -0.003418 0.000000 0.000000 0.000000
# 2 -0.002402 0.046380 -0.002538 0.000000 0.000000 0.000000
# 3 -0.003418 -0.002538 0.009222 0.000000 0.000000 0.000000
# 4 0.000000 0.000000 0.000000 -0.344565 0.000000 0.000000
# 5 0.000000 0.000000 0.000000 0.000000 0.029674 0.000000
# 6 0.000000 0.000000 0.000000 0.000000 0.000000 0.087982
#
#
# Mechanical properties :
#
#
# Convention : Reuss Voigt Hill
#
# Bulk Modulus (GPa) = 21.69364 57.79318 39.74341
# Shear Modulus (GPa) = -37.87400 24.61678 -6.62861
#
# Velocity S-wave (km/s) = -4.41431 3.55883 -1.84673
# Velocity P-wave (km/s) = 3.84969 6.82800 3.98757
#
# Compressibility (1/GPa) = 0.04609646
#
# Stress axis : x y z
#
# Youngs Moduli (GPa) = 138.71029 21.56085 108.44026
#
# Poissons Ratio (x) = 0.05179 0.37061
# Poissons Ratio (y) = 0.33321 0.27517
# Poissons Ratio (z) = 0.47406 0.05471
#
# Static dielectric constant tensor:
#      x y z
#    x 3.762460 0.000000 0.000000 
#    y 0.000000 3.023610 0.000000 
#    z 0.000000 0.000000 3.652370 
# 
# 
# High freq. dielectric constant tensor:
#      x y z
#    x 1.768780 0.000000 0.000000 
#    y 0.000000 1.709050 0.000000 
#    z 0.000000 0.000000 1.772320 
# 
# From -- ./inp_files/56915.got.cif
#   From: 2010.03.12/outbox.cif.g09.slc.cpg/sg74_29_cif.got.tgz:56915.got - 2010.04.16 15:46:19.
