data_PCOD8298997
_publ_section_title
;
Structure prediction by ZEFSAII (Michael W. Deem and Ramdas Pophale) SiO2 
 PCOD8298997
Probable space group: I M M A
;
_chemical_formula_sum "Si O2"
_cell_formula_units_Z 88
_cell_length_a 21.215336
_cell_length_b 9.275428
_cell_length_c 23.034528
_cell_angle_alpha 90.000000
_cell_angle_beta 90.000000
_cell_angle_gamma 90.000000
_cell_volume 4532.764861
_symmetry_space_group_name_H-M "I M M A"
_symmetry_group_IT_number 74
_symmetry_cell_setting 'orthorhombic'
loop_
_space_group_symop_operation_xyz
x,y,z
-x,1/2-y,z
x,-y,-z
-x,1/2+y,-z
-x,-y,-z
x,1/2+y,-z
-x,y,z
x,1/2-y,z
1/2+x,1/2+y,1/2+z
1/2-x,-y,1/2+z
1/2+x,1/2-y,1/2-z
1/2-x,y,1/2-z
1/2-x,1/2-y,1/2-z
1/2+x,y,1/2-z
1/2-x,1/2+y,1/2+z
1/2+x,-y,1/2+z
loop_
_atom_site_type_symbol
_atom_site_label
_atom_site_fract_x
_atom_site_fract_y
_atom_site_fract_z
Si Si1 0.381984 0.919844 0.118759
Si Si2 0.573895 0.091777 0.447542
Si Si3 0.754501 0.414293 0.556629
Si Si4 0.500000 0.425563 0.063230
Si Si5 0.682197 0.084028 0.764453
Si Si6 0.357589 0.586630 0.361489
O O1 0.401555 0.750000 0.121573
O O2 0.326729 0.945502 0.072490
O O3 0.356643 0.979374 0.181108
O O4 0.439586 0.020001 0.099173
O O5 0.500000 0.103268 0.455526
O O6 0.604652 0.250000 0.449020
O O7 0.604357 0.000000 0.500000
O O8 0.588683 0.016200 0.386709
O O9 0.733765 0.500000 0.500000
O O10 0.744896 0.250000 0.540066
O O11 0.710565 0.455766 0.611669
O O12 0.500000 0.250000 0.057774
O O13 0.500000 0.500000 0.000000
O O14 0.696283 0.250000 0.780852
O O15 0.750000 0.009658 0.750000
O O16 0.639864 0.066110 0.707437
O O17 0.374697 0.750000 0.378104
#
# Coordination Sequence:
#
# PCOD8298997 Si02
#       6
#    16  16  16   8  16  16
#     4  10  20  38  63  88 117 154 196 241 292 351
#     4  10  21  37  55  76 107 147 187 231 280 332
#     4  10  20  32  52  83 115 145 181 231 285 340
#     4  12  26  44  64  88 120 158 203 254 305 358
#     4   9  16  33  61  88 115 147 187 232 279 335
#     4  10  19  33  56  85 113 145 186 231 279 337
#
# _framework density 19.414197999999999
#
# number of rings (size 3 to 8) (size 9 to 14) (size 15 to 20)
#    0.000    2.000    1.818    2.455    0.000    5.455 
#    1.636    0.909    0.000    1.091    0.000    0.000 
#    0.000    0.000    0.000    0.000    0.000    0.000 
#
# Total GULP energy -545471.502099 kJ/mol
# GULP energy per Si atom -12397.079593 kJ/mol
# Density = 1.937001 g / cm^3
# Si number density = 19.414198 Si / 1000 Ang^3
#
#
#
# Elastic Constant Matrix: (Units=GPa)
#
#
# Indices 1 2 3 4 5 6 
#
# 1 59.5389 37.2890 42.5038 0.0000 0.0000 0.0000
# 2 37.2890 97.3823 55.5259 0.0000 0.0000 0.0000
# 3 42.5038 55.5259 129.1782 0.0000 0.0000 0.0000
# 4 0.0000 0.0000 0.0000 23.6201 0.0000 0.0000
# 5 0.0000 0.0000 0.0000 0.0000 32.7337 0.0000
# 6 0.0000 0.0000 0.0000 0.0000 0.0000 25.3128
#
#
#
# Elastic Compliance Matrix: (Units=1/GPa)
#
#
# Indices 1 2 3 4 5 6 
#
# 1 0.024610 -0.006367 -0.005361 0.000000 0.000000 0.000000
# 2 -0.006367 0.015250 -0.004460 0.000000 0.000000 0.000000
# 3 -0.005361 -0.004460 0.011422 0.000000 0.000000 0.000000
# 4 0.000000 0.000000 0.000000 0.042337 0.000000 0.000000
# 5 0.000000 0.000000 0.000000 0.000000 0.030550 0.000000
# 6 0.000000 0.000000 0.000000 0.000000 0.000000 0.039506
#
#
# Mechanical properties :
#
#
# Convention : Reuss Voigt Hill
#
# Bulk Modulus (GPa) = 52.89114 61.85962 57.37538
# Shear Modulus (GPa) = 24.70936 26.38537 25.54737
#
# Velocity S-wave (km/s) = 3.57143 3.69056 3.63148
# Velocity P-wave (km/s) = 6.65654 7.07761 6.87030
#
# Compressibility (1/GPa) = 0.01890676
#
# Stress axis : x y z
#
# Youngs Moduli (GPa) = 40.63329 65.57436 87.54858
#
# Poissons Ratio (x) = 0.41751 0.46933
# Poissons Ratio (y) = 0.25871 0.39047
# Poissons Ratio (z) = 0.21783 0.29246
#
# Static dielectric constant tensor:
#      x y z
#    x 3.440050 0.000000 0.000000 
#    y 0.000000 3.449780 0.000000 
#    z 0.000000 0.000000 3.635080 
# 
# 
# High freq. dielectric constant tensor:
#      x y z
#    x 1.752380 0.000000 0.000000 
#    y 0.000000 1.727590 0.000000 
#    z 0.000000 0.000000 1.763760 
# 
# From -- ./inp_files/54500.got.cif
#   From: 2010.03.12/outbox.cif.g09.slc.cpg/sg74_28_cif.got.tgz:54500.got - 2010.04.16 15:46:19.
