data_PCOD8298248
_publ_section_title
;
Structure prediction by ZEFSAII (Michael W. Deem and Ramdas Pophale) SiO2 
 PCOD8298248
Probable space group: I M M A
;
_chemical_formula_sum "Si O2"
_cell_formula_units_Z 96
_cell_length_a 17.193827
_cell_length_b 14.582221
_cell_length_c 25.931388
_cell_angle_alpha 90.000000
_cell_angle_beta 90.000000
_cell_angle_gamma 90.000000
_cell_volume 6501.626126
_symmetry_space_group_name_H-M "I M M A"
_symmetry_group_IT_number 74
_symmetry_cell_setting 'orthorhombic'
loop_
_space_group_symop_operation_xyz
x,y,z
-x,1/2-y,z
x,-y,-z
-x,1/2+y,-z
-x,-y,-z
x,1/2+y,-z
-x,y,z
x,1/2-y,z
1/2+x,1/2+y,1/2+z
1/2-x,-y,1/2+z
1/2+x,1/2-y,1/2-z
1/2-x,y,1/2-z
1/2-x,1/2-y,1/2-z
1/2+x,y,1/2-z
1/2-x,1/2+y,1/2+z
1/2+x,-y,1/2+z
loop_
_atom_site_type_symbol
_atom_site_label
_atom_site_fract_x
_atom_site_fract_y
_atom_site_fract_z
Si Si1 0.661731 0.940457 0.051059
Si Si2 0.908001 0.250000 0.400824
Si Si3 0.407584 0.250000 0.984182
Si Si4 0.413104 0.858215 0.307822
Si Si5 0.230916 0.644567 0.128002
Si Si6 0.821885 0.059731 0.716653
Si Si7 0.090460 0.942667 0.638411
O O1 0.622289 0.842110 0.042720
O O2 0.743236 0.920791 0.080636
O O3 0.603658 0.997860 0.087009
O O4 0.678343 0.000000 0.000000
O O5 0.873125 0.250000 0.458217
O O6 0.879408 0.339646 0.370884
O O7 0.000000 0.250000 0.406245
O O8 0.500000 0.250000 0.982068
O O9 0.500000 0.893595 0.320900
O O10 0.410649 0.750000 0.302942
O O11 0.354622 0.888977 0.353571
O O12 0.387392 0.896182 0.252531
O O13 0.229932 0.750000 0.109992
O O14 0.290855 0.635310 0.175943
O O15 0.750000 0.021180 0.750000
O O16 0.860056 0.975361 0.686931
O O17 0.000000 0.946324 0.652373
#
# Coordination Sequence:
#
# PCOD8298248 Si02
#       7
#    16   8   8  16  16  16  16
#     4  11  20  30  45  64  89 119 145 176 213 254
#     4   9  18  30  43  59  83 115 148 182 214 244
#     4  11  20  30  44  63  87 117 151 178 209 252
#     4   9  16  27  45  66  87 113 144 177 216 262
#     4   9  17  29  43  62  89 117 143 175 215 256
#     4   9  17  28  43  63  88 115 142 175 217 257
#     4  10  19  30  44  62  86 116 148 180 212 250
#
# _framework density 14.765536000000001
#
# number of rings (size 3 to 8) (size 9 to 14) (size 15 to 20)
#    0.000    2.333    2.500    1.500    0.000    2.667 
#    0.000    0.417    0.000    0.500    0.000    0.000 
#    0.000    0.000    0.000    0.000    0.000    0.000 
#
# Total GULP energy -595041.588770 kJ/mol
# GULP energy per Si atom -12396.699766 kJ/mol
# Density = 1.473193 g / cm^3
# Si number density = 14.765536 Si / 1000 Ang^3
#
#
#
# Elastic Constant Matrix: (Units=GPa)
#
#
# Indices 1 2 3 4 5 6 
#
# 1 91.9291 35.3605 44.3535 0.0000 0.0000 0.0000
# 2 35.3605 76.7817 34.0622 0.0000 0.0000 0.0000
# 3 44.3535 34.0622 80.5329 0.0000 0.0000 0.0000
# 4 0.0000 0.0000 0.0000 24.9334 0.0000 0.0000
# 5 0.0000 0.0000 0.0000 0.0000 20.5319 0.0000
# 6 0.0000 0.0000 0.0000 0.0000 0.0000 15.5864
#
#
#
# Elastic Compliance Matrix: (Units=1/GPa)
#
#
# Indices 1 2 3 4 5 6 
#
# 1 0.015852 -0.004219 -0.006946 0.000000 0.000000 0.000000
# 2 -0.004219 0.017155 -0.004932 0.000000 0.000000 0.000000
# 3 -0.006946 -0.004932 0.018329 0.000000 0.000000 0.000000
# 4 0.000000 0.000000 0.000000 0.040107 0.000000 0.000000
# 5 0.000000 0.000000 0.000000 0.000000 0.048705 0.000000
# 6 0.000000 0.000000 0.000000 0.000000 0.000000 0.064159
#
#
# Mechanical properties :
#
#
# Convention : Reuss Voigt Hill
#
# Bulk Modulus (GPa) = 52.24273 52.97733 52.61003
# Shear Modulus (GPa) = 20.58620 21.24152 20.91386
#
# Velocity S-wave (km/s) = 3.73796 3.79699 3.76759
# Velocity P-wave (km/s) = 7.35446 7.42831 7.39148
#
# Compressibility (1/GPa) = 0.01914142
#
# Stress axis : x y z
#
# Youngs Moduli (GPa) = 63.08321 58.29211 54.55829
#
# Poissons Ratio (x) = 0.24593 0.37897
# Poissons Ratio (y) = 0.26614 0.26910
# Poissons Ratio (z) = 0.43818 0.28751
#
# Static dielectric constant tensor:
#      x y z
#    x 2.944330 0.000000 0.000000 
#    y 0.000000 2.856570 0.000000 
#    z 0.000000 0.000000 2.887390 
# 
# 
# High freq. dielectric constant tensor:
#      x y z
#    x 1.551530 0.000000 0.000000 
#    y 0.000000 1.556390 0.000000 
#    z 0.000000 0.000000 1.560640 
# 
# From -- ./inp_files/67113.got.cif
#   From: 2010.03.12/outbox.cif.g09.slc.cpg/sg74_34_cif.got.tgz:67113.got - 2010.04.16 15:46:19.
