data_PCOD8298933
_publ_section_title
;
Structure prediction by ZEFSAII (Michael W. Deem and Ramdas Pophale) SiO2 
 PCOD8298933
Probable space group: I M M A
;
_chemical_formula_sum "Si O2"
_cell_formula_units_Z 96
_cell_length_a 9.060664
_cell_length_b 22.604282
_cell_length_c 24.550187
_cell_angle_alpha 90.000000
_cell_angle_beta 90.000000
_cell_angle_gamma 90.000000
_cell_volume 5028.118992
_symmetry_space_group_name_H-M "I M M A"
_symmetry_group_IT_number 74
_symmetry_cell_setting 'orthorhombic'
loop_
_space_group_symop_operation_xyz
x,y,z
-x,1/2-y,z
x,-y,-z
-x,1/2+y,-z
-x,-y,-z
x,1/2+y,-z
-x,y,z
x,1/2-y,z
1/2+x,1/2+y,1/2+z
1/2-x,-y,1/2+z
1/2+x,1/2-y,1/2-z
1/2-x,y,1/2-z
1/2-x,1/2-y,1/2-z
1/2+x,y,1/2-z
1/2-x,1/2+y,1/2+z
1/2+x,-y,1/2+z
loop_
_atom_site_type_symbol
_atom_site_label
_atom_site_fract_x
_atom_site_fract_y
_atom_site_fract_z
Si Si1 0.325794 0.150401 0.694837
Si Si2 0.326211 0.750000 0.390556
Si Si3 0.823105 0.250000 0.491117
Si Si4 0.172294 0.643735 0.582256
Si Si5 0.824754 0.100587 0.303002
Si Si6 0.330990 0.018209 0.667899
Si Si7 0.837040 0.966970 0.944932
O O1 0.500000 0.153961 0.703046
O O2 0.250000 0.173950 0.750000
O O3 0.279268 0.191936 0.644060
O O4 0.272688 0.083066 0.684306
O O5 0.500000 0.750000 0.402442
O O6 0.243505 0.750000 0.448420
O O7 0.760890 0.195293 0.455251
O O8 0.000000 0.250000 0.496811
O O9 0.229566 0.639717 0.645071
O O10 0.211825 0.582184 0.554628
O O11 0.000000 0.652882 0.583892
O O12 0.750000 0.130233 0.250000
O O13 0.000000 0.100674 0.297740
O O14 0.770461 0.032558 0.306103
O O15 0.500000 0.008538 0.687131
O O16 0.317127 0.014629 0.602799
O O17 0.000000 0.937482 0.940735
O O18 0.814328 0.000000 0.000000
#
# Coordination Sequence:
#
# PCOD8298933 Si02
#       7
#    16   8   8  16  16  16  16
#     4  10  21  36  54  77 107 140 178 222 267 315
#     4  10  23  39  57  79 103 138 180 228 273 316
#     4  10  22  41  60  79 106 142 183 224 267 320
#     4   9  20  37  55  77 107 142 178 219 267 315
#     4  10  19  33  54  80 109 140 174 215 264 318
#     4   9  18  32  50  77 110 141 175 215 262 317
#     4   9  18  31  52  79 109 142 176 217 265 317
#
# _framework density 19.092625999999999
#
# number of rings (size 3 to 8) (size 9 to 14) (size 15 to 20)
#    0.000    2.500    0.000    1.250    2.333    4.333 
#    0.000    0.417    0.000    0.000    0.000    0.000 
#    0.000    0.000    0.000    0.000    0.000    0.000 
#
# Total GULP energy -594934.643993 kJ/mol
# GULP energy per Si atom -12394.471750 kJ/mol
# Density = 1.904917 g / cm^3
# Si number density = 19.092626 Si / 1000 Ang^3
#
#
#
# Elastic Constant Matrix: (Units=GPa)
#
#
# Indices 1 2 3 4 5 6 
#
# 1 34.7093 23.7518 50.4084 0.0000 0.0000 0.0000
# 2 23.7518 90.4429 66.0426 0.0000 0.0000 0.0000
# 3 50.4084 66.0426 162.9025 0.0000 0.0000 0.0000
# 4 0.0000 0.0000 0.0000 15.6401 0.0000 0.0000
# 5 0.0000 0.0000 0.0000 0.0000 32.7930 0.0000
# 6 0.0000 0.0000 0.0000 0.0000 0.0000 20.5304
#
#
#
# Elastic Compliance Matrix: (Units=1/GPa)
#
#
# Indices 1 2 3 4 5 6 
#
# 1 0.052803 -0.002750 -0.015225 0.000000 0.000000 0.000000
# 2 -0.002750 0.015850 -0.005575 0.000000 0.000000 0.000000
# 3 -0.015225 -0.005575 0.013110 0.000000 0.000000 0.000000
# 4 0.000000 0.000000 0.000000 0.063938 0.000000 0.000000
# 5 0.000000 0.000000 0.000000 0.000000 0.030494 0.000000
# 6 0.000000 0.000000 0.000000 0.000000 0.000000 0.048708
#
#
# Mechanical properties :
#
#
# Convention : Reuss Voigt Hill
#
# Bulk Modulus (GPa) = 28.84812 63.16227 46.00520
# Shear Modulus (GPa) = 17.63320 23.64949 20.64134
#
# Velocity S-wave (km/s) = 3.04231 3.52329 3.29160
# Velocity P-wave (km/s) = 5.24245 7.05020 6.21243
#
# Compressibility (1/GPa) = 0.03466430
#
# Stress axis : x y z
#
# Youngs Moduli (GPa) = 18.93829 63.09317 76.27896
#
# Poissons Ratio (x) = 0.17349 1.16131
# Poissons Ratio (y) = 0.05208 0.42523
# Poissons Ratio (z) = 0.28833 0.35173
#
# Static dielectric constant tensor:
#      x y z
#    x 3.423440 0.000000 0.000000 
#    y 0.000000 3.595230 0.000000 
#    z 0.000000 0.000000 3.789800 
# 
# 
# High freq. dielectric constant tensor:
#      x y z
#    x 1.729720 0.000000 0.000000 
#    y 0.000000 1.726490 0.000000 
#    z 0.000000 0.000000 1.762020 
# 
# From -- ./inp_files/57356.got.cif
#   From: 2010.03.12/outbox.cif.g09.slc.cpg/sg74_29_cif.got.tgz:57356.got - 2010.04.16 15:46:19.
