data_PCOD8298508
_publ_section_title
;
Structure prediction by ZEFSAII (Michael W. Deem and Ramdas Pophale) SiO2 
 PCOD8298508
Probable space group: I M M A
;
_chemical_formula_sum "Si O2"
_cell_formula_units_Z 104
_cell_length_a 9.075313
_cell_length_b 25.727880
_cell_length_c 21.509067
_cell_angle_alpha 90.000000
_cell_angle_beta 90.000000
_cell_angle_gamma 90.000000
_cell_volume 5022.121163
_symmetry_space_group_name_H-M "I M M A"
_symmetry_group_IT_number 74
_symmetry_cell_setting 'orthorhombic'
loop_
_space_group_symop_operation_xyz
x,y,z
-x,1/2-y,z
x,-y,-z
-x,1/2+y,-z
-x,-y,-z
x,1/2+y,-z
-x,y,z
x,1/2-y,z
1/2+x,1/2+y,1/2+z
1/2-x,-y,1/2+z
1/2+x,1/2-y,1/2-z
1/2-x,y,1/2-z
1/2-x,1/2-y,1/2-z
1/2+x,y,1/2-z
1/2-x,1/2+y,1/2+z
1/2+x,-y,1/2+z
loop_
_atom_site_type_symbol
_atom_site_label
_atom_site_fract_x
_atom_site_fract_y
_atom_site_fract_z
Si Si1 0.834860 0.369620 0.188602
Si Si2 0.172754 0.250000 0.816702
Si Si3 0.829003 0.047550 0.690334
Si Si4 0.826377 0.361327 0.868869
Si Si5 0.835207 0.809322 0.929691
Si Si6 0.168514 0.452324 0.390885
Si Si7 0.829872 0.389468 0.506192
O O1 0.750000 0.353957 0.250000
O O2 0.828243 0.319671 0.143853
O O3 0.770352 0.419611 0.154367
O O4 0.000000 0.384369 0.207459
O O5 0.250000 0.250000 0.750000
O O6 0.217794 0.198999 0.856981
O O7 0.000000 0.250000 0.803345
O O8 0.750000 0.020735 0.750000
O O9 0.753791 0.103686 0.682514
O O10 0.000000 0.055284 0.705199
O O11 0.807451 0.012698 0.627749
O O12 0.773999 0.383818 0.934739
O O13 0.000000 0.368968 0.863689
O O14 0.802814 0.750000 0.943787
O O15 0.000000 0.824683 0.954402
O O16 0.705325 0.840618 0.962590
O O17 0.204686 0.441173 0.464105
O O18 0.000000 0.435713 0.378566
O O19 0.000000 0.388620 0.527760
#
# Coordination Sequence:
#
# PCOD8298508 Si02
#       7
#    16   8  16  16  16  16  16
#     4  10  19  31  50  76 107 146 193 241 293 350
#     4  10  24  44  66  90 120 156 195 240 295 350
#     4  11  23  40  62  90 121 156 196 244 295 352
#     4  11  24  42  63  90 121 158 196 241 297 356
#     4   9  19  35  53  74 106 148 191 241 296 352
#     4   9  20  38  59  83 117 156 194 239 293 347
#     4  10  21  38  59  87 118 152 196 244 293 349
#
# _framework density 20.708382
#
# number of rings (size 3 to 8) (size 9 to 14) (size 15 to 20)
#    0.000    2.000    0.000    2.769    1.077    7.385 
#    0.000    3.077    0.000    0.000    0.000    0.000 
#    0.000    0.000    0.000    0.000    0.000    0.000 
#
# Total GULP energy -644638.640284 kJ/mol
# GULP energy per Si atom -12396.896929 kJ/mol
# Density = 2.066125 g / cm^3
# Si number density = 20.708382 Si / 1000 Ang^3
#
#
#
# Elastic Constant Matrix: (Units=GPa)
#
#
# Indices 1 2 3 4 5 6 
#
# 1 101.0334 42.0539 44.8122 0.0000 0.0000 0.0000
# 2 42.0539 97.4395 32.2991 0.0000 0.0000 0.0000
# 3 44.8122 32.2991 103.0430 -0.0002 0.0000 0.0000
# 4 0.0000 0.0000 -0.0002 21.0892 0.0000 0.0000
# 5 0.0000 0.0000 0.0000 0.0000 41.4752 0.0000
# 6 0.0000 0.0000 0.0000 0.0000 0.0000 26.6942
#
#
#
# Elastic Compliance Matrix: (Units=1/GPa)
#
#
# Indices 1 2 3 4 5 6 
#
# 1 0.013781 -0.004421 -0.004608 0.000000 0.000000 0.000000
# 2 -0.004421 0.012871 -0.002112 0.000000 0.000000 0.000000
# 3 -0.004608 -0.002112 0.012371 0.000000 0.000000 0.000000
# 4 0.000000 0.000000 0.000000 0.047418 0.000000 0.000000
# 5 0.000000 0.000000 0.000000 0.000000 0.024111 0.000000
# 6 0.000000 0.000000 0.000000 0.000000 0.000000 0.037461
#
#
# Mechanical properties :
#
#
# Convention : Reuss Voigt Hill
#
# Bulk Modulus (GPa) = 59.72921 59.98294 59.85607
# Shear Modulus (GPa) = 28.42952 30.00844 29.21898
#
# Velocity S-wave (km/s) = 3.70922 3.81083 3.76037
# Velocity P-wave (km/s) = 6.87387 6.95641 6.91526
#
# Compressibility (1/GPa) = 0.01674223
#
# Stress axis : x y z
#
# Youngs Moduli (GPa) = 72.56133 77.69581 80.83728
#
# Poissons Ratio (x) = 0.34346 0.37248
# Poissons Ratio (y) = 0.32076 0.17072
# Poissons Ratio (z) = 0.33435 0.16409
#
# Static dielectric constant tensor:
#      x y z
#    x 3.806130 0.000000 0.000000 
#    y 0.000000 3.757220 0.000000 
#    z 0.000000 0.000000 3.864060 
# 
# 
# High freq. dielectric constant tensor:
#      x y z
#    x 1.814690 0.000000 0.000000 
#    y 0.000000 1.803620 0.000000 
#    z 0.000000 0.000000 1.815210 
# 
# From -- ./inp_files/49243.got.cif
#   From: 2010.03.12/outbox.cif.g09.slc.cpg/sg74_25_cif.got.tgz:49243.got - 2010.04.16 15:46:19.
