data_PCOD8298556
_publ_section_title
;
Structure prediction by ZEFSAII (Michael W. Deem and Ramdas Pophale) SiO2 
 PCOD8298556
Probable space group: I M M A
;
_chemical_formula_sum "Si O2"
_cell_formula_units_Z 120
_cell_length_a 8.961483
_cell_length_b 26.739240
_cell_length_c 28.006333
_cell_angle_alpha 90.000000
_cell_angle_beta 90.000000
_cell_angle_gamma 90.000000
_cell_volume 6710.968385
_symmetry_space_group_name_H-M "I M M A"
_symmetry_group_IT_number 74
_symmetry_cell_setting 'orthorhombic'
loop_
_space_group_symop_operation_xyz
x,y,z
-x,1/2-y,z
x,-y,-z
-x,1/2+y,-z
-x,-y,-z
x,1/2+y,-z
-x,y,z
x,1/2-y,z
1/2+x,1/2+y,1/2+z
1/2-x,-y,1/2+z
1/2+x,1/2-y,1/2-z
1/2-x,y,1/2-z
1/2-x,1/2-y,1/2-z
1/2+x,y,1/2-z
1/2-x,1/2+y,1/2+z
1/2+x,-y,1/2+z
loop_
_atom_site_type_symbol
_atom_site_label
_atom_site_fract_x
_atom_site_fract_y
_atom_site_fract_z
Si Si1 0.174634 0.457607 0.300596
Si Si2 0.676487 0.595257 0.614069
Si Si3 0.177324 0.156305 0.863265
Si Si4 0.832331 0.308076 0.961361
Si Si5 0.828686 0.944946 0.359113
Si Si6 0.322758 0.695017 0.565389
Si Si7 0.822701 0.750000 0.198633
Si Si8 0.325455 0.512719 0.946105
O O1 0.250000 0.450307 0.250000
O O2 0.243972 0.417257 0.336468
O O3 0.207929 0.512912 0.320030
O O4 0.000000 0.447147 0.296525
O O5 0.500000 0.588997 0.619574
O O6 0.724060 0.652369 0.602542
O O7 0.731605 0.560474 0.570751
O O8 0.245930 0.163718 0.916810
O O9 0.230644 0.102619 0.844535
O O10 0.234675 0.200460 0.828883
O O11 0.000000 0.157964 0.864822
O O12 0.832276 0.250000 0.948143
O O13 0.000000 0.328630 0.964915
O O14 0.753184 0.317295 0.012718
O O15 0.000000 0.928807 0.356952
O O16 0.787930 0.965757 0.411847
O O17 0.500000 0.697006 0.559284
O O18 0.266161 0.750000 0.582739
O O19 0.750000 0.750000 0.250000
O O20 0.000000 0.750000 0.203624
O O21 0.500000 0.526202 0.941951
O O22 0.278081 0.500000 0.000000
#
# Coordination Sequence:
#
# PCOD8298556 Si02
#       8
#    16  16  16  16  16  16   8  16
#     4  10  21  39  60  78 102 135 172 215 267 318
#     4  10  19  31  52  83 111 136 175 218 257 310
#     4  10  19  32  52  73  97 128 171 220 261 307
#     4   8  13  25  45  68  97 133 169 208 250 292
#     4   9  20  35  50  73 102 133 168 209 263 316
#     4   8  15  27  46  76 112 144 171 205 254 304
#     4  10  22  38  52  72  96 130 172 216 271 320
#     4   9  19  35  50  68 104 150 182 212 264 318
#
# _framework density 17.881176
#
# number of rings (size 3 to 8) (size 9 to 14) (size 15 to 20)
#    0.000    2.800    0.667    2.400    1.867    4.000 
#    0.000    2.667    0.000    2.000    0.000    3.733 
#    0.000    0.000    0.000    0.000    0.000    0.000 
#
# Total GULP energy -743716.628345 kJ/mol
# GULP energy per Si atom -12395.277139 kJ/mol
# Density = 1.784048 g / cm^3
# Si number density = 17.881176 Si / 1000 Ang^3
#
#
#
# Elastic Constant Matrix: (Units=GPa)
#
#
# Indices 1 2 3 4 5 6 
#
# 1 47.6678 42.9005 45.9355 0.0000 0.0000 0.0000
# 2 42.9005 135.4016 78.5043 0.0000 0.0000 0.0000
# 3 45.9355 78.5043 145.0951 0.0000 0.0000 0.0000
# 4 0.0000 0.0000 0.0000 17.5172 0.0000 0.0000
# 5 0.0000 0.0000 0.0000 0.0000 25.6502 0.0000
# 6 0.0000 0.0000 0.0000 0.0000 0.0000 17.5561
#
#
#
# Elastic Compliance Matrix: (Units=1/GPa)
#
#
# Indices 1 2 3 4 5 6 
#
# 1 0.033761 -0.006557 -0.007141 0.000000 0.000000 0.000000
# 2 -0.006557 0.012035 -0.004436 0.000000 0.000000 0.000000
# 3 -0.007141 -0.004436 0.011553 0.000000 0.000000 0.000000
# 4 0.000000 0.000000 0.000000 0.057087 0.000000 0.000000
# 5 0.000000 0.000000 0.000000 0.000000 0.038986 0.000000
# 6 0.000000 0.000000 0.000000 0.000000 0.000000 0.056960
#
#
# Mechanical properties :
#
#
# Convention : Reuss Voigt Hill
#
# Bulk Modulus (GPa) = 47.43408 73.64946 60.54177
# Shear Modulus (GPa) = 19.71034 22.86631 21.28832
#
# Velocity S-wave (km/s) = 3.32369 3.57990 3.45417
# Velocity P-wave (km/s) = 6.42761 7.63972 7.05972
#
# Compressibility (1/GPa) = 0.02108189
#
# Stress axis : x y z
#
# Youngs Moduli (GPa) = 29.62034 83.09438 86.56049
#
# Poissons Ratio (x) = 0.54481 0.61811
# Poissons Ratio (y) = 0.19421 0.38395
# Poissons Ratio (z) = 0.21151 0.36857
#
# Static dielectric constant tensor:
#      x y z
#    x 3.012630 0.000000 0.000000 
#    y 0.000000 3.336760 0.000000 
#    z 0.000000 0.000000 3.364210 
# 
# 
# High freq. dielectric constant tensor:
#      x y z
#    x 1.663320 0.000000 0.000000 
#    y 0.000000 1.688630 0.000000 
#    z 0.000000 0.000000 1.690850 
# 
# From -- ./inp_files/65050.got.cif
#   From: 2010.03.12/outbox.cif.g09.slc.cpg/sg74_33_cif.got.tgz:65050.got - 2010.04.16 15:46:19.
