data_PCOD8298980
_publ_section_title
;
Structure prediction by ZEFSAII (Michael W. Deem and Ramdas Pophale) SiO2 
 PCOD8298980
Probable space group: I M M A
;
_chemical_formula_sum "Si O2"
_cell_formula_units_Z 88
_cell_length_a 20.856497
_cell_length_b 24.954664
_cell_length_c 8.818299
_cell_angle_alpha 90.000000
_cell_angle_beta 90.000000
_cell_angle_gamma 90.000000
_cell_volume 4589.632522
_symmetry_space_group_name_H-M "I M M A"
_symmetry_group_IT_number 74
_symmetry_cell_setting 'orthorhombic'
loop_
_space_group_symop_operation_xyz
x,y,z
-x,1/2-y,z
x,-y,-z
-x,1/2+y,-z
-x,-y,-z
x,1/2+y,-z
-x,y,z
x,1/2-y,z
1/2+x,1/2+y,1/2+z
1/2-x,-y,1/2+z
1/2+x,1/2-y,1/2-z
1/2-x,y,1/2-z
1/2-x,1/2-y,1/2-z
1/2+x,y,1/2-z
1/2-x,1/2+y,1/2+z
1/2+x,-y,1/2+z
loop_
_atom_site_type_symbol
_atom_site_label
_atom_site_fract_x
_atom_site_fract_y
_atom_site_fract_z
Si Si1 0.572991 0.841762 0.907660
Si Si2 0.931819 0.750000 0.151681
Si Si3 0.924103 0.943160 0.076169
Si Si4 0.388214 0.163893 0.434785
Si Si5 0.719807 0.250000 0.414326
Si Si6 0.924604 0.448323 0.579735
Si Si7 0.350279 0.750000 0.062793
O O1 0.500000 0.828113 0.954277
O O2 0.578742 0.838706 0.728098
O O3 0.593708 0.899037 0.972591
O O4 0.621874 0.801563 0.982322
O O5 0.870226 0.750000 0.261062
O O6 0.000000 0.750000 0.241871
O O7 0.932986 0.696993 0.048849
O O8 0.899068 0.942519 0.249158
O O9 0.000000 0.930793 0.061421
O O10 0.882752 0.897083 0.992940
O O11 0.907685 0.000000 0.000000
O O12 0.320685 0.195290 0.430249
O O13 0.750000 0.250000 0.250000
O O14 0.773602 0.250000 0.545786
O O15 0.892906 0.500000 0.500000
O O16 0.000000 0.456474 0.591324
#
# Coordination Sequence:
#
# PCOD8298980 Si02
#       7
#    16   8  16  16   8  16   8
#     4  11  20  32  55  84 114 149 191 241 303 362
#     4  11  22  36  56  89 125 149 187 249 312 368
#     4  10  19  33  55  88 126 156 190 241 310 377
#     4  11  22  36  59  83 118 160 196 247 295 362
#     4  11  23  45  60  82 112 162 218 252 291 345
#     4   9  18  32  51  80 119 156 186 223 283 366
#     4  12  23  38  58  81 112 152 197 243 300 346
#
# _framework density 19.173648
#
# number of rings (size 3 to 8) (size 9 to 14) (size 15 to 20)
#    0.000    1.455    1.818    5.182    0.000    5.818 
#    0.000    0.000    0.000    1.091    4.727    0.000 
#    0.000    0.000    0.000    0.000    0.000    0.000 
#
# Total GULP energy -545527.908642 kJ/mol
# GULP energy per Si atom -12398.361560 kJ/mol
# Density = 1.913001 g / cm^3
# Si number density = 19.173648 Si / 1000 Ang^3
#
#
#
# Elastic Constant Matrix: (Units=GPa)
#
#
# Indices 1 2 3 4 5 6 
#
# 1 89.6853 45.7370 26.1915 0.0000 0.0000 0.0000
# 2 45.7370 149.3756 49.2159 0.0000 0.0000 0.0000
# 3 26.1915 49.2159 122.6855 0.0000 0.0000 0.0000
# 4 0.0000 0.0000 0.0000 43.6463 0.0000 0.0000
# 5 0.0000 0.0000 0.0000 0.0000 25.4290 0.0000
# 6 0.0000 0.0000 0.0000 0.0000 0.0000 7.5467
#
#
#
# Elastic Compliance Matrix: (Units=1/GPa)
#
#
# Indices 1 2 3 4 5 6 
#
# 1 0.013419 -0.003647 -0.001402 0.000000 0.000000 0.000000
# 2 -0.003647 0.008705 -0.002714 0.000000 0.000000 0.000000
# 3 -0.001402 -0.002714 0.009539 0.000000 0.000000 0.000000
# 4 0.000000 0.000000 0.000000 0.022911 0.000000 0.000000
# 5 0.000000 0.000000 0.000000 0.000000 0.039325 0.000000
# 6 0.000000 0.000000 0.000000 0.000000 0.000000 0.132509
#
#
# Mechanical properties :
#
#
# Convention : Reuss Voigt Hill
#
# Bulk Modulus (GPa) = 61.96328 67.11504 64.53916
# Shear Modulus (GPa) = 20.21727 31.36452 25.79090
#
# Velocity S-wave (km/s) = 3.25072 4.04891 3.67157
# Velocity P-wave (km/s) = 6.81738 7.54573 7.19078
#
# Compressibility (1/GPa) = 0.01613859
#
# Stress axis : x y z
#
# Youngs Moduli (GPa) = 74.51937 114.87311 104.83541
#
# Poissons Ratio (x) = 0.41894 0.14696
# Poissons Ratio (y) = 0.27177 0.28448
# Poissons Ratio (z) = 0.10446 0.31172
#
# Static dielectric constant tensor:
#      x y z
#    x 3.261700 0.000000 0.000000 
#    y 0.000000 3.656510 0.000000 
#    z 0.000000 0.000000 3.807890 
# 
# 
# High freq. dielectric constant tensor:
#      x y z
#    x 1.698540 0.000000 0.000000 
#    y 0.000000 1.758650 0.000000 
#    z 0.000000 0.000000 1.766410 
# 
# From -- ./inp_files/12498.got.cif
#   From: 2010.03.12/outbox.cif.g09.slc.cpg/sg74_7_cif.got.tgz:12498.got - 2010.04.16 15:46:19.
