data_PCOD8298085
_publ_section_title
;
Structure prediction by ZEFSAII (Michael W. Deem and Ramdas Pophale) SiO2 
 PCOD8298085
Probable space group: I M M A
;
_chemical_formula_sum "Si O2"
_cell_formula_units_Z 80
_cell_length_a 25.493315
_cell_length_b 14.153339
_cell_length_c 11.563988
_cell_angle_alpha 90.000000
_cell_angle_beta 90.000000
_cell_angle_gamma 90.000000
_cell_volume 4172.466453
_symmetry_space_group_name_H-M "I M M A"
_symmetry_group_IT_number 74
_symmetry_cell_setting 'orthorhombic'
loop_
_space_group_symop_operation_xyz
x,y,z
-x,1/2-y,z
x,-y,-z
-x,1/2+y,-z
-x,-y,-z
x,1/2+y,-z
-x,y,z
x,1/2-y,z
1/2+x,1/2+y,1/2+z
1/2-x,-y,1/2+z
1/2+x,1/2-y,1/2-z
1/2-x,y,1/2-z
1/2-x,1/2-y,1/2-z
1/2+x,y,1/2-z
1/2-x,1/2+y,1/2+z
1/2+x,-y,1/2+z
loop_
_atom_site_type_symbol
_atom_site_label
_atom_site_fract_x
_atom_site_fract_y
_atom_site_fract_z
Si Si1 0.593879 0.479909 0.820228
Si Si2 0.331655 0.855054 0.485319
Si Si3 0.439393 0.857227 0.974347
Si Si4 0.942564 0.909972 0.080118
Si Si5 0.304399 0.488764 0.311433
O O1 0.569323 0.579631 0.860474
O O2 0.560852 0.442478 0.712438
O O3 0.654352 0.496314 0.790525
O O4 0.593265 0.400939 0.920029
O O5 0.307582 0.750000 0.485158
O O6 0.393706 0.844414 0.454945
O O7 0.301292 0.916943 0.389666
O O8 0.323031 0.900568 0.610961
O O9 0.500000 0.860082 0.009743
O O10 0.420652 0.750000 0.950156
O O11 0.000000 0.860862 0.062802
O O12 0.937447 0.000000 0.000000
O O13 0.250000 0.466074 0.250000
#
# Coordination Sequence:
#
# PCOD8298085 Si02
#       5
#    16  16  16  16  16
#     4  10  19  37  57  80 111 151 188 234 277 335
#     4  10  21  39  58  86 117 144 184 236 288 342
#     4  10  21  35  54  83 116 150 187 229 277 331
#     4  10  18  34  59  86 116 153 187 223 282 347
#     4  10  22  41  59  80 110 149 188 240 290 335
#
# _framework density 19.173311999999999
#
# number of rings (size 3 to 8) (size 9 to 14) (size 15 to 20)
#    0.000    2.000    4.000    2.400    0.000    8.400 
#    0.000    2.000    0.000    0.000    0.000    0.000 
#    0.000    0.000    0.000    0.000    0.000    0.000 
#
# Total GULP energy -495905.944259 kJ/mol
# GULP energy per Si atom -12397.648606 kJ/mol
# Density = 1.912967 g / cm^3
# Si number density = 19.173312 Si / 1000 Ang^3
#
#
#
# Elastic Constant Matrix: (Units=GPa)
#
#
# Indices 1 2 3 4 5 6 
#
# 1 95.6719 24.4391 44.1885 0.0000 0.0000 0.0000
# 2 24.4391 140.6156 38.1683 0.0000 0.0000 0.0000
# 3 44.1885 38.1683 86.1312 0.0000 0.0000 0.0000
# 4 0.0000 0.0000 0.0000 8.7178 0.0000 0.0000
# 5 0.0000 0.0000 0.0000 0.0000 28.3730 0.0000
# 6 0.0000 0.0000 0.0000 0.0000 0.0000 8.6905
#
#
#
# Elastic Compliance Matrix: (Units=1/GPa)
#
#
# Indices 1 2 3 4 5 6 
#
# 1 0.013734 -0.000539 -0.006807 0.000000 0.000000 0.000000
# 2 -0.000539 0.008105 -0.003315 0.000000 0.000000 0.000000
# 3 -0.006807 -0.003315 0.016572 0.000000 0.000000 0.000000
# 4 0.000000 0.000000 0.000000 0.114707 0.000000 0.000000
# 5 0.000000 0.000000 0.000000 0.000000 0.035245 0.000000
# 6 0.000000 0.000000 0.000000 0.000000 0.000000 0.115068
#
#
# Mechanical properties :
#
#
# Convention : Reuss Voigt Hill
#
# Bulk Modulus (GPa) = 58.52100 59.55673 59.03886
# Shear Modulus (GPa) = 15.13087 23.53112 19.33099
#
# Velocity S-wave (km/s) = 2.81225 3.50706 3.17870
# Velocity P-wave (km/s) = 6.41353 6.89413 6.65817
#
# Compressibility (1/GPa) = 0.01708788
#
# Stress axis : x y z
#
# Youngs Moduli (GPa) = 72.81087 123.37841 60.34435
#
# Poissons Ratio (x) = 0.06654 0.41077
# Poissons Ratio (y) = 0.03927 0.20004
# Poissons Ratio (z) = 0.49564 0.40901
#
# Static dielectric constant tensor:
#      x y z
#    x 3.498870 0.000000 0.000000 
#    y 0.000000 3.406170 0.000000 
#    z 0.000000 0.000000 3.702450 
# 
# 
# High freq. dielectric constant tensor:
#      x y z
#    x 1.736880 0.000000 0.000000 
#    y 0.000000 1.735690 0.000000 
#    z 0.000000 0.000000 1.751900 
# 
# From -- ./inp_files/26089.got.cif
#   From: 2010.03.12/outbox.cif.g09.slc.cpg/sg74_14_cif.got.tgz:26089.got - 2010.04.16 15:46:19.
