data_PCOD8298593
_publ_section_title
;
Structure prediction by ZEFSAII (Michael W. Deem and Ramdas Pophale) SiO2 
 PCOD8298593
Probable space group: I M M A
;
_chemical_formula_sum "Si O2"
_cell_formula_units_Z 96
_cell_length_a 24.629657
_cell_length_b 8.636712
_cell_length_c 24.817229
_cell_angle_alpha 90.000000
_cell_angle_beta 90.000000
_cell_angle_gamma 90.000000
_cell_volume 5279.102443
_symmetry_space_group_name_H-M "I M M A"
_symmetry_group_IT_number 74
_symmetry_cell_setting 'orthorhombic'
loop_
_space_group_symop_operation_xyz
x,y,z
-x,1/2-y,z
x,-y,-z
-x,1/2+y,-z
-x,-y,-z
x,1/2+y,-z
-x,y,z
x,1/2-y,z
1/2+x,1/2+y,1/2+z
1/2-x,-y,1/2+z
1/2+x,1/2-y,1/2-z
1/2-x,y,1/2-z
1/2-x,1/2-y,1/2-z
1/2+x,y,1/2-z
1/2-x,1/2+y,1/2+z
1/2+x,-y,1/2+z
loop_
_atom_site_type_symbol
_atom_site_label
_atom_site_fract_x
_atom_site_fract_y
_atom_site_fract_z
Si Si1 0.439574 0.070899 0.767392
Si Si2 0.171645 0.931124 0.733945
Si Si3 0.269978 0.932019 0.329998
Si Si4 0.731724 0.579153 0.553258
Si Si5 0.106444 0.917738 0.949401
Si Si6 0.560672 0.076235 0.343543
O O1 0.500000 0.016143 0.788416
O O2 0.431038 0.250000 0.781931
O O3 0.388678 0.971065 0.789362
O O4 0.436967 0.047754 0.703672
O O5 0.182996 0.750000 0.726922
O O6 0.213396 0.028561 0.698567
O O7 0.181127 0.979746 0.797256
O O8 0.281242 0.750000 0.326930
O O9 0.263406 0.980627 0.392168
O O10 0.759440 0.500000 0.500000
O O11 0.757952 0.750000 0.561842
O O12 0.669372 0.599164 0.538557
O O13 0.078658 0.750000 0.944053
O O14 0.096375 0.999107 0.891796
O O15 0.077926 0.000000 0.000000
O O16 0.500000 0.091710 0.365465
O O17 0.581280 0.250000 0.324768
#
# Coordination Sequence:
#
# PCOD8298593 Si02
#       6
#    16  16  16  16  16  16
#     4  10  20  33  49  70  95 123 157 197 240 287
#     4  11  21  34  52  74 101 133 167 203 247 301
#     4  11  21  34  52  75 102 131 165 207 253 298
#     4  10  19  32  48  68  94 126 163 201 243 291
#     4   9  18  29  41  57  79 109 147 191 234 277
#     4   9  17  29  43  59  81 112 150 191 236 283
#
# _framework density 18.184911
#
# number of rings (size 3 to 8) (size 9 to 14) (size 15 to 20)
#    0.000    2.000    0.000    6.000    0.000    4.000 
#    0.000    0.000    0.000    0.000    0.000    0.000 
#    0.000    0.667    0.000    2.500    0.000    3.833 
#
# Total GULP energy -594627.463982 kJ/mol
# GULP energy per Si atom -12388.072166 kJ/mol
# Density = 1.814352 g / cm^3
# Si number density = 18.184911 Si / 1000 Ang^3
#
#
#
# Elastic Constant Matrix: (Units=GPa)
#
#
# Indices 1 2 3 4 5 6 
#
# 1 61.9215 11.8059 -5.5264 0.0000 0.0000 0.0000
# 2 11.8059 86.5290 14.3959 0.0000 0.0000 0.0000
# 3 -5.5264 14.3959 55.9992 0.0000 0.0000 0.0000
# 4 0.0000 0.0000 0.0000 26.7900 0.0000 0.0000
# 5 0.0000 0.0000 0.0000 0.0000 16.0640 0.0000
# 6 0.0000 0.0000 0.0000 0.0000 0.0000 19.5370
#
#
#
# Elastic Compliance Matrix: (Units=1/GPa)
#
#
# Indices 1 2 3 4 5 6 
#
# 1 0.016874 -0.002695 0.002358 0.000000 0.000000 0.000000
# 2 -0.002695 0.012503 -0.003480 0.000000 0.000000 0.000000
# 3 0.002358 -0.003480 0.018985 0.000000 0.000000 0.000000
# 4 0.000000 0.000000 0.000000 0.037327 0.000000 0.000000
# 5 0.000000 0.000000 0.000000 0.000000 0.062251 0.000000
# 6 0.000000 0.000000 0.000000 0.000000 0.000000 0.051185
#
#
# Mechanical properties :
#
#
# Convention : Reuss Voigt Hill
#
# Bulk Modulus (GPa) = 24.55303 27.31119 25.93211
# Shear Modulus (GPa) = 22.69275 24.72983 23.71129
#
# Velocity S-wave (km/s) = 3.53638 3.69170 3.61487
# Velocity P-wave (km/s) = 5.49598 5.76391 5.63154
#
# Compressibility (1/GPa) = 0.04072817
#
# Stress axis : x y z
#
# Youngs Moduli (GPa) = 59.26404 79.97785 52.67386
#
# Poissons Ratio (x) = 0.21550 -0.12420
# Poissons Ratio (y) = 0.15969 0.18332
# Poissons Ratio (z) = -0.13974 0.27834
#
# Static dielectric constant tensor:
#      x y z
#    x 3.415250 0.000000 0.000000 
#    y 0.000000 3.540320 0.000000 
#    z 0.000000 0.000000 3.154930 
# 
# 
# High freq. dielectric constant tensor:
#      x y z
#    x 1.684280 0.000000 0.000000 
#    y 0.000000 1.711650 0.000000 
#    z 0.000000 0.000000 1.672220 
# 
# From -- ./inp_files/57498.got.cif
#   From: 2010.03.12/outbox.cif.g09.slc.cpg/sg74_29_cif.got.tgz:57498.got - 2010.04.16 15:46:19.
