data_PCOD8298034
_publ_section_title
;
Structure prediction by ZEFSAII (Michael W. Deem and Ramdas Pophale) SiO2 
 PCOD8298034
Probable space group: I M M A
;
_chemical_formula_sum "Si O2"
_cell_formula_units_Z 112
_cell_length_a 28.122347
_cell_length_b 14.233597
_cell_length_c 13.732024
_cell_angle_alpha 90.000000
_cell_angle_beta 90.000000
_cell_angle_gamma 90.000000
_cell_volume 5496.684144
_symmetry_space_group_name_H-M "I M M A"
_symmetry_group_IT_number 74
_symmetry_cell_setting 'orthorhombic'
loop_
_space_group_symop_operation_xyz
x,y,z
-x,1/2-y,z
x,-y,-z
-x,1/2+y,-z
-x,-y,-z
x,1/2+y,-z
-x,y,z
x,1/2-y,z
1/2+x,1/2+y,1/2+z
1/2-x,-y,1/2+z
1/2+x,1/2-y,1/2-z
1/2-x,y,1/2-z
1/2-x,1/2-y,1/2-z
1/2+x,y,1/2-z
1/2-x,1/2+y,1/2+z
1/2+x,-y,1/2+z
loop_
_atom_site_type_symbol
_atom_site_label
_atom_site_fract_x
_atom_site_fract_y
_atom_site_fract_z
Si Si1 0.140505 0.855211 0.173548
Si Si2 0.127627 0.899487 0.548755
Si Si3 0.766765 0.142297 0.458661
Si Si4 0.914407 0.649741 0.357879
Si Si5 0.946000 0.543611 0.103271
Si Si6 0.447871 0.458134 0.197169
Si Si7 0.767310 0.537184 0.140930
O O1 0.158788 0.750000 0.150678
O O2 0.131794 0.869882 0.289181
O O3 0.177975 0.930991 0.133954
O O4 0.089984 0.870509 0.119858
O O5 0.178769 0.858855 0.578417
O O6 0.102685 0.835491 0.468303
O O7 0.094077 0.900568 0.644600
O O8 0.134819 0.000000 0.500000
O O9 0.747816 0.250000 0.451696
O O10 0.763793 0.103140 0.569187
O O11 0.736031 0.072714 0.389435
O O12 0.937825 0.750000 0.326871
O O13 0.951008 0.564345 0.346300
O O14 0.937856 0.464166 0.187094
O O15 0.000000 0.581817 0.107945
O O16 0.934138 0.500000 0.000000
O O17 0.500000 0.412472 0.177496
O O18 0.750000 0.554056 0.250000
#
# Coordination Sequence:
#
# PCOD8298034 Si02
#       7
#    16  16  16  16  16  16  16
#     4  10  21  36  59  92 121 152 201 258 310 362
#     4  10  18  33  56  79 113 158 194 236 292 361
#     4  11  24  41  61  90 119 159 213 257 303 367
#     4   9  18  31  53  83 115 149 192 242 294 356
#     4   9  19  36  61  86 115 160 204 248 304 364
#     4   9  19  33  54  84 116 152 195 240 294 360
#     4  11  24  40  64  89 125 169 202 258 311 370
#
# _framework density 20.375921000000002
#
# number of rings (size 3 to 8) (size 9 to 14) (size 15 to 20)
#    0.000    2.143    1.429    1.714    6.000    5.714 
#    0.000    2.857    0.000    3.000    0.000    4.000 
#    0.000    0.000    0.000    0.000    0.000    0.000 
#
# Total GULP energy -694036.530157 kJ/mol
# GULP energy per Si atom -12393.509467 kJ/mol
# Density = 2.032954 g / cm^3
# Si number density = 20.375921 Si / 1000 Ang^3
#
#
#
# Elastic Constant Matrix: (Units=GPa)
#
#
# Indices 1 2 3 4 5 6 
#
# 1 104.5350 41.2198 55.3028 0.0000 0.0000 0.0000
# 2 41.2198 102.6435 37.3557 0.0000 0.0000 0.0000
# 3 55.3028 37.3557 125.8930 0.0000 0.0000 0.0000
# 4 0.0000 0.0000 0.0000 18.0236 0.0000 0.0000
# 5 0.0000 0.0000 0.0000 0.0000 26.1243 0.0000
# 6 0.0000 0.0000 0.0000 0.0000 0.0000 12.8316
#
#
#
# Elastic Compliance Matrix: (Units=1/GPa)
#
#
# Indices 1 2 3 4 5 6 
#
# 1 0.013602 -0.003686 -0.004881 0.000000 0.000000 0.000000
# 2 -0.003686 0.011921 -0.001918 0.000000 0.000000 0.000000
# 3 -0.004881 -0.001918 0.010657 0.000000 0.000000 0.000000
# 4 0.000000 0.000000 0.000000 0.055483 0.000000 0.000000
# 5 0.000000 0.000000 0.000000 0.000000 0.038278 0.000000
# 6 0.000000 0.000000 0.000000 0.000000 0.000000 0.077932
#
#
# Mechanical properties :
#
#
# Convention : Reuss Voigt Hill
#
# Bulk Modulus (GPa) = 65.75153 66.75868 66.25510
# Shear Modulus (GPa) = 21.37544 24.67546 23.02545
#
# Velocity S-wave (km/s) = 3.24242 3.48373 3.36524
# Velocity P-wave (km/s) = 6.80860 7.00118 6.90556
#
# Compressibility (1/GPa) = 0.01520877
#
# Stress axis : x y z
#
# Youngs Moduli (GPa) = 73.51852 83.88798 93.83720
#
# Poissons Ratio (x) = 0.30919 0.45806
# Poissons Ratio (y) = 0.27097 0.17999
# Poissons Ratio (z) = 0.35888 0.16090
#
# Static dielectric constant tensor:
#      x y z
#    x 3.607520 0.000000 0.000000 
#    y 0.000000 3.572610 0.000000 
#    z 0.000000 0.000000 3.828540 
# 
# 
# High freq. dielectric constant tensor:
#      x y z
#    x 1.789400 0.000000 0.000000 
#    y 0.000000 1.773130 0.000000 
#    z 0.000000 0.000000 1.793120 
# 
# From -- ./inp_files/37416.got.cif
#   From: 2010.03.12/outbox.cif.g09.slc.cpg/sg74_19_cif.got.tgz:37416.got - 2010.04.16 15:46:19.
