data_PCOD8298348
_publ_section_title
;
Structure prediction by ZEFSAII (Michael W. Deem and Ramdas Pophale) SiO2 
 PCOD8298348
Probable space group: I M M A
;
_chemical_formula_sum "Si O2"
_cell_formula_units_Z 88
_cell_length_a 17.868813
_cell_length_b 9.318934
_cell_length_c 28.453277
_cell_angle_alpha 90.000000
_cell_angle_beta 90.000000
_cell_angle_gamma 90.000000
_cell_volume 4737.991003
_symmetry_space_group_name_H-M "I M M A"
_symmetry_group_IT_number 74
_symmetry_cell_setting 'orthorhombic'
loop_
_space_group_symop_operation_xyz
x,y,z
-x,1/2-y,z
x,-y,-z
-x,1/2+y,-z
-x,-y,-z
x,1/2+y,-z
-x,y,z
x,1/2-y,z
1/2+x,1/2+y,1/2+z
1/2-x,-y,1/2+z
1/2+x,1/2-y,1/2-z
1/2-x,y,1/2-z
1/2-x,1/2-y,1/2-z
1/2+x,y,1/2-z
1/2-x,1/2+y,1/2+z
1/2+x,-y,1/2+z
loop_
_atom_site_type_symbol
_atom_site_label
_atom_site_fract_x
_atom_site_fract_y
_atom_site_fract_z
Si Si1 0.916888 0.420908 0.608404
Si Si2 0.860602 0.916605 0.111124
Si Si3 0.087603 0.917815 0.801062
Si Si4 0.088629 0.090841 0.711718
Si Si5 0.500000 0.417400 0.548179
Si Si6 0.780456 0.917705 0.452423
O O1 0.919243 0.250000 0.609376
O O2 0.889109 0.471010 0.660237
O O3 0.858854 0.475079 0.569027
O O4 0.000000 0.481748 0.596585
O O5 0.868178 0.750000 0.124989
O O6 0.927220 0.964049 0.076948
O O7 0.783087 0.950670 0.085593
O O8 0.864108 0.009938 0.158071
O O9 0.103772 0.750000 0.800492
O O10 0.000000 0.951839 0.808928
O O11 0.117074 0.982859 0.751851
O O12 0.123219 0.250000 0.720132
O O13 0.000000 0.103280 0.713248
O O14 0.500000 0.250000 0.536691
O O15 0.500000 0.500000 0.500000
O O16 0.783814 0.750000 0.464228
O O17 0.762073 0.000000 0.500000
#
# Coordination Sequence:
#
# PCOD8298348 Si02
#       6
#    16  16  16  16   8  16
#     4   8  15  31  55  80 103 130 168 209 248 299
#     4  10  20  34  50  70  99 136 175 210 247 298
#     4  10  19  30  48  76 105 133 167 209 254 299
#     4   8  14  27  50  75  99 131 167 203 246 297
#     4  10  20  32  48  68  92 126 170 214 251 290
#     4  10  21  36  54  76 102 133 169 211 258 303
#
# _framework density 18.573273
#
# number of rings (size 3 to 8) (size 9 to 14) (size 15 to 20)
#    0.000    2.727    0.909    2.182    0.000    2.545 
#    0.000    1.818    0.000    6.545    0.000    0.000 
#    0.000    0.000    0.000    0.000    0.000    0.000 
#
# Total GULP energy -545529.863738 kJ/mol
# GULP energy per Si atom -12398.405994 kJ/mol
# Density = 1.853100 g / cm^3
# Si number density = 18.573273 Si / 1000 Ang^3
#
#
#
# Elastic Constant Matrix: (Units=GPa)
#
#
# Indices 1 2 3 4 5 6 
#
# 1 75.5407 22.6348 22.9993 0.0000 0.0000 0.0000
# 2 22.6348 58.9643 40.9561 0.0000 0.0000 0.0000
# 3 22.9993 40.9561 78.4407 0.0000 0.0000 0.0000
# 4 0.0000 0.0000 0.0000 26.2965 0.0000 0.0000
# 5 0.0000 0.0000 0.0000 0.0000 10.8198 0.0000
# 6 0.0000 0.0000 0.0000 0.0000 0.0000 9.3011
#
#
#
# Elastic Compliance Matrix: (Units=1/GPa)
#
#
# Indices 1 2 3 4 5 6 
#
# 1 0.015199 -0.004298 -0.002213 0.000000 0.000000 0.000000
# 2 -0.004298 0.027825 -0.013268 0.000000 0.000000 0.000000
# 3 -0.002213 -0.013268 0.020325 0.000000 0.000000 0.000000
# 4 0.000000 0.000000 0.000000 0.038028 0.000000 0.000000
# 5 0.000000 0.000000 0.000000 0.000000 0.092423 0.000000
# 6 0.000000 0.000000 0.000000 0.000000 0.000000 0.107514
#
#
# Mechanical properties :
#
#
# Convention : Reuss Voigt Hill
#
# Bulk Modulus (GPa) = 42.03024 42.90289 42.46657
# Shear Modulus (GPa) = 14.33476 17.70718 16.02097
#
# Velocity S-wave (km/s) = 2.78113 3.09102 2.94016
# Velocity P-wave (km/s) = 5.74382 5.99071 5.86856
#
# Compressibility (1/GPa) = 0.02379239
#
# Stress axis : x y z
#
# Youngs Moduli (GPa) = 65.79244 35.93870 49.20069
#
# Poissons Ratio (x) = 0.15446 0.10886
# Poissons Ratio (y) = 0.28276 0.65280
# Poissons Ratio (z) = 0.14557 0.47684
#
# Static dielectric constant tensor:
#      x y z
#    x 12.083670 0.000000 0.000000 
#    y 0.000000 3.192270 0.000000 
#    z 0.000000 0.000000 3.548450 
# 
# 
# High freq. dielectric constant tensor:
#      x y z
#    x 1.703070 0.000000 0.000000 
#    y 0.000000 1.693630 0.000000 
#    z 0.000000 0.000000 1.730120 
# 
# From -- ./inp_files/72941.got.cif
#   From: 2010.03.12/outbox.cif.g09.slc.cpg/sg74_37_cif.got.tgz:72941.got - 2010.04.16 15:46:19.
