data_PCOD8298122
_publ_section_title
;
Structure prediction by ZEFSAII (Michael W. Deem and Ramdas Pophale) SiO2 
 PCOD8298122
Probable space group: I M M A
;
_chemical_formula_sum "Si O2"
_cell_formula_units_Z 76
_cell_length_a 14.742702
_cell_length_b 23.745600
_cell_length_c 11.492890
_cell_angle_alpha 90.000000
_cell_angle_beta 90.000000
_cell_angle_gamma 90.000000
_cell_volume 4023.365475
_symmetry_space_group_name_H-M "I M M A"
_symmetry_group_IT_number 74
_symmetry_cell_setting 'orthorhombic'
loop_
_space_group_symop_operation_xyz
x,y,z
-x,1/2-y,z
x,-y,-z
-x,1/2+y,-z
-x,-y,-z
x,1/2+y,-z
-x,y,z
x,1/2-y,z
1/2+x,1/2+y,1/2+z
1/2-x,-y,1/2+z
1/2+x,1/2-y,1/2-z
1/2-x,y,1/2-z
1/2-x,1/2-y,1/2-z
1/2+x,y,1/2-z
1/2-x,1/2+y,1/2+z
1/2+x,-y,1/2+z
loop_
_atom_site_type_symbol
_atom_site_label
_atom_site_fract_x
_atom_site_fract_y
_atom_site_fract_z
Si Si1 0.000000 0.250000 0.748496
Si Si2 0.400390 0.750000 0.473435
Si Si3 0.104029 0.370039 0.023090
Si Si4 0.000000 0.627938 0.335723
Si Si5 0.857264 0.558776 0.760748
Si Si6 0.500000 0.440007 0.063282
Si Si7 0.652104 0.433689 0.694448
O O1 0.000000 0.304462 0.666209
O O2 0.089330 0.250000 0.832247
O O3 0.500000 0.750000 0.533482
O O4 0.350732 0.692608 0.515886
O O5 0.107260 0.393180 0.153078
O O6 0.000000 0.366217 0.978194
O O7 0.158192 0.411474 0.937401
O O8 0.088716 0.605220 0.271989
O O9 0.000000 0.609662 0.469614
O O10 0.750000 0.565630 0.750000
O O11 0.908236 0.566762 0.638336
O O12 0.884662 0.497529 0.809836
O O13 0.500000 0.500000 0.000000
O O14 0.750000 0.432674 0.750000
#
# Coordination Sequence:
#
# PCOD8298122 Si02
#       7
#     4   8  16   8  16   8  16
#     4  10  18  40  62  88 120 154 194 258 304 354
#     4   8  16  34  62  88 114 150 194 257 301 346
#     4  11  20  38  63  90 118 154 209 248 298 358
#     4  12  22  41  61  86 126 155 201 241 310 370
#     4  11  25  39  59  92 125 163 204 249 299 367
#     4  12  24  40  62  84 126 172 198 244 312 359
#     4  11  22  36  62  93 123 156 191 256 307 358
#
# _framework density 18.889658000000001
#
# number of rings (size 3 to 8) (size 9 to 14) (size 15 to 20)
#    0.316    0.842    6.316    0.632    2.947    0.842 
#    0.000    3.684    0.000    0.000    0.000    0.000 
#    0.000    0.000    0.000    0.000    0.000    0.000 
#
# Total GULP energy -471195.681930 kJ/mol
# GULP energy per Si atom -12399.886367 kJ/mol
# Density = 1.884666 g / cm^3
# Si number density = 18.889658 Si / 1000 Ang^3
#
#
#
# Elastic Constant Matrix: (Units=GPa)
#
#
# Indices 1 2 3 4 5 6 
#
# 1 70.0777 20.0235 26.7784 0.0001 0.0000 0.0000
# 2 20.0235 171.8143 72.1231 0.0002 0.0000 0.0000
# 3 26.7784 72.1231 128.7492 0.0006 -0.0001 -0.0002
# 4 0.0001 0.0002 0.0006 35.4203 -0.0001 -0.0001
# 5 0.0000 0.0000 -0.0001 -0.0001 21.8204 0.0001
# 6 0.0000 0.0000 -0.0002 -0.0001 0.0001 16.9707
#
#
#
# Elastic Compliance Matrix: (Units=1/GPa)
#
#
# Indices 1 2 3 4 5 6 
#
# 1 0.015548 -0.000594 -0.002901 0.000000 0.000000 0.000000
# 2 -0.000594 0.007632 -0.004152 0.000000 0.000000 0.000000
# 3 -0.002901 -0.004152 0.010696 0.000000 0.000000 0.000000
# 4 0.000000 0.000000 0.000000 0.028232 0.000000 0.000000
# 5 0.000000 0.000000 0.000000 0.000000 0.045829 0.000000
# 6 0.000000 0.000000 0.000000 0.000000 0.000000 0.058925
#
#
# Mechanical properties :
#
#
# Convention : Reuss Voigt Hill
#
# Bulk Modulus (GPa) = 53.81399 67.61011 60.71205
# Shear Modulus (GPa) = 26.54613 31.62336 29.08474
#
# Velocity S-wave (km/s) = 3.75283 4.09603 3.92818
# Velocity P-wave (km/s) = 6.87959 7.63150 7.26528
#
# Compressibility (1/GPa) = 0.01858253
#
# Stress axis : x y z
#
# Youngs Moduli (GPa) = 64.31607 131.02108 93.49081
#
# Poissons Ratio (x) = 0.07786 0.27121
# Poissons Ratio (y) = 0.03822 0.38817
# Poissons Ratio (z) = 0.18658 0.54399
#
# Static dielectric constant tensor:
#      x y z
#    x 3.294350 0.000000 0.000000 
#    y 0.000000 3.661690 0.000000 
#    z 0.000000 0.000000 3.358300 
# 
# 
# High freq. dielectric constant tensor:
#      x y z
#    x 1.713580 0.000000 0.000000 
#    y 0.000000 1.741180 0.000000 
#    z 0.000000 0.000000 1.726490 
# 
# From -- ./inp_files/20599.got.cif
#   From: 2010.03.12/outbox.cif.g09.slc.cpg/sg74_11_cif.got.tgz:20599.got - 2010.04.16 15:46:19.
