data_PCOD8298468
_publ_section_title
;
Structure prediction by ZEFSAII (Michael W. Deem and Ramdas Pophale) SiO2 
 PCOD8298468
Probable space group: I M M A
;
_chemical_formula_sum "Si O2"
_cell_formula_units_Z 96
_cell_length_a 26.706957
_cell_length_b 8.623415
_cell_length_c 22.802949
_cell_angle_alpha 90.000000
_cell_angle_beta 90.000000
_cell_angle_gamma 90.000000
_cell_volume 5251.637128
_symmetry_space_group_name_H-M "I M M A"
_symmetry_group_IT_number 74
_symmetry_cell_setting 'orthorhombic'
loop_
_space_group_symop_operation_xyz
x,y,z
-x,1/2-y,z
x,-y,-z
-x,1/2+y,-z
-x,-y,-z
x,1/2+y,-z
-x,y,z
x,1/2-y,z
1/2+x,1/2+y,1/2+z
1/2-x,-y,1/2+z
1/2+x,1/2-y,1/2-z
1/2-x,y,1/2-z
1/2-x,1/2-y,1/2-z
1/2+x,y,1/2-z
1/2-x,1/2+y,1/2+z
1/2+x,-y,1/2+z
loop_
_atom_site_type_symbol
_atom_site_label
_atom_site_fract_x
_atom_site_fract_y
_atom_site_fract_z
Si Si1 0.177303 0.567807 0.936295
Si Si2 0.942853 0.066358 0.727597
Si Si3 0.717024 0.066314 0.935713
Si Si4 0.119941 0.072884 0.836878
Si Si5 0.863692 0.579396 0.647539
Si Si6 0.696472 0.920914 0.735920
O O1 0.182005 0.750000 0.941187
O O2 0.230315 0.502346 0.910676
O O3 0.128435 0.523394 0.896776
O O4 0.166690 0.500000 0.000000
O O5 0.936531 0.250000 0.727139
O O6 0.921802 0.005774 0.791178
O O7 0.000000 0.011986 0.723185
O O8 0.914895 0.002134 0.669721
O O9 0.722081 0.250000 0.937876
O O10 0.668021 0.022006 0.898180
O O11 0.707754 0.000000 0.000000
O O12 0.108849 0.250000 0.853385
O O13 0.172347 0.054085 0.803337
O O14 0.876044 0.750000 0.620550
O O15 0.831029 0.603818 0.704006
O O16 0.698583 0.750000 0.704037
O O17 0.750000 0.989322 0.750000
#
# Coordination Sequence:
#
# PCOD8298468 Si02
#       6
#    16  16  16  16  16  16
#     4  11  21  34  51  73 104 139 174 209 247 295
#     4   9  19  36  56  77 102 133 169 212 262 311
#     4  11  21  34  52  75 105 140 176 209 245 294
#     4  10  19  31  49  73  99 129 167 208 252 302
#     4  10  19  31  49  75 104 133 168 209 253 301
#     4   9  17  28  43  65  96 131 162 197 243 294
#
# _framework density 18.280014999999999
#
# number of rings (size 3 to 8) (size 9 to 14) (size 15 to 20)
#    0.000    2.000    0.000    6.000    0.000    3.333 
#    0.000    0.000    0.000    1.000    0.000    0.000 
#    0.000    0.000    0.000    0.000    0.000    0.000 
#
# Total GULP energy -594698.424078 kJ/mol
# GULP energy per Si atom -12389.550502 kJ/mol
# Density = 1.823841 g / cm^3
# Si number density = 18.280015 Si / 1000 Ang^3
#
#
#
# Elastic Constant Matrix: (Units=GPa)
#
#
# Indices 1 2 3 4 5 6 
#
# 1 46.9725 12.1012 -0.9662 0.0000 0.0000 0.0000
# 2 12.1012 104.8564 22.2195 0.0000 0.0000 0.0000
# 3 -0.9662 22.2195 49.1098 0.0000 0.0000 0.0000
# 4 0.0000 0.0000 0.0000 30.3725 0.0000 0.0000
# 5 0.0000 0.0000 0.0000 0.0000 27.3256 0.0000
# 6 0.0000 0.0000 0.0000 0.0000 0.0000 23.4860
#
#
#
# Elastic Compliance Matrix: (Units=1/GPa)
#
#
# Indices 1 2 3 4 5 6 
#
# 1 0.022077 -0.002920 0.001755 0.000000 0.000000 0.000000
# 2 -0.002920 0.010934 -0.005005 0.000000 0.000000 0.000000
# 3 0.001755 -0.005005 0.022661 0.000000 0.000000 0.000000
# 4 0.000000 0.000000 0.000000 0.032924 0.000000 0.000000
# 5 0.000000 0.000000 0.000000 0.000000 0.036596 0.000000
# 6 0.000000 0.000000 0.000000 0.000000 0.000000 0.042578
#
#
# Mechanical properties :
#
#
# Convention : Reuss Voigt Hill
#
# Bulk Modulus (GPa) = 23.07607 29.73864 26.40735
# Shear Modulus (GPa) = 25.69968 27.40911 26.55440
#
# Velocity S-wave (km/s) = 3.75359 3.87641 3.81549
# Velocity P-wave (km/s) = 5.60687 6.02820 5.82134
#
# Compressibility (1/GPa) = 0.04333494
#
# Stress axis : x y z
#
# Youngs Moduli (GPa) = 45.29518 91.45507 44.12795
#
# Poissons Ratio (x) = 0.26704 -0.07746
# Poissons Ratio (y) = 0.13226 0.22084
# Poissons Ratio (z) = -0.07951 0.45770
#
# Static dielectric constant tensor:
#      x y z
#    x 3.239440 0.000000 0.000000 
#    y 0.000000 3.496750 0.000000 
#    z 0.000000 0.000000 3.308640 
# 
# 
# High freq. dielectric constant tensor:
#      x y z
#    x 1.681260 0.000000 0.000000 
#    y 0.000000 1.716700 0.000000 
#    z 0.000000 0.000000 1.701990 
# 
# From -- ./inp_files/62258.got.cif
#   From: 2010.03.12/outbox.cif.g09.slc.cpg/sg74_32_cif.got.tgz:62258.got - 2010.04.16 15:46:19.
