data_PCOD8298306
_publ_section_title
;
Structure prediction by ZEFSAII (Michael W. Deem and Ramdas Pophale) SiO2 
 PCOD8298306
Probable space group: I M M A
;
_chemical_formula_sum "Si O2"
_cell_formula_units_Z 96
_cell_length_a 15.398392
_cell_length_b 18.414566
_cell_length_c 21.482851
_cell_angle_alpha 90.000000
_cell_angle_beta 90.000000
_cell_angle_gamma 90.000000
_cell_volume 6091.563495
_symmetry_space_group_name_H-M "I M M A"
_symmetry_group_IT_number 74
_symmetry_cell_setting 'orthorhombic'
loop_
_space_group_symop_operation_xyz
x,y,z
-x,1/2-y,z
x,-y,-z
-x,1/2+y,-z
-x,-y,-z
x,1/2+y,-z
-x,y,z
x,1/2-y,z
1/2+x,1/2+y,1/2+z
1/2-x,-y,1/2+z
1/2+x,1/2-y,1/2-z
1/2-x,y,1/2-z
1/2-x,1/2-y,1/2-z
1/2+x,y,1/2-z
1/2-x,1/2+y,1/2+z
1/2+x,-y,1/2+z
loop_
_atom_site_type_symbol
_atom_site_label
_atom_site_fract_x
_atom_site_fract_y
_atom_site_fract_z
Si Si1 0.652645 0.750000 0.774045
Si Si2 0.599372 0.594986 0.077867
Si Si3 0.775708 0.000000 0.500000
Si Si4 0.100300 0.250000 0.541142
Si Si5 0.902195 0.531150 0.663935
Si Si6 0.763929 0.597201 0.894402
Si Si7 0.596714 0.897529 0.712053
Si Si8 0.704093 0.750000 0.913886
O O1 0.750000 0.750000 0.750000
O O2 0.606285 0.821063 0.747323
O O3 0.649591 0.750000 0.849149
O O4 0.500000 0.586606 0.055035
O O5 0.662107 0.562026 0.026341
O O6 0.612965 0.552930 0.143545
O O7 0.625073 0.679863 0.083088
O O8 0.714450 0.960526 0.550933
O O9 0.143568 0.250000 0.473671
O O10 0.000000 0.250000 0.525151
O O11 0.834077 0.582952 0.629127
O O12 0.889761 0.537848 0.737958
O O13 0.000000 0.556221 0.645139
O O14 0.834003 0.586762 0.840843
O O15 0.767389 0.680166 0.917241
O O16 0.500000 0.900710 0.683186
#
# Coordination Sequence:
#
# PCOD8298306 Si02
#       8
#     8  16   8   8  16  16  16   8
#     4  12  19  31  46  70  97 130 156 195 230 281
#     4   9  17  29  44  67  96 125 157 193 230 288
#     4  10  19  30  47  66  90 126 166 196 244 278
#     4  10  20  30  43  68 101 133 158 181 224 287
#     4   9  18  30  48  70  95 125 157 193 238 286
#     4  11  20  33  48  69  96 128 162 202 236 282
#     4  11  21  33  48  69  97 132 166 199 239 278
#     4  12  20  29  46  66 102 129 161 185 228 276
#
# _framework density 15.759501
#
# number of rings (size 3 to 8) (size 9 to 14) (size 15 to 20)
#    0.000    1.667    5.000    1.000    0.000    2.000 
#    0.000    0.417    0.000    0.000    0.000   10.500 
#    0.000    0.000    0.000    0.000    0.000    0.000 
#
# Total GULP energy -594940.037314 kJ/mol
# GULP energy per Si atom -12394.584111 kJ/mol
# Density = 1.572363 g / cm^3
# Si number density = 15.759501 Si / 1000 Ang^3
#
#
#
# Elastic Constant Matrix: (Units=GPa)
#
#
# Indices 1 2 3 4 5 6 
#
# 1 61.9987 36.4787 41.1178 0.0000 0.0000 0.0000
# 2 36.4787 115.1053 61.2548 0.0000 0.0000 0.0000
# 3 41.1178 61.2548 92.6084 0.0000 0.0000 0.0000
# 4 0.0000 0.0000 0.0000 27.5421 0.0000 0.0000
# 5 0.0000 0.0000 0.0000 0.0000 21.8965 0.0000
# 6 0.0000 0.0000 0.0000 0.0000 0.0000 10.2990
#
#
#
# Elastic Compliance Matrix: (Units=1/GPa)
#
#
# Indices 1 2 3 4 5 6 
#
# 1 0.023481 -0.002922 -0.008493 0.000000 0.000000 0.000000
# 2 -0.002922 0.013770 -0.007811 0.000000 0.000000 0.000000
# 3 -0.008493 -0.007811 0.019735 0.000000 0.000000 0.000000
# 4 0.000000 0.000000 0.000000 0.036308 0.000000 0.000000
# 5 0.000000 0.000000 0.000000 0.000000 0.045669 0.000000
# 6 0.000000 0.000000 0.000000 0.000000 0.000000 0.097097
#
#
# Mechanical properties :
#
#
# Convention : Reuss Voigt Hill
#
# Bulk Modulus (GPa) = 53.95073 60.82389 57.38731
# Shear Modulus (GPa) = 17.81315 20.67158 19.24237
#
# Velocity S-wave (km/s) = 3.36566 3.62566 3.49807
# Velocity P-wave (km/s) = 7.02934 7.49707 7.26697
#
# Compressibility (1/GPa) = 0.01853543
#
# Stress axis : x y z
#
# Youngs Moduli (GPa) = 42.58751 72.61949 50.67037
#
# Poissons Ratio (x) = 0.21219 0.43033
# Poissons Ratio (y) = 0.12444 0.39578
# Poissons Ratio (z) = 0.36169 0.56723
#
# Static dielectric constant tensor:
#      x y z
#    x 2.851410 0.000000 0.000000 
#    y 0.000000 3.303890 0.000000 
#    z 0.000000 0.000000 2.959750 
# 
# 
# High freq. dielectric constant tensor:
#      x y z
#    x 1.583940 0.000000 0.000000 
#    y 0.000000 1.607710 0.000000 
#    z 0.000000 0.000000 1.587610 
# 
# From -- ./inp_files/60079.got.cif
#   From: 2010.03.12/outbox.cif.g09.slc.cpg/sg74_31_cif.got.tgz:60079.got - 2010.04.16 15:46:19.
