data_PCOD8298268
_publ_section_title
;
Structure prediction by ZEFSAII (Michael W. Deem and Ramdas Pophale) SiO2 
 PCOD8298268
Probable space group: I M M A
;
_chemical_formula_sum "Si O2"
_cell_formula_units_Z 104
_cell_length_a 28.218991
_cell_length_b 9.373677
_cell_length_c 24.180597
_cell_angle_alpha 90.000000
_cell_angle_beta 90.000000
_cell_angle_gamma 90.000000
_cell_volume 6396.147709
_symmetry_space_group_name_H-M "I M M A"
_symmetry_group_IT_number 74
_symmetry_cell_setting 'orthorhombic'
loop_
_space_group_symop_operation_xyz
x,y,z
-x,1/2-y,z
x,-y,-z
-x,1/2+y,-z
-x,-y,-z
x,1/2+y,-z
-x,y,z
x,1/2-y,z
1/2+x,1/2+y,1/2+z
1/2-x,-y,1/2+z
1/2+x,1/2-y,1/2-z
1/2-x,y,1/2-z
1/2-x,1/2-y,1/2-z
1/2+x,y,1/2-z
1/2-x,1/2+y,1/2+z
1/2+x,-y,1/2+z
loop_
_atom_site_type_symbol
_atom_site_label
_atom_site_fract_x
_atom_site_fract_y
_atom_site_fract_z
Si Si1 0.170649 0.917889 0.058219
Si Si2 0.773709 0.910953 0.445838
Si Si3 0.500000 0.915720 0.556361
Si Si4 0.123468 0.416487 0.557234
Si Si5 0.554282 0.586011 0.740843
Si Si6 0.593488 0.415728 0.376812
Si Si7 0.054481 0.917087 0.347528
O O1 0.159608 0.750000 0.049036
O O2 0.223631 0.940777 0.085048
O O3 0.135432 0.983617 0.102774
O O4 0.164866 0.000000 0.000000
O O5 0.773740 0.750000 0.466558
O O6 0.823852 0.942305 0.415099
O O7 0.773573 0.000000 0.500000
O O8 0.500000 0.750000 0.541957
O O9 0.454034 0.958349 0.591136
O O10 0.500000 0.000000 0.500000
O O11 0.116947 0.500000 0.500000
O O12 0.114944 0.250000 0.544761
O O13 0.085303 0.474105 0.601083
O O14 0.500000 0.548665 0.725945
O O15 0.558902 0.750000 0.758238
O O16 0.586449 0.551917 0.687874
O O17 0.572701 0.492286 0.791877
O O18 0.606142 0.250000 0.386724
O O19 0.061855 0.750000 0.338910
O O20 0.000000 0.956721 0.359760
#
# Coordination Sequence:
#
# PCOD8298268 Si02
#       7
#    16  16   8  16  16  16  16
#     4  10  19  30  45  67  92 118 152 191 231 273
#     4   8  15  28  45  64  88 119 153 186 220 266
#     4  10  20  32  44  62  90 120 147 180 225 276
#     4   9  17  30  48  70  97 126 152 181 223 270
#     4   9  17  32  51  67  86 118 158 193 226 268
#     4  10  19  32  48  65  89 119 152 191 232 273
#     4   9  18  31  47  70  98 123 149 187 228 267
#
# _framework density 16.259785999999998
#
# number of rings (size 3 to 8) (size 9 to 14) (size 15 to 20)
#    0.000    2.769    0.769    0.923    0.000    4.000 
#    0.000    0.000    0.000    0.923    0.000    6.462 
#    0.000    0.000    0.000    0.000    0.000    0.000 
#
# Total GULP energy -644346.231814 kJ/mol
# GULP energy per Si atom -12391.273689 kJ/mol
# Density = 1.622278 g / cm^3
# Si number density = 16.259786 Si / 1000 Ang^3
#
#
#
# Elastic Constant Matrix: (Units=GPa)
#
#
# Indices 1 2 3 4 5 6 
#
# 1 118.2249 50.7590 69.1536 0.0000 0.0000 0.0000
# 2 50.7590 58.0571 48.6278 0.0000 0.0000 0.0000
# 3 69.1536 48.6278 103.9497 0.0000 0.0000 0.0000
# 4 0.0000 0.0000 0.0000 28.3019 0.0000 0.0000
# 5 0.0000 0.0000 0.0000 0.0000 6.0746 0.0000
# 6 0.0000 0.0000 0.0000 0.0000 0.0000 22.3805
#
#
#
# Elastic Compliance Matrix: (Units=1/GPa)
#
#
# Indices 1 2 3 4 5 6 
#
# 1 0.015969 -0.008326 -0.006729 0.000000 0.000000 0.000000
# 2 -0.008326 0.032662 -0.009741 0.000000 0.000000 0.000000
# 3 -0.006729 -0.009741 0.018653 0.000000 0.000000 0.000000
# 4 0.000000 0.000000 0.000000 0.035333 0.000000 0.000000
# 5 0.000000 0.000000 0.000000 0.000000 0.164621 0.000000
# 6 0.000000 0.000000 0.000000 0.000000 0.000000 0.044682
#
#
# Mechanical properties :
#
#
# Convention : Reuss Voigt Hill
#
# Bulk Modulus (GPa) = 56.51620 68.59030 62.55325
# Shear Modulus (GPa) = 13.60884 18.79747 16.20316
#
# Velocity S-wave (km/s) = 2.89617 3.40379 3.16019
# Velocity P-wave (km/s) = 6.78362 7.59759 7.20211
#
# Compressibility (1/GPa) = 0.01769404
#
# Stress axis : x y z
#
# Youngs Moduli (GPa) = 62.62204 30.61653 53.61045
#
# Poissons Ratio (x) = 0.25490 0.36073
# Poissons Ratio (y) = 0.52136 0.52220
# Poissons Ratio (z) = 0.42136 0.29823
#
# Static dielectric constant tensor:
#      x y z
#    x 3.765290 0.000000 0.000000 
#    y 0.000000 3.075840 0.000000 
#    z 0.000000 0.000000 2.960880 
# 
# 
# High freq. dielectric constant tensor:
#      x y z
#    x 1.631400 0.000000 0.000000 
#    y 0.000000 1.629330 0.000000 
#    z 0.000000 0.000000 1.596910 
# 
# From -- ./inp_files/57812.got.cif
#   From: 2010.03.12/outbox.cif.g09.slc.cpg/sg74_29_cif.got.tgz:57812.got - 2010.04.16 15:46:19.
