data_PCOD8298709
_publ_section_title
;
Structure prediction by ZEFSAII (Michael W. Deem and Ramdas Pophale) SiO2 
 PCOD8298709
Probable space group: I M M A
;
_chemical_formula_sum "Si O2"
_cell_formula_units_Z 88
_cell_length_a 8.691844
_cell_length_b 30.801210
_cell_length_c 17.980068
_cell_angle_alpha 90.000000
_cell_angle_beta 90.000000
_cell_angle_gamma 90.000000
_cell_volume 4813.611441
_symmetry_space_group_name_H-M "I M M A"
_symmetry_group_IT_number 74
_symmetry_cell_setting 'orthorhombic'
loop_
_space_group_symop_operation_xyz
x,y,z
-x,1/2-y,z
x,-y,-z
-x,1/2+y,-z
-x,-y,-z
x,1/2+y,-z
-x,y,z
x,1/2-y,z
1/2+x,1/2+y,1/2+z
1/2-x,-y,1/2+z
1/2+x,1/2-y,1/2-z
1/2-x,y,1/2-z
1/2-x,1/2-y,1/2-z
1/2+x,y,1/2-z
1/2-x,1/2+y,1/2+z
1/2+x,-y,1/2+z
loop_
_atom_site_type_symbol
_atom_site_label
_atom_site_fract_x
_atom_site_fract_y
_atom_site_fract_z
Si Si1 0.823061 0.750000 0.828856
Si Si2 0.681505 0.799234 0.330337
Si Si3 0.182393 0.415883 0.325442
Si Si4 0.317802 0.047032 0.017445
Si Si5 0.319237 0.661712 0.599372
Si Si6 0.180067 0.134872 0.551539
O O1 0.750000 0.750000 0.750000
O O2 0.773488 0.790652 0.876862
O O3 0.000000 0.750000 0.811949
O O4 0.500000 0.801606 0.324661
O O5 0.731350 0.750000 0.355787
O O6 0.750000 0.809801 0.250000
O O7 0.734462 0.837413 0.385519
O O8 0.250000 0.437668 0.250000
O O9 0.232413 0.443177 0.397939
O O10 0.264970 0.369461 0.333983
O O11 0.000000 0.410917 0.319543
O O12 0.500000 0.045162 0.012449
O O13 0.263175 0.084215 0.957960
O O14 0.244226 0.000000 0.000000
O O15 0.500000 0.655507 0.581720
O O16 0.214886 0.655632 0.527456
O O17 0.000000 0.136887 0.569161
#
# Coordination Sequence:
#
# PCOD8298709 Si02
#       6
#     8  16  16  16  16  16
#     4  10  22  34  46  66  95 132 169 206 248 292
#     4  10  21  37  57  80 109 145 183 226 274 326
#     4  10  19  32  52  76 100 131 172 213 262 314
#     4   8  16  33  55  77 104 138 175 217 267 323
#     4  10  20  34  50  71 101 136 174 213 253 300
#     4  10  20  34  55  82 107 137 176 217 265 320
#
# _framework density 18.281492
#
# number of rings (size 3 to 8) (size 9 to 14) (size 15 to 20)
#    0.000    2.364    0.000    3.818    1.273    4.000 
#    0.000    0.909    0.000   21.818    0.000    0.000 
#    0.000    0.000    0.000    0.000    0.000    0.000 
#
# Total GULP energy -545243.524133 kJ/mol
# GULP energy per Si atom -12391.898276 kJ/mol
# Density = 1.823988 g / cm^3
# Si number density = 18.281492 Si / 1000 Ang^3
#
#
#
# Elastic Constant Matrix: (Units=GPa)
#
#
# Indices 1 2 3 4 5 6 
#
# 1 39.1070 34.8314 22.6068 0.0000 0.0000 0.0000
# 2 34.8314 156.1881 65.8341 -0.0001 0.0000 0.0000
# 3 22.6068 65.8341 100.7514 -0.0005 0.0000 -0.0001
# 4 0.0000 -0.0001 -0.0005 25.2013 0.0000 0.0000
# 5 0.0000 0.0000 0.0000 0.0000 36.3115 0.0000
# 6 0.0000 0.0000 -0.0001 0.0000 0.0000 14.8547
#
#
#
# Elastic Compliance Matrix: (Units=1/GPa)
#
#
# Indices 1 2 3 4 5 6 
#
# 1 0.032810 -0.005815 -0.003562 0.000000 0.000000 0.000000
# 2 -0.005815 0.009867 -0.005143 0.000000 0.000000 0.000000
# 3 -0.003562 -0.005143 0.014085 0.000000 0.000000 0.000000
# 4 0.000000 0.000000 0.000000 0.039680 0.000000 0.000000
# 5 0.000000 0.000000 0.000000 0.000000 0.027539 0.000000
# 6 0.000000 0.000000 0.000000 0.000000 0.000000 0.067319
#
#
# Mechanical properties :
#
#
# Convention : Reuss Voigt Hill
#
# Bulk Modulus (GPa) = 36.07275 60.28792 48.18033
# Shear Modulus (GPa) = 21.77886 26.79180 24.28533
#
# Velocity S-wave (km/s) = 3.45528 3.83236 3.64869
# Velocity P-wave (km/s) = 5.97438 7.25478 6.64549
#
# Compressibility (1/GPa) = 0.02772176
#
# Stress axis : x y z
#
# Youngs Moduli (GPa) = 30.47892 101.34738 70.99784
#
# Poissons Ratio (x) = 0.58938 0.25288
# Poissons Ratio (y) = 0.17725 0.36511
# Poissons Ratio (z) = 0.10856 0.52118
#
# Static dielectric constant tensor:
#      x y z
#    x 3.274950 0.000000 0.000000 
#    y 0.000000 4.389530 0.000000 
#    z 0.000000 0.000000 3.166900 
# 
# 
# High freq. dielectric constant tensor:
#      x y z
#    x 1.704380 0.000000 0.000000 
#    y 0.000000 1.706750 0.000000 
#    z 0.000000 0.000000 1.707050 
# 
# From -- ./inp_files/40106.got.cif
#   From: 2010.03.12/outbox.cif.g09.slc.cpg/sg74_21_cif.got.tgz:40106.got - 2010.04.16 15:46:19.
