data_PCOD8298375
_publ_section_title
;
Structure prediction by ZEFSAII (Michael W. Deem and Ramdas Pophale) SiO2 
 PCOD8298375
Probable space group: I M M A
;
_chemical_formula_sum "Si O2"
_cell_formula_units_Z 72
_cell_length_a 16.572585
_cell_length_b 9.078673
_cell_length_c 28.399975
_cell_angle_alpha 90.000000
_cell_angle_beta 90.000000
_cell_angle_gamma 90.000000
_cell_volume 4272.977310
_symmetry_space_group_name_H-M "I M M A"
_symmetry_group_IT_number 74
_symmetry_cell_setting 'orthorhombic'
loop_
_space_group_symop_operation_xyz
x,y,z
-x,1/2-y,z
x,-y,-z
-x,1/2+y,-z
-x,-y,-z
x,1/2+y,-z
-x,y,z
x,1/2-y,z
1/2+x,1/2+y,1/2+z
1/2-x,-y,1/2+z
1/2+x,1/2-y,1/2-z
1/2-x,y,1/2-z
1/2-x,1/2-y,1/2-z
1/2+x,y,1/2-z
1/2-x,1/2+y,1/2+z
1/2+x,-y,1/2+z
loop_
_atom_site_type_symbol
_atom_site_label
_atom_site_fract_x
_atom_site_fract_y
_atom_site_fract_z
Si Si1 0.724483 0.576138 0.861265
Si Si2 0.332101 0.087550 0.278978
Si Si3 0.324258 0.077348 0.949499
Si Si4 0.500000 0.583775 0.047478
Si Si5 0.906752 0.080610 0.700563
O O1 0.713197 0.750000 0.867897
O O2 0.806278 0.539731 0.831920
O O3 0.735346 0.498070 0.911963
O O4 0.645530 0.516223 0.834797
O O5 0.372452 0.250000 0.279496
O O6 0.250000 0.094508 0.250000
O O7 0.393123 0.972623 0.254698
O O8 0.304398 0.250000 0.954783
O O9 0.414759 0.051047 0.926766
O O10 0.314317 0.000000 0.000000
O O11 0.500000 0.750000 0.030977
O O12 0.500000 0.500000 0.000000
O O13 0.879717 0.250000 0.696495
O O14 0.000000 0.061870 0.686848
#
# Coordination Sequence:
#
# PCOD8298375 Si02
#       5
#    16  16  16   8  16
#     4  10  20  32  46  65  88 118 153 186 222 265
#     4   8  16  31  47  63  86 114 146 182 221 265
#     4  10  19  31  45  62  86 116 150 188 224 260
#     4   8  16  28  40  54  76 106 140 178 216 250
#     4  10  20  31  45  67  92 116 147 185 222 265
#
# _framework density 16.850078
#
# number of rings (size 3 to 8) (size 9 to 14) (size 15 to 20)
#    0.000    2.667    0.000    3.333    1.556    7.556 
#    0.000    0.000    0.000    0.000    0.000    0.000 
#    0.000    0.889    0.000    2.889    0.000    4.222 
#
# Total GULP energy -446008.049239 kJ/mol
# GULP energy per Si atom -12389.112479 kJ/mol
# Density = 1.681173 g / cm^3
# Si number density = 16.850078 Si / 1000 Ang^3
#
#
#
# Elastic Constant Matrix: (Units=GPa)
#
#
# Indices 1 2 3 4 5 6 
#
# 1 13.4027 13.7193 9.9792 0.0000 0.0000 0.0000
# 2 13.7193 93.5464 42.9477 0.0000 0.0000 0.0000
# 3 9.9792 42.9477 93.1754 0.0000 0.0000 0.0000
# 4 0.0000 0.0000 0.0000 32.0370 0.0000 0.0000
# 5 0.0000 0.0000 0.0000 0.0000 22.2576 0.0000
# 6 0.0000 0.0000 0.0000 0.0000 0.0000 19.7948
#
#
#
# Elastic Compliance Matrix: (Units=1/GPa)
#
#
# Indices 1 2 3 4 5 6 
#
# 1 0.089236 -0.011034 -0.004471 0.000000 0.000000 0.000000
# 2 -0.011034 0.014924 -0.005697 0.000000 0.000000 0.000000
# 3 -0.004471 -0.005697 0.013837 0.000000 0.000000 0.000000
# 4 0.000000 0.000000 0.000000 0.031214 0.000000 0.000000
# 5 0.000000 0.000000 0.000000 0.000000 0.044928 0.000000
# 6 0.000000 0.000000 0.000000 0.000000 0.000000 0.050518
#
#
# Mechanical properties :
#
#
# Convention : Reuss Voigt Hill
#
# Bulk Modulus (GPa) = 13.22893 37.04631 25.13762
# Shear Modulus (GPa) = 16.01228 23.71643 19.86436
#
# Velocity S-wave (km/s) = 3.08600 3.75573 3.43722
# Velocity P-wave (km/s) = 4.53496 6.39069 5.54107
#
# Compressibility (1/GPa) = 0.07559190
#
# Stress axis : x y z
#
# Youngs Moduli (GPa) = 11.20623 67.00756 72.26863
#
# Poissons Ratio (x) = 0.73939 0.32312
# Poissons Ratio (y) = 0.12365 0.41172
# Poissons Ratio (z) = 0.05010 0.38174
#
# Static dielectric constant tensor:
#      x y z
#    x 2.945530 0.000000 0.000000 
#    y 0.000000 3.279160 0.000000 
#    z 0.000000 0.000000 3.306910 
# 
# 
# High freq. dielectric constant tensor:
#      x y z
#    x 1.595230 0.000000 0.000000 
#    y 0.000000 1.664530 0.000000 
#    z 0.000000 0.000000 1.643990 
# 
# From -- ./inp_files/63824.got.cif
#   From: 2010.03.12/outbox.cif.g09.slc.cpg/sg74_32_cif.got.tgz:63824.got - 2010.04.16 15:46:19.
