data_PCOD8298847
_publ_section_title
;
Structure prediction by ZEFSAII (Michael W. Deem and Ramdas Pophale) SiO2 
 PCOD8298847
Probable space group: I M M A
;
_chemical_formula_sum "Si O2"
_cell_formula_units_Z 88
_cell_length_a 30.624629
_cell_length_b 29.711258
_cell_length_c 5.054423
_cell_angle_alpha 90.000000
_cell_angle_beta 90.000000
_cell_angle_gamma 90.000000
_cell_volume 4599.000551
_symmetry_space_group_name_H-M "I M M A"
_symmetry_group_IT_number 74
_symmetry_cell_setting 'orthorhombic'
loop_
_space_group_symop_operation_xyz
x,y,z
-x,1/2-y,z
x,-y,-z
-x,1/2+y,-z
-x,-y,-z
x,1/2+y,-z
-x,y,z
x,1/2-y,z
1/2+x,1/2+y,1/2+z
1/2-x,-y,1/2+z
1/2+x,1/2-y,1/2-z
1/2-x,y,1/2-z
1/2-x,1/2-y,1/2-z
1/2+x,y,1/2-z
1/2-x,1/2+y,1/2+z
1/2+x,-y,1/2+z
loop_
_atom_site_type_symbol
_atom_site_label
_atom_site_fract_x
_atom_site_fract_y
_atom_site_fract_z
Si Si1 0.937219 0.700026 0.121234
Si Si2 0.701517 0.031231 0.246726
Si Si3 0.219869 0.750000 0.006989
Si Si4 0.047189 0.143071 0.390623
Si Si5 0.344185 0.827352 0.343908
Si Si6 0.641720 0.884838 0.845532
O O1 0.957301 0.750000 0.131229
O O2 0.960205 0.667877 0.331188
O O3 0.886259 0.703730 0.196770
O O4 0.944155 0.680857 0.828810
O O5 0.750000 0.054192 0.250000
O O6 0.664024 0.067038 0.183107
O O7 0.690883 0.000000 0.500000
O O8 0.701923 0.000000 0.000000
O O9 0.250000 0.750000 0.750000
O O10 0.250000 0.750000 0.250000
O O11 0.193105 0.796021 0.034381
O O12 0.089403 0.109873 0.408393
O O13 0.000000 0.118342 0.335240
O O14 0.353787 0.865386 0.555095
O O15 0.334237 0.853164 0.065645
#
# Coordination Sequence:
#
# PCOD8298847 Si02
#       6
#    16  16   8  16  16  16
#     4  10  19  33  52  70 103 147 186 235 277 312
#     4  10  21  38  61  88 111 133 172 229 284 341
#     4  12  24  36  52  76 109 150 195 244 278 310
#     4  10  21  33  50  79 108 141 185 227 274 329
#     4  10  21  37  52  76 108 149 193 225 268 332
#     4  10  21  37  60  79 109 150 178 223 287 337
#
# _framework density 19.134591
#
# number of rings (size 3 to 8) (size 9 to 14) (size 15 to 20)
#    0.000    1.818    0.909    3.273    0.000    4.364 
#    0.000    0.000    0.000    1.091    0.000    0.000 
#    0.000    0.000    0.000    0.000    0.000    0.000 
#
# Total GULP energy -545084.157581 kJ/mol
# GULP energy per Si atom -12388.276309 kJ/mol
# Density = 1.909104 g / cm^3
# Si number density = 19.134591 Si / 1000 Ang^3
#
#
#
# Elastic Constant Matrix: (Units=GPa)
#
#
# Indices 1 2 3 4 5 6 
#
# 1 150.3888 58.1696 23.3892 0.0000 0.0000 0.0000
# 2 58.1696 54.5238 10.3483 0.0000 0.0000 0.0000
# 3 23.3892 10.3483 101.0039 0.0000 0.0000 0.0000
# 4 0.0000 0.0000 0.0000 41.2213 0.0000 0.0000
# 5 0.0000 0.0000 0.0000 0.0000 10.3942 0.0000
# 6 0.0000 0.0000 0.0000 0.0000 0.0000 113.3719
#
#
#
# Elastic Compliance Matrix: (Units=1/GPa)
#
#
# Indices 1 2 3 4 5 6 
#
# 1 0.011522 -0.012020 -0.001437 0.000000 0.000000 0.000000
# 2 -0.012020 0.031243 -0.000418 0.000000 0.000000 0.000000
# 3 -0.001437 -0.000418 0.010276 0.000000 0.000000 0.000000
# 4 0.000000 0.000000 0.000000 0.024259 0.000000 0.000000
# 5 0.000000 0.000000 0.000000 0.000000 0.096208 0.000000
# 6 0.000000 0.000000 0.000000 0.000000 0.000000 0.008821
#
#
# Mechanical properties :
#
#
# Convention : Reuss Voigt Hill
#
# Bulk Modulus (GPa) = 39.53609 54.41453 46.97531
# Shear Modulus (GPa) = 22.88241 47.26476 35.07359
#
# Velocity S-wave (km/s) = 3.46188 4.97542 4.28599
# Velocity P-wave (km/s) = 6.05693 7.84257 7.00687
#
# Compressibility (1/GPa) = 0.02529335
#
# Stress axis : x y z
#
# Youngs Moduli (GPa) = 86.78996 32.00671 97.31339
#
# Poissons Ratio (x) = 0.38472 0.13980
# Poissons Ratio (y) = 1.04320 0.04064
# Poissons Ratio (z) = 0.12469 0.01337
#
# Static dielectric constant tensor:
#      x y z
#    x 2.695880 0.000000 0.000000 
#    y 0.000000 3.060530 0.000000 
#    z 0.000000 0.000000 3.677210 
# 
# 
# High freq. dielectric constant tensor:
#      x y z
#    x 1.757990 0.000000 0.000000 
#    y 0.000000 1.698840 0.000000 
#    z 0.000000 0.000000 1.769490 
# 
# From -- ./inp_files/5147.got.cif
#   From: 2010.03.12/outbox.cif.g09.slc.cpg/sg74_3_cif.got.tgz:5147.got - 2010.04.16 15:46:19.
