data_PCOD8298721
_publ_section_title
;
Structure prediction by ZEFSAII (Michael W. Deem and Ramdas Pophale) SiO2 
 PCOD8298721
Probable space group: I M M A
;
_chemical_formula_sum "Si O2"
_cell_formula_units_Z 64
_cell_length_a 20.729745
_cell_length_b 8.802189
_cell_length_c 17.993613
_cell_angle_alpha 90.000000
_cell_angle_beta 90.000000
_cell_angle_gamma 90.000000
_cell_volume 3283.242984
_symmetry_space_group_name_H-M "I M M A"
_symmetry_group_IT_number 74
_symmetry_cell_setting 'orthorhombic'
loop_
_space_group_symop_operation_xyz
x,y,z
-x,1/2-y,z
x,-y,-z
-x,1/2+y,-z
-x,-y,-z
x,1/2+y,-z
-x,y,z
x,1/2-y,z
1/2+x,1/2+y,1/2+z
1/2-x,-y,1/2+z
1/2+x,1/2-y,1/2-z
1/2-x,y,1/2-z
1/2-x,1/2-y,1/2-z
1/2+x,y,1/2-z
1/2-x,1/2+y,1/2+z
1/2+x,-y,1/2+z
loop_
_atom_site_type_symbol
_atom_site_label
_atom_site_fract_x
_atom_site_fract_y
_atom_site_fract_z
Si Si1 0.000000 0.569545 0.580839
Si Si2 0.125752 0.569641 0.667073
Si Si3 0.380393 0.570667 0.664158
Si Si4 0.250012 0.571148 0.580530
Si Si5 0.000000 0.429457 0.918984
O O1 0.000000 0.500000 0.500000
O O2 0.062618 0.509620 0.624554
O O3 0.000000 0.750000 0.574732
O O4 0.128087 0.750000 0.667365
O O5 0.124022 0.511437 0.751474
O O6 0.188986 0.504827 0.625829
O O7 0.394504 0.750000 0.660029
O O8 0.314030 0.526198 0.624633
O O9 0.437113 0.481547 0.624572
O O10 0.252289 0.500000 0.500000
O O11 0.243655 0.750000 0.571556
O O12 0.000000 0.250000 0.926964
O O13 0.000000 0.500000 0.000000
#
# Coordination Sequence:
#
# PCOD8298721 Si02
#       5
#     8  16  16  16   8
#     4  10  19  32  52  76 106 142 179 220 268 322
#     4   9  18  34  56  81 108 143 184 223 267 321
#     4  10  20  37  60  82 107 142 185 230 273 320
#     4  10  20  34  55  82 111 144 183 226 271 322
#     4  12  25  40  58  82 112 144 181 224 274 330
#
# _framework density 19.492923000000001
#
# number of rings (size 3 to 8) (size 9 to 14) (size 15 to 20)
#    0.000    2.000    0.000    4.125    0.000    8.000 
#    0.000    3.750    0.000    3.000    0.000    0.000 
#    0.000    0.000    0.000    0.000    0.000    0.000 
#
# Total GULP energy -396893.586408 kJ/mol
# GULP energy per Si atom -12402.924575 kJ/mol
# Density = 1.944856 g / cm^3
# Si number density = 19.492923 Si / 1000 Ang^3
#
#
#
# Elastic Constant Matrix: (Units=GPa)
#
#
# Indices 1 2 3 4 5 6 
#
# 1 207.7137 55.2488 120.5342 0.0000 0.0000 0.0000
# 2 55.2488 43.8720 47.8146 0.0000 0.0000 0.0000
# 3 120.5342 47.8146 226.4523 0.0000 0.0000 0.0000
# 4 0.0000 0.0000 0.0000 32.7774 0.0000 0.0000
# 5 0.0000 0.0000 0.0000 0.0000 46.4481 0.0000
# 6 0.0000 0.0000 0.0000 0.0000 0.0000 4.1282
#
#
#
# Elastic Compliance Matrix: (Units=1/GPa)
#
#
# Indices 1 2 3 4 5 6 
#
# 1 0.008528 -0.007523 -0.002950 0.000000 0.000000 0.000000
# 2 -0.007523 0.036244 -0.003648 0.000000 0.000000 0.000000
# 3 -0.002950 -0.003648 0.006757 0.000000 0.000000 0.000000
# 4 0.000000 0.000000 0.000000 0.030509 0.000000 0.000000
# 5 0.000000 0.000000 0.000000 0.000000 0.021529 0.000000
# 6 0.000000 0.000000 0.000000 0.000000 0.000000 0.242233
#
#
# Mechanical properties :
#
#
# Convention : Reuss Voigt Hill
#
# Bulk Modulus (GPa) = 42.94777 102.80369 72.87573
# Shear Modulus (GPa) = 13.09567 33.63345 23.36456
#
# Velocity S-wave (km/s) = 2.59475 4.15832 3.46586
# Velocity P-wave (km/s) = 5.57291 8.71258 7.31322
#
# Compressibility (1/GPa) = 0.02328410
#
# Stress axis : x y z
#
# Youngs Moduli (GPa) = 117.26754 27.59073 148.00082
#
# Poissons Ratio (x) = 0.20757 0.43667
# Poissons Ratio (y) = 0.88224 0.53996
# Poissons Ratio (z) = 0.34599 0.10066
#
# Static dielectric constant tensor:
#      x y z
#    x 3.946060 0.000000 0.000000 
#    y 0.000000 3.195110 0.000000 
#    z 0.000000 0.000000 3.733730 
# 
# 
# High freq. dielectric constant tensor:
#      x y z
#    x 1.782490 0.000000 0.000000 
#    y 0.000000 1.720700 0.000000 
#    z 0.000000 0.000000 1.781160 
# 
# From -- ./inp_files/35999.got.cif
#   From: 2010.03.12/outbox.cif.g09.slc.cpg/sg74_18_cif.got.tgz:35999.got - 2010.04.16 15:46:19.
