data_PCOD8298007
_publ_section_title
;
Structure prediction by ZEFSAII (Michael W. Deem and Ramdas Pophale) SiO2 
 PCOD8298007
Probable space group: I M M A
;
_chemical_formula_sum "Si O2"
_cell_formula_units_Z 104
_cell_length_a 9.199995
_cell_length_b 29.749255
_cell_length_c 21.037823
_cell_angle_alpha 90.000000
_cell_angle_beta 90.000000
_cell_angle_gamma 90.000000
_cell_volume 5757.904833
_symmetry_space_group_name_H-M "I M M A"
_symmetry_group_IT_number 74
_symmetry_cell_setting 'orthorhombic'
loop_
_space_group_symop_operation_xyz
x,y,z
-x,1/2-y,z
x,-y,-z
-x,1/2+y,-z
-x,-y,-z
x,1/2+y,-z
-x,y,z
x,1/2-y,z
1/2+x,1/2+y,1/2+z
1/2-x,-y,1/2+z
1/2+x,1/2-y,1/2-z
1/2-x,y,1/2-z
1/2-x,1/2-y,1/2-z
1/2+x,y,1/2-z
1/2-x,1/2+y,1/2+z
1/2+x,-y,1/2+z
loop_
_atom_site_type_symbol
_atom_site_label
_atom_site_fract_x
_atom_site_fract_y
_atom_site_fract_z
Si Si1 0.667429 0.970864 0.814241
Si Si2 0.331316 0.699815 0.813376
Si Si3 0.171133 0.527402 0.436853
Si Si4 0.671510 0.610510 0.481896
Si Si5 0.164960 0.701169 0.083827
Si Si6 0.832444 0.115118 0.390355
Si Si7 0.327188 0.750000 0.183114
O O1 0.500000 0.980123 0.800390
O O2 0.750000 0.984020 0.750000
O O3 0.695575 0.918777 0.831958
O O4 0.720098 0.000684 0.873927
O O5 0.500000 0.696763 0.797100
O O6 0.286338 0.750000 0.835506
O O7 0.250000 0.685372 0.750000
O O8 0.290318 0.665392 0.869069
O O9 0.216585 0.500000 0.500000
O O10 0.256383 0.574562 0.434596
O O11 0.000000 0.536848 0.437313
O O12 0.500000 0.604066 0.481688
O O13 0.718558 0.660792 0.460888
O O14 0.730607 0.601332 0.551988
O O15 0.170466 0.750000 0.047371
O O16 0.271444 0.705404 0.145107
O O17 0.000000 0.691513 0.107174
O O18 0.000000 0.111469 0.412804
O O19 0.500000 0.750000 0.189998
O O20 0.250000 0.750000 0.250000
#
# Coordination Sequence:
#
# PCOD8298007 Si02
#       7
#    16  16  16  16  16  16   8
#     4  10  21  37  58  82 109 147 185 231 285 331
#     4   9  18  32  50  73 104 142 182 227 274 321
#     4  10  20  39  61  80 112 155 191 228 283 343
#     4  11  22  35  57  86 112 143 185 234 282 325
#     4   8  18  37  54  76 116 150 177 225 277 328
#     4  10  20  35  53  75 109 148 186 228 277 337
#     4  10  18  32  58  86 110 146 189 226 273 332
#
# _framework density 18.062125000000002
#
# number of rings (size 3 to 8) (size 9 to 14) (size 15 to 20)
#    0.462    1.846    1.538    1.385    0.000    4.000 
#    0.000    0.769    0.000    1.846    0.000    0.000 
#    0.000    0.000    0.000    0.000    0.000    0.000 
#
# Total GULP energy -644595.540475 kJ/mol
# GULP energy per Si atom -12396.068086 kJ/mol
# Density = 1.802101 g / cm^3
# Si number density = 18.062125 Si / 1000 Ang^3
#
#
#
# Elastic Constant Matrix: (Units=GPa)
#
#
# Indices 1 2 3 4 5 6 
#
# 1 66.2299 42.9445 45.8523 0.0000 0.0000 0.0000
# 2 42.9445 112.8562 49.8978 0.0000 0.0000 0.0000
# 3 45.8523 49.8978 114.5715 -0.0002 0.0000 0.0000
# 4 0.0000 0.0000 -0.0002 21.2718 0.0000 0.0000
# 5 0.0000 0.0000 0.0000 0.0000 33.3197 0.0000
# 6 0.0000 0.0000 0.0000 0.0000 0.0000 27.7351
#
#
#
# Elastic Compliance Matrix: (Units=1/GPa)
#
#
# Indices 1 2 3 4 5 6 
#
# 1 0.023760 -0.005991 -0.006900 0.000000 0.000000 0.000000
# 2 -0.005991 0.012484 -0.003040 0.000000 0.000000 0.000000
# 3 -0.006900 -0.003040 0.012813 0.000000 0.000000 0.000000
# 4 0.000000 0.000000 0.000000 0.047011 0.000000 0.000000
# 5 0.000000 0.000000 0.000000 0.000000 0.030012 0.000000
# 6 0.000000 0.000000 0.000000 0.000000 0.000000 0.036055
#
#
# Mechanical properties :
#
#
# Convention : Reuss Voigt Hill
#
# Bulk Modulus (GPa) = 58.14794 63.44963 60.79878
# Shear Modulus (GPa) = 25.03385 26.79619 25.91502
#
# Velocity S-wave (km/s) = 3.72692 3.85588 3.79195
# Velocity P-wave (km/s) = 7.12623 7.41812 7.27364
#
# Compressibility (1/GPa) = 0.01719752
#
# Stress axis : x y z
#
# Youngs Moduli (GPa) = 42.08683 80.10028 78.04315
#
# Poissons Ratio (x) = 0.47985 0.53850
# Poissons Ratio (y) = 0.25213 0.23722
# Poissons Ratio (z) = 0.29040 0.24348
#
# Static dielectric constant tensor:
#      x y z
#    x 3.278340 0.000000 0.000000 
#    y 0.000000 3.559910 0.000000 
#    z 0.000000 0.000000 3.140600 
# 
# 
# High freq. dielectric constant tensor:
#      x y z
#    x 1.696010 0.000000 0.000000 
#    y 0.000000 1.702980 0.000000 
#    z 0.000000 0.000000 1.682280 
# 
# From -- ./inp_files/57868.got.cif
#   From: 2010.03.12/outbox.cif.g09.slc.cpg/sg74_29_cif.got.tgz:57868.got - 2010.04.16 15:46:19.
