data_PCOD8298066
_publ_section_title
;
Structure prediction by ZEFSAII (Michael W. Deem and Ramdas Pophale) SiO2 
 PCOD8298066
Probable space group: I M M A
;
_chemical_formula_sum "Si O2"
_cell_formula_units_Z 104
_cell_length_a 8.708653
_cell_length_b 21.847431
_cell_length_c 28.659155
_cell_angle_alpha 90.000000
_cell_angle_beta 90.000000
_cell_angle_gamma 90.000000
_cell_volume 5452.739422
_symmetry_space_group_name_H-M "I M M A"
_symmetry_group_IT_number 74
_symmetry_cell_setting 'orthorhombic'
loop_
_space_group_symop_operation_xyz
x,y,z
-x,1/2-y,z
x,-y,-z
-x,1/2+y,-z
-x,-y,-z
x,1/2+y,-z
-x,y,z
x,1/2-y,z
1/2+x,1/2+y,1/2+z
1/2-x,-y,1/2+z
1/2+x,1/2-y,1/2-z
1/2-x,y,1/2-z
1/2-x,1/2-y,1/2-z
1/2+x,y,1/2-z
1/2-x,1/2+y,1/2+z
1/2+x,-y,1/2+z
loop_
_atom_site_type_symbol
_atom_site_label
_atom_site_fract_x
_atom_site_fract_y
_atom_site_fract_z
Si Si1 0.829572 0.821760 0.795538
Si Si2 0.679766 0.562457 0.544511
Si Si3 0.817544 0.929752 0.448948
Si Si4 0.818908 0.507321 0.299949
Si Si5 0.321376 0.602453 0.867090
Si Si6 0.816902 0.250000 0.697703
Si Si7 0.682222 0.126353 0.852242
O O1 0.842370 0.750000 0.790060
O O2 0.750000 0.851009 0.750000
O O3 0.720819 0.836501 0.839108
O O4 0.000000 0.850359 0.801151
O O5 0.500000 0.549481 0.540300
O O6 0.767720 0.499949 0.557478
O O7 0.739331 0.593693 0.496659
O O8 0.721060 0.608102 0.586093
O O9 0.761210 0.887630 0.405353
O O10 0.000000 0.927249 0.453544
O O11 0.750000 0.492237 0.250000
O O12 0.767676 0.455705 0.336595
O O13 0.756306 0.572542 0.318548
O O14 0.000000 0.508440 0.295244
O O15 0.500000 0.600141 0.879621
O O16 0.750000 0.250000 0.750000
O O17 0.757288 0.190922 0.668389
O O18 0.000000 0.250000 0.701911
O O19 0.500000 0.126189 0.852583
#
# Coordination Sequence:
#
# PCOD8298066 Si02
#       7
#    16  16  16  16  16   8  16
#     4  10  21  37  56  79 109 145 183 222 265 317
#     4  11  21  33  52  83 113 137 175 224 277 336
#     4  10  18  34  56  77 106 144 180 221 274 333
#     4  10  20  33  48  74 108 140 174 218 269 319
#     4  11  21  35  55  78 108 144 183 224 272 326
#     4  10  20  36  58  82 110 148 190 234 277 328
#     4   9  18  34  55  78 107 143 185 227 272 325
#
# _framework density 19.072980999999999
#
# number of rings (size 3 to 8) (size 9 to 14) (size 15 to 20)
#    0.000    1.846    1.538    4.615    0.000    3.385 
#    0.000    1.538    1.692    0.000    0.000    0.000 
#    0.000    0.000    0.000    0.000    0.000    0.000 
#
# Total GULP energy -644682.495551 kJ/mol
# GULP energy per Si atom -12397.740299 kJ/mol
# Density = 1.902957 g / cm^3
# Si number density = 19.072981 Si / 1000 Ang^3
#
#
#
# Elastic Constant Matrix: (Units=GPa)
#
#
# Indices 1 2 3 4 5 6 
#
# 1 63.8540 20.8176 40.3205 0.0000 0.0000 0.0000
# 2 20.8176 44.7802 31.3428 0.0000 0.0000 0.0000
# 3 40.3205 31.3428 160.0442 0.0000 0.0000 0.0000
# 4 0.0000 0.0000 0.0000 29.2189 0.0000 0.0000
# 5 0.0000 0.0000 0.0000 0.0000 33.1525 0.0000
# 6 0.0000 0.0000 0.0000 0.0000 0.0000 18.1610
#
#
#
# Elastic Compliance Matrix: (Units=1/GPa)
#
#
# Indices 1 2 3 4 5 6 
#
# 1 0.020253 -0.006772 -0.003776 0.000000 0.000000 0.000000
# 2 -0.006772 0.028143 -0.003805 0.000000 0.000000 0.000000
# 3 -0.003776 -0.003805 0.007945 0.000000 0.000000 0.000000
# 4 0.000000 0.000000 0.000000 0.034224 0.000000 0.000000
# 5 0.000000 0.000000 0.000000 0.000000 0.030164 0.000000
# 6 0.000000 0.000000 0.000000 0.000000 0.000000 0.055063
#
#
# Mechanical properties :
#
#
# Convention : Reuss Voigt Hill
#
# Bulk Modulus (GPa) = 36.18805 50.40446 43.29626
# Shear Modulus (GPa) = 23.39613 27.85299 25.62456
#
# Velocity S-wave (km/s) = 3.50618 3.82558 3.66936
# Velocity P-wave (km/s) = 5.95027 6.78218 6.37980
#
# Compressibility (1/GPa) = 0.02763343
#
# Stress axis : x y z
#
# Youngs Moduli (GPa) = 49.37529 35.53277 125.86782
#
# Poissons Ratio (x) = 0.24064 0.47530
# Poissons Ratio (y) = 0.33438 0.47897
# Poissons Ratio (z) = 0.18645 0.13521
#
# Static dielectric constant tensor:
#      x y z
#    x 3.419400 0.000000 0.000000 
#    y 0.000000 3.399220 0.000000 
#    z 0.000000 0.000000 3.801690 
# 
# 
# High freq. dielectric constant tensor:
#      x y z
#    x 1.733080 0.000000 0.000000 
#    y 0.000000 1.714120 0.000000 
#    z 0.000000 0.000000 1.757080 
# 
# From -- ./inp_files/64760.got.cif
#   From: 2010.03.12/outbox.cif.g09.slc.cpg/sg74_33_cif.got.tgz:64760.got - 2010.04.16 15:46:19.
