data_PCOD8298565
_publ_section_title
;
Structure prediction by ZEFSAII (Michael W. Deem and Ramdas Pophale) SiO2 
 PCOD8298565
Probable space group: I M M A
;
_chemical_formula_sum "Si O2"
_cell_formula_units_Z 96
_cell_length_a 17.241332
_cell_length_b 13.727684
_cell_length_c 20.922076
_cell_angle_alpha 90.000000
_cell_angle_beta 90.000000
_cell_angle_gamma 90.000000
_cell_volume 4951.911377
_symmetry_space_group_name_H-M "I M M A"
_symmetry_group_IT_number 74
_symmetry_cell_setting 'orthorhombic'
loop_
_space_group_symop_operation_xyz
x,y,z
-x,1/2-y,z
x,-y,-z
-x,1/2+y,-z
-x,-y,-z
x,1/2+y,-z
-x,y,z
x,1/2-y,z
1/2+x,1/2+y,1/2+z
1/2-x,-y,1/2+z
1/2+x,1/2-y,1/2-z
1/2-x,y,1/2-z
1/2-x,1/2-y,1/2-z
1/2+x,y,1/2-z
1/2-x,1/2+y,1/2+z
1/2+x,-y,1/2+z
loop_
_atom_site_type_symbol
_atom_site_label
_atom_site_fract_x
_atom_site_fract_y
_atom_site_fract_z
Si Si1 0.088270 0.022152 0.595885
Si Si2 0.910421 0.551606 0.150189
Si Si3 0.407799 0.140080 0.783649
Si Si4 0.411573 0.642272 0.591915
Si Si5 0.823003 0.636850 0.031105
Si Si6 0.651258 0.862877 0.987138
O O1 0.124481 0.072676 0.659065
O O2 0.087861 0.101997 0.538766
O O3 0.000000 0.988984 0.608278
O O4 0.139396 0.926925 0.577259
O O5 0.879971 0.593162 0.217178
O O6 0.903149 0.433476 0.150710
O O7 0.854413 0.590707 0.095605
O O8 0.000000 0.583141 0.137676
O O9 0.500000 0.143250 0.787543
O O10 0.374313 0.250000 0.789623
O O11 0.500000 0.650882 0.570073
O O12 0.379907 0.750000 0.612033
O O13 0.366278 0.596517 0.531664
O O14 0.840376 0.750000 0.036091
O O15 0.732818 0.613927 0.020974
O O16 0.641101 0.750000 0.969220
#
# Coordination Sequence:
#
# PCOD8298565 Si02
#       6
#    16  16  16  16  16  16
#     4  10  21  36  57  80 102 136 176 220 276 329
#     4  10  19  31  53  81 110 149 185 214 255 310
#     4   9  18  34  55  80 110 139 173 220 270 318
#     4   9  18  31  48  74 108 145 185 223 256 299
#     4  10  20  32  50  77 109 143 178 219 266 312
#     4  10  21  35  54  80 108 136 171 222 276 321
#
# _framework density 19.386452999999999
#
# number of rings (size 3 to 8) (size 9 to 14) (size 15 to 20)
#    0.000    2.333    0.000    3.000    4.667    5.000 
#    0.000    1.667    0.000    6.000    0.000    3.500 
#    0.000    0.000    0.000    0.000    0.000    0.000 
#
# Total GULP energy -595014.434602 kJ/mol
# GULP energy per Si atom -12396.134054 kJ/mol
# Density = 1.934233 g / cm^3
# Si number density = 19.386453 Si / 1000 Ang^3
#
#
#
# Elastic Constant Matrix: (Units=GPa)
#
#
# Indices 1 2 3 4 5 6 
#
# 1 48.5579 31.3102 26.5037 0.0000 0.0000 0.0000
# 2 31.3102 132.7820 91.5281 0.0000 0.0000 0.0000
# 3 26.5037 91.5281 126.2817 0.0000 0.0000 0.0000
# 4 0.0000 0.0000 0.0000 33.7990 0.0000 0.0000
# 5 0.0000 0.0000 0.0000 0.0000 5.1234 0.0000
# 6 0.0000 0.0000 0.0000 0.0000 0.0000 21.6374
#
#
#
# Elastic Compliance Matrix: (Units=1/GPa)
#
#
# Indices 1 2 3 4 5 6 
#
# 1 0.024515 -0.004465 -0.001909 0.000000 0.000000 0.000000
# 2 -0.004465 0.015864 -0.010561 0.000000 0.000000 0.000000
# 3 -0.001909 -0.010561 0.015974 0.000000 0.000000 0.000000
# 4 0.000000 0.000000 0.000000 0.029587 0.000000 0.000000
# 5 0.000000 0.000000 0.000000 0.000000 0.195183 0.000000
# 6 0.000000 0.000000 0.000000 0.000000 0.000000 0.046216
#
#
# Mechanical properties :
#
#
# Convention : Reuss Voigt Hill
#
# Bulk Modulus (GPa) = 44.47784 67.36727 55.92256
# Shear Modulus (GPa) = 13.56109 22.66393 18.11251
#
# Velocity S-wave (km/s) = 2.64770 3.42286 3.05993
# Velocity P-wave (km/s) = 5.68680 7.10256 6.43374
#
# Compressibility (1/GPa) = 0.02248311
#
# Stress axis : x y z
#
# Youngs Moduli (GPa) = 40.79165 63.03764 62.60220
#
# Poissons Ratio (x) = 0.28144 0.11952
# Poissons Ratio (y) = 0.18212 0.66113
# Poissons Ratio (z) = 0.07788 0.66573
#
# Static dielectric constant tensor:
#      x y z
#    x 3.343130 0.000000 0.000000 
#    y 0.000000 3.817460 0.000000 
#    z 0.000000 0.000000 3.450590 
# 
# 
# High freq. dielectric constant tensor:
#      x y z
#    x 1.736450 0.000000 0.000000 
#    y 0.000000 1.768830 0.000000 
#    z 0.000000 0.000000 1.731370 
# 
# From -- ./inp_files/51884.got.cif
#   From: 2010.03.12/outbox.cif.g09.slc.cpg/sg74_26_cif.got.tgz:51884.got - 2010.04.16 15:46:19.
