data_PCOD8298630
_publ_section_title
;
Structure prediction by ZEFSAII (Michael W. Deem and Ramdas Pophale) SiO2 
 PCOD8298630
Probable space group: I M M A
;
_chemical_formula_sum "Si O2"
_cell_formula_units_Z 80
_cell_length_a 8.914506
_cell_length_b 25.483492
_cell_length_c 18.543918
_cell_angle_alpha 90.000000
_cell_angle_beta 90.000000
_cell_angle_gamma 90.000000
_cell_volume 4212.672706
_symmetry_space_group_name_H-M "I M M A"
_symmetry_group_IT_number 74
_symmetry_cell_setting 'orthorhombic'
loop_
_space_group_symop_operation_xyz
x,y,z
-x,1/2-y,z
x,-y,-z
-x,1/2+y,-z
-x,-y,-z
x,1/2+y,-z
-x,y,z
x,1/2-y,z
1/2+x,1/2+y,1/2+z
1/2-x,-y,1/2+z
1/2+x,1/2-y,1/2-z
1/2-x,y,1/2-z
1/2-x,1/2-y,1/2-z
1/2+x,y,1/2-z
1/2-x,1/2+y,1/2+z
1/2+x,-y,1/2+z
loop_
_atom_site_type_symbol
_atom_site_label
_atom_site_fract_x
_atom_site_fract_y
_atom_site_fract_z
Si Si1 0.323462 0.157578 0.416896
Si Si2 0.677837 0.651838 0.420625
Si Si3 0.826095 0.059838 0.177013
Si Si4 0.321770 0.750000 0.828480
Si Si5 0.821806 0.250000 0.827950
Si Si6 0.677470 0.442287 0.675200
O O1 0.500000 0.171321 0.412076
O O2 0.261268 0.158933 0.498392
O O3 0.289426 0.099309 0.387649
O O4 0.230639 0.198721 0.370758
O O5 0.500000 0.652248 0.424083
O O6 0.736455 0.699258 0.371235
O O7 0.735119 0.596769 0.387385
O O8 0.750000 0.080166 0.250000
O O9 0.000000 0.058243 0.194492
O O10 0.770402 0.001421 0.155152
O O11 0.500000 0.750000 0.820974
O O12 0.250000 0.750000 0.750000
O O13 0.750000 0.250000 0.750000
O O14 0.000000 0.250000 0.820085
O O15 0.500000 0.438102 0.683865
O O16 0.750000 0.424009 0.750000
#
# Coordination Sequence:
#
# PCOD8298630 Si02
#       6
#    16  16  16   8   8  16
#     4  10  20  36  56  78 104 136 170 211 260 309
#     4   9  18  32  52  75 103 136 171 210 257 307
#     4   9  18  31  51  76 102 133 172 213 254 300
#     4  12  25  40  58  80 104 134 171 212 254 306
#     4  10  19  32  50  72  96 130 171 210 252 304
#     4   9  17  31  50  75 104 137 175 215 255 301
#
# _framework density 18.990320000000001
#
# number of rings (size 3 to 8) (size 9 to 14) (size 15 to 20)
#    0.000    2.400    0.000    2.700    0.000    4.800 
#    0.000    7.000    0.000    0.000    0.000    7.000 
#    0.000    0.000    0.000    0.000    0.000    0.000 
#
# Total GULP energy -495995.652800 kJ/mol
# GULP energy per Si atom -12399.891320 kJ/mol
# Density = 1.894710 g / cm^3
# Si number density = 18.990320 Si / 1000 Ang^3
#
#
#
# Elastic Constant Matrix: (Units=GPa)
#
#
# Indices 1 2 3 4 5 6 
#
# 1 43.4045 37.6874 43.1245 0.0000 0.0000 0.0000
# 2 37.6874 132.7279 92.4697 0.0000 0.0000 0.0000
# 3 43.1245 92.4697 184.6275 0.0000 0.0000 0.0000
# 4 0.0000 0.0000 0.0000 33.2117 0.0000 0.0000
# 5 0.0000 0.0000 0.0000 0.0000 27.8747 0.0000
# 6 0.0000 0.0000 0.0000 0.0000 0.0000 19.8380
#
#
#
# Elastic Compliance Matrix: (Units=1/GPa)
#
#
# Indices 1 2 3 4 5 6 
#
# 1 0.032964 -0.006137 -0.004626 0.000000 0.000000 0.000000
# 2 -0.006137 0.012715 -0.004935 0.000000 0.000000 0.000000
# 3 -0.004626 -0.004935 0.008968 0.000000 0.000000 0.000000
# 4 0.000000 0.000000 0.000000 0.030110 0.000000 0.000000
# 5 0.000000 0.000000 0.000000 0.000000 0.035875 0.000000
# 6 0.000000 0.000000 0.000000 0.000000 0.000000 0.050408
#
#
# Mechanical properties :
#
#
# Convention : Reuss Voigt Hill
#
# Bulk Modulus (GPa) = 43.00767 78.59146 60.79956
# Shear Modulus (GPa) = 23.78852 28.68343 26.23597
#
# Velocity S-wave (km/s) = 3.54314 3.89063 3.72095
# Velocity P-wave (km/s) = 6.27971 7.85223 7.10958
#
# Compressibility (1/GPa) = 0.02325167
#
# Stress axis : x y z
#
# Youngs Moduli (GPa) = 30.33625 78.64912 111.50456
#
# Poissons Ratio (x) = 0.48269 0.51579
# Poissons Ratio (y) = 0.18618 0.55023
# Poissons Ratio (z) = 0.14033 0.38810
#
# Static dielectric constant tensor:
#      x y z
#    x 3.259410 0.000000 0.000000 
#    y 0.000000 3.901400 0.000000 
#    z 0.000000 0.000000 3.682010 
# 
# 
# High freq. dielectric constant tensor:
#      x y z
#    x 1.705050 0.000000 0.000000 
#    y 0.000000 1.755810 0.000000 
#    z 0.000000 0.000000 1.742600 
# 
# From -- ./inp_files/39794.got.cif
#   From: 2010.03.12/outbox.cif.g09.slc.cpg/sg74_20_cif.got.tgz:39794.got - 2010.04.16 15:46:19.
