data_PCOD8298026
_publ_section_title
;
Structure prediction by ZEFSAII (Michael W. Deem and Ramdas Pophale) SiO2 
 PCOD8298026
Probable space group: I M M A
;
_chemical_formula_sum "Si O2"
_cell_formula_units_Z 80
_cell_length_a 15.398322
_cell_length_b 23.268260
_cell_length_c 10.291732
_cell_angle_alpha 90.000000
_cell_angle_beta 90.000000
_cell_angle_gamma 90.000000
_cell_volume 3687.446887
_symmetry_space_group_name_H-M "I M M A"
_symmetry_group_IT_number 74
_symmetry_cell_setting 'orthorhombic'
loop_
_space_group_symop_operation_xyz
x,y,z
-x,1/2-y,z
x,-y,-z
-x,1/2+y,-z
-x,-y,-z
x,1/2+y,-z
-x,y,z
x,1/2-y,z
1/2+x,1/2+y,1/2+z
1/2-x,-y,1/2+z
1/2+x,1/2-y,1/2-z
1/2-x,y,1/2-z
1/2-x,1/2-y,1/2-z
1/2+x,y,1/2-z
1/2-x,1/2+y,1/2+z
1/2+x,-y,1/2+z
loop_
_atom_site_type_symbol
_atom_site_label
_atom_site_fract_x
_atom_site_fract_y
_atom_site_fract_z
Si Si1 0.656628 0.750000 0.817268
Si Si2 0.396246 0.433805 0.508266
Si Si3 0.603534 0.750000 0.116351
Si Si4 0.896186 0.063929 0.493664
Si Si5 0.397160 0.868870 0.238272
Si Si6 0.099777 0.126967 0.245622
O O1 0.750000 0.750000 0.750000
O O2 0.608080 0.694995 0.759366
O O3 0.653243 0.750000 0.976020
O O4 0.363009 0.500000 0.500000
O O5 0.500000 0.433831 0.514047
O O6 0.358602 0.397818 0.631242
O O7 0.358401 0.398517 0.385440
O O8 0.500000 0.750000 0.084542
O O9 0.631133 0.696576 0.207779
O O10 0.859203 0.094523 0.620190
O O11 0.856011 0.095755 0.368549
O O12 0.000000 0.066142 0.490762
O O13 0.860043 0.000000 0.500000
O O14 0.500000 0.872229 0.244855
O O15 0.000000 0.109457 0.242444
#
# Coordination Sequence:
#
# PCOD8298026 Si02
#       6
#     8  16   8  16  16  16
#     4  12  24  37  54  76 106 142 188 242 283 319
#     4   9  17  29  48  82 120 142 165 214 274 327
#     4  10  18  33  54  77 104 140 191 235 274 326
#     4   9  15  24  44  76 107 134 170 215 263 316
#     4   9  16  26  45  73 108 143 172 211 262 316
#     4  10  19  33  55  80 109 143 177 220 275 331
#
# _framework density 21.695226000000002
#
# number of rings (size 3 to 8) (size 9 to 14) (size 15 to 20)
#    0.000    2.400    2.000    2.100    0.000    5.600 
#    0.000    3.000    0.000    3.600    0.000    0.000 
#    0.000    0.000    0.000    0.000    0.000    0.000 
#
# Total GULP energy -495661.321841 kJ/mol
# GULP energy per Si atom -12391.533046 kJ/mol
# Density = 2.164585 g / cm^3
# Si number density = 21.695226 Si / 1000 Ang^3
#
#
#
# Elastic Constant Matrix: (Units=GPa)
#
#
# Indices 1 2 3 4 5 6 
#
# 1 21.1989 -5.3816 7.9968 0.0000 0.0000 0.0000
# 2 -5.3816 227.0790 124.1324 0.0000 0.0000 0.0000
# 3 7.9968 124.1324 229.8259 0.0009 0.0001 0.0002
# 4 0.0000 0.0000 0.0009 52.5093 0.0000 0.0001
# 5 0.0000 0.0000 0.0001 0.0000 4.8464 0.0000
# 6 0.0000 0.0000 0.0002 0.0001 0.0000 -12.4889
#
#
#
# Elastic Compliance Matrix: (Units=1/GPa)
#
#
# Indices 1 2 3 4 5 6 
#
# 1 0.049182 0.002981 -0.003322 0.000000 0.000000 0.000000
# 2 0.002981 0.006429 -0.003576 0.000000 0.000000 0.000000
# 3 -0.003322 -0.003576 0.006398 0.000000 0.000000 0.000000
# 4 0.000000 0.000000 0.000000 0.019044 0.000000 0.000000
# 5 0.000000 0.000000 0.000000 0.000000 0.206339 0.000000
# 6 0.000000 0.000000 0.000000 0.000000 0.000000 -0.080071
#
#
# Mechanical properties :
#
#
# Convention : Reuss Voigt Hill
#
# Bulk Modulus (GPa) = 18.45813 81.28878 49.87345
# Shear Modulus (GPa) = 21.43953 32.39709 26.91831
#
# Velocity S-wave (km/s) = 3.14700 3.86849 3.52625
# Velocity P-wave (km/s) = 4.66167 7.58311 6.29423
#
# Compressibility (1/GPa) = 0.05417668
#
# Stress axis : x y z
#
# Youngs Moduli (GPa) = 20.33259 155.53510 156.29069
#
# Poissons Ratio (x) = -0.46369 0.51912
# Poissons Ratio (y) = -0.06062 0.55895
# Poissons Ratio (z) = 0.06754 0.55625
#
# Static dielectric constant tensor:
#      x y z
#    x 3.123090 0.000000 0.000000 
#    y 0.000000 4.227680 0.000000 
#    z 0.000000 0.000000 4.316060 
# 
# 
# High freq. dielectric constant tensor:
#      x y z
#    x 1.789830 0.000000 0.000000 
#    y 0.000000 1.869050 0.000000 
#    z 0.000000 0.000000 1.865770 
# 
# From -- ./inp_files/12326.got.cif
#   From: 2010.03.12/outbox.cif.g09.slc.cpg/sg74_7_cif.got.tgz:12326.got - 2010.04.16 15:46:19.
