data_PCOD8298585
_publ_section_title
;
Structure prediction by ZEFSAII (Michael W. Deem and Ramdas Pophale) SiO2 
 PCOD8298585
Probable space group: I M M A
;
_chemical_formula_sum "Si O2"
_cell_formula_units_Z 80
_cell_length_a 23.343485
_cell_length_b 8.781095
_cell_length_c 26.166742
_cell_angle_alpha 90.000000
_cell_angle_beta 90.000000
_cell_angle_gamma 90.000000
_cell_volume 5363.694347
_symmetry_space_group_name_H-M "I M M A"
_symmetry_group_IT_number 74
_symmetry_cell_setting 'orthorhombic'
loop_
_space_group_symop_operation_xyz
x,y,z
-x,1/2-y,z
x,-y,-z
-x,1/2+y,-z
-x,-y,-z
x,1/2+y,-z
-x,y,z
x,1/2-y,z
1/2+x,1/2+y,1/2+z
1/2-x,-y,1/2+z
1/2+x,1/2-y,1/2-z
1/2-x,y,1/2-z
1/2-x,1/2-y,1/2-z
1/2+x,y,1/2-z
1/2-x,1/2+y,1/2+z
1/2+x,-y,1/2+z
loop_
_atom_site_type_symbol
_atom_site_label
_atom_site_fract_x
_atom_site_fract_y
_atom_site_fract_z
Si Si1 0.000000 0.073537 0.611417
Si Si2 0.318141 0.569523 0.855078
Si Si3 0.500000 0.070493 0.221137
Si Si4 0.883289 0.571288 0.260336
Si Si5 0.617065 0.428842 0.944689
Si Si6 0.709710 0.917832 0.701093
O O1 0.054949 0.031754 0.577796
O O2 0.000000 0.250000 0.628103
O O3 0.000000 0.971459 0.661561
O O4 0.327715 0.750000 0.851746
O O5 0.358852 0.492563 0.813258
O O6 0.333840 0.505377 0.910334
O O7 0.251010 0.527783 0.845217
O O8 0.500000 0.250000 0.227126
O O9 0.444920 0.002264 0.249778
O O10 0.889761 0.750000 0.265922
O O11 0.842472 0.532834 0.211919
O O12 0.627933 0.250000 0.947459
O O13 0.622165 0.500000 0.000000
O O14 0.684080 0.750000 0.689885
O O15 0.750000 0.908925 0.750000
#
# Coordination Sequence:
#
# PCOD8298585 Si02
#       6
#     8  16   8  16  16  16
#     4  10  21  35  47  62  84 113 151 195 233 269
#     4  10  19  32  48  65  86 113 147 184 225 269
#     4  12  22  31  47  64  87 121 152 185 226 267
#     4  11  20  30  45  66  90 113 145 183 222 267
#     4  11  22  34  48  64  87 115 152 195 235 274
#     4   8  16  30  46  64  86 111 142 178 217 267
#
# _framework density 14.915093000000001
#
# number of rings (size 3 to 8) (size 9 to 14) (size 15 to 20)
#    0.000    1.800    2.000    5.400    0.000    5.200 
#    0.000    0.000    0.000    0.000    0.000    0.000 
#    0.000    0.000    0.000    0.900    0.000   12.000 
#
# Total GULP energy -495983.349300 kJ/mol
# GULP energy per Si atom -12399.583732 kJ/mol
# Density = 1.488115 g / cm^3
# Si number density = 14.915093 Si / 1000 Ang^3
#
#
#
# Elastic Constant Matrix: (Units=GPa)
#
#
# Indices 1 2 3 4 5 6 
#
# 1 107.2751 59.9600 54.6086 0.0000 0.0000 0.0000
# 2 59.9600 111.2191 37.1682 0.0000 0.0000 0.0000
# 3 54.6086 37.1682 62.4849 0.0000 0.0000 0.0000
# 4 0.0000 0.0000 0.0000 21.8793 0.0000 0.0000
# 5 0.0000 0.0000 0.0000 0.0000 20.4927 0.0000
# 6 0.0000 0.0000 0.0000 0.0000 0.0000 21.3446
#
#
#
# Elastic Compliance Matrix: (Units=1/GPa)
#
#
# Indices 1 2 3 4 5 6 
#
# 1 0.019578 -0.006037 -0.013519 0.000000 0.000000 0.000000
# 2 -0.006037 0.013084 -0.002507 0.000000 0.000000 0.000000
# 3 -0.013519 -0.002507 0.029310 0.000000 0.000000 0.000000
# 4 0.000000 0.000000 0.000000 0.045705 0.000000 0.000000
# 5 0.000000 0.000000 0.000000 0.000000 0.048798 0.000000
# 6 0.000000 0.000000 0.000000 0.000000 0.000000 0.046850
#
#
# Mechanical properties :
#
#
# Convention : Reuss Voigt Hill
#
# Bulk Modulus (GPa) = 56.03467 64.93917 60.48692
# Shear Modulus (GPa) = 19.73171 21.35948 20.54560
#
# Velocity S-wave (km/s) = 3.64116 3.78838 3.71550
# Velocity P-wave (km/s) = 7.43829 7.92272 7.68432
#
# Compressibility (1/GPa) = 0.01784609
#
# Stress axis : x y z
#
# Youngs Moduli (GPa) = 51.07764 76.43211 34.11798
#
# Poissons Ratio (x) = 0.46141 0.46125
# Poissons Ratio (y) = 0.30835 0.08552
# Poissons Ratio (z) = 0.69053 0.19159
#
# Static dielectric constant tensor:
#      x y z
#    x 3.174650 0.000000 0.000000 
#    y 0.000000 2.994010 0.000000 
#    z 0.000000 0.000000 2.735270 
# 
# 
# High freq. dielectric constant tensor:
#      x y z
#    x 1.565220 0.000000 0.000000 
#    y 0.000000 1.586980 0.000000 
#    z 0.000000 0.000000 1.528320 
# 
# From -- ./inp_files/54979.got.cif
#   From: 2010.03.12/outbox.cif.g09.slc.cpg/sg74_28_cif.got.tgz:54979.got - 2010.04.16 15:46:19.
