data_PCOD8298550
_publ_section_title
;
Structure prediction by ZEFSAII (Michael W. Deem and Ramdas Pophale) SiO2 
 PCOD8298550
Probable space group: I M M A
;
_chemical_formula_sum "Si O2"
_cell_formula_units_Z 96
_cell_length_a 20.443220
_cell_length_b 17.495155
_cell_length_c 15.392250
_cell_angle_alpha 90.000000
_cell_angle_beta 90.000000
_cell_angle_gamma 90.000000
_cell_volume 5505.150616
_symmetry_space_group_name_H-M "I M M A"
_symmetry_group_IT_number 74
_symmetry_cell_setting 'orthorhombic'
loop_
_space_group_symop_operation_xyz
x,y,z
-x,1/2-y,z
x,-y,-z
-x,1/2+y,-z
-x,-y,-z
x,1/2+y,-z
-x,y,z
x,1/2-y,z
1/2+x,1/2+y,1/2+z
1/2-x,-y,1/2+z
1/2+x,1/2-y,1/2-z
1/2-x,y,1/2-z
1/2-x,1/2-y,1/2-z
1/2+x,y,1/2-z
1/2-x,1/2+y,1/2+z
1/2+x,-y,1/2+z
loop_
_atom_site_type_symbol
_atom_site_label
_atom_site_fract_x
_atom_site_fract_y
_atom_site_fract_z
Si Si1 0.500000 0.657166 0.321135
Si Si2 0.794676 0.559821 0.830445
Si Si3 0.712947 0.163591 0.610624
Si Si4 0.627368 0.163885 0.445999
Si Si5 0.130673 0.425862 0.761100
Si Si6 0.000000 0.589905 0.989454
Si Si7 0.189268 0.042403 0.582728
O O1 0.500000 0.750000 0.306490
O O2 0.437564 0.616352 0.277700
O O3 0.500000 0.639308 0.422549
O O4 0.750000 0.585276 0.750000
O O5 0.818266 0.635768 0.878327
O O6 0.858802 0.508812 0.805853
O O7 0.749427 0.512269 0.894472
O O8 0.733245 0.250000 0.629197
O O9 0.651902 0.157874 0.545014
O O10 0.690363 0.126431 0.702481
O O11 0.776161 0.124156 0.565977
O O12 0.609663 0.250000 0.421337
O O13 0.563591 0.111960 0.434734
O O14 0.136557 0.442238 0.658152
O O15 0.000000 0.500000 0.000000
O O16 0.154980 0.000000 0.500000
#
# Coordination Sequence:
#
# PCOD8298550 Si02
#       7
#     8  16  16  16  16   8  16
#     4  12  22  36  53  77 116 147 180 225 280 340
#     4   9  19  35  54  77 106 140 184 226 263 320
#     4  10  19  31  52  79 110 139 172 220 277 335
#     4  11  21  33  51  79 111 144 179 217 269 328
#     4  10  21  33  52  78 103 146 180 220 271 326
#     4  12  24  34  54  79 114 155 180 217 267 335
#     4  10  19  34  54  74 106 136 180 230 270 320
#
# _framework density 17.438215
#
# number of rings (size 3 to 8) (size 9 to 14) (size 15 to 20)
#    0.000    1.667    3.333    3.750    2.333    2.333 
#    0.000    0.417    0.000    0.000    0.000    0.000 
#    0.000    0.000    0.000    0.000    0.000    0.000 
#
# Total GULP energy -594897.182992 kJ/mol
# GULP energy per Si atom -12393.691312 kJ/mol
# Density = 1.739852 g / cm^3
# Si number density = 17.438215 Si / 1000 Ang^3
#
#
#
# Elastic Constant Matrix: (Units=GPa)
#
#
# Indices 1 2 3 4 5 6 
#
# 1 65.8458 34.5395 23.9628 0.0000 0.0000 0.0000
# 2 34.5395 104.6392 43.2994 0.0000 0.0000 0.0000
# 3 23.9628 43.2994 91.0974 0.0000 0.0000 0.0000
# 4 0.0000 0.0000 0.0000 25.9303 0.0000 0.0000
# 5 0.0000 0.0000 0.0000 0.0000 22.2017 0.0000
# 6 0.0000 0.0000 0.0000 0.0000 0.0000 21.4039
#
#
#
# Elastic Compliance Matrix: (Units=1/GPa)
#
#
# Indices 1 2 3 4 5 6 
#
# 1 0.018809 -0.005180 -0.002485 0.000000 0.000000 0.000000
# 2 -0.005180 0.013323 -0.004970 0.000000 0.000000 0.000000
# 3 -0.002485 -0.004970 0.013993 0.000000 0.000000 0.000000
# 4 0.000000 0.000000 0.000000 0.038565 0.000000 0.000000
# 5 0.000000 0.000000 0.000000 0.000000 0.045042 0.000000
# 6 0.000000 0.000000 0.000000 0.000000 0.000000 0.046720
#
#
# Mechanical properties :
#
#
# Convention : Reuss Voigt Hill
#
# Bulk Modulus (GPa) = 47.95187 51.68729 49.81958
# Shear Modulus (GPa) = 23.96082 24.55924 24.26003
#
# Velocity S-wave (km/s) = 3.71083 3.75688 3.73392
# Velocity P-wave (km/s) = 6.77629 6.96588 6.87174
#
# Compressibility (1/GPa) = 0.02085424
#
# Stress axis : x y z
#
# Youngs Moduli (GPa) = 53.16704 75.05815 71.46258
#
# Poissons Ratio (x) = 0.38879 0.17762
# Poissons Ratio (y) = 0.27540 0.35517
# Poissons Ratio (z) = 0.13215 0.37304
#
# Static dielectric constant tensor:
#      x y z
#    x 3.047980 0.000000 0.000000 
#    y 0.000000 3.341380 0.000000 
#    z 0.000000 0.000000 3.183750 
# 
# 
# High freq. dielectric constant tensor:
#      x y z
#    x 1.650320 0.000000 0.000000 
#    y 0.000000 1.680170 0.000000 
#    z 0.000000 0.000000 1.659230 
# 
# From -- ./inp_files/35312.got.cif
#   From: 2010.03.12/outbox.cif.g09.slc.cpg/sg74_18_cif.got.tgz:35312.got - 2010.04.16 15:46:19.
