data_PCOD8298050
_publ_section_title
;
Structure prediction by ZEFSAII (Michael W. Deem and Ramdas Pophale) SiO2 
 PCOD8298050
Probable space group: I M M A
;
_chemical_formula_sum "Si O2"
_cell_formula_units_Z 64
_cell_length_a 19.339109
_cell_length_b 17.683734
_cell_length_c 9.155688
_cell_angle_alpha 90.000000
_cell_angle_beta 90.000000
_cell_angle_gamma 90.000000
_cell_volume 3131.132309
_symmetry_space_group_name_H-M "I M M A"
_symmetry_group_IT_number 74
_symmetry_cell_setting 'orthorhombic'
loop_
_space_group_symop_operation_xyz
x,y,z
-x,1/2-y,z
x,-y,-z
-x,1/2+y,-z
-x,-y,-z
x,1/2+y,-z
-x,y,z
x,1/2-y,z
1/2+x,1/2+y,1/2+z
1/2-x,-y,1/2+z
1/2+x,1/2-y,1/2-z
1/2-x,y,1/2-z
1/2-x,1/2-y,1/2-z
1/2+x,y,1/2-z
1/2-x,1/2+y,1/2+z
1/2+x,-y,1/2+z
loop_
_atom_site_type_symbol
_atom_site_label
_atom_site_fract_x
_atom_site_fract_y
_atom_site_fract_z
Si Si1 0.079459 0.161665 0.922824
Si Si2 0.789929 0.838832 0.604703
Si Si3 0.293753 0.433687 0.612331
Si Si4 0.574398 0.160758 0.240517
O O1 0.093375 0.250000 0.888492
O O2 0.134872 0.108654 0.837826
O O3 0.000000 0.141314 0.880311
O O4 0.093758 0.143030 0.092311
O O5 0.789381 0.750000 0.580595
O O6 0.750000 0.861964 0.750000
O O7 0.757174 0.873793 0.461765
O O8 0.867946 0.870691 0.629525
O O9 0.312122 0.500000 0.500000
O O10 0.250000 0.465512 0.750000
O O11 0.500000 0.124283 0.200417
O O12 0.569707 0.250000 0.224563
#
# Coordination Sequence:
#
# PCOD8298050 Si02
#       4
#    16  16  16  16
#     4   9  18  36  64  93 116 145 193 247 297 354
#     4  10  18  33  59  86 114 148 190 241 296 350
#     4  12  26  40  57  82 121 162 205 242 292 346
#     4   8  14  27  54  89 116 142 180 228 286 347
#
# _framework density 20.439889000000001
#
# number of rings (size 3 to 8) (size 9 to 14) (size 15 to 20)
#    0.000    2.250    2.500    3.000    0.000    2.500 
#    0.000    1.250    0.000    4.500    0.000    0.000 
#    0.000    0.000    0.000    0.000    0.000    0.000 
#
# Total GULP energy -396551.499246 kJ/mol
# GULP energy per Si atom -12392.234351 kJ/mol
# Density = 2.039337 g / cm^3
# Si number density = 20.439889 Si / 1000 Ang^3
#
#
#
# Elastic Constant Matrix: (Units=GPa)
#
#
# Indices 1 2 3 4 5 6 
#
# 1 139.7962 51.0689 19.1012 0.0000 0.0000 0.0000
# 2 51.0689 52.1448 26.5381 0.0000 0.0000 0.0000
# 3 19.1012 26.5381 31.0839 0.0000 0.0000 0.0000
# 4 0.0000 0.0000 0.0000 18.3829 0.0000 0.0000
# 5 0.0000 0.0000 0.0000 0.0000 13.1350 0.0000
# 6 0.0000 0.0000 0.0000 0.0000 0.0000 14.6660
#
#
#
# Elastic Compliance Matrix: (Units=1/GPa)
#
#
# Indices 1 2 3 4 5 6 
#
# 1 0.011484 -0.013537 0.004501 0.000000 0.000000 0.000000
# 2 -0.013537 0.049871 -0.034259 0.000000 0.000000 0.000000
# 3 0.004501 -0.034259 0.058654 0.000000 0.000000 0.000000
# 4 0.000000 0.000000 0.000000 0.054398 0.000000 0.000000
# 5 0.000000 0.000000 0.000000 0.000000 0.076132 0.000000
# 6 0.000000 0.000000 0.000000 0.000000 0.000000 0.068185
#
#
# Mechanical properties :
#
#
# Convention : Reuss Voigt Hill
#
# Bulk Modulus (GPa) = 29.92421 46.27126 38.09774
# Shear Modulus (GPa) = 12.00614 17.65792 14.83203
#
# Velocity S-wave (km/s) = 2.42624 2.94240 2.69670
# Velocity P-wave (km/s) = 4.74560 5.85068 5.32688
#
# Compressibility (1/GPa) = 0.03341776
#
# Stress axis : x y z
#
# Youngs Moduli (GPa) = 87.08073 20.05182 17.04914
#
# Poissons Ratio (x) = 0.27145 -0.07674
# Poissons Ratio (y) = 1.17884 0.58408
# Poissons Ratio (z) = -0.39194 0.68695
#
# Static dielectric constant tensor:
#      x y z
#    x 4.786830 0.000000 0.000000 
#    y 0.000000 3.385340 0.000000 
#    z 0.000000 0.000000 3.363030 
# 
# 
# High freq. dielectric constant tensor:
#      x y z
#    x 1.823450 0.000000 0.000000 
#    y 0.000000 1.770460 0.000000 
#    z 0.000000 0.000000 1.751770 
# 
# From -- ./inp_files/10223.got.cif
#   From: 2010.03.12/outbox.cif.g09.slc.cpg/sg74_6_cif.got.tgz:10223.got - 2010.04.16 15:46:19.
