data_PCOD8298935
_publ_section_title
;
Structure prediction by ZEFSAII (Michael W. Deem and Ramdas Pophale) SiO2 
 PCOD8298935
Probable space group: I M M A
;
_chemical_formula_sum "Si O2"
_cell_formula_units_Z 88
_cell_length_a 27.848652
_cell_length_b 8.707323
_cell_length_c 19.280163
_cell_angle_alpha 90.000000
_cell_angle_beta 90.000000
_cell_angle_gamma 90.000000
_cell_volume 4675.192897
_symmetry_space_group_name_H-M "I M M A"
_symmetry_group_IT_number 74
_symmetry_cell_setting 'orthorhombic'
loop_
_space_group_symop_operation_xyz
x,y,z
-x,1/2-y,z
x,-y,-z
-x,1/2+y,-z
-x,-y,-z
x,1/2+y,-z
-x,y,z
x,1/2-y,z
1/2+x,1/2+y,1/2+z
1/2-x,-y,1/2+z
1/2+x,1/2-y,1/2-z
1/2-x,y,1/2-z
1/2-x,1/2-y,1/2-z
1/2+x,y,1/2-z
1/2-x,1/2+y,1/2+z
1/2+x,-y,1/2+z
loop_
_atom_site_type_symbol
_atom_site_label
_atom_site_fract_x
_atom_site_fract_y
_atom_site_fract_z
Si Si1 0.944227 0.931000 0.703147
Si Si2 0.117676 0.068864 0.424677
Si Si3 0.325923 0.931437 0.577081
Si Si4 0.721786 0.572327 0.926666
Si Si5 0.912313 0.930711 0.157701
Si Si6 0.000000 0.568965 0.924487
O O1 0.936594 0.750000 0.715124
O O2 0.922058 0.986827 0.630095
O O3 0.000000 0.975502 0.703853
O O4 0.916239 0.023379 0.762170
O O5 0.114869 0.250000 0.432773
O O6 0.170690 0.015008 0.395085
O O7 0.106507 0.000000 0.500000
O O8 0.337105 0.750000 0.573518
O O9 0.272598 0.962223 0.611433
O O10 0.331849 0.000000 0.500000
O O11 0.361084 0.016422 0.629493
O O12 0.716110 0.750000 0.939170
O O13 0.729261 0.500000 0.000000
O O14 0.918695 0.750000 0.148469
O O15 0.953064 0.016962 0.115406
O O16 0.000000 0.750000 0.929883
O O17 0.000000 0.500000 0.000000
#
# Coordination Sequence:
#
# PCOD8298935 Si02
#       6
#    16  16  16  16  16   8
#     4  10  21  38  58  78 107 148 187 227 278 331
#     4   9  18  34  57  85 112 141 181 227 275 329
#     4  10  19  33  54  80 110 145 183 226 273 323
#     4   8  15  29  51  78 108 141 178 221 271 324
#     4  12  24  38  55  79 109 144 185 228 273 324
#     4  12  24  40  60  82 109 142 183 228 270 318
#
# _framework density 18.822752999999999
#
# number of rings (size 3 to 8) (size 9 to 14) (size 15 to 20)
#    0.000    2.000    0.909    3.545    0.000    1.818 
#    0.000    0.909    0.000    5.455    0.000    0.000 
#    0.000    0.000    0.000    0.000    0.000    0.000 
#
# Total GULP energy -545191.819513 kJ/mol
# GULP energy per Si atom -12390.723171 kJ/mol
# Density = 1.877991 g / cm^3
# Si number density = 18.822753 Si / 1000 Ang^3
#
#
#
# Elastic Constant Matrix: (Units=GPa)
#
#
# Indices 1 2 3 4 5 6 
#
# 1 107.8117 35.8420 61.8187 0.0000 0.0000 0.0000
# 2 35.8420 79.5667 38.5796 0.0000 0.0000 0.0000
# 3 61.8187 38.5796 114.4805 0.0000 0.0000 0.0000
# 4 0.0000 0.0000 0.0000 28.1891 0.0000 0.0000
# 5 0.0000 0.0000 0.0000 0.0000 -99.5493 0.0000
# 6 0.0000 0.0000 0.0000 0.0000 0.0000 18.9726
#
#
#
# Elastic Compliance Matrix: (Units=1/GPa)
#
#
# Indices 1 2 3 4 5 6 
#
# 1 0.014075 -0.003174 -0.006531 0.000000 0.000000 0.000000
# 2 -0.003174 0.015738 -0.003590 0.000000 0.000000 0.000000
# 3 -0.006531 -0.003590 0.013472 0.000000 0.000000 0.000000
# 4 0.000000 0.000000 0.000000 0.035475 0.000000 0.000000
# 5 0.000000 0.000000 0.000000 0.000000 -0.010045 0.000000
# 6 0.000000 0.000000 0.000000 0.000000 0.000000 0.052708
#
#
# Mechanical properties :
#
#
# Convention : Reuss Voigt Hill
#
# Bulk Modulus (GPa) = 59.89513 63.81549 61.85531
# Shear Modulus (GPa) = 32.55685 0.56372 16.56028
#
# Velocity S-wave (km/s) = 4.16342 0.54785 2.96936
# Velocity P-wave (km/s) = 7.41632 5.86320 6.68502
#
# Compressibility (1/GPa) = 0.01669585
#
# Stress axis : x y z
#
# Youngs Moduli (GPa) = 71.04573 63.53880 74.22982
#
# Poissons Ratio (x) = 0.20166 0.48480
# Poissons Ratio (y) = 0.22548 0.26649
# Poissons Ratio (z) = 0.46401 0.22810
#
# Static dielectric constant tensor:
#      x y z
#    x 4.090110 0.000000 0.000000 
#    y 0.000000 3.287160 0.000000 
#    z 0.000000 0.000000 3.362890 
# 
# 
# High freq. dielectric constant tensor:
#      x y z
#    x 1.754200 0.000000 0.000000 
#    y 0.000000 1.732830 0.000000 
#    z 0.000000 0.000000 1.705150 
# 
# From -- ./inp_files/47009.got.cif
#   From: 2010.03.12/outbox.cif.g09.slc.cpg/sg74_24_cif.got.tgz:47009.got - 2010.04.16 15:46:19.
