data_PCOD8298086
_publ_section_title
;
Structure prediction by ZEFSAII (Michael W. Deem and Ramdas Pophale) SiO2 
 PCOD8298086
Probable space group: I M M A
;
_chemical_formula_sum "Si O2"
_cell_formula_units_Z 104
_cell_length_a 21.496030
_cell_length_b 8.877281
_cell_length_c 26.751553
_cell_angle_alpha 90.000000
_cell_angle_beta 90.000000
_cell_angle_gamma 90.000000
_cell_volume 5104.899843
_symmetry_space_group_name_H-M "I M M A"
_symmetry_group_IT_number 74
_symmetry_cell_setting 'orthorhombic'
loop_
_space_group_symop_operation_xyz
x,y,z
-x,1/2-y,z
x,-y,-z
-x,1/2+y,-z
-x,-y,-z
x,1/2+y,-z
-x,y,z
x,1/2-y,z
1/2+x,1/2+y,1/2+z
1/2-x,-y,1/2+z
1/2+x,1/2-y,1/2-z
1/2-x,y,1/2-z
1/2-x,1/2-y,1/2-z
1/2+x,y,1/2-z
1/2-x,1/2+y,1/2+z
1/2+x,-y,1/2+z
loop_
_atom_site_type_symbol
_atom_site_label
_atom_site_fract_x
_atom_site_fract_y
_atom_site_fract_z
Si Si1 0.623836 0.427876 0.614721
Si Si2 0.500000 0.427811 0.554393
Si Si3 0.000000 0.075141 0.729032
Si Si4 0.301482 0.913630 0.211149
Si Si5 0.760532 0.573158 0.396175
Si Si6 0.110772 0.075673 0.220072
Si Si7 0.000000 0.571274 0.382111
Si Si8 0.383691 0.570938 0.052388
O O1 0.619877 0.250000 0.626394
O O2 0.562921 0.479980 0.583393
O O3 0.689537 0.467639 0.586332
O O4 0.630211 0.520383 0.665508
O O5 0.500000 0.250000 0.547737
O O6 0.500000 0.500000 0.500000
O O7 0.000000 0.250000 0.720320
O O8 0.000000 0.000081 0.673771
O O9 0.944445 0.028889 0.763749
O O10 0.336906 0.750000 0.200970
O O11 0.250000 0.867786 0.250000
O O12 0.273115 0.982376 0.160357
O O13 0.339416 0.048325 0.236423
O O14 0.767959 0.750000 0.396708
O O15 0.815285 0.506985 0.431430
O O16 0.092681 0.250000 0.217938
O O17 0.936827 0.515336 0.409035
O O18 0.000000 0.750000 0.380978
O O19 0.383590 0.750000 0.047678
O O20 0.401815 0.500000 0.000000
#
# Coordination Sequence:
#
# PCOD8298086 Si02
#       8
#    16   8   8  16  16  16   8  16
#     4  10  20  39  61  83 109 154 204 240 275 348
#     4  10  23  40  63  85 108 140 187 244 304 355
#     4  11  22  39  62  83 109 154 205 242 275 343
#     4  10  18  34  60  83 108 154 204 235 268 336
#     4   9  18  34  58  84 112 146 198 247 277 322
#     4  12  24  36  54  88 128 156 182 237 303 349
#     4   9  19  37  61  82 106 142 195 244 284 332
#     4  10  20  36  57  83 111 144 184 238 294 345
#
# _framework density 20.372584
#
# number of rings (size 3 to 8) (size 9 to 14) (size 15 to 20)
#    0.000    1.846    1.538    3.231    0.000    4.615 
#    0.000    4.615    0.000    0.000    0.000    0.000 
#    0.000    0.000    0.000    0.000    0.000    0.000 
#
# Total GULP energy -644216.462135 kJ/mol
# GULP energy per Si atom -12388.778118 kJ/mol
# Density = 2.032622 g / cm^3
# Si number density = 20.372584 Si / 1000 Ang^3
#
#
#
# Elastic Constant Matrix: (Units=GPa)
#
#
# Indices 1 2 3 4 5 6 
#
# 1 144.0040 18.7509 25.3325 0.0000 0.0000 0.0000
# 2 18.7509 39.4507 15.6622 0.0000 0.0000 0.0000
# 3 25.3325 15.6622 42.6682 0.0000 0.0000 0.0000
# 4 0.0000 0.0000 0.0000 28.4832 0.0000 0.0000
# 5 0.0000 0.0000 0.0000 0.0000 31.4884 0.0000
# 6 0.0000 0.0000 0.0000 0.0000 0.0000 16.3114
#
#
#
# Elastic Compliance Matrix: (Units=1/GPa)
#
#
# Indices 1 2 3 4 5 6 
#
# 1 0.007917 -0.002220 -0.003885 0.000000 0.000000 0.000000
# 2 -0.002220 0.030295 -0.009802 0.000000 0.000000 0.000000
# 3 -0.003885 -0.009802 0.029341 0.000000 0.000000 0.000000
# 4 0.000000 0.000000 0.000000 0.035108 0.000000 0.000000
# 5 0.000000 0.000000 0.000000 0.000000 0.031758 0.000000
# 6 0.000000 0.000000 0.000000 0.000000 0.000000 0.061307
#
#
# Mechanical properties :
#
#
# Convention : Reuss Voigt Hill
#
# Bulk Modulus (GPa) = 27.98164 38.40157 33.19161
# Shear Modulus (GPa) = 20.88083 26.34841 23.61462
#
# Velocity S-wave (km/s) = 3.20495 3.60019 3.40830
# Velocity P-wave (km/s) = 5.24027 6.01435 5.64060
#
# Compressibility (1/GPa) = 0.03573772
#
# Stress axis : x y z
#
# Youngs Moduli (GPa) = 126.31282 33.00888 34.08155
#
# Poissons Ratio (x) = 0.07329 0.13242
# Poissons Ratio (y) = 0.28046 0.33407
# Poissons Ratio (z) = 0.49076 0.32355
#
# Static dielectric constant tensor:
#      x y z
#    x 4.007500 0.000000 0.000000 
#    y 0.000000 3.270380 0.000000 
#    z 0.000000 0.000000 3.694710 
# 
# 
# High freq. dielectric constant tensor:
#      x y z
#    x 1.813800 0.000000 0.000000 
#    y 0.000000 1.755670 0.000000 
#    z 0.000000 0.000000 1.792160 
# 
# From -- ./inp_files/68312.got.cif
#   From: 2010.03.12/outbox.cif.g09.slc.cpg/sg74_35_cif.got.tgz:68312.got - 2010.04.16 15:46:19.
