data_PCOD8298242
_publ_section_title
;
Structure prediction by ZEFSAII (Michael W. Deem and Ramdas Pophale) SiO2 
 PCOD8298242
Probable space group: I M M A
;
_chemical_formula_sum "Si O2"
_cell_formula_units_Z 120
_cell_length_a 14.495605
_cell_length_b 14.173489
_cell_length_c 32.233089
_cell_angle_alpha 90.000000
_cell_angle_beta 90.000000
_cell_angle_gamma 90.000000
_cell_volume 6622.394440
_symmetry_space_group_name_H-M "I M M A"
_symmetry_group_IT_number 74
_symmetry_cell_setting 'orthorhombic'
loop_
_space_group_symop_operation_xyz
x,y,z
-x,1/2-y,z
x,-y,-z
-x,1/2+y,-z
-x,-y,-z
x,1/2+y,-z
-x,y,z
x,1/2-y,z
1/2+x,1/2+y,1/2+z
1/2-x,-y,1/2+z
1/2+x,1/2-y,1/2-z
1/2-x,y,1/2-z
1/2-x,1/2-y,1/2-z
1/2+x,y,1/2-z
1/2-x,1/2+y,1/2+z
1/2+x,-y,1/2+z
loop_
_atom_site_type_symbol
_atom_site_label
_atom_site_fract_x
_atom_site_fract_y
_atom_site_fract_z
Si Si1 0.769931 0.641239 0.796882
Si Si2 0.899450 0.967628 0.410002
Si Si3 0.604689 0.144705 0.142848
Si Si4 0.110712 0.518664 0.855525
Si Si5 0.798333 0.641556 0.010512
Si Si6 0.393381 0.353501 0.429756
Si Si7 0.146276 0.500000 0.500000
Si Si8 0.715477 0.861027 0.396906
O O1 0.804383 0.750000 0.800071
O O2 0.750000 0.610981 0.750000
O O3 0.672427 0.626396 0.819053
O O4 0.848867 0.572326 0.815404
O O5 0.823151 0.891198 0.396530
O O6 0.000000 0.934766 0.392860
O O7 0.871321 0.069936 0.392703
O O8 0.913148 0.980246 0.459272
O O9 0.500000 0.131903 0.159243
O O10 0.618750 0.250000 0.124457
O O11 0.147806 0.574906 0.896124
O O12 0.155540 0.414743 0.861690
O O13 0.000000 0.510707 0.851544
O O14 0.772353 0.750000 0.011633
O O15 0.825924 0.611703 0.057486
O O16 0.879094 0.616006 0.977788
O O17 0.709471 0.590751 0.992272
O O18 0.500000 0.347540 0.420661
O O19 0.348172 0.250000 0.422424
O O20 0.708378 0.750000 0.387336
#
# Coordination Sequence:
#
# PCOD8298242 Si02
#       8
#    16  16  16  16  16  16   8  16
#     4  10  21  37  59  87 118 146 169 202 259 330
#     4  10  19  33  53  76 105 142 184 230 276 325
#     4   9  18  33  55  83 111 139 172 210 258 321
#     4  11  22  36  55  82 111 144 184 224 271 321
#     4   9  18  30  46  68 101 145 187 227 270 316
#     4   9  17  29  47  73 105 140 179 222 266 317
#     4  10  19  30  43  70 104 136 179 226 274 320
#     4  10  21  37  53  75 106 144 192 237 277 314
#
# _framework density 18.120335000000001
#
# number of rings (size 3 to 8) (size 9 to 14) (size 15 to 20)
#    0.000    2.267    1.333    2.200    0.000    2.933 
#    0.000    4.333    0.000    2.800    0.000    0.000 
#    0.000    0.000    0.000    0.000    0.000    0.000 
#
# Total GULP energy -743612.839405 kJ/mol
# GULP energy per Si atom -12393.547323 kJ/mol
# Density = 1.807909 g / cm^3
# Si number density = 18.120335 Si / 1000 Ang^3
#
#
#
# Elastic Constant Matrix: (Units=GPa)
#
#
# Indices 1 2 3 4 5 6 
#
# 1 82.4696 45.0126 40.5224 0.0000 0.0000 0.0000
# 2 45.0126 93.9828 51.9331 0.0000 0.0000 0.0000
# 3 40.5224 51.9331 82.8603 0.0000 0.0000 0.0000
# 4 0.0000 0.0000 0.0000 25.1378 0.0000 0.0000
# 5 0.0000 0.0000 0.0000 0.0000 4.9612 0.0000
# 6 0.0000 0.0000 0.0000 0.0000 0.0000 22.6965
#
#
#
# Elastic Compliance Matrix: (Units=1/GPa)
#
#
# Indices 1 2 3 4 5 6 
#
# 1 0.017734 -0.005662 -0.005124 0.000000 0.000000 0.000000
# 2 -0.005662 0.018086 -0.008566 0.000000 0.000000 0.000000
# 3 -0.005124 -0.008566 0.019943 0.000000 0.000000 0.000000
# 4 0.000000 0.000000 0.000000 0.039781 0.000000 0.000000
# 5 0.000000 0.000000 0.000000 0.000000 0.201563 0.000000
# 6 0.000000 0.000000 0.000000 0.000000 0.000000 0.044060
#
#
# Mechanical properties :
#
#
# Convention : Reuss Voigt Hill
#
# Bulk Modulus (GPa) = 58.62281 59.36101 58.99191
# Shear Modulus (GPa) = 12.96827 18.68206 15.82516
#
# Velocity S-wave (km/s) = 2.67811 3.21440 2.95843
# Velocity P-wave (km/s) = 6.47960 6.82693 6.65553
#
# Compressibility (1/GPa) = 0.01705821
#
# Stress axis : x y z
#
# Youngs Moduli (GPa) = 56.38949 55.29244 50.14239
#
# Poissons Ratio (x) = 0.31308 0.25692
# Poissons Ratio (y) = 0.31929 0.42953
# Poissons Ratio (z) = 0.28893 0.47365
#
# Static dielectric constant tensor:
#      x y z
#    x 3.273150 0.000000 0.000000 
#    y 0.000000 3.407570 0.000000 
#    z 0.000000 0.000000 3.275850 
# 
# 
# High freq. dielectric constant tensor:
#      x y z
#    x 1.701450 0.000000 0.000000 
#    y 0.000000 1.699270 0.000000 
#    z 0.000000 0.000000 1.674300 
# 
# From -- ./inp_files/72750.got.cif
#   From: 2010.03.12/outbox.cif.g09.slc.cpg/sg74_37_cif.got.tgz:72750.got - 2010.04.16 15:46:19.
