data_PCOD8298820
_publ_section_title
;
Structure prediction by ZEFSAII (Michael W. Deem and Ramdas Pophale) SiO2 
 PCOD8298820
Probable space group: I M M A
;
_chemical_formula_sum "Si O2"
_cell_formula_units_Z 72
_cell_length_a 7.676305
_cell_length_b 19.724212
_cell_length_c 28.489724
_cell_angle_alpha 90.000000
_cell_angle_beta 90.000000
_cell_angle_gamma 90.000000
_cell_volume 4313.602536
_symmetry_space_group_name_H-M "I M M A"
_symmetry_group_IT_number 74
_symmetry_cell_setting 'orthorhombic'
loop_
_space_group_symop_operation_xyz
x,y,z
-x,1/2-y,z
x,-y,-z
-x,1/2+y,-z
-x,-y,-z
x,1/2+y,-z
-x,y,z
x,1/2-y,z
1/2+x,1/2+y,1/2+z
1/2-x,-y,1/2+z
1/2+x,1/2-y,1/2-z
1/2-x,y,1/2-z
1/2-x,1/2-y,1/2-z
1/2+x,y,1/2-z
1/2-x,1/2+y,1/2+z
1/2+x,-y,1/2+z
loop_
_atom_site_type_symbol
_atom_site_label
_atom_site_fract_x
_atom_site_fract_y
_atom_site_fract_z
Si Si1 0.000000 0.175019 0.521383
Si Si2 0.303765 0.957454 0.605935
Si Si3 0.000000 0.969989 0.446924
Si Si4 0.703837 0.750000 0.803620
Si Si5 0.802489 0.175448 0.051991
Si Si6 0.204897 0.396626 0.303702
O O1 0.825652 0.167136 0.491376
O O2 0.000000 0.250000 0.545941
O O3 0.000000 0.111741 0.556620
O O4 0.500000 0.979534 0.592533
O O5 0.172982 0.008299 0.580586
O O6 0.257294 0.881405 0.589692
O O7 0.283385 0.955024 0.662480
O O8 0.000000 0.000000 0.500000
O O9 0.500000 0.750000 0.812712
O O10 0.750000 0.750000 0.750000
O O11 0.780995 0.822584 0.821158
O O12 0.775286 0.250000 0.075498
O O13 0.000000 0.167486 0.033133
O O14 0.250000 0.413966 0.250000
O O15 0.000000 0.396730 0.309655
#
# Coordination Sequence:
#
# PCOD8298820 Si02
#       6
#     8  16   8   8  16  16
#     4  10  20  36  56  74 100 138 172 214 264 310
#     4  11  22  34  51  76 103 142 181 217 267 309
#     4  12  22  38  54  78 108 136 176 220 263 314
#     4   8  16  28  44  66  94 136 180 224 268 292
#     4   9  18  31  47  72 102 136 181 218 255 304
#     4  10  19  33  48  69 101 138 180 227 264 307
#
# _framework density 16.691383999999999
#
# number of rings (size 3 to 8) (size 9 to 14) (size 15 to 20)
#    0.000    2.000    3.333    0.667    1.556    2.222 
#    0.000    0.000    0.000    0.000    0.000    0.000 
#    0.000    0.889    0.000    0.000    0.000    0.000 
#
# Total GULP energy -445971.040675 kJ/mol
# GULP energy per Si atom -12388.084463 kJ/mol
# Density = 1.665339 g / cm^3
# Si number density = 16.691384 Si / 1000 Ang^3
#
#
#
# Elastic Constant Matrix: (Units=GPa)
#
#
# Indices 1 2 3 4 5 6 
#
# 1 80.6024 40.5030 25.8922 0.0000 0.0000 0.0000
# 2 40.5030 99.7317 49.7311 0.0000 0.0000 0.0000
# 3 25.8922 49.7311 72.1959 0.0000 0.0000 0.0000
# 4 0.0000 0.0000 0.0000 18.8115 0.0000 0.0000
# 5 0.0000 0.0000 0.0000 0.0000 23.1153 0.0000
# 6 0.0000 0.0000 0.0000 0.0000 0.0000 18.1569
#
#
#
# Elastic Compliance Matrix: (Units=1/GPa)
#
#
# Indices 1 2 3 4 5 6 
#
# 1 0.015756 -0.005455 -0.001893 0.000000 0.000000 0.000000
# 2 -0.005455 0.017161 -0.009865 0.000000 0.000000 0.000000
# 3 -0.001893 -0.009865 0.021326 0.000000 0.000000 0.000000
# 4 0.000000 0.000000 0.000000 0.053159 0.000000 0.000000
# 5 0.000000 0.000000 0.000000 0.000000 0.043261 0.000000
# 6 0.000000 0.000000 0.000000 0.000000 0.000000 0.055075
#
#
# Mechanical properties :
#
#
# Convention : Reuss Voigt Hill
#
# Bulk Modulus (GPa) = 50.46247 53.86475 52.16361
# Shear Modulus (GPa) = 20.26178 21.11033 20.68605
#
# Velocity S-wave (km/s) = 3.48790 3.56018 3.52422
# Velocity P-wave (km/s) = 6.82047 7.01719 6.91953
#
# Compressibility (1/GPa) = 0.01981671
#
# Stress axis : x y z
#
# Youngs Moduli (GPa) = 63.46901 58.27042 46.89190
#
# Poissons Ratio (x) = 0.31784 0.08878
# Poissons Ratio (y) = 0.34620 0.46259
# Poissons Ratio (z) = 0.12016 0.57484
#
# Static dielectric constant tensor:
#      x y z
#    x 3.216890 0.000000 0.000000 
#    y 0.000000 3.193100 0.000000 
#    z 0.000000 0.000000 2.966440 
# 
# 
# High freq. dielectric constant tensor:
#      x y z
#    x 1.662650 0.000000 0.000000 
#    y 0.000000 1.608280 0.000000 
#    z 0.000000 0.000000 1.611600 
# 
# From -- ./inp_files/56716.got.cif
#   From: 2010.03.12/outbox.cif.g09.slc.cpg/sg74_29_cif.got.tgz:56716.got - 2010.04.16 15:46:19.
