data_PCOD8298167
_publ_section_title
;
Structure prediction by ZEFSAII (Michael W. Deem and Ramdas Pophale) SiO2 
 PCOD8298167
Probable space group: I M M A
;
_chemical_formula_sum "Si O2"
_cell_formula_units_Z 104
_cell_length_a 9.058776
_cell_length_b 27.646055
_cell_length_c 32.173418
_cell_angle_alpha 90.000000
_cell_angle_beta 90.000000
_cell_angle_gamma 90.000000
_cell_volume 8057.492128
_symmetry_space_group_name_H-M "I M M A"
_symmetry_group_IT_number 74
_symmetry_cell_setting 'orthorhombic'
loop_
_space_group_symop_operation_xyz
x,y,z
-x,1/2-y,z
x,-y,-z
-x,1/2+y,-z
-x,-y,-z
x,1/2+y,-z
-x,y,z
x,1/2-y,z
1/2+x,1/2+y,1/2+z
1/2-x,-y,1/2+z
1/2+x,1/2-y,1/2-z
1/2-x,y,1/2-z
1/2-x,1/2-y,1/2-z
1/2+x,y,1/2-z
1/2-x,1/2+y,1/2+z
1/2+x,-y,1/2+z
loop_
_atom_site_type_symbol
_atom_site_label
_atom_site_fract_x
_atom_site_fract_y
_atom_site_fract_z
Si Si1 0.834659 0.117871 0.088225
Si Si2 0.834208 0.526526 0.436633
Si Si3 0.671391 0.838304 0.838511
Si Si4 0.164691 0.015718 0.133718
Si Si5 0.333926 0.424426 0.017826
Si Si6 0.676240 0.250000 0.294713
Si Si7 0.829381 0.060620 0.293572
O O1 0.728678 0.152833 0.114731
O O2 0.771112 0.113844 0.041317
O O3 0.000000 0.139493 0.086195
O O4 0.837342 0.065687 0.109094
O O5 0.731637 0.526279 0.395799
O O6 0.834646 0.474108 0.457142
O O7 0.776354 0.565562 0.470746
O O8 0.000000 0.540012 0.422886
O O9 0.500000 0.822795 0.840026
O O10 0.772050 0.797061 0.819148
O O11 0.694701 0.885528 0.810570
O O12 0.000000 0.000186 0.146523
O O13 0.262202 0.021199 0.175005
O O14 0.500000 0.403494 0.016554
O O15 0.500000 0.250000 0.290119
O O16 0.750000 0.250000 0.250000
O O17 0.750000 0.055594 0.250000
O O18 0.000000 0.048512 0.287826
#
# Coordination Sequence:
#
# PCOD8298167 Si02
#       7
#    16  16  16  16  16   8  16
#     4   9  16  25  37  53  70  86 104 127 154 187
#     4   8  13  21  32  46  65  87 109 129 150 178
#     4  10  20  33  46  57  69  85 104 129 163 203
#     4   9  16  24  34  48  66  85 105 129 157 188
#     4   8  13  21  33  48  66  88 109 127 148 179
#     4  12  24  36  48  60  72  84 102 130 166 208
#     4  10  19  29  41  53  65  82 105 133 164 199
#
# _framework density 12.907242
#
# number of rings (size 3 to 8) (size 9 to 14) (size 15 to 20)
#    0.000    2.769    0.000    3.923    0.000    7.385 
#    0.000    3.077    0.000    0.000    0.000    0.000 
#    0.000    0.000    0.000    0.000    0.000    0.000 
#
# Total GULP energy -644542.323192 kJ/mol
# GULP energy per Si atom -12395.044677 kJ/mol
# Density = 1.287786 g / cm^3
# Si number density = 12.907242 Si / 1000 Ang^3
#
#
#
# Elastic Constant Matrix: (Units=GPa)
#
#
# Indices 1 2 3 4 5 6 
#
# 1 108.2298 24.3366 63.0826 0.0000 0.0000 0.0000
# 2 24.3366 19.8723 33.9031 0.0000 0.0000 0.0000
# 3 63.0826 33.9031 92.9474 0.0000 0.0000 0.0000
# 4 0.0000 0.0000 0.0000 15.5902 0.0000 0.0000
# 5 0.0000 0.0000 0.0000 0.0000 25.9452 0.0000
# 6 0.0000 0.0000 0.0000 0.0000 0.0000 13.7420
#
#
#
# Elastic Compliance Matrix: (Units=1/GPa)
#
#
# Indices 1 2 3 4 5 6 
#
# 1 0.015342 -0.002712 -0.009423 0.000000 0.000000 0.000000
# 2 -0.002712 0.133707 -0.046930 0.000000 0.000000 0.000000
# 3 -0.009423 -0.046930 0.034272 0.000000 0.000000 0.000000
# 4 0.000000 0.000000 0.000000 0.064143 0.000000 0.000000
# 5 0.000000 0.000000 0.000000 0.000000 0.038543 0.000000
# 6 0.000000 0.000000 0.000000 0.000000 0.000000 0.072769
#
#
# Mechanical properties :
#
#
# Convention : Reuss Voigt Hill
#
# Bulk Modulus (GPa) = 15.33953 51.52156 33.43054
# Shear Modulus (GPa) = 10.02735 17.70396 13.86566
#
# Velocity S-wave (km/s) = 2.79028 3.70757 3.28114
# Velocity P-wave (km/s) = 4.72134 7.63751 6.34912
#
# Compressibility (1/GPa) = 0.06519105
#
# Stress axis : x y z
#
# Youngs Moduli (GPa) = 65.18160 7.47904 29.17828
#
# Poissons Ratio (x) = 0.02028 0.27495
# Poissons Ratio (y) = 0.17677 1.36933
# Poissons Ratio (z) = 0.61421 0.35099
#
# Static dielectric constant tensor:
#      x y z
#    x 2.837370 0.000000 0.000000 
#    y 0.000000 2.179170 0.000000 
#    z 0.000000 0.000000 2.737830 
# 
# 
# High freq. dielectric constant tensor:
#      x y z
#    x 1.508280 0.000000 0.000000 
#    y 0.000000 1.416960 0.000000 
#    z 0.000000 0.000000 1.487190 
# 
# From -- ./inp_files/65280.got.cif
#   From: 2010.03.12/outbox.cif.g09.slc.cpg/sg74_33_cif.got.tgz:65280.got - 2010.04.16 15:46:19.
