data_PCOD8298119
_publ_section_title
;
Structure prediction by ZEFSAII (Michael W. Deem and Ramdas Pophale) SiO2 
 PCOD8298119
Probable space group: I M M A
;
_chemical_formula_sum "Si O2"
_cell_formula_units_Z 64
_cell_length_a 14.288814
_cell_length_b 18.359619
_cell_length_c 11.967711
_cell_angle_alpha 90.000000
_cell_angle_beta 90.000000
_cell_angle_gamma 90.000000
_cell_volume 3139.575567
_symmetry_space_group_name_H-M "I M M A"
_symmetry_group_IT_number 74
_symmetry_cell_setting 'orthorhombic'
loop_
_space_group_symop_operation_xyz
x,y,z
-x,1/2-y,z
x,-y,-z
-x,1/2+y,-z
-x,-y,-z
x,1/2+y,-z
-x,y,z
x,1/2-y,z
1/2+x,1/2+y,1/2+z
1/2-x,-y,1/2+z
1/2+x,1/2-y,1/2-z
1/2-x,y,1/2-z
1/2-x,1/2-y,1/2-z
1/2+x,y,1/2-z
1/2-x,1/2+y,1/2+z
1/2+x,-y,1/2+z
loop_
_atom_site_type_symbol
_atom_site_label
_atom_site_fract_x
_atom_site_fract_y
_atom_site_fract_z
Si Si1 0.731870 0.407046 0.081991
Si Si2 0.893869 0.750000 0.051689
Si Si3 0.816384 0.604120 0.148948
Si Si4 0.741435 0.250000 0.120125
Si Si5 0.392263 0.459682 0.267003
O O1 0.690560 0.324173 0.079929
O O2 0.653214 0.457227 0.141843
O O3 0.829288 0.408141 0.153212
O O4 0.755531 0.429586 0.954573
O O5 0.870515 0.677477 0.120662
O O6 0.000000 0.750000 0.019958
O O7 0.843879 0.750000 0.933423
O O8 0.750000 0.624738 0.250000
O O9 0.888917 0.542059 0.187196
O O10 0.750000 0.250000 0.250000
O O11 0.500000 0.433282 0.265594
#
# Coordination Sequence:
#
# PCOD8298119 Si02
#       5
#    16   8  16   8  16
#     4  10  22  40  60  88 125 157 209 256 311 365
#     4  10  23  39  62  95 120 154 214 259 296 364
#     4  11  22  40  64  85 125 170 202 250 309 364
#     4  10  18  39  60  83 118 160 191 251 317 364
#     4  11  22  37  62  91 121 159 204 257 308 364
#
# _framework density 20.384922
#
# number of rings (size 3 to 8) (size 9 to 14) (size 15 to 20)
#    0.000    1.500    5.000    1.875    0.000    6.000 
#    0.000    4.375    0.000    0.000    0.000    0.000 
#    0.000    0.000    0.000    0.000    0.000    0.000 
#
# Total GULP energy -396604.755352 kJ/mol
# GULP energy per Si atom -12393.898605 kJ/mol
# Density = 2.033852 g / cm^3
# Si number density = 20.384922 Si / 1000 Ang^3
#
#
#
# Elastic Constant Matrix: (Units=GPa)
#
#
# Indices 1 2 3 4 5 6 
#
# 1 106.6000 29.8663 54.7009 0.0000 0.0000 0.0000
# 2 29.8663 117.9593 27.9870 0.0000 0.0000 0.0000
# 3 54.7009 27.9870 124.4455 0.0000 0.0000 0.0000
# 4 0.0000 0.0000 0.0000 36.0787 0.0000 0.0000
# 5 0.0000 0.0000 0.0000 0.0000 14.7573 0.0000
# 6 0.0000 0.0000 0.0000 0.0000 0.0000 23.5151
#
#
#
# Elastic Compliance Matrix: (Units=1/GPa)
#
#
# Indices 1 2 3 4 5 6 
#
# 1 0.012532 -0.001971 -0.005065 0.000000 0.000000 0.000000
# 2 -0.001971 0.009265 -0.001217 0.000000 0.000000 0.000000
# 3 -0.005065 -0.001217 0.010536 0.000000 0.000000 0.000000
# 4 0.000000 0.000000 0.000000 0.027717 0.000000 0.000000
# 5 0.000000 0.000000 0.000000 0.000000 0.067763 0.000000
# 6 0.000000 0.000000 0.000000 0.000000 0.000000 0.042526
#
#
# Mechanical properties :
#
#
# Convention : Reuss Voigt Hill
#
# Bulk Modulus (GPa) = 63.18744 63.79037 63.48890
# Shear Modulus (GPa) = 26.02499 30.63360 28.32930
#
# Velocity S-wave (km/s) = 3.57694 3.88075 3.73194
# Velocity P-wave (km/s) = 6.93713 7.17225 7.05567
#
# Compressibility (1/GPa) = 0.01582593
#
# Stress axis : x y z
#
# Youngs Moduli (GPa) = 79.79309 107.92828 94.91344
#
# Poissons Ratio (x) = 0.21276 0.48077
# Poissons Ratio (y) = 0.15729 0.11553
# Poissons Ratio (z) = 0.40418 0.13137
#
# Static dielectric constant tensor:
#      x y z
#    x 3.312860 0.000000 0.000000 
#    y 0.000000 4.534880 0.000000 
#    z 0.000000 0.000000 3.871090 
# 
# 
# High freq. dielectric constant tensor:
#      x y z
#    x 1.752250 0.000000 0.000000 
#    y 0.000000 1.821320 0.000000 
#    z 0.000000 0.000000 1.804130 
# 
# From -- ./inp_files/19988.got.cif
#   From: 2010.03.12/outbox.cif.g09.slc.cpg/sg74_10_cif.got.tgz:19988.got - 2010.04.16 15:46:19.
