data_PCOD8298447
_publ_section_title
;
Structure prediction by ZEFSAII (Michael W. Deem and Ramdas Pophale) SiO2 
 PCOD8298447
Probable space group: I M M A
;
_chemical_formula_sum "Si O2"
_cell_formula_units_Z 80
_cell_length_a 18.680122
_cell_length_b 8.812498
_cell_length_c 27.038460
_cell_angle_alpha 90.000000
_cell_angle_beta 90.000000
_cell_angle_gamma 90.000000
_cell_volume 4451.031749
_symmetry_space_group_name_H-M "I M M A"
_symmetry_group_IT_number 74
_symmetry_cell_setting 'orthorhombic'
loop_
_space_group_symop_operation_xyz
x,y,z
-x,1/2-y,z
x,-y,-z
-x,1/2+y,-z
-x,-y,-z
x,1/2+y,-z
-x,y,z
x,1/2-y,z
1/2+x,1/2+y,1/2+z
1/2-x,-y,1/2+z
1/2+x,1/2-y,1/2-z
1/2-x,y,1/2-z
1/2-x,1/2-y,1/2-z
1/2+x,y,1/2-z
1/2-x,1/2+y,1/2+z
1/2+x,-y,1/2+z
loop_
_atom_site_type_symbol
_atom_site_label
_atom_site_fract_x
_atom_site_fract_y
_atom_site_fract_z
Si Si1 0.921597 0.428442 0.053072
Si Si2 0.217545 0.428072 0.102788
Si Si3 0.210220 0.930714 0.700713
Si Si4 0.139343 0.428564 0.447999
Si Si5 0.918140 0.073895 0.649881
O O1 0.911374 0.250000 0.046740
O O2 0.859448 0.497957 0.087881
O O3 0.000000 0.466925 0.075688
O O4 0.912949 0.500000 0.000000
O O5 0.209802 0.250000 0.108611
O O6 0.241081 0.493026 0.155758
O O7 0.277106 0.467867 0.061578
O O8 0.201324 0.750000 0.700586
O O9 0.250000 0.988111 0.750000
O O10 0.131336 0.001746 0.693138
O O11 0.115087 0.500000 0.500000
O O12 0.125688 0.250000 0.449934
O O13 0.092805 0.494953 0.403224
O O14 0.899122 0.250000 0.644084
O O15 0.000000 0.049314 0.666518
#
# Coordination Sequence:
#
# PCOD8298447 Si02
#       5
#    16  16  16  16  16
#     4   9  16  26  41  61  88 121 153 186 226 272
#     4   8  15  28  45  67  94 123 157 196 236 282
#     4   9  18  34  55  76  98 125 160 203 249 297
#     4  10  19  31  49  72 100 133 168 206 246 293
#     4  10  21  36  53  74 101 132 166 204 247 297
#
# _framework density 17.973362000000002
#
# number of rings (size 3 to 8) (size 9 to 14) (size 15 to 20)
#    0.000    2.800    0.000    3.000    0.000    2.400 
#    0.000    5.000    0.000    3.600    0.000    2.800 
#    0.000    0.000    0.000    0.000    0.000    0.000 
#
# Total GULP energy -495786.508826 kJ/mol
# GULP energy per Si atom -12394.662721 kJ/mol
# Density = 1.793245 g / cm^3
# Si number density = 17.973362 Si / 1000 Ang^3
#
#
#
# Elastic Constant Matrix: (Units=GPa)
#
#
# Indices 1 2 3 4 5 6 
#
# 1 134.3112 39.4268 51.0361 0.0000 0.0000 0.0000
# 2 39.4268 56.7814 38.3875 0.0000 0.0000 0.0000
# 3 51.0361 38.3875 99.8741 0.0000 0.0000 0.0000
# 4 0.0000 0.0000 0.0000 22.7590 0.0000 0.0000
# 5 0.0000 0.0000 0.0000 0.0000 21.8332 0.0000
# 6 0.0000 0.0000 0.0000 0.0000 0.0000 22.7620
#
#
#
# Elastic Compliance Matrix: (Units=1/GPa)
#
#
# Indices 1 2 3 4 5 6 
#
# 1 0.010112 -0.004767 -0.003335 0.000000 0.000000 0.000000
# 2 -0.004767 0.026041 -0.007573 0.000000 0.000000 0.000000
# 3 -0.003335 -0.007573 0.014628 0.000000 0.000000 0.000000
# 4 0.000000 0.000000 0.000000 0.043939 0.000000 0.000000
# 5 0.000000 0.000000 0.000000 0.000000 0.045802 0.000000
# 6 0.000000 0.000000 0.000000 0.000000 0.000000 0.043933
#
#
# Mechanical properties :
#
#
# Convention : Reuss Voigt Hill
#
# Bulk Modulus (GPa) = 51.46518 60.96305 56.21412
# Shear Modulus (GPa) = 22.49401 24.27860 23.38630
#
# Velocity S-wave (km/s) = 3.54152 3.67932 3.61108
# Velocity P-wave (km/s) = 6.73940 7.21402 6.98074
#
# Compressibility (1/GPa) = 0.01943061
#
# Stress axis : x y z
#
# Youngs Moduli (GPa) = 98.89318 38.40066 68.36292
#
# Poissons Ratio (x) = 0.18304 0.22800
# Poissons Ratio (y) = 0.47138 0.51774
# Poissons Ratio (z) = 0.32983 0.29083
#
# Static dielectric constant tensor:
#      x y z
#    x 3.673790 0.000000 0.000000 
#    y 0.000000 3.179570 0.000000 
#    z 0.000000 0.000000 3.230320 
# 
# 
# High freq. dielectric constant tensor:
#      x y z
#    x 1.703710 0.000000 0.000000 
#    y 0.000000 1.680830 0.000000 
#    z 0.000000 0.000000 1.676930 
# 
# From -- ./inp_files/67532.got.cif
#   From: 2010.03.12/outbox.cif.g09.slc.cpg/sg74_34_cif.got.tgz:67532.got - 2010.04.16 15:46:19.
