data_PCOD8298857
_publ_section_title
;
Structure prediction by ZEFSAII (Michael W. Deem and Ramdas Pophale) SiO2 
 PCOD8298857
Probable space group: I M M A
;
_chemical_formula_sum "Si O2"
_cell_formula_units_Z 112
_cell_length_a 24.309127
_cell_length_b 14.965747
_cell_length_c 15.757998
_cell_angle_alpha 90.000000
_cell_angle_beta 90.000000
_cell_angle_gamma 90.000000
_cell_volume 5732.826557
_symmetry_space_group_name_H-M "I M M A"
_symmetry_group_IT_number 74
_symmetry_cell_setting 'orthorhombic'
loop_
_space_group_symop_operation_xyz
x,y,z
-x,1/2-y,z
x,-y,-z
-x,1/2+y,-z
-x,-y,-z
x,1/2+y,-z
-x,y,z
x,1/2-y,z
1/2+x,1/2+y,1/2+z
1/2-x,-y,1/2+z
1/2+x,1/2-y,1/2-z
1/2-x,y,1/2-z
1/2-x,1/2-y,1/2-z
1/2+x,y,1/2-z
1/2-x,1/2+y,1/2+z
1/2+x,-y,1/2+z
loop_
_atom_site_type_symbol
_atom_site_label
_atom_site_fract_x
_atom_site_fract_y
_atom_site_fract_z
Si Si1 0.350478 0.904927 0.035769
Si Si2 0.257499 0.348718 0.440910
Si Si3 0.388115 0.989511 0.199447
Si Si4 0.708578 0.992329 0.684969
Si Si5 0.647094 0.411253 0.546260
Si Si6 0.437049 0.150526 0.090277
Si Si7 0.937777 0.849476 0.176114
O O1 0.357579 0.918089 0.136913
O O2 0.289092 0.875042 0.009788
O O3 0.397946 0.844155 0.993130
O O4 0.364068 0.000000 0.000000
O O5 0.244629 0.250000 0.408164
O O6 0.257534 0.411162 0.358184
O O7 0.318848 0.350710 0.480623
O O8 0.427868 0.926550 0.254818
O O9 0.345384 0.038115 0.262852
O O10 0.419937 0.071257 0.154780
O O11 0.750000 0.039877 0.750000
O O12 0.693035 0.064170 0.615259
O O13 0.624070 0.500000 0.500000
O O14 0.597530 0.359545 0.590018
O O15 0.500000 0.132182 0.061703
O O16 0.432831 0.250000 0.132919
O O17 0.925964 0.750000 0.213838
O O18 0.000000 0.857615 0.145431
#
# Coordination Sequence:
#
# PCOD8298857 Si02
#       7
#    16  16  16  16  16  16  16
#     4  10  20  35  54  76 106 144 183 221 265 320
#     4  11  21  33  53  79 107 138 176 223 272 325
#     4  10  21  36  56  78 109 148 182 223 276 331
#     4  10  19  33  52  75 103 136 173 215 265 319
#     4   9  19  36  55  75 102 139 179 221 271 325
#     4  10  21  36  55  80 110 145 186 230 274 325
#     4  10  21  36  55  81 110 141 182 230 277 327
#
# _framework density 19.53661
#
# number of rings (size 3 to 8) (size 9 to 14) (size 15 to 20)
#    0.000    2.000    0.000    5.143    0.000    5.429 
#    0.000    1.429    0.000    4.714    0.000   14.000 
#    0.000    0.000    0.000    0.000    0.000    0.000 
#
# Total GULP energy -693816.963423 kJ/mol
# GULP energy per Si atom -12389.588633 kJ/mol
# Density = 1.949214 g / cm^3
# Si number density = 19.536610 Si / 1000 Ang^3
#
#
#
# Elastic Constant Matrix: (Units=GPa)
#
#
# Indices 1 2 3 4 5 6 
#
# 1 101.2727 39.6345 29.3387 0.0000 0.0000 0.0000
# 2 39.6345 93.6946 21.3582 0.0000 0.0000 0.0000
# 3 29.3387 21.3582 66.7161 0.0000 0.0000 0.0000
# 4 0.0000 0.0000 0.0000 18.4559 0.0000 0.0000
# 5 0.0000 0.0000 0.0000 0.0000 25.2778 0.0000
# 6 0.0000 0.0000 0.0000 0.0000 0.0000 31.8351
#
#
#
# Elastic Compliance Matrix: (Units=1/GPa)
#
#
# Indices 1 2 3 4 5 6 
#
# 1 0.012847 -0.004473 -0.004217 0.000000 0.000000 0.000000
# 2 -0.004473 0.013071 -0.002217 0.000000 0.000000 0.000000
# 3 -0.004217 -0.002217 0.017553 0.000000 0.000000 0.000000
# 4 0.000000 0.000000 0.000000 0.054183 0.000000 0.000000
# 5 0.000000 0.000000 0.000000 0.000000 0.039560 0.000000
# 6 0.000000 0.000000 0.000000 0.000000 0.000000 0.031412
#
#
# Mechanical properties :
#
#
# Convention : Reuss Voigt Hill
#
# Bulk Modulus (GPa) = 46.17844 49.14956 47.66400
# Shear Modulus (GPa) = 25.29598 26.53724 25.91661
#
# Velocity S-wave (km/s) = 3.60224 3.68956 3.64616
# Velocity P-wave (km/s) = 6.40232 6.58504 6.49432
#
# Compressibility (1/GPa) = 0.02165513
#
# Stress axis : x y z
#
# Youngs Moduli (GPa) = 77.84107 76.50771 56.96916
#
# Poissons Ratio (x) = 0.34222 0.24026
# Poissons Ratio (y) = 0.34818 0.12632
# Poissons Ratio (z) = 0.32829 0.16964
#
# Static dielectric constant tensor:
#      x y z
#    x 3.627330 0.000000 0.000000 
#    y 0.000000 3.758940 0.000000 
#    z 0.000000 0.000000 4.071430 
# 
# 
# High freq. dielectric constant tensor:
#      x y z
#    x 1.766750 0.000000 0.000000 
#    y 0.000000 1.753240 0.000000 
#    z 0.000000 0.000000 1.751800 
# 
# From -- ./inp_files/36507.got.cif
#   From: 2010.03.12/outbox.cif.g09.slc.cpg/sg74_19_cif.got.tgz:36507.got - 2010.04.16 15:46:19.
