data_PCOD8298966
_publ_section_title
;
Structure prediction by ZEFSAII (Michael W. Deem and Ramdas Pophale) SiO2 
 PCOD8298966
Probable space group: I M M A
;
_chemical_formula_sum "Si O2"
_cell_formula_units_Z 96
_cell_length_a 14.258123
_cell_length_b 22.079614
_cell_length_c 15.392696
_cell_angle_alpha 90.000000
_cell_angle_beta 90.000000
_cell_angle_gamma 90.000000
_cell_volume 4845.833924
_symmetry_space_group_name_H-M "I M M A"
_symmetry_group_IT_number 74
_symmetry_cell_setting 'orthorhombic'
loop_
_space_group_symop_operation_xyz
x,y,z
-x,1/2-y,z
x,-y,-z
-x,1/2+y,-z
-x,-y,-z
x,1/2+y,-z
-x,y,z
x,1/2-y,z
1/2+x,1/2+y,1/2+z
1/2-x,-y,1/2+z
1/2+x,1/2-y,1/2-z
1/2-x,y,1/2-z
1/2-x,1/2-y,1/2-z
1/2+x,y,1/2-z
1/2-x,1/2+y,1/2+z
1/2+x,-y,1/2+z
loop_
_atom_site_type_symbol
_atom_site_label
_atom_site_fract_x
_atom_site_fract_y
_atom_site_fract_z
Si Si1 0.786372 0.680326 0.053838
Si Si2 0.605757 0.513796 0.598736
Si Si3 0.207194 0.131273 0.130564
Si Si4 0.847011 0.100974 0.792695
Si Si5 0.600656 0.682524 0.141003
Si Si6 0.108650 0.320252 0.292322
O O1 0.812481 0.750000 0.047049
O O2 0.838769 0.653132 0.135893
O O3 0.675572 0.667776 0.066480
O O4 0.820071 0.648493 0.966712
O O5 0.638845 0.500000 0.500000
O O6 0.500000 0.540289 0.596585
O O7 0.678235 0.561165 0.641643
O O8 0.603926 0.455678 0.661608
O O9 0.142898 0.172157 0.193304
O O10 0.318669 0.140685 0.148717
O O11 0.750000 0.079607 0.750000
O O12 0.905805 0.132118 0.716187
O O13 0.500000 0.682439 0.093792
O O14 0.622892 0.750000 0.179925
O O15 0.117155 0.250000 0.318849
O O16 0.000000 0.342175 0.303451
#
# Coordination Sequence:
#
# PCOD8298966 Si02
#       6
#    16  16  16  16  16  16
#     4  10  19  33  55  82 111 146 190 238 293 349
#     4  11  23  39  58  81 113 155 202 247 286 338
#     4  11  21  38  60  84 118 154 194 240 297 344
#     4  10  20  35  56  82 112 153 193 234 288 346
#     4   9  18  33  54  82 115 146 184 236 290 349
#     4  10  22  40  63  91 119 149 189 240 299 360
#
# _framework density 19.810831
#
# number of rings (size 3 to 8) (size 9 to 14) (size 15 to 20)
#    0.000    1.833    1.667    3.500    2.333    2.667 
#    0.000    1.667    0.000    4.500    0.000    0.000 
#    0.000    0.000    0.000    0.000    0.000    0.000 
#
# Total GULP energy -594923.835646 kJ/mol
# GULP energy per Si atom -12394.246576 kJ/mol
# Density = 1.976574 g / cm^3
# Si number density = 19.810831 Si / 1000 Ang^3
#
#
#
# Elastic Constant Matrix: (Units=GPa)
#
#
# Indices 1 2 3 4 5 6 
#
# 1 97.6816 24.1170 -2.0259 0.0000 0.0000 -0.0002
# 2 24.1170 91.3454 13.2358 0.0001 0.0000 0.0001
# 3 -2.0259 13.2358 58.2726 0.0001 0.0000 0.0004
# 4 0.0000 0.0001 0.0001 31.0164 0.0000 0.0005
# 5 0.0000 0.0000 0.0000 0.0000 18.9761 -0.0001
# 6 -0.0002 0.0001 0.0004 0.0005 -0.0001 17.8625
#
#
#
# Elastic Compliance Matrix: (Units=1/GPa)
#
#
# Indices 1 2 3 4 5 6 
#
# 1 0.011016 -0.003065 0.001079 0.000000 0.000000 0.000000
# 2 -0.003065 0.012173 -0.002871 0.000000 0.000000 0.000000
# 3 0.001079 -0.002871 0.017850 0.000000 0.000000 0.000000
# 4 0.000000 0.000000 0.000000 0.032241 0.000000 -0.000001
# 5 0.000000 0.000000 0.000000 0.000000 0.052698 0.000000
# 6 0.000000 0.000000 0.000000 -0.000001 0.000000 0.055983
#
#
# Mechanical properties :
#
#
# Convention : Reuss Voigt Hill
#
# Bulk Modulus (GPa) = 31.92316 35.32816 33.62566
# Shear Modulus (GPa) = 24.73806 27.70252 26.22029
#
# Velocity S-wave (km/s) = 3.53755 3.74351 3.64199
# Velocity P-wave (km/s) = 5.73015 6.04621 5.89030
#
# Compressibility (1/GPa) = 0.03132521
#
# Stress axis : x y z
#
# Youngs Moduli (GPa) = 90.77350 82.15088 56.02100
#
# Poissons Ratio (x) = 0.25179 -0.06046
# Poissons Ratio (y) = 0.27821 0.16086
# Poissons Ratio (z) = -0.09796 0.23589
#
# Static dielectric constant tensor:
#      x y z
#    x 3.616300 0.000000 0.000000 
#    y 0.000000 3.522570 0.000000 
#    z 0.000000 0.000000 3.502750 
# 
# 
# High freq. dielectric constant tensor:
#      x y z
#    x 1.771710 0.000000 0.000000 
#    y 0.000000 1.765410 0.000000 
#    z 0.000000 0.000000 1.766870 
# 
# From -- ./inp_files/32347.got.cif
#   From: 2010.03.12/outbox.cif.g09.slc.cpg/sg74_17_cif.got.tgz:32347.got - 2010.04.16 15:46:19.
