data_PCOD8298958
_publ_section_title
;
Structure prediction by ZEFSAII (Michael W. Deem and Ramdas Pophale) SiO2 
 PCOD8298958
Probable space group: I M M A
;
_chemical_formula_sum "Si O2"
_cell_formula_units_Z 64
_cell_length_a 17.513825
_cell_length_b 22.235346
_cell_length_c 8.358307
_cell_angle_alpha 90.000000
_cell_angle_beta 90.000000
_cell_angle_gamma 90.000000
_cell_volume 3254.941716
_symmetry_space_group_name_H-M "I M M A"
_symmetry_group_IT_number 74
_symmetry_cell_setting 'orthorhombic'
loop_
_space_group_symop_operation_xyz
x,y,z
-x,1/2-y,z
x,-y,-z
-x,1/2+y,-z
-x,-y,-z
x,1/2+y,-z
-x,y,z
x,1/2-y,z
1/2+x,1/2+y,1/2+z
1/2-x,-y,1/2+z
1/2+x,1/2-y,1/2-z
1/2-x,y,1/2-z
1/2-x,1/2-y,1/2-z
1/2+x,y,1/2-z
1/2-x,1/2+y,1/2+z
1/2+x,-y,1/2+z
loop_
_atom_site_type_symbol
_atom_site_label
_atom_site_fract_x
_atom_site_fract_y
_atom_site_fract_z
Si Si1 0.265693 0.250000 0.502997
Si Si2 0.183414 0.044539 0.141685
Si Si3 0.872457 0.750000 0.735392
Si Si4 0.414326 0.120812 0.125275
Si Si5 0.273215 0.375377 0.915826
O O1 0.204454 0.250000 0.362910
O O2 0.350265 0.250000 0.423572
O O3 0.252174 0.307215 0.613634
O O4 0.250000 0.012873 0.250000
O O5 0.113724 0.070565 0.246259
O O6 0.223867 0.101994 0.064198
O O7 0.154695 0.000000 0.000000
O O8 0.917816 0.688497 0.696489
O O9 0.500000 0.102629 0.075521
O O10 0.362431 0.117426 0.964174
O O11 0.250000 0.409078 0.750000
#
# Coordination Sequence:
#
# PCOD8298958 Si02
#       5
#     8  16   8  16  16
#     4   9  15  28  53  81 103 137 183 225 260 310
#     4  10  20  35  56  79 105 140 187 230 266 317
#     4   9  15  30  53  79 112 139 180 220 261 322
#     4  10  20  34  55  81 112 147 178 220 275 325
#     4  10  19  33  55  80 108 141 184 226 265 321
#
# _framework density 19.662409
#
# number of rings (size 3 to 8) (size 9 to 14) (size 15 to 20)
#    0.000    2.250    2.500    1.500    0.000    0.500 
#    0.000    1.250    0.000   25.500    0.000    0.000 
#    0.000    0.000    0.000    0.000    0.000    0.000 
#
# Total GULP energy -396431.143774 kJ/mol
# GULP energy per Si atom -12388.473243 kJ/mol
# Density = 1.961766 g / cm^3
# Si number density = 19.662409 Si / 1000 Ang^3
#
#
#
# Elastic Constant Matrix: (Units=GPa)
#
#
# Indices 1 2 3 4 5 6 
#
# 1 129.9251 24.7466 54.7558 0.0000 0.0000 0.0000
# 2 24.7466 84.1636 23.0858 0.0000 0.0000 0.0000
# 3 54.7558 23.0858 112.1222 0.0000 0.0000 0.0000
# 4 0.0000 0.0000 0.0000 30.2069 0.0000 0.0000
# 5 0.0000 0.0000 0.0000 0.0000 20.1360 0.0000
# 6 0.0000 0.0000 0.0000 0.0000 0.0000 9.8820
#
#
#
# Elastic Compliance Matrix: (Units=1/GPa)
#
#
# Indices 1 2 3 4 5 6 
#
# 1 0.009911 -0.001681 -0.004494 0.000000 0.000000 0.000000
# 2 -0.001681 0.012878 -0.001830 0.000000 0.000000 0.000000
# 3 -0.004494 -0.001830 0.011490 0.000000 0.000000 0.000000
# 4 0.000000 0.000000 0.000000 0.033105 0.000000 0.000000
# 5 0.000000 0.000000 0.000000 0.000000 0.049662 0.000000
# 6 0.000000 0.000000 0.000000 0.000000 0.000000 0.101194
#
#
# Mechanical properties :
#
#
# Convention : Reuss Voigt Hill
#
# Bulk Modulus (GPa) = 54.74097 59.04303 56.89200
# Shear Modulus (GPa) = 20.80378 26.95318 23.87848
#
# Velocity S-wave (km/s) = 3.25629 3.70644 3.48864
# Velocity P-wave (km/s) = 6.48373 6.95777 6.72493
#
# Compressibility (1/GPa) = 0.01826785
#
# Stress axis : x y z
#
# Youngs Moduli (GPa) = 100.89893 77.65120 87.02965
#
# Poissons Ratio (x) = 0.13057 0.39110
# Poissons Ratio (y) = 0.16966 0.15930
# Poissons Ratio (z) = 0.45343 0.14213
#
# Static dielectric constant tensor:
#      x y z
#    x 3.246640 0.000000 0.000000 
#    y 0.000000 3.701870 0.000000 
#    z 0.000000 0.000000 3.481270 
# 
# 
# High freq. dielectric constant tensor:
#      x y z
#    x 1.727260 0.000000 0.000000 
#    y 0.000000 1.778540 0.000000 
#    z 0.000000 0.000000 1.762370 
# 
# From -- ./inp_files/10304.got.cif
#   From: 2010.03.12/outbox.cif.g09.slc.cpg/sg74_6_cif.got.tgz:10304.got - 2010.04.16 15:46:19.
