data_PCOD8298995
_publ_section_title
;
Structure prediction by ZEFSAII (Michael W. Deem and Ramdas Pophale) SiO2 
 PCOD8298995
Probable space group: I M M A
;
_chemical_formula_sum "Si O2"
_cell_formula_units_Z 64
_cell_length_a 10.351149
_cell_length_b 16.090940
_cell_length_c 20.948000
_cell_angle_alpha 90.000000
_cell_angle_beta 90.000000
_cell_angle_gamma 90.000000
_cell_volume 3489.092962
_symmetry_space_group_name_H-M "I M M A"
_symmetry_group_IT_number 74
_symmetry_cell_setting 'orthorhombic'
loop_
_space_group_symop_operation_xyz
x,y,z
-x,1/2-y,z
x,-y,-z
-x,1/2+y,-z
-x,-y,-z
x,1/2+y,-z
-x,y,z
x,1/2-y,z
1/2+x,1/2+y,1/2+z
1/2-x,-y,1/2+z
1/2+x,1/2-y,1/2-z
1/2-x,y,1/2-z
1/2-x,1/2-y,1/2-z
1/2+x,y,1/2-z
1/2-x,1/2+y,1/2+z
1/2+x,-y,1/2+z
loop_
_atom_site_type_symbol
_atom_site_label
_atom_site_fract_x
_atom_site_fract_y
_atom_site_fract_z
Si Si1 0.500000 0.250000 0.101109
Si Si2 0.744919 0.008118 0.820624
Si Si3 0.500000 0.096694 0.334835
Si Si4 0.271038 0.250000 0.005967
Si Si5 0.500000 0.750000 0.571114
Si Si6 0.653701 0.074119 0.950691
Si Si7 0.000000 0.395297 0.303863
O O1 0.367294 0.250000 0.064347
O O2 0.500000 0.169963 0.142042
O O3 0.750000 0.053276 0.750000
O O4 0.629759 0.944470 0.814308
O O5 0.875980 0.962003 0.839859
O O6 0.712865 0.067318 0.879767
O O7 0.500000 0.166273 0.388234
O O8 0.500000 0.143877 0.266767
O O9 0.123616 0.250000 0.026539
O O10 0.296851 0.334959 0.968678
O O11 0.500000 0.072797 0.947354
O O12 0.698906 0.000000 0.000000
#
# Coordination Sequence:
#
# PCOD8298995 Si02
#       7
#     4  16   8   8   4  16   8
#     4  12  19  34  56  84 117 156 200 242 290 350
#     4  10  21  37  59  86 117 156 202 244 294 357
#     4  10  21  35  54  86 119 160 196 230 299 369
#     4  12  26  38  58  92 117 154 205 248 297 363
#     4  12  23  38  52  80 133 158 180 248 308 356
#     4  11  21  39  65  89 118 157 202 255 298 341
#     4  10  19  33  56  84 117 154 200 240 281 357
#
# _framework density 18.342874999999999
#
# number of rings (size 3 to 8) (size 9 to 14) (size 15 to 20)
#    0.000    1.250    2.500    4.875    0.000    1.000 
#    0.000    8.125    0.000    0.000    0.000    0.000 
#    0.000    0.000    0.000    0.000    0.000    0.000 
#
# Total GULP energy -396471.578820 kJ/mol
# GULP energy per Si atom -12389.736838 kJ/mol
# Density = 1.830113 g / cm^3
# Si number density = 18.342875 Si / 1000 Ang^3
#
#
#
# Elastic Constant Matrix: (Units=GPa)
#
#
# Indices 1 2 3 4 5 6 
#
# 1 135.7034 35.8089 50.1652 0.0000 0.0000 0.0000
# 2 35.8089 115.8621 82.3530 0.0000 0.0000 0.0000
# 3 50.1652 82.3530 163.9957 0.0000 0.0000 0.0000
# 4 0.0000 0.0000 0.0000 45.6298 0.0000 0.0000
# 5 0.0000 0.0000 0.0000 0.0000 36.0437 0.0000
# 6 0.0000 0.0000 0.0000 0.0000 0.0000 19.3599
#
#
#
# Elastic Compliance Matrix: (Units=1/GPa)
#
#
# Indices 1 2 3 4 5 6 
#
# 1 0.008414 -0.001199 -0.001972 0.000000 0.000000 0.000000
# 2 -0.001199 0.013592 -0.006459 0.000000 0.000000 0.000000
# 3 -0.001972 -0.006459 0.009944 0.000000 0.000000 0.000000
# 4 0.000000 0.000000 0.000000 0.021916 0.000000 0.000000
# 5 0.000000 0.000000 0.000000 0.000000 0.027744 0.000000
# 6 0.000000 0.000000 0.000000 0.000000 0.000000 0.051653
#
#
# Mechanical properties :
#
#
# Convention : Reuss Voigt Hill
#
# Bulk Modulus (GPa) = 78.79202 83.57949 81.18576
# Shear Modulus (GPa) = 31.89721 36.68895 34.29308
#
# Velocity S-wave (km/s) = 4.17459 4.47718 4.32853
# Velocity P-wave (km/s) = 8.14154 8.50828 8.32693
#
# Compressibility (1/GPa) = 0.01269164
#
# Stress axis : x y z
#
# Youngs Moduli (GPa) = 118.84512 73.57061 100.56038
#
# Poissons Ratio (x) = 0.08822 0.19828
# Poissons Ratio (y) = 0.14250 0.64950
# Poissons Ratio (z) = 0.23433 0.47518
#
# Static dielectric constant tensor:
#      x y z
#    x 3.460880 0.000000 0.000000 
#    y 0.000000 3.422230 0.000000 
#    z 0.000000 0.000000 4.063860 
# 
# 
# High freq. dielectric constant tensor:
#      x y z
#    x 1.731820 0.000000 0.000000 
#    y 0.000000 1.687990 0.000000 
#    z 0.000000 0.000000 1.729170 
# 
# From -- ./inp_files/40930.got.cif
#   From: 2010.03.12/outbox.cif.g09.slc.cpg/sg74_21_cif.got.tgz:40930.got - 2010.04.16 15:46:19.
