data_PCOD8298040
_publ_section_title
;
Structure prediction by ZEFSAII (Michael W. Deem and Ramdas Pophale) SiO2 
 PCOD8298040
Probable space group: I M M A
;
_chemical_formula_sum "Si O2"
_cell_formula_units_Z 88
_cell_length_a 9.096574
_cell_length_b 27.403548
_cell_length_c 19.532046
_cell_angle_alpha 90.000000
_cell_angle_beta 90.000000
_cell_angle_gamma 90.000000
_cell_volume 4868.917219
_symmetry_space_group_name_H-M "I M M A"
_symmetry_group_IT_number 74
_symmetry_cell_setting 'orthorhombic'
loop_
_space_group_symop_operation_xyz
x,y,z
-x,1/2-y,z
x,-y,-z
-x,1/2+y,-z
-x,-y,-z
x,1/2+y,-z
-x,y,z
x,1/2-y,z
1/2+x,1/2+y,1/2+z
1/2-x,-y,1/2+z
1/2+x,1/2-y,1/2-z
1/2-x,y,1/2-z
1/2-x,1/2-y,1/2-z
1/2+x,y,1/2-z
1/2-x,1/2+y,1/2+z
1/2+x,-y,1/2+z
loop_
_atom_site_type_symbol
_atom_site_label
_atom_site_fract_x
_atom_site_fract_y
_atom_site_fract_z
Si Si1 0.828759 0.459050 0.906056
Si Si2 0.170398 0.567185 0.941125
Si Si3 0.325511 0.804152 0.067958
Si Si4 0.673987 0.337079 0.079580
Si Si5 0.325414 0.118042 0.821076
Si Si6 0.173883 0.750000 0.677251
O O1 0.797262 0.516733 0.901935
O O2 0.730181 0.434272 0.847782
O O3 0.000000 0.448261 0.892640
O O4 0.780498 0.438238 0.979892
O O5 0.260217 0.609826 0.903359
O O6 0.000000 0.580339 0.937261
O O7 0.500000 0.804207 0.064847
O O8 0.266504 0.750000 0.085248
O O9 0.269588 0.840823 0.126103
O O10 0.263817 0.820251 0.994126
O O11 0.500000 0.341261 0.078395
O O12 0.725368 0.298071 0.136113
O O13 0.500000 0.116969 0.812601
O O14 0.250000 0.131108 0.750000
O O15 0.250000 0.750000 0.750000
O O16 0.000000 0.750000 0.687092
#
# Coordination Sequence:
#
# PCOD8298040 Si02
#       6
#    16  16  16  16  16   8
#     4   9  18  34  53  77 110 143 176 218 272 325
#     4   9  18  32  54  82 110 138 171 223 277 317
#     4   9  17  32  54  79 106 139 182 225 268 315
#     4  10  18  33  57  83 108 140 182 224 263 317
#     4  11  22  35  54  78 108 148 186 227 273 321
#     4  10  22  38  58  82 113 146 176 217 272 329
#
# _framework density 18.073834000000002
#
# number of rings (size 3 to 8) (size 9 to 14) (size 15 to 20)
#    0.000    2.364    2.727    1.636    0.000    1.818 
#    0.000    2.727    0.000    6.000    0.000    0.000 
#    0.000    0.000    0.000    0.000    0.000    0.000 
#
# Total GULP energy -545619.297459 kJ/mol
# GULP energy per Si atom -12400.438579 kJ/mol
# Density = 1.803270 g / cm^3
# Si number density = 18.073834 Si / 1000 Ang^3
#
#
#
# Elastic Constant Matrix: (Units=GPa)
#
#
# Indices 1 2 3 4 5 6 
#
# 1 45.9453 43.9884 41.1489 0.0000 0.0000 0.0000
# 2 43.9884 147.3522 67.0016 0.0001 0.0000 0.0000
# 3 41.1489 67.0016 127.0314 0.0003 0.0000 0.0001
# 4 0.0000 0.0001 0.0003 28.1646 0.0000 0.0000
# 5 0.0000 0.0000 0.0000 0.0000 27.7878 0.0000
# 6 0.0000 0.0000 0.0001 0.0000 0.0000 27.0815
#
#
#
# Elastic Compliance Matrix: (Units=1/GPa)
#
#
# Indices 1 2 3 4 5 6 
#
# 1 0.035483 -0.007059 -0.007771 0.000000 0.000000 0.000000
# 2 -0.007059 0.010332 -0.003163 0.000000 0.000000 0.000000
# 3 -0.007771 -0.003163 0.012057 0.000000 0.000000 0.000000
# 4 0.000000 0.000000 0.000000 0.035506 0.000000 0.000000
# 5 0.000000 0.000000 0.000000 0.000000 0.035987 0.000000
# 6 0.000000 0.000000 0.000000 0.000000 0.000000 0.036926
#
#
# Mechanical properties :
#
#
# Convention : Reuss Voigt Hill
#
# Bulk Modulus (GPa) = 45.68912 69.40074 57.54493
# Shear Modulus (GPa) = 23.85820 27.81943 25.83881
#
# Velocity S-wave (km/s) = 3.63718 3.92753 3.78514
# Velocity P-wave (km/s) = 6.55536 7.68435 7.14220
#
# Compressibility (1/GPa) = 0.02188705
#
# Stress axis : x y z
#
# Youngs Moduli (GPa) = 28.18250 96.78674 82.93685
#
# Poissons Ratio (x) = 0.68325 0.64446
# Poissons Ratio (y) = 0.19895 0.26232
# Poissons Ratio (z) = 0.21899 0.30612
#
# Static dielectric constant tensor:
#      x y z
#    x 3.043710 0.000000 0.000000 
#    y 0.000000 3.509360 0.000000 
#    z 0.000000 0.000000 3.209060 
# 
# 
# High freq. dielectric constant tensor:
#      x y z
#    x 1.678720 0.000000 0.000000 
#    y 0.000000 1.713580 0.000000 
#    z 0.000000 0.000000 1.682650 
# 
# From -- ./inp_files/49502.got.cif
#   From: 2010.03.12/outbox.cif.g09.slc.cpg/sg74_25_cif.got.tgz:49502.got - 2010.04.16 15:46:19.
