data_PCOD8298766
_publ_section_title
;
Structure prediction by ZEFSAII (Michael W. Deem and Ramdas Pophale) SiO2 
 PCOD8298766
Probable space group: I M M A
;
_chemical_formula_sum "Si O2"
_cell_formula_units_Z 80
_cell_length_a 16.993179
_cell_length_b 27.730922
_cell_length_c 7.976712
_cell_angle_alpha 90.000000
_cell_angle_beta 90.000000
_cell_angle_gamma 90.000000
_cell_volume 3758.918015
_symmetry_space_group_name_H-M "I M M A"
_symmetry_group_IT_number 74
_symmetry_cell_setting 'orthorhombic'
loop_
_space_group_symop_operation_xyz
x,y,z
-x,1/2-y,z
x,-y,-z
-x,1/2+y,-z
-x,-y,-z
x,1/2+y,-z
-x,y,z
x,1/2-y,z
1/2+x,1/2+y,1/2+z
1/2-x,-y,1/2+z
1/2+x,1/2-y,1/2-z
1/2-x,y,1/2-z
1/2-x,1/2-y,1/2-z
1/2+x,y,1/2-z
1/2-x,1/2+y,1/2+z
1/2+x,-y,1/2+z
loop_
_atom_site_type_symbol
_atom_site_label
_atom_site_fract_x
_atom_site_fract_y
_atom_site_fract_z
Si Si1 0.859054 0.884389 0.594967
Si Si2 0.836474 0.986848 0.691228
Si Si3 0.707246 0.850269 0.417934
Si Si4 0.412611 0.080491 0.740000
Si Si5 0.911379 0.195874 0.155093
O O1 0.858194 0.930725 0.719555
O O2 0.770176 0.869028 0.551910
O O3 0.906442 0.898364 0.428149
O O4 0.900170 0.840531 0.690460
O O5 0.750000 0.999911 0.750000
O O6 0.840007 0.000000 0.500000
O O7 0.898526 0.022963 0.778176
O O8 0.750000 0.829362 0.250000
O O9 0.652628 0.895472 0.375735
O O10 0.651620 0.810629 0.504908
O O11 0.500000 0.091745 0.673497
O O12 0.899859 0.250000 0.225369
O O13 0.000000 0.189257 0.083801
#
# Coordination Sequence:
#
# PCOD8298766 Si02
#       5
#    16  16  16  16  16
#     4  10  21  37  60  85 114 152 193 235 280 335
#     4  10  19  32  53  80 113 151 190 231 278 333
#     4  10  21  39  61  84 111 151 194 233 277 332
#     4  10  20  35  56  84 118 153 190 233 282 336
#     4  11  24  41  61  86 115 145 182 236 294 338
#
# _framework density 21.282717999999999
#
# number of rings (size 3 to 8) (size 9 to 14) (size 15 to 20)
#    0.000    1.800    0.000    6.000    0.000    6.400 
#    0.000    3.000    0.000   17.400    0.000    0.000 
#    0.000    0.000    0.000    0.000    0.000    0.000 
#
# Total GULP energy -495886.325719 kJ/mol
# GULP energy per Si atom -12397.158143 kJ/mol
# Density = 2.123428 g / cm^3
# Si number density = 21.282718 Si / 1000 Ang^3
#
#
#
# Elastic Constant Matrix: (Units=GPa)
#
#
# Indices 1 2 3 4 5 6 
#
# 1 134.4801 51.1049 23.5594 -0.0005 -0.0013 -0.0001
# 2 51.1049 150.7595 41.1767 -0.0006 -0.0012 0.0005
# 3 23.5594 41.1767 46.5718 0.0000 -0.0059 0.0017
# 4 -0.0005 -0.0006 0.0000 29.4581 -0.0005 -0.0004
# 5 -0.0013 -0.0012 -0.0059 -0.0005 27.2125 0.0006
# 6 -0.0001 0.0005 0.0017 -0.0004 0.0006 36.9534
#
#
#
# Elastic Compliance Matrix: (Units=1/GPa)
#
#
# Indices 1 2 3 4 5 6 
#
# 1 0.008730 -0.002311 -0.002373 0.000000 0.000000 0.000000
# 2 -0.002311 0.009357 -0.007104 0.000000 -0.000001 0.000000
# 3 -0.002373 -0.007104 0.028953 0.000000 0.000006 -0.000001
# 4 0.000000 0.000000 0.000000 0.033946 0.000001 0.000000
# 5 0.000000 -0.000001 0.000006 0.000001 0.036748 -0.000001
# 6 0.000000 0.000000 -0.000001 0.000000 -0.000001 0.027061
#
#
# Mechanical properties :
#
#
# Convention : Reuss Voigt Hill
#
# Bulk Modulus (GPa) = 42.61718 62.61039 52.61378
# Shear Modulus (GPa) = 28.37808 33.12284 30.75046
#
# Velocity S-wave (km/s) = 3.65552 3.94931 3.80525
# Velocity P-wave (km/s) = 6.15507 7.09072 6.63940
#
# Compressibility (1/GPa) = 0.02346472
#
# Stress axis : x y z
#
# Youngs Moduli (GPa) = 114.54686 106.87456 34.53847
#
# Poissons Ratio (x) = 0.24702 0.08195
# Poissons Ratio (y) = 0.26475 0.24535
# Poissons Ratio (z) = 0.27179 0.75920
#
# Static dielectric constant tensor:
#      x y z
#    x 3.893590 0.000000 0.000000 
#    y 0.000000 4.105450 0.000000 
#    z 0.000000 0.000000 3.770060 
# 
# 
# High freq. dielectric constant tensor:
#      x y z
#    x 1.844430 0.000000 0.000000 
#    y 0.000000 1.828780 0.000000 
#    z 0.000000 0.000000 1.821310 
# 
# From -- ./inp_files/11155.got.cif
#   From: 2010.03.12/outbox.cif.g09.slc.cpg/sg74_6_cif.got.tgz:11155.got - 2010.04.16 15:46:19.
