data_PCOD8298473
_publ_section_title
;
Structure prediction by ZEFSAII (Michael W. Deem and Ramdas Pophale) SiO2 
 PCOD8298473
Probable space group: I M M A
;
_chemical_formula_sum "Si O2"
_cell_formula_units_Z 80
_cell_length_a 9.214011
_cell_length_b 18.122530
_cell_length_c 27.017311
_cell_angle_alpha 90.000000
_cell_angle_beta 90.000000
_cell_angle_gamma 90.000000
_cell_volume 4511.382762
_symmetry_space_group_name_H-M "I M M A"
_symmetry_group_IT_number 74
_symmetry_cell_setting 'orthorhombic'
loop_
_space_group_symop_operation_xyz
x,y,z
-x,1/2-y,z
x,-y,-z
-x,1/2+y,-z
-x,-y,-z
x,1/2+y,-z
-x,y,z
x,1/2-y,z
1/2+x,1/2+y,1/2+z
1/2-x,-y,1/2+z
1/2+x,1/2-y,1/2-z
1/2-x,y,1/2-z
1/2-x,1/2-y,1/2-z
1/2+x,y,1/2-z
1/2-x,1/2+y,1/2+z
1/2+x,-y,1/2+z
loop_
_atom_site_type_symbol
_atom_site_label
_atom_site_fract_x
_atom_site_fract_y
_atom_site_fract_z
Si Si1 0.667517 0.471224 0.402359
Si Si2 0.833718 0.666929 0.964125
Si Si3 0.670598 0.468320 0.702123
Si Si4 0.666454 0.334155 0.838063
Si Si5 0.667726 0.603744 0.055534
O O1 0.500000 0.493054 0.409048
O O2 0.699337 0.387074 0.417944
O O3 0.713309 0.481440 0.345094
O O4 0.757742 0.524151 0.438500
O O5 0.800900 0.750000 0.945985
O O6 0.000000 0.658102 0.981328
O O7 0.733526 0.648389 0.010250
O O8 0.500000 0.466226 0.711624
O O9 0.750000 0.502898 0.750000
O O10 0.727755 0.385153 0.694060
O O11 0.500000 0.353244 0.824639
O O12 0.704265 0.250000 0.825204
O O13 0.693878 0.346862 0.896093
O O14 0.500000 0.589513 0.044861
#
# Coordination Sequence:
#
# PCOD8298473 Si02
#       5
#    16  16  16  16  16
#     4   9  19  35  52  71  96 127 164 201 236 283
#     4  10  20  33  50  72  99 131 164 198 237 282
#     4  10  20  34  52  71  91 119 157 201 245 288
#     4   9  18  32  48  68  98 132 162 193 229 273
#     4  10  19  31  49  74 103 134 165 196 233 277
#
# _framework density 17.732921999999999
#
# number of rings (size 3 to 8) (size 9 to 14) (size 15 to 20)
#    0.000    2.400    0.000    2.400    0.000    6.800 
#    0.000    0.000    0.000    0.600    0.000    0.000 
#    0.000    0.000    0.000    0.000    0.000    0.600 
#
# Total GULP energy -496086.839766 kJ/mol
# GULP energy per Si atom -12402.170994 kJ/mol
# Density = 1.769256 g / cm^3
# Si number density = 17.732922 Si / 1000 Ang^3
#
#
#
# Elastic Constant Matrix: (Units=GPa)
#
#
# Indices 1 2 3 4 5 6 
#
# 1 75.8397 38.8056 41.7227 0.0000 0.0000 0.0000
# 2 38.8056 101.6418 42.6443 0.0000 0.0000 0.0000
# 3 41.7227 42.6443 88.3068 0.0000 0.0000 0.0000
# 4 0.0000 0.0000 0.0000 13.1753 0.0000 0.0000
# 5 0.0000 0.0000 0.0000 0.0000 30.8371 0.0000
# 6 0.0000 0.0000 0.0000 0.0000 0.0000 15.5637
#
#
#
# Elastic Compliance Matrix: (Units=1/GPa)
#
#
# Indices 1 2 3 4 5 6 
#
# 1 0.019293 -0.004441 -0.006971 0.000000 0.000000 0.000000
# 2 -0.004441 0.013361 -0.004354 0.000000 0.000000 0.000000
# 3 -0.006971 -0.004354 0.016720 0.000000 0.000000 0.000000
# 4 0.000000 0.000000 0.000000 0.075900 0.000000 0.000000
# 5 0.000000 0.000000 0.000000 0.000000 0.032428 0.000000
# 6 0.000000 0.000000 0.000000 0.000000 0.000000 0.064252
#
#
# Mechanical properties :
#
#
# Convention : Reuss Voigt Hill
#
# Bulk Modulus (GPa) = 56.04577 56.90370 56.47474
# Shear Modulus (GPa) = 19.27280 21.42293 20.34787
#
# Velocity S-wave (km/s) = 3.30030 3.47953 3.39110
# Velocity P-wave (km/s) = 6.79682 6.94995 6.87381
#
# Compressibility (1/GPa) = 0.01784256
#
# Stress axis : x y z
#
# Youngs Moduli (GPa) = 51.83197 74.84651 59.80832
#
# Poissons Ratio (x) = 0.33241 0.41691
# Poissons Ratio (y) = 0.23020 0.26038
# Poissons Ratio (z) = 0.36131 0.32585
#
# Static dielectric constant tensor:
#      x y z
#    x 3.346280 0.000000 0.000000 
#    y 0.000000 3.260220 0.000000 
#    z 0.000000 0.000000 3.302940 
# 
# 
# High freq. dielectric constant tensor:
#      x y z
#    x 1.691420 0.000000 0.000000 
#    y 0.000000 1.669740 0.000000 
#    z 0.000000 0.000000 1.680420 
# 
# From -- ./inp_files/63892.got.cif
#   From: 2010.03.12/outbox.cif.g09.slc.cpg/sg74_32_cif.got.tgz:63892.got - 2010.04.16 15:46:19.
