data_PCOD8298426
_publ_section_title
;
Structure prediction by ZEFSAII (Michael W. Deem and Ramdas Pophale) SiO2 
 PCOD8298426
Probable space group: I M M A
;
_chemical_formula_sum "Si O2"
_cell_formula_units_Z 80
_cell_length_a 14.679065
_cell_length_b 14.842691
_cell_length_c 20.144447
_cell_angle_alpha 90.000000
_cell_angle_beta 90.000000
_cell_angle_gamma 90.000000
_cell_volume 4389.008173
_symmetry_space_group_name_H-M "I M M A"
_symmetry_group_IT_number 74
_symmetry_cell_setting 'orthorhombic'
loop_
_space_group_symop_operation_xyz
x,y,z
-x,1/2-y,z
x,-y,-z
-x,1/2+y,-z
-x,-y,-z
x,1/2+y,-z
-x,y,z
x,1/2-y,z
1/2+x,1/2+y,1/2+z
1/2-x,-y,1/2+z
1/2+x,1/2-y,1/2-z
1/2-x,y,1/2-z
1/2-x,1/2-y,1/2-z
1/2+x,y,1/2-z
1/2-x,1/2+y,1/2+z
1/2+x,-y,1/2+z
loop_
_atom_site_type_symbol
_atom_site_label
_atom_site_fract_x
_atom_site_fract_y
_atom_site_fract_z
Si Si1 0.144395 0.351873 0.235698
Si Si2 0.398871 0.461032 0.140835
Si Si3 0.215986 0.403009 0.473043
Si Si4 0.601217 0.356246 0.411771
Si Si5 0.395565 0.347445 0.909116
O O1 0.104464 0.250000 0.244572
O O2 0.250000 0.350367 0.250000
O O3 0.098350 0.424077 0.284418
O O4 0.124205 0.390075 0.162303
O O5 0.500000 0.453423 0.110638
O O6 0.332296 0.395533 0.098862
O O7 0.368168 0.567296 0.137860
O O8 0.192189 0.500000 0.500000
O O9 0.324476 0.389973 0.465011
O O10 0.170399 0.337313 0.526602
O O11 0.500000 0.390144 0.432657
O O12 0.606008 0.250000 0.411749
O O13 0.500000 0.359001 0.933097
O O14 0.384682 0.250000 0.871639
#
# Coordination Sequence:
#
# PCOD8298426 Si02
#       5
#    16  16  16  16  16
#     4  10  19  32  50  72 100 130 158 194 244 295
#     4  10  19  31  49  74 101 129 161 197 242 294
#     4  10  19  31  48  71  97 129 161 200 238 286
#     4  10  20  33  48  68  95 126 161 199 239 286
#     4   9  18  32  50  73 101 130 160 197 241 289
#
# _framework density 18.227353000000001
#
# number of rings (size 3 to 8) (size 9 to 14) (size 15 to 20)
#    0.000    2.200    2.000    1.800    0.000    4.800 
#    0.000    0.000    0.000    0.600    0.000    0.000 
#    0.000    0.000    0.000    0.000    0.000    0.000 
#
# Total GULP energy -495617.964315 kJ/mol
# GULP energy per Si atom -12390.449108 kJ/mol
# Density = 1.818587 g / cm^3
# Si number density = 18.227353 Si / 1000 Ang^3
#
#
#
# Elastic Constant Matrix: (Units=GPa)
#
#
# Indices 1 2 3 4 5 6 
#
# 1 94.2045 12.6424 15.4876 0.0000 0.0000 0.0000
# 2 12.6424 78.0038 23.4291 0.0000 0.0000 0.0000
# 3 15.4876 23.4291 50.8069 0.0000 0.0000 0.0000
# 4 0.0000 0.0000 0.0000 13.4844 0.0000 0.0000
# 5 0.0000 0.0000 0.0000 0.0000 25.7941 0.0000
# 6 0.0000 0.0000 0.0000 0.0000 0.0000 21.5093
#
#
#
# Elastic Compliance Matrix: (Units=1/GPa)
#
#
# Indices 1 2 3 4 5 6 
#
# 1 0.011232 -0.000919 -0.003000 0.000000 0.000000 0.000000
# 2 -0.000919 0.014956 -0.006617 0.000000 0.000000 0.000000
# 3 -0.003000 -0.006617 0.023648 0.000000 0.000000 0.000000
# 4 0.000000 0.000000 0.000000 0.074160 0.000000 0.000000
# 5 0.000000 0.000000 0.000000 0.000000 0.038769 0.000000
# 6 0.000000 0.000000 0.000000 0.000000 0.000000 0.046491
#
#
# Mechanical properties :
#
#
# Convention : Reuss Voigt Hill
#
# Bulk Modulus (GPa) = 34.76533 36.23705 35.50119
# Shear Modulus (GPa) = 20.84065 23.58797 22.21431
#
# Velocity S-wave (km/s) = 3.38505 3.60126 3.49483
# Velocity P-wave (km/s) = 5.86452 6.10048 5.98366
#
# Compressibility (1/GPa) = 0.02876429
#
# Stress axis : x y z
#
# Youngs Moduli (GPa) = 89.03314 66.86160 42.28677
#
# Poissons Ratio (x) = 0.06147 0.12685
# Poissons Ratio (y) = 0.08185 0.27980
# Poissons Ratio (z) = 0.26709 0.44240
#
# Static dielectric constant tensor:
#      x y z
#    x 3.584400 0.000000 0.000000 
#    y 0.000000 3.377870 0.000000 
#    z 0.000000 0.000000 3.208850 
# 
# 
# High freq. dielectric constant tensor:
#      x y z
#    x 1.713750 0.000000 0.000000 
#    y 0.000000 1.696550 0.000000 
#    z 0.000000 0.000000 1.672150 
# 
# From -- ./inp_files/42687.got.cif
#   From: 2010.03.12/outbox.cif.g09.slc.cpg/sg74_22_cif.got.tgz:42687.got - 2010.04.16 15:46:19.
