data_PCOD8298209
_publ_section_title
;
Structure prediction by ZEFSAII (Michael W. Deem and Ramdas Pophale) SiO2 
 PCOD8298209
Probable space group: I M M A
;
_chemical_formula_sum "Si O2"
_cell_formula_units_Z 72
_cell_length_a 21.718088
_cell_length_b 9.516504
_cell_length_c 18.621561
_cell_angle_alpha 90.000000
_cell_angle_beta 90.000000
_cell_angle_gamma 90.000000
_cell_volume 3848.709280
_symmetry_space_group_name_H-M "I M M A"
_symmetry_group_IT_number 74
_symmetry_cell_setting 'orthorhombic'
loop_
_space_group_symop_operation_xyz
x,y,z
-x,1/2-y,z
x,-y,-z
-x,1/2+y,-z
-x,-y,-z
x,1/2+y,-z
-x,y,z
x,1/2-y,z
1/2+x,1/2+y,1/2+z
1/2-x,-y,1/2+z
1/2+x,1/2-y,1/2-z
1/2-x,y,1/2-z
1/2-x,1/2-y,1/2-z
1/2+x,y,1/2-z
1/2-x,1/2+y,1/2+z
1/2+x,-y,1/2+z
loop_
_atom_site_type_symbol
_atom_site_label
_atom_site_fract_x
_atom_site_fract_y
_atom_site_fract_z
Si Si1 0.000000 0.414694 0.925204
Si Si2 0.319114 0.902527 0.559478
Si Si3 0.878326 0.407460 0.840209
Si Si4 0.321860 0.093395 0.063512
Si Si5 0.689501 0.908769 0.203612
O O1 0.056805 0.456013 0.873250
O O2 0.000000 0.250000 0.944016
O O3 0.000000 0.500000 0.000000
O O4 0.351752 0.750000 0.561690
O O5 0.248314 0.883404 0.540322
O O6 0.353115 0.000000 0.500000
O O7 0.325786 0.984259 0.634057
O O8 0.862468 0.250000 0.867119
O O9 0.872013 0.413818 0.753905
O O10 0.352455 0.250000 0.068928
O O11 0.324994 0.015576 0.139658
O O12 0.353682 0.000000 0.000000
O O13 0.698475 0.750000 0.173200
O O14 0.750000 0.950607 0.250000
#
# Coordination Sequence:
#
# PCOD8298209 Si02
#       5
#     8  16  16  16  16
#     4  10  22  38  54  74 103 140 183 220 253 294
#     4  10  19  29  44  67  96 131 169 208 249 298
#     4  10  20  34  51  71  98 134 173 215 258 302
#     4  10  20  32  48  71 102 135 168 205 251 310
#     4  10  19  32  51  74 102 134 170 212 262 315
#
# _framework density 18.707571000000002
#
# number of rings (size 3 to 8) (size 9 to 14) (size 15 to 20)
#    0.000    2.000    2.222    2.000    0.000    5.778 
#    0.000    0.000    0.000    0.000    0.000    0.778 
#    0.000    0.000    0.000    0.000    0.000    0.000 
#
# Total GULP energy -445999.787416 kJ/mol
# GULP energy per Si atom -12388.882984 kJ/mol
# Density = 1.866499 g / cm^3
# Si number density = 18.707571 Si / 1000 Ang^3
#
#
#
# Elastic Constant Matrix: (Units=GPa)
#
#
# Indices 1 2 3 4 5 6 
#
# 1 37.2214 12.2578 24.5354 0.0000 0.0000 0.0000
# 2 12.2578 151.3312 77.7985 0.0000 0.0000 0.0000
# 3 24.5354 77.7985 123.1414 0.0000 0.0000 0.0000
# 4 0.0000 0.0000 0.0000 36.5154 0.0000 0.0000
# 5 0.0000 0.0000 0.0000 0.0000 25.8828 0.0000
# 6 0.0000 0.0000 0.0000 0.0000 0.0000 12.3343
#
#
#
# Elastic Compliance Matrix: (Units=1/GPa)
#
#
# Indices 1 2 3 4 5 6 
#
# 1 0.031027 0.000985 -0.006804 0.000000 0.000000 0.000000
# 2 0.000985 0.009818 -0.006399 0.000000 0.000000 0.000000
# 3 -0.006804 -0.006399 0.013519 0.000000 0.000000 0.000000
# 4 0.000000 0.000000 0.000000 0.027386 0.000000 0.000000
# 5 0.000000 0.000000 0.000000 0.000000 0.038636 0.000000
# 6 0.000000 0.000000 0.000000 0.000000 0.000000 0.081075
#
#
# Mechanical properties :
#
#
# Convention : Reuss Voigt Hill
#
# Bulk Modulus (GPa) = 33.41416 60.09748 46.75582
# Shear Modulus (GPa) = 21.19786 28.08666 24.64226
#
# Velocity S-wave (km/s) = 3.36983 3.87893 3.63331
# Velocity P-wave (km/s) = 5.74814 7.22883 6.53058
#
# Compressibility (1/GPa) = 0.02992744
#
# Stress axis : x y z
#
# Youngs Moduli (GPa) = 32.22995 101.85420 73.96868
#
# Poissons Ratio (x) = -0.10031 0.50330
# Poissons Ratio (y) = -0.03174 0.47333
# Poissons Ratio (z) = 0.21930 0.65177
#
# Static dielectric constant tensor:
#      x y z
#    x 3.030500 0.000000 0.000000 
#    y 0.000000 3.849210 0.000000 
#    z 0.000000 0.000000 3.404330 
# 
# 
# High freq. dielectric constant tensor:
#      x y z
#    x 1.660930 0.000000 0.000000 
#    y 0.000000 1.742530 0.000000 
#    z 0.000000 0.000000 1.725770 
# 
# From -- ./inp_files/39417.got.cif
#   From: 2010.03.12/outbox.cif.g09.slc.cpg/sg74_20_cif.got.tgz:39417.got - 2010.04.16 15:46:19.
