data_PCOD8298727
_publ_section_title
;
Structure prediction by ZEFSAII (Michael W. Deem and Ramdas Pophale) SiO2 
 PCOD8298727
Probable space group: I M M A
;
_chemical_formula_sum "Si O2"
_cell_formula_units_Z 112
_cell_length_a 19.034109
_cell_length_b 17.409621
_cell_length_c 18.770892
_cell_angle_alpha 90.000000
_cell_angle_beta 90.000000
_cell_angle_gamma 90.000000
_cell_volume 6220.234816
_symmetry_space_group_name_H-M "I M M A"
_symmetry_group_IT_number 74
_symmetry_cell_setting 'orthorhombic'
loop_
_space_group_symop_operation_xyz
x,y,z
-x,1/2-y,z
x,-y,-z
-x,1/2+y,-z
-x,-y,-z
x,1/2+y,-z
-x,y,z
x,1/2-y,z
1/2+x,1/2+y,1/2+z
1/2-x,-y,1/2+z
1/2+x,1/2-y,1/2-z
1/2-x,y,1/2-z
1/2-x,1/2-y,1/2-z
1/2+x,y,1/2-z
1/2-x,1/2+y,1/2+z
1/2+x,-y,1/2+z
loop_
_atom_site_type_symbol
_atom_site_label
_atom_site_fract_x
_atom_site_fract_y
_atom_site_fract_z
Si Si1 0.190040 0.163448 0.951228
Si Si2 0.803680 0.336015 0.118938
Si Si3 0.077257 0.948382 0.062567
Si Si4 0.822431 0.572630 0.452220
Si Si5 0.147264 0.840329 0.587529
Si Si6 0.421201 0.060670 0.309420
Si Si7 0.080102 0.481085 0.347788
O O1 0.202108 0.250000 0.924643
O O2 0.118397 0.129626 0.920304
O O3 0.252054 0.109822 0.920000
O O4 0.179707 0.159339 0.035804
O O5 0.811287 0.250000 0.147666
O O6 0.722022 0.361875 0.125214
O O7 0.858782 0.382728 0.166818
O O8 0.000000 0.924671 0.035364
O O9 0.073838 0.992796 0.135475
O O10 0.113341 0.000000 0.000000
O O11 0.801345 0.500000 0.500000
O O12 0.854774 0.638885 0.503290
O O13 0.873586 0.544902 0.389043
O O14 0.129880 0.750000 0.596118
O O15 0.089652 0.893659 0.624729
O O16 0.500000 0.099833 0.304109
O O17 0.400318 0.020632 0.235205
O O18 0.000000 0.505381 0.361071
#
# Coordination Sequence:
#
# PCOD8298727 Si02
#       7
#    16  16  16  16  16  16  16
#     4  10  19  32  54  81 107 135 173 224 272 314
#     4   9  18  32  51  77 110 142 174 211 262 320
#     4  10  19  32  52  77 107 143 184 224 260 306
#     4   9  18  33  56  78 102 136 174 224 266 318
#     4   9  19  35  55  81 109 139 173 220 276 327
#     4  10  21  35  51  75 111 149 183 217 261 317
#     4  10  22  37  53  77 107 143 182 222 270 326
#
# _framework density 18.005749999999999
#
# number of rings (size 3 to 8) (size 9 to 14) (size 15 to 20)
#    0.000    2.429    1.429    1.714    4.000    4.571 
#    0.000    4.286    0.000    3.857    0.000    4.000 
#    0.000    0.000    0.000    0.000    0.000    0.000 
#
# Total GULP energy -693911.177369 kJ/mol
# GULP energy per Si atom -12391.271024 kJ/mol
# Density = 1.796477 g / cm^3
# Si number density = 18.005750 Si / 1000 Ang^3
#
#
#
# Elastic Constant Matrix: (Units=GPa)
#
#
# Indices 1 2 3 4 5 6 
#
# 1 98.3135 56.7069 45.4878 0.0000 0.0000 0.0000
# 2 56.7069 90.8123 35.0803 0.0000 0.0000 0.0000
# 3 45.4878 35.0803 83.2137 0.0000 0.0000 0.0000
# 4 0.0000 0.0000 0.0000 18.2961 0.0000 0.0000
# 5 0.0000 0.0000 0.0000 0.0000 27.7389 0.0000
# 6 0.0000 0.0000 0.0000 0.0000 0.0000 2.5607
#
#
#
# Elastic Compliance Matrix: (Units=1/GPa)
#
#
# Indices 1 2 3 4 5 6 
#
# 1 0.018208 -0.008989 -0.006164 0.000000 0.000000 0.000000
# 2 -0.008989 0.017591 -0.002502 0.000000 0.000000 0.000000
# 3 -0.006164 -0.002502 0.016442 0.000000 0.000000 0.000000
# 4 0.000000 0.000000 0.000000 0.054656 0.000000 0.000000
# 5 0.000000 0.000000 0.000000 0.000000 0.036050 0.000000
# 6 0.000000 0.000000 0.000000 0.000000 0.000000 0.390514
#
#
# Mechanical properties :
#
#
# Convention : Reuss Voigt Hill
#
# Bulk Modulus (GPa) = 59.06320 60.76550 59.91435
# Shear Modulus (GPa) = 8.70450 18.72345 13.71398
#
# Velocity S-wave (km/s) = 2.20109 3.22818 2.76278
# Velocity P-wave (km/s) = 6.27163 6.90768 6.59732
#
# Compressibility (1/GPa) = 0.01693102
#
# Stress axis : x y z
#
# Youngs Moduli (GPa) = 54.92034 56.84605 60.82148
#
# Poissons Ratio (x) = 0.51098 0.37490
# Poissons Ratio (y) = 0.49367 0.15219
# Poissons Ratio (z) = 0.33852 0.14225
#
# Static dielectric constant tensor:
#      x y z
#    x 3.523560 0.000000 0.000000 
#    y 0.000000 3.338200 0.000000 
#    z 0.000000 0.000000 3.156420 
# 
# 
# High freq. dielectric constant tensor:
#      x y z
#    x 1.701270 0.000000 0.000000 
#    y 0.000000 1.686190 0.000000 
#    z 0.000000 0.000000 1.674730 
# 
# From -- ./inp_files/53228.got.cif
#   From: 2010.03.12/outbox.cif.g09.slc.cpg/sg74_27_cif.got.tgz:53228.got - 2010.04.16 15:46:19.
