data_PCOD8298397
_publ_section_title
;
Structure prediction by ZEFSAII (Michael W. Deem and Ramdas Pophale) SiO2 
 PCOD8298397
Probable space group: I M M A
;
_chemical_formula_sum "Si O2"
_cell_formula_units_Z 72
_cell_length_a 33.772162
_cell_length_b 8.750530
_cell_length_c 14.502100
_cell_angle_alpha 90.000000
_cell_angle_beta 90.000000
_cell_angle_gamma 90.000000
_cell_volume 4285.723194
_symmetry_space_group_name_H-M "I M M A"
_symmetry_group_IT_number 74
_symmetry_cell_setting 'orthorhombic'
loop_
_space_group_symop_operation_xyz
x,y,z
-x,1/2-y,z
x,-y,-z
-x,1/2+y,-z
-x,-y,-z
x,1/2+y,-z
-x,y,z
x,1/2-y,z
1/2+x,1/2+y,1/2+z
1/2-x,-y,1/2+z
1/2+x,1/2-y,1/2-z
1/2-x,y,1/2-z
1/2-x,1/2-y,1/2-z
1/2+x,y,1/2-z
1/2-x,1/2+y,1/2+z
1/2+x,-y,1/2+z
loop_
_atom_site_type_symbol
_atom_site_label
_atom_site_fract_x
_atom_site_fract_y
_atom_site_fract_z
Si Si1 0.727654 0.070710 0.904505
Si Si2 0.500000 0.571965 0.098499
Si Si3 0.155847 0.428867 0.728820
Si Si4 0.188275 0.930619 0.902812
Si Si5 0.585578 0.430429 0.898993
O O1 0.734819 0.250000 0.917923
O O2 0.695722 0.035396 0.826761
O O3 0.768734 0.994242 0.874516
O O4 0.711974 0.000000 0.000000
O O5 0.500000 0.750000 0.083043
O O6 0.542098 0.525356 0.145227
O O7 0.500000 0.500000 0.000000
O O8 0.151354 0.250000 0.749427
O O9 0.156977 0.519084 0.825072
O O10 0.118553 0.493241 0.671128
O O11 0.189995 0.750000 0.911264
O O12 0.174276 0.000000 0.000000
O O13 0.590657 0.250000 0.910134
O O14 0.591871 0.500000 0.000000
#
# Coordination Sequence:
#
# PCOD8298397 Si02
#       5
#    16   8  16  16  16
#     4  10  19  31  47  66  92 123 153 187 226 268
#     4   8  14  26  44  66  93 126 155 178 213 260
#     4  10  20  32  46  67  94 122 152 189 229 266
#     4  11  22  35  50  65  85 116 154 194 233 273
#     4   9  17  29  46  69  98 127 154 184 218 262
#
# _framework density 16.799965
#
# number of rings (size 3 to 8) (size 9 to 14) (size 15 to 20)
#    0.000    2.222    0.000    5.333    0.000    5.333 
#    0.000    0.000    0.000    0.000    0.000    0.778 
#    0.000    0.000    0.000    0.000    0.000    0.000 
#
# Total GULP energy -446203.275971 kJ/mol
# GULP energy per Si atom -12394.535444 kJ/mol
# Density = 1.676173 g / cm^3
# Si number density = 16.799965 Si / 1000 Ang^3
#
#
#
# Elastic Constant Matrix: (Units=GPa)
#
#
# Indices 1 2 3 4 5 6 
#
# 1 107.9764 41.6741 73.3901 0.0000 0.0000 0.0000
# 2 41.6741 72.3639 44.5542 0.0000 0.0000 0.0000
# 3 73.3901 44.5542 110.2463 0.0000 0.0000 0.0000
# 4 0.0000 0.0000 0.0000 28.2224 0.0000 0.0000
# 5 0.0000 0.0000 0.0000 0.0000 21.5334 0.0000
# 6 0.0000 0.0000 0.0000 0.0000 0.0000 15.2048
#
#
#
# Elastic Compliance Matrix: (Units=1/GPa)
#
#
# Indices 1 2 3 4 5 6 
#
# 1 0.017710 -0.003914 -0.010207 0.000000 0.000000 0.000000
# 2 -0.003914 0.019262 -0.005179 0.000000 0.000000 0.000000
# 3 -0.010207 -0.005179 0.017958 0.000000 0.000000 0.000000
# 4 0.000000 0.000000 0.000000 0.035433 0.000000 0.000000
# 5 0.000000 0.000000 0.000000 0.000000 0.046439 0.000000
# 6 0.000000 0.000000 0.000000 0.000000 0.000000 0.065769
#
#
# Mechanical properties :
#
#
# Convention : Reuss Voigt Hill
#
# Bulk Modulus (GPa) = 61.23929 67.75814 64.49872
# Shear Modulus (GPa) = 20.27455 21.72335 20.99895
#
# Velocity S-wave (km/s) = 3.47770 3.59981 3.53928
# Velocity P-wave (km/s) = 7.25652 7.59593 7.42816
#
# Compressibility (1/GPa) = 0.01632938
#
# Stress axis : x y z
#
# Youngs Moduli (GPa) = 56.46563 51.91643 55.68427
#
# Poissons Ratio (x) = 0.20322 0.56839
# Poissons Ratio (y) = 0.22103 0.28836
# Poissons Ratio (z) = 0.57637 0.26885
#
# Static dielectric constant tensor:
#      x y z
#    x 3.611580 0.000000 0.000000 
#    y 0.000000 3.927120 0.000000 
#    z 0.000000 0.000000 3.039130 
# 
# 
# High freq. dielectric constant tensor:
#      x y z
#    x 1.638830 0.000000 0.000000 
#    y 0.000000 1.652010 0.000000 
#    z 0.000000 0.000000 1.628540 
# 
# From -- ./inp_files/29430.got.cif
#   From: 2010.03.12/outbox.cif.g09.slc.cpg/sg74_15_cif.got.tgz:29430.got - 2010.04.16 15:46:19.
