data_PCOD8298811
_publ_section_title
;
Structure prediction by ZEFSAII (Michael W. Deem and Ramdas Pophale) SiO2 
 PCOD8298811
Probable space group: I M M A
;
_chemical_formula_sum "Si O2"
_cell_formula_units_Z 112
_cell_length_a 14.765866
_cell_length_b 13.567818
_cell_length_c 26.693287
_cell_angle_alpha 90.000000
_cell_angle_beta 90.000000
_cell_angle_gamma 90.000000
_cell_volume 5347.748666
_symmetry_space_group_name_H-M "I M M A"
_symmetry_group_IT_number 74
_symmetry_cell_setting 'orthorhombic'
loop_
_space_group_symop_operation_xyz
x,y,z
-x,1/2-y,z
x,-y,-z
-x,1/2+y,-z
-x,-y,-z
x,1/2+y,-z
-x,y,z
x,1/2-y,z
1/2+x,1/2+y,1/2+z
1/2-x,-y,1/2+z
1/2+x,1/2-y,1/2-z
1/2-x,y,1/2-z
1/2-x,1/2-y,1/2-z
1/2+x,y,1/2-z
1/2-x,1/2+y,1/2+z
1/2+x,-y,1/2+z
loop_
_atom_site_type_symbol
_atom_site_label
_atom_site_fract_x
_atom_site_fract_y
_atom_site_fract_z
Si Si1 0.147295 0.446267 0.299604
Si Si2 0.604438 0.360471 0.841624
Si Si3 0.601759 0.973563 0.599773
Si Si4 0.099009 0.636811 0.597558
Si Si5 0.261664 0.364021 0.582797
Si Si6 0.848810 0.132956 0.196392
Si Si7 0.236889 0.367196 0.031242
O O1 0.135718 0.565187 0.297414
O O2 0.092691 0.414184 0.348534
O O3 0.105423 0.398778 0.249155
O O4 0.250084 0.414037 0.306182
O O5 0.500000 0.375920 0.857272
O O6 0.620748 0.250000 0.821152
O O7 0.664766 0.380712 0.891023
O O8 0.500000 0.002289 0.583621
O O9 0.594568 0.909165 0.650324
O O10 0.645320 0.908401 0.555601
O O11 0.659998 0.072487 0.609807
O O12 0.123085 0.750000 0.607238
O O13 0.176852 0.590807 0.562325
O O14 0.000000 0.624830 0.571884
O O15 0.291090 0.250000 0.584921
O O16 0.254123 0.403532 0.525853
O O17 0.843094 0.250000 0.192666
O O18 0.234470 0.250000 0.032889
#
# Coordination Sequence:
#
# PCOD8298811 Si02
#       7
#    16  16  16  16  16  16  16
#     4  11  20  37  62  90 123 163 197 243 294 359
#     4  10  21  39  65  95 126 161 202 244 292 357
#     4  12  25  41  61  86 119 160 207 259 310 360
#     4  10  19  32  56  91 128 161 194 239 299 368
#     4  10  22  42  64  87 119 161 206 254 305 355
#     4  11  23  40  64  92 121 157 200 248 303 366
#     4  10  21  38  60  87 123 160 201 251 304 364
#
# _framework density 20.943391999999999
#
# number of rings (size 3 to 8) (size 9 to 14) (size 15 to 20)
#    0.000    1.429    2.857    3.000    0.000    4.286 
#    0.000    6.429    0.000    3.429    0.000    0.000 
#    0.000    0.000    0.000    0.000    0.000    0.000 
#
# Total GULP energy -694406.841720 kJ/mol
# GULP energy per Si atom -12400.122174 kJ/mol
# Density = 2.089572 g / cm^3
# Si number density = 20.943392 Si / 1000 Ang^3
#
#
#
# Elastic Constant Matrix: (Units=GPa)
#
#
# Indices 1 2 3 4 5 6 
#
# 1 131.2244 51.6338 45.9472 0.0000 0.0000 0.0000
# 2 51.6338 106.3927 54.8663 0.0000 0.0000 0.0000
# 3 45.9472 54.8663 97.1775 0.0000 0.0000 0.0000
# 4 0.0000 0.0000 0.0000 36.3658 0.0000 0.0000
# 5 0.0000 0.0000 0.0000 0.0000 6.1433 0.0000
# 6 0.0000 0.0000 0.0000 0.0000 0.0000 23.6148
#
#
#
# Elastic Compliance Matrix: (Units=1/GPa)
#
#
# Indices 1 2 3 4 5 6 
#
# 1 0.009926 -0.003381 -0.002784 0.000000 0.000000 0.000000
# 2 -0.003381 0.014412 -0.006538 0.000000 0.000000 0.000000
# 3 -0.002784 -0.006538 0.015298 0.000000 0.000000 0.000000
# 4 0.000000 0.000000 0.000000 0.027498 0.000000 0.000000
# 5 0.000000 0.000000 0.000000 0.000000 0.162778 0.000000
# 6 0.000000 0.000000 0.000000 0.000000 0.000000 0.042346
#
#
# Mechanical properties :
#
#
# Convention : Reuss Voigt Hill
#
# Bulk Modulus (GPa) = 70.27985 71.07660 70.67823
# Shear Modulus (GPa) = 16.53390 25.38126 20.95758
#
# Velocity S-wave (km/s) = 2.81278 3.48501 3.16678
# Velocity P-wave (km/s) = 6.64672 7.08554 6.86963
#
# Compressibility (1/GPa) = 0.01422883
#
# Stress axis : x y z
#
# Youngs Moduli (GPa) = 100.74709 69.38705 65.36737
#
# Poissons Ratio (x) = 0.23463 0.18198
# Poissons Ratio (y) = 0.34067 0.42738
# Poissons Ratio (z) = 0.28047 0.45366
#
# Static dielectric constant tensor:
#      x y z
#    x 3.672650 0.000000 0.000000 
#    y 0.000000 4.061220 0.000000 
#    z 0.000000 0.000000 3.984660 
# 
# 
# High freq. dielectric constant tensor:
#      x y z
#    x 1.814940 0.000000 0.000000 
#    y 0.000000 1.837700 0.000000 
#    z 0.000000 0.000000 1.806980 
# 
# From -- ./inp_files/67197.got.cif
#   From: 2010.03.12/outbox.cif.g09.slc.cpg/sg74_34_cif.got.tgz:67197.got - 2010.04.16 15:46:19.
