data_PCOD8298451
_publ_section_title
;
Structure prediction by ZEFSAII (Michael W. Deem and Ramdas Pophale) SiO2 
 PCOD8298451
Probable space group: I M M A
;
_chemical_formula_sum "Si O2"
_cell_formula_units_Z 88
_cell_length_a 9.151933
_cell_length_b 27.414076
_cell_length_c 19.371984
_cell_angle_alpha 90.000000
_cell_angle_beta 90.000000
_cell_angle_gamma 90.000000
_cell_volume 4860.271680
_symmetry_space_group_name_H-M "I M M A"
_symmetry_group_IT_number 74
_symmetry_cell_setting 'orthorhombic'
loop_
_space_group_symop_operation_xyz
x,y,z
-x,1/2-y,z
x,-y,-z
-x,1/2+y,-z
-x,-y,-z
x,1/2+y,-z
-x,y,z
x,1/2-y,z
1/2+x,1/2+y,1/2+z
1/2-x,-y,1/2+z
1/2+x,1/2-y,1/2-z
1/2-x,y,1/2-z
1/2-x,1/2-y,1/2-z
1/2+x,y,1/2-z
1/2-x,1/2+y,1/2+z
1/2+x,-y,1/2+z
loop_
_atom_site_type_symbol
_atom_site_label
_atom_site_fract_x
_atom_site_fract_y
_atom_site_fract_z
Si Si1 0.826383 0.522475 0.929924
Si Si2 0.325846 0.868768 0.555275
Si Si3 0.670593 0.306374 0.317585
Si Si4 0.826785 0.153225 0.903198
Si Si5 0.325817 0.750000 0.324068
Si Si6 0.673299 0.442586 0.677422
O O1 0.767448 0.577589 0.924355
O O2 0.773942 0.489660 0.865889
O O3 0.000000 0.521984 0.933432
O O4 0.761583 0.500000 0.000000
O O5 0.500000 0.868638 0.551972
O O6 0.267784 0.832765 0.614427
O O7 0.263734 0.850966 0.481159
O O8 0.500000 0.316046 0.307998
O O9 0.708270 0.250000 0.327355
O O10 0.750000 0.327666 0.250000
O O11 0.771594 0.202657 0.866632
O O12 0.772119 0.106548 0.860212
O O13 0.000000 0.153402 0.906671
O O14 0.500000 0.750000 0.313768
O O15 0.250000 0.750000 0.250000
O O16 0.500000 0.441865 0.687212
O O17 0.750000 0.446270 0.750000
#
# Coordination Sequence:
#
# PCOD8298451 Si02
#       6
#    16  16  16  16   8  16
#     4   9  15  27  46  69  94 119 152 193 232 266
#     4   9  16  27  47  73  95 117 155 202 234 264
#     4   9  18  31  48  70  96 124 152 188 234 279
#     4   9  17  29  47  72  96 120 156 198 233 266
#     4  10  20  32  48  70  97 126 154 192 235 276
#     4  10  19  31  49  72  96 124 155 189 231 278
#
# _framework density 18.105983999999999
#
# number of rings (size 3 to 8) (size 9 to 14) (size 15 to 20)
#    0.000    2.727    1.818    0.545    1.273    0.727 
#    0.000    0.000    0.000    2.727    0.000    0.000 
#    0.000    0.000    0.000    0.000    0.000    0.000 
#
# Total GULP energy -545478.326465 kJ/mol
# GULP energy per Si atom -12397.234692 kJ/mol
# Density = 1.806477 g / cm^3
# Si number density = 18.105984 Si / 1000 Ang^3
#
#
#
# Elastic Constant Matrix: (Units=GPa)
#
#
# Indices 1 2 3 4 5 6 
#
# 1 12.9132 21.0047 29.3345 0.0001 0.0000 0.0000
# 2 21.0047 146.8788 104.6564 0.0001 0.0000 0.0000
# 3 29.3345 104.6564 208.1095 0.0009 0.0000 -0.0002
# 4 0.0001 0.0001 0.0009 39.5782 0.0000 -0.0001
# 5 0.0000 0.0000 0.0000 0.0000 27.5514 0.0001
# 6 0.0000 0.0000 -0.0002 -0.0001 0.0001 8.9629
#
#
#
# Elastic Compliance Matrix: (Units=1/GPa)
#
#
# Indices 1 2 3 4 5 6 
#
# 1 0.119567 -0.007932 -0.012865 0.000000 0.000000 0.000000
# 2 -0.007932 0.011137 -0.004482 0.000000 0.000000 0.000000
# 3 -0.012865 -0.004482 0.008873 0.000000 0.000000 0.000000
# 4 0.000000 0.000000 0.000000 0.025266 0.000000 0.000000
# 5 0.000000 0.000000 0.000000 0.000000 0.036296 0.000000
# 6 0.000000 0.000000 0.000000 0.000000 0.000000 0.111572
#
#
# Mechanical properties :
#
#
# Convention : Reuss Voigt Hill
#
# Bulk Modulus (GPa) = 11.23377 75.32141 43.27759
# Shear Modulus (GPa) = 12.72455 29.41222 21.06838
#
# Velocity S-wave (km/s) = 2.65388 4.03482 3.41488
# Velocity P-wave (km/s) = 3.95078 7.96222 6.28513
#
# Compressibility (1/GPa) = 0.08901733
#
# Stress axis : x y z
#
# Youngs Moduli (GPa) = 8.36352 89.79437 112.70584
#
# Poissons Ratio (x) = 0.71228 1.44992
# Poissons Ratio (y) = 0.06634 0.50519
# Poissons Ratio (z) = 0.10759 0.40249
#
# Static dielectric constant tensor:
#      x y z
#    x 2.719190 0.000000 0.000000 
#    y 0.000000 3.662090 0.000000 
#    z 0.000000 0.000000 3.590410 
# 
# 
# High freq. dielectric constant tensor:
#      x y z
#    x 1.632360 0.000000 0.000000 
#    y 0.000000 1.715020 0.000000 
#    z 0.000000 0.000000 1.717180 
# 
# From -- ./inp_files/30964.got.cif
#   From: 2010.03.12/outbox.cif.g09.slc.cpg/sg74_16_cif.got.tgz:30964.got - 2010.04.16 15:46:19.
