data_PCOD8298081
_publ_section_title
;
Structure prediction by ZEFSAII (Michael W. Deem and Ramdas Pophale) SiO2 
 PCOD8298081
Probable space group: I M M A
;
_chemical_formula_sum "Si O2"
_cell_formula_units_Z 60
_cell_length_a 14.739618
_cell_length_b 10.566100
_cell_length_c 18.851952
_cell_angle_alpha 90.000000
_cell_angle_beta 90.000000
_cell_angle_gamma 90.000000
_cell_volume 2936.008241
_symmetry_space_group_name_H-M "I M M A"
_symmetry_group_IT_number 74
_symmetry_cell_setting 'orthorhombic'
loop_
_space_group_symop_operation_xyz
x,y,z
-x,1/2-y,z
x,-y,-z
-x,1/2+y,-z
-x,-y,-z
x,1/2+y,-z
-x,y,z
x,1/2-y,z
1/2+x,1/2+y,1/2+z
1/2-x,-y,1/2+z
1/2+x,1/2-y,1/2-z
1/2-x,y,1/2-z
1/2-x,1/2-y,1/2-z
1/2+x,y,1/2-z
1/2-x,1/2+y,1/2+z
1/2+x,-y,1/2+z
loop_
_atom_site_type_symbol
_atom_site_label
_atom_site_fract_x
_atom_site_fract_y
_atom_site_fract_z
Si Si1 0.804412 0.019445 0.823759
Si Si2 0.000000 0.889905 0.214511
Si Si3 0.500000 0.250000 0.209080
Si Si4 0.174655 0.250000 0.192759
Si Si5 0.180978 0.103899 0.557246
Si Si6 0.000000 0.981490 0.366924
O O1 0.750000 0.033137 0.750000
O O2 0.756284 0.108395 0.880838
O O3 0.909731 0.047710 0.814892
O O4 0.808330 0.875485 0.853776
O O5 0.000000 0.750000 0.185401
O O6 0.000000 0.890666 0.299415
O O7 0.582433 0.250000 0.263114
O O8 0.500000 0.372251 0.158048
O O9 0.250000 0.250000 0.250000
O O10 0.171014 0.250000 0.529132
O O11 0.086766 0.049900 0.586184
O O12 0.213692 0.000000 0.500000
#
# Coordination Sequence:
#
# PCOD8298081 Si02
#       6
#    16   8   4   8  16   8
#     4  11  22  40  67  97 129 170 221 277 326 393
#     4  12  22  37  65 100 131 164 214 286 332 380
#     4  12  20  38  66 106 134 168 210 270 342 390
#     4  10  18  34  58  94 128 162 208 260 330 375
#     4  12  28  46  66  96 136 181 223 270 337 403
#     4  12  23  40  68  98 136 171 219 271 331 402
#
# _framework density 20.43591
#
# number of rings (size 3 to 8) (size 9 to 14) (size 15 to 20)
#    0.000    0.533    5.333    4.000    3.733    1.067 
#    0.000    0.667    0.000    0.000    0.000    0.000 
#    0.000    0.000    0.000    0.000    0.000    0.000 
#
# Total GULP energy -371737.422696 kJ/mol
# GULP energy per Si atom -12391.247423 kJ/mol
# Density = 2.038940 g / cm^3
# Si number density = 20.435910 Si / 1000 Ang^3
#
#
#
# Elastic Constant Matrix: (Units=GPa)
#
#
# Indices 1 2 3 4 5 6 
#
# 1 139.7593 10.0736 23.4039 0.0000 0.0000 0.0000
# 2 10.0736 144.5717 20.2399 0.0000 0.0000 0.0000
# 3 23.4039 20.2399 67.6827 0.0000 0.0000 0.0000
# 4 0.0000 0.0000 0.0000 34.7443 0.0000 0.0000
# 5 0.0000 0.0000 0.0000 0.0000 -44.0789 0.0000
# 6 0.0000 0.0000 0.0000 0.0000 0.0000 -20.0236
#
#
#
# Elastic Compliance Matrix: (Units=1/GPa)
#
#
# Indices 1 2 3 4 5 6 
#
# 1 0.007599 -0.000169 -0.002577 0.000000 0.000000 0.000000
# 2 -0.000169 0.007223 -0.002102 0.000000 0.000000 0.000000
# 3 -0.002577 -0.002102 0.016294 0.000000 0.000000 0.000000
# 4 0.000000 0.000000 0.000000 0.028782 0.000000 0.000000
# 5 0.000000 0.000000 0.000000 0.000000 -0.022687 0.000000
# 6 0.000000 0.000000 0.000000 0.000000 0.000000 -0.049941
#
#
# Mechanical properties :
#
#
# Convention : Reuss Voigt Hill
#
# Bulk Modulus (GPa) = 46.68241 51.04984 48.86613
# Shear Modulus (GPa) = 1217.76045 14.01476 615.88761
#
# Velocity S-wave (km/s) = 24.43739 2.62160 17.37899
# Velocity P-wave (km/s) = 28.62064 5.84794 20.65599
#
# Compressibility (1/GPa) = 0.02142134
#
# Stress axis : x y z
#
# Youngs Moduli (GPa) = 131.59828 138.44729 61.37056
#
# Poissons Ratio (x) = 0.02335 0.15816
# Poissons Ratio (y) = 0.02220 0.12898
# Poissons Ratio (z) = 0.33915 0.29097
#
# Static dielectric constant tensor:
#      x y z
#    x 3.813530 0.000000 0.000000 
#    y 0.000000 4.123010 0.000000 
#    z 0.000000 0.000000 3.413510 
# 
# 
# High freq. dielectric constant tensor:
#      x y z
#    x 1.816920 0.000000 0.000000 
#    y 0.000000 1.826430 0.000000 
#    z 0.000000 0.000000 1.757350 
# 
# From -- ./inp_files/40651.got.cif
#   From: 2010.03.12/outbox.cif.g09.slc.cpg/sg74_21_cif.got.tgz:40651.got - 2010.04.16 15:46:19.
