data_PCOD8298297
_publ_section_title
;
Structure prediction by ZEFSAII (Michael W. Deem and Ramdas Pophale) SiO2 
 PCOD8298297
Probable space group: I M M A
;
_chemical_formula_sum "Si O2"
_cell_formula_units_Z 104
_cell_length_a 21.929308
_cell_length_b 9.008238
_cell_length_c 29.814446
_cell_angle_alpha 90.000000
_cell_angle_beta 90.000000
_cell_angle_gamma 90.000000
_cell_volume 5889.677611
_symmetry_space_group_name_H-M "I M M A"
_symmetry_group_IT_number 74
_symmetry_cell_setting 'orthorhombic'
loop_
_space_group_symop_operation_xyz
x,y,z
-x,1/2-y,z
x,-y,-z
-x,1/2+y,-z
-x,-y,-z
x,1/2+y,-z
-x,y,z
x,1/2-y,z
1/2+x,1/2+y,1/2+z
1/2-x,-y,1/2+z
1/2+x,1/2-y,1/2-z
1/2-x,y,1/2-z
1/2-x,1/2-y,1/2-z
1/2+x,y,1/2-z
1/2-x,1/2+y,1/2+z
1/2+x,-y,1/2+z
loop_
_atom_site_type_symbol
_atom_site_label
_atom_site_fract_x
_atom_site_fract_y
_atom_site_fract_z
Si Si1 0.429275 0.575887 0.804364
Si Si2 0.000000 0.575942 0.452233
Si Si3 0.359386 0.925298 0.453704
Si Si4 0.220572 0.422343 0.545090
Si Si5 0.427498 0.082363 0.714676
Si Si6 0.887157 0.924041 0.391428
Si Si7 0.072430 0.419447 0.125989
O O1 0.500000 0.536004 0.812444
O O2 0.419283 0.750000 0.798921
O O3 0.404023 0.497517 0.759605
O O4 0.390333 0.515345 0.845672
O O5 0.000000 0.500000 0.500000
O O6 0.059313 0.524946 0.424762
O O7 0.000000 0.750000 0.460577
O O8 0.368631 0.750000 0.457644
O O9 0.289484 0.968771 0.442749
O O10 0.380298 0.000000 0.500000
O O11 0.401706 0.987491 0.414988
O O12 0.197334 0.500000 0.500000
O O13 0.215545 0.250000 0.534845
O O14 0.177331 0.466615 0.586349
O O15 0.500000 0.082311 0.714135
O O16 0.401870 0.250000 0.713029
O O17 0.402703 0.992062 0.671887
O O18 0.892757 0.750000 0.380394
O O19 0.095286 0.250000 0.123693
O O20 0.000000 0.428007 0.123751
#
# Coordination Sequence:
#
# PCOD8298297 Si02
#       7
#    16   8  16  16  16  16  16
#     4  10  19  30  46  71 101 132 168 210 253 298
#     4  10  20  30  44  66  96 130 164 206 257 306
#     4  10  20  35  54  76 102 134 170 206 246 293
#     4   9  19  34  52  72  96 129 171 213 250 296
#     4   9  17  30  50  74 101 134 166 199 243 298
#     4  10  19  32  48  69  97 131 169 210 256 303
#     4  10  20  34  53  79 108 134 162 199 244 294
#
# _framework density 17.658010999999998
#
# number of rings (size 3 to 8) (size 9 to 14) (size 15 to 20)
#    0.000    2.308    0.769    2.308    0.000    5.538 
#    0.000    0.000    0.000    0.923    0.000    6.462 
#    0.000    0.000    0.000    0.000    0.000    0.000 
#
# Total GULP energy -644936.936687 kJ/mol
# GULP energy per Si atom -12402.633398 kJ/mol
# Density = 1.761782 g / cm^3
# Si number density = 17.658011 Si / 1000 Ang^3
#
#
#
# Elastic Constant Matrix: (Units=GPa)
#
#
# Indices 1 2 3 4 5 6 
#
# 1 30.1898 25.3072 33.9441 0.0000 0.0000 0.0000
# 2 25.3072 96.0742 67.1418 0.0000 0.0000 0.0000
# 3 33.9441 67.1418 155.3943 0.0000 0.0000 0.0000
# 4 0.0000 0.0000 0.0000 41.3723 0.0000 0.0000
# 5 0.0000 0.0000 0.0000 0.0000 19.8711 0.0000
# 6 0.0000 0.0000 0.0000 0.0000 0.0000 17.0473
#
#
#
# Elastic Compliance Matrix: (Units=1/GPa)
#
#
# Indices 1 2 3 4 5 6 
#
# 1 0.047423 -0.007525 -0.007108 0.000000 0.000000 0.000000
# 2 -0.007525 0.016105 -0.005315 0.000000 0.000000 0.000000
# 3 -0.007108 -0.005315 0.010284 0.000000 0.000000 0.000000
# 4 0.000000 0.000000 0.000000 0.024171 0.000000 0.000000
# 5 0.000000 0.000000 0.000000 0.000000 0.050324 0.000000
# 6 0.000000 0.000000 0.000000 0.000000 0.000000 0.058660
#
#
# Mechanical properties :
#
#
# Convention : Reuss Voigt Hill
#
# Bulk Modulus (GPa) = 29.48300 59.38270 44.43285
# Shear Modulus (GPa) = 19.36720 26.00915 22.68818
#
# Velocity S-wave (km/s) = 3.31538 3.84205 3.58839
# Velocity P-wave (km/s) = 5.60255 7.30645 6.51048
#
# Compressibility (1/GPa) = 0.03391785
#
# Stress axis : x y z
#
# Youngs Moduli (GPa) = 21.08677 62.09242 97.23551
#
# Poissons Ratio (x) = 0.46721 0.69114
# Poissons Ratio (y) = 0.15867 0.51680
# Poissons Ratio (z) = 0.14988 0.33002
#
# Static dielectric constant tensor:
#      x y z
#    x 3.098340 0.000000 0.000000 
#    y 0.000000 3.375270 0.000000 
#    z 0.000000 0.000000 3.358980 
# 
# 
# High freq. dielectric constant tensor:
#      x y z
#    x 1.648070 0.000000 0.000000 
#    y 0.000000 1.693320 0.000000 
#    z 0.000000 0.000000 1.692360 
# 
# From -- ./inp_files/68641.got.cif
#   From: 2010.03.12/outbox.cif.g09.slc.cpg/sg74_35_cif.got.tgz:68641.got - 2010.04.16 15:46:19.
