data_PCOD8298673
_publ_section_title
;
Structure prediction by ZEFSAII (Michael W. Deem and Ramdas Pophale) SiO2 
 PCOD8298673
Probable space group: I M M A
;
_chemical_formula_sum "Si O2"
_cell_formula_units_Z 112
_cell_length_a 28.710220
_cell_length_b 17.108808
_cell_length_c 11.571545
_cell_angle_alpha 90.000000
_cell_angle_beta 90.000000
_cell_angle_gamma 90.000000
_cell_volume 5683.915614
_symmetry_space_group_name_H-M "I M M A"
_symmetry_group_IT_number 74
_symmetry_cell_setting 'orthorhombic'
loop_
_space_group_symop_operation_xyz
x,y,z
-x,1/2-y,z
x,-y,-z
-x,1/2+y,-z
-x,-y,-z
x,1/2+y,-z
-x,y,z
x,1/2-y,z
1/2+x,1/2+y,1/2+z
1/2-x,-y,1/2+z
1/2+x,1/2-y,1/2-z
1/2-x,y,1/2-z
1/2-x,1/2-y,1/2-z
1/2+x,y,1/2-z
1/2-x,1/2+y,1/2+z
1/2+x,-y,1/2+z
loop_
_atom_site_type_symbol
_atom_site_label
_atom_site_fract_x
_atom_site_fract_y
_atom_site_fract_z
Si Si1 0.449516 0.658292 0.779200
Si Si2 0.143675 0.842082 0.830112
Si Si3 0.781576 0.605215 0.409689
Si Si4 0.708015 0.931357 0.833595
Si Si5 0.369236 0.662547 0.201137
Si Si6 0.320957 0.843034 0.420794
Si Si7 0.052616 0.657249 0.463842
O O1 0.500000 0.624919 0.738982
O O2 0.453829 0.750000 0.797403
O O3 0.411564 0.640438 0.679999
O O4 0.436774 0.624303 0.907056
O O5 0.154771 0.750000 0.812766
O O6 0.163285 0.893561 0.725743
O O7 0.163470 0.872726 0.952696
O O8 0.782342 0.611912 0.547186
O O9 0.798231 0.522848 0.357210
O O10 0.819350 0.666522 0.364057
O O11 0.728137 0.622209 0.375300
O O12 0.750000 0.911852 0.750000
O O13 0.386782 0.750000 0.220620
O O14 0.359964 0.626368 0.329198
O O15 0.409704 0.619069 0.126313
O O16 0.316888 0.750000 0.419795
O O17 0.058981 0.750000 0.462892
O O18 0.000000 0.634051 0.426177
#
# Coordination Sequence:
#
# PCOD8298673 Si02
#       7
#    16  16  16  16  16  16  16
#     4   8  14  27  49  76 104 134 170 217 271 320
#     4  10  20  34  53  78 107 139 178 221 268 316
#     4  11  22  35  52  72 102 137 176 215 261 317
#     4  11  22  36  51  73 102 135 175 214 261 313
#     4  10  19  32  51  74  99 134 178 215 257 311
#     4  10  20  34  51  74 107 141 173 217 265 313
#     4   8  14  26  46  72 100 129 167 217 267 311
#
# _framework density 19.704726000000001
#
# number of rings (size 3 to 8) (size 9 to 14) (size 15 to 20)
#    0.000    2.286    1.429    3.429    0.000    3.714 
#    0.000    0.714    0.000    5.143    0.000    4.000 
#    0.000    3.429    0.000    0.000    0.000    0.000 
#
# Total GULP energy -693864.982438 kJ/mol
# GULP energy per Si atom -12390.446115 kJ/mol
# Density = 1.965988 g / cm^3
# Si number density = 19.704726 Si / 1000 Ang^3
#
#
#
# Elastic Constant Matrix: (Units=GPa)
#
#
# Indices 1 2 3 4 5 6 
#
# 1 131.0769 10.5439 51.1036 0.0000 0.0000 0.0000
# 2 10.5439 22.9507 16.9748 0.0000 0.0000 0.0000
# 3 51.1036 16.9748 89.2978 0.0000 0.0000 0.0000
# 4 0.0000 0.0000 0.0000 17.3187 0.0000 0.0000
# 5 0.0000 0.0000 0.0000 0.0000 35.6245 0.0000
# 6 0.0000 0.0000 0.0000 0.0000 0.0000 6.2673
#
#
#
# Elastic Compliance Matrix: (Units=1/GPa)
#
#
# Indices 1 2 3 4 5 6 
#
# 1 0.009824 -0.000413 -0.005543 0.000000 0.000000 0.000000
# 2 -0.000413 0.050717 -0.009405 0.000000 0.000000 0.000000
# 3 -0.005543 -0.009405 0.016159 0.000000 0.000000 0.000000
# 4 0.000000 0.000000 0.000000 0.057741 0.000000 0.000000
# 5 0.000000 0.000000 0.000000 0.000000 0.028071 0.000000
# 6 0.000000 0.000000 0.000000 0.000000 0.000000 0.159559
#
#
# Mechanical properties :
#
#
# Convention : Reuss Voigt Hill
#
# Bulk Modulus (GPa) = 21.74978 44.50777 33.12877
# Shear Modulus (GPa) = 13.58262 22.82231 18.20246
#
# Velocity S-wave (km/s) = 2.62832 3.40695 3.04264
# Velocity P-wave (km/s) = 4.50250 6.17356 5.40302
#
# Compressibility (1/GPa) = 0.04597748
#
# Stress axis : x y z
#
# Youngs Moduli (GPa) = 101.79623 19.71713 61.88666
#
# Poissons Ratio (x) = 0.00815 0.34306
# Poissons Ratio (y) = 0.04205 0.58202
# Poissons Ratio (z) = 0.56429 0.18543
#
# Static dielectric constant tensor:
#      x y z
#    x 3.837710 0.000000 0.000000 
#    y 0.000000 3.106540 0.000000 
#    z 0.000000 0.000000 3.860600 
# 
# 
# High freq. dielectric constant tensor:
#      x y z
#    x 1.767630 0.000000 0.000000 
#    y 0.000000 1.719440 0.000000 
#    z 0.000000 0.000000 1.775300 
# 
# From -- ./inp_files/26468.got.cif
#   From: 2010.03.12/outbox.cif.g09.slc.cpg/sg74_14_cif.got.tgz:26468.got - 2010.04.16 15:46:19.
