data_PCOD8298199
_publ_section_title
;
Structure prediction by ZEFSAII (Michael W. Deem and Ramdas Pophale) SiO2 
 PCOD8298199
Probable space group: I M M A
;
_chemical_formula_sum "Si O2"
_cell_formula_units_Z 96
_cell_length_a 14.976363
_cell_length_b 18.471976
_cell_length_c 21.706522
_cell_angle_alpha 90.000000
_cell_angle_beta 90.000000
_cell_angle_gamma 90.000000
_cell_volume 6004.957754
_symmetry_space_group_name_H-M "I M M A"
_symmetry_group_IT_number 74
_symmetry_cell_setting 'orthorhombic'
loop_
_space_group_symop_operation_xyz
x,y,z
-x,1/2-y,z
x,-y,-z
-x,1/2+y,-z
-x,-y,-z
x,1/2+y,-z
-x,y,z
x,1/2-y,z
1/2+x,1/2+y,1/2+z
1/2-x,-y,1/2+z
1/2+x,1/2-y,1/2-z
1/2-x,y,1/2-z
1/2-x,1/2-y,1/2-z
1/2+x,y,1/2-z
1/2-x,1/2+y,1/2+z
1/2+x,-y,1/2+z
loop_
_atom_site_type_symbol
_atom_site_label
_atom_site_fract_x
_atom_site_fract_y
_atom_site_fract_z
Si Si1 0.605235 0.750000 0.788120
Si Si2 0.602161 0.595194 0.078206
Si Si3 0.770438 0.000000 0.500000
Si Si4 0.103186 0.250000 0.542592
Si Si5 0.899495 0.530447 0.662768
Si Si6 0.768654 0.597400 0.895555
Si Si7 0.602119 0.894117 0.716309
Si Si8 0.709457 0.750000 0.916356
O O1 0.500000 0.750000 0.799921
O O2 0.635208 0.820149 0.748880
O O3 0.652454 0.750000 0.853820
O O4 0.500000 0.586756 0.055723
O O5 0.666039 0.561537 0.027288
O O6 0.615681 0.553605 0.143575
O O7 0.628320 0.679800 0.083898
O O8 0.707773 0.959733 0.550116
O O9 0.149793 0.250000 0.476745
O O10 0.000000 0.250000 0.526226
O O11 0.833007 0.582338 0.625549
O O12 0.885467 0.539559 0.735801
O O13 0.000000 0.556211 0.645398
O O14 0.838684 0.584591 0.841534
O O15 0.773928 0.680052 0.918229
O O16 0.500000 0.885918 0.694505
#
# Coordination Sequence:
#
# PCOD8298199 Si02
#       8
#     8  16   8   8  16  16  16   8
#     4  10  20  31  44  68 102 130 157 191 223 271
#     4   9  17  29  44  65  94 127 156 188 223 273
#     4  10  19  32  43  66  92 122 162 194 234 274
#     4  10  19  29  43  67 100 134 161 180 217 276
#     4   9  18  30  47  69  96 124 153 188 231 278
#     4  11  21  31  49  68  94 127 160 195 232 276
#     4  10  20  34  48  68  94 125 161 198 236 272
#     4  12  20  28  44  69 101 127 164 181 225 269
#
# _framework density 15.986789999999999
#
# number of rings (size 3 to 8) (size 9 to 14) (size 15 to 20)
#    0.000    2.000    3.333    1.500    0.000    2.000 
#    0.000    0.417    0.000    0.000    0.000   10.500 
#    0.000    0.000    0.000    0.000    0.000    0.000 
#
# Total GULP energy -595009.341029 kJ/mol
# GULP energy per Si atom -12396.027938 kJ/mol
# Density = 1.595040 g / cm^3
# Si number density = 15.986790 Si / 1000 Ang^3
#
#
#
# Elastic Constant Matrix: (Units=GPa)
#
#
# Indices 1 2 3 4 5 6 
#
# 1 40.8596 30.9555 39.2465 0.0000 0.0000 0.0000
# 2 30.9555 122.1032 66.1689 0.0000 0.0000 0.0000
# 3 39.2465 66.1689 102.6830 0.0000 0.0000 0.0000
# 4 0.0000 0.0000 0.0000 28.5247 0.0000 0.0000
# 5 0.0000 0.0000 0.0000 0.0000 25.1269 0.0000
# 6 0.0000 0.0000 0.0000 0.0000 0.0000 11.0782
#
#
#
# Elastic Compliance Matrix: (Units=1/GPa)
#
#
# Indices 1 2 3 4 5 6 
#
# 1 0.039285 -0.002801 -0.013210 0.000000 0.000000 0.000000
# 2 -0.002801 0.012784 -0.007168 0.000000 0.000000 0.000000
# 3 -0.013210 -0.007168 0.019407 0.000000 0.000000 0.000000
# 4 0.000000 0.000000 0.000000 0.035057 0.000000 0.000000
# 5 0.000000 0.000000 0.000000 0.000000 0.039798 0.000000
# 6 0.000000 0.000000 0.000000 0.000000 0.000000 0.090267
#
#
# Mechanical properties :
#
#
# Convention : Reuss Voigt Hill
#
# Bulk Modulus (GPa) = 39.81167 59.82083 49.81625
# Shear Modulus (GPa) = 17.16284 21.56430 19.36357
#
# Velocity S-wave (km/s) = 3.28008 3.67670 3.48404
# Velocity P-wave (km/s) = 6.26914 7.45146 6.88573
#
# Compressibility (1/GPa) = 0.02511826
#
# Stress axis : x y z
#
# Youngs Moduli (GPa) = 25.45529 78.22297 51.52896
#
# Poissons Ratio (x) = 0.21907 0.68071
# Poissons Ratio (y) = 0.07129 0.36934
# Poissons Ratio (z) = 0.33627 0.56067
#
# Static dielectric constant tensor:
#      x y z
#    x 2.794080 0.000000 0.000000 
#    y 0.000000 3.343180 0.000000 
#    z 0.000000 0.000000 2.971660 
# 
# 
# High freq. dielectric constant tensor:
#      x y z
#    x 1.587840 0.000000 0.000000 
#    y 0.000000 1.616610 0.000000 
#    z 0.000000 0.000000 1.597130 
# 
# From -- ./inp_files/60078.got.cif
#   From: 2010.03.12/outbox.cif.g09.slc.cpg/sg74_31_cif.got.tgz:60078.got - 2010.04.16 15:46:19.
