data_PCOD8298292
_publ_section_title
;
Structure prediction by ZEFSAII (Michael W. Deem and Ramdas Pophale) SiO2 
 PCOD8298292
Probable space group: I M M A
;
_chemical_formula_sum "Si O2"
_cell_formula_units_Z 112
_cell_length_a 14.438166
_cell_length_b 14.953213
_cell_length_c 29.713104
_cell_angle_alpha 90.000000
_cell_angle_beta 90.000000
_cell_angle_gamma 90.000000
_cell_volume 6414.969168
_symmetry_space_group_name_H-M "I M M A"
_symmetry_group_IT_number 74
_symmetry_cell_setting 'orthorhombic'
loop_
_space_group_symop_operation_xyz
x,y,z
-x,1/2-y,z
x,-y,-z
-x,1/2+y,-z
-x,-y,-z
x,1/2+y,-z
-x,y,z
x,1/2-y,z
1/2+x,1/2+y,1/2+z
1/2-x,-y,1/2+z
1/2+x,1/2-y,1/2-z
1/2-x,y,1/2-z
1/2-x,1/2-y,1/2-z
1/2+x,y,1/2-z
1/2-x,1/2+y,1/2+z
1/2+x,-y,1/2+z
loop_
_atom_site_type_symbol
_atom_site_label
_atom_site_fract_x
_atom_site_fract_y
_atom_site_fract_z
Si Si1 0.895696 0.355795 0.470337
Si Si2 0.393491 0.351362 0.600192
Si Si3 0.236892 0.147725 0.197216
Si Si4 0.397762 0.355680 0.130789
Si Si5 0.896148 0.152765 0.068032
Si Si6 0.392926 0.528069 0.646685
Si Si7 0.213153 0.598094 0.012131
O O1 0.890946 0.250000 0.473966
O O2 0.867534 0.387082 0.419518
O O3 0.824873 0.397260 0.506995
O O4 0.000000 0.388800 0.481662
O O5 0.500000 0.364486 0.583248
O O6 0.378846 0.250000 0.618033
O O7 0.373506 0.421716 0.640748
O O8 0.320412 0.370901 0.560894
O O9 0.210745 0.250000 0.182943
O O10 0.250000 0.144475 0.250000
O O11 0.326463 0.113353 0.169325
O O12 0.157927 0.073968 0.188449
O O13 0.500000 0.394992 0.142177
O O14 0.404397 0.250000 0.130560
O O15 0.894244 0.250000 0.092116
O O16 0.856631 0.078557 0.101896
O O17 0.000000 0.127222 0.052833
O O18 0.832258 0.162976 0.024443
O O19 0.500000 0.547948 0.654403
O O20 0.176099 0.500000 0.000000
#
# Coordination Sequence:
#
# PCOD8298292 Si02
#       7
#    16  16  16  16  16  16  16
#     4   9  18  32  48  65  89 126 171 213 248 286
#     4  10  21  36  52  71  99 135 173 211 250 295
#     4  10  20  32  50  78 108 133 157 192 244 307
#     4   8  15  29  48  67  91 127 166 198 232 283
#     4  10  19  30  46  69  99 134 168 201 241 294
#     4  10  20  34  51  73 102 133 168 204 244 298
#     4  12  21  29  46  70  99 133 169 214 256 295
#
# _framework density 17.459164000000001
#
# number of rings (size 3 to 8) (size 9 to 14) (size 15 to 20)
#    0.000    2.143    1.429    3.857    0.000    4.571 
#    0.000    1.429    0.000    0.429    0.000    0.000 
#    0.000    0.000    0.000    0.000    0.000    0.000 
#
# Total GULP energy -694037.558887 kJ/mol
# GULP energy per Si atom -12393.527837 kJ/mol
# Density = 1.741943 g / cm^3
# Si number density = 17.459164 Si / 1000 Ang^3
#
#
#
# Elastic Constant Matrix: (Units=GPa)
#
#
# Indices 1 2 3 4 5 6 
#
# 1 87.9477 30.8686 42.0087 0.0000 0.0000 0.0000
# 2 30.8686 99.5016 27.7442 0.0000 0.0000 0.0000
# 3 42.0087 27.7442 59.2129 0.0000 0.0000 0.0000
# 4 0.0000 0.0000 0.0000 19.0171 0.0000 0.0000
# 5 0.0000 0.0000 0.0000 0.0000 20.4596 0.0000
# 6 0.0000 0.0000 0.0000 0.0000 0.0000 19.5241
#
#
#
# Elastic Compliance Matrix: (Units=1/GPa)
#
#
# Indices 1 2 3 4 5 6 
#
# 1 0.017637 -0.002281 -0.011444 0.000000 0.000000 0.000000
# 2 -0.002281 0.011855 -0.003937 0.000000 0.000000 0.000000
# 3 -0.011444 -0.003937 0.026852 0.000000 0.000000 0.000000
# 4 0.000000 0.000000 0.000000 0.052584 0.000000 0.000000
# 5 0.000000 0.000000 0.000000 0.000000 0.048877 0.000000
# 6 0.000000 0.000000 0.000000 0.000000 0.000000 0.051219
#
#
# Mechanical properties :
#
#
# Convention : Reuss Voigt Hill
#
# Bulk Modulus (GPa) = 47.57103 49.76727 48.66915
# Shear Modulus (GPa) = 19.89219 21.53619 20.71419
#
# Velocity S-wave (km/s) = 3.37910 3.51596 3.44821
# Velocity P-wave (km/s) = 6.52155 6.71189 6.61740
#
# Compressibility (1/GPa) = 0.02102120
#
# Stress axis : x y z
#
# Youngs Moduli (GPa) = 56.69813 84.35029 37.24129
#
# Poissons Ratio (x) = 0.19237 0.42620
# Poissons Ratio (y) = 0.12931 0.14661
# Poissons Ratio (z) = 0.64886 0.33207
#
# Static dielectric constant tensor:
#      x y z
#    x 3.517150 0.000000 0.000000 
#    y 0.000000 3.245870 0.000000 
#    z 0.000000 0.000000 2.926880 
# 
# 
# High freq. dielectric constant tensor:
#      x y z
#    x 1.680250 0.000000 0.000000 
#    y 0.000000 1.659360 0.000000 
#    z 0.000000 0.000000 1.631350 
# 
# From -- ./inp_files/67151.got.cif
#   From: 2010.03.12/outbox.cif.g09.slc.cpg/sg74_34_cif.got.tgz:67151.got - 2010.04.16 15:46:19.
