data_PCOD8298021
_publ_section_title
;
Structure prediction by ZEFSAII (Michael W. Deem and Ramdas Pophale) SiO2 
 PCOD8298021
Probable space group: I M M A
;
_chemical_formula_sum "Si O2"
_cell_formula_units_Z 72
_cell_length_a 16.503551
_cell_length_b 27.350456
_cell_length_c 8.715981
_cell_angle_alpha 90.000000
_cell_angle_beta 90.000000
_cell_angle_gamma 90.000000
_cell_volume 3934.216414
_symmetry_space_group_name_H-M "I M M A"
_symmetry_group_IT_number 74
_symmetry_cell_setting 'orthorhombic'
loop_
_space_group_symop_operation_xyz
x,y,z
-x,1/2-y,z
x,-y,-z
-x,1/2+y,-z
-x,-y,-z
x,1/2+y,-z
-x,y,z
x,1/2-y,z
1/2+x,1/2+y,1/2+z
1/2-x,-y,1/2+z
1/2+x,1/2-y,1/2-z
1/2-x,y,1/2-z
1/2-x,1/2-y,1/2-z
1/2+x,y,1/2-z
1/2-x,1/2+y,1/2+z
1/2+x,-y,1/2+z
loop_
_atom_site_type_symbol
_atom_site_label
_atom_site_fract_x
_atom_site_fract_y
_atom_site_fract_z
Si Si1 0.411151 0.481729 0.745563
Si Si2 0.175311 0.327280 0.144002
Si Si3 0.245634 0.250000 0.565812
Si Si4 0.788002 0.500000 0.500000
Si Si5 0.406108 0.250000 0.149279
Si Si6 0.142483 0.433921 0.054967
O O1 0.500000 0.471290 0.815237
O O2 0.343582 0.474623 0.873500
O O3 0.411263 0.536805 0.678265
O O4 0.392190 0.442364 0.614454
O O5 0.250000 0.341576 0.250000
O O6 0.110756 0.297122 0.244498
O O7 0.134661 0.376794 0.086139
O O8 0.206970 0.297299 0.996951
O O9 0.250000 0.250000 0.750000
O O10 0.153021 0.250000 0.500245
O O11 0.733440 0.456144 0.431923
O O12 0.500000 0.250000 0.095387
#
# Coordination Sequence:
#
# PCOD8298021 Si02
#       6
#    16  16   8   8   8  16
#     4  10  20  32  47  72 103 133 165 210 259 297
#     4   9  18  34  55  76  99 134 175 210 252 310
#     4   9  19  35  55  78 103 134 168 209 260 314
#     4  10  19  32  49  72 100 136 176 208 245 300
#     4   9  19  35  56  80 105 132 168 211 258 310
#     4  10  18  33  53  72  95 133 176 209 242 297
#
# _framework density 18.300975000000001
#
# number of rings (size 3 to 8) (size 9 to 14) (size 15 to 20)
#    0.000    2.667    0.000    7.000    0.000    3.556 
#    0.000    2.222    0.000    9.333    0.000    0.000 
#    0.000    0.000    0.000    0.000    0.000    0.000 
#
# Total GULP energy -446250.556498 kJ/mol
# GULP energy per Si atom -12395.848792 kJ/mol
# Density = 1.825932 g / cm^3
# Si number density = 18.300975 Si / 1000 Ang^3
#
#
#
# Elastic Constant Matrix: (Units=GPa)
#
#
# Indices 1 2 3 4 5 6 
#
# 1 117.5193 20.2720 27.3130 0.0010 0.0043 0.0023
# 2 20.2720 132.5129 29.1094 0.0014 0.0085 0.0053
# 3 27.3130 29.1094 90.2790 0.0043 0.0191 0.0483
# 4 0.0010 0.0014 0.0043 15.3616 0.0152 0.0216
# 5 0.0043 0.0085 0.0191 0.0152 66.4785 0.1119
# 6 0.0023 0.0053 0.0483 0.0216 0.1119 -2.0360
#
#
#
# Elastic Compliance Matrix: (Units=1/GPa)
#
#
# Indices 1 2 3 4 5 6 
#
# 1 0.009243 -0.000861 -0.002519 0.000000 0.000000 -0.000052
# 2 -0.000861 0.008202 -0.002384 0.000000 0.000000 -0.000036
# 3 -0.002519 -0.002384 0.012607 -0.000004 -0.000004 0.000290
# 4 0.000000 0.000000 -0.000004 0.065097 -0.000016 0.000691
# 5 0.000000 0.000000 -0.000004 -0.000016 0.015041 0.000826
# 6 -0.000052 -0.000036 0.000290 0.000691 0.000826 -0.491105
#
#
# Mechanical properties :
#
#
# Convention : Reuss Voigt Hill
#
# Bulk Modulus (GPa) = 53.98131 54.85553 54.41842
# Shear Modulus (GPa) = -13.76604 33.53528 9.88462
#
# Velocity S-wave (km/s) = -2.74561 4.28534 2.32656
# Velocity P-wave (km/s) = 4.41693 7.38408 6.08416
#
# Compressibility (1/GPa) = 0.01852493
#
# Stress axis : x y z
#
# Youngs Moduli (GPa) = 108.18852 121.92384 79.31836
#
# Poissons Ratio (x) = 0.10494 0.19979
# Poissons Ratio (y) = 0.09312 0.18911
# Poissons Ratio (z) = 0.27251 0.29069
#
# Static dielectric constant tensor:
#      x y z
#    x 3.336130 0.000000 0.000000 
#    y 0.000000 3.182280 0.000000 
#    z 0.000000 0.000000 3.369580 
# 
# 
# High freq. dielectric constant tensor:
#      x y z
#    x 1.709460 0.000000 0.000000 
#    y 0.000000 1.692320 0.000000 
#    z 0.000000 0.000000 1.704070 
# 
# From -- ./inp_files/9361.got.cif
#   From: 2010.03.12/outbox.cif.g09.slc.cpg/sg74_5_cif.got.tgz:9361.got - 2010.04.16 15:46:19.
