data_PCOD8298475
_publ_section_title
;
Structure prediction by ZEFSAII (Michael W. Deem and Ramdas Pophale) SiO2 
 PCOD8298475
Probable space group: I M M A
;
_chemical_formula_sum "Si O2"
_cell_formula_units_Z 88
_cell_length_a 17.692385
_cell_length_b 12.648008
_cell_length_c 21.434044
_cell_angle_alpha 90.000000
_cell_angle_beta 90.000000
_cell_angle_gamma 90.000000
_cell_volume 4796.369481
_symmetry_space_group_name_H-M "I M M A"
_symmetry_group_IT_number 74
_symmetry_cell_setting 'orthorhombic'
loop_
_space_group_symop_operation_xyz
x,y,z
-x,1/2-y,z
x,-y,-z
-x,1/2+y,-z
-x,-y,-z
x,1/2+y,-z
-x,y,z
x,1/2-y,z
1/2+x,1/2+y,1/2+z
1/2-x,-y,1/2+z
1/2+x,1/2-y,1/2-z
1/2-x,y,1/2-z
1/2-x,1/2-y,1/2-z
1/2+x,y,1/2-z
1/2-x,1/2+y,1/2+z
1/2+x,-y,1/2+z
loop_
_atom_site_type_symbol
_atom_site_label
_atom_site_fract_x
_atom_site_fract_y
_atom_site_fract_z
Si Si1 0.919830 0.625652 0.906134
Si Si2 0.085039 0.131801 0.232215
Si Si3 0.646745 0.500000 0.000000
Si Si4 0.914556 0.129257 0.611499
Si Si5 0.756593 0.374393 0.081577
Si Si6 0.196383 0.008314 0.693872
O O1 0.929150 0.750000 0.898987
O O2 0.911262 0.578813 0.836276
O O3 0.842521 0.600086 0.943406
O O4 0.000000 0.582116 0.935881
O O5 0.117871 0.250000 0.229218
O O6 0.000000 0.130945 0.258018
O O7 0.134122 0.070518 0.281429
O O8 0.594460 0.447631 0.947750
O O9 0.699007 0.592674 0.972140
O O10 0.903145 0.250000 0.590242
O O11 0.849966 0.104914 0.662908
O O12 0.000000 0.112692 0.637836
O O13 0.746805 0.250000 0.096468
O O14 0.745324 0.443781 0.143643
O O15 0.250000 0.050504 0.750000
#
# Coordination Sequence:
#
# PCOD8298475 Si02
#       6
#    16  16   8  16  16  16
#     4   8  14  25  42  65  95 131 163 193 240 298
#     4   9  16  26  42  68 104 138 164 196 242 298
#     4  10  21  36  57  80  98 126 174 224 261 300
#     4  10  22  40  58  75 100 135 171 209 255 305
#     4  10  19  31  49  74 104 135 169 214 264 304
#     4  11  20  30  49  78 106 133 168 208 251 304
#
# _framework density 18.34721
#
# number of rings (size 3 to 8) (size 9 to 14) (size 15 to 20)
#    0.000    2.364    1.818    3.000    0.000    1.091 
#    0.000    0.455    0.000    8.727    0.000    0.000 
#    0.000    2.909    0.000    0.000    0.000    0.000 
#
# Total GULP energy -545130.036040 kJ/mol
# GULP energy per Si atom -12389.319001 kJ/mol
# Density = 1.830545 g / cm^3
# Si number density = 18.347210 Si / 1000 Ang^3
#
#
#
# Elastic Constant Matrix: (Units=GPa)
#
#
# Indices 1 2 3 4 5 6 
#
# 1 117.1525 44.2149 27.4711 0.0000 0.0000 0.0000
# 2 44.2149 64.4924 17.6972 0.0000 0.0000 0.0000
# 3 27.4711 17.6972 54.4488 0.0000 0.0000 0.0000
# 4 0.0000 0.0000 0.0000 18.4372 0.0000 0.0000
# 5 0.0000 0.0000 0.0000 0.0000 27.3688 0.0000
# 6 0.0000 0.0000 0.0000 0.0000 0.0000 37.9943
#
#
#
# Elastic Compliance Matrix: (Units=1/GPa)
#
#
# Indices 1 2 3 4 5 6 
#
# 1 0.012181 -0.007317 -0.003767 0.000000 0.000000 0.000000
# 2 -0.007317 0.021420 -0.003270 0.000000 0.000000 0.000000
# 3 -0.003767 -0.003270 0.021330 0.000000 0.000000 0.000000
# 4 0.000000 0.000000 0.000000 0.054238 0.000000 0.000000
# 5 0.000000 0.000000 0.000000 0.000000 0.036538 0.000000
# 6 0.000000 0.000000 0.000000 0.000000 0.000000 0.026320
#
#
# Mechanical properties :
#
#
# Convention : Reuss Voigt Hill
#
# Bulk Modulus (GPa) = 38.13800 46.09558 42.11679
# Shear Modulus (GPa) = 23.86914 26.54076 25.20495
#
# Velocity S-wave (km/s) = 3.61081 3.80752 3.71047
# Velocity P-wave (km/s) = 6.18190 6.67145 6.43133
#
# Compressibility (1/GPa) = 0.02622056
#
# Stress axis : x y z
#
# Youngs Moduli (GPa) = 82.09569 46.68618 46.88338
#
# Poissons Ratio (x) = 0.34161 0.17663
# Poissons Ratio (y) = 0.60071 0.15332
# Poissons Ratio (z) = 0.30928 0.15267
#
# Static dielectric constant tensor:
#      x y z
#    x 3.785680 0.000000 0.000000 
#    y 0.000000 3.048420 0.000000 
#    z 0.000000 0.000000 3.163930 
# 
# 
# High freq. dielectric constant tensor:
#      x y z
#    x 1.738890 0.000000 0.000000 
#    y 0.000000 1.676980 0.000000 
#    z 0.000000 0.000000 1.685050 
# 
# From -- ./inp_files/52863.got.cif
#   From: 2010.03.12/outbox.cif.g09.slc.cpg/sg74_27_cif.got.tgz:52863.got - 2010.04.16 15:46:19.
