data_PCOD8298740
_publ_section_title
;
Structure prediction by ZEFSAII (Michael W. Deem and Ramdas Pophale) SiO2 
 PCOD8298740
Probable space group: I M M A
;
_chemical_formula_sum "Si O2"
_cell_formula_units_Z 104
_cell_length_a 8.655541
_cell_length_b 20.278255
_cell_length_c 29.288853
_cell_angle_alpha 90.000000
_cell_angle_beta 90.000000
_cell_angle_gamma 90.000000
_cell_volume 5140.758026
_symmetry_space_group_name_H-M "I M M A"
_symmetry_group_IT_number 74
_symmetry_cell_setting 'orthorhombic'
loop_
_space_group_symop_operation_xyz
x,y,z
-x,1/2-y,z
x,-y,-z
-x,1/2+y,-z
-x,-y,-z
x,1/2+y,-z
-x,y,z
x,1/2-y,z
1/2+x,1/2+y,1/2+z
1/2-x,-y,1/2+z
1/2+x,1/2-y,1/2-z
1/2-x,y,1/2-z
1/2-x,1/2-y,1/2-z
1/2+x,y,1/2-z
1/2-x,1/2+y,1/2+z
1/2+x,-y,1/2+z
loop_
_atom_site_type_symbol
_atom_site_label
_atom_site_fract_x
_atom_site_fract_y
_atom_site_fract_z
Si Si1 0.316741 0.750000 0.801175
Si Si2 0.182452 0.125322 0.360482
Si Si3 0.683159 0.019420 0.297103
Si Si4 0.177489 0.675591 0.107106
Si Si5 0.679571 0.369249 0.704266
Si Si6 0.817029 0.431098 0.053327
Si Si7 0.319349 0.429154 0.956232
O O1 0.500000 0.750000 0.796600
O O2 0.250000 0.750000 0.750000
O O3 0.257958 0.813363 0.829913
O O4 0.236817 0.057649 0.338000
O O5 0.256340 0.124322 0.411162
O O6 0.000000 0.128303 0.365604
O O7 0.500000 0.029010 0.299107
O O8 0.750000 0.048765 0.250000
O O9 0.737349 0.944119 0.302662
O O10 0.197458 0.750000 0.089483
O O11 0.227037 0.672978 0.160201
O O12 0.290885 0.629247 0.079120
O O13 0.000000 0.651604 0.101570
O O14 0.500000 0.368999 0.712263
O O15 0.750000 0.337316 0.750000
O O16 0.745720 0.502848 0.064487
O O17 0.000000 0.436023 0.056359
O O18 0.766702 0.409415 0.002849
O O19 0.500000 0.437214 0.965921
#
# Coordination Sequence:
#
# PCOD8298740 Si02
#       7
#     8  16  16  16  16  16  16
#     4  10  24  42  60  82 118 162 204 250 299 358
#     4  11  22  38  58  85 116 152 196 246 299 354
#     4  10  19  32  52  80 112 148 191 242 296 348
#     4  10  21  38  58  82 116 158 199 237 283 342
#     4   9  19  34  53  79 112 148 189 237 285 333
#     4  11  22  39  64  91 118 150 189 239 297 357
#     4  11  22  39  63  91 120 152 191 241 296 352
#
# _framework density 20.230478000000002
#
# number of rings (size 3 to 8) (size 9 to 14) (size 15 to 20)
#    0.000    1.692    0.000    6.000    0.000    5.538 
#    1.385    0.000    0.000    0.000    0.000    0.000 
#    0.000    0.000    0.000    0.000    0.000    0.000 
#
# Total GULP energy -644913.762031 kJ/mol
# GULP energy per Si atom -12402.187731 kJ/mol
# Density = 2.018443 g / cm^3
# Si number density = 20.230478 Si / 1000 Ang^3
#
#
#
# Elastic Constant Matrix: (Units=GPa)
#
#
# Indices 1 2 3 4 5 6 
#
# 1 77.4760 30.2766 29.6910 0.0000 0.0000 0.0000
# 2 30.2766 72.4384 46.4786 0.0000 0.0000 0.0000
# 3 29.6910 46.4786 109.6132 0.0000 0.0000 0.0000
# 4 0.0000 0.0000 0.0000 30.6571 0.0000 0.0000
# 5 0.0000 0.0000 0.0000 0.0000 39.1346 0.0000
# 6 0.0000 0.0000 0.0000 0.0000 0.0000 22.1347
#
#
#
# Elastic Compliance Matrix: (Units=1/GPa)
#
#
# Indices 1 2 3 4 5 6 
#
# 1 0.015748 -0.005282 -0.002026 0.000000 0.000000 0.000000
# 2 -0.005282 0.020736 -0.007362 0.000000 0.000000 0.000000
# 3 -0.002026 -0.007362 0.012793 0.000000 0.000000 0.000000
# 4 0.000000 0.000000 0.000000 0.032619 0.000000 0.000000
# 5 0.000000 0.000000 0.000000 0.000000 0.025553 0.000000
# 6 0.000000 0.000000 0.000000 0.000000 0.000000 0.045178
#
#
# Mechanical properties :
#
#
# Convention : Reuss Voigt Hill
#
# Bulk Modulus (GPa) = 50.15654 52.49109 51.32382
# Shear Modulus (GPa) = 26.50940 28.59072 27.55006
#
# Velocity S-wave (km/s) = 3.62383 3.76340 3.69427
# Velocity P-wave (km/s) = 6.50814 6.69978 6.60466
#
# Compressibility (1/GPa) = 0.01993758
#
# Stress axis : x y z
#
# Youngs Moduli (GPa) = 63.50104 48.22501 78.16573
#
# Poissons Ratio (x) = 0.25473 0.15835
# Poissons Ratio (y) = 0.33542 0.57544
# Poissons Ratio (z) = 0.12864 0.35502
#
# Static dielectric constant tensor:
#      x y z
#    x 3.636610 0.000000 0.000000 
#    y 0.000000 3.620760 0.000000 
#    z 0.000000 0.000000 3.783670 
# 
# 
# High freq. dielectric constant tensor:
#      x y z
#    x 1.790610 0.000000 0.000000 
#    y 0.000000 1.775950 0.000000 
#    z 0.000000 0.000000 1.802220 
# 
# From -- ./inp_files/64481.got.cif
#   From: 2010.03.12/outbox.cif.g09.slc.cpg/sg74_33_cif.got.tgz:64481.got - 2010.04.16 15:46:19.
