data_PCOD8298653
_publ_section_title
;
Structure prediction by ZEFSAII (Michael W. Deem and Ramdas Pophale) SiO2 
 PCOD8298653
Probable space group: I M M A
;
_chemical_formula_sum "Si O2"
_cell_formula_units_Z 72
_cell_length_a 10.395021
_cell_length_b 16.870282
_cell_length_c 22.384431
_cell_angle_alpha 90.000000
_cell_angle_beta 90.000000
_cell_angle_gamma 90.000000
_cell_volume 3925.489071
_symmetry_space_group_name_H-M "I M M A"
_symmetry_group_IT_number 74
_symmetry_cell_setting 'orthorhombic'
loop_
_space_group_symop_operation_xyz
x,y,z
-x,1/2-y,z
x,-y,-z
-x,1/2+y,-z
-x,-y,-z
x,1/2+y,-z
-x,y,z
x,1/2-y,z
1/2+x,1/2+y,1/2+z
1/2-x,-y,1/2+z
1/2+x,1/2-y,1/2-z
1/2-x,y,1/2-z
1/2-x,1/2-y,1/2-z
1/2+x,y,1/2-z
1/2-x,1/2+y,1/2+z
1/2+x,-y,1/2+z
loop_
_atom_site_type_symbol
_atom_site_label
_atom_site_fract_x
_atom_site_fract_y
_atom_site_fract_z
Si Si1 0.650528 0.161487 0.148291
Si Si2 0.643231 0.155737 0.014717
Si Si3 0.250000 0.451367 0.250000
Si Si4 0.353861 0.156702 0.578350
Si Si5 0.358549 0.603369 0.290917
O O1 0.500000 0.165489 0.159632
O O2 0.709206 0.250000 0.156409
O O3 0.712054 0.102603 0.194961
O O4 0.679296 0.128488 0.081746
O O5 0.500000 0.124147 0.996789
O O6 0.640822 0.250000 0.013531
O O7 0.752375 0.122766 0.969996
O O8 0.363211 0.509718 0.273738
O O9 0.500000 0.137904 0.557314
O O10 0.335452 0.250000 0.587923
O O11 0.321038 0.113273 0.640095
O O12 0.500000 0.640372 0.278853
O O13 0.250000 0.647043 0.250000
#
# Coordination Sequence:
#
# PCOD8298653 Si02
#       5
#    16  16   8  16  16
#     4   9  17  31  52  76 100 127 163 206 247 289
#     4   8  15  29  50  76 100 123 158 204 247 288
#     4  10  19  32  51  68 102 132 166 196 247 292
#     4   9  17  32  52  74 101 130 161 202 248 291
#     4   9  20  34  50  71  99 133 167 202 243 289
#
# _framework density 18.341664000000002
#
# number of rings (size 3 to 8) (size 9 to 14) (size 15 to 20)
#    0.667    2.444    0.000    2.333    0.000    1.333 
#    0.000    3.333    0.000   10.667    0.000    0.000 
#    0.000    0.000    0.000    0.000    0.000    0.000 
#
# Total GULP energy -446012.436083 kJ/mol
# GULP energy per Si atom -12389.234336 kJ/mol
# Density = 1.829992 g / cm^3
# Si number density = 18.341664 Si / 1000 Ang^3
#
#
#
# Elastic Constant Matrix: (Units=GPa)
#
#
# Indices 1 2 3 4 5 6 
#
# 1 110.9690 19.2565 93.8691 0.0000 0.0000 0.0000
# 2 19.2565 23.1200 19.6660 0.0000 0.0000 0.0000
# 3 93.8691 19.6660 133.8559 0.0000 0.0000 0.0000
# 4 0.0000 0.0000 0.0000 -90.1824 0.0000 0.0000
# 5 0.0000 0.0000 0.0000 0.0000 32.1957 0.0000
# 6 0.0000 0.0000 0.0000 0.0000 0.0000 11.5508
#
#
#
# Elastic Compliance Matrix: (Units=1/GPa)
#
#
# Indices 1 2 3 4 5 6 
#
# 1 0.022902 -0.006187 -0.015151 0.000000 0.000000 0.000000
# 2 -0.006187 0.051101 -0.003169 0.000000 0.000000 0.000000
# 3 -0.015151 -0.003169 0.018561 0.000000 0.000000 0.000000
# 4 0.000000 0.000000 0.000000 -0.011089 0.000000 0.000000
# 5 0.000000 0.000000 0.000000 0.000000 0.031060 0.000000
# 6 0.000000 0.000000 0.000000 0.000000 0.000000 0.086574
#
#
# Mechanical properties :
#
#
# Convention : Reuss Voigt Hill
#
# Bulk Modulus (GPa) = 22.96220 59.28091 41.12156
# Shear Modulus (GPa) = 19.03738 -0.27696 9.38021
#
# Velocity S-wave (km/s) = 3.22519 -0.38901 2.26390
# Velocity P-wave (km/s) = 5.13960 5.67351 5.41314
#
# Compressibility (1/GPa) = 0.04354983
#
# Stress axis : x y z
#
# Youngs Moduli (GPa) = 43.66498 19.56903 53.87504
#
# Poissons Ratio (x) = 0.12107 0.81628
# Poissons Ratio (y) = 0.27015 0.17074
# Poissons Ratio (z) = 0.66158 0.06202
#
# Static dielectric constant tensor:
#      x y z
#    x 3.419500 0.000000 0.000000 
#    y 0.000000 3.381420 0.000000 
#    z 0.000000 0.000000 3.550260 
# 
# 
# High freq. dielectric constant tensor:
#      x y z
#    x 1.704980 0.000000 0.000000 
#    y 0.000000 1.678900 0.000000 
#    z 0.000000 0.000000 1.716150 
# 
# From -- ./inp_files/41087.got.cif
#   From: 2010.03.12/outbox.cif.g09.slc.cpg/sg74_21_cif.got.tgz:41087.got - 2010.04.16 15:46:19.
