data_PCOD8298665
_publ_section_title
;
Structure prediction by ZEFSAII (Michael W. Deem and Ramdas Pophale) SiO2 
 PCOD8298665
Probable space group: I M M A
;
_chemical_formula_sum "Si O2"
_cell_formula_units_Z 72
_cell_length_a 16.291171
_cell_length_b 9.029554
_cell_length_c 28.000857
_cell_angle_alpha 90.000000
_cell_angle_beta 90.000000
_cell_angle_gamma 90.000000
_cell_volume 4118.982298
_symmetry_space_group_name_H-M "I M M A"
_symmetry_group_IT_number 74
_symmetry_cell_setting 'orthorhombic'
loop_
_space_group_symop_operation_xyz
x,y,z
-x,1/2-y,z
x,-y,-z
-x,1/2+y,-z
-x,-y,-z
x,1/2+y,-z
-x,y,z
x,1/2-y,z
1/2+x,1/2+y,1/2+z
1/2-x,-y,1/2+z
1/2+x,1/2-y,1/2-z
1/2-x,y,1/2-z
1/2-x,1/2-y,1/2-z
1/2+x,y,1/2-z
1/2-x,1/2+y,1/2+z
1/2+x,-y,1/2+z
loop_
_atom_site_type_symbol
_atom_site_label
_atom_site_fract_x
_atom_site_fract_y
_atom_site_fract_z
Si Si1 0.167750 0.084379 0.219773
Si Si2 0.408434 0.080275 0.801949
Si Si3 0.321509 0.924494 0.551517
Si Si4 0.752789 0.424615 0.637998
Si Si5 0.500000 0.081002 0.451047
O O1 0.140995 0.250000 0.204380
O O2 0.250000 0.088515 0.250000
O O3 0.098127 0.013210 0.253179
O O4 0.181731 0.985689 0.172862
O O5 0.500000 0.057698 0.822945
O O6 0.391325 0.250000 0.787976
O O7 0.342801 0.031124 0.842006
O O8 0.303901 0.750000 0.546691
O O9 0.413037 0.955722 0.574706
O O10 0.312392 0.000000 0.500000
O O11 0.255358 0.997508 0.586726
O O12 0.741817 0.250000 0.632309
O O13 0.500000 0.250000 0.465652
O O14 0.500000 0.000000 0.500000
#
# Coordination Sequence:
#
# PCOD8298665 Si02
#       5
#    16  16  16  16   8
#     4   9  17  30  48  70  96 126 160 200 244 290
#     4   9  18  33  52  73  99 131 167 206 249 296
#     4  10  19  33  52  74 100 130 165 204 246 294
#     4  10  19  32  51  74 100 132 167 204 247 295
#     4   8  16  30  48  68  92 122 154 192 236 282
#
# _framework density 17.480046000000002
#
# number of rings (size 3 to 8) (size 9 to 14) (size 15 to 20)
#    0.000    2.667    0.000    2.000    0.000    4.889 
#    2.000    0.000    0.000    0.667    0.000    0.000 
#    0.000    0.000    0.000    0.000    0.000    0.000 
#
# Total GULP energy -446127.998902 kJ/mol
# GULP energy per Si atom -12392.444414 kJ/mol
# Density = 1.744026 g / cm^3
# Si number density = 17.480046 Si / 1000 Ang^3
#
#
#
# Elastic Constant Matrix: (Units=GPa)
#
#
# Indices 1 2 3 4 5 6 
#
# 1 88.7617 41.6086 50.2338 0.0000 0.0000 0.0000
# 2 41.6086 99.8790 53.0825 0.0000 0.0000 0.0000
# 3 50.2338 53.0825 101.9147 0.0000 0.0000 0.0000
# 4 0.0000 0.0000 0.0000 34.2236 0.0000 0.0000
# 5 0.0000 0.0000 0.0000 0.0000 20.9759 0.0000
# 6 0.0000 0.0000 0.0000 0.0000 0.0000 19.9801
#
#
#
# Elastic Compliance Matrix: (Units=1/GPa)
#
#
# Indices 1 2 3 4 5 6 
#
# 1 0.016475 -0.003523 -0.006286 0.000000 0.000000 0.000000
# 2 -0.003523 0.014598 -0.005867 0.000000 0.000000 0.000000
# 3 -0.006286 -0.005867 0.015966 0.000000 0.000000 0.000000
# 4 0.000000 0.000000 0.000000 0.029220 0.000000 0.000000
# 5 0.000000 0.000000 0.000000 0.000000 0.047674 0.000000
# 6 0.000000 0.000000 0.000000 0.000000 0.000000 0.050050
#
#
# Mechanical properties :
#
#
# Convention : Reuss Voigt Hill
#
# Bulk Modulus (GPa) = 63.74230 64.48945 64.11588
# Shear Modulus (GPa) = 23.74605 24.74463 24.24534
#
# Velocity S-wave (km/s) = 3.68974 3.76652 3.72832
# Velocity P-wave (km/s) = 7.39575 7.47588 7.43592
#
# Compressibility (1/GPa) = 0.01568817
#
# Stress axis : x y z
#
# Youngs Moduli (GPa) = 60.69923 68.50404 62.63255
#
# Poissons Ratio (x) = 0.24131 0.39369
# Poissons Ratio (y) = 0.21382 0.36746
# Poissons Ratio (z) = 0.38153 0.40191
#
# Static dielectric constant tensor:
#      x y z
#    x 3.538670 0.000000 0.000000 
#    y 0.000000 3.397220 0.000000 
#    z 0.000000 0.000000 3.030420 
# 
# 
# High freq. dielectric constant tensor:
#      x y z
#    x 1.659950 0.000000 0.000000 
#    y 0.000000 1.689510 0.000000 
#    z 0.000000 0.000000 1.652140 
# 
# From -- ./inp_files/56705.got.cif
#   From: 2010.03.12/outbox.cif.g09.slc.cpg/sg74_29_cif.got.tgz:56705.got - 2010.04.16 15:46:19.
