data_PCOD8298002
_publ_section_title
;
Structure prediction by ZEFSAII (Michael W. Deem and Ramdas Pophale) SiO2 
 PCOD8298002
Probable space group: I M M A
;
_chemical_formula_sum "Si O2"
_cell_formula_units_Z 72
_cell_length_a 20.398190
_cell_length_b 8.700096
_cell_length_c 19.702114
_cell_angle_alpha 90.000000
_cell_angle_beta 90.000000
_cell_angle_gamma 90.000000
_cell_volume 3496.459525
_symmetry_space_group_name_H-M "I M M A"
_symmetry_group_IT_number 74
_symmetry_cell_setting 'orthorhombic'
loop_
_space_group_symop_operation_xyz
x,y,z
-x,1/2-y,z
x,-y,-z
-x,1/2+y,-z
-x,-y,-z
x,1/2+y,-z
-x,y,z
x,1/2-y,z
1/2+x,1/2+y,1/2+z
1/2-x,-y,1/2+z
1/2+x,1/2-y,1/2-z
1/2-x,y,1/2-z
1/2-x,1/2-y,1/2-z
1/2+x,y,1/2-z
1/2-x,1/2+y,1/2+z
1/2+x,-y,1/2+z
loop_
_atom_site_type_symbol
_atom_site_label
_atom_site_fract_x
_atom_site_fract_y
_atom_site_fract_z
Si Si1 0.807973 0.067916 0.799899
Si Si2 0.364881 0.932589 0.574728
Si Si3 0.922665 0.582945 0.435477
Si Si4 0.500000 0.065955 0.574890
Si Si5 0.927683 0.933387 0.288507
O O1 0.804770 0.250000 0.811410
O O2 0.750000 0.013270 0.750000
O O3 0.874864 0.010291 0.765047
O O4 0.806751 0.984231 0.873462
O O5 0.369606 0.750000 0.569163
O O6 0.350325 0.000000 0.500000
O O7 0.432551 0.002003 0.607113
O O8 0.889888 0.500000 0.500000
O O9 0.889520 0.750000 0.433856
O O10 0.909420 0.498825 0.363300
O O11 0.000000 0.597581 0.446426
O O12 0.500000 0.250000 0.578369
O O13 0.500000 0.000000 0.500000
O O14 0.927968 0.750000 0.295117
O O15 0.000000 0.990075 0.265271
#
# Coordination Sequence:
#
# PCOD8298002 Si02
#       5
#    16  16  16   8  16
#     4  10  21  37  57  82 114 153 196 241 295 358
#     4  11  22  38  60  87 119 154 198 246 300 359
#     4   8  13  23  41  65  93 124 162 207 258 314
#     4  10  18  32  56  88 122 152 187 236 297 354
#     4   8  15  29  50  75 102 139 185 230 281 342
#
# _framework density 20.59226
#
# number of rings (size 3 to 8) (size 9 to 14) (size 15 to 20)
#    0.000    2.667    0.000    5.667    1.556    0.444 
#    0.000    2.222    0.000    4.000    0.000    0.000 
#    0.000    0.000    0.000    0.000    0.000    0.000 
#
# Total GULP energy -446008.220273 kJ/mol
# GULP energy per Si atom -12389.117230 kJ/mol
# Density = 2.054539 g / cm^3
# Si number density = 20.592260 Si / 1000 Ang^3
#
#
#
# Elastic Constant Matrix: (Units=GPa)
#
#
# Indices 1 2 3 4 5 6 
#
# 1 81.2638 30.4976 62.8857 0.0000 0.0000 0.0000
# 2 30.4976 101.7978 42.2040 0.0000 0.0000 0.0000
# 3 62.8857 42.2040 134.1759 0.0000 0.0000 0.0000
# 4 0.0000 0.0000 0.0000 30.5123 0.0000 0.0000
# 5 0.0000 0.0000 0.0000 0.0000 30.5269 0.0000
# 6 0.0000 0.0000 0.0000 0.0000 0.0000 17.1922
#
#
#
# Elastic Compliance Matrix: (Units=1/GPa)
#
#
# Indices 1 2 3 4 5 6 
#
# 1 0.019805 -0.002398 -0.008528 0.000000 0.000000 0.000000
# 2 -0.002398 0.011587 -0.002521 0.000000 0.000000 0.000000
# 3 -0.008528 -0.002521 0.012243 0.000000 0.000000 0.000000
# 4 0.000000 0.000000 0.000000 0.032774 0.000000 0.000000
# 5 0.000000 0.000000 0.000000 0.000000 0.032758 0.000000
# 6 0.000000 0.000000 0.000000 0.000000 0.000000 0.058166
#
#
# Mechanical properties :
#
#
# Convention : Reuss Voigt Hill
#
# Bulk Modulus (GPa) = 59.73227 65.37912 62.55569
# Shear Modulus (GPa) = 25.02440 27.75630 26.39035
#
# Velocity S-wave (km/s) = 3.48980 3.67536 3.58378
# Velocity P-wave (km/s) = 6.73115 7.05899 6.89702
#
# Compressibility (1/GPa) = 0.01674137
#
# Stress axis : x y z
#
# Youngs Moduli (GPa) = 50.49293 86.30497 81.68158
#
# Poissons Ratio (x) = 0.20694 0.69657
# Poissons Ratio (y) = 0.12107 0.20590
# Poissons Ratio (z) = 0.43060 0.21755
#
# Static dielectric constant tensor:
#      x y z
#    x 3.829980 0.000000 0.000000 
#    y 0.000000 3.575480 0.000000 
#    z 0.000000 0.000000 3.985930 
# 
# 
# High freq. dielectric constant tensor:
#      x y z
#    x 1.769390 0.000000 0.000000 
#    y 0.000000 1.769410 0.000000 
#    z 0.000000 0.000000 1.823930 
# 
# From -- ./inp_files/53655.got.cif
#   From: 2010.03.12/outbox.cif.g09.slc.cpg/sg74_27_cif.got.tgz:53655.got - 2010.04.16 15:46:19.
