data_PCOD8298206
_publ_section_title
;
Structure prediction by ZEFSAII (Michael W. Deem and Ramdas Pophale) SiO2 
 PCOD8298206
Probable space group: I M M A
;
_chemical_formula_sum "Si O2"
_cell_formula_units_Z 80
_cell_length_a 26.613236
_cell_length_b 13.839171
_cell_length_c 8.728911
_cell_angle_alpha 90.000000
_cell_angle_beta 90.000000
_cell_angle_gamma 90.000000
_cell_volume 3214.902647
_symmetry_space_group_name_H-M "I M M A"
_symmetry_group_IT_number 74
_symmetry_cell_setting 'orthorhombic'
loop_
_space_group_symop_operation_xyz
x,y,z
-x,1/2-y,z
x,-y,-z
-x,1/2+y,-z
-x,-y,-z
x,1/2+y,-z
-x,y,z
x,1/2-y,z
1/2+x,1/2+y,1/2+z
1/2-x,-y,1/2+z
1/2+x,1/2-y,1/2-z
1/2-x,y,1/2-z
1/2-x,1/2-y,1/2-z
1/2+x,y,1/2-z
1/2-x,1/2+y,1/2+z
1/2+x,-y,1/2+z
loop_
_atom_site_type_symbol
_atom_site_label
_atom_site_fract_x
_atom_site_fract_y
_atom_site_fract_z
Si Si1 0.942720 0.861624 0.771817
Si Si2 0.303337 0.643973 0.886659
Si Si3 0.600493 0.145124 0.937981
Si Si4 0.783483 0.861451 0.104841
Si Si5 0.365308 0.996441 0.300004
O O1 0.932984 0.750000 0.812357
O O2 0.928707 0.881825 0.593877
O O3 0.905141 0.927622 0.876464
O O4 0.000000 0.890807 0.802867
O O5 0.303970 0.750000 0.803480
O O6 0.321604 0.557636 0.781184
O O7 0.339627 0.651336 0.033425
O O8 0.247339 0.620493 0.947435
O O9 0.580952 0.250000 0.878910
O O10 0.596273 0.063160 0.810219
O O11 0.799212 0.750000 0.121692
O O12 0.750000 0.893482 0.250000
O O13 0.835145 0.924060 0.087237
#
# Coordination Sequence:
#
# PCOD8298206 Si02
#       5
#    16  16  16  16  16
#     4   9  18  30  43  61  87 121 160 199 237 277
#     4   9  17  29  43  62  89 122 161 202 240 278
#     4   9  16  25  39  60  85 116 156 197 229 264
#     4  10  19  29  44  67  91 121 165 203 240 284
#     4  11  18  27  48  67  89 128 168 200 228 279
#
# _framework density 24.884114
#
# number of rings (size 3 to 8) (size 9 to 14) (size 15 to 20)
#    0.000    2.400    2.000    4.800    0.000    1.600 
#    0.000    0.000    0.000    9.000    0.000    0.000 
#    0.000    0.000    0.000   10.800    0.000   71.600 
#
# Total GULP energy -495580.786499 kJ/mol
# GULP energy per Si atom -12389.519662 kJ/mol
# Density = 2.482748 g / cm^3
# Si number density = 24.884114 Si / 1000 Ang^3
#
#
#
# Elastic Constant Matrix: (Units=GPa)
#
#
# Indices 1 2 3 4 5 6 
#
# 1 161.5855 84.2457 16.9055 0.0000 0.0000 0.0000
# 2 84.2457 152.7653 27.1248 0.0000 0.0000 0.0000
# 3 16.9055 27.1248 14.9953 0.0000 0.0000 0.0000
# 4 0.0000 0.0000 0.0000 -5.7264 0.0000 0.0000
# 5 0.0000 0.0000 0.0000 0.0000 26.7742 0.0000
# 6 0.0000 0.0000 0.0000 0.0000 0.0000 48.5361
#
#
#
# Elastic Compliance Matrix: (Units=1/GPa)
#
#
# Indices 1 2 3 4 5 6 
#
# 1 0.008714 -0.004510 -0.001667 0.000000 0.000000 0.000000
# 2 -0.004510 0.011977 -0.016581 0.000000 0.000000 0.000000
# 3 -0.001667 -0.016581 0.098559 0.000000 0.000000 0.000000
# 4 0.000000 0.000000 0.000000 -0.174631 0.000000 0.000000
# 5 0.000000 0.000000 0.000000 0.000000 0.037349 0.000000
# 6 0.000000 0.000000 0.000000 0.000000 0.000000 0.020603
#
#
# Mechanical properties :
#
#
# Convention : Reuss Voigt Hill
#
# Bulk Modulus (GPa) = 13.56193 65.09979 39.33086
# Shear Modulus (GPa) = 68.80861 27.32148 48.06504
#
# Velocity S-wave (km/s) = 5.26419 3.31713 4.39971
# Velocity P-wave (km/s) = 6.51235 6.39446 6.45367
#
# Compressibility (1/GPa) = 0.07373579
#
# Stress axis : x y z
#
# Youngs Moduli (GPa) = 114.75396 83.49316 10.14619
#
# Poissons Ratio (x) = 0.37653 0.01691
# Poissons Ratio (y) = 0.51751 0.16823
# Poissons Ratio (z) = 0.19127 1.38438
#
# Static dielectric constant tensor:
#      x y z
#    x 4.389010 0.000000 0.000000 
#    y 0.000000 5.004360 0.000000 
#    z 0.000000 0.000000 3.855150 
# 
# 
# High freq. dielectric constant tensor:
#      x y z
#    x 1.966750 0.000000 0.000000 
#    y 0.000000 2.024000 0.000000 
#    z 0.000000 0.000000 1.939080 
# 
# From -- ./inp_files/24890.got.cif
#   From: 2010.03.12/outbox.cif.g09.slc.cpg/sg74_13_cif.got.tgz:24890.got - 2010.04.16 15:46:19.
