data_PCOD8298545
_publ_section_title
;
Structure prediction by ZEFSAII (Michael W. Deem and Ramdas Pophale) SiO2 
 PCOD8298545
Probable space group: I M M A
;
_chemical_formula_sum "Si O2"
_cell_formula_units_Z 56
_cell_length_a 15.822523
_cell_length_b 27.357977
_cell_length_c 5.271772
_cell_angle_alpha 90.000000
_cell_angle_beta 90.000000
_cell_angle_gamma 90.000000
_cell_volume 2282.003651
_symmetry_space_group_name_H-M "I M M A"
_symmetry_group_IT_number 74
_symmetry_cell_setting 'orthorhombic'
loop_
_space_group_symop_operation_xyz
x,y,z
-x,1/2-y,z
x,-y,-z
-x,1/2+y,-z
-x,-y,-z
x,1/2+y,-z
-x,y,z
x,1/2-y,z
1/2+x,1/2+y,1/2+z
1/2-x,-y,1/2+z
1/2+x,1/2-y,1/2-z
1/2-x,y,1/2-z
1/2-x,1/2-y,1/2-z
1/2+x,y,1/2-z
1/2-x,1/2+y,1/2+z
1/2+x,-y,1/2+z
loop_
_atom_site_type_symbol
_atom_site_label
_atom_site_fract_x
_atom_site_fract_y
_atom_site_fract_z
Si Si1 0.000000 0.967881 0.252428
Si Si2 0.328089 0.944280 0.420625
Si Si3 0.850475 0.694423 0.273864
Si Si4 0.343717 0.147397 0.273958
O O1 0.086751 0.937058 0.246473
O O2 0.000000 0.000000 0.500000
O O3 0.000000 0.000000 0.000000
O O4 0.250000 0.924583 0.250000
O O5 0.338390 0.911229 0.673763
O O6 0.311059 0.000000 0.500000
O O7 0.879761 0.750000 0.313963
O O8 0.750000 0.689506 0.250000
O O9 0.887927 0.661802 0.507827
O O10 0.890285 0.673044 0.013332
O O11 0.250000 0.169767 0.250000
#
# Coordination Sequence:
#
# PCOD8298545 Si02
#       4
#     8  16  16  16
#     4  10  24  42  60  86 117 156 205 244 288 356
#     4  11  22  38  62  88 122 160 196 244 299 352
#     4   9  17  30  49  77 115 151 189 244 295 341
#     4  10  19  31  51  82 114 150 196 237 288 356
#
# _framework density 24.539836000000001
#
# number of rings (size 3 to 8) (size 9 to 14) (size 15 to 20)
#    0.000    2.000    0.000    5.143    0.000   10.286 
#    0.000    0.000    0.000    0.000    0.000    6.000 
#    0.000    0.000    0.000    4.000    0.000    0.000 
#
# Total GULP energy -346968.037704 kJ/mol
# GULP energy per Si atom -12391.715632 kJ/mol
# Density = 2.448398 g / cm^3
# Si number density = 24.539836 Si / 1000 Ang^3
#
#
#
# Elastic Constant Matrix: (Units=GPa)
#
#
# Indices 1 2 3 4 5 6 
#
# 1 105.1695 -6.3118 20.8527 -0.0119 -0.0264 -0.0119
# 2 -6.3118 178.7051 87.1230 -0.0024 0.0105 -0.0044
# 3 20.8527 87.1230 217.0283 -0.0974 0.1038 0.0845
# 4 -0.0119 -0.0024 -0.0974 57.5884 0.0734 0.0069
# 5 -0.0264 0.0105 0.1038 0.0734 12.8825 0.0100
# 6 -0.0119 -0.0044 0.0845 0.0069 0.0100 -2.7802
#
#
#
# Elastic Compliance Matrix: (Units=1/GPa)
#
#
# Indices 1 2 3 4 5 6 
#
# 1 0.009836 0.001005 -0.001348 0.000000 0.000030 -0.000085
# 2 0.001005 0.007060 -0.002931 -0.000004 0.000020 -0.000104
# 3 -0.001348 -0.002931 0.005914 0.000010 -0.000048 0.000190
# 4 0.000000 -0.000004 0.000010 0.017365 -0.000099 0.000043
# 5 0.000030 0.000020 -0.000048 -0.000099 0.077625 0.000278
# 6 -0.000085 -0.000104 0.000190 0.000043 0.000278 -0.359681
#
#
# Mechanical properties :
#
#
# Convention : Reuss Voigt Hill
#
# Bulk Modulus (GPa) = 61.49585 78.24786 69.87186
# Shear Modulus (GPa) = -21.74743 40.15409 9.20333
#
# Velocity S-wave (km/s) = -2.98016 4.04949 1.93869
# Velocity P-wave (km/s) = 3.64311 7.33619 5.79189
#
# Compressibility (1/GPa) = 0.01626126
#
# Stress axis : x y z
#
# Youngs Moduli (GPa) = 101.66607 141.64156 169.09911
#
# Poissons Ratio (x) = -0.14232 0.22802
# Poissons Ratio (y) = -0.10215 0.49558
# Poissons Ratio (z) = 0.13709 0.41511
#
# Static dielectric constant tensor:
#      x y z
#    x 4.402250 0.000060 -0.000030 
#    y 0.000060 4.217330 -0.000010 
#    z -0.000030 -0.000010 4.815970 
# 
# 
# High freq. dielectric constant tensor:
#      x y z
#    x 1.918690 0.000000 -0.000010 
#    y 0.000000 1.969740 -0.000010 
#    z -0.000010 -0.000010 1.994310 
# 
# From -- ./inp_files/1522.got.cif
#   From: 2010.03.12/outbox.cif.g09.slc.cpg/sg74_1_cif.got.tgz:1522.got - 2010.04.16 15:46:19.
