data_PCOD8298219
_publ_section_title
;
Structure prediction by ZEFSAII (Michael W. Deem and Ramdas Pophale) SiO2 
 PCOD8298219
Probable space group: I M M A
;
_chemical_formula_sum "Si O2"
_cell_formula_units_Z 96
_cell_length_a 20.475662
_cell_length_b 9.081289
_cell_length_c 29.945396
_cell_angle_alpha 90.000000
_cell_angle_beta 90.000000
_cell_angle_gamma 90.000000
_cell_volume 5568.208760
_symmetry_space_group_name_H-M "I M M A"
_symmetry_group_IT_number 74
_symmetry_cell_setting 'orthorhombic'
loop_
_space_group_symop_operation_xyz
x,y,z
-x,1/2-y,z
x,-y,-z
-x,1/2+y,-z
-x,-y,-z
x,1/2+y,-z
-x,y,z
x,1/2-y,z
1/2+x,1/2+y,1/2+z
1/2-x,-y,1/2+z
1/2+x,1/2-y,1/2-z
1/2-x,y,1/2-z
1/2-x,1/2-y,1/2-z
1/2+x,y,1/2-z
1/2-x,1/2+y,1/2+z
1/2+x,-y,1/2+z
loop_
_atom_site_type_symbol
_atom_site_label
_atom_site_fract_x
_atom_site_fract_y
_atom_site_fract_z
Si Si1 0.273393 0.577706 0.632270
Si Si2 0.426376 0.417323 0.784157
Si Si3 0.275213 0.416594 0.543469
Si Si4 0.810967 0.578004 0.219646
Si Si5 0.121446 0.921569 0.631364
Si Si6 0.119626 0.084005 0.543203
O O1 0.286799 0.750000 0.627828
O O2 0.300157 0.500057 0.587610
O O3 0.312320 0.513774 0.674203
O O4 0.197268 0.542257 0.639257
O O5 0.500000 0.432092 0.765790
O O6 0.410644 0.250000 0.799214
O O7 0.377647 0.463998 0.744784
O O8 0.418650 0.522775 0.826357
O O9 0.303310 0.500000 0.500000
O O10 0.301971 0.250000 0.543795
O O11 0.197437 0.418075 0.542016
O O12 0.806148 0.750000 0.207859
O O13 0.750000 0.528712 0.250000
O O14 0.109117 0.750000 0.624500
O O15 0.094282 0.003127 0.587558
O O16 0.092637 0.250000 0.543000
O O17 0.091418 0.000000 0.500000
#
# Coordination Sequence:
#
# PCOD8298219 Si02
#       6
#    16  16  16  16  16  16
#     4  10  19  29  45  70  98 127 162 201 241 285
#     4  10  21  36  52  70  94 125 161 201 245 292
#     4   9  16  26  41  63  95 130 161 195 239 287
#     4  10  19  32  51  72  95 125 162 202 244 289
#     4  10  19  30  46  68  94 124 160 200 242 288
#     4   9  16  26  42  64  91 122 158 199 243 288
#
# _framework density 17.240732000000001
#
# number of rings (size 3 to 8) (size 9 to 14) (size 15 to 20)
#    0.000    2.333    1.667    2.000    0.000    6.667 
#    0.000    0.000    0.000    0.500    0.000    0.000 
#    0.000    0.667    0.000    1.833    0.000    2.667 
#
# Total GULP energy -595317.385648 kJ/mol
# GULP energy per Si atom -12402.445534 kJ/mol
# Density = 1.720149 g / cm^3
# Si number density = 17.240732 Si / 1000 Ang^3
#
#
#
# Elastic Constant Matrix: (Units=GPa)
#
#
# Indices 1 2 3 4 5 6 
#
# 1 55.1295 30.0724 41.9690 0.0000 0.0000 0.0000
# 2 30.0724 112.0167 73.2414 0.0000 0.0000 0.0000
# 3 41.9690 73.2414 149.7030 0.0000 0.0000 0.0000
# 4 0.0000 0.0000 0.0000 40.6033 0.0000 0.0000
# 5 0.0000 0.0000 0.0000 0.0000 11.2953 0.0000
# 6 0.0000 0.0000 0.0000 0.0000 0.0000 11.7275
#
#
#
# Elastic Compliance Matrix: (Units=1/GPa)
#
#
# Indices 1 2 3 4 5 6 
#
# 1 0.023714 -0.002969 -0.005195 0.000000 0.000000 0.000000
# 2 -0.002969 0.013498 -0.005771 0.000000 0.000000 0.000000
# 3 -0.005195 -0.005771 0.010960 0.000000 0.000000 0.000000
# 4 0.000000 0.000000 0.000000 0.024629 0.000000 0.000000
# 5 0.000000 0.000000 0.000000 0.000000 0.088532 0.000000
# 6 0.000000 0.000000 0.000000 0.000000 0.000000 0.085270
#
#
# Mechanical properties :
#
#
# Convention : Reuss Voigt Hill
#
# Bulk Modulus (GPa) = 49.26173 67.49054 58.37614
# Shear Modulus (GPa) = 17.77832 24.16298 20.97065
#
# Velocity S-wave (km/s) = 3.21468 3.74773 3.49140
# Velocity P-wave (km/s) = 6.51259 7.61303 7.08421
#
# Compressibility (1/GPa) = 0.02029973
#
# Stress axis : x y z
#
# Youngs Moduli (GPa) = 42.16904 74.08530 91.24061
#
# Poissons Ratio (x) = 0.21999 0.47404
# Poissons Ratio (y) = 0.12521 0.52658
# Poissons Ratio (z) = 0.21909 0.42757
#
# Static dielectric constant tensor:
#      x y z
#    x 2.734540 0.000000 0.000000 
#    y 0.000000 3.300240 0.000000 
#    z 0.000000 0.000000 3.285810 
# 
# 
# High freq. dielectric constant tensor:
#      x y z
#    x 1.602830 0.000000 0.000000 
#    y 0.000000 1.677930 0.000000 
#    z 0.000000 0.000000 1.673920 
# 
# From -- ./inp_files/64304.got.cif
#   From: 2010.03.12/outbox.cif.g09.slc.cpg/sg74_33_cif.got.tgz:64304.got - 2010.04.16 15:46:19.
