data_PCOD8298989
_publ_section_title
;
Structure prediction by ZEFSAII (Michael W. Deem and Ramdas Pophale) SiO2 
 PCOD8298989
Probable space group: I M M A
;
_chemical_formula_sum "Si O2"
_cell_formula_units_Z 72
_cell_length_a 20.262126
_cell_length_b 10.268900
_cell_length_c 18.524174
_cell_angle_alpha 90.000000
_cell_angle_beta 90.000000
_cell_angle_gamma 90.000000
_cell_volume 3854.320173
_symmetry_space_group_name_H-M "I M M A"
_symmetry_group_IT_number 74
_symmetry_cell_setting 'orthorhombic'
loop_
_space_group_symop_operation_xyz
x,y,z
-x,1/2-y,z
x,-y,-z
-x,1/2+y,-z
-x,-y,-z
x,1/2+y,-z
-x,y,z
x,1/2-y,z
1/2+x,1/2+y,1/2+z
1/2-x,-y,1/2+z
1/2+x,1/2-y,1/2-z
1/2-x,y,1/2-z
1/2-x,1/2-y,1/2-z
1/2+x,y,1/2-z
1/2-x,1/2+y,1/2+z
1/2+x,-y,1/2+z
loop_
_atom_site_type_symbol
_atom_site_label
_atom_site_fract_x
_atom_site_fract_y
_atom_site_fract_z
Si Si1 0.578299 0.009203 0.170249
Si Si2 0.319376 0.097190 0.280987
Si Si3 0.856521 0.102142 0.064818
Si Si4 0.577882 0.250000 0.072840
Si Si5 0.500000 0.890361 0.557072
Si Si6 0.077751 0.250000 0.588149
O O1 0.500000 0.014757 0.187953
O O2 0.619745 0.021361 0.243946
O O3 0.601019 0.122697 0.115808
O O4 0.600089 0.876023 0.132287
O O5 0.330972 0.250000 0.268448
O O6 0.250000 0.048658 0.250000
O O7 0.312984 0.064305 0.366226
O O8 0.841171 0.250000 0.037375
O O9 0.931062 0.096194 0.099556
O O10 0.844752 0.000000 0.000000
O O11 0.500000 0.250000 0.065745
O O12 0.609580 0.250000 0.992395
O O13 0.500000 0.750000 0.517170
O O14 0.500000 0.000000 0.500000
O O15 0.000000 0.250000 0.578540
#
# Coordination Sequence:
#
# PCOD8298989 Si02
#       6
#    16  16  16   8   8   8
#     4  10  19  33  56  83 109 142 186 224 272 330
#     4  10  21  37  57  78 112 145 179 226 275 321
#     4   9  18  34  56  79 105 137 177 221 266 319
#     4   9  16  30  53  82 107 145 187 226 262 318
#     4   8  14  26  48  78 104 126 163 217 264 304
#     4   9  18  32  51  80 121 143 171 228 280 312
#
# _framework density 18.680337999999999
#
# number of rings (size 3 to 8) (size 9 to 14) (size 15 to 20)
#    0.000    2.667    1.111    0.667    1.556    2.667 
#    2.000    2.778    0.000    0.000    0.000    0.000 
#    0.000    0.000    0.000    0.000    0.000    0.000 
#
# Total GULP energy -446025.402225 kJ/mol
# GULP energy per Si atom -12389.594506 kJ/mol
# Density = 1.863782 g / cm^3
# Si number density = 18.680338 Si / 1000 Ang^3
#
#
#
# Elastic Constant Matrix: (Units=GPa)
#
#
# Indices 1 2 3 4 5 6 
#
# 1 66.2065 28.8336 48.7660 0.0000 0.0000 0.0000
# 2 28.8336 124.9195 65.0049 0.0000 0.0000 0.0000
# 3 48.7660 65.0049 129.3835 0.0000 0.0000 0.0000
# 4 0.0000 0.0000 0.0000 12.3170 0.0000 0.0000
# 5 0.0000 0.0000 0.0000 0.0000 26.1748 0.0000
# 6 0.0000 0.0000 0.0000 0.0000 0.0000 11.5671
#
#
#
# Elastic Compliance Matrix: (Units=1/GPa)
#
#
# Indices 1 2 3 4 5 6 
#
# 1 0.020998 -0.000986 -0.007419 0.000000 0.000000 0.000000
# 2 -0.000986 0.010885 -0.005097 0.000000 0.000000 0.000000
# 3 -0.007419 -0.005097 0.013086 0.000000 0.000000 0.000000
# 4 0.000000 0.000000 0.000000 0.081189 0.000000 0.000000
# 5 0.000000 0.000000 0.000000 0.000000 0.038205 0.000000
# 6 0.000000 0.000000 0.000000 0.000000 0.000000 0.086452
#
#
# Mechanical properties :
#
#
# Convention : Reuss Voigt Hill
#
# Bulk Modulus (GPa) = 55.66386 67.30206 61.48296
# Shear Modulus (GPa) = 17.61748 21.87211 19.74480
#
# Velocity S-wave (km/s) = 3.07433 3.42550 3.25465
# Velocity P-wave (km/s) = 6.51650 7.19388 6.86355
#
# Compressibility (1/GPa) = 0.01796498
#
# Stress axis : x y z
#
# Youngs Moduli (GPa) = 47.62260 91.86726 76.41591
#
# Poissons Ratio (x) = 0.09059 0.56694
# Poissons Ratio (y) = 0.04696 0.38951
# Poissons Ratio (z) = 0.35332 0.46828
#
# Static dielectric constant tensor:
#      x y z
#    x -0.586940 0.000000 0.000000 
#    y 0.000000 3.510710 0.000000 
#    z 0.000000 0.000000 3.362450 
# 
# 
# High freq. dielectric constant tensor:
#      x y z
#    x 1.702130 0.000000 0.000000 
#    y 0.000000 1.722400 0.000000 
#    z 0.000000 0.000000 1.715160 
# 
# From -- ./inp_files/53672.got.cif
#   From: 2010.03.12/outbox.cif.g09.slc.cpg/sg74_27_cif.got.tgz:53672.got - 2010.04.16 15:46:19.
