data_PCOD8298051
_publ_section_title
;
Structure prediction by ZEFSAII (Michael W. Deem and Ramdas Pophale) SiO2 
 PCOD8298051
Probable space group: I M M A
;
_chemical_formula_sum "Si O2"
_cell_formula_units_Z 80
_cell_length_a 16.074688
_cell_length_b 23.312823
_cell_length_c 10.073542
_cell_angle_alpha 90.000000
_cell_angle_beta 90.000000
_cell_angle_gamma 90.000000
_cell_volume 3775.023158
_symmetry_space_group_name_H-M "I M M A"
_symmetry_group_IT_number 74
_symmetry_cell_setting 'orthorhombic'
loop_
_space_group_symop_operation_xyz
x,y,z
-x,1/2-y,z
x,-y,-z
-x,1/2+y,-z
-x,-y,-z
x,1/2+y,-z
-x,y,z
x,1/2-y,z
1/2+x,1/2+y,1/2+z
1/2-x,-y,1/2+z
1/2+x,1/2-y,1/2-z
1/2-x,y,1/2-z
1/2-x,1/2-y,1/2-z
1/2+x,y,1/2-z
1/2-x,1/2+y,1/2+z
1/2+x,-y,1/2+z
loop_
_atom_site_type_symbol
_atom_site_label
_atom_site_fract_x
_atom_site_fract_y
_atom_site_fract_z
Si Si1 0.152601 0.871173 0.271891
Si Si2 0.597132 0.438768 0.528745
Si Si3 0.598880 0.750000 0.612806
Si Si4 0.901727 0.870296 0.785306
Si Si5 0.658118 0.750000 0.313826
Si Si6 0.901071 0.435050 0.473594
O O1 0.250000 0.868964 0.250000
O O2 0.113154 0.918956 0.177418
O O3 0.113673 0.808137 0.239958
O O4 0.131745 0.890154 0.419153
O O5 0.639607 0.500000 0.500000
O O6 0.500000 0.443789 0.503811
O O7 0.635618 0.395103 0.422239
O O8 0.500000 0.750000 0.575774
O O9 0.623170 0.803379 0.708064
O O10 0.651992 0.750000 0.475240
O O11 0.865317 0.907553 0.662991
O O12 0.000000 0.876460 0.778374
O O13 0.750000 0.750000 0.250000
O O14 0.867341 0.500000 0.500000
O O15 0.000000 0.436252 0.475326
#
# Coordination Sequence:
#
# PCOD8298051 Si02
#       6
#    16  16   8  16   8  16
#     4  11  23  38  58  83 119 159 202 244 290 350
#     4  10  19  34  58  84 109 146 196 245 297 357
#     4  10  18  33  60  89 117 151 202 258 298 348
#     4   9  18  32  54  83 112 144 186 241 299 347
#     4  10  22  39  58  80 124 163 198 246 296 349
#     4  10  21  39  61  87 120 153 189 244 309 361
#
# _framework density 21.191922999999999
#
# number of rings (size 3 to 8) (size 9 to 14) (size 15 to 20)
#    0.000    2.000    2.000    1.800    0.000    5.600 
#    0.000    2.000    0.000    2.400    0.000    0.000 
#    0.000    0.000    0.000    0.000    0.000    0.000 
#
# Total GULP energy -495698.959279 kJ/mol
# GULP energy per Si atom -12392.473982 kJ/mol
# Density = 2.114369 g / cm^3
# Si number density = 21.191923 Si / 1000 Ang^3
#
#
#
# Elastic Constant Matrix: (Units=GPa)
#
#
# Indices 1 2 3 4 5 6 
#
# 1 13.4681 18.4636 13.9192 0.0000 0.0000 0.0000
# 2 18.4636 167.0057 45.7115 0.0000 0.0000 0.0000
# 3 13.9192 45.7115 121.5931 0.0000 -0.0001 0.0000
# 4 0.0000 0.0000 0.0000 49.7604 0.0000 0.0000
# 5 0.0000 0.0000 -0.0001 0.0000 18.5071 0.0000
# 6 0.0000 0.0000 0.0000 0.0000 0.0000 10.0582
#
#
#
# Elastic Compliance Matrix: (Units=1/GPa)
#
#
# Indices 1 2 3 4 5 6 
#
# 1 0.093403 -0.008249 -0.007591 0.000000 0.000000 0.000000
# 2 -0.008249 0.007403 -0.001839 0.000000 0.000000 0.000000
# 3 -0.007591 -0.001839 0.009784 0.000000 0.000000 0.000000
# 4 0.000000 0.000000 0.000000 0.020096 0.000000 0.000000
# 5 0.000000 0.000000 0.000000 0.000000 0.054033 0.000000
# 6 0.000000 0.000000 0.000000 0.000000 0.000000 0.099421
#
#
# Mechanical properties :
#
#
# Convention : Reuss Voigt Hill
#
# Bulk Modulus (GPa) = 13.29198 50.91729 32.10463
# Shear Modulus (GPa) = 14.51056 30.59665 22.55360
#
# Velocity S-wave (km/s) = 2.61956 3.80384 3.26583
# Velocity P-wave (km/s) = 3.92877 6.58568 5.42247
#
# Compressibility (1/GPa) = 0.07523333
#
# Stress axis : x y z
#
# Youngs Moduli (GPa) = 10.70628 135.07913 102.20293
#
# Poissons Ratio (x) = 1.11420 0.77585
# Poissons Ratio (y) = 0.08831 0.18794
# Poissons Ratio (z) = 0.08127 0.24839
#
# Static dielectric constant tensor:
#      x y z
#    x 3.344050 0.000000 0.000000 
#    y 0.000000 4.500980 0.000000 
#    z 0.000000 0.000000 3.760620 
# 
# 
# High freq. dielectric constant tensor:
#      x y z
#    x 1.784860 0.000000 0.000000 
#    y 0.000000 1.857010 0.000000 
#    z 0.000000 0.000000 1.834070 
# 
# From -- ./inp_files/10987.got.cif
#   From: 2010.03.12/outbox.cif.g09.slc.cpg/sg74_6_cif.got.tgz:10987.got - 2010.04.16 15:46:19.
