data_PCOD8298012
_publ_section_title
;
Structure prediction by ZEFSAII (Michael W. Deem and Ramdas Pophale) SiO2 
 PCOD8298012
Probable space group: I M M A
;
_chemical_formula_sum "Si O2"
_cell_formula_units_Z 104
_cell_length_a 27.854677
_cell_length_b 22.245077
_cell_length_c 9.035129
_cell_angle_alpha 90.000000
_cell_angle_beta 90.000000
_cell_angle_gamma 90.000000
_cell_volume 5598.431874
_symmetry_space_group_name_H-M "I M M A"
_symmetry_group_IT_number 74
_symmetry_cell_setting 'orthorhombic'
loop_
_space_group_symop_operation_xyz
x,y,z
-x,1/2-y,z
x,-y,-z
-x,1/2+y,-z
-x,-y,-z
x,1/2+y,-z
-x,y,z
x,1/2-y,z
1/2+x,1/2+y,1/2+z
1/2-x,-y,1/2+z
1/2+x,1/2-y,1/2-z
1/2-x,y,1/2-z
1/2-x,1/2-y,1/2-z
1/2+x,y,1/2-z
1/2-x,1/2+y,1/2+z
1/2+x,-y,1/2+z
loop_
_atom_site_type_symbol
_atom_site_label
_atom_site_fract_x
_atom_site_fract_y
_atom_site_fract_z
Si Si1 0.299485 0.983988 0.831795
Si Si2 0.947027 0.649769 0.167149
Si Si3 0.945405 0.250000 0.070855
Si Si4 0.315385 0.359507 0.058782
Si Si5 0.872757 0.750000 0.661057
Si Si6 0.723033 0.817471 0.403819
Si Si7 0.850726 0.599919 0.244239
Si Si8 0.551650 0.750000 0.091803
O O1 0.250000 0.990396 0.750000
O O2 0.319867 0.916524 0.831435
O O3 0.336063 0.030055 0.753213
O O4 0.289157 0.000000 0.000000
O O5 0.906001 0.599738 0.190407
O O6 0.944862 0.691171 0.309962
O O7 0.000000 0.619313 0.154988
O O8 0.936882 0.689979 0.023527
O O9 0.906071 0.250000 0.197256
O O10 0.000000 0.250000 0.133236
O O11 0.338743 0.307656 0.156659
O O12 0.259506 0.344183 0.026078
O O13 0.343679 0.369266 0.904651
O O14 0.904888 0.750000 0.517551
O O15 0.705382 0.750000 0.450484
O O16 0.750000 0.812095 0.250000
O O17 0.678830 0.863225 0.381117
O O18 0.500000 0.750000 0.008642
#
# Coordination Sequence:
#
# PCOD8298012 Si02
#       8
#    16  16   8  16   8  16  16   8
#     4  10  21  40  57  76 110 151 194 224 266 334
#     4   9  18  34  55  83 109 134 184 239 274 322
#     4   9  21  37  52  78 117 152 182 226 283 342
#     4  10  20  34  53  83 119 143 182 232 271 337
#     4  12  19  34  54  82 117 151 173 220 293 337
#     4   9  17  28  50  82 113 141 175 225 278 320
#     4  10  18  32  60  82 104 148 190 230 277 324
#     4   9  17  29  54  82 105 139 181 222 267 331
#
# _framework density 18.576630000000002
#
# number of rings (size 3 to 8) (size 9 to 14) (size 15 to 20)
#    0.000    2.308    2.308    3.462    3.231    0.000 
#    5.538    0.385    0.000    6.000    0.000    2.154 
#    0.000    0.000    0.000    0.000    0.000    0.000 
#
# Total GULP energy -644538.886650 kJ/mol
# GULP energy per Si atom -12394.978589 kJ/mol
# Density = 1.853435 g / cm^3
# Si number density = 18.576630 Si / 1000 Ang^3
#
#
#
# Elastic Constant Matrix: (Units=GPa)
#
#
# Indices 1 2 3 4 5 6 
#
# 1 149.9117 76.5745 50.1867 0.0000 0.0000 0.0000
# 2 76.5745 146.9869 39.3052 0.0000 0.0000 0.0000
# 3 50.1867 39.3052 46.4335 0.0000 0.0000 0.0000
# 4 0.0000 0.0000 0.0000 77.2151 0.0000 0.0000
# 5 0.0000 0.0000 0.0000 0.0000 16.0034 0.0000
# 6 0.0000 0.0000 0.0000 0.0000 0.0000 4.8112
#
#
#
# Elastic Compliance Matrix: (Units=1/GPa)
#
#
# Indices 1 2 3 4 5 6 
#
# 1 0.011703 -0.003509 -0.009679 0.000000 0.000000 0.000000
# 2 -0.003509 0.009846 -0.004542 0.000000 0.000000 0.000000
# 3 -0.009679 -0.004542 0.035842 0.000000 0.000000 0.000000
# 4 0.000000 0.000000 0.000000 0.012951 0.000000 0.000000
# 5 0.000000 0.000000 0.000000 0.000000 0.062487 0.000000
# 6 0.000000 0.000000 0.000000 0.000000 0.000000 0.207848
#
#
# Mechanical properties :
#
#
# Convention : Reuss Voigt Hill
#
# Bulk Modulus (GPa) = 45.59598 75.05164 60.32381
# Shear Modulus (GPa) = 13.03963 31.42365 22.23164
#
# Velocity S-wave (km/s) = 2.65228 4.11733 3.46316
# Velocity P-wave (km/s) = 5.82903 7.94305 6.96669
#
# Compressibility (1/GPa) = 0.02193176
#
# Stress axis : x y z
#
# Youngs Moduli (GPa) = 85.44747 101.56664 27.89994
#
# Poissons Ratio (x) = 0.35636 0.27005
# Poissons Ratio (y) = 0.29980 0.12672
# Poissons Ratio (z) = 0.82705 0.46132
#
# Static dielectric constant tensor:
#      x y z
#    x 3.532150 0.000000 0.000000 
#    y 0.000000 3.459960 0.000000 
#    z 0.000000 0.000000 3.246410 
# 
# 
# High freq. dielectric constant tensor:
#      x y z
#    x 1.718180 0.000000 0.000000 
#    y 0.000000 1.706590 0.000000 
#    z 0.000000 0.000000 1.704300 
# 
# From -- ./inp_files/16228.got.cif
#   From: 2010.03.12/outbox.cif.g09.slc.cpg/sg74_9_cif.got.tgz:16228.got - 2010.04.16 15:46:19.
