data_PCOD8298132
_publ_section_title
;
Structure prediction by ZEFSAII (Michael W. Deem and Ramdas Pophale) SiO2 
 PCOD8298132
Probable space group: I M M A
;
_chemical_formula_sum "Si O2"
_cell_formula_units_Z 96
_cell_length_a 9.045189
_cell_length_b 26.781784
_cell_length_c 32.026275
_cell_angle_alpha 90.000000
_cell_angle_beta 90.000000
_cell_angle_gamma 90.000000
_cell_volume 7758.246559
_symmetry_space_group_name_H-M "I M M A"
_symmetry_group_IT_number 74
_symmetry_cell_setting 'orthorhombic'
loop_
_space_group_symop_operation_xyz
x,y,z
-x,1/2-y,z
x,-y,-z
-x,1/2+y,-z
-x,-y,-z
x,1/2+y,-z
-x,y,z
x,1/2-y,z
1/2+x,1/2+y,1/2+z
1/2-x,-y,1/2+z
1/2+x,1/2-y,1/2-z
1/2-x,y,1/2-z
1/2-x,1/2-y,1/2-z
1/2+x,y,1/2-z
1/2-x,1/2+y,1/2+z
1/2+x,-y,1/2+z
loop_
_atom_site_type_symbol
_atom_site_label
_atom_site_fract_x
_atom_site_fract_y
_atom_site_fract_z
Si Si1 0.172124 0.807915 0.793275
Si Si2 0.669929 0.807858 0.549894
Si Si3 0.165420 0.031720 0.957774
Si Si4 0.165316 0.386617 0.499595
Si Si5 0.175678 0.146453 0.371815
Si Si6 0.163138 0.549116 0.583808
O O1 0.193929 0.750000 0.804624
O O2 0.250000 0.821234 0.750000
O O3 0.251497 0.840841 0.827984
O O4 0.000000 0.821915 0.790508
O O5 0.500000 0.824451 0.556031
O O6 0.682640 0.750000 0.538748
O O7 0.739169 0.837584 0.510814
O O8 0.757148 0.818222 0.592558
O O9 0.260261 0.082245 0.962797
O O10 0.000000 0.047331 0.945902
O O11 0.228518 0.998208 0.919737
O O12 0.169031 0.000000 0.000000
O O13 0.159255 0.421110 0.459241
O O14 0.000000 0.370800 0.513113
O O15 0.214521 0.088258 0.380719
O O16 0.000000 0.155273 0.370837
O O17 0.000000 0.528364 0.593924
#
# Coordination Sequence:
#
# PCOD8298132 Si02
#       6
#    16  16  16  16  16  16
#     4  10  20  32  44  56  69  86 109 137 169 206
#     4  10  19  28  37  50  68  88 111 140 171 202
#     4   9  15  22  34  50  66  84 105 129 157 191
#     4   9  16  25  36  48  64  86 109 133 161 195
#     4  10  19  29  41  55  70  87 107 134 168 206
#     4   8  15  25  35  49  67  85 104 127 158 195
#
# _framework density 12.37393
#
# number of rings (size 3 to 8) (size 9 to 14) (size 15 to 20)
#    0.000    2.667    0.000    4.000    0.000   11.000 
#    0.000    0.000    0.000    0.000    0.000    0.000 
#    0.000    0.000    0.000    0.000    0.000    0.000 
#
# Total GULP energy -595069.618726 kJ/mol
# GULP energy per Si atom -12397.283723 kJ/mol
# Density = 1.234577 g / cm^3
# Si number density = 12.373930 Si / 1000 Ang^3
#
#
#
# Elastic Constant Matrix: (Units=GPa)
#
#
# Indices 1 2 3 4 5 6 
#
# 1 111.7132 50.2116 40.2441 0.0000 0.0000 0.0000
# 2 50.2116 62.1696 41.7529 0.0000 0.0000 0.0000
# 3 40.2441 41.7529 45.3274 0.0000 0.0000 0.0000
# 4 0.0000 0.0000 0.0000 20.7851 0.0000 0.0000
# 5 0.0000 0.0000 0.0000 0.0000 17.7580 0.0000
# 6 0.0000 0.0000 0.0000 0.0000 0.0000 21.0346
#
#
#
# Elastic Compliance Matrix: (Units=1/GPa)
#
#
# Indices 1 2 3 4 5 6 
#
# 1 0.014556 -0.008068 -0.005492 0.000000 0.000000 0.000000
# 2 -0.008068 0.046649 -0.035808 0.000000 0.000000 0.000000
# 3 -0.005492 -0.035808 0.059922 0.000000 0.000000 0.000000
# 4 0.000000 0.000000 0.000000 0.048111 0.000000 0.000000
# 5 0.000000 0.000000 0.000000 0.000000 0.056313 0.000000
# 6 0.000000 0.000000 0.000000 0.000000 0.000000 0.047541
#
#
# Mechanical properties :
#
#
# Convention : Reuss Voigt Hill
#
# Bulk Modulus (GPa) = 44.65842 53.73638 49.19740
# Shear Modulus (GPa) = 13.18247 17.71564 15.44905
#
# Velocity S-wave (km/s) = 3.26750 3.78787 3.53727
# Velocity P-wave (km/s) = 7.09961 7.91530 7.51853
#
# Compressibility (1/GPa) = 0.02239219
#
# Stress axis : x y z
#
# Youngs Moduli (GPa) = 68.69876 21.43648 16.68843
#
# Poissons Ratio (x) = 0.17295 0.09165
# Poissons Ratio (y) = 0.55426 0.59757
# Poissons Ratio (z) = 0.37730 0.76759
#
# Static dielectric constant tensor:
#      x y z
#    x 2.788760 0.000000 0.000000 
#    y 0.000000 2.513650 0.000000 
#    z 0.000000 0.000000 2.249030 
# 
# 
# High freq. dielectric constant tensor:
#      x y z
#    x 1.492590 0.000000 0.000000 
#    y 0.000000 1.451250 0.000000 
#    z 0.000000 0.000000 1.415980 
# 
# From -- ./inp_files/64913.got.cif
#   From: 2010.03.12/outbox.cif.g09.slc.cpg/sg74_33_cif.got.tgz:64913.got - 2010.04.16 15:46:19.
