data_PCOD8298944
_publ_section_title
;
Structure prediction by ZEFSAII (Michael W. Deem and Ramdas Pophale) SiO2 
 PCOD8298944
Probable space group: I M M A
;
_chemical_formula_sum "Si O2"
_cell_formula_units_Z 104
_cell_length_a 25.374618
_cell_length_b 9.585296
_cell_length_c 19.298103
_cell_angle_alpha 90.000000
_cell_angle_beta 90.000000
_cell_angle_gamma 90.000000
_cell_volume 4693.746837
_symmetry_space_group_name_H-M "I M M A"
_symmetry_group_IT_number 74
_symmetry_cell_setting 'orthorhombic'
loop_
_space_group_symop_operation_xyz
x,y,z
-x,1/2-y,z
x,-y,-z
-x,1/2+y,-z
-x,-y,-z
x,1/2+y,-z
-x,y,z
x,1/2-y,z
1/2+x,1/2+y,1/2+z
1/2-x,-y,1/2+z
1/2+x,1/2-y,1/2-z
1/2-x,y,1/2-z
1/2-x,1/2-y,1/2-z
1/2+x,y,1/2-z
1/2-x,1/2+y,1/2+z
1/2+x,-y,1/2+z
loop_
_atom_site_type_symbol
_atom_site_label
_atom_site_fract_x
_atom_site_fract_y
_atom_site_fract_z
Si Si1 0.941293 0.411175 0.569367
Si Si2 0.780611 0.500000 0.500000
Si Si3 0.299760 0.405565 0.613323
Si Si4 0.084381 0.087233 0.934831
Si Si5 0.670784 0.407997 0.264223
Si Si6 0.648051 0.094627 0.117100
Si Si7 0.556825 0.906887 0.688683
O O1 0.939135 0.500000 0.500000
O O2 0.926494 0.250000 0.554191
O O3 0.898153 0.479281 0.619604
O O4 0.000000 0.420667 0.602150
O O5 0.746078 0.582529 0.443840
O O6 0.818338 0.401993 0.453883
O O7 0.299386 0.250000 0.642961
O O8 0.353502 0.439621 0.573723
O O9 0.295222 0.501978 0.681646
O O10 0.070513 0.250000 0.943301
O O11 0.053739 0.023687 0.870229
O O12 0.064251 0.000000 0.000000
O O13 0.684111 0.250000 0.285152
O O14 0.685856 0.438610 0.183767
O O15 0.607680 0.438544 0.264344
O O16 0.623730 0.250000 0.126539
O O17 0.500000 0.917354 0.728731
O O18 0.563001 0.750000 0.657359
#
# Coordination Sequence:
#
# PCOD8298944 Si02
#       7
#    16   8  16  16  16  16  16
#     4  10  21  38  62  92 128 169 210 253 304 363
#     4  12  24  40  63  94 125 158 206 262 310 374
#     4  10  22  40  62  88 117 160 208 254 311 372
#     4  10  19  33  54  82 114 151 195 243 295 353
#     4   9  21  41  63  88 122 162 204 252 306 369
#     4  11  24  41  64  96 129 164 205 255 311 367
#     4   9  18  34  56  82 113 151 195 242 293 350
#
# _framework density 22.157139000000001
#
# number of rings (size 3 to 8) (size 9 to 14) (size 15 to 20)
#    0.000    2.000    1.538    1.385    0.000    5.846 
#    0.000    3.846    0.000    0.000    0.000    0.000 
#    0.000    0.000    0.000    0.000    0.000    0.000 
#
# Total GULP energy -644327.111619 kJ/mol
# GULP energy per Si atom -12390.905993 kJ/mol
# Density = 2.210671 g / cm^3
# Si number density = 22.157139 Si / 1000 Ang^3
#
#
#
# Elastic Constant Matrix: (Units=GPa)
#
#
# Indices 1 2 3 4 5 6 
#
# 1 99.0238 29.2913 26.3000 0.0000 0.0000 0.0000
# 2 29.2913 132.6253 58.0643 0.0000 0.0000 0.0000
# 3 26.3000 58.0643 127.9083 0.0000 0.0000 0.0000
# 4 0.0000 0.0000 0.0000 33.1636 0.0000 0.0000
# 5 0.0000 0.0000 0.0000 0.0000 15.8289 0.0000
# 6 0.0000 0.0000 0.0000 0.0000 0.0000 7.7066
#
#
#
# Elastic Compliance Matrix: (Units=1/GPa)
#
#
# Indices 1 2 3 4 5 6 
#
# 1 0.011015 -0.001799 -0.001448 0.000000 0.000000 0.000000
# 2 -0.001799 0.009704 -0.004035 0.000000 0.000000 0.000000
# 3 -0.001448 -0.004035 0.009948 0.000000 0.000000 0.000000
# 4 0.000000 0.000000 0.000000 0.030154 0.000000 0.000000
# 5 0.000000 0.000000 0.000000 0.000000 0.063175 0.000000
# 6 0.000000 0.000000 0.000000 0.000000 0.000000 0.129758
#
#
# Mechanical properties :
#
#
# Convention : Reuss Voigt Hill
#
# Bulk Modulus (GPa) = 62.10315 65.20763 63.65539
# Shear Modulus (GPa) = 18.26907 27.73328 23.00118
#
# Velocity S-wave (km/s) = 2.87457 3.54172 3.22544
# Velocity P-wave (km/s) = 6.25355 6.79843 6.53167
#
# Compressibility (1/GPa) = 0.01610224
#
# Stress axis : x y z
#
# Youngs Moduli (GPa) = 90.78260 103.05046 100.52516
#
# Poissons Ratio (x) = 0.18536 0.14560
# Poissons Ratio (y) = 0.16329 0.40565
# Poissons Ratio (z) = 0.13149 0.41584
#
# Static dielectric constant tensor:
#      x y z
#    x 4.157020 0.000000 0.000000 
#    y 0.000000 3.937790 0.000000 
#    z 0.000000 0.000000 3.837740 
# 
# 
# High freq. dielectric constant tensor:
#      x y z
#    x 1.878010 0.000000 0.000000 
#    y 0.000000 1.869280 0.000000 
#    z 0.000000 0.000000 1.856130 
# 
# From -- ./inp_files/55277.got.cif
#   From: 2010.03.12/outbox.cif.g09.slc.cpg/sg74_28_cif.got.tgz:55277.got - 2010.04.16 15:46:19.
