data_PCOD8298855
_publ_section_title
;
Structure prediction by ZEFSAII (Michael W. Deem and Ramdas Pophale) SiO2 
 PCOD8298855
Probable space group: I M M A
;
_chemical_formula_sum "Si O2"
_cell_formula_units_Z 80
_cell_length_a 25.982144
_cell_length_b 15.363540
_cell_length_c 9.204394
_cell_angle_alpha 90.000000
_cell_angle_beta 90.000000
_cell_angle_gamma 90.000000
_cell_volume 3674.188906
_symmetry_space_group_name_H-M "I M M A"
_symmetry_group_IT_number 74
_symmetry_cell_setting 'orthorhombic'
loop_
_space_group_symop_operation_xyz
x,y,z
-x,1/2-y,z
x,-y,-z
-x,1/2+y,-z
-x,-y,-z
x,1/2+y,-z
-x,y,z
x,1/2-y,z
1/2+x,1/2+y,1/2+z
1/2-x,-y,1/2+z
1/2+x,1/2-y,1/2-z
1/2-x,y,1/2-z
1/2-x,1/2-y,1/2-z
1/2+x,y,1/2-z
1/2-x,1/2+y,1/2+z
1/2+x,-y,1/2+z
loop_
_atom_site_type_symbol
_atom_site_label
_atom_site_fract_x
_atom_site_fract_y
_atom_site_fract_z
Si Si1 0.000000 0.646220 0.111848
Si Si2 0.000000 0.096308 0.560601
Si Si3 0.900147 0.849820 0.599222
Si Si4 0.693458 0.353432 0.589437
Si Si5 0.692877 0.146292 0.915256
Si Si6 0.095679 0.146192 0.079522
O O1 0.000000 0.750000 0.136791
O O2 0.000000 0.597886 0.265755
O O3 0.049414 0.613431 0.021871
O O4 0.050459 0.144625 0.503262
O O5 0.000000 0.000000 0.500000
O O6 0.886342 0.750000 0.625683
O O7 0.850651 0.894448 0.521232
O O8 0.910577 0.892399 0.757354
O O9 0.690789 0.250000 0.592236
O O10 0.683527 0.388677 0.752094
O O11 0.749984 0.382614 0.532152
O O12 0.649520 0.390530 0.483374
O O13 0.688358 0.250000 0.914291
O O14 0.094247 0.250000 0.081824
#
# Coordination Sequence:
#
# PCOD8298855 Si02
#       6
#     8   8  16  16  16  16
#     4  10  19  34  55  76  99 134 171 204 244 300
#     4  12  25  38  52  72  96 128 167 210 256 302
#     4  10  19  33  52  75 101 130 164 208 254 299
#     4   8  13  23  39  69 107 136 162 197 241 290
#     4   8  14  24  43  70 103 136 164 197 241 288
#     4   9  17  28  48  77 107 133 163 203 249 296
#
# _framework density 21.773513999999999
#
# number of rings (size 3 to 8) (size 9 to 14) (size 15 to 20)
#    0.000    2.800    0.000    3.900    0.000    5.600 
#    0.000    6.000    0.000    0.000    0.000   11.200 
#    0.000    0.000    0.000    0.000    0.000    0.000 
#
# Total GULP energy -495810.473915 kJ/mol
# GULP energy per Si atom -12395.261848 kJ/mol
# Density = 2.172396 g / cm^3
# Si number density = 21.773514 Si / 1000 Ang^3
#
#
#
# Elastic Constant Matrix: (Units=GPa)
#
#
# Indices 1 2 3 4 5 6 
#
# 1 210.3022 -3.1979 115.7706 0.0000 0.0000 0.0000
# 2 -3.1979 12.5803 7.2758 0.0000 0.0000 0.0000
# 3 115.7706 7.2758 191.9345 0.0000 0.0000 0.0000
# 4 0.0000 0.0000 0.0000 8.0550 0.0000 0.0000
# 5 0.0000 0.0000 0.0000 0.0000 37.2927 0.0000
# 6 0.0000 0.0000 0.0000 0.0000 0.0000 -4.1613
#
#
#
# Elastic Compliance Matrix: (Units=1/GPa)
#
#
# Indices 1 2 3 4 5 6 
#
# 1 0.007364 0.004540 -0.004614 0.000000 0.000000 0.000000
# 2 0.004540 0.084071 -0.005926 0.000000 0.000000 0.000000
# 3 -0.004614 -0.005926 0.008218 0.000000 0.000000 0.000000
# 4 0.000000 0.000000 0.000000 0.124146 0.000000 0.000000
# 5 0.000000 0.000000 0.000000 0.000000 0.026815 0.000000
# 6 0.000000 0.000000 0.000000 0.000000 0.000000 -0.240311
#
#
# Mechanical properties :
#
#
# Convention : Reuss Voigt Hill
#
# Bulk Modulus (GPa) = 11.40847 72.72377 42.06612
# Shear Modulus (GPa) = 97.05316 27.90185 62.47750
#
# Velocity S-wave (km/s) = 6.68362 3.58363 5.36251
# Velocity P-wave (km/s) = 8.05059 7.11307 7.59631
#
# Compressibility (1/GPa) = 0.08765417
#
# Stress axis : x y z
#
# Youngs Moduli (GPa) = 135.79437 11.89476 121.68739
#
# Poissons Ratio (x) = -0.05401 0.56146
# Poissons Ratio (y) = -0.61657 0.72107
# Poissons Ratio (z) = 0.62655 0.07048
#
# Static dielectric constant tensor:
#      x y z
#    x 4.449840 0.000000 0.000000 
#    y 0.000000 3.120600 0.000000 
#    z 0.000000 0.000000 4.222480 
# 
# 
# High freq. dielectric constant tensor:
#      x y z
#    x 1.872220 0.000000 0.000000 
#    y 0.000000 1.789250 0.000000 
#    z 0.000000 0.000000 1.860820 
# 
# From -- ./inp_files/13668.got.cif
#   From: 2010.03.12/outbox.cif.g09.slc.cpg/sg74_7_cif.got.tgz:13668.got - 2010.04.16 15:46:19.
