data_PCOD8298626
_publ_section_title
;
Structure prediction by ZEFSAII (Michael W. Deem and Ramdas Pophale) SiO2 
 PCOD8298626
Probable space group: I M M A
;
_chemical_formula_sum "Si O2"
_cell_formula_units_Z 104
_cell_length_a 9.067275
_cell_length_b 21.646457
_cell_length_c 29.852410
_cell_angle_alpha 90.000000
_cell_angle_beta 90.000000
_cell_angle_gamma 90.000000
_cell_volume 5859.263216
_symmetry_space_group_name_H-M "I M M A"
_symmetry_group_IT_number 74
_symmetry_cell_setting 'orthorhombic'
loop_
_space_group_symop_operation_xyz
x,y,z
-x,1/2-y,z
x,-y,-z
-x,1/2+y,-z
-x,-y,-z
x,1/2+y,-z
-x,y,z
x,1/2-y,z
1/2+x,1/2+y,1/2+z
1/2-x,-y,1/2+z
1/2+x,1/2-y,1/2-z
1/2-x,y,1/2-z
1/2-x,1/2-y,1/2-z
1/2+x,y,1/2-z
1/2-x,1/2+y,1/2+z
1/2+x,-y,1/2+z
loop_
_atom_site_type_symbol
_atom_site_label
_atom_site_fract_x
_atom_site_fract_y
_atom_site_fract_z
Si Si1 0.672231 0.109897 0.204369
Si Si2 0.326156 0.750000 0.297596
Si Si3 0.666275 0.323514 0.036365
Si Si4 0.168336 0.323354 0.124261
Si Si5 0.327337 0.869584 0.352798
Si Si6 0.328350 0.533331 0.204500
Si Si7 0.329493 0.678725 0.448836
O O1 0.500000 0.124152 0.208728
O O2 0.750000 0.131112 0.250000
O O3 0.738516 0.149542 0.164632
O O4 0.703448 0.038174 0.194744
O O5 0.500000 0.750000 0.290734
O O6 0.250000 0.750000 0.250000
O O7 0.274900 0.809995 0.324997
O O8 0.500000 0.348592 0.040998
O O9 0.670128 0.250000 0.035852
O O10 0.761808 0.348259 0.078002
O O11 0.735206 0.348345 0.990044
O O12 0.178003 0.250000 0.126900
O O13 0.000000 0.346370 0.126983
O O14 0.500000 0.881432 0.345777
O O15 0.237145 0.929082 0.337020
O O16 0.289447 0.860186 0.404890
O O17 0.500000 0.547504 0.209816
O O18 0.250000 0.555390 0.250000
O O19 0.500000 0.671892 0.461792
O O20 0.291393 0.750000 0.438935
#
# Coordination Sequence:
#
# PCOD8298626 Si02
#       7
#    16   8  16  16  16  16  16
#     4  10  21  37  56  77 103 135 170 208 248 295
#     4  10  20  32  44  66  98 132 168 210 261 310
#     4   9  17  29  47  73 104 136 168 204 246 297
#     4  10  20  34  54  81 109 136 166 200 244 298
#     4  10  19  32  50  71  99 133 171 214 260 306
#     4  10  21  36  53  73  97 130 173 214 253 300
#     4   9  16  29  48  70  99 134 170 210 255 304
#
# _framework density 17.749670999999999
#
# number of rings (size 3 to 8) (size 9 to 14) (size 15 to 20)
#    0.000    2.308    0.769    2.308    0.000    7.385 
#    0.000    0.000    0.000    0.923    0.000    6.462 
#    0.000    0.000    0.000    0.000    0.000    0.000 
#
# Total GULP energy -644945.791000 kJ/mol
# GULP energy per Si atom -12402.803673 kJ/mol
# Density = 1.770927 g / cm^3
# Si number density = 17.749671 Si / 1000 Ang^3
#
#
#
# Elastic Constant Matrix: (Units=GPa)
#
#
# Indices 1 2 3 4 5 6 
#
# 1 103.5205 29.9060 67.1121 0.0000 0.0000 0.0000
# 2 29.9060 29.0969 33.1817 0.0000 0.0000 0.0000
# 3 67.1121 33.1817 139.6535 0.0000 0.0000 0.0000
# 4 0.0000 0.0000 0.0000 16.4465 0.0000 0.0000
# 5 0.0000 0.0000 0.0000 0.0000 38.2178 0.0000
# 6 0.0000 0.0000 0.0000 0.0000 0.0000 26.4042
#
#
#
# Elastic Compliance Matrix: (Units=1/GPa)
#
#
# Indices 1 2 3 4 5 6 
#
# 1 0.016108 -0.010601 -0.005222 0.000000 0.000000 0.000000
# 2 -0.010601 0.054117 -0.007764 0.000000 0.000000 0.000000
# 3 -0.005222 -0.007764 0.011515 0.000000 0.000000 0.000000
# 4 0.000000 0.000000 0.000000 0.060803 0.000000 0.000000
# 5 0.000000 0.000000 0.000000 0.000000 0.026166 0.000000
# 6 0.000000 0.000000 0.000000 0.000000 0.000000 0.037873
#
#
# Mechanical properties :
#
#
# Convention : Reuss Voigt Hill
#
# Bulk Modulus (GPa) = 28.92968 59.18563 44.05766
# Shear Modulus (GPa) = 18.84819 25.68511 22.26665
#
# Velocity S-wave (km/s) = 3.26220 3.80817 3.54571
# Velocity P-wave (km/s) = 5.52480 7.26314 6.45277
#
# Compressibility (1/GPa) = 0.03456657
#
# Stress axis : x y z
#
# Youngs Moduli (GPa) = 62.08186 18.47837 86.84422
#
# Poissons Ratio (x) = 0.19588 0.45351
# Poissons Ratio (y) = 0.65810 0.67427
# Poissons Ratio (z) = 0.32420 0.14347
#
# Static dielectric constant tensor:
#      x y z
#    x 3.398720 0.000000 0.000000 
#    y 0.000000 2.999740 0.000000 
#    z 0.000000 0.000000 3.419600 
# 
# 
# High freq. dielectric constant tensor:
#      x y z
#    x 1.696010 0.000000 0.000000 
#    y 0.000000 1.650930 0.000000 
#    z 0.000000 0.000000 1.697620 
# 
# From -- ./inp_files/64756.got.cif
#   From: 2010.03.12/outbox.cif.g09.slc.cpg/sg74_33_cif.got.tgz:64756.got - 2010.04.16 15:46:19.
