data_PCOD8298945
_publ_section_title
;
Structure prediction by ZEFSAII (Michael W. Deem and Ramdas Pophale) SiO2 
 PCOD8298945
Probable space group: I M M A
;
_chemical_formula_sum "Si O2"
_cell_formula_units_Z 104
_cell_length_a 19.041144
_cell_length_b 15.635300
_cell_length_c 18.795367
_cell_angle_alpha 90.000000
_cell_angle_beta 90.000000
_cell_angle_gamma 90.000000
_cell_volume 5595.643868
_symmetry_space_group_name_H-M "I M M A"
_symmetry_group_IT_number 74
_symmetry_cell_setting 'orthorhombic'
loop_
_space_group_symop_operation_xyz
x,y,z
-x,1/2-y,z
x,-y,-z
-x,1/2+y,-z
-x,-y,-z
x,1/2+y,-z
-x,y,z
x,1/2-y,z
1/2+x,1/2+y,1/2+z
1/2-x,-y,1/2+z
1/2+x,1/2-y,1/2-z
1/2-x,y,1/2-z
1/2-x,1/2-y,1/2-z
1/2+x,y,1/2-z
1/2-x,1/2+y,1/2+z
1/2+x,-y,1/2+z
loop_
_atom_site_type_symbol
_atom_site_label
_atom_site_fract_x
_atom_site_fract_y
_atom_site_fract_z
Si Si1 0.076981 0.750000 0.796138
Si Si2 0.175857 0.150744 0.976587
Si Si3 0.579751 0.150850 0.658570
Si Si4 0.671175 0.592255 0.868359
Si Si5 0.576399 0.250000 0.130784
Si Si6 0.829142 0.616040 0.866664
Si Si7 0.328967 0.527110 0.263839
Si Si8 0.718348 0.500000 0.000000
O O1 0.065094 0.750000 0.713817
O O2 0.122454 0.832216 0.813738
O O3 0.000000 0.750000 0.833974
O O4 0.202761 0.250000 0.972311
O O5 0.118231 0.133414 0.916339
O O6 0.141571 0.133031 0.054173
O O7 0.237855 0.081490 0.970664
O O8 0.500000 0.116744 0.651839
O O9 0.580716 0.250000 0.677481
O O10 0.617860 0.106023 0.726374
O O11 0.616285 0.664152 0.890820
O O12 0.746535 0.639976 0.859321
O O13 0.648841 0.539277 0.798002
O O14 0.670916 0.526461 0.933798
O O15 0.500000 0.250000 0.093045
O O16 0.833568 0.517995 0.841537
O O17 0.250000 0.561259 0.250000
#
# Coordination Sequence:
#
# PCOD8298945 Si02
#       8
#     8  16  16  16   8  16  16   8
#     4  11  21  31  47  85 127 154 185 220 267 345
#     4  10  19  34  55  80 122 157 189 241 273 328
#     4  10  22  38  55  78 115 163 201 232 279 336
#     4  10  21  37  62  83 114 143 185 247 293 342
#     4  11  23  37  57  85 115 148 185 230 297 365
#     4  10  19  33  54  87 116 150 194 228 278 336
#     4  10  20  35  57  82 110 147 191 249 287 331
#     4  10  22  38  60  94 112 138 196 244 296 350
#
# _framework density 18.585887
#
# number of rings (size 3 to 8) (size 9 to 14) (size 15 to 20)
#    0.000    1.846    2.308    3.231    3.231    2.769 
#    0.000    3.846    0.000    0.000    0.000    0.000 
#    0.000    0.000    0.000    0.000    0.000    0.000 
#
# Total GULP energy -644374.148801 kJ/mol
# GULP energy per Si atom -12391.810554 kJ/mol
# Density = 1.854358 g / cm^3
# Si number density = 18.585887 Si / 1000 Ang^3
#
#
#
# Elastic Constant Matrix: (Units=GPa)
#
#
# Indices 1 2 3 4 5 6 
#
# 1 103.8238 63.4310 42.3819 0.0000 0.0000 0.0000
# 2 63.4310 105.6016 52.2263 0.0000 0.0000 0.0000
# 3 42.3819 52.2263 82.1227 0.0000 0.0000 0.0000
# 4 0.0000 0.0000 0.0000 -197.8403 0.0000 0.0000
# 5 0.0000 0.0000 0.0000 0.0000 18.8141 0.0000
# 6 0.0000 0.0000 0.0000 0.0000 0.0000 10.9620
#
#
#
# Elastic Compliance Matrix: (Units=1/GPa)
#
#
# Indices 1 2 3 4 5 6 
#
# 1 0.015731 -0.007927 -0.003077 0.000000 0.000000 0.000000
# 2 -0.007927 0.017809 -0.007235 0.000000 0.000000 0.000000
# 3 -0.003077 -0.007235 0.018366 0.000000 0.000000 0.000000
# 4 0.000000 0.000000 0.000000 -0.005055 0.000000 0.000000
# 5 0.000000 0.000000 0.000000 0.000000 0.053152 0.000000
# 6 0.000000 0.000000 0.000000 0.000000 0.000000 0.091224
#
#
# Mechanical properties :
#
#
# Convention : Reuss Voigt Hill
#
# Bulk Modulus (GPa) = 64.81756 67.51407 66.16582
# Shear Modulus (GPa) = 21.47328 -24.71224 -1.61948
#
# Velocity S-wave (km/s) = 3.40274 -3.65036 -0.93447
# Velocity P-wave (km/s) = 7.09848 4.31712 5.87478
#
# Compressibility (1/GPa) = 0.01542792
#
# Stress axis : x y z
#
# Youngs Moduli (GPa) = 63.56913 56.15106 54.44885
#
# Poissons Ratio (x) = 0.44512 0.16754
# Poissons Ratio (y) = 0.50392 0.39392
# Poissons Ratio (z) = 0.19561 0.40624
#
# Static dielectric constant tensor:
#      x y z
#    x 3.454050 0.000000 0.000000 
#    y 0.000000 3.742130 0.000000 
#    z 0.000000 0.000000 3.417730 
# 
# 
# High freq. dielectric constant tensor:
#      x y z
#    x 1.698070 0.000000 0.000000 
#    y 0.000000 1.727070 0.000000 
#    z 0.000000 0.000000 1.716100 
# 
# From -- ./inp_files/53124.got.cif
#   From: 2010.03.12/outbox.cif.g09.slc.cpg/sg74_27_cif.got.tgz:53124.got - 2010.04.16 15:46:19.
