data_PCOD8298046
_publ_section_title
;
Structure prediction by ZEFSAII (Michael W. Deem and Ramdas Pophale) SiO2 
 PCOD8298046
Probable space group: I M M A
;
_chemical_formula_sum "Si O2"
_cell_formula_units_Z 96
_cell_length_a 13.434368
_cell_length_b 14.707461
_cell_length_c 21.785491
_cell_angle_alpha 90.000000
_cell_angle_beta 90.000000
_cell_angle_gamma 90.000000
_cell_volume 4304.495899
_symmetry_space_group_name_H-M "I M M A"
_symmetry_group_IT_number 74
_symmetry_cell_setting 'orthorhombic'
loop_
_space_group_symop_operation_xyz
x,y,z
-x,1/2-y,z
x,-y,-z
-x,1/2+y,-z
-x,-y,-z
x,1/2+y,-z
-x,y,z
x,1/2-y,z
1/2+x,1/2+y,1/2+z
1/2-x,-y,1/2+z
1/2+x,1/2-y,1/2-z
1/2-x,y,1/2-z
1/2-x,1/2-y,1/2-z
1/2+x,y,1/2-z
1/2-x,1/2+y,1/2+z
1/2+x,-y,1/2+z
loop_
_atom_site_type_symbol
_atom_site_label
_atom_site_fract_x
_atom_site_fract_y
_atom_site_fract_z
Si Si1 0.211074 0.144185 0.864942
Si Si2 0.610448 0.605079 0.485323
Si Si3 0.836522 0.848375 0.798865
Si Si4 0.615284 0.979011 0.121731
Si Si5 0.106849 0.967187 0.236425
Si Si6 0.222482 0.848377 0.576689
O O1 0.226618 0.250000 0.850892
O O2 0.122301 0.125154 0.912726
O O3 0.185811 0.094541 0.800215
O O4 0.312403 0.104472 0.896428
O O5 0.616042 0.500000 0.500000
O O6 0.500000 0.642144 0.504164
O O7 0.703244 0.651592 0.518822
O O8 0.889894 0.750000 0.788545
O O9 0.750000 0.861112 0.750000
O O10 0.793993 0.853977 0.866151
O O11 0.909867 0.933508 0.793743
O O12 0.500000 0.955865 0.107859
O O13 0.643439 0.069018 0.081908
O O14 0.637944 0.989870 0.193912
O O15 0.000000 0.916556 0.235025
O O16 0.166010 0.750000 0.575310
#
# Coordination Sequence:
#
# PCOD8298046 Si02
#       6
#    16  16  16  16  16  16
#     4  12  25  44  68  96 134 174 216 270 332 389
#     4  11  23  43  72 102 134 173 215 260 322 400
#     4  10  18  33  58  87 127 171 212 257 312 380
#     4  11  24  43  66  92 126 170 224 277 324 379
#     4  11  22  38  63  95 130 170 217 267 328 393
#     4  11  22  39  65  96 134 172 210 263 328 391
#
# _framework density 22.302264000000001
#
# number of rings (size 3 to 8) (size 9 to 14) (size 15 to 20)
#    0.000    1.000    5.000    1.500    0.000    6.667 
#    0.000    6.667    0.000    2.000    0.000    0.000 
#    0.000    0.000    0.000    0.000    0.000    0.000 
#
# Total GULP energy -594697.961444 kJ/mol
# GULP energy per Si atom -12389.540863 kJ/mol
# Density = 2.225150 g / cm^3
# Si number density = 22.302264 Si / 1000 Ang^3
#
#
#
# Elastic Constant Matrix: (Units=GPa)
#
#
# Indices 1 2 3 4 5 6 
#
# 1 117.3298 41.6497 15.4615 0.0000 0.0000 0.0000
# 2 41.6497 145.7236 2.2154 0.0000 0.0000 0.0000
# 3 15.4615 2.2154 64.2563 0.0000 0.0000 0.0000
# 4 0.0000 0.0000 0.0000 28.7410 0.0000 0.0000
# 5 0.0000 0.0000 0.0000 0.0000 17.6200 0.0000
# 6 0.0000 0.0000 0.0000 0.0000 0.0000 1.4527
#
#
#
# Elastic Compliance Matrix: (Units=1/GPa)
#
#
# Indices 1 2 3 4 5 6 
#
# 1 0.009804 -0.002768 -0.002264 0.000000 0.000000 0.000000
# 2 -0.002768 0.007647 0.000402 0.000000 0.000000 0.000000
# 3 -0.002264 0.000402 0.016093 0.000000 0.000000 0.000000
# 4 0.000000 0.000000 0.000000 0.034794 0.000000 0.000000
# 5 0.000000 0.000000 0.000000 0.000000 0.056754 0.000000
# 6 0.000000 0.000000 0.000000 0.000000 0.000000 0.688360
#
#
# Mechanical properties :
#
#
# Convention : Reuss Voigt Hill
#
# Bulk Modulus (GPa) = 41.17497 49.55144 45.36320
# Shear Modulus (GPa) = 6.01826 27.42829 16.72327
#
# Velocity S-wave (km/s) = 1.64449 3.51072 2.74130
# Velocity P-wave (km/s) = 4.70193 6.22092 5.51398
#
# Compressibility (1/GPa) = 0.02428660
#
# Stress axis : x y z
#
# Youngs Moduli (GPa) = 102.00211 130.76662 62.13699
#
# Poissons Ratio (x) = 0.36191 0.14065
# Poissons Ratio (y) = 0.28230 -0.02500
# Poissons Ratio (z) = 0.23089 -0.05261
#
# Static dielectric constant tensor:
#      x y z
#    x 3.883690 0.000000 0.000000 
#    y 0.000000 4.282330 0.000000 
#    z 0.000000 0.000000 3.670790 
# 
# 
# High freq. dielectric constant tensor:
#      x y z
#    x 1.863370 0.000000 0.000000 
#    y 0.000000 1.879070 0.000000 
#    z 0.000000 0.000000 1.876470 
# 
# From -- ./inp_files/51868.got.cif
#   From: 2010.03.12/outbox.cif.g09.slc.cpg/sg74_26_cif.got.tgz:51868.got - 2010.04.16 15:46:19.
