data_PCOD8298833
_publ_section_title
;
Structure prediction by ZEFSAII (Michael W. Deem and Ramdas Pophale) SiO2 
 PCOD8298833
Probable space group: I M M A
;
_chemical_formula_sum "Si O2"
_cell_formula_units_Z 88
_cell_length_a 21.954552
_cell_length_b 9.330149
_cell_length_c 24.566575
_cell_angle_alpha 90.000000
_cell_angle_beta 90.000000
_cell_angle_gamma 90.000000
_cell_volume 5032.198587
_symmetry_space_group_name_H-M "I M M A"
_symmetry_group_IT_number 74
_symmetry_cell_setting 'orthorhombic'
loop_
_space_group_symop_operation_xyz
x,y,z
-x,1/2-y,z
x,-y,-z
-x,1/2+y,-z
-x,-y,-z
x,1/2+y,-z
-x,y,z
x,1/2-y,z
1/2+x,1/2+y,1/2+z
1/2-x,-y,1/2+z
1/2+x,1/2-y,1/2-z
1/2-x,y,1/2-z
1/2-x,1/2-y,1/2-z
1/2+x,y,1/2-z
1/2-x,1/2+y,1/2+z
1/2+x,-y,1/2+z
loop_
_atom_site_type_symbol
_atom_site_label
_atom_site_fract_x
_atom_site_fract_y
_atom_site_fract_z
Si Si1 0.930198 0.084724 0.739858
Si Si2 0.880928 0.583001 0.376388
Si Si3 0.000000 0.082930 0.556079
Si Si4 0.929799 0.417680 0.155114
Si Si5 0.147849 0.084209 0.053296
Si Si6 0.710660 0.582668 0.945780
O O1 0.924279 0.250000 0.755811
O O2 0.890397 0.048353 0.687050
O O3 0.000000 0.044889 0.726679
O O4 0.905208 0.993721 0.790528
O O5 0.865322 0.750000 0.385285
O O6 0.941043 0.539203 0.409429
O O7 0.825233 0.484299 0.395206
O O8 0.000000 0.250000 0.542828
O O9 0.000000 0.000000 0.500000
O O10 0.920295 0.250000 0.163618
O O11 0.890742 0.474126 0.104188
O O12 0.000000 0.457707 0.144229
O O13 0.134062 0.250000 0.042464
O O14 0.218487 0.056906 0.065959
O O15 0.126330 0.000000 0.000000
O O16 0.695024 0.750000 0.952589
O O17 0.689558 0.500000 0.000000
#
# Coordination Sequence:
#
# PCOD8298833 Si02
#       6
#    16  16   8  16  16  16
#     4   9  17  32  52  73  99 132 166 203 248 294
#     4  10  19  33  51  71  98 131 167 207 250 291
#     4  10  20  32  46  68  98 128 159 204 253 290
#     4   9  18  33  53  77 103 129 160 202 248 295
#     4   9  19  35  53  74 102 132 162 200 247 296
#     4  10  20  34  51  71  97 132 169 204 246 296
#
# _framework density 17.487386000000001
#
# number of rings (size 3 to 8) (size 9 to 14) (size 15 to 20)
#    0.000    2.545    0.909    1.091    0.000    4.727 
#    0.000    0.909    0.000    5.455    0.000    0.000 
#    0.000    0.000    0.000    0.000    0.000    0.000 
#
# Total GULP energy -545724.043704 kJ/mol
# GULP energy per Si atom -12402.819175 kJ/mol
# Density = 1.744758 g / cm^3
# Si number density = 17.487386 Si / 1000 Ang^3
#
#
#
# Elastic Constant Matrix: (Units=GPa)
#
#
# Indices 1 2 3 4 5 6 
#
# 1 63.5063 42.4431 66.8501 0.0000 0.0000 0.0000
# 2 42.4431 70.2399 72.1199 0.0000 0.0000 0.0000
# 3 66.8501 72.1199 160.8114 0.0000 0.0000 0.0000
# 4 0.0000 0.0000 0.0000 36.8988 0.0000 0.0000
# 5 0.0000 0.0000 0.0000 0.0000 27.7195 0.0000
# 6 0.0000 0.0000 0.0000 0.0000 0.0000 23.6741
#
#
#
# Elastic Compliance Matrix: (Units=1/GPa)
#
#
# Indices 1 2 3 4 5 6 
#
# 1 0.031628 -0.010401 -0.008483 0.000000 0.000000 0.000000
# 2 -0.010401 0.029809 -0.009045 0.000000 0.000000 0.000000
# 3 -0.008483 -0.009045 0.013801 0.000000 0.000000 0.000000
# 4 0.000000 0.000000 0.000000 0.027101 0.000000 0.000000
# 5 0.000000 0.000000 0.000000 0.000000 0.036076 0.000000
# 6 0.000000 0.000000 0.000000 0.000000 0.000000 0.042240
#
#
# Mechanical properties :
#
#
# Convention : Reuss Voigt Hill
#
# Bulk Modulus (GPa) = 51.60027 73.04266 62.32146
# Shear Modulus (GPa) = 20.57849 25.20145 22.88997
#
# Velocity S-wave (km/s) = 3.43412 3.80033 3.62186
# Velocity P-wave (km/s) = 6.73019 7.81768 7.29423
#
# Compressibility (1/GPa) = 0.01937974
#
# Stress axis : x y z
#
# Youngs Moduli (GPa) = 31.61797 33.54733 72.45732
#
# Poissons Ratio (x) = 0.34893 0.61466
# Poissons Ratio (y) = 0.32886 0.65535
# Poissons Ratio (z) = 0.26822 0.30342
#
# Static dielectric constant tensor:
#      x y z
#    x 3.164700 0.000000 0.000000 
#    y 0.000000 3.206910 0.000000 
#    z 0.000000 0.000000 3.366050 
# 
# 
# High freq. dielectric constant tensor:
#      x y z
#    x 1.663410 0.000000 0.000000 
#    y 0.000000 1.673700 0.000000 
#    z 0.000000 0.000000 1.680130 
# 
# From -- ./inp_files/48729.got.cif
#   From: 2010.03.12/outbox.cif.g09.slc.cpg/sg74_25_cif.got.tgz:48729.got - 2010.04.16 15:46:19.
