data_PCOD8298873
_publ_section_title
;
Structure prediction by ZEFSAII (Michael W. Deem and Ramdas Pophale) SiO2 
 PCOD8298873
Probable space group: I M M A
;
_chemical_formula_sum "Si O2"
_cell_formula_units_Z 96
_cell_length_a 30.094136
_cell_length_b 9.092402
_cell_length_c 19.522576
_cell_angle_alpha 90.000000
_cell_angle_beta 90.000000
_cell_angle_gamma 90.000000
_cell_volume 5341.923081
_symmetry_space_group_name_H-M "I M M A"
_symmetry_group_IT_number 74
_symmetry_cell_setting 'orthorhombic'
loop_
_space_group_symop_operation_xyz
x,y,z
-x,1/2-y,z
x,-y,-z
-x,1/2+y,-z
-x,-y,-z
x,1/2+y,-z
-x,y,z
x,1/2-y,z
1/2+x,1/2+y,1/2+z
1/2-x,-y,1/2+z
1/2+x,1/2-y,1/2-z
1/2-x,y,1/2-z
1/2-x,1/2-y,1/2-z
1/2+x,y,1/2-z
1/2-x,1/2+y,1/2+z
1/2+x,-y,1/2+z
loop_
_atom_site_type_symbol
_atom_site_label
_atom_site_fract_x
_atom_site_fract_y
_atom_site_fract_z
Si Si1 0.632396 0.420137 0.212736
Si Si2 0.792482 0.923457 0.204736
Si Si3 0.734492 0.924057 0.569354
Si Si4 0.549905 0.419018 0.300729
Si Si5 0.447066 0.085121 0.565497
Si Si6 0.163059 0.080198 0.433547
O O1 0.647369 0.250000 0.222624
O O2 0.663701 0.526073 0.255948
O O3 0.581602 0.445211 0.235798
O O4 0.634705 0.464739 0.133018
O O5 0.794076 0.750000 0.191061
O O6 0.750000 0.968165 0.250000
O O7 0.792069 0.008419 0.132858
O O8 0.726399 0.750000 0.565704
O O9 0.786057 0.965443 0.579832
O O10 0.716643 0.000000 0.500000
O O11 0.500000 0.470214 0.280627
O O12 0.549697 0.250000 0.323754
O O13 0.569281 0.509095 0.364875
O O14 0.500000 0.082438 0.562725
O O15 0.428318 0.250000 0.563977
O O16 0.427217 0.000000 0.500000
O O17 0.159306 0.250000 0.450136
O O18 0.143165 0.000000 0.500000
#
# Coordination Sequence:
#
# PCOD8298873 Si02
#       6
#    16  16  16  16  16  16
#     4  10  20  35  54  77 104 137 175 213 260 311
#     4  11  22  34  51  77 107 137 171 211 256 307
#     4  10  19  33  53  75 105 141 177 214 256 306
#     4   9  18  33  53  76 102 133 172 217 261 306
#     4   9  16  27  46  71  98 128 164 206 252 302
#     4   9  18  31  50  75 101 132 170 210 252 303
#
# _framework density 17.971056999999998
#
# number of rings (size 3 to 8) (size 9 to 14) (size 15 to 20)
#    0.000    2.333    1.667    1.500    0.000    4.667 
#    0.000    0.833    0.000    4.500    0.000    0.000 
#    0.000    0.000    0.000    0.000    0.000    0.000 
#
# Total GULP energy -595271.338337 kJ/mol
# GULP energy per Si atom -12401.486215 kJ/mol
# Density = 1.793015 g / cm^3
# Si number density = 17.971057 Si / 1000 Ang^3
#
#
#
# Elastic Constant Matrix: (Units=GPa)
#
#
# Indices 1 2 3 4 5 6 
#
# 1 59.0792 28.3467 46.5744 0.0000 0.0000 0.0000
# 2 28.3467 83.3527 59.9259 0.0000 0.0000 0.0000
# 3 46.5744 59.9259 154.3549 0.0000 0.0000 0.0000
# 4 0.0000 0.0000 0.0000 35.1599 0.0000 0.0000
# 5 0.0000 0.0000 0.0000 0.0000 24.9974 0.0000
# 6 0.0000 0.0000 0.0000 0.0000 0.0000 14.9418
#
#
#
# Elastic Compliance Matrix: (Units=1/GPa)
#
#
# Indices 1 2 3 4 5 6 
#
# 1 0.023109 -0.003948 -0.005440 0.000000 0.000000 0.000000
# 2 -0.003948 0.017317 -0.005532 0.000000 0.000000 0.000000
# 3 -0.005440 -0.005532 0.010268 0.000000 0.000000 0.000000
# 4 0.000000 0.000000 0.000000 0.028442 0.000000 0.000000
# 5 0.000000 0.000000 0.000000 0.000000 0.040004 0.000000
# 6 0.000000 0.000000 0.000000 0.000000 0.000000 0.066926
#
#
# Mechanical properties :
#
#
# Convention : Reuss Voigt Hill
#
# Bulk Modulus (GPa) = 47.95197 62.94234 55.44715
# Shear Modulus (GPa) = 22.43589 25.81579 24.12584
#
# Velocity S-wave (km/s) = 3.53717 3.79426 3.66797
# Velocity P-wave (km/s) = 6.58960 7.36855 6.98994
#
# Compressibility (1/GPa) = 0.02085420
#
# Stress axis : x y z
#
# Youngs Moduli (GPa) = 43.27240 57.74721 97.39248
#
# Poissons Ratio (x) = 0.22798 0.52984
# Poissons Ratio (y) = 0.17083 0.53876
# Poissons Ratio (z) = 0.23541 0.31945
#
# Static dielectric constant tensor:
#      x y z
#    x 3.044570 0.000000 0.000000 
#    y 0.000000 3.375120 0.000000 
#    z 0.000000 0.000000 3.440130 
# 
# 
# High freq. dielectric constant tensor:
#      x y z
#    x 1.657540 0.000000 0.000000 
#    y 0.000000 1.701330 0.000000 
#    z 0.000000 0.000000 1.701480 
# 
# From -- ./inp_files/49086.got.cif
#   From: 2010.03.12/outbox.cif.g09.slc.cpg/sg74_25_cif.got.tgz:49086.got - 2010.04.16 15:46:19.
