data_PCOD8298910
_publ_section_title
;
Structure prediction by ZEFSAII (Michael W. Deem and Ramdas Pophale) SiO2 
 PCOD8298910
Probable space group: I M M A
;
_chemical_formula_sum "Si O2"
_cell_formula_units_Z 112
_cell_length_a 18.099803
_cell_length_b 18.958173
_cell_length_c 18.622106
_cell_angle_alpha 90.000000
_cell_angle_beta 90.000000
_cell_angle_gamma 90.000000
_cell_volume 6389.974491
_symmetry_space_group_name_H-M "I M M A"
_symmetry_group_IT_number 74
_symmetry_cell_setting 'orthorhombic'
loop_
_space_group_symop_operation_xyz
x,y,z
-x,1/2-y,z
x,-y,-z
-x,1/2+y,-z
-x,-y,-z
x,1/2+y,-z
-x,y,z
x,1/2-y,z
1/2+x,1/2+y,1/2+z
1/2-x,-y,1/2+z
1/2+x,1/2-y,1/2-z
1/2-x,y,1/2-z
1/2-x,1/2-y,1/2-z
1/2+x,y,1/2-z
1/2-x,1/2+y,1/2+z
1/2+x,-y,1/2+z
loop_
_atom_site_type_symbol
_atom_site_label
_atom_site_fract_x
_atom_site_fract_y
_atom_site_fract_z
Si Si1 0.712150 0.332589 0.586370
Si Si2 0.781529 0.420241 0.474626
Si Si3 0.081457 0.328682 0.479202
Si Si4 0.918532 0.827044 0.690698
Si Si5 0.683612 0.900588 0.194926
Si Si6 0.306384 0.057001 0.185797
Si Si7 0.084110 0.667045 0.193690
O O1 0.711358 0.250000 0.569964
O O2 0.715033 0.375703 0.511403
O O3 0.786806 0.352367 0.629979
O O4 0.637618 0.356154 0.628233
O O5 0.777084 0.500000 0.500000
O O6 0.858838 0.386754 0.502818
O O7 0.771730 0.413530 0.388550
O O8 0.104634 0.250000 0.505934
O O9 0.076587 0.328513 0.394251
O O10 0.000000 0.348291 0.510486
O O11 0.887726 0.750000 0.715462
O O12 0.867847 0.890612 0.717578
O O13 0.000000 0.838381 0.723701
O O14 0.750000 0.905637 0.250000
O O15 0.611462 0.866858 0.231643
O O16 0.661443 0.979158 0.168441
O O17 0.250000 0.051219 0.250000
O O18 0.089144 0.750000 0.204362
O O19 0.000000 0.642776 0.177382
#
# Coordination Sequence:
#
# PCOD8298910 Si02
#       7
#    16  16  16  16  16  16  16
#     4  10  19  33  54  77 105 142 178 214 264 318
#     4  11  20  32  50  75 102 139 176 215 258 309
#     4   8  15  29  47  67  95 129 165 203 245 300
#     4   8  15  29  48  68  93 128 167 206 252 301
#     4   9  17  31  50  76 104 137 169 208 261 315
#     4  10  20  33  51  75 103 134 171 219 264 308
#     4   9  18  33  55  82 110 141 178 218 261 317
#
# _framework density 17.527456000000001
#
# number of rings (size 3 to 8) (size 9 to 14) (size 15 to 20)
#    0.000    2.714    1.429    1.714    0.000    3.429 
#    0.000    0.714    0.000    3.857    0.000    2.000 
#    0.000    0.000    0.000    0.000    0.000    0.000 
#
# Total GULP energy -693952.768015 kJ/mol
# GULP energy per Si atom -12392.013715 kJ/mol
# Density = 1.748756 g / cm^3
# Si number density = 17.527456 Si / 1000 Ang^3
#
#
#
# Elastic Constant Matrix: (Units=GPa)
#
#
# Indices 1 2 3 4 5 6 
#
# 1 89.2525 44.1772 34.4779 0.0000 0.0000 0.0000
# 2 44.1772 95.1847 25.8548 0.0000 0.0000 0.0000
# 3 34.4779 25.8548 73.4739 0.0000 0.0000 0.0000
# 4 0.0000 0.0000 0.0000 15.0837 0.0000 0.0000
# 5 0.0000 0.0000 0.0000 0.0000 16.8653 0.0000
# 6 0.0000 0.0000 0.0000 0.0000 0.0000 22.9677
#
#
#
# Elastic Compliance Matrix: (Units=1/GPa)
#
#
# Indices 1 2 3 4 5 6 
#
# 1 0.016354 -0.006088 -0.005532 0.000000 0.000000 0.000000
# 2 -0.006088 0.013882 -0.002028 0.000000 0.000000 0.000000
# 3 -0.005532 -0.002028 0.016920 0.000000 0.000000 0.000000
# 4 0.000000 0.000000 0.000000 0.066297 0.000000 0.000000
# 5 0.000000 0.000000 0.000000 0.000000 0.059293 0.000000
# 6 0.000000 0.000000 0.000000 0.000000 0.000000 0.043539
#
#
# Mechanical properties :
#
#
# Convention : Reuss Voigt Hill
#
# Bulk Modulus (GPa) = 50.35187 51.88120 51.11654
# Shear Modulus (GPa) = 19.98378 21.21009 20.59694
#
# Velocity S-wave (km/s) = 3.38026 3.48243 3.43173
# Velocity P-wave (km/s) = 6.63511 6.77008 6.70294
#
# Compressibility (1/GPa) = 0.01986024
#
# Stress axis : x y z
#
# Youngs Moduli (GPa) = 61.14529 72.03417 59.10157
#
# Poissons Ratio (x) = 0.43853 0.32696
# Poissons Ratio (y) = 0.37224 0.11988
# Poissons Ratio (z) = 0.33827 0.14611
#
# Static dielectric constant tensor:
#      x y z
#    x 3.405020 0.000000 0.000000 
#    y 0.000000 3.562720 0.000000 
#    z 0.000000 0.000000 3.115500 
# 
# 
# High freq. dielectric constant tensor:
#      x y z
#    x 1.656070 0.000000 0.000000 
#    y 0.000000 1.688380 0.000000 
#    z 0.000000 0.000000 1.652610 
# 
# From -- ./inp_files/53262.got.cif
#   From: 2010.03.12/outbox.cif.g09.slc.cpg/sg74_27_cif.got.tgz:53262.got - 2010.04.16 15:46:19.
