data_PCOD8298581
_publ_section_title
;
Structure prediction by ZEFSAII (Michael W. Deem and Ramdas Pophale) SiO2 
 PCOD8298581
Probable space group: I M M A
;
_chemical_formula_sum "Si O2"
_cell_formula_units_Z 80
_cell_length_a 8.771713
_cell_length_b 23.633805
_cell_length_c 25.710499
_cell_angle_alpha 90.000000
_cell_angle_beta 90.000000
_cell_angle_gamma 90.000000
_cell_volume 5330.016669
_symmetry_space_group_name_H-M "I M M A"
_symmetry_group_IT_number 74
_symmetry_cell_setting 'orthorhombic'
loop_
_space_group_symop_operation_xyz
x,y,z
-x,1/2-y,z
x,-y,-z
-x,1/2+y,-z
-x,-y,-z
x,1/2+y,-z
-x,y,z
x,1/2-y,z
1/2+x,1/2+y,1/2+z
1/2-x,-y,1/2+z
1/2+x,1/2-y,1/2-z
1/2-x,y,1/2-z
1/2-x,1/2-y,1/2-z
1/2+x,y,1/2-z
1/2-x,1/2+y,1/2+z
1/2+x,-y,1/2+z
loop_
_atom_site_type_symbol
_atom_site_label
_atom_site_fract_x
_atom_site_fract_y
_atom_site_fract_z
Si Si1 0.176542 0.250000 0.636566
Si Si2 0.179142 0.865674 0.306382
Si Si3 0.679476 0.750000 0.475132
Si Si4 0.821088 0.430165 0.897172
Si Si5 0.319291 0.134490 0.993396
Si Si6 0.668339 0.530375 0.944938
O O1 0.218452 0.195695 0.670641
O O2 0.278577 0.250000 0.585400
O O3 0.000000 0.250000 0.619435
O O4 0.250000 0.870288 0.250000
O O5 0.256304 0.914250 0.341009
O O6 0.000000 0.876465 0.303787
O O7 0.500000 0.750000 0.481478
O O8 0.747904 0.695529 0.504299
O O9 0.743850 0.389606 0.939351
O O10 0.783316 0.496451 0.907605
O O11 0.000000 0.420706 0.899382
O O12 0.500000 0.138839 0.987091
O O13 0.274931 0.094306 0.042534
O O14 0.500000 0.530970 0.919141
O O15 0.657955 0.500000 0.000000
#
# Coordination Sequence:
#
# PCOD8298581 Si02
#       6
#     8  16   8  16  16  16
#     4  10  21  35  49  60  82 119 151 187 233 273
#     4  11  22  35  49  64  85 115 153 193 234 274
#     4  12  22  29  45  68  91 117 150 189 226 265
#     4  11  20  30  46  67  88 111 144 186 228 268
#     4  10  19  32  47  63  87 117 149 180 220 269
#     4   8  16  30  47  64  83 112 144 177 219 268
#
# _framework density 15.009334000000001
#
# number of rings (size 3 to 8) (size 9 to 14) (size 15 to 20)
#    0.000    1.800    2.000    5.400    0.000    5.200 
#    0.000    0.000    0.000    0.000    0.000    0.000 
#    0.000    0.000    0.000    0.900    0.000   11.800 
#
# Total GULP energy -495982.413027 kJ/mol
# GULP energy per Si atom -12399.560326 kJ/mol
# Density = 1.497517 g / cm^3
# Si number density = 15.009334 Si / 1000 Ang^3
#
#
#
# Elastic Constant Matrix: (Units=GPa)
#
#
# Indices 1 2 3 4 5 6 
#
# 1 104.8062 56.9604 34.9461 0.0000 0.0000 0.0000
# 2 56.9604 123.2599 51.1132 0.0000 0.0000 0.0000
# 3 34.9461 51.1132 50.6265 0.0000 0.0000 0.0000
# 4 0.0000 0.0000 0.0000 18.1850 0.0000 0.0000
# 5 0.0000 0.0000 0.0000 0.0000 21.6582 0.0000
# 6 0.0000 0.0000 0.0000 0.0000 0.0000 22.1849
#
#
#
# Elastic Compliance Matrix: (Units=1/GPa)
#
#
# Indices 1 2 3 4 5 6 
#
# 1 0.013491 -0.004081 -0.005192 0.000000 0.000000 0.000000
# 2 -0.004081 0.015190 -0.012519 0.000000 0.000000 0.000000
# 3 -0.005192 -0.012519 0.035976 0.000000 0.000000 0.000000
# 4 0.000000 0.000000 0.000000 0.054990 0.000000 0.000000
# 5 0.000000 0.000000 0.000000 0.000000 0.046172 0.000000
# 6 0.000000 0.000000 0.000000 0.000000 0.000000 0.045076
#
#
# Mechanical properties :
#
#
# Convention : Reuss Voigt Hill
#
# Bulk Modulus (GPa) = 47.45545 62.74800 55.10173
# Shear Modulus (GPa) = 19.12021 21.45048 20.28534
#
# Velocity S-wave (km/s) = 3.57303 3.78450 3.68028
# Velocity P-wave (km/s) = 6.97911 7.80982 7.40612
#
# Compressibility (1/GPa) = 0.02107239
#
# Stress axis : x y z
#
# Youngs Moduli (GPa) = 74.12540 65.83073 27.79653
#
# Poissons Ratio (x) = 0.26868 0.14431
# Poissons Ratio (y) = 0.30254 0.34799
# Poissons Ratio (z) = 0.38483 0.82415
#
# Static dielectric constant tensor:
#      x y z
#    x 2.968810 0.000000 0.000000 
#    y 0.000000 3.415940 0.000000 
#    z 0.000000 0.000000 2.643390 
# 
# 
# High freq. dielectric constant tensor:
#      x y z
#    x 1.588660 0.000000 0.000000 
#    y 0.000000 1.573790 0.000000 
#    z 0.000000 0.000000 1.527320 
# 
# From -- ./inp_files/64199.got.cif
#   From: 2010.03.12/outbox.cif.g09.slc.cpg/sg74_33_cif.got.tgz:64199.got - 2010.04.16 15:46:19.
