data_PCOD8298474
_publ_section_title
;
Structure prediction by ZEFSAII (Michael W. Deem and Ramdas Pophale) SiO2 
 PCOD8298474
Probable space group: I M M A
;
_chemical_formula_sum "Si O2"
_cell_formula_units_Z 104
_cell_length_a 8.812652
_cell_length_b 22.368663
_cell_length_c 29.768841
_cell_angle_alpha 90.000000
_cell_angle_beta 90.000000
_cell_angle_gamma 90.000000
_cell_volume 5868.249545
_symmetry_space_group_name_H-M "I M M A"
_symmetry_group_IT_number 74
_symmetry_cell_setting 'orthorhombic'
loop_
_space_group_symop_operation_xyz
x,y,z
-x,1/2-y,z
x,-y,-z
-x,1/2+y,-z
-x,-y,-z
x,1/2+y,-z
-x,y,z
x,1/2-y,z
1/2+x,1/2+y,1/2+z
1/2-x,-y,1/2+z
1/2+x,1/2-y,1/2-z
1/2-x,y,1/2-z
1/2-x,1/2-y,1/2-z
1/2+x,y,1/2-z
1/2-x,1/2+y,1/2+z
1/2+x,-y,1/2+z
loop_
_atom_site_type_symbol
_atom_site_label
_atom_site_fract_x
_atom_site_fract_y
_atom_site_fract_z
Si Si1 0.676679 0.469736 0.796351
Si Si2 0.824176 0.179628 0.942504
Si Si3 0.679877 0.094700 0.297372
Si Si4 0.824507 0.854933 0.353655
Si Si5 0.329337 0.178965 0.033077
Si Si6 0.821916 0.818328 0.876374
Si Si7 0.178630 0.250000 0.798727
O O1 0.500000 0.482252 0.787752
O O2 0.750000 0.446382 0.750000
O O3 0.756766 0.530448 0.812432
O O4 0.703277 0.420952 0.834683
O O5 0.793713 0.250000 0.936812
O O6 0.729101 0.144649 0.905033
O O7 0.000000 0.164121 0.937130
O O8 0.768088 0.155991 0.990806
O O9 0.500000 0.091338 0.292910
O O10 0.750000 0.114737 0.250000
O O11 0.731698 0.143151 0.333947
O O12 0.726419 0.808678 0.325365
O O13 0.000000 0.836186 0.350532
O O14 0.500000 0.154584 0.028483
O O15 0.325010 0.250000 0.033914
O O16 0.257881 0.154868 0.079304
O O17 0.772630 0.750000 0.867284
O O18 0.000000 0.823197 0.884548
O O19 0.250000 0.250000 0.750000
O O20 0.000000 0.250000 0.793411
#
# Coordination Sequence:
#
# PCOD8298474 Si02
#       7
#    16  16  16  16  16  16   8
#     4  10  21  36  54  74  97 132 174 215 256 301
#     4  10  19  31  49  74 103 136 171 209 257 309
#     4  10  20  34  54  77 103 137 172 210 252 298
#     4  11  22  35  52  74 101 133 171 217 262 307
#     4   9  17  29  48  74 103 136 170 207 251 301
#     4   9  18  33  52  77 108 138 169 205 250 304
#     4  12  24  36  50  72 102 136 170 212 267 316
#
# _framework density 17.722491000000002
#
# number of rings (size 3 to 8) (size 9 to 14) (size 15 to 20)
#    0.000    2.000    0.769    4.385    0.000    7.692 
#    0.000    0.000    0.000    0.923    0.000    6.462 
#    0.000    0.000    0.000    0.000    0.000    0.000 
#
# Total GULP energy -644941.422561 kJ/mol
# GULP energy per Si atom -12402.719665 kJ/mol
# Density = 1.768215 g / cm^3
# Si number density = 17.722491 Si / 1000 Ang^3
#
#
#
# Elastic Constant Matrix: (Units=GPa)
#
#
# Indices 1 2 3 4 5 6 
#
# 1 108.4262 40.8281 63.7174 0.0000 0.0000 0.0000
# 2 40.8281 66.3250 64.0809 0.0000 0.0000 0.0000
# 3 63.7174 64.0809 151.9776 0.0000 0.0000 0.0000
# 4 0.0000 0.0000 0.0000 18.8582 0.0000 0.0000
# 5 0.0000 0.0000 0.0000 0.0000 36.0734 0.0000
# 6 0.0000 0.0000 0.0000 0.0000 0.0000 21.2482
#
#
#
# Elastic Compliance Matrix: (Units=1/GPa)
#
#
# Indices 1 2 3 4 5 6 
#
# 1 0.013029 -0.004628 -0.003511 0.000000 0.000000 0.000000
# 2 -0.004628 0.027086 -0.009480 0.000000 0.000000 0.000000
# 3 -0.003511 -0.009480 0.012049 0.000000 0.000000 0.000000
# 4 0.000000 0.000000 0.000000 0.053027 0.000000 0.000000
# 5 0.000000 0.000000 0.000000 0.000000 0.027721 0.000000
# 6 0.000000 0.000000 0.000000 0.000000 0.000000 0.047063
#
#
# Mechanical properties :
#
#
# Convention : Reuss Voigt Hill
#
# Bulk Modulus (GPa) = 59.08362 73.77574 66.42968
# Shear Modulus (GPa) = 22.63922 25.77611 24.20766
#
# Velocity S-wave (km/s) = 3.57799 3.81784 3.69986
# Velocity P-wave (km/s) = 7.10492 7.82005 7.47105
#
# Compressibility (1/GPa) = 0.01692516
#
# Stress axis : x y z
#
# Youngs Moduli (GPa) = 76.75291 36.91981 82.99252
#
# Poissons Ratio (x) = 0.17087 0.29139
# Poissons Ratio (y) = 0.35521 0.78679
# Poissons Ratio (z) = 0.26948 0.35001
#
# Static dielectric constant tensor:
#      x y z
#    x 3.439420 0.000000 0.000000 
#    y 0.000000 3.055540 0.000000 
#    z 0.000000 0.000000 3.570610 
# 
# 
# High freq. dielectric constant tensor:
#      x y z
#    x 1.702280 0.000000 0.000000 
#    y 0.000000 1.650500 0.000000 
#    z 0.000000 0.000000 1.695190 
# 
# From -- ./inp_files/70548.got.cif
#   From: 2010.03.12/outbox.cif.g09.slc.cpg/sg74_36_cif.got.tgz:70548.got - 2010.04.16 15:46:19.
