data_PCOD8298575
_publ_section_title
;
Structure prediction by ZEFSAII (Michael W. Deem and Ramdas Pophale) SiO2 
 PCOD8298575
Probable space group: I M M A
;
_chemical_formula_sum "Si O2"
_cell_formula_units_Z 104
_cell_length_a 31.988521
_cell_length_b 9.475302
_cell_length_c 20.606989
_cell_angle_alpha 90.000000
_cell_angle_beta 90.000000
_cell_angle_gamma 90.000000
_cell_volume 6245.996851
_symmetry_space_group_name_H-M "I M M A"
_symmetry_group_IT_number 74
_symmetry_cell_setting 'orthorhombic'
loop_
_space_group_symop_operation_xyz
x,y,z
-x,1/2-y,z
x,-y,-z
-x,1/2+y,-z
-x,-y,-z
x,1/2+y,-z
-x,y,z
x,1/2-y,z
1/2+x,1/2+y,1/2+z
1/2-x,-y,1/2+z
1/2+x,1/2-y,1/2-z
1/2-x,y,1/2-z
1/2-x,1/2-y,1/2-z
1/2+x,y,1/2-z
1/2-x,1/2+y,1/2+z
1/2+x,-y,1/2+z
loop_
_atom_site_type_symbol
_atom_site_label
_atom_site_fract_x
_atom_site_fract_y
_atom_site_fract_z
Si Si1 0.071039 0.413479 0.661280
Si Si2 0.688015 0.584313 0.563078
Si Si3 0.454107 0.412202 0.281912
Si Si4 0.349511 0.916089 0.828135
Si Si5 0.784556 0.412909 0.437332
Si Si6 0.000000 0.405298 0.560728
Si Si7 0.136195 0.586139 0.817164
O O1 0.080185 0.250000 0.677736
O O2 0.047544 0.484278 0.721417
O O3 0.112898 0.495236 0.641278
O O4 0.041494 0.432566 0.600714
O O5 0.672843 0.500000 0.500000
O O6 0.679714 0.750000 0.551691
O O7 0.736451 0.553308 0.577601
O O8 0.661862 0.518538 0.623378
O O9 0.500000 0.433567 0.316259
O O10 0.449731 0.250000 0.258095
O O11 0.413600 0.447256 0.326665
O O12 0.359891 0.750000 0.830822
O O13 0.308889 0.953289 0.871033
O O14 0.345861 0.966471 0.752645
O O15 0.800555 0.500000 0.500000
O O16 0.791680 0.250000 0.454857
O O17 0.000000 0.500000 0.500000
O O18 0.000000 0.250000 0.532525
O O19 0.145374 0.750000 0.821391
#
# Coordination Sequence:
#
# PCOD8298575 Si02
#       7
#    16  16  16  16  16   8  16
#     4  10  19  32  46  64  90 118 149 189 235 276
#     4   9  17  31  50  70  94 125 156 191 233 280
#     4   9  16  28  49  72  92 118 150 186 229 277
#     4   9  18  32  48  69  93 119 156 197 235 278
#     4   9  18  31  48  68  92 124 160 195 235 281
#     4  10  22  34  44  60  84 116 155 192 227 270
#     4   8  15  28  47  72  96 118 154 196 233 275
#
# _framework density 16.650665
#
# number of rings (size 3 to 8) (size 9 to 14) (size 15 to 20)
#    0.000    2.923    0.769    1.385    0.000    3.077 
#    0.000    9.231    0.000    0.462    0.000    8.615 
#    0.000    0.000    0.000    0.000    0.000    0.000 
#
# Total GULP energy -644345.606853 kJ/mol
# GULP energy per Si atom -12391.261670 kJ/mol
# Density = 1.661277 g / cm^3
# Si number density = 16.650665 Si / 1000 Ang^3
#
#
#
# Elastic Constant Matrix: (Units=GPa)
#
#
# Indices 1 2 3 4 5 6 
#
# 1 113.2077 40.4800 78.4131 0.0000 0.0000 0.0000
# 2 40.4800 58.0033 45.9278 0.0000 0.0000 0.0000
# 3 78.4131 45.9278 118.7523 0.0000 0.0000 0.0000
# 4 0.0000 0.0000 0.0000 23.1331 0.0000 0.0000
# 5 0.0000 0.0000 0.0000 0.0000 34.8866 0.0000
# 6 0.0000 0.0000 0.0000 0.0000 0.0000 17.8839
#
#
#
# Elastic Compliance Matrix: (Units=1/GPa)
#
#
# Indices 1 2 3 4 5 6 
#
# 1 0.016987 -0.004286 -0.009559 0.000000 0.000000 0.000000
# 2 -0.004286 0.025932 -0.007199 0.000000 0.000000 0.000000
# 3 -0.009559 -0.007199 0.017517 0.000000 0.000000 0.000000
# 4 0.000000 0.000000 0.000000 0.043228 0.000000 0.000000
# 5 0.000000 0.000000 0.000000 0.000000 0.028664 0.000000
# 6 0.000000 0.000000 0.000000 0.000000 0.000000 0.055916
#
#
# Mechanical properties :
#
#
# Convention : Reuss Voigt Hill
#
# Bulk Modulus (GPa) = 54.50307 68.84502 61.67404
# Shear Modulus (GPa) = 21.14623 23.52355 22.33489
#
# Velocity S-wave (km/s) = 3.56756 3.76276 3.66646
# Velocity P-wave (km/s) = 7.05509 7.76623 7.41919
#
# Compressibility (1/GPa) = 0.01834759
#
# Stress axis : x y z
#
# Youngs Moduli (GPa) = 58.86900 38.56237 57.08746
#
# Poissons Ratio (x) = 0.16528 0.54569
# Poissons Ratio (y) = 0.25232 0.41098
# Poissons Ratio (z) = 0.56272 0.27761
#
# Static dielectric constant tensor:
#      x y z
#    x 3.336380 0.000000 0.000000 
#    y 0.000000 3.062480 0.000000 
#    z 0.000000 0.000000 3.076460 
# 
# 
# High freq. dielectric constant tensor:
#      x y z
#    x 1.647970 0.000000 0.000000 
#    y 0.000000 1.629470 0.000000 
#    z 0.000000 0.000000 1.619560 
# 
# From -- ./inp_files/49631.got.cif
#   From: 2010.03.12/outbox.cif.g09.slc.cpg/sg74_25_cif.got.tgz:49631.got - 2010.04.16 15:46:19.
