data_PCOD8298979
_publ_section_title
;
Structure prediction by ZEFSAII (Michael W. Deem and Ramdas Pophale) SiO2 
 PCOD8298979
Probable space group: I M M A
;
_chemical_formula_sum "Si O2"
_cell_formula_units_Z 96
_cell_length_a 24.418865
_cell_length_b 8.946213
_cell_length_c 22.446607
_cell_angle_alpha 90.000000
_cell_angle_beta 90.000000
_cell_angle_gamma 90.000000
_cell_volume 4903.604228
_symmetry_space_group_name_H-M "I M M A"
_symmetry_group_IT_number 74
_symmetry_cell_setting 'orthorhombic'
loop_
_space_group_symop_operation_xyz
x,y,z
-x,1/2-y,z
x,-y,-z
-x,1/2+y,-z
-x,-y,-z
x,1/2+y,-z
-x,y,z
x,1/2-y,z
1/2+x,1/2+y,1/2+z
1/2-x,-y,1/2+z
1/2+x,1/2-y,1/2-z
1/2-x,y,1/2-z
1/2-x,1/2-y,1/2-z
1/2+x,y,1/2-z
1/2-x,1/2+y,1/2+z
1/2+x,-y,1/2+z
loop_
_atom_site_type_symbol
_atom_site_label
_atom_site_fract_x
_atom_site_fract_y
_atom_site_fract_z
Si Si1 0.500000 0.427681 0.289272
Si Si2 0.891591 0.427007 0.829051
Si Si3 0.193747 0.076450 0.596411
Si Si4 0.087342 0.573579 0.558822
Si Si5 0.184853 0.925832 0.061688
Si Si6 0.500000 0.073254 0.153783
Si Si7 0.807812 0.923573 0.266776
O O1 0.500000 0.250000 0.289014
O O2 0.551451 0.486971 0.326419
O O3 0.500000 0.492568 0.221079
O O4 0.902039 0.250000 0.825704
O O5 0.859680 0.472245 0.889128
O O6 0.856401 0.489745 0.773298
O O7 0.186819 0.250000 0.579544
O O8 0.254778 0.019010 0.581631
O O9 0.179492 0.048144 0.664944
O O10 0.150405 0.978056 0.560717
O O11 0.060499 0.500000 0.500000
O O12 0.084073 0.750000 0.552070
O O13 0.053758 0.519280 0.617240
O O14 0.185872 0.750000 0.053274
O O15 0.167146 0.000000 0.000000
O O16 0.500000 0.250000 0.158313
O O17 0.803297 0.750000 0.249826
O O18 0.750000 0.000676 0.250000
#
# Coordination Sequence:
#
# PCOD8298979 Si02
#       7
#     8  16  16  16  16   8  16
#     4  11  23  40  61  85 114 146 178 225 286 341
#     4  10  20  37  60  86 113 145 186 230 274 327
#     4  10  19  33  55  85 116 148 183 225 278 333
#     4  11  22  37  55  77 109 151 194 235 273 319
#     4  10  21  36  56  81 113 148 183 225 276 330
#     4   9  21  40  58  77 109 148 185 229 282 329
#     4   9  15  29  56  86 113 142 181 228 276 324
#
# _framework density 19.577438000000001
#
# number of rings (size 3 to 8) (size 9 to 14) (size 15 to 20)
#    0.000    2.000    1.667    2.500    0.000    2.667 
#    0.000    4.167    0.000    1.000    0.000    0.000 
#    0.000    0.000    0.000    0.000    0.000    0.000 
#
# Total GULP energy -595183.857887 kJ/mol
# GULP energy per Si atom -12399.663706 kJ/mol
# Density = 1.953288 g / cm^3
# Si number density = 19.577438 Si / 1000 Ang^3
#
#
#
# Elastic Constant Matrix: (Units=GPa)
#
#
# Indices 1 2 3 4 5 6 
#
# 1 144.9848 34.5774 66.2034 0.0000 0.0000 0.0000
# 2 34.5774 42.9795 39.9768 0.0000 0.0000 0.0000
# 3 66.2034 39.9768 119.6509 0.0000 0.0000 0.0000
# 4 0.0000 0.0000 0.0000 28.1148 0.0000 0.0000
# 5 0.0000 0.0000 0.0000 0.0000 22.6347 0.0000
# 6 0.0000 0.0000 0.0000 0.0000 0.0000 22.2680
#
#
#
# Elastic Compliance Matrix: (Units=1/GPa)
#
#
# Indices 1 2 3 4 5 6 
#
# 1 0.009698 -0.004079 -0.004003 0.000000 0.000000 0.000000
# 2 -0.004079 0.035473 -0.009595 0.000000 0.000000 0.000000
# 3 -0.004003 -0.009595 0.013779 0.000000 0.000000 0.000000
# 4 0.000000 0.000000 0.000000 0.035568 0.000000 0.000000
# 5 0.000000 0.000000 0.000000 0.000000 0.044180 0.000000
# 6 0.000000 0.000000 0.000000 0.000000 0.000000 0.044908
#
#
# Mechanical properties :
#
#
# Convention : Reuss Voigt Hill
#
# Bulk Modulus (GPa) = 42.38108 65.45891 53.91999
# Shear Modulus (GPa) = 22.04346 25.72734 23.88540
#
# Velocity S-wave (km/s) = 3.35918 3.62903 3.49671
# Velocity P-wave (km/s) = 6.06138 7.14621 6.62603
#
# Compressibility (1/GPa) = 0.02359544
#
# Stress axis : x y z
#
# Youngs Moduli (GPa) = 103.11482 28.19041 72.57655
#
# Poissons Ratio (x) = 0.11498 0.29054
# Poissons Ratio (y) = 0.42056 0.69639
# Poissons Ratio (z) = 0.41279 0.27050
#
# Static dielectric constant tensor:
#      x y z
#    x 3.631590 0.000000 0.000000 
#    y 0.000000 3.166840 0.000000 
#    z 0.000000 0.000000 3.759480 
# 
# 
# High freq. dielectric constant tensor:
#      x y z
#    x 1.768160 0.000000 0.000000 
#    y 0.000000 1.727000 0.000000 
#    z 0.000000 0.000000 1.771030 
# 
# From -- ./inp_files/61960.got.cif
#   From: 2010.03.12/outbox.cif.g09.slc.cpg/sg74_31_cif.got.tgz:61960.got - 2010.04.16 15:46:19.
