data_PCOD8298509
_publ_section_title
;
Structure prediction by ZEFSAII (Michael W. Deem and Ramdas Pophale) SiO2 
 PCOD8298509
Probable space group: I M M A
;
_chemical_formula_sum "Si O2"
_cell_formula_units_Z 96
_cell_length_a 25.175483
_cell_length_b 18.259936
_cell_length_c 11.017770
_cell_angle_alpha 90.000000
_cell_angle_beta 90.000000
_cell_angle_gamma 90.000000
_cell_volume 5064.898709
_symmetry_space_group_name_H-M "I M M A"
_symmetry_group_IT_number 74
_symmetry_cell_setting 'orthorhombic'
loop_
_space_group_symop_operation_xyz
x,y,z
-x,1/2-y,z
x,-y,-z
-x,1/2+y,-z
-x,-y,-z
x,1/2+y,-z
-x,y,z
x,1/2-y,z
1/2+x,1/2+y,1/2+z
1/2-x,-y,1/2+z
1/2+x,1/2-y,1/2-z
1/2-x,y,1/2-z
1/2-x,1/2-y,1/2-z
1/2+x,y,1/2-z
1/2-x,1/2+y,1/2+z
1/2+x,-y,1/2+z
loop_
_atom_site_type_symbol
_atom_site_label
_atom_site_fract_x
_atom_site_fract_y
_atom_site_fract_z
Si Si1 0.874388 0.951307 0.180303
Si Si2 0.844236 0.595430 0.930166
Si Si3 0.938414 0.535685 0.629397
Si Si4 0.235098 0.831244 0.561590
Si Si5 0.693637 0.168526 0.803476
Si Si6 0.366484 0.166439 0.199913
O O1 0.848526 0.891630 0.266327
O O2 0.837783 0.021188 0.148878
O O3 0.924795 0.981814 0.256390
O O4 0.883289 0.913523 0.047482
O O5 0.784037 0.615332 0.966222
O O6 0.871393 0.656864 0.845457
O O7 0.924425 0.500000 0.500000
O O8 0.906515 0.611938 0.632440
O O9 0.000000 0.554758 0.639561
O O10 0.258659 0.750000 0.583919
O O11 0.195505 0.831542 0.447861
O O12 0.195750 0.853484 0.671695
O O13 0.677542 0.250000 0.755624
O O14 0.750000 0.145694 0.750000
O O15 0.380015 0.250000 0.162709
#
# Coordination Sequence:
#
# PCOD8298509 Si02
#       6
#    16  16  16  16  16  16
#     4  10  21  36  52  80 113 148 191 233 280 341
#     4  10  20  34  49  80 119 154 184 219 279 338
#     4  10  22  42  65  85 108 144 192 251 309 347
#     4  10  19  33  52  78 115 154 189 228 274 334
#     4  10  19  31  50  76 108 148 187 225 273 331
#     4  10  21  36  57  86 115 150 195 239 287 344
#
# _framework density 18.953983000000001
#
# number of rings (size 3 to 8) (size 9 to 14) (size 15 to 20)
#    0.000    2.000    1.667    2.000    0.000    5.000 
#    3.000    6.667    0.000    1.500    0.000    0.000 
#    0.000    0.000    0.000    0.000    0.000    0.000 
#
# Total GULP energy -594773.746344 kJ/mol
# GULP energy per Si atom -12391.119715 kJ/mol
# Density = 1.891084 g / cm^3
# Si number density = 18.953983 Si / 1000 Ang^3
#
#
#
# Elastic Constant Matrix: (Units=GPa)
#
#
# Indices 1 2 3 4 5 6 
#
# 1 73.6194 47.0528 31.0335 0.0000 0.0000 0.0000
# 2 47.0528 86.6161 33.9772 0.0000 0.0000 0.0000
# 3 31.0335 33.9772 100.9024 0.0000 0.0000 0.0000
# 4 0.0000 0.0000 0.0000 31.8996 0.0000 0.0000
# 5 0.0000 0.0000 0.0000 0.0000 25.1410 0.0000
# 6 0.0000 0.0000 0.0000 0.0000 0.0000 19.0731
#
#
#
# Elastic Compliance Matrix: (Units=1/GPa)
#
#
# Indices 1 2 3 4 5 6 
#
# 1 0.021620 -0.010527 -0.003105 0.000000 0.000000 0.000000
# 2 -0.010527 0.018428 -0.002968 0.000000 0.000000 0.000000
# 3 -0.003105 -0.002968 0.011865 0.000000 0.000000 0.000000
# 4 0.000000 0.000000 0.000000 0.031348 0.000000 0.000000
# 5 0.000000 0.000000 0.000000 0.000000 0.039776 0.000000
# 6 0.000000 0.000000 0.000000 0.000000 0.000000 0.052430
#
#
# Mechanical properties :
#
#
# Convention : Reuss Voigt Hill
#
# Bulk Modulus (GPa) = 53.43508 53.91832 53.67670
# Shear Modulus (GPa) = 23.26624 25.16104 24.21364
#
# Velocity S-wave (km/s) = 3.50739 3.64741 3.57809
# Velocity P-wave (km/s) = 6.68248 6.80051 6.74175
#
# Compressibility (1/GPa) = 0.01871430
#
# Stress axis : x y z
#
# Youngs Moduli (GPa) = 46.25282 54.26546 84.28322
#
# Poissons Ratio (x) = 0.57125 0.26168
# Poissons Ratio (y) = 0.48690 0.25012
# Poissons Ratio (z) = 0.14360 0.16104
#
# Static dielectric constant tensor:
#      x y z
#    x 3.027380 0.000000 0.000000 
#    y 0.000000 3.628030 0.000000 
#    z 0.000000 0.000000 3.839570 
# 
# 
# High freq. dielectric constant tensor:
#      x y z
#    x 1.683780 0.000000 0.000000 
#    y 0.000000 1.744240 0.000000 
#    z 0.000000 0.000000 1.760070 
# 
# From -- ./inp_files/22444.got.cif
#   From: 2010.03.12/outbox.cif.g09.slc.cpg/sg74_12_cif.got.tgz:22444.got - 2010.04.16 15:46:19.
