data_PCOD8298455
_publ_section_title
;
Structure prediction by ZEFSAII (Michael W. Deem and Ramdas Pophale) SiO2 
 PCOD8298455
Probable space group: I M M A
;
_chemical_formula_sum "Si O2"
_cell_formula_units_Z 96
_cell_length_a 22.840414
_cell_length_b 9.231049
_cell_length_c 24.573983
_cell_angle_alpha 90.000000
_cell_angle_beta 90.000000
_cell_angle_gamma 90.000000
_cell_volume 5181.202678
_symmetry_space_group_name_H-M "I M M A"
_symmetry_group_IT_number 74
_symmetry_cell_setting 'orthorhombic'
loop_
_space_group_symop_operation_xyz
x,y,z
-x,1/2-y,z
x,-y,-z
-x,1/2+y,-z
-x,-y,-z
x,1/2+y,-z
-x,y,z
x,1/2-y,z
1/2+x,1/2+y,1/2+z
1/2-x,-y,1/2+z
1/2+x,1/2-y,1/2-z
1/2-x,y,1/2-z
1/2-x,1/2-y,1/2-z
1/2+x,y,1/2-z
1/2-x,1/2+y,1/2+z
1/2+x,-y,1/2+z
loop_
_atom_site_type_symbol
_atom_site_label
_atom_site_fract_x
_atom_site_fract_y
_atom_site_fract_z
Si Si1 0.433543 0.591724 0.650805
Si Si2 0.430111 0.587919 0.448491
Si Si3 0.932812 0.579847 0.444211
Si Si4 0.766899 0.913705 0.812781
Si Si5 0.841069 0.581516 0.350782
Si Si6 0.626531 0.081769 0.727846
O O1 0.500000 0.617566 0.634824
O O2 0.402833 0.750000 0.655924
O O3 0.404046 0.495741 0.603539
O O4 0.431337 0.501836 0.707628
O O5 0.406663 0.500000 0.500000
O O6 0.500000 0.594975 0.447481
O O7 0.404114 0.750000 0.449841
O O8 0.915074 0.500000 0.500000
O O9 0.926947 0.750000 0.454577
O O10 0.888175 0.530625 0.396265
O O11 0.000000 0.540528 0.427563
O O12 0.776983 0.750000 0.833865
O O13 0.750000 0.912668 0.750000
O O14 0.718285 0.987225 0.852294
O O15 0.825147 0.010207 0.812587
O O16 0.824925 0.750000 0.358437
O O17 0.868765 0.553919 0.291690
O O18 0.624365 0.250000 0.714421
#
# Coordination Sequence:
#
# PCOD8298455 Si02
#       6
#    16  16  16  16  16  16
#     4  10  20  32  45  65  96 130 162 199 244 293
#     4   9  16  27  44  64  85 113 152 193 230 271
#     4   9  18  33  52  75 104 137 173 214 258 305
#     4   9  17  30  49  72  97 124 157 197 240 289
#     4   9  18  32  51  74  99 129 166 206 249 300
#     4  10  19  31  49  72  99 131 166 205 251 304
#
# _framework density 18.528517000000001
#
# number of rings (size 3 to 8) (size 9 to 14) (size 15 to 20)
#    0.000    2.667    0.000    2.000    0.000    7.000 
#    0.000    1.667    0.000    3.000    0.000    4.667 
#    0.000    0.000    0.000    0.000    0.000    0.000 
#
# Total GULP energy -594747.012038 kJ/mol
# GULP energy per Si atom -12390.562751 kJ/mol
# Density = 1.848634 g / cm^3
# Si number density = 18.528517 Si / 1000 Ang^3
#
#
#
# Elastic Constant Matrix: (Units=GPa)
#
#
# Indices 1 2 3 4 5 6 
#
# 1 57.6447 29.5265 43.9603 0.0000 0.0000 0.0000
# 2 29.5265 135.5943 66.4712 0.0000 0.0000 0.0000
# 3 43.9603 66.4712 102.5783 0.0000 0.0000 0.0000
# 4 0.0000 0.0000 0.0000 31.1994 0.0000 0.0000
# 5 0.0000 0.0000 0.0000 0.0000 30.1778 0.0000
# 6 0.0000 0.0000 0.0000 0.0000 0.0000 24.0040
#
#
#
# Elastic Compliance Matrix: (Units=1/GPa)
#
#
# Indices 1 2 3 4 5 6 
#
# 1 0.025777 -0.000290 -0.010859 0.000000 0.000000 0.000000
# 2 -0.000290 0.010812 -0.006882 0.000000 0.000000 0.000000
# 3 -0.010859 -0.006882 0.018862 0.000000 0.000000 0.000000
# 4 0.000000 0.000000 0.000000 0.032052 0.000000 0.000000
# 5 0.000000 0.000000 0.000000 0.000000 0.033137 0.000000
# 6 0.000000 0.000000 0.000000 0.000000 0.000000 0.041660
#
#
# Mechanical properties :
#
#
# Convention : Reuss Voigt Hill
#
# Bulk Modulus (GPa) = 51.57488 63.97036 57.77262
# Shear Modulus (GPa) = 24.41116 27.46685 25.93900
#
# Velocity S-wave (km/s) = 3.63366 3.85438 3.74565
# Velocity P-wave (km/s) = 6.74541 7.37622 7.06786
#
# Compressibility (1/GPa) = 0.01938928
#
# Stress axis : x y z
#
# Youngs Moduli (GPa) = 38.79366 92.49274 53.01694
#
# Poissons Ratio (x) = 0.02680 0.57572
# Poissons Ratio (y) = 0.01124 0.36485
# Poissons Ratio (z) = 0.42127 0.63652
#
# Static dielectric constant tensor:
#      x y z
#    x 3.327950 0.000000 0.000000 
#    y 0.000000 3.679410 0.000000 
#    z 0.000000 0.000000 3.325060 
# 
# 
# High freq. dielectric constant tensor:
#      x y z
#    x 1.690760 0.000000 0.000000 
#    y 0.000000 1.734820 0.000000 
#    z 0.000000 0.000000 1.703980 
# 
# From -- ./inp_files/55072.got.cif
#   From: 2010.03.12/outbox.cif.g09.slc.cpg/sg74_28_cif.got.tgz:55072.got - 2010.04.16 15:46:19.
