data_PCOD8298932
_publ_section_title
;
Structure prediction by ZEFSAII (Michael W. Deem and Ramdas Pophale) SiO2 
 PCOD8298932
Probable space group: I M M A
;
_chemical_formula_sum "Si O2"
_cell_formula_units_Z 104
_cell_length_a 20.613766
_cell_length_b 8.863936
_cell_length_c 29.873498
_cell_angle_alpha 90.000000
_cell_angle_beta 90.000000
_cell_angle_gamma 90.000000
_cell_volume 5458.458744
_symmetry_space_group_name_H-M "I M M A"
_symmetry_group_IT_number 74
_symmetry_cell_setting 'orthorhombic'
loop_
_space_group_symop_operation_xyz
x,y,z
-x,1/2-y,z
x,-y,-z
-x,1/2+y,-z
-x,-y,-z
x,1/2+y,-z
-x,y,z
x,1/2-y,z
1/2+x,1/2+y,1/2+z
1/2-x,-y,1/2+z
1/2+x,1/2-y,1/2-z
1/2-x,y,1/2-z
1/2-x,1/2-y,1/2-z
1/2+x,y,1/2-z
1/2-x,1/2+y,1/2+z
1/2+x,-y,1/2+z
loop_
_atom_site_type_symbol
_atom_site_label
_atom_site_fract_x
_atom_site_fract_y
_atom_site_fract_z
Si Si1 0.754566 0.570097 0.545125
Si Si2 0.631220 0.073102 0.706538
Si Si3 0.257715 0.427066 0.635990
Si Si4 0.642693 0.081929 0.804383
Si Si5 0.500000 0.992914 0.809327
Si Si6 0.395697 0.930086 0.044362
Si Si7 0.500000 0.586299 0.903118
Si Si8 0.000000 0.082091 0.208258
O O1 0.721370 0.500000 0.500000
O O2 0.755482 0.750000 0.541119
O O3 0.720852 0.517165 0.591154
O O4 0.825641 0.501191 0.549080
O O5 0.618157 0.250000 0.711644
O O6 0.686708 0.035287 0.671483
O O7 0.651989 0.005395 0.755300
O O8 0.563851 0.000975 0.689950
O O9 0.253673 0.250000 0.623986
O O10 0.189167 0.490478 0.656983
O O11 0.670752 0.250000 0.800957
O O12 0.566050 0.089352 0.815388
O O13 0.500000 0.876385 0.850345
O O14 0.500000 0.908969 0.762192
O O15 0.391923 0.750000 0.042612
O O16 0.437498 0.985172 0.086063
O O17 0.429209 0.000000 0.000000
O O18 0.500000 0.750000 0.927593
O O19 0.000000 0.250000 0.188785
#
# Coordination Sequence:
#
# PCOD8298932 Si02
#       8
#    16  16  16  16   8  16   8   8
#     4  11  22  37  55  75 101 133 170 212 261 314
#     4   9  18  33  54  79 107 141 178 214 256 310
#     4  10  19  33  54  80 109 139 175 219 264 310
#     4   9  17  30  50  76 106 141 181 221 260 306
#     4  10  20  31  47  69 101 142 179 217 260 306
#     4  11  22  37  53  69  91 123 166 215 268 317
#     4  12  23  34  47  67  95 128 171 219 267 315
#     4  10  20  35  53  74 104 138 172 212 256 305
#
# _framework density 19.052997000000001
#
# number of rings (size 3 to 8) (size 9 to 14) (size 15 to 20)
#    0.000    1.846    0.000    6.231    0.000    6.769 
#    0.000    3.077    0.000    4.615    0.000    0.538 
#    0.000    0.000    0.000    0.000    0.000    0.000 
#
# Total GULP energy -644321.974366 kJ/mol
# GULP energy per Si atom -12390.807199 kJ/mol
# Density = 1.900963 g / cm^3
# Si number density = 19.052997 Si / 1000 Ang^3
#
#
#
# Elastic Constant Matrix: (Units=GPa)
#
#
# Indices 1 2 3 4 5 6 
#
# 1 84.2913 27.1200 42.4740 0.0000 0.0000 0.0000
# 2 27.1200 111.8438 40.4518 0.0000 0.0000 0.0000
# 3 42.4740 40.4518 117.7740 0.0000 0.0000 0.0000
# 4 0.0000 0.0000 0.0000 23.6530 0.0000 0.0000
# 5 0.0000 0.0000 0.0000 0.0000 16.1017 0.0000
# 6 0.0000 0.0000 0.0000 0.0000 0.0000 15.5534
#
#
#
# Elastic Compliance Matrix: (Units=1/GPa)
#
#
# Indices 1 2 3 4 5 6 
#
# 1 0.014843 -0.001899 -0.004701 0.000000 0.000000 0.000000
# 2 -0.001899 0.010452 -0.002905 0.000000 0.000000 0.000000
# 3 -0.004701 -0.002905 0.011184 0.000000 0.000000 0.000000
# 4 0.000000 0.000000 0.000000 0.042278 0.000000 0.000000
# 5 0.000000 0.000000 0.000000 0.000000 0.062105 0.000000
# 6 0.000000 0.000000 0.000000 0.000000 0.000000 0.064295
#
#
# Mechanical properties :
#
#
# Convention : Reuss Voigt Hill
#
# Bulk Modulus (GPa) = 57.24256 59.33341 58.28799
# Shear Modulus (GPa) = 21.74001 24.65251 23.19626
#
# Velocity S-wave (km/s) = 3.38158 3.60097 3.49300
# Velocity P-wave (km/s) = 6.73467 6.96406 6.85033
#
# Compressibility (1/GPa) = 0.01746952
#
# Stress axis : x y z
#
# Youngs Moduli (GPa) = 67.37024 95.67309 89.41350
#
# Poissons Ratio (x) = 0.18168 0.42032
# Poissons Ratio (y) = 0.12794 0.25976
# Poissons Ratio (z) = 0.31670 0.27795
#
# Static dielectric constant tensor:
#      x y z
#    x 3.285310 0.000000 0.000000 
#    y 0.000000 3.304150 0.000000 
#    z 0.000000 0.000000 3.647390 
# 
# 
# High freq. dielectric constant tensor:
#      x y z
#    x 1.713830 0.000000 0.000000 
#    y 0.000000 1.727070 0.000000 
#    z 0.000000 0.000000 1.742440 
# 
# From -- ./inp_files/73457.got.cif
#   From: 2010.03.12/outbox.cif.g09.slc.cpg/sg74_37_cif.got.tgz:73457.got - 2010.04.16 15:46:19.
