data_PCOD8298069
_publ_section_title
;
Structure prediction by ZEFSAII (Michael W. Deem and Ramdas Pophale) SiO2 
 PCOD8298069
Probable space group: I M M A
;
_chemical_formula_sum "Si O2"
_cell_formula_units_Z 96
_cell_length_a 8.695033
_cell_length_b 20.428065
_cell_length_c 29.115510
_cell_angle_alpha 90.000000
_cell_angle_beta 90.000000
_cell_angle_gamma 90.000000
_cell_volume 5171.575478
_symmetry_space_group_name_H-M "I M M A"
_symmetry_group_IT_number 74
_symmetry_cell_setting 'orthorhombic'
loop_
_space_group_symop_operation_xyz
x,y,z
-x,1/2-y,z
x,-y,-z
-x,1/2+y,-z
-x,-y,-z
x,1/2+y,-z
-x,y,z
x,1/2-y,z
1/2+x,1/2+y,1/2+z
1/2-x,-y,1/2+z
1/2+x,1/2-y,1/2-z
1/2-x,y,1/2-z
1/2-x,1/2-y,1/2-z
1/2+x,y,1/2-z
1/2-x,1/2+y,1/2+z
1/2+x,-y,1/2+z
loop_
_atom_site_type_symbol
_atom_site_label
_atom_site_fract_x
_atom_site_fract_y
_atom_site_fract_z
Si Si1 0.182048 0.922440 0.300846
Si Si2 0.322813 0.680023 0.798703
Si Si3 0.317340 0.944241 0.850696
Si Si4 0.317538 0.176136 0.879437
Si Si5 0.180266 0.946482 0.948101
Si Si6 0.681661 0.912719 0.035990
O O1 0.250000 0.913202 0.250000
O O2 0.240740 0.864559 0.334875
O O3 0.000000 0.920951 0.296050
O O4 0.236285 0.990563 0.323835
O O5 0.500000 0.664985 0.791906
O O6 0.297065 0.750000 0.824951
O O7 0.250000 0.686486 0.750000
O O8 0.251757 0.617935 0.823681
O O9 0.500000 0.946102 0.859187
O O10 0.230438 0.930559 0.897350
O O11 0.500000 0.178466 0.878461
O O12 0.249626 0.250000 0.877438
O O13 0.264728 0.142176 0.927283
O O14 0.000000 0.936657 0.955243
O O15 0.225276 0.021663 0.954659
O O16 0.269831 0.896698 0.983342
O O17 0.500000 0.925318 0.040500
#
# Coordination Sequence:
#
# PCOD8298069 Si02
#       6
#    16  16  16  16  16  16
#     4  10  20  34  52  77 106 138 178 224 267 311
#     4   9  18  32  51  74 102 136 175 216 259 314
#     4  10  19  34  53  76 105 141 179 214 260 314
#     4   9  18  34  56  79 105 140 182 222 261 312
#     4  11  21  32  52  81 109 132 167 216 264 308
#     4  10  18  34  57  78 103 137 174 209 257 312
#
# _framework density 18.563008
#
# number of rings (size 3 to 8) (size 9 to 14) (size 15 to 20)
#    0.000    2.167    1.667    3.500    0.000    1.667 
#    0.000    0.833    0.000    9.000    0.000    0.000 
#    0.000    0.000    0.000    0.000    0.000    0.000 
#
# Total GULP energy -594717.656553 kJ/mol
# GULP energy per Si atom -12389.951178 kJ/mol
# Density = 1.852076 g / cm^3
# Si number density = 18.563008 Si / 1000 Ang^3
#
#
#
# Elastic Constant Matrix: (Units=GPa)
#
#
# Indices 1 2 3 4 5 6 
#
# 1 28.7787 22.0066 27.1832 0.0000 0.0000 0.0000
# 2 22.0066 147.7630 84.6049 0.0000 0.0000 0.0000
# 3 27.1832 84.6049 155.2453 0.0000 0.0000 0.0000
# 4 0.0000 0.0000 0.0000 29.7657 0.0000 0.0000
# 5 0.0000 0.0000 0.0000 0.0000 29.7193 0.0000
# 6 0.0000 0.0000 0.0000 0.0000 0.0000 11.5954
#
#
#
# Elastic Compliance Matrix: (Units=1/GPa)
#
#
# Indices 1 2 3 4 5 6 
#
# 1 0.042535 -0.003009 -0.005808 0.000000 0.000000 0.000000
# 2 -0.003009 0.010050 -0.004950 0.000000 0.000000 0.000000
# 3 -0.005808 -0.004950 0.010156 0.000000 0.000000 0.000000
# 4 0.000000 0.000000 0.000000 0.033596 0.000000 0.000000
# 5 0.000000 0.000000 0.000000 0.000000 0.033648 0.000000
# 6 0.000000 0.000000 0.000000 0.000000 0.000000 0.086241
#
#
# Mechanical properties :
#
#
# Convention : Reuss Voigt Hill
#
# Bulk Modulus (GPa) = 28.40381 66.59737 47.50059
# Shear Modulus (GPa) = 19.56976 27.41558 23.49267
#
# Velocity S-wave (km/s) = 3.25042 3.84721 3.56134
# Velocity P-wave (km/s) = 5.42416 7.46250 6.52344
#
# Compressibility (1/GPa) = 0.03520654
#
# Stress axis : x y z
#
# Youngs Moduli (GPa) = 23.51003 99.50169 98.46368
#
# Poissons Ratio (x) = 0.29945 0.57185
# Poissons Ratio (y) = 0.07075 0.48740
# Poissons Ratio (z) = 0.13654 0.49254
#
# Static dielectric constant tensor:
#      x y z
#    x 4.326030 0.000000 0.000000 
#    y 0.000000 3.914910 0.000000 
#    z 0.000000 0.000000 4.283700 
# 
# 
# High freq. dielectric constant tensor:
#      x y z
#    x 1.698840 0.000000 0.000000 
#    y 0.000000 1.712600 0.000000 
#    z 0.000000 0.000000 1.731470 
# 
# From -- ./inp_files/64329.got.cif
#   From: 2010.03.12/outbox.cif.g09.slc.cpg/sg74_33_cif.got.tgz:64329.got - 2010.04.16 15:46:19.
