data_PCOD8298655
_publ_section_title
;
Structure prediction by ZEFSAII (Michael W. Deem and Ramdas Pophale) SiO2 
 PCOD8298655
Probable space group: I M M A
;
_chemical_formula_sum "Si O2"
_cell_formula_units_Z 88
_cell_length_a 30.505720
_cell_length_b 9.273642
_cell_length_c 17.675180
_cell_angle_alpha 90.000000
_cell_angle_beta 90.000000
_cell_angle_gamma 90.000000
_cell_volume 5000.292978
_symmetry_space_group_name_H-M "I M M A"
_symmetry_group_IT_number 74
_symmetry_cell_setting 'orthorhombic'
loop_
_space_group_symop_operation_xyz
x,y,z
-x,1/2-y,z
x,-y,-z
-x,1/2+y,-z
-x,-y,-z
x,1/2+y,-z
-x,y,z
x,1/2-y,z
1/2+x,1/2+y,1/2+z
1/2-x,-y,1/2+z
1/2+x,1/2-y,1/2-z
1/2-x,y,1/2-z
1/2-x,1/2-y,1/2-z
1/2+x,y,1/2-z
1/2-x,1/2+y,1/2+z
1/2+x,-y,1/2+z
loop_
_atom_site_type_symbol
_atom_site_label
_atom_site_fract_x
_atom_site_fract_y
_atom_site_fract_z
Si Si1 0.200591 0.580793 0.237081
Si Si2 0.091782 0.414140 0.134226
Si Si3 0.500000 0.585746 0.575536
Si Si4 0.549935 0.419801 0.077841
Si Si5 0.122657 0.416006 0.301466
Si Si6 0.332237 0.919459 0.427844
O O1 0.194647 0.750000 0.250213
O O2 0.250000 0.528799 0.250000
O O3 0.168469 0.504231 0.298221
O O4 0.191680 0.537666 0.150040
O O5 0.103022 0.250000 0.110136
O O6 0.100341 0.440307 0.221511
O O7 0.118330 0.522030 0.080066
O O8 0.041340 0.453683 0.126216
O O9 0.500000 0.750000 0.550670
O O10 0.500000 0.500000 0.500000
O O11 0.500000 0.456157 0.105737
O O12 0.554336 0.250000 0.064303
O O13 0.587147 0.472864 0.137224
O O14 0.560172 0.500000 0.000000
O O15 0.134369 0.250000 0.317422
O O16 0.331688 0.750000 0.442874
O O17 0.309943 0.000000 0.500000
#
# Coordination Sequence:
#
# PCOD8298655 Si02
#       6
#    16  16   8  16  16  16
#     4   9  19  36  55  74  99 131 164 203 255 308
#     4   9  18  31  47  68  94 126 162 198 237 280
#     4  10  20  30  42  62  91 126 158 190 229 272
#     4   9  18  32  51  75 104 138 173 211 255 305
#     4   9  18  32  52  76  99 127 166 208 249 294
#     4  10  19  32  51  72  95 124 160 198 240 289
#
# _framework density 17.598969
#
# number of rings (size 3 to 8) (size 9 to 14) (size 15 to 20)
#    0.000    2.727    0.000    1.091    1.273    4.000 
#    0.000    0.909    0.000    4.364    0.000    0.000 
#    0.000    0.000    0.000    0.000    0.000    0.000 
#
# Total GULP energy -545376.072248 kJ/mol
# GULP energy per Si atom -12394.910733 kJ/mol
# Density = 1.755891 g / cm^3
# Si number density = 17.598969 Si / 1000 Ang^3
#
#
#
# Elastic Constant Matrix: (Units=GPa)
#
#
# Indices 1 2 3 4 5 6 
#
# 1 141.8530 46.9559 59.6141 0.0000 0.0000 0.0000
# 2 46.9559 55.0857 40.3503 0.0000 0.0000 0.0000
# 3 59.6141 40.3503 90.0324 0.0000 0.0000 0.0000
# 4 0.0000 0.0000 0.0000 30.2227 0.0000 0.0000
# 5 0.0000 0.0000 0.0000 0.0000 20.7806 0.0000
# 6 0.0000 0.0000 0.0000 0.0000 0.0000 26.1333
#
#
#
# Elastic Compliance Matrix: (Units=1/GPa)
#
#
# Indices 1 2 3 4 5 6 
#
# 1 0.010952 -0.005990 -0.004567 0.000000 0.000000 0.000000
# 2 -0.005990 0.030302 -0.009614 0.000000 0.000000 0.000000
# 3 -0.004567 -0.009614 0.018440 0.000000 0.000000 0.000000
# 4 0.000000 0.000000 0.000000 0.033088 0.000000 0.000000
# 5 0.000000 0.000000 0.000000 0.000000 0.048122 0.000000
# 6 0.000000 0.000000 0.000000 0.000000 0.000000 0.038265
#
#
# Mechanical properties :
#
#
# Convention : Reuss Voigt Hill
#
# Bulk Modulus (GPa) = 51.67699 64.53464 58.10581
# Shear Modulus (GPa) = 22.12763 24.76403 23.44583
#
# Velocity S-wave (km/s) = 3.54973 3.75524 3.65393
# Velocity P-wave (km/s) = 6.79913 7.45330 7.13371
#
# Compressibility (1/GPa) = 0.01935097
#
# Stress axis : x y z
#
# Youngs Moduli (GPa) = 91.31050 33.00098 54.22996
#
# Poissons Ratio (x) = 0.19768 0.24766
# Poissons Ratio (y) = 0.54696 0.52139
# Poissons Ratio (z) = 0.41701 0.31728
#
# Static dielectric constant tensor:
#      x y z
#    x 3.407660 0.000000 0.000000 
#    y 0.000000 3.179610 0.000000 
#    z 0.000000 0.000000 3.205920 
# 
# 
# High freq. dielectric constant tensor:
#      x y z
#    x 1.675590 0.000000 0.000000 
#    y 0.000000 1.676010 0.000000 
#    z 0.000000 0.000000 1.677460 
# 
# From -- ./inp_files/40135.got.cif
#   From: 2010.03.12/outbox.cif.g09.slc.cpg/sg74_21_cif.got.tgz:40135.got - 2010.04.16 15:46:19.
