data_PCOD8298187
_publ_section_title
;
Structure prediction by ZEFSAII (Michael W. Deem and Ramdas Pophale) SiO2 
 PCOD8298187
Probable space group: I M M A
;
_chemical_formula_sum "Si O2"
_cell_formula_units_Z 104
_cell_length_a 21.473088
_cell_length_b 9.384616
_cell_length_c 30.469793
_cell_angle_alpha 90.000000
_cell_angle_beta 90.000000
_cell_angle_gamma 90.000000
_cell_volume 6140.171685
_symmetry_space_group_name_H-M "I M M A"
_symmetry_group_IT_number 74
_symmetry_cell_setting 'orthorhombic'
loop_
_space_group_symop_operation_xyz
x,y,z
-x,1/2-y,z
x,-y,-z
-x,1/2+y,-z
-x,-y,-z
x,1/2+y,-z
-x,y,z
x,1/2-y,z
1/2+x,1/2+y,1/2+z
1/2-x,-y,1/2+z
1/2+x,1/2-y,1/2-z
1/2-x,y,1/2-z
1/2-x,1/2-y,1/2-z
1/2+x,y,1/2-z
1/2-x,1/2+y,1/2+z
1/2+x,-y,1/2+z
loop_
_atom_site_type_symbol
_atom_site_label
_atom_site_fract_x
_atom_site_fract_y
_atom_site_fract_z
Si Si1 0.000000 0.409935 0.042897
Si Si2 0.166079 0.591011 0.707564
Si Si3 0.350977 0.911384 0.126896
Si Si4 0.704001 0.087182 0.616087
Si Si5 0.813339 0.089294 0.196676
Si Si6 0.427697 0.416220 0.956622
Si Si7 0.134297 0.417005 0.045562
O O1 0.934645 0.436900 0.068458
O O2 0.000000 0.250000 0.025229
O O3 0.000000 0.500000 0.000000
O O4 0.140139 0.750000 0.701078
O O5 0.131268 0.493879 0.671675
O O6 0.153514 0.540344 0.757805
O O7 0.239539 0.588758 0.701219
O O8 0.372257 0.750000 0.134600
O O9 0.277969 0.923024 0.118369
O O10 0.388254 0.973725 0.085016
O O11 0.681898 0.250000 0.610155
O O12 0.669399 0.023539 0.658999
O O13 0.685724 0.989788 0.575408
O O14 0.835077 0.250000 0.184094
O O15 0.500000 0.445921 0.946739
O O16 0.414359 0.250000 0.964879
O O17 0.405688 0.500000 0.000000
O O18 0.150447 0.250000 0.038932
O O19 0.135812 0.500000 0.000000
#
# Coordination Sequence:
#
# PCOD8298187 Si02
#       7
#     8  16  16  16  16  16  16
#     4   8  16  30  48  66  82 106 144 184 216 248
#     4   8  14  25  43  65  88 115 147 181 219 264
#     4   9  18  30  44  66  94 119 147 185 229 276
#     4  10  19  29  42  66  97 124 150 181 224 275
#     4   8  14  26  42  62  89 119 149 181 218 261
#     4   9  18  33  50  66  86 116 155 195 233 273
#     4  10  19  32  48  66  89 117 150 186 223 262
#
# _framework density 16.937636000000001
#
# number of rings (size 3 to 8) (size 9 to 14) (size 15 to 20)
#    0.000    3.077    0.000    1.846    0.000    3.077 
#    0.000    4.615    0.000    0.000    2.000    0.000 
#    0.000    0.000    0.000    0.000    0.000    0.000 
#
# Total GULP energy -644288.099541 kJ/mol
# GULP energy per Si atom -12390.155760 kJ/mol
# Density = 1.689909 g / cm^3
# Si number density = 16.937636 Si / 1000 Ang^3
#
#
#
# Elastic Constant Matrix: (Units=GPa)
#
#
# Indices 1 2 3 4 5 6 
#
# 1 24.3007 24.2857 32.4527 0.0000 0.0000 0.0000
# 2 24.2857 96.4111 65.5514 0.0000 0.0000 0.0000
# 3 32.4527 65.5514 132.3285 0.0000 0.0000 0.0000
# 4 0.0000 0.0000 0.0000 36.5649 0.0000 0.0000
# 5 0.0000 0.0000 0.0000 0.0000 11.6000 0.0000
# 6 0.0000 0.0000 0.0000 0.0000 0.0000 16.1831
#
#
#
# Elastic Compliance Matrix: (Units=1/GPa)
#
#
# Indices 1 2 3 4 5 6 
#
# 1 0.065412 -0.008399 -0.011881 0.000000 0.000000 0.000000
# 2 -0.008399 0.016718 -0.006222 0.000000 0.000000 0.000000
# 3 -0.011881 -0.006222 0.013553 0.000000 0.000000 0.000000
# 4 0.000000 0.000000 0.000000 0.027349 0.000000 0.000000
# 5 0.000000 0.000000 0.000000 0.000000 0.086207 0.000000
# 6 0.000000 0.000000 0.000000 0.000000 0.000000 0.061793
#
#
# Mechanical properties :
#
#
# Convention : Reuss Voigt Hill
#
# Bulk Modulus (GPa) = 23.43078 55.29111 39.36094
# Shear Modulus (GPa) = 14.78144 21.58630 18.18387
#
# Velocity S-wave (km/s) = 2.95735 3.57383 3.28010
# Velocity P-wave (km/s) = 5.05221 7.05298 6.13471
#
# Compressibility (1/GPa) = 0.04267891
#
# Stress axis : x y z
#
# Youngs Moduli (GPa) = 15.28774 59.81465 73.78471
#
# Poissons Ratio (x) = 0.50237 0.87666
# Poissons Ratio (y) = 0.12840 0.45909
# Poissons Ratio (z) = 0.18164 0.37217
#
# Static dielectric constant tensor:
#      x y z
#    x 3.024970 0.000000 0.000000 
#    y 0.000000 3.340040 0.000000 
#    z 0.000000 0.000000 3.159520 
# 
# 
# High freq. dielectric constant tensor:
#      x y z
#    x 1.612640 0.000000 0.000000 
#    y 0.000000 1.658820 0.000000 
#    z 0.000000 0.000000 1.651150 
# 
# From -- ./inp_files/73669.got.cif
#   From: 2010.03.12/outbox.cif.g09.slc.cpg/sg74_37_cif.got.tgz:73669.got - 2010.04.16 15:46:19.
