data_PCOD8298774
_publ_section_title
;
Structure prediction by ZEFSAII (Michael W. Deem and Ramdas Pophale) SiO2 
 PCOD8298774
Probable space group: I M M A
;
_chemical_formula_sum "Si O2"
_cell_formula_units_Z 96
_cell_length_a 28.234813
_cell_length_b 14.006018
_cell_length_c 13.819931
_cell_angle_alpha 90.000000
_cell_angle_beta 90.000000
_cell_angle_gamma 90.000000
_cell_volume 5465.192587
_symmetry_space_group_name_H-M "I M M A"
_symmetry_group_IT_number 74
_symmetry_cell_setting 'orthorhombic'
loop_
_space_group_symop_operation_xyz
x,y,z
-x,1/2-y,z
x,-y,-z
-x,1/2+y,-z
-x,-y,-z
x,1/2+y,-z
-x,y,z
x,1/2-y,z
1/2+x,1/2+y,1/2+z
1/2-x,-y,1/2+z
1/2+x,1/2-y,1/2-z
1/2-x,y,1/2-z
1/2-x,1/2-y,1/2-z
1/2+x,y,1/2-z
1/2-x,1/2+y,1/2+z
1/2+x,-y,1/2+z
loop_
_atom_site_type_symbol
_atom_site_label
_atom_site_fract_x
_atom_site_fract_y
_atom_site_fract_z
Si Si1 0.267742 0.570825 0.852135
Si Si2 0.183333 0.952385 0.101647
Si Si3 0.554313 0.448175 0.898911
Si Si4 0.282367 0.750000 0.965495
Si Si5 0.775958 0.250000 0.855086
Si Si6 0.444626 0.750000 0.020632
Si Si7 0.366269 0.954480 0.779208
Si Si8 0.622276 0.250000 0.152074
O O1 0.250000 0.612629 0.750000
O O2 0.237544 0.479841 0.880126
O O3 0.257187 0.654975 0.926685
O O4 0.321737 0.533096 0.851599
O O5 0.187789 0.838177 0.119429
O O6 0.146376 0.001006 0.175766
O O7 0.166914 0.000000 0.000000
O O8 0.500000 0.455318 0.863163
O O9 0.571075 0.340052 0.915664
O O10 0.587326 0.492838 0.817492
O O11 0.561340 0.500000 0.000000
O O12 0.336592 0.750000 0.930003
O O13 0.271584 0.750000 0.079075
O O14 0.750000 0.250000 0.750000
O O15 0.500000 0.750000 0.001751
O O16 0.424870 0.750000 0.911718
O O17 0.375959 0.840519 0.775915
#
# Coordination Sequence:
#
# PCOD8298774 Si02
#       8
#    16  16  16   8   8   8  16   8
#     4   9  18  34  54  78 105 144 188 234 275 325
#     4  11  23  39  56  75 109 154 193 236 284 329
#     4  10  20  35  56  82 116 148 175 222 286 346
#     4  10  19  32  54  76 111 145 186 228 278 326
#     4  12  24  38  52  80 111 152 192 237 282 342
#     4  10  20  34  54  83 116 150 181 213 278 352
#     4  10  21  35  54  84 111 143 191 231 277 337
#     4  10  20  32  54  85 107 141 183 238 275 326
#
# _framework density 17.565712000000001
#
# number of rings (size 3 to 8) (size 9 to 14) (size 15 to 20)
#    0.000    1.833    3.333    1.750    0.000    6.667 
#    0.000    0.000    0.000    0.500    0.000    0.000 
#    0.000    0.000    0.000    0.000    0.000    0.000 
#
# Total GULP energy -594721.999300 kJ/mol
# GULP energy per Si atom -12390.041652 kJ/mol
# Density = 1.752573 g / cm^3
# Si number density = 17.565712 Si / 1000 Ang^3
#
#
#
# Elastic Constant Matrix: (Units=GPa)
#
#
# Indices 1 2 3 4 5 6 
#
# 1 69.6071 47.4281 36.0604 0.0000 0.0000 0.0000
# 2 47.4281 149.6450 57.6508 0.0000 0.0000 0.0000
# 3 36.0604 57.6508 109.9779 0.0000 0.0000 0.0000
# 4 0.0000 0.0000 0.0000 664.1759 0.0000 0.0000
# 5 0.0000 0.0000 0.0000 0.0000 20.4636 0.0000
# 6 0.0000 0.0000 0.0000 0.0000 0.0000 -2.0772
#
#
#
# Elastic Compliance Matrix: (Units=1/GPa)
#
#
# Indices 1 2 3 4 5 6 
#
# 1 0.019619 -0.004686 -0.003976 0.000000 0.000000 0.000000
# 2 -0.004686 0.009493 -0.003440 0.000000 0.000000 0.000000
# 3 -0.003976 -0.003440 0.012200 0.000000 0.000000 0.000000
# 4 0.000000 0.000000 0.000000 0.001506 0.000000 0.000000
# 5 0.000000 0.000000 0.000000 0.000000 0.048867 0.000000
# 6 0.000000 0.000000 0.000000 0.000000 0.000000 -0.481427
#
#
# Mechanical properties :
#
#
# Convention : Reuss Voigt Hill
#
# Bulk Modulus (GPa) = 58.45446 67.94538 63.19992
# Shear Modulus (GPa) = -13.89526 149.05186 67.57830
#
# Velocity S-wave (km/s) = -2.81560 9.22161 6.20929
# Velocity P-wave (km/s) = 4.77281 12.33486 9.35223
#
# Compressibility (1/GPa) = 0.01710733
#
# Stress axis : x y z
#
# Youngs Moduli (GPa) = 50.96996 105.34263 81.96973
#
# Poissons Ratio (x) = 0.49366 0.32595
# Poissons Ratio (y) = 0.23886 0.28195
# Poissons Ratio (z) = 0.20268 0.36234
#
# Static dielectric constant tensor:
#      x y z
#    x 3.130260 0.000000 0.000000 
#    y 0.000000 3.467060 0.000000 
#    z 0.000000 0.000000 3.325210 
# 
# 
# High freq. dielectric constant tensor:
#      x y z
#    x 1.656510 0.000000 0.000000 
#    y 0.000000 1.702280 0.000000 
#    z 0.000000 0.000000 1.659530 
# 
# From -- ./inp_files/37350.got.cif
#   From: 2010.03.12/outbox.cif.g09.slc.cpg/sg74_19_cif.got.tgz:37350.got - 2010.04.16 15:46:19.
