data_PCOD8298817
_publ_section_title
;
Structure prediction by ZEFSAII (Michael W. Deem and Ramdas Pophale) SiO2 
 PCOD8298817
Probable space group: I M M A
;
_chemical_formula_sum "Si O2"
_cell_formula_units_Z 96
_cell_length_a 15.124913
_cell_length_b 11.405729
_cell_length_c 29.032850
_cell_angle_alpha 90.000000
_cell_angle_beta 90.000000
_cell_angle_gamma 90.000000
_cell_volume 5008.476081
_symmetry_space_group_name_H-M "I M M A"
_symmetry_group_IT_number 74
_symmetry_cell_setting 'orthorhombic'
loop_
_space_group_symop_operation_xyz
x,y,z
-x,1/2-y,z
x,-y,-z
-x,1/2+y,-z
-x,-y,-z
x,1/2+y,-z
-x,y,z
x,1/2-y,z
1/2+x,1/2+y,1/2+z
1/2-x,-y,1/2+z
1/2+x,1/2-y,1/2-z
1/2-x,y,1/2-z
1/2-x,1/2-y,1/2-z
1/2+x,y,1/2-z
1/2-x,1/2+y,1/2+z
1/2+x,-y,1/2+z
loop_
_atom_site_type_symbol
_atom_site_label
_atom_site_fract_x
_atom_site_fract_y
_atom_site_fract_z
Si Si1 0.753200 0.750000 0.407940
Si Si2 0.100944 0.497037 0.204910
Si Si3 0.901651 0.750000 0.337452
Si Si4 0.899305 0.750000 0.167355
Si Si5 0.315404 0.032635 0.553033
Si Si6 0.000000 0.109594 0.963562
Si Si7 0.101284 0.503085 0.691248
Si Si8 0.259886 0.612894 0.637604
O O1 0.844842 0.750000 0.382781
O O2 0.670490 0.750000 0.373490
O O3 0.754106 0.636172 0.439898
O O4 0.117488 0.635821 0.198810
O O5 0.122712 0.455705 0.256944
O O6 0.163175 0.422198 0.172268
O O7 0.000000 0.465669 0.192739
O O8 0.883242 0.863710 0.306700
O O9 0.000000 0.750000 0.356907
O O10 0.000000 0.750000 0.147405
O O11 0.412216 0.085949 0.566473
O O12 0.311662 0.000000 0.500000
O O13 0.288489 0.926597 0.586370
O O14 0.000000 0.250000 0.981290
O O15 0.000000 0.000000 0.000000
O O16 0.166494 0.559355 0.653781
O O17 0.000000 0.534569 0.677610
O O18 0.247995 0.750000 0.636303
#
# Coordination Sequence:
#
# PCOD8298817 Si02
#       8
#     8  16   8   8  16   8  16  16
#     4  12  20  36  65  88 118 160 197 246 308 353
#     4  10  21  37  59  90 124 160 196 243 299 367
#     4  10  19  36  64  96 122 144 192 255 310 362
#     4  10  19  32  60  92 126 154 192 241 302 366
#     4  11  25  41  62  90 121 161 204 250 304 364
#     4  10  22  38  64  94 128 164 206 248 302 374
#     4  10  21  39  63  90 121 156 198 246 306 366
#     4  12  26  41  58  84 120 163 209 257 298 355
#
# _framework density 19.167505999999999
#
# number of rings (size 3 to 8) (size 9 to 14) (size 15 to 20)
#    0.000    1.333    4.167    1.000    3.500    4.667 
#    0.000    4.167    0.000    2.000    0.000    0.000 
#    0.000    0.000    0.000    0.000    0.000    0.000 
#
# Total GULP energy -594934.543094 kJ/mol
# GULP energy per Si atom -12394.469648 kJ/mol
# Density = 1.912388 g / cm^3
# Si number density = 19.167506 Si / 1000 Ang^3
#
#
#
# Elastic Constant Matrix: (Units=GPa)
#
#
# Indices 1 2 3 4 5 6 
#
# 1 100.9373 43.9709 64.1894 0.0000 0.0000 0.0000
# 2 43.9709 114.2192 39.4812 0.0000 0.0000 0.0000
# 3 64.1894 39.4812 112.2445 0.0000 0.0000 0.0000
# 4 0.0000 0.0000 0.0000 93.6994 0.0000 0.0000
# 5 0.0000 0.0000 0.0000 0.0000 24.2342 0.0000
# 6 0.0000 0.0000 0.0000 0.0000 0.0000 24.6120
#
#
#
# Elastic Compliance Matrix: (Units=1/GPa)
#
#
# Indices 1 2 3 4 5 6 
#
# 1 0.016759 -0.003573 -0.008327 0.000000 0.000000 0.000000
# 2 -0.003573 0.010729 -0.001730 0.000000 0.000000 0.000000
# 3 -0.008327 -0.001730 0.014280 0.000000 0.000000 0.000000
# 4 0.000000 0.000000 0.000000 0.010672 0.000000 0.000000
# 5 0.000000 0.000000 0.000000 0.000000 0.041264 0.000000
# 6 0.000000 0.000000 0.000000 0.000000 0.000000 0.040631
#
#
# Mechanical properties :
#
#
# Convention : Reuss Voigt Hill
#
# Bulk Modulus (GPa) = 68.93621 69.18710 69.06165
# Shear Modulus (GPa) = 30.04219 40.49309 35.26764
#
# Velocity S-wave (km/s) = 3.96327 4.60128 4.29414
# Velocity P-wave (km/s) = 7.54895 8.02517 7.79070
#
# Compressibility (1/GPa) = 0.01450617
#
# Stress axis : x y z
#
# Youngs Moduli (GPa) = 59.66783 93.20671 70.02857
#
# Poissons Ratio (x) = 0.33307 0.58315
# Poissons Ratio (y) = 0.21322 0.12117
# Poissons Ratio (z) = 0.49687 0.16127
#
# Static dielectric constant tensor:
#      x y z
#    x 3.757960 0.000000 0.000000 
#    y 0.000000 3.634010 0.000000 
#    z 0.000000 0.000000 3.364360 
# 
# 
# High freq. dielectric constant tensor:
#      x y z
#    x 1.749390 0.000000 0.000000 
#    y 0.000000 1.747870 0.000000 
#    z 0.000000 0.000000 1.732400 
# 
# From -- ./inp_files/72489.got.cif
#   From: 2010.03.12/outbox.cif.g09.slc.cpg/sg74_37_cif.got.tgz:72489.got - 2010.04.16 15:46:19.
