data_PCOD8298994
_publ_section_title
;
Structure prediction by ZEFSAII (Michael W. Deem and Ramdas Pophale) SiO2 
 PCOD8298994
Probable space group: I M M A
;
_chemical_formula_sum "Si O2"
_cell_formula_units_Z 64
_cell_length_a 18.924752
_cell_length_b 13.615347
_cell_length_c 10.094586
_cell_angle_alpha 90.000000
_cell_angle_beta 90.000000
_cell_angle_gamma 90.000000
_cell_volume 2601.042351
_symmetry_space_group_name_H-M "I M M A"
_symmetry_group_IT_number 74
_symmetry_cell_setting 'orthorhombic'
loop_
_space_group_symop_operation_xyz
x,y,z
-x,1/2-y,z
x,-y,-z
-x,1/2+y,-z
-x,-y,-z
x,1/2+y,-z
-x,y,z
x,1/2-y,z
1/2+x,1/2+y,1/2+z
1/2-x,-y,1/2+z
1/2+x,1/2-y,1/2-z
1/2-x,y,1/2-z
1/2-x,1/2-y,1/2-z
1/2+x,y,1/2-z
1/2-x,1/2+y,1/2+z
1/2+x,-y,1/2+z
loop_
_atom_site_type_symbol
_atom_site_label
_atom_site_fract_x
_atom_site_fract_y
_atom_site_fract_z
Si Si1 0.858314 0.357065 0.198017
Si Si2 0.000000 0.864730 0.948396
Si Si3 0.721227 0.604610 0.457513
Si Si4 0.148958 0.066496 0.697927
Si Si5 0.500000 0.367182 0.746191
O O1 0.868137 0.250000 0.271359
O O2 0.931007 0.395611 0.132971
O O3 0.834863 0.447961 0.292159
O O4 0.800233 0.329799 0.083488
O O5 0.000000 0.750000 0.973783
O O6 0.000000 0.912391 0.096271
O O7 0.692314 0.500000 0.500000
O O8 0.805293 0.605854 0.426894
O O9 0.676283 0.628629 0.325126
O O10 0.067367 0.091246 0.673631
O O11 0.500000 0.250000 0.749275
#
# Coordination Sequence:
#
# PCOD8298994 Si02
#       5
#    16   8  16  16   8
#     4  10  19  33  56  84 113 143 177 224 280 332
#     4   9  17  29  49  82 110 132 170 221 278 331
#     4   9  19  35  52  75 108 144 182 221 267 320
#     4  10  20  34  54  79 109 144 180 225 273 326
#     4  11  21  33  53  80 109 142 179 224 275 329
#
# _framework density 24.605519000000001
#
# number of rings (size 3 to 8) (size 9 to 14) (size 15 to 20)
#    0.000    2.250    2.500    0.750    0.000    2.000 
#    0.000   13.125    0.000    1.500    0.000    1.750 
#    0.000    0.000    0.000    0.000    0.000    0.000 
#
# Total GULP energy -396421.947916 kJ/mol
# GULP energy per Si atom -12388.185872 kJ/mol
# Density = 2.454952 g / cm^3
# Si number density = 24.605519 Si / 1000 Ang^3
#
#
#
# Elastic Constant Matrix: (Units=GPa)
#
#
# Indices 1 2 3 4 5 6 
#
# 1 187.7848 11.7711 25.1553 0.0000 0.0000 0.0000
# 2 11.7711 90.2742 -0.7269 0.0000 0.0000 0.0000
# 3 25.1553 -0.7269 30.5867 0.0000 0.0000 0.0000
# 4 0.0000 0.0000 0.0000 8.8284 0.0000 0.0000
# 5 0.0000 0.0000 0.0000 0.0000 15.4215 0.0000
# 6 0.0000 0.0000 0.0000 0.0000 0.0000 48.1463
#
#
#
# Elastic Compliance Matrix: (Units=1/GPa)
#
#
# Indices 1 2 3 4 5 6 
#
# 1 0.006046 -0.000829 -0.004992 0.000000 0.000000 0.000000
# 2 -0.000829 0.011193 0.000947 0.000000 0.000000 0.000000
# 3 -0.004992 0.000947 0.036822 0.000000 0.000000 0.000000
# 4 0.000000 0.000000 0.000000 0.113270 0.000000 0.000000
# 5 0.000000 0.000000 0.000000 0.000000 0.064845 0.000000
# 6 0.000000 0.000000 0.000000 0.000000 0.000000 0.020770
#
#
# Mechanical properties :
#
#
# Convention : Reuss Voigt Hill
#
# Bulk Modulus (GPa) = 22.56583 42.33827 32.45205
# Shear Modulus (GPa) = 18.02036 32.64233 25.33135
#
# Velocity S-wave (km/s) = 2.70917 3.64624 3.21206
# Velocity P-wave (km/s) = 4.35627 5.91362 5.19365
#
# Compressibility (1/GPa) = 0.04431479
#
# Stress axis : x y z
#
# Youngs Moduli (GPa) = 165.40139 89.34130 27.15763
#
# Poissons Ratio (x) = 0.07402 0.13557
# Poissons Ratio (y) = 0.13704 -0.02573
# Poissons Ratio (z) = 0.82568 -0.08464
#
# Static dielectric constant tensor:
#      x y z
#    x 4.470730 0.000000 0.000000 
#    y 0.000000 4.355770 0.000000 
#    z 0.000000 0.000000 4.049510 
# 
# 
# High freq. dielectric constant tensor:
#      x y z
#    x 1.984330 0.000000 0.000000 
#    y 0.000000 1.980180 0.000000 
#    z 0.000000 0.000000 1.927440 
# 
# From -- ./inp_files/21621.got.cif
#   From: 2010.03.12/outbox.cif.g09.slc.cpg/sg74_11_cif.got.tgz:21621.got - 2010.04.16 15:46:19.
