data_PCOD8298723
_publ_section_title
;
Structure prediction by ZEFSAII (Michael W. Deem and Ramdas Pophale) SiO2 
 PCOD8298723
Probable space group: I M M A
;
_chemical_formula_sum "Si O2"
_cell_formula_units_Z 96
_cell_length_a 8.936449
_cell_length_b 30.143316
_cell_length_c 19.400949
_cell_angle_alpha 90.000000
_cell_angle_beta 90.000000
_cell_angle_gamma 90.000000
_cell_volume 5226.115235
_symmetry_space_group_name_H-M "I M M A"
_symmetry_group_IT_number 74
_symmetry_cell_setting 'orthorhombic'
loop_
_space_group_symop_operation_xyz
x,y,z
-x,1/2-y,z
x,-y,-z
-x,1/2+y,-z
-x,-y,-z
x,1/2+y,-z
-x,y,z
x,1/2-y,z
1/2+x,1/2+y,1/2+z
1/2-x,-y,1/2+z
1/2+x,1/2-y,1/2-z
1/2-x,y,1/2-z
1/2-x,1/2-y,1/2-z
1/2+x,y,1/2-z
1/2-x,1/2+y,1/2+z
1/2+x,-y,1/2+z
loop_
_atom_site_type_symbol
_atom_site_label
_atom_site_fract_x
_atom_site_fract_y
_atom_site_fract_z
Si Si1 0.827441 0.045682 0.535521
Si Si2 0.673961 0.509960 0.181763
Si Si3 0.168269 0.697185 0.182556
Si Si4 0.675406 0.916243 0.681211
Si Si5 0.675750 0.199083 0.956379
Si Si6 0.826136 0.125837 0.038312
O O1 0.803314 0.042920 0.617741
O O2 0.725453 0.085014 0.508454
O O3 0.000000 0.055635 0.516957
O O4 0.776103 0.000000 0.500000
O O5 0.500000 0.501191 0.196149
O O6 0.750000 0.531079 0.250000
O O7 0.750539 0.463295 0.163803
O O8 0.169519 0.750000 0.185724
O O9 0.250000 0.677579 0.250000
O O10 0.253611 0.680832 0.114485
O O11 0.000000 0.678614 0.180786
O O12 0.500000 0.923337 0.693017
O O13 0.750000 0.895675 0.750000
O O14 0.707630 0.883120 0.618404
O O15 0.500000 0.193053 0.950039
O O16 0.720750 0.250000 0.969960
O O17 0.737699 0.170443 0.019540
O O18 0.000000 0.133614 0.024484
#
# Coordination Sequence:
#
# PCOD8298723 Si02
#       6
#    16  16  16  16  16  16
#     4  10  20  35  54  77 108 145 180 218 265 319
#     4  10  19  32  52  76 106 145 183 220 265 313
#     4   9  16  28  49  76 105 136 173 218 265 315
#     4  10  20  33  52  79 108 139 177 219 265 318
#     4  10  21  37  57  80 107 142 184 229 277 329
#     4  11  23  36  55  83 111 141 179 226 275 324
#
# _framework density 18.369285000000001
#
# number of rings (size 3 to 8) (size 9 to 14) (size 15 to 20)
#    0.000    2.000    1.667    3.500    0.000    6.667 
#    0.000    0.833    0.000    2.500    0.000    0.000 
#    0.000    0.000    0.000    0.000    0.000    0.000 
#
# Total GULP energy -595293.547382 kJ/mol
# GULP energy per Si atom -12401.948904 kJ/mol
# Density = 1.832748 g / cm^3
# Si number density = 18.369285 Si / 1000 Ang^3
#
#
#
# Elastic Constant Matrix: (Units=GPa)
#
#
# Indices 1 2 3 4 5 6 
#
# 1 119.6629 39.6105 62.5645 0.0000 0.0000 0.0000
# 2 39.6105 62.7624 45.6984 0.0000 0.0000 0.0000
# 3 62.5645 45.6984 125.7859 -0.0003 0.0000 0.0000
# 4 0.0000 0.0000 -0.0003 25.9287 0.0000 0.0000
# 5 0.0000 0.0000 0.0000 0.0000 34.2540 0.0000
# 6 0.0000 0.0000 0.0000 0.0000 0.0000 27.0601
#
#
#
# Elastic Compliance Matrix: (Units=1/GPa)
#
#
# Indices 1 2 3 4 5 6 
#
# 1 0.012140 -0.004440 -0.004425 0.000000 0.000000 0.000000
# 2 -0.004440 0.023287 -0.006252 0.000000 0.000000 0.000000
# 3 -0.004425 -0.006252 0.012423 0.000000 0.000000 0.000000
# 4 0.000000 0.000000 0.000000 0.038567 0.000000 0.000000
# 5 0.000000 0.000000 0.000000 0.000000 0.029194 0.000000
# 6 0.000000 0.000000 0.000000 0.000000 0.000000 0.036955
#
#
# Mechanical properties :
#
#
# Convention : Reuss Voigt Hill
#
# Bulk Modulus (GPa) = 56.76765 67.10645 61.93705
# Shear Modulus (GPa) = 26.50098 28.13774 27.31936
#
# Velocity S-wave (km/s) = 3.80238 3.91804 3.86065
# Velocity P-wave (km/s) = 7.08859 7.55508 7.32555
#
# Compressibility (1/GPa) = 0.01761567
#
# Stress axis : x y z
#
# Youngs Moduli (GPa) = 82.37077 42.94184 80.49836
#
# Poissons Ratio (x) = 0.19065 0.35624
# Poissons Ratio (y) = 0.36570 0.50328
# Poissons Ratio (z) = 0.36453 0.26848
#
# Static dielectric constant tensor:
#      x y z
#    x 3.517920 0.000000 0.000000 
#    y 0.000000 3.047690 0.000000 
#    z 0.000000 0.000000 3.612620 
# 
# 
# High freq. dielectric constant tensor:
#      x y z
#    x 1.728670 0.000000 0.000000 
#    y 0.000000 1.671970 0.000000 
#    z 0.000000 0.000000 1.722170 
# 
# From -- ./inp_files/49093.got.cif
#   From: 2010.03.12/outbox.cif.g09.slc.cpg/sg74_25_cif.got.tgz:49093.got - 2010.04.16 15:46:19.
