data_PCOD8298806
_publ_section_title
;
Structure prediction by ZEFSAII (Michael W. Deem and Ramdas Pophale) SiO2 
 PCOD8298806
Probable space group: I M M A
;
_chemical_formula_sum "Si O2"
_cell_formula_units_Z 88
_cell_length_a 8.747323
_cell_length_b 21.779335
_cell_length_c 20.846558
_cell_angle_alpha 90.000000
_cell_angle_beta 90.000000
_cell_angle_gamma 90.000000
_cell_volume 3971.496067
_symmetry_space_group_name_H-M "I M M A"
_symmetry_group_IT_number 74
_symmetry_cell_setting 'orthorhombic'
loop_
_space_group_symop_operation_xyz
x,y,z
-x,1/2-y,z
x,-y,-z
-x,1/2+y,-z
-x,-y,-z
x,1/2+y,-z
-x,y,z
x,1/2-y,z
1/2+x,1/2+y,1/2+z
1/2-x,-y,1/2+z
1/2+x,1/2-y,1/2-z
1/2-x,y,1/2-z
1/2-x,1/2-y,1/2-z
1/2+x,y,1/2-z
1/2-x,1/2+y,1/2+z
1/2+x,-y,1/2+z
loop_
_atom_site_type_symbol
_atom_site_label
_atom_site_fract_x
_atom_site_fract_y
_atom_site_fract_z
Si Si1 0.675582 0.681302 0.838085
Si Si2 0.182731 0.750000 0.178978
Si Si3 0.324834 0.494692 0.926899
Si Si4 0.824397 0.061717 0.187788
Si Si5 0.176291 0.142787 0.594911
Si Si6 0.829538 0.181329 0.029392
O O1 0.500000 0.661336 0.827320
O O2 0.706295 0.750000 0.811591
O O3 0.790408 0.634419 0.803345
O O4 0.711280 0.679095 0.913087
O O5 0.250000 0.750000 0.250000
O O6 0.238354 0.812604 0.144662
O O7 0.000000 0.750000 0.181132
O O8 0.500000 0.515218 0.930450
O O9 0.239453 0.542652 0.881376
O O10 0.309337 0.429456 0.889478
O O11 0.257975 0.500000 0.000000
O O12 0.750000 0.027907 0.250000
O O13 0.000000 0.046165 0.189991
O O14 0.256992 0.141736 0.526417
O O15 0.000000 0.163999 0.590804
O O16 0.844290 0.250000 0.002244
O O17 0.000000 0.157086 0.048602
#
# Coordination Sequence:
#
# PCOD8298806 Si02
#       6
#    16   8  16  16  16  16
#     4  10  21  38  62  92 127 168 211 260 317 380
#     4  12  26  44  64  90 128 172 223 282 341 410
#     4  10  23  44  70 100 134 174 222 276 333 400
#     4  12  26  44  67  93 128 172 218 272 328 394
#     4  11  22  38  64  94 127 168 213 266 330 395
#     4  10  19  32  55  90 129 164 202 253 311 371
#
# _framework density 22.157897999999999
#
# number of rings (size 3 to 8) (size 9 to 14) (size 15 to 20)
#    0.000    1.273    0.909    5.182    0.000    6.182 
#    0.000    0.000    0.000    0.000    0.000    0.000 
#    0.000    0.000    0.000    0.000    0.000    0.000 
#
# Total GULP energy -545408.318185 kJ/mol
# GULP energy per Si atom -12395.643595 kJ/mol
# Density = 2.210747 g / cm^3
# Si number density = 22.157898 Si / 1000 Ang^3
#
#
#
# Elastic Constant Matrix: (Units=GPa)
#
#
# Indices 1 2 3 4 5 6 
#
# 1 128.5171 32.7953 42.0425 0.0000 0.0000 0.0000
# 2 32.7953 85.3964 27.3023 0.0000 0.0000 0.0000
# 3 42.0425 27.3023 126.3767 0.0000 0.0000 0.0000
# 4 0.0000 0.0000 0.0000 20.2043 0.0000 0.0000
# 5 0.0000 0.0000 0.0000 0.0000 36.9901 0.0000
# 6 0.0000 0.0000 0.0000 0.0000 0.0000 25.5799
#
#
#
# Elastic Compliance Matrix: (Units=1/GPa)
#
#
# Indices 1 2 3 4 5 6 
#
# 1 0.009306 -0.002776 -0.002496 0.000000 0.000000 0.000000
# 2 -0.002776 0.013407 -0.001973 0.000000 0.000000 0.000000
# 3 -0.002496 -0.001973 0.009170 0.000000 0.000000 0.000000
# 4 0.000000 0.000000 0.000000 0.049494 0.000000 0.000000
# 5 0.000000 0.000000 0.000000 0.000000 0.027034 0.000000
# 6 0.000000 0.000000 0.000000 0.000000 0.000000 0.039093
#
#
# Mechanical properties :
#
#
# Convention : Reuss Voigt Hill
#
# Bulk Modulus (GPa) = 57.49608 60.50781 59.00195
# Shear Modulus (GPa) = 29.79883 32.43151 31.11517
#
# Velocity S-wave (km/s) = 3.67118 3.82992 3.75139
# Velocity P-wave (km/s) = 6.63135 6.85015 6.74164
#
# Compressibility (1/GPa) = 0.01739249
#
# Stress axis : x y z
#
# Youngs Moduli (GPa) = 107.45767 74.58856 109.05695
#
# Poissons Ratio (x) = 0.20704 0.27223
# Poissons Ratio (y) = 0.29828 0.21517
# Poissons Ratio (z) = 0.26824 0.14716
#
# Static dielectric constant tensor:
#      x y z
#    x 3.983420 0.000000 0.000000 
#    y 0.000000 4.068540 0.000000 
#    z 0.000000 0.000000 4.061140 
# 
# 
# High freq. dielectric constant tensor:
#      x y z
#    x 1.874810 0.000000 0.000000 
#    y 0.000000 1.870570 0.000000 
#    z 0.000000 0.000000 1.877270 
# 
# From -- ./inp_files/48738.got.cif
#   From: 2010.03.12/outbox.cif.g09.slc.cpg/sg74_25_cif.got.tgz:48738.got - 2010.04.16 15:46:19.
