data_PCOD8298469
_publ_section_title
;
Structure prediction by ZEFSAII (Michael W. Deem and Ramdas Pophale) SiO2 
 PCOD8298469
Probable space group: I M M A
;
_chemical_formula_sum "Si O2"
_cell_formula_units_Z 88
_cell_length_a 10.252010
_cell_length_b 28.625904
_cell_length_c 17.318946
_cell_angle_alpha 90.000000
_cell_angle_beta 90.000000
_cell_angle_gamma 90.000000
_cell_volume 5082.643976
_symmetry_space_group_name_H-M "I M M A"
_symmetry_group_IT_number 74
_symmetry_cell_setting 'orthorhombic'
loop_
_space_group_symop_operation_xyz
x,y,z
-x,1/2-y,z
x,-y,-z
-x,1/2+y,-z
-x,-y,-z
x,1/2+y,-z
-x,y,z
x,1/2-y,z
1/2+x,1/2+y,1/2+z
1/2-x,-y,1/2+z
1/2+x,1/2-y,1/2-z
1/2-x,y,1/2-z
1/2-x,1/2-y,1/2-z
1/2+x,y,1/2-z
1/2-x,1/2+y,1/2+z
1/2+x,-y,1/2+z
loop_
_atom_site_type_symbol
_atom_site_label
_atom_site_fract_x
_atom_site_fract_y
_atom_site_fract_z
Si Si1 0.850364 0.802151 0.515521
Si Si2 0.652879 0.535625 0.178279
Si Si3 0.151143 0.397834 0.547710
Si Si4 0.141843 0.697628 0.854700
Si Si5 0.750000 0.126324 0.250000
Si Si6 0.149836 0.935598 0.611462
O O1 0.820106 0.750000 0.482702
O O2 0.825597 0.841568 0.450052
O O3 0.757697 0.814736 0.586695
O O4 0.000000 0.805317 0.544638
O O5 0.500000 0.539974 0.204475
O O6 0.750000 0.533014 0.250000
O O7 0.704499 0.579132 0.126404
O O8 0.672663 0.490217 0.125199
O O9 0.215911 0.420023 0.469982
O O10 0.000000 0.411129 0.546482
O O11 0.162047 0.750000 0.822346
O O12 0.140234 0.661164 0.783909
O O13 0.000000 0.693806 0.896039
O O14 0.795615 0.093151 0.317624
O O15 0.000000 0.922352 0.606197
#
# Coordination Sequence:
#
# PCOD8298469 Si02
#       6
#    16  16  16  16   8  16
#     4   9  17  31  52  75  97 126 167 211 249 291
#     4  10  20  35  55  77 102 130 164 208 255 302
#     4   9  17  32  54  76  98 130 171 207 245 294
#     4  10  21  33  45  68 102 137 170 204 245 290
#     4  12  19  30  48  68 100 140 169 208 238 288
#     4  10  19  31  49  73  99 133 173 208 240 287
#
# _framework density 17.313824
#
# number of rings (size 3 to 8) (size 9 to 14) (size 15 to 20)
#    0.000    2.182    2.727    1.364    0.000    2.909 
#    0.000    2.727    0.000    1.636    0.000    0.000 
#    0.000    0.000    0.000    0.000    0.000    0.000 
#
# Total GULP energy -545142.672973 kJ/mol
# GULP energy per Si atom -12389.606204 kJ/mol
# Density = 1.727442 g / cm^3
# Si number density = 17.313824 Si / 1000 Ang^3
#
#
#
# Elastic Constant Matrix: (Units=GPa)
#
#
# Indices 1 2 3 4 5 6 
#
# 1 57.0744 26.4702 19.7765 0.0000 0.0000 0.0000
# 2 26.4702 86.8247 25.1250 0.0001 0.0000 0.0000
# 3 19.7765 25.1250 51.3983 -0.0001 0.0000 0.0000
# 4 0.0000 0.0001 -0.0001 29.6247 0.0000 0.0001
# 5 0.0000 0.0000 0.0000 0.0000 18.3071 0.0000
# 6 0.0000 0.0000 0.0000 0.0001 0.0000 6.1223
#
#
#
# Elastic Compliance Matrix: (Units=1/GPa)
#
#
# Indices 1 2 3 4 5 6 
#
# 1 0.021893 -0.004935 -0.006011 0.000000 0.000000 0.000000
# 2 -0.004935 0.014527 -0.005203 0.000000 0.000000 0.000000
# 3 -0.006011 -0.005203 0.024312 0.000000 0.000000 0.000000
# 4 0.000000 0.000000 0.000000 0.033756 0.000000 0.000000
# 5 0.000000 0.000000 0.000000 0.000000 0.054624 0.000000
# 6 0.000000 0.000000 0.000000 0.000000 0.000000 0.163337
#
#
# Mechanical properties :
#
#
# Convention : Reuss Voigt Hill
#
# Bulk Modulus (GPa) = 35.16852 37.56007 36.36430
# Shear Modulus (GPa) = 14.11536 19.07254 16.59395
#
# Velocity S-wave (km/s) = 2.85838 3.32260 3.09920
# Velocity P-wave (km/s) = 5.59020 6.03824 5.81853
#
# Compressibility (1/GPa) = 0.02843452
#
# Stress axis : x y z
#
# Youngs Moduli (GPa) = 45.67743 68.83510 41.13188
#
# Poissons Ratio (x) = 0.33969 0.24726
# Poissons Ratio (y) = 0.22541 0.21400
# Poissons Ratio (z) = 0.27458 0.35813
#
# Static dielectric constant tensor:
#      x y z
#    x 3.059320 0.000000 0.000000 
#    y 0.000000 3.552270 0.000000 
#    z 0.000000 0.000000 3.161790 
# 
# 
# High freq. dielectric constant tensor:
#      x y z
#    x 1.642940 0.000000 0.000000 
#    y 0.000000 1.690130 0.000000 
#    z 0.000000 0.000000 1.636010 
# 
# From -- ./inp_files/31089.got.cif
#   From: 2010.03.12/outbox.cif.g09.slc.cpg/sg74_16_cif.got.tgz:31089.got - 2010.04.16 15:46:19.
