data_PCOD8298730
_publ_section_title
;
Structure prediction by ZEFSAII (Michael W. Deem and Ramdas Pophale) SiO2 
 PCOD8298730
Probable space group: I M M A
;
_chemical_formula_sum "Si O2"
_cell_formula_units_Z 120
_cell_length_a 25.312992
_cell_length_b 9.172214
_cell_length_c 27.690822
_cell_angle_alpha 90.000000
_cell_angle_beta 90.000000
_cell_angle_gamma 90.000000
_cell_volume 6429.149262
_symmetry_space_group_name_H-M "I M M A"
_symmetry_group_IT_number 74
_symmetry_cell_setting 'orthorhombic'
loop_
_space_group_symop_operation_xyz
x,y,z
-x,1/2-y,z
x,-y,-z
-x,1/2+y,-z
-x,-y,-z
x,1/2+y,-z
-x,y,z
x,1/2-y,z
1/2+x,1/2+y,1/2+z
1/2-x,-y,1/2+z
1/2+x,1/2-y,1/2-z
1/2-x,y,1/2-z
1/2-x,1/2-y,1/2-z
1/2+x,y,1/2-z
1/2-x,1/2+y,1/2+z
1/2+x,-y,1/2+z
loop_
_atom_site_type_symbol
_atom_site_label
_atom_site_fract_x
_atom_site_fract_y
_atom_site_fract_z
Si Si1 0.437801 0.583029 0.140154
Si Si2 0.500000 0.077613 0.550996
Si Si3 0.139677 0.078469 0.298096
Si Si4 0.213122 0.577720 0.050600
Si Si5 0.606151 0.579611 0.395765
Si Si6 0.762127 0.581248 0.636100
Si Si7 0.845653 0.918027 0.811113
Si Si8 0.937075 0.585877 0.546062
O O1 0.500000 0.568443 0.145831
O O2 0.420233 0.750000 0.135111
O O3 0.412486 0.509248 0.186990
O O4 0.416839 0.496928 0.093342
O O5 0.500000 0.250000 0.542323
O O6 0.448270 0.026508 0.580208
O O7 0.500000 0.000000 0.500000
O O8 0.128766 0.250000 0.300758
O O9 0.186507 0.032830 0.334220
O O10 0.152585 0.028040 0.243946
O O11 0.220427 0.750000 0.044748
O O12 0.154450 0.536354 0.069042
O O13 0.256519 0.517188 0.088294
O O14 0.222886 0.500000 0.000000
O O15 0.605342 0.750000 0.385852
O O16 0.612221 0.503718 0.343837
O O17 0.764752 0.750000 0.620461
O O18 0.713370 0.551620 0.671427
O O19 0.861121 0.750000 0.815146
O O20 0.914284 0.500000 0.500000
O O21 0.914329 0.750000 0.546262
O O22 0.000000 0.588735 0.544132
#
# Coordination Sequence:
#
# PCOD8298730 Si02
#       8
#    16   8  16  16  16  16  16  16
#     4  10  21  36  52  73 103 138 175 211 252 307
#     4  10  20  34  52  76 108 146 186 228 269 312
#     4  10  20  35  56  80 104 134 172 217 266 314
#     4  10  19  32  52  78 108 142 178 216 264 319
#     4   9  19  34  51  75 107 143 182 223 266 316
#     4   9  18  34  56  80 106 134 168 213 265 318
#     4   9  18  34  56  80 104 133 172 217 265 317
#     4   9  16  28  49  74  98 126 161 203 248 294
#
# _framework density 18.664988000000001
#
# number of rings (size 3 to 8) (size 9 to 14) (size 15 to 20)
#    0.000    2.533    0.000    2.000    0.000    6.133 
#    1.200    0.667    0.000    7.200    0.000    0.000 
#    0.000    0.000    0.000    0.000    0.000    0.000 
#
# Total GULP energy -744130.350315 kJ/mol
# GULP energy per Si atom -12402.172505 kJ/mol
# Density = 1.862251 g / cm^3
# Si number density = 18.664988 Si / 1000 Ang^3
#
#
#
# Elastic Constant Matrix: (Units=GPa)
#
#
# Indices 1 2 3 4 5 6 
#
# 1 54.3826 34.1808 50.2264 0.0000 0.0000 0.0000
# 2 34.1808 89.1518 73.4564 0.0000 0.0000 0.0000
# 3 50.2264 73.4564 161.7816 0.0000 0.0000 0.0000
# 4 0.0000 0.0000 0.0000 37.0148 0.0000 0.0000
# 5 0.0000 0.0000 0.0000 0.0000 25.3027 0.0000
# 6 0.0000 0.0000 0.0000 0.0000 0.0000 24.3888
#
#
#
# Elastic Compliance Matrix: (Units=1/GPa)
#
#
# Indices 1 2 3 4 5 6 
#
# 1 0.027420 -0.005590 -0.005975 0.000000 0.000000 0.000000
# 2 -0.005590 0.019061 -0.006919 0.000000 0.000000 0.000000
# 3 -0.005975 -0.006919 0.011178 0.000000 0.000000 0.000000
# 4 0.000000 0.000000 0.000000 0.027016 0.000000 0.000000
# 5 0.000000 0.000000 0.000000 0.000000 0.039522 0.000000
# 6 0.000000 0.000000 0.000000 0.000000 0.000000 0.041002
#
#
# Mechanical properties :
#
#
# Convention : Reuss Voigt Hill
#
# Bulk Modulus (GPa) = 48.33028 69.00479 58.66754
# Shear Modulus (GPa) = 23.91630 27.17144 25.54387
#
# Velocity S-wave (km/s) = 3.58347 3.81956 3.70340
# Velocity P-wave (km/s) = 6.56288 7.51681 7.05599
#
# Compressibility (1/GPa) = 0.02069096
#
# Stress axis : x y z
#
# Youngs Moduli (GPa) = 36.47030 52.46314 89.46450
#
# Poissons Ratio (x) = 0.29327 0.53451
# Poissons Ratio (y) = 0.20387 0.61902
# Poissons Ratio (z) = 0.21789 0.36300
#
# Static dielectric constant tensor:
#      x y z
#    x 3.298670 0.000000 0.000000 
#    y 0.000000 3.436020 0.000000 
#    z 0.000000 0.000000 3.524070 
# 
# 
# High freq. dielectric constant tensor:
#      x y z
#    x 1.707360 0.000000 0.000000 
#    y 0.000000 1.725030 0.000000 
#    z 0.000000 0.000000 1.731160 
# 
# From -- ./inp_files/69020.got.cif
#   From: 2010.03.12/outbox.cif.g09.slc.cpg/sg74_35_cif.got.tgz:69020.got - 2010.04.16 15:46:19.
