data_PCOD8298851
_publ_section_title
;
Structure prediction by ZEFSAII (Michael W. Deem and Ramdas Pophale) SiO2 
 PCOD8298851
Probable space group: I M M A
;
_chemical_formula_sum "Si O2"
_cell_formula_units_Z 88
_cell_length_a 27.826464
_cell_length_b 9.428827
_cell_length_c 17.861654
_cell_angle_alpha 90.000000
_cell_angle_beta 90.000000
_cell_angle_gamma 90.000000
_cell_volume 4686.378505
_symmetry_space_group_name_H-M "I M M A"
_symmetry_group_IT_number 74
_symmetry_cell_setting 'orthorhombic'
loop_
_space_group_symop_operation_xyz
x,y,z
-x,1/2-y,z
x,-y,-z
-x,1/2+y,-z
-x,-y,-z
x,1/2+y,-z
-x,y,z
x,1/2-y,z
1/2+x,1/2+y,1/2+z
1/2-x,-y,1/2+z
1/2+x,1/2-y,1/2-z
1/2-x,y,1/2-z
1/2-x,1/2-y,1/2-z
1/2+x,y,1/2-z
1/2-x,1/2+y,1/2+z
1/2+x,-y,1/2+z
loop_
_atom_site_type_symbol
_atom_site_label
_atom_site_fract_x
_atom_site_fract_y
_atom_site_fract_z
Si Si1 0.850879 0.582614 0.156642
Si Si2 0.240232 0.913315 0.071852
Si Si3 0.672691 0.586217 0.177875
Si Si4 0.054049 0.915978 0.076128
Si Si5 0.102947 0.414808 0.423153
Si Si6 0.000000 0.592129 0.572078
O O1 0.848293 0.750000 0.157563
O O2 0.812560 0.528388 0.094809
O O3 0.832829 0.529519 0.237468
O O4 0.905251 0.532850 0.135684
O O5 0.238970 0.750000 0.047093
O O6 0.273781 0.931742 0.145158
O O7 0.259480 0.000000 0.000000
O O8 0.655807 0.750000 0.170581
O O9 0.639785 0.480778 0.132890
O O10 0.060228 0.750000 0.058389
O O11 0.000000 0.946693 0.107675
O O12 0.062640 0.000000 0.000000
O O13 0.105657 0.500000 0.500000
O O14 0.115263 0.250000 0.438199
O O15 0.049987 0.433548 0.383806
O O16 0.000000 0.500000 0.500000
O O17 0.000000 0.750000 0.539851
#
# Coordination Sequence:
#
# PCOD8298851 Si02
#       6
#    16  16  16  16  16   8
#     4   9  18  34  53  74 102 137 173 208 253 309
#     4  10  20  34  54  76 100 133 173 215 256 305
#     4  10  20  34  51  74 103 136 171 208 254 305
#     4   9  17  31  53  78 103 131 168 213 256 301
#     4  10  19  33  52  73  99 132 172 215 258 303
#     4   8  16  30  48  68  92 124 163 206 249 294
#
# _framework density 18.777825
#
# number of rings (size 3 to 8) (size 9 to 14) (size 15 to 20)
#    0.000    2.545    0.000    2.182    0.000    5.091 
#    1.636    1.818    0.000    2.182    0.000    0.000 
#    0.000    0.000    0.000    0.000    0.000    0.000 
#
# Total GULP energy -545144.288947 kJ/mol
# GULP energy per Si atom -12389.642931 kJ/mol
# Density = 1.873509 g / cm^3
# Si number density = 18.777825 Si / 1000 Ang^3
#
#
#
# Elastic Constant Matrix: (Units=GPa)
#
#
# Indices 1 2 3 4 5 6 
#
# 1 129.1374 40.5653 55.1869 0.0000 0.0000 0.0000
# 2 40.5653 61.5811 30.9834 0.0000 0.0000 0.0000
# 3 55.1869 30.9834 105.1786 0.0000 0.0000 0.0000
# 4 0.0000 0.0000 0.0000 23.3990 0.0000 0.0000
# 5 0.0000 0.0000 0.0000 0.0000 54.4433 0.0000
# 6 0.0000 0.0000 0.0000 0.0000 0.0000 20.4141
#
#
#
# Elastic Compliance Matrix: (Units=1/GPa)
#
#
# Indices 1 2 3 4 5 6 
#
# 1 0.011247 -0.005212 -0.004366 0.000000 0.000000 0.000000
# 2 -0.005212 0.021480 -0.003593 0.000000 0.000000 0.000000
# 3 -0.004366 -0.003593 0.012857 0.000000 0.000000 0.000000
# 4 0.000000 0.000000 0.000000 0.042737 0.000000 0.000000
# 5 0.000000 0.000000 0.000000 0.000000 0.018368 0.000000
# 6 0.000000 0.000000 0.000000 0.000000 0.000000 0.048986
#
#
# Mechanical properties :
#
#
# Convention : Reuss Voigt Hill
#
# Bulk Modulus (GPa) = 51.96948 61.04091 56.50519
# Shear Modulus (GPa) = 26.53534 30.92873 28.73204
#
# Velocity S-wave (km/s) = 3.76323 4.06284 3.91590
# Velocity P-wave (km/s) = 6.82778 7.38826 7.11354
#
# Compressibility (1/GPa) = 0.01924206
#
# Stress axis : x y z
#
# Youngs Moduli (GPa) = 88.91597 46.55576 77.78062
#
# Poissons Ratio (x) = 0.24264 0.33957
# Poissons Ratio (y) = 0.46342 0.27945
# Poissons Ratio (z) = 0.38818 0.16726
#
# Static dielectric constant tensor:
#      x y z
#    x 4.134900 0.000000 0.000000 
#    y 0.000000 3.289910 0.000000 
#    z 0.000000 0.000000 3.414370 
# 
# 
# High freq. dielectric constant tensor:
#      x y z
#    x 1.751270 0.000000 0.000000 
#    y 0.000000 1.710980 0.000000 
#    z 0.000000 0.000000 1.705520 
# 
# From -- ./inp_files/47072.got.cif
#   From: 2010.03.12/outbox.cif.g09.slc.cpg/sg74_24_cif.got.tgz:47072.got - 2010.04.16 15:46:19.
