data_PCOD8298608
_publ_section_title
;
Structure prediction by ZEFSAII (Michael W. Deem and Ramdas Pophale) SiO2 
 PCOD8298608
Probable space group: I M M A
;
_chemical_formula_sum "Si O2"
_cell_formula_units_Z 88
_cell_length_a 24.426239
_cell_length_b 9.320329
_cell_length_c 24.245375
_cell_angle_alpha 90.000000
_cell_angle_beta 90.000000
_cell_angle_gamma 90.000000
_cell_volume 5519.716225
_symmetry_space_group_name_H-M "I M M A"
_symmetry_group_IT_number 74
_symmetry_cell_setting 'orthorhombic'
loop_
_space_group_symop_operation_xyz
x,y,z
-x,1/2-y,z
x,-y,-z
-x,1/2+y,-z
-x,-y,-z
x,1/2+y,-z
-x,y,z
x,1/2-y,z
1/2+x,1/2+y,1/2+z
1/2-x,-y,1/2+z
1/2+x,1/2-y,1/2-z
1/2-x,y,1/2-z
1/2-x,1/2-y,1/2-z
1/2+x,y,1/2-z
1/2-x,1/2+y,1/2+z
1/2+x,-y,1/2+z
loop_
_atom_site_type_symbol
_atom_site_label
_atom_site_fract_x
_atom_site_fract_y
_atom_site_fract_z
Si Si1 0.244362 0.082803 0.660373
Si Si2 0.500000 0.583523 0.055676
Si Si3 0.161716 0.415778 0.754921
Si Si4 0.937451 0.589478 0.729265
Si Si5 0.789216 0.417509 0.442779
Si Si6 0.908561 0.092045 0.395038
O O1 0.237657 0.250000 0.645024
O O2 0.194123 0.033371 0.699802
O O3 0.301124 0.055276 0.691849
O O4 0.247746 0.988621 0.604887
O O5 0.500000 0.750000 0.044482
O O6 0.446399 0.539594 0.088521
O O7 0.500000 0.500000 0.000000
O O8 0.147985 0.250000 0.748390
O O9 0.103642 0.494409 0.765816
O O10 0.939313 0.750000 0.753469
O O11 0.907736 0.590299 0.670449
O O12 0.000000 0.528168 0.727169
O O13 0.779335 0.500000 0.500000
O O14 0.774058 0.250000 0.449837
O O15 0.850960 0.438713 0.422917
O O16 0.930127 0.250000 0.414503
#
# Coordination Sequence:
#
# PCOD8298608 Si02
#       6
#    16   8  16  16  16  16
#     4   9  18  33  51  72  98 125 157 202 247 291
#     4  12  24  34  46  60  78 114 162 208 249 286
#     4   9  18  32  51  73  97 125 159 200 246 293
#     4  10  19  32  49  69  97 128 160 203 245 283
#     4  11  22  34  50  70  94 127 163 202 245 290
#     4  10  20  35  48  63  90 122 160 203 243 281
#
# _framework density 15.942849000000001
#
# number of rings (size 3 to 8) (size 9 to 14) (size 15 to 20)
#    0.000    2.000    2.727    3.000    0.000    4.727 
#    0.000    1.818    0.000    0.000    0.000    0.000 
#    0.000    0.727    0.000    2.364    0.000    3.455 
#
# Total GULP energy -545340.823521 kJ/mol
# GULP energy per Si atom -12394.109625 kJ/mol
# Density = 1.590656 g / cm^3
# Si number density = 15.942849 Si / 1000 Ang^3
#
#
#
# Elastic Constant Matrix: (Units=GPa)
#
#
# Indices 1 2 3 4 5 6 
#
# 1 80.1175 46.5508 38.7220 0.0000 0.0000 0.0000
# 2 46.5508 96.3131 46.1722 0.0000 0.0000 0.0000
# 3 38.7220 46.1722 77.0547 0.0000 0.0000 0.0000
# 4 0.0000 0.0000 0.0000 27.0252 0.0000 0.0000
# 5 0.0000 0.0000 0.0000 0.0000 21.6953 0.0000
# 6 0.0000 0.0000 0.0000 0.0000 0.0000 25.8232
#
#
#
# Elastic Compliance Matrix: (Units=1/GPa)
#
#
# Indices 1 2 3 4 5 6 
#
# 1 0.018969 -0.006452 -0.005666 0.000000 0.000000 0.000000
# 2 -0.006452 0.016762 -0.006802 0.000000 0.000000 0.000000
# 3 -0.005666 -0.006802 0.019901 0.000000 0.000000 0.000000
# 4 0.000000 0.000000 0.000000 0.037003 0.000000 0.000000
# 5 0.000000 0.000000 0.000000 0.000000 0.046093 0.000000
# 6 0.000000 0.000000 0.000000 0.000000 0.000000 0.038725
#
#
# Mechanical properties :
#
#
# Convention : Reuss Voigt Hill
#
# Bulk Modulus (GPa) = 56.20508 57.37503 56.79006
# Shear Modulus (GPa) = 22.60165 23.04477 22.82321
#
# Velocity S-wave (km/s) = 3.76928 3.80605 3.78771
# Velocity P-wave (km/s) = 7.36708 7.44182 7.40455
#
# Compressibility (1/GPa) = 0.01779199
#
# Stress axis : x y z
#
# Youngs Moduli (GPa) = 52.71748 59.65917 50.24869
#
# Poissons Ratio (x) = 0.38491 0.28473
# Poissons Ratio (y) = 0.34012 0.34178
# Poissons Ratio (z) = 0.29872 0.40579
#
# Static dielectric constant tensor:
#      x y z
#    x 2.897260 0.000000 0.000000 
#    y 0.000000 2.766790 0.000000 
#    z 0.000000 0.000000 2.846740 
# 
# 
# High freq. dielectric constant tensor:
#      x y z
#    x 1.594690 0.000000 0.000000 
#    y 0.000000 1.620210 0.000000 
#    z 0.000000 0.000000 1.584880 
# 
# From -- ./inp_files/54526.got.cif
#   From: 2010.03.12/outbox.cif.g09.slc.cpg/sg74_28_cif.got.tgz:54526.got - 2010.04.16 15:46:19.
