data_PCOD8298015
_publ_section_title
;
Structure prediction by ZEFSAII (Michael W. Deem and Ramdas Pophale) SiO2 
 PCOD8298015
Probable space group: I M M A
;
_chemical_formula_sum "Si O2"
_cell_formula_units_Z 96
_cell_length_a 17.852309
_cell_length_b 11.912688
_cell_length_c 26.656421
_cell_angle_alpha 90.000000
_cell_angle_beta 90.000000
_cell_angle_gamma 90.000000
_cell_volume 5668.994056
_symmetry_space_group_name_H-M "I M M A"
_symmetry_group_IT_number 74
_symmetry_cell_setting 'orthorhombic'
loop_
_space_group_symop_operation_xyz
x,y,z
-x,1/2-y,z
x,-y,-z
-x,1/2+y,-z
-x,-y,-z
x,1/2+y,-z
-x,y,z
x,1/2-y,z
1/2+x,1/2+y,1/2+z
1/2-x,-y,1/2+z
1/2+x,1/2-y,1/2-z
1/2-x,y,1/2-z
1/2-x,1/2-y,1/2-z
1/2+x,y,1/2-z
1/2-x,1/2+y,1/2+z
1/2+x,-y,1/2+z
loop_
_atom_site_type_symbol
_atom_site_label
_atom_site_fract_x
_atom_site_fract_y
_atom_site_fract_z
Si Si1 0.646533 0.470567 0.300329
Si Si2 0.581597 0.750000 0.542790
Si Si3 0.912916 0.381035 0.881530
Si Si4 0.183434 0.956853 0.948809
Si Si5 0.585414 0.378573 0.201126
Si Si6 0.227591 0.120348 0.354972
Si Si7 0.579307 0.250000 0.342189
O O1 0.612140 0.582167 0.325227
O O2 0.618036 0.461142 0.243683
O O3 0.736044 0.459182 0.310728
O O4 0.622169 0.363853 0.332797
O O5 0.500000 0.750000 0.513881
O O6 0.629387 0.640211 0.530328
O O7 0.561605 0.750000 0.600250
O O8 0.896275 0.250000 0.887531
O O9 0.865427 0.446374 0.922841
O O10 0.000000 0.409521 0.888696
O O11 0.248477 0.916240 0.910842
O O12 0.223007 0.000000 0.000000
O O13 0.500000 0.410691 0.187364
O O14 0.590493 0.250000 0.221299
O O15 0.637491 0.393221 0.151886
O O16 0.250984 0.250000 0.346552
O O17 0.500000 0.250000 0.311886
#
# Coordination Sequence:
#
# PCOD8298015 Si02
#       7
#    16   8  16  16  16  16   8
#     4  11  17  29  48  72 103 137 165 193 231 295
#     4  11  20  32  49  73  99 131 165 203 245 288
#     4  10  21  33  45  67 102 141 173 203 236 281
#     4  11  22  35  51  69  94 131 169 210 251 292
#     4  10  19  28  48  80 107 126 152 200 257 300
#     4  10  18  33  49  72 102 129 161 200 247 296
#     4  11  16  24  44  70 100 132 162 191 229 280
#
# _framework density 16.934221999999998
#
# number of rings (size 3 to 8) (size 9 to 14) (size 15 to 20)
#    0.000    1.500    5.833    2.500    1.167    2.667 
#    0.000    0.000    0.000    8.500    0.000    0.000 
#    0.000    0.000    0.000    0.000    0.000    0.000 
#
# Total GULP energy -594773.133195 kJ/mol
# GULP energy per Si atom -12391.106942 kJ/mol
# Density = 1.689568 g / cm^3
# Si number density = 16.934222 Si / 1000 Ang^3
#
#
#
# Elastic Constant Matrix: (Units=GPa)
#
#
# Indices 1 2 3 4 5 6 
#
# 1 103.8322 26.9910 49.1035 0.0000 0.0000 0.0000
# 2 26.9910 67.1649 24.9422 0.0000 0.0000 0.0000
# 3 49.1035 24.9422 83.0099 0.0000 0.0000 0.0000
# 4 0.0000 0.0000 0.0000 26.5505 0.0000 0.0000
# 5 0.0000 0.0000 0.0000 0.0000 10.9918 0.0000
# 6 0.0000 0.0000 0.0000 0.0000 0.0000 14.7950
#
#
#
# Elastic Compliance Matrix: (Units=1/GPa)
#
#
# Indices 1 2 3 4 5 6 
#
# 1 0.013836 -0.002837 -0.007332 0.000000 0.000000 0.000000
# 2 -0.002837 0.017341 -0.003532 0.000000 0.000000 0.000000
# 3 -0.007332 -0.003532 0.017445 0.000000 0.000000 0.000000
# 4 0.000000 0.000000 0.000000 0.037664 0.000000 0.000000
# 5 0.000000 0.000000 0.000000 0.000000 0.090977 0.000000
# 6 0.000000 0.000000 0.000000 0.000000 0.000000 0.067590
#
#
# Mechanical properties :
#
#
# Convention : Reuss Voigt Hill
#
# Bulk Modulus (GPa) = 47.12729 50.67558 48.90144
# Shear Modulus (GPa) = 17.90011 20.66548 19.28280
#
# Velocity S-wave (km/s) = 3.25474 3.49712 3.37811
# Velocity P-wave (km/s) = 6.48186 6.80415 6.64496
#
# Compressibility (1/GPa) = 0.02121913
#
# Stress axis : x y z
#
# Youngs Moduli (GPa) = 72.27621 57.66822 57.32267
#
# Poissons Ratio (x) = 0.16362 0.42028
# Poissons Ratio (y) = 0.20507 0.20246
# Poissons Ratio (z) = 0.52992 0.20368
#
# Static dielectric constant tensor:
#      x y z
#    x 3.274970 0.000000 0.000000 
#    y 0.000000 3.112360 0.000000 
#    z 0.000000 0.000000 2.993620 
# 
# 
# High freq. dielectric constant tensor:
#      x y z
#    x 1.643080 0.000000 0.000000 
#    y 0.000000 1.631730 0.000000 
#    z 0.000000 0.000000 1.634560 
# 
# From -- ./inp_files/67706.got.cif
#   From: 2010.03.12/outbox.cif.g09.slc.cpg/sg74_34_cif.got.tgz:67706.got - 2010.04.16 15:46:19.
