data_PCOD8298006
_publ_section_title
;
Structure prediction by ZEFSAII (Michael W. Deem and Ramdas Pophale) SiO2 
 PCOD8298006
Probable space group: I M M A
;
_chemical_formula_sum "Si O2"
_cell_formula_units_Z 48
_cell_length_a 14.430043
_cell_length_b 10.458795
_cell_length_c 15.119471
_cell_angle_alpha 90.000000
_cell_angle_beta 90.000000
_cell_angle_gamma 90.000000
_cell_volume 2281.843590
_symmetry_space_group_name_H-M "I M M A"
_symmetry_group_IT_number 74
_symmetry_cell_setting 'orthorhombic'
loop_
_space_group_symop_operation_xyz
x,y,z
-x,1/2-y,z
x,-y,-z
-x,1/2+y,-z
-x,-y,-z
x,1/2+y,-z
-x,y,z
x,1/2-y,z
1/2+x,1/2+y,1/2+z
1/2-x,-y,1/2+z
1/2+x,1/2-y,1/2-z
1/2-x,y,1/2-z
1/2-x,1/2-y,1/2-z
1/2+x,y,1/2-z
1/2-x,1/2+y,1/2+z
1/2+x,-y,1/2+z
loop_
_atom_site_type_symbol
_atom_site_label
_atom_site_fract_x
_atom_site_fract_y
_atom_site_fract_z
Si Si1 0.202826 0.523201 0.658806
Si Si2 0.804296 0.750000 0.380853
Si Si3 0.098570 0.750000 0.075079
Si Si4 0.106475 0.250000 0.428442
Si Si5 0.657053 0.000000 0.500000
O O1 0.250000 0.564940 0.750000
O O2 0.157045 0.379818 0.664602
O O3 0.124613 0.624985 0.631447
O O4 0.280980 0.521889 0.585492
O O5 0.691930 0.750000 0.365927
O O6 0.827700 0.750000 0.485369
O O7 0.095025 0.625215 0.012642
O O8 0.000000 0.750000 0.129313
O O9 0.000000 0.250000 0.459280
#
# Coordination Sequence:
#
# PCOD8298006 Si02
#       5
#    16   8   8   8   8
#     4  11  21  40  65  89 126 166 213 263 317 381
#     4  10  21  41  62  91 122 171 211 256 322 373
#     4  10  18  32  58  85 112 154 194 241 305 370
#     4  12  23  41  67  94 130 173 216 265 320 381
#     4  10  19  38  57  86 116 160 201 248 323 362
#
# _framework density 21.035623000000001
#
# number of rings (size 3 to 8) (size 9 to 14) (size 15 to 20)
#    0.000    1.333    6.667    1.500    0.000    2.667 
#    0.000   10.000    0.000    8.000    0.000    0.000 
#    0.000    0.000    0.000    0.000    0.000    0.000 
#
# Total GULP energy -297406.271748 kJ/mol
# GULP energy per Si atom -12391.927990 kJ/mol
# Density = 2.098775 g / cm^3
# Si number density = 21.035623 Si / 1000 Ang^3
#
#
#
# Elastic Constant Matrix: (Units=GPa)
#
#
# Indices 1 2 3 4 5 6 
#
# 1 93.0857 30.6882 21.5106 0.0000 0.0000 0.0000
# 2 30.6882 160.2879 -9.7533 0.0000 0.0000 0.0000
# 3 21.5106 -9.7533 89.1674 0.0000 0.0000 0.0000
# 4 0.0000 0.0000 0.0000 24.5808 0.0000 0.0000
# 5 0.0000 0.0000 0.0000 0.0000 4.3801 0.0000
# 6 0.0000 0.0000 0.0000 0.0000 0.0000 73.1798
#
#
#
# Elastic Compliance Matrix: (Units=1/GPa)
#
#
# Indices 1 2 3 4 5 6 
#
# 1 0.012340 -0.002561 -0.003257 0.000000 0.000000 0.000000
# 2 -0.002561 0.006812 0.001363 0.000000 0.000000 0.000000
# 3 -0.003257 0.001363 0.012150 0.000000 0.000000 0.000000
# 4 0.000000 0.000000 0.000000 0.040682 0.000000 0.000000
# 5 0.000000 0.000000 0.000000 0.000000 0.228304 0.000000
# 6 0.000000 0.000000 0.000000 0.000000 0.000000 0.013665
#
#
# Mechanical properties :
#
#
# Convention : Reuss Voigt Hill
#
# Bulk Modulus (GPa) = 44.65933 47.49247 46.07590
# Shear Modulus (GPa) = 15.13656 40.43450 27.78553
#
# Velocity S-wave (km/s) = 2.68539 4.38904 3.63833
# Velocity P-wave (km/s) = 5.55801 6.95061 6.29295
#
# Compressibility (1/GPa) = 0.02239174
#
# Stress axis : x y z
#
# Youngs Moduli (GPa) = 81.03996 146.80065 82.30711
#
# Poissons Ratio (x) = 0.37591 0.26806
# Poissons Ratio (y) = 0.20752 -0.11217
# Poissons Ratio (z) = 0.26394 -0.20007
#
# Static dielectric constant tensor:
#      x y z
#    x 3.424530 0.000000 0.000000 
#    y 0.000000 4.949760 0.000000 
#    z 0.000000 0.000000 3.365750 
# 
# 
# High freq. dielectric constant tensor:
#      x y z
#    x 1.792070 0.000000 0.000000 
#    y 0.000000 1.860360 0.000000 
#    z 0.000000 0.000000 1.797500 
# 
# From -- ./inp_files/31482.got.cif
#   From: 2010.03.12/outbox.cif.g09.slc.cpg/sg74_16_cif.got.tgz:31482.got - 2010.04.16 15:46:19.
