data_PCOD8298411
_publ_section_title
;
Structure prediction by ZEFSAII (Michael W. Deem and Ramdas Pophale) SiO2 
 PCOD8298411
Probable space group: I M M A
;
_chemical_formula_sum "Si O2"
_cell_formula_units_Z 128
_cell_length_a 17.682859
_cell_length_b 23.428069
_cell_length_c 19.095770
_cell_angle_alpha 90.000000
_cell_angle_beta 90.000000
_cell_angle_gamma 90.000000
_cell_volume 7910.904714
_symmetry_space_group_name_H-M "I M M A"
_symmetry_group_IT_number 74
_symmetry_cell_setting 'orthorhombic'
loop_
_space_group_symop_operation_xyz
x,y,z
-x,1/2-y,z
x,-y,-z
-x,1/2+y,-z
-x,-y,-z
x,1/2+y,-z
-x,y,z
x,1/2-y,z
1/2+x,1/2+y,1/2+z
1/2-x,-y,1/2+z
1/2+x,1/2-y,1/2-z
1/2-x,y,1/2-z
1/2-x,1/2-y,1/2-z
1/2+x,y,1/2-z
1/2-x,1/2+y,1/2+z
1/2+x,-y,1/2+z
loop_
_atom_site_type_symbol
_atom_site_label
_atom_site_fract_x
_atom_site_fract_y
_atom_site_fract_z
Si Si1 0.645144 0.522139 0.610559
Si Si2 0.823263 0.084719 0.523622
Si Si3 0.678517 0.685174 0.118129
Si Si4 0.324333 0.522878 0.889742
Si Si5 0.645357 0.415151 0.522604
Si Si6 0.587553 0.998945 0.243034
Si Si7 0.412810 0.867833 0.243366
Si Si8 0.644068 0.684921 0.383065
O O1 0.734861 0.523016 0.623573
O O2 0.615767 0.462626 0.577199
O O3 0.618263 0.572430 0.556997
O O4 0.603388 0.530986 0.684027
O O5 0.848019 0.146883 0.551767
O O6 0.850743 0.072872 0.444039
O O7 0.734355 0.077545 0.522106
O O8 0.853493 0.037048 0.577688
O O9 0.657856 0.750000 0.099181
O O10 0.636195 0.666530 0.187732
O O11 0.767278 0.677643 0.133165
O O12 0.366134 0.532387 0.816462
O O13 0.620397 0.352489 0.548831
O O14 0.500000 0.002785 0.224173
O O15 0.615177 0.933210 0.248087
O O16 0.500000 0.864719 0.220846
O O17 0.402998 0.837057 0.317407
O O18 0.622618 0.750000 0.399913
#
# Coordination Sequence:
#
# PCOD8298411 Si02
#       8
#    16  16  16  16  16  16  16  16
#     4   9  16  29  49  65  84 116 148 181 220 267
#     4   8  15  28  46  68  87 109 147 186 220 260
#     4  10  19  31  48  67  88 117 152 187 218 253
#     4   9  16  29  49  65  84 116 148 181 220 267
#     4   8  15  28  46  68  87 109 147 186 220 260
#     4  11  21  30  42  67  95 119 148 184 223 258
#     4  11  22  32  41  60  94 129 155 181 211 252
#     4  10  19  31  48  67  88 117 152 187 218 253
#
# _framework density 16.180197
#
# number of rings (size 3 to 8) (size 9 to 14) (size 15 to 20)
#    0.000    2.500    2.500    2.625    0.000    3.000 
#    0.000    3.750    0.000    0.000    0.000    0.875 
#    0.000    7.000    0.000    0.000    0.000    0.000 
#
# Total GULP energy -793318.465177 kJ/mol
# GULP energy per Si atom -12395.601018 kJ/mol
# Density = 1.614337 g / cm^3
# Si number density = 16.180197 Si / 1000 Ang^3
#
#
#
# Elastic Constant Matrix: (Units=GPa)
#
#
# Indices 1 2 3 4 5 6 
#
# 1 24.9072 12.2929 11.1569 0.0000 0.0000 0.0000
# 2 12.2929 79.3532 44.6610 -0.0002 0.0001 0.0000
# 3 11.1569 44.6610 99.8884 -0.0001 0.0001 0.0000
# 4 0.0000 -0.0002 -0.0001 25.3895 0.0001 0.0000
# 5 0.0000 0.0001 0.0001 0.0001 0.9702 0.0000
# 6 0.0000 0.0000 0.0000 0.0000 0.0000 12.9613
#
#
#
# Elastic Compliance Matrix: (Units=1/GPa)
#
#
# Indices 1 2 3 4 5 6 
#
# 1 0.043932 -0.005404 -0.002491 0.000000 0.000002 0.000000
# 2 -0.005404 0.017504 -0.007223 0.000000 0.000000 0.000000
# 3 -0.002491 -0.007223 0.013519 0.000000 -0.000001 0.000000
# 4 0.000000 0.000000 0.000000 0.039386 -0.000002 0.000000
# 5 0.000002 0.000000 -0.000001 -0.000002 1.030691 0.000001
# 6 0.000000 0.000000 0.000000 0.000000 0.000001 0.077153
#
#
# Mechanical properties :
#
#
# Convention : Reuss Voigt Hill
#
# Bulk Modulus (GPa) = 22.36135 37.81892 30.09014
# Shear Modulus (GPa) = 3.94532 16.93341 10.43936
#
# Velocity S-wave (km/s) = 1.56322 3.23855 2.54282
# Velocity P-wave (km/s) = 4.13623 6.11626 5.22097
#
# Compressibility (1/GPa) = 0.04472002
#
# Stress axis : x y z
#
# Youngs Moduli (GPa) = 22.76259 57.12978 73.97165
#
# Poissons Ratio (x) = 0.30871 0.18425
# Poissons Ratio (y) = 0.12300 0.53427
# Poissons Ratio (z) = 0.05670 0.41263
#
# Static dielectric constant tensor:
#      x y z
#    x 2.791630 0.000000 0.000000 
#    y 0.000000 3.112940 0.000000 
#    z 0.000000 0.000000 3.189880 
# 
# 
# High freq. dielectric constant tensor:
#      x y z
#    x 1.601090 0.000000 0.000000 
#    y 0.000000 1.595940 0.000000 
#    z 0.000000 0.000000 1.619520 
# 
# From -- ./inp_files/44636.got.cif
#   From: 2010.03.12/outbox.cif.g09.slc.cpg/sg74_23_cif.got.tgz:44636.got - 2010.04.16 15:46:19.
