data_PCOD8298591
_publ_section_title
;
Structure prediction by ZEFSAII (Michael W. Deem and Ramdas Pophale) SiO2 
 PCOD8298591
Probable space group: I M M A
;
_chemical_formula_sum "Si O2"
_cell_formula_units_Z 104
_cell_length_a 27.211493
_cell_length_b 9.041247
_cell_length_c 23.635086
_cell_angle_alpha 90.000000
_cell_angle_beta 90.000000
_cell_angle_gamma 90.000000
_cell_volume 5814.841637
_symmetry_space_group_name_H-M "I M M A"
_symmetry_group_IT_number 74
_symmetry_cell_setting 'orthorhombic'
loop_
_space_group_symop_operation_xyz
x,y,z
-x,1/2-y,z
x,-y,-z
-x,1/2+y,-z
-x,-y,-z
x,1/2+y,-z
-x,y,z
x,1/2-y,z
1/2+x,1/2+y,1/2+z
1/2-x,-y,1/2+z
1/2+x,1/2-y,1/2-z
1/2-x,y,1/2-z
1/2-x,1/2-y,1/2-z
1/2+x,y,1/2-z
1/2-x,1/2+y,1/2+z
1/2+x,-y,1/2+z
loop_
_atom_site_type_symbol
_atom_site_label
_atom_site_fract_x
_atom_site_fract_y
_atom_site_fract_z
Si Si1 0.121229 0.578764 0.655271
Si Si2 0.127138 0.580362 0.164405
Si Si3 0.056467 0.574773 0.439580
Si Si4 0.000000 0.416540 0.056878
Si Si5 0.607030 0.578703 0.559915
Si Si6 0.944254 0.917054 0.763871
Si Si7 0.696543 0.077228 0.768411
O O1 0.130440 0.750000 0.638872
O O2 0.097439 0.492187 0.602554
O O3 0.082269 0.561647 0.704716
O O4 0.172982 0.508318 0.677539
O O5 0.124179 0.750000 0.147609
O O6 0.142340 0.492078 0.107341
O O7 0.074972 0.528272 0.188735
O O8 0.166477 0.544816 0.211987
O O9 0.065755 0.500000 0.500000
O O10 0.065087 0.750000 0.444339
O O11 0.000000 0.541620 0.419751
O O12 0.947974 0.449723 0.087166
O O13 0.000000 0.250000 0.036942
O O14 0.000000 0.500000 0.000000
O O15 0.614583 0.500000 0.500000
O O16 0.619472 0.750000 0.551733
O O17 0.937669 0.750000 0.786878
O O18 0.000000 0.957984 0.752342
O O19 0.697604 0.250000 0.784507
O O20 0.750000 0.018024 0.750000
#
# Coordination Sequence:
#
# PCOD8298591 Si02
#       7
#    16  16  16   8  16  16  16
#     4  10  19  32  52  78 106 136 172 216 263 313
#     4  10  20  32  48  73  98 124 163 205 250 300
#     4  10  20  33  51  77 111 151 189 221 255 305
#     4   8  16  28  42  60  84 120 160 192 221 262
#     4  10  19  32  48  67  94 129 165 200 239 283
#     4   9  18  31  46  66  97 135 168 200 243 294
#     4   9  19  37  58  77 100 131 168 214 266 317
#
# _framework density 17.885268
#
# number of rings (size 3 to 8) (size 9 to 14) (size 15 to 20)
#    0.000    2.462    0.000    2.308    1.077    4.000 
#    0.000    0.000    0.000    0.923    0.000    4.308 
#    0.000    0.000    0.000    0.000    0.000    0.000 
#
# Total GULP energy -644302.784515 kJ/mol
# GULP energy per Si atom -12390.438164 kJ/mol
# Density = 1.784456 g / cm^3
# Si number density = 17.885268 Si / 1000 Ang^3
#
#
#
# Elastic Constant Matrix: (Units=GPa)
#
#
# Indices 1 2 3 4 5 6 
#
# 1 89.3630 41.2420 40.6217 0.0000 0.0000 0.0000
# 2 41.2420 102.7971 65.6164 0.0000 0.0000 0.0000
# 3 40.6217 65.6164 94.7196 0.0000 0.0000 0.0000
# 4 0.0000 0.0000 0.0000 35.9077 0.0000 0.0000
# 5 0.0000 0.0000 0.0000 0.0000 19.5349 0.0000
# 6 0.0000 0.0000 0.0000 0.0000 0.0000 21.3198
#
#
#
# Elastic Compliance Matrix: (Units=1/GPa)
#
#
# Indices 1 2 3 4 5 6 
#
# 1 0.014504 -0.003314 -0.003924 0.000000 0.000000 0.000000
# 2 -0.003314 0.018196 -0.011184 0.000000 0.000000 0.000000
# 3 -0.003924 -0.011184 0.019988 0.000000 0.000000 0.000000
# 4 0.000000 0.000000 0.000000 0.027849 0.000000 0.000000
# 5 0.000000 0.000000 0.000000 0.000000 0.051190 0.000000
# 6 0.000000 0.000000 0.000000 0.000000 0.000000 0.046905
#
#
# Mechanical properties :
#
#
# Convention : Reuss Voigt Hill
#
# Bulk Modulus (GPa) = 63.11805 64.64888 63.88347
# Shear Modulus (GPa) = 22.64914 24.64578 23.64746
#
# Velocity S-wave (km/s) = 3.56245 3.71616 3.64012
# Velocity P-wave (km/s) = 7.23108 7.39176 7.31186
#
# Compressibility (1/GPa) = 0.01584333
#
# Stress axis : x y z
#
# Youngs Moduli (GPa) = 68.94834 54.95584 50.02914
#
# Poissons Ratio (x) = 0.18211 0.19634
# Poissons Ratio (y) = 0.22848 0.55954
# Poissons Ratio (z) = 0.27058 0.61464
#
# Static dielectric constant tensor:
#      x y z
#    x 3.280860 0.000000 0.000000 
#    y 0.000000 3.432100 0.000000 
#    z 0.000000 0.000000 3.246010 
# 
# 
# High freq. dielectric constant tensor:
#      x y z
#    x 1.664270 0.000000 0.000000 
#    y 0.000000 1.702330 0.000000 
#    z 0.000000 0.000000 1.691210 
# 
# From -- ./inp_files/62368.got.cif
#   From: 2010.03.12/outbox.cif.g09.slc.cpg/sg74_32_cif.got.tgz:62368.got - 2010.04.16 15:46:19.
