data_PCOD8298413
_publ_section_title
;
Structure prediction by ZEFSAII (Michael W. Deem and Ramdas Pophale) SiO2 
 PCOD8298413
Probable space group: I M M A
;
_chemical_formula_sum "Si O2"
_cell_formula_units_Z 112
_cell_length_a 25.717407
_cell_length_b 14.261662
_cell_length_c 16.964213
_cell_angle_alpha 90.000000
_cell_angle_beta 90.000000
_cell_angle_gamma 90.000000
_cell_volume 6222.014720
_symmetry_space_group_name_H-M "I M M A"
_symmetry_group_IT_number 74
_symmetry_cell_setting 'orthorhombic'
loop_
_space_group_symop_operation_xyz
x,y,z
-x,1/2-y,z
x,-y,-z
-x,1/2+y,-z
-x,-y,-z
x,1/2+y,-z
-x,y,z
x,1/2-y,z
1/2+x,1/2+y,1/2+z
1/2-x,-y,1/2+z
1/2+x,1/2-y,1/2-z
1/2-x,y,1/2-z
1/2-x,1/2-y,1/2-z
1/2+x,y,1/2-z
1/2-x,1/2+y,1/2+z
1/2+x,-y,1/2+z
loop_
_atom_site_type_symbol
_atom_site_label
_atom_site_fract_x
_atom_site_fract_y
_atom_site_fract_z
Si Si1 0.938666 0.355736 0.397135
Si Si2 0.851431 0.858406 0.080397
Si Si3 0.401673 0.517142 0.204012
Si Si4 0.643622 0.358587 0.398816
Si Si5 0.059217 0.010020 0.868900
Si Si6 0.198108 0.007179 0.801030
Si Si7 0.942235 0.639643 0.427901
O O1 0.921475 0.250000 0.381603
O O2 0.907690 0.415587 0.334245
O O3 0.922148 0.387802 0.485102
O O4 0.000000 0.368163 0.386695
O O5 0.854398 0.750000 0.106793
O O6 0.908277 0.905604 0.091373
O O7 0.807059 0.911410 0.132038
O O8 0.836709 0.867249 0.988618
O O9 0.442934 0.527789 0.274941
O O10 0.344375 0.528532 0.235794
O O11 0.406244 0.597444 0.138972
O O12 0.636595 0.250000 0.374458
O O13 0.588376 0.411654 0.387217
O O14 0.687425 0.406994 0.343367
O O15 0.000000 0.007833 0.901548
O O16 0.250000 0.007776 0.750000
O O17 0.943280 0.750000 0.418852
O O18 0.000000 0.597882 0.416036
#
# Coordination Sequence:
#
# PCOD8298413 Si02
#       7
#    16  16  16  16  16  16  16
#     4   9  17  29  46  69  99 134 165 192 230 288
#     4   9  19  37  58  77 102 138 174 208 251 306
#     4  10  19  31  48  68  95 130 164 204 251 296
#     4   9  19  37  58  77 102 138 174 208 251 306
#     4  10  20  31  48  80 113 138 169 209 252 302
#     4  10  22  38  55  76 100 128 167 219 273 313
#     4   9  17  29  46  69  99 134 165 192 230 288
#
# _framework density 18.000599999999999
#
# number of rings (size 3 to 8) (size 9 to 14) (size 15 to 20)
#    0.000    2.857    0.000    4.286    0.000    8.000 
#    0.000    4.286    0.000    3.429    0.000    0.000 
#    0.000    0.000    0.000    0.000    0.000    0.000 
#
# Total GULP energy -694053.320133 kJ/mol
# GULP energy per Si atom -12393.809288 kJ/mol
# Density = 1.795963 g / cm^3
# Si number density = 18.000600 Si / 1000 Ang^3
#
#
#
# Elastic Constant Matrix: (Units=GPa)
#
#
# Indices 1 2 3 4 5 6 
#
# 1 84.4506 23.2895 27.4434 0.0000 0.0000 0.0000
# 2 23.2895 68.0833 2.2678 0.0000 0.0000 0.0000
# 3 27.4434 2.2678 65.6787 0.0000 0.0000 0.0000
# 4 0.0000 0.0000 0.0000 44.5782 0.0000 0.0000
# 5 0.0000 0.0000 0.0000 0.0000 -0.5370 0.0000
# 6 0.0000 0.0000 0.0000 0.0000 0.0000 11.8578
#
#
#
# Elastic Compliance Matrix: (Units=1/GPa)
#
#
# Indices 1 2 3 4 5 6 
#
# 1 0.015234 -0.005005 -0.006193 0.000000 0.000000 0.000000
# 2 -0.005005 0.016349 0.001527 0.000000 0.000000 0.000000
# 3 -0.006193 0.001527 0.017760 0.000000 0.000000 0.000000
# 4 0.000000 0.000000 0.000000 0.022432 0.000000 0.000000
# 5 0.000000 0.000000 0.000000 0.000000 -1.862064 0.000000
# 6 0.000000 0.000000 0.000000 0.000000 0.000000 0.084333
#
#
# Mechanical properties :
#
#
# Convention : Reuss Voigt Hill
#
# Bulk Modulus (GPa) = 33.33109 36.02378 34.67743
# Shear Modulus (GPa) = -2.98220 22.19392 9.60586
#
# Velocity S-wave (km/s) = -1.28853 3.51515 2.31257
# Velocity P-wave (km/s) = 4.04266 6.04409 5.14170
#
# Compressibility (1/GPa) = 0.03000202
#
# Stress axis : x y z
#
# Youngs Moduli (GPa) = 65.64352 61.16564 56.30498
#
# Poissons Ratio (x) = 0.30612 0.34867
# Poissons Ratio (y) = 0.32853 -0.08596
# Poissons Ratio (z) = 0.40650 -0.09338
#
# Static dielectric constant tensor:
#      x y z
#    x 2.996600 0.000000 0.000000 
#    y 0.000000 3.455050 0.000000 
#    z 0.000000 0.000000 3.731610 
# 
# 
# High freq. dielectric constant tensor:
#      x y z
#    x 1.651350 0.000000 0.000000 
#    y 0.000000 1.705800 0.000000 
#    z 0.000000 0.000000 1.716190 
# 
# From -- ./inp_files/37948.got.cif
#   From: 2010.03.12/outbox.cif.g09.slc.cpg/sg74_19_cif.got.tgz:37948.got - 2010.04.16 15:46:19.
