data_PCOD8298332
_publ_section_title
;
Structure prediction by ZEFSAII (Michael W. Deem and Ramdas Pophale) SiO2 
 PCOD8298332
Probable space group: I M M A
;
_chemical_formula_sum "Si O2"
_cell_formula_units_Z 112
_cell_length_a 18.243080
_cell_length_b 18.314247
_cell_length_c 18.679621
_cell_angle_alpha 90.000000
_cell_angle_beta 90.000000
_cell_angle_gamma 90.000000
_cell_volume 6241.015916
_symmetry_space_group_name_H-M "I M M A"
_symmetry_group_IT_number 74
_symmetry_cell_setting 'orthorhombic'
loop_
_space_group_symop_operation_xyz
x,y,z
-x,1/2-y,z
x,-y,-z
-x,1/2+y,-z
-x,-y,-z
x,1/2+y,-z
-x,y,z
x,1/2-y,z
1/2+x,1/2+y,1/2+z
1/2-x,-y,1/2+z
1/2+x,1/2-y,1/2-z
1/2-x,y,1/2-z
1/2-x,1/2-y,1/2-z
1/2+x,y,1/2-z
1/2-x,1/2+y,1/2+z
1/2+x,-y,1/2+z
loop_
_atom_site_type_symbol
_atom_site_label
_atom_site_fract_x
_atom_site_fract_y
_atom_site_fract_z
Si Si1 0.178056 0.333141 0.631692
Si Si2 0.335732 0.336534 0.571478
Si Si3 0.916725 0.028789 0.863087
Si Si4 0.582540 0.831634 0.997418
Si Si5 0.145078 0.957153 0.575104
Si Si6 0.915954 0.943845 0.300189
Si Si7 0.306091 0.564548 0.554977
O O1 0.164896 0.250000 0.651200
O O2 0.262903 0.350544 0.618556
O O3 0.135847 0.357544 0.560454
O O4 0.141519 0.376621 0.697136
O O5 0.358023 0.250000 0.573470
O O6 0.394888 0.390578 0.607226
O O7 0.323625 0.360250 0.488208
O O8 0.908822 0.023031 0.778202
O O9 0.000000 0.016620 0.887780
O O10 0.870730 0.959422 0.891607
O O11 0.500000 0.837613 0.026011
O O12 0.601692 0.750000 0.972652
O O13 0.596306 0.884083 0.930481
O O14 0.227907 0.932004 0.595088
O O15 0.139601 0.000000 0.500000
O O16 0.109927 0.999091 0.640791
O O17 0.000000 0.919224 0.314958
O O18 0.297827 0.500000 0.500000
#
# Coordination Sequence:
#
# PCOD8298332 Si02
#       7
#    16  16  16  16  16  16  16
#     4  10  19  32  50  76 109 143 175 206 253 317
#     4  10  20  36  59  83 106 134 172 221 272 325
#     4  10  23  39  53  75 107 141 179 224 275 322
#     4  10  19  30  47  74 108 141 170 208 258 305
#     4  11  19  31  52  80 105 138 183 223 255 307
#     4  11  22  34  50  75 110 149 184 219 257 306
#     4   9  18  34  56  77 101 134 172 221 270 316
#
# _framework density 17.945796999999999
#
# number of rings (size 3 to 8) (size 9 to 14) (size 15 to 20)
#    0.000    1.857    2.857    2.571    0.000    7.143 
#    0.000    2.857    0.000    0.857    0.000    4.000 
#    0.000    0.000    0.000    0.000    0.000    0.000 
#
# Total GULP energy -694054.242211 kJ/mol
# GULP energy per Si atom -12393.825754 kJ/mol
# Density = 1.790495 g / cm^3
# Si number density = 17.945797 Si / 1000 Ang^3
#
#
#
# Elastic Constant Matrix: (Units=GPa)
#
#
# Indices 1 2 3 4 5 6 
#
# 1 81.6837 17.6048 30.7345 0.0000 0.0000 0.0000
# 2 17.6048 53.7476 24.8035 0.0000 0.0000 0.0000
# 3 30.7345 24.8035 65.6815 0.0000 0.0000 0.0000
# 4 0.0000 0.0000 0.0000 19.4129 0.0000 0.0000
# 5 0.0000 0.0000 0.0000 0.0000 17.5676 0.0000
# 6 0.0000 0.0000 0.0000 0.0000 0.0000 27.1763
#
#
#
# Elastic Compliance Matrix: (Units=1/GPa)
#
#
# Indices 1 2 3 4 5 6 
#
# 1 0.015040 -0.002033 -0.006270 0.000000 0.000000 0.000000
# 2 -0.002033 0.022807 -0.007661 0.000000 0.000000 0.000000
# 3 -0.006270 -0.007661 0.021052 0.000000 0.000000 0.000000
# 4 0.000000 0.000000 0.000000 0.051512 0.000000 0.000000
# 5 0.000000 0.000000 0.000000 0.000000 0.056923 0.000000
# 6 0.000000 0.000000 0.000000 0.000000 0.000000 0.036797
#
#
# Mechanical properties :
#
#
# Convention : Reuss Voigt Hill
#
# Bulk Modulus (GPa) = 37.07763 38.59983 37.83873
# Shear Modulus (GPa) = 20.40412 21.36270 20.88341
#
# Velocity S-wave (km/s) = 3.37558 3.45396 3.41500
# Velocity P-wave (km/s) = 5.99153 6.12064 6.05643
#
# Compressibility (1/GPa) = 0.02697044
#
# Stress axis : x y z
#
# Youngs Moduli (GPa) = 66.49128 43.84637 47.50126
#
# Poissons Ratio (x) = 0.08913 0.29783
# Poissons Ratio (y) = 0.13516 0.36393
# Poissons Ratio (z) = 0.41689 0.33593
#
# Static dielectric constant tensor:
#      x y z
#    x 3.634400 0.000000 0.000000 
#    y 0.000000 3.496160 0.000000 
#    z 0.000000 0.000000 3.197760 
# 
# 
# High freq. dielectric constant tensor:
#      x y z
#    x 1.708100 0.000000 0.000000 
#    y 0.000000 1.688230 0.000000 
#    z 0.000000 0.000000 1.664330 
# 
# From -- ./inp_files/44415.got.cif
#   From: 2010.03.12/outbox.cif.g09.slc.cpg/sg74_23_cif.got.tgz:44415.got - 2010.04.16 15:46:19.
