data_PCOD8298792
_publ_section_title
;
Structure prediction by ZEFSAII (Michael W. Deem and Ramdas Pophale) SiO2 
 PCOD8298792
Probable space group: I M M A
;
_chemical_formula_sum "Si O2"
_cell_formula_units_Z 88
_cell_length_a 19.989307
_cell_length_b 9.023517
_cell_length_c 24.257618
_cell_angle_alpha 90.000000
_cell_angle_beta 90.000000
_cell_angle_gamma 90.000000
_cell_volume 4375.439988
_symmetry_space_group_name_H-M "I M M A"
_symmetry_group_IT_number 74
_symmetry_cell_setting 'orthorhombic'
loop_
_space_group_symop_operation_xyz
x,y,z
-x,1/2-y,z
x,-y,-z
-x,1/2+y,-z
-x,-y,-z
x,1/2+y,-z
-x,y,z
x,1/2-y,z
1/2+x,1/2+y,1/2+z
1/2-x,-y,1/2+z
1/2+x,1/2-y,1/2-z
1/2-x,y,1/2-z
1/2-x,1/2-y,1/2-z
1/2+x,y,1/2-z
1/2-x,1/2+y,1/2+z
1/2+x,-y,1/2+z
loop_
_atom_site_type_symbol
_atom_site_label
_atom_site_fract_x
_atom_site_fract_y
_atom_site_fract_z
Si Si1 0.390556 0.087077 0.219653
Si Si2 0.296778 0.085592 0.634899
Si Si3 0.250000 0.502674 0.250000
Si Si4 0.923144 0.079247 0.611934
Si Si5 0.804254 0.426053 0.443248
Si Si6 0.425763 0.078740 0.341343
O O1 0.414159 0.250000 0.199616
O O2 0.426414 0.042903 0.276362
O O3 0.310714 0.097523 0.228197
O O4 0.411680 0.965640 0.175226
O O5 0.294545 0.250000 0.608900
O O6 0.277002 0.100687 0.699195
O O7 0.245586 0.977141 0.604610
O O8 0.371603 0.021495 0.627232
O O9 0.901118 0.250000 0.605734
O O10 0.000000 0.056429 0.595099
O O11 0.879108 0.979116 0.571249
O O12 0.780615 0.500000 0.500000
O O13 0.803072 0.250000 0.448457
O O14 0.500000 0.043945 0.364672
O O15 0.406352 0.250000 0.350768
#
# Coordination Sequence:
#
# PCOD8298792 Si02
#       6
#    16  16   8  16  16  16
#     4  10  19  32  54  83 120 162 205 248 296 354
#     4  11  22  37  60  91 125 159 200 248 300 359
#     4  10  20  32  56  88 126 160 198 250 298 358
#     4  11  24  40  59  86 121 158 200 250 303 357
#     4  12  26  45  68  90 117 155 202 254 304 359
#     4   9  19  35  55  84 124 165 204 245 294 356
#
# _framework density 20.112264
#
# number of rings (size 3 to 8) (size 9 to 14) (size 15 to 20)
#    0.000    1.455    1.818    3.818    0.000    7.273 
#    0.000    0.000    0.000    0.545    0.000    0.000 
#    0.000    0.000    0.000    0.000    0.000    0.000 
#
# Total GULP energy -545627.605150 kJ/mol
# GULP energy per Si atom -12400.627390 kJ/mol
# Density = 2.006649 g / cm^3
# Si number density = 20.112264 Si / 1000 Ang^3
#
#
#
# Elastic Constant Matrix: (Units=GPa)
#
#
# Indices 1 2 3 4 5 6 
#
# 1 124.6382 51.0506 26.0887 0.0000 0.0000 0.0000
# 2 51.0506 145.3317 39.2300 0.0000 0.0000 0.0000
# 3 26.0887 39.2300 62.9545 0.0000 0.0000 0.0000
# 4 0.0000 0.0000 0.0000 29.3527 0.0000 0.0000
# 5 0.0000 0.0000 0.0000 0.0000 17.9033 0.0000
# 6 0.0000 0.0000 0.0000 0.0000 0.0000 27.6198
#
#
#
# Elastic Compliance Matrix: (Units=1/GPa)
#
#
# Indices 1 2 3 4 5 6 
#
# 1 0.009633 -0.002773 -0.002264 0.000000 0.000000 0.000000
# 2 -0.002773 0.009070 -0.004503 0.000000 0.000000 0.000000
# 3 -0.002264 -0.004503 0.019629 0.000000 0.000000 0.000000
# 4 0.000000 0.000000 0.000000 0.034068 0.000000 0.000000
# 5 0.000000 0.000000 0.000000 0.000000 0.055855 0.000000
# 6 0.000000 0.000000 0.000000 0.000000 0.000000 0.036206
#
#
# Mechanical properties :
#
#
# Convention : Reuss Voigt Hill
#
# Bulk Modulus (GPa) = 51.94208 62.85142 57.39675
# Shear Modulus (GPa) = 26.32147 29.41216 27.86681
#
# Velocity S-wave (km/s) = 3.62156 3.82828 3.72635
# Velocity P-wave (km/s) = 6.58557 7.13156 6.86399
#
# Compressibility (1/GPa) = 0.01925222
#
# Stress axis : x y z
#
# Youngs Moduli (GPa) = 103.81256 110.25021 50.94520
#
# Poissons Ratio (x) = 0.30567 0.11535
# Poissons Ratio (y) = 0.28782 0.22942
# Poissons Ratio (z) = 0.23505 0.49648
#
# Static dielectric constant tensor:
#      x y z
#    x 3.806250 0.000000 0.000000 
#    y 0.000000 3.555660 0.000000 
#    z 0.000000 0.000000 3.379470 
# 
# 
# High freq. dielectric constant tensor:
#      x y z
#    x 1.795360 0.000000 0.000000 
#    y 0.000000 1.786900 0.000000 
#    z 0.000000 0.000000 1.751200 
# 
# From -- ./inp_files/61446.got.cif
#   From: 2010.03.12/outbox.cif.g09.slc.cpg/sg74_31_cif.got.tgz:61446.got - 2010.04.16 15:46:19.
