data_PCOD8298213
_publ_section_title
;
Structure prediction by ZEFSAII (Michael W. Deem and Ramdas Pophale) SiO2 
 PCOD8298213
Probable space group: I M M A
;
_chemical_formula_sum "Si O2"
_cell_formula_units_Z 80
_cell_length_a 8.899587
_cell_length_b 23.932294
_cell_length_c 23.420110
_cell_angle_alpha 90.000000
_cell_angle_beta 90.000000
_cell_angle_gamma 90.000000
_cell_volume 4988.191441
_symmetry_space_group_name_H-M "I M M A"
_symmetry_group_IT_number 74
_symmetry_cell_setting 'orthorhombic'
loop_
_space_group_symop_operation_xyz
x,y,z
-x,1/2-y,z
x,-y,-z
-x,1/2+y,-z
-x,-y,-z
x,1/2+y,-z
-x,y,z
x,1/2-y,z
1/2+x,1/2+y,1/2+z
1/2-x,-y,1/2+z
1/2+x,1/2-y,1/2-z
1/2-x,y,1/2-z
1/2-x,1/2-y,1/2-z
1/2+x,y,1/2-z
1/2-x,1/2+y,1/2+z
1/2+x,-y,1/2+z
loop_
_atom_site_type_symbol
_atom_site_label
_atom_site_fract_x
_atom_site_fract_y
_atom_site_fract_z
Si Si1 0.325972 0.979696 0.090570
Si Si2 0.327647 0.687418 0.482905
Si Si3 0.673104 0.913216 0.975634
Si Si4 0.674732 0.686633 0.137394
Si Si5 0.677249 0.583200 0.308610
O O1 0.500000 0.973846 0.107946
O O2 0.222395 0.960328 0.142319
O O3 0.286413 0.043954 0.075290
O O4 0.290702 0.941735 0.036025
O O5 0.500000 0.676545 0.466257
O O6 0.305917 0.750000 0.507507
O O7 0.273270 0.642821 0.530363
O O8 0.227026 0.678283 0.427249
O O9 0.500000 0.896077 0.971672
O O10 0.500000 0.670940 0.140247
O O11 0.704943 0.750000 0.157784
O O12 0.765154 0.645714 0.178666
O O13 0.500000 0.584578 0.302250
O O14 0.750000 0.561820 0.250000
#
# Coordination Sequence:
#
# PCOD8298213 Si02
#       5
#    16  16  16  16  16
#     4   9  18  33  50  71  95 121 157 197 239 283
#     4  10  19  29  44  70 101 128 157 195 235 278
#     4   9  17  30  51  72  95 125 155 193 237 285
#     4  10  20  34  50  66  89 123 162 203 243 281
#     4  12  24  36  51  69  92 124 160 202 243 283
#
# _framework density 16.037877000000002
#
# number of rings (size 3 to 8) (size 9 to 14) (size 15 to 20)
#    0.000    2.000    2.000    4.200    0.000    3.600 
#    0.000    2.000    0.000    0.000    0.000    0.000 
#    0.000    0.800    0.000    2.600    0.000    3.800 
#
# Total GULP energy -496008.302314 kJ/mol
# GULP energy per Si atom -12400.207558 kJ/mol
# Density = 1.600137 g / cm^3
# Si number density = 16.037877 Si / 1000 Ang^3
#
#
#
# Elastic Constant Matrix: (Units=GPa)
#
#
# Indices 1 2 3 4 5 6 
#
# 1 107.2982 49.9363 45.1098 0.0000 0.0000 0.0000
# 2 49.9363 90.8856 43.1733 0.0000 0.0000 0.0000
# 3 45.1098 43.1733 65.9857 0.0000 0.0000 0.0000
# 4 0.0000 0.0000 0.0000 18.9966 0.0000 0.0000
# 5 0.0000 0.0000 0.0000 0.0000 23.8196 0.0000
# 6 0.0000 0.0000 0.0000 0.0000 0.0000 29.1765
#
#
#
# Elastic Compliance Matrix: (Units=1/GPa)
#
#
# Indices 1 2 3 4 5 6 
#
# 1 0.014326 -0.004671 -0.006738 0.000000 0.000000 0.000000
# 2 -0.004671 0.017488 -0.008249 0.000000 0.000000 0.000000
# 3 -0.006738 -0.008249 0.025158 0.000000 0.000000 0.000000
# 4 0.000000 0.000000 0.000000 0.052641 0.000000 0.000000
# 5 0.000000 0.000000 0.000000 0.000000 0.041982 0.000000
# 6 0.000000 0.000000 0.000000 0.000000 0.000000 0.034274
#
#
# Mechanical properties :
#
#
# Convention : Reuss Voigt Hill
#
# Bulk Modulus (GPa) = 56.63442 60.06759 58.35100
# Shear Modulus (GPa) = 21.63849 22.79520 22.21685
#
# Velocity S-wave (km/s) = 3.67715 3.77415 3.72596
# Velocity P-wave (km/s) = 7.30877 7.51846 7.41435
#
# Compressibility (1/GPa) = 0.01765711
#
# Stress axis : x y z
#
# Youngs Moduli (GPa) = 69.80174 57.18361 39.74877
#
# Poissons Ratio (x) = 0.26709 0.26782
# Poissons Ratio (y) = 0.32603 0.32788
# Poissons Ratio (z) = 0.47032 0.47169
#
# Static dielectric constant tensor:
#      x y z
#    x 3.055220 0.000000 0.000000 
#    y 0.000000 3.251600 0.000000 
#    z 0.000000 0.000000 2.745350 
# 
# 
# High freq. dielectric constant tensor:
#      x y z
#    x 1.626910 0.000000 0.000000 
#    y 0.000000 1.618450 0.000000 
#    z 0.000000 0.000000 1.570080 
# 
# From -- ./inp_files/39744.got.cif
#   From: 2010.03.12/outbox.cif.g09.slc.cpg/sg74_20_cif.got.tgz:39744.got - 2010.04.16 15:46:19.
