data_PCOD8298521
_publ_section_title
;
Structure prediction by ZEFSAII (Michael W. Deem and Ramdas Pophale) SiO2 
 PCOD8298521
Probable space group: I M M A
;
_chemical_formula_sum "Si O2"
_cell_formula_units_Z 112
_cell_length_a 27.467763
_cell_length_b 14.451968
_cell_length_c 13.762809
_cell_angle_alpha 90.000000
_cell_angle_beta 90.000000
_cell_angle_gamma 90.000000
_cell_volume 5463.329141
_symmetry_space_group_name_H-M "I M M A"
_symmetry_group_IT_number 74
_symmetry_cell_setting 'orthorhombic'
loop_
_space_group_symop_operation_xyz
x,y,z
-x,1/2-y,z
x,-y,-z
-x,1/2+y,-z
-x,-y,-z
x,1/2+y,-z
-x,y,z
x,1/2-y,z
1/2+x,1/2+y,1/2+z
1/2-x,-y,1/2+z
1/2+x,1/2-y,1/2-z
1/2-x,y,1/2-z
1/2-x,1/2-y,1/2-z
1/2+x,y,1/2-z
1/2-x,1/2+y,1/2+z
1/2+x,-y,1/2+z
loop_
_atom_site_type_symbol
_atom_site_label
_atom_site_fract_x
_atom_site_fract_y
_atom_site_fract_z
Si Si1 0.305885 0.463966 0.268862
Si Si2 0.852593 0.643029 0.942161
Si Si3 0.615958 0.145631 0.164713
Si Si4 0.945870 0.392689 0.515404
Si Si5 0.447235 0.641357 0.659697
Si Si6 0.149323 0.358393 0.833861
Si Si7 0.553175 0.856831 0.233676
O O1 0.250000 0.443603 0.250000
O O2 0.319289 0.418271 0.372151
O O3 0.336810 0.419330 0.179808
O O4 0.314519 0.575056 0.273723
O O5 0.843652 0.750000 0.915643
O O6 0.909293 0.616049 0.925414
O O7 0.840198 0.623114 0.053342
O O8 0.631080 0.250000 0.194030
O O9 0.574057 0.106613 0.236753
O O10 0.594984 0.147944 0.055991
O O11 0.949235 0.500000 0.500000
O O12 0.927987 0.371862 0.624022
O O13 0.000000 0.348757 0.498028
O O14 0.500000 0.594182 0.640724
O O15 0.454735 0.750000 0.665401
O O16 0.157583 0.250000 0.806096
O O17 0.094353 0.392659 0.808097
O O18 0.500000 0.905534 0.250076
O O19 0.546178 0.750000 0.254496
#
# Coordination Sequence:
#
# PCOD8298521 Si02
#       7
#    16  16  16  16  16  16  16
#     4  11  23  40  61  82 108 142 187 245 299 343
#     4   9  19  36  59  86 115 147 181 221 275 335
#     4  10  20  34  55  82 112 149 190 235 291 344
#     4  10  19  31  50  79 117 157 194 232 276 333
#     4   8  14  26  48  81 116 146 178 216 262 324
#     4  10  21  39  61  84 114 150 186 226 275 335
#     4   9  18  33  54  80 111 149 188 221 260 321
#
# _framework density 20.500321
#
# number of rings (size 3 to 8) (size 9 to 14) (size 15 to 20)
#    0.000    2.429    0.000    3.429    0.000    3.429 
#    0.000   10.000    0.000    6.000    0.000    0.000 
#    0.000    0.000    0.000    0.000    0.000    0.000 
#
# Total GULP energy -694055.484231 kJ/mol
# GULP energy per Si atom -12393.847933 kJ/mol
# Density = 2.045366 g / cm^3
# Si number density = 20.500321 Si / 1000 Ang^3
#
#
#
# Elastic Constant Matrix: (Units=GPa)
#
#
# Indices 1 2 3 4 5 6 
#
# 1 138.5310 41.3072 35.3162 0.0000 0.0000 0.0000
# 2 41.3072 73.1324 24.9211 0.0000 0.0000 0.0000
# 3 35.3162 24.9211 71.3526 0.0000 0.0000 0.0000
# 4 0.0000 0.0000 0.0000 25.0020 0.0000 0.0000
# 5 0.0000 0.0000 0.0000 0.0000 2.8082 0.0000
# 6 0.0000 0.0000 0.0000 0.0000 0.0000 22.2252
#
#
#
# Elastic Compliance Matrix: (Units=1/GPa)
#
#
# Indices 1 2 3 4 5 6 
#
# 1 0.009257 -0.004163 -0.003128 0.000000 0.000000 0.000000
# 2 -0.004163 0.017393 -0.004014 0.000000 0.000000 0.000000
# 3 -0.003128 -0.004014 0.016965 0.000000 0.000000 0.000000
# 4 0.000000 0.000000 0.000000 0.039997 0.000000 0.000000
# 5 0.000000 0.000000 0.000000 0.000000 0.356102 0.000000
# 6 0.000000 0.000000 0.000000 0.000000 0.000000 0.044994
#
#
# Mechanical properties :
#
#
# Convention : Reuss Voigt Hill
#
# Bulk Modulus (GPa) = 47.60748 54.01166 50.80957
# Shear Modulus (GPa) = 9.72156 22.10517 15.91337
#
# Velocity S-wave (km/s) = 2.18001 3.28729 2.78915
# Velocity P-wave (km/s) = 5.44149 6.38845 5.93389
#
# Compressibility (1/GPa) = 0.02100510
#
# Stress axis : x y z
#
# Youngs Moduli (GPa) = 108.02271 57.49402 58.94408
#
# Poissons Ratio (x) = 0.23934 0.18438
# Poissons Ratio (y) = 0.44968 0.23663
# Poissons Ratio (z) = 0.33789 0.23081
#
# Static dielectric constant tensor:
#      x y z
#    x 3.738620 0.000000 0.000000 
#    y 0.000000 3.730070 0.000000 
#    z 0.000000 0.000000 3.511040 
# 
# 
# High freq. dielectric constant tensor:
#      x y z
#    x 1.774710 0.000000 0.000000 
#    y 0.000000 1.806290 0.000000 
#    z 0.000000 0.000000 1.788400 
# 
# From -- ./inp_files/37429.got.cif
#   From: 2010.03.12/outbox.cif.g09.slc.cpg/sg74_19_cif.got.tgz:37429.got - 2010.04.16 15:46:19.
