data_PCOD8298828
_publ_section_title
;
Structure prediction by ZEFSAII (Michael W. Deem and Ramdas Pophale) SiO2 
 PCOD8298828
Probable space group: I M M A
;
_chemical_formula_sum "Si O2"
_cell_formula_units_Z 104
_cell_length_a 8.795442
_cell_length_b 22.359892
_cell_length_c 29.937291
_cell_angle_alpha 90.000000
_cell_angle_beta 90.000000
_cell_angle_gamma 90.000000
_cell_volume 5887.621323
_symmetry_space_group_name_H-M "I M M A"
_symmetry_group_IT_number 74
_symmetry_cell_setting 'orthorhombic'
loop_
_space_group_symop_operation_xyz
x,y,z
-x,1/2-y,z
x,-y,-z
-x,1/2+y,-z
-x,-y,-z
x,1/2+y,-z
-x,y,z
x,1/2-y,z
1/2+x,1/2+y,1/2+z
1/2-x,-y,1/2+z
1/2+x,1/2-y,1/2-z
1/2-x,y,1/2-z
1/2-x,1/2-y,1/2-z
1/2+x,y,1/2-z
1/2-x,1/2+y,1/2+z
1/2+x,-y,1/2+z
loop_
_atom_site_type_symbol
_atom_site_label
_atom_site_fract_x
_atom_site_fract_y
_atom_site_fract_z
Si Si1 0.680388 0.469344 0.797088
Si Si2 0.821432 0.183145 0.945455
Si Si3 0.679687 0.096285 0.296685
Si Si4 0.320267 0.866673 0.352462
Si Si5 0.331138 0.178897 0.033256
Si Si6 0.677663 0.819887 0.867897
Si Si7 0.178625 0.250000 0.798321
O O1 0.500000 0.473057 0.792665
O O2 0.750000 0.447726 0.750000
O O3 0.746269 0.533535 0.810845
O O4 0.727262 0.423248 0.835293
O O5 0.751649 0.250000 0.940076
O O6 0.770087 0.142341 0.903955
O O7 0.000000 0.188554 0.945418
O O8 0.770149 0.153660 0.992500
O O9 0.500000 0.088371 0.291471
O O10 0.750000 0.118549 0.250000
O O11 0.716489 0.145159 0.333762
O O12 0.500000 0.878033 0.347640
O O13 0.268135 0.808441 0.325041
O O14 0.500000 0.154207 0.025336
O O15 0.330064 0.250000 0.033220
O O16 0.273360 0.158532 0.082211
O O17 0.500000 0.833858 0.859707
O O18 0.709970 0.750000 0.861279
O O19 0.250000 0.250000 0.750000
O O20 0.000000 0.250000 0.792897
#
# Coordination Sequence:
#
# PCOD8298828 Si02
#       7
#    16  16  16  16  16  16   8
#     4  11  22  37  55  74  97 131 174 215 257 306
#     4   9  16  28  47  71 101 136 171 210 257 304
#     4  11  22  37  57  79 104 135 171 210 250 298
#     4  10  19  33  50  71 101 135 172 215 261 307
#     4   8  15  28  47  72 103 137 169 204 246 296
#     4   9  18  34  55  80 111 142 169 202 249 299
#     4  10  20  32  46  66  98 134 168 210 263 312
#
# _framework density 17.664180999999999
#
# number of rings (size 3 to 8) (size 9 to 14) (size 15 to 20)
#    0.000    2.308    0.769    5.077    0.000    3.692 
#    0.000    1.538    0.000    0.923    0.000    6.462 
#    0.000    0.000    0.000    0.000    0.000    0.000 
#
# Total GULP energy -644681.270404 kJ/mol
# GULP energy per Si atom -12397.716739 kJ/mol
# Density = 1.762398 g / cm^3
# Si number density = 17.664181 Si / 1000 Ang^3
#
#
#
# Elastic Constant Matrix: (Units=GPa)
#
#
# Indices 1 2 3 4 5 6 
#
# 1 86.8496 36.3256 53.8986 0.0000 0.0000 0.0000
# 2 36.3256 63.1162 59.9106 0.0000 0.0000 0.0000
# 3 53.8986 59.9106 149.7303 0.0000 0.0000 0.0000
# 4 0.0000 0.0000 0.0000 15.7217 0.0000 0.0000
# 5 0.0000 0.0000 0.0000 0.0000 33.4966 0.0000
# 6 0.0000 0.0000 0.0000 0.0000 0.0000 23.1981
#
#
#
# Elastic Compliance Matrix: (Units=1/GPa)
#
#
# Indices 1 2 3 4 5 6 
#
# 1 0.016160 -0.006093 -0.003379 0.000000 0.000000 0.000000
# 2 -0.006093 0.027844 -0.008948 0.000000 0.000000 0.000000
# 3 -0.003379 -0.008948 0.011475 0.000000 0.000000 0.000000
# 4 0.000000 0.000000 0.000000 0.063606 0.000000 0.000000
# 5 0.000000 0.000000 0.000000 0.000000 0.029854 0.000000
# 6 0.000000 0.000000 0.000000 0.000000 0.000000 0.043107
#
#
# Mechanical properties :
#
#
# Convention : Reuss Voigt Hill
#
# Bulk Modulus (GPa) = 53.65038 66.66285 60.15661
# Shear Modulus (GPa) = 21.26770 24.45402 22.86086
#
# Velocity S-wave (km/s) = 3.47364 3.72477 3.60139
# Velocity P-wave (km/s) = 6.82104 7.50463 7.17098
#
# Compressibility (1/GPa) = 0.01863920
#
# Stress axis : x y z
#
# Youngs Moduli (GPa) = 61.88258 35.91467 87.14447
#
# Poissons Ratio (x) = 0.21883 0.29446
# Poissons Ratio (y) = 0.37705 0.77974
# Poissons Ratio (z) = 0.20910 0.32135
#
# Static dielectric constant tensor:
#      x y z
#    x 3.231660 0.000000 0.000000 
#    y 0.000000 3.037700 0.000000 
#    z 0.000000 0.000000 3.527520 
# 
# 
# High freq. dielectric constant tensor:
#      x y z
#    x 1.679730 0.000000 0.000000 
#    y 0.000000 1.651580 0.000000 
#    z 0.000000 0.000000 1.694830 
# 
# From -- ./inp_files/70547.got.cif
#   From: 2010.03.12/outbox.cif.g09.slc.cpg/sg74_36_cif.got.tgz:70547.got - 2010.04.16 15:46:19.
