data_PCOD8298609
_publ_section_title
;
Structure prediction by ZEFSAII (Michael W. Deem and Ramdas Pophale) SiO2 
 PCOD8298609
Probable space group: I M M A
;
_chemical_formula_sum "Si O2"
_cell_formula_units_Z 96
_cell_length_a 22.655162
_cell_length_b 8.835874
_cell_length_c 27.602745
_cell_angle_alpha 90.000000
_cell_angle_beta 90.000000
_cell_angle_gamma 90.000000
_cell_volume 5525.466619
_symmetry_space_group_name_H-M "I M M A"
_symmetry_group_IT_number 74
_symmetry_cell_setting 'orthorhombic'
loop_
_space_group_symop_operation_xyz
x,y,z
-x,1/2-y,z
x,-y,-z
-x,1/2+y,-z
-x,-y,-z
x,1/2+y,-z
-x,y,z
x,1/2-y,z
1/2+x,1/2+y,1/2+z
1/2-x,-y,1/2+z
1/2+x,1/2-y,1/2-z
1/2-x,y,1/2-z
1/2-x,1/2-y,1/2-z
1/2+x,y,1/2-z
1/2-x,1/2+y,1/2+z
1/2+x,-y,1/2+z
loop_
_atom_site_type_symbol
_atom_site_label
_atom_site_fract_x
_atom_site_fract_y
_atom_site_fract_z
Si Si1 0.500000 0.928923 0.874168
Si Si2 0.766524 0.926146 0.449802
Si Si3 0.377003 0.076218 0.724737
Si Si4 0.000000 0.072877 0.732247
Si Si5 0.182048 0.426628 0.309041
Si Si6 0.617680 0.928282 0.105512
Si Si7 0.209580 0.923780 0.146925
O O1 0.500000 0.750000 0.872901
O O2 0.500000 0.987287 0.818831
O O3 0.556194 0.987518 0.904908
O O4 0.768857 0.750000 0.459114
O O5 0.831229 0.982105 0.431812
O O6 0.716512 0.969350 0.409706
O O7 0.748020 0.000000 0.500000
O O8 0.367975 0.250000 0.740740
O O9 0.444268 0.026075 0.734302
O O10 0.357199 0.057325 0.667909
O O11 0.332388 0.968998 0.753989
O O12 0.000000 0.250000 0.720061
O O13 0.171788 0.250000 0.318554
O O14 0.136662 0.524845 0.340688
O O15 0.248874 0.470084 0.320853
O O16 0.607453 0.750000 0.103165
O O17 0.231574 0.750000 0.152194
#
# Coordination Sequence:
#
# PCOD8298609 Si02
#       7
#     8  16  16   8  16  16  16
#     4  12  22  32  49  75 102 133 172 214 247 282
#     4   9  19  35  55  75  95 121 159 209 262 307
#     4  10  19  32  49  69  98 135 172 201 238 294
#     4  10  20  32  50  71  98 141 177 204 237 284
#     4  11  20  29  45  72 102 130 165 207 248 288
#     4  10  20  35  52  70  97 136 173 204 244 299
#     4   9  19  34  50  70  97 131 165 200 247 305
#
# _framework density 17.374099000000001
#
# number of rings (size 3 to 8) (size 9 to 14) (size 15 to 20)
#    0.000    2.000    1.667    4.250    0.000    6.000 
#    0.000    0.417    0.000    0.000    0.000    0.583 
#    0.000    0.000    0.000    0.000    0.000    0.000 
#
# Total GULP energy -594948.540600 kJ/mol
# GULP energy per Si atom -12394.761262 kJ/mol
# Density = 1.733455 g / cm^3
# Si number density = 17.374099 Si / 1000 Ang^3
#
#
#
# Elastic Constant Matrix: (Units=GPa)
#
#
# Indices 1 2 3 4 5 6 
#
# 1 54.9573 23.8279 44.0661 0.0000 0.0000 0.0000
# 2 23.8279 62.2264 28.8971 0.0000 0.0000 0.0000
# 3 44.0661 28.8971 107.2279 0.0000 0.0000 0.0000
# 4 0.0000 0.0000 0.0000 22.1705 0.0000 0.0000
# 5 0.0000 0.0000 0.0000 0.0000 17.0362 0.0000
# 6 0.0000 0.0000 0.0000 0.0000 0.0000 12.1301
#
#
#
# Elastic Compliance Matrix: (Units=1/GPa)
#
#
# Indices 1 2 3 4 5 6 
#
# 1 0.029220 -0.006415 -0.010279 0.000000 0.000000 0.000000
# 2 -0.006415 0.019778 -0.002694 0.000000 0.000000 0.000000
# 3 -0.010279 -0.002694 0.014276 0.000000 0.000000 0.000000
# 4 0.000000 0.000000 0.000000 0.045105 0.000000 0.000000
# 5 0.000000 0.000000 0.000000 0.000000 0.058699 0.000000
# 6 0.000000 0.000000 0.000000 0.000000 0.000000 0.082439
#
#
# Mechanical properties :
#
#
# Convention : Reuss Voigt Hill
#
# Bulk Modulus (GPa) = 40.82061 46.44377 43.63219
# Shear Modulus (GPa) = 16.86579 18.77539 17.82059
#
# Velocity S-wave (km/s) = 3.11906 3.29090 3.20613
# Velocity P-wave (km/s) = 6.04297 6.42103 6.23487
#
# Compressibility (1/GPa) = 0.02449743
#
# Stress axis : x y z
#
# Youngs Moduli (GPa) = 34.22370 50.56180 70.04715
#
# Poissons Ratio (x) = 0.32437 0.72002
# Poissons Ratio (y) = 0.21956 0.18867
# Poissons Ratio (z) = 0.35179 0.13619
#
# Static dielectric constant tensor:
#      x y z
#    x 3.326650 0.000000 0.000000 
#    y 0.000000 3.149890 0.000000 
#    z 0.000000 0.000000 3.145760 
# 
# 
# High freq. dielectric constant tensor:
#      x y z
#    x 1.655820 0.000000 0.000000 
#    y 0.000000 1.669860 0.000000 
#    z 0.000000 0.000000 1.645200 
# 
# From -- ./inp_files/61970.got.cif
#   From: 2010.03.12/outbox.cif.g09.slc.cpg/sg74_31_cif.got.tgz:61970.got - 2010.04.16 15:46:19.
