data_PCOD8298677
_publ_section_title
;
Structure prediction by ZEFSAII (Michael W. Deem and Ramdas Pophale) SiO2 
 PCOD8298677
Probable space group: I M M A
;
_chemical_formula_sum "Si O2"
_cell_formula_units_Z 72
_cell_length_a 8.534606
_cell_length_b 16.359719
_cell_length_c 27.396459
_cell_angle_alpha 90.000000
_cell_angle_beta 90.000000
_cell_angle_gamma 90.000000
_cell_volume 3825.196505
_symmetry_space_group_name_H-M "I M M A"
_symmetry_group_IT_number 74
_symmetry_cell_setting 'orthorhombic'
loop_
_space_group_symop_operation_xyz
x,y,z
-x,1/2-y,z
x,-y,-z
-x,1/2+y,-z
-x,-y,-z
x,1/2+y,-z
-x,y,z
x,1/2-y,z
1/2+x,1/2+y,1/2+z
1/2-x,-y,1/2+z
1/2+x,1/2-y,1/2-z
1/2-x,y,1/2-z
1/2-x,1/2-y,1/2-z
1/2+x,y,1/2-z
1/2-x,1/2+y,1/2+z
1/2+x,-y,1/2+z
loop_
_atom_site_type_symbol
_atom_site_label
_atom_site_fract_x
_atom_site_fract_y
_atom_site_fract_z
Si Si1 0.315808 0.750000 0.804989
Si Si2 0.181016 0.338682 0.608355
Si Si3 0.819223 0.558035 0.301063
Si Si4 0.683465 0.591792 0.642786
Si Si5 0.313387 0.996576 0.055685
O O1 0.500000 0.750000 0.799516
O O2 0.250000 0.750000 0.750000
O O3 0.264729 0.828087 0.836154
O O4 0.262308 0.250000 0.599486
O O5 0.201329 0.363204 0.664711
O O6 0.254913 0.409992 0.575034
O O7 0.000000 0.331148 0.594477
O O8 0.750000 0.585961 0.250000
O O9 0.721033 0.481999 0.320908
O O10 0.000000 0.530991 0.297458
O O11 0.500000 0.607806 0.640681
O O12 0.743953 0.570647 0.587991
O O13 0.500000 0.000983 0.061176
O O14 0.257556 0.000000 0.000000
#
# Coordination Sequence:
#
# PCOD8298677 Si02
#       5
#     8  16  16  16  16
#     4  12  24  40  60  84 116 150 188 234 287 340
#     4   8  15  29  49  73 103 137 176 221 264 312
#     4  10  19  32  51  75 104 140 180 220 268 323
#     4  11  22  37  56  80 111 146 186 228 277 332
#     4   9  18  35  57  81 109 143 186 231 279 331
#
# _framework density 18.822562000000001
#
# number of rings (size 3 to 8) (size 9 to 14) (size 15 to 20)
#    0.000    2.222    0.000    5.667    0.000    0.889 
#    2.000    0.000    0.000   16.000    0.000    0.000 
#    0.000    0.000    0.000    0.000    0.000    0.000 
#
# Total GULP energy -446257.516341 kJ/mol
# GULP energy per Si atom -12396.042121 kJ/mol
# Density = 1.877972 g / cm^3
# Si number density = 18.822562 Si / 1000 Ang^3
#
#
#
# Elastic Constant Matrix: (Units=GPa)
#
#
# Indices 1 2 3 4 5 6 
#
# 1 89.5599 35.3388 44.2283 0.0000 0.0000 0.0000
# 2 35.3388 134.1451 63.8970 0.0000 0.0000 0.0000
# 3 44.2283 63.8970 162.3722 0.0000 0.0000 0.0000
# 4 0.0000 0.0000 0.0000 16.2745 0.0000 0.0000
# 5 0.0000 0.0000 0.0000 0.0000 28.8919 0.0000
# 6 0.0000 0.0000 0.0000 0.0000 0.0000 15.3343
#
#
#
# Elastic Compliance Matrix: (Units=1/GPa)
#
#
# Indices 1 2 3 4 5 6 
#
# 1 0.013412 -0.002207 -0.002785 0.000000 0.000000 0.000000
# 2 -0.002207 0.009537 -0.003152 0.000000 0.000000 0.000000
# 3 -0.002785 -0.003152 0.008158 0.000000 0.000000 0.000000
# 4 0.000000 0.000000 0.000000 0.061446 0.000000 0.000000
# 5 0.000000 0.000000 0.000000 0.000000 0.034612 0.000000
# 6 0.000000 0.000000 0.000000 0.000000 0.000000 0.065213
#
#
# Mechanical properties :
#
#
# Convention : Reuss Voigt Hill
#
# Bulk Modulus (GPa) = 67.47834 74.77839 71.12837
# Shear Modulus (GPa) = 23.40773 28.27434 25.84103
#
# Velocity S-wave (km/s) = 3.53030 3.87996 3.70925
# Velocity P-wave (km/s) = 7.24878 7.73864 7.49771
#
# Compressibility (1/GPa) = 0.01481957
#
# Stress axis : x y z
#
# Youngs Moduli (GPa) = 74.56185 104.85088 122.58416
#
# Poissons Ratio (x) = 0.23137 0.34138
# Poissons Ratio (y) = 0.16453 0.38640
# Poissons Ratio (z) = 0.20764 0.33050
#
# Static dielectric constant tensor:
#      x y z
#    x 3.299480 0.000000 0.000000 
#    y 0.000000 3.697210 0.000000 
#    z 0.000000 0.000000 3.578320 
# 
# 
# High freq. dielectric constant tensor:
#      x y z
#    x 1.715170 0.000000 0.000000 
#    y 0.000000 1.732520 0.000000 
#    z 0.000000 0.000000 1.733380 
# 
# From -- ./inp_files/63604.got.cif
#   From: 2010.03.12/outbox.cif.g09.slc.cpg/sg74_32_cif.got.tgz:63604.got - 2010.04.16 15:46:19.
