data_PCOD8298621
_publ_section_title
;
Structure prediction by ZEFSAII (Michael W. Deem and Ramdas Pophale) SiO2 
 PCOD8298621
Probable space group: I M M A
;
_chemical_formula_sum "Si O2"
_cell_formula_units_Z 80
_cell_length_a 8.760676
_cell_length_b 19.826174
_cell_length_c 25.824064
_cell_angle_alpha 90.000000
_cell_angle_beta 90.000000
_cell_angle_gamma 90.000000
_cell_volume 4485.399410
_symmetry_space_group_name_H-M "I M M A"
_symmetry_group_IT_number 74
_symmetry_cell_setting 'orthorhombic'
loop_
_space_group_symop_operation_xyz
x,y,z
-x,1/2-y,z
x,-y,-z
-x,1/2+y,-z
-x,-y,-z
x,1/2+y,-z
-x,y,z
x,1/2-y,z
1/2+x,1/2+y,1/2+z
1/2-x,-y,1/2+z
1/2+x,1/2-y,1/2-z
1/2-x,y,1/2-z
1/2-x,1/2-y,1/2-z
1/2+x,y,1/2-z
1/2-x,1/2+y,1/2+z
1/2+x,-y,1/2+z
loop_
_atom_site_type_symbol
_atom_site_label
_atom_site_fract_x
_atom_site_fract_y
_atom_site_fract_z
Si Si1 0.317768 0.573443 0.304721
Si Si2 0.681907 0.174712 0.109029
Si Si3 0.820281 0.825642 0.107018
Si Si4 0.830974 0.669841 0.496296
Si Si5 0.182276 0.429388 0.304752
O O1 0.500000 0.568658 0.301174
O O2 0.250000 0.597401 0.250000
O O3 0.259806 0.627010 0.347084
O O4 0.249617 0.501472 0.320760
O O5 0.500000 0.177034 0.107752
O O6 0.745407 0.250000 0.120857
O O7 0.740892 0.124134 0.152952
O O8 0.738348 0.148291 0.052344
O O9 0.753552 0.750000 0.115107
O O10 0.770492 0.856304 0.051523
O O11 0.000000 0.823419 0.108001
O O12 0.838245 0.750000 0.496296
O O13 0.000000 0.639277 0.488874
O O14 0.250000 0.405645 0.250000
O O15 0.000000 0.433524 0.301381
#
# Coordination Sequence:
#
# PCOD8298621 Si02
#       5
#    16  16  16  16  16
#     4  10  20  34  50  67  92 124 155 190 231 276
#     4   8  15  29  49  72  96 122 154 192 230 267
#     4   9  18  32  49  70  95 121 150 188 234 277
#     4   8  14  27  48  71  93 119 152 188 226 270
#     4  10  19  32  50  69  93 125 157 191 231 275
#
# _framework density 17.835647999999999
#
# number of rings (size 3 to 8) (size 9 to 14) (size 15 to 20)
#    0.000    3.000    0.000    3.600    0.000    2.400 
#    0.000    3.000    0.000   10.200    0.000    0.000 
#    0.000    0.000    0.000    0.000    0.000    0.000 
#
# Total GULP energy -495764.665129 kJ/mol
# GULP energy per Si atom -12394.116628 kJ/mol
# Density = 1.779505 g / cm^3
# Si number density = 17.835648 Si / 1000 Ang^3
#
#
#
# Elastic Constant Matrix: (Units=GPa)
#
#
# Indices 1 2 3 4 5 6 
#
# 1 40.9522 24.3246 34.7522 0.0000 0.0000 0.0000
# 2 24.3246 89.6544 99.1960 0.0000 0.0000 0.0000
# 3 34.7522 99.1960 185.2834 0.0000 0.0000 0.0000
# 4 0.0000 0.0000 0.0000 15.2911 0.0000 0.0000
# 5 0.0000 0.0000 0.0000 0.0000 28.6921 0.0000
# 6 0.0000 0.0000 0.0000 0.0000 0.0000 17.4976
#
#
#
# Elastic Compliance Matrix: (Units=1/GPa)
#
#
# Indices 1 2 3 4 5 6 
#
# 1 0.029816 -0.004666 -0.003094 0.000000 0.000000 0.000000
# 2 -0.004666 0.028092 -0.014165 0.000000 0.000000 0.000000
# 3 -0.003094 -0.014165 0.013561 0.000000 0.000000 0.000000
# 4 0.000000 0.000000 0.000000 0.065398 0.000000 0.000000
# 5 0.000000 0.000000 0.000000 0.000000 0.034853 0.000000
# 6 0.000000 0.000000 0.000000 0.000000 0.000000 0.057151
#
#
# Mechanical properties :
#
#
# Convention : Reuss Voigt Hill
#
# Bulk Modulus (GPa) = 36.20661 70.27060 53.23860
# Shear Modulus (GPa) = 17.73515 22.80395 20.26955
#
# Velocity S-wave (km/s) = 3.15678 3.57958 3.37480
# Velocity P-wave (km/s) = 5.79924 7.52123 6.71566
#
# Compressibility (1/GPa) = 0.02761927
#
# Stress axis : x y z
#
# Youngs Moduli (GPa) = 33.53900 35.59752 73.74162
#
# Poissons Ratio (x) = 0.16609 0.22819
# Poissons Ratio (y) = 0.15649 1.04452
# Poissons Ratio (z) = 0.10378 0.50422
#
# Static dielectric constant tensor:
#      x y z
#    x 3.140040 0.000000 0.000000 
#    y 0.000000 3.309250 0.000000 
#    z 0.000000 0.000000 3.708750 
# 
# 
# High freq. dielectric constant tensor:
#      x y z
#    x 1.671990 0.000000 0.000000 
#    y 0.000000 1.665770 0.000000 
#    z 0.000000 0.000000 1.705450 
# 
# From -- ./inp_files/70135.got.cif
#   From: 2010.03.12/outbox.cif.g09.slc.cpg/sg74_36_cif.got.tgz:70135.got - 2010.04.16 15:46:19.
