data_PCOD8298102
_publ_section_title
;
Structure prediction by ZEFSAII (Michael W. Deem and Ramdas Pophale) SiO2 
 PCOD8298102
Probable space group: I M M A
;
_chemical_formula_sum "Si O2"
_cell_formula_units_Z 72
_cell_length_a 27.029334
_cell_length_b 14.329245
_cell_length_c 8.989681
_cell_angle_alpha 90.000000
_cell_angle_beta 90.000000
_cell_angle_gamma 90.000000
_cell_volume 3481.792890
_symmetry_space_group_name_H-M "I M M A"
_symmetry_group_IT_number 74
_symmetry_cell_setting 'orthorhombic'
loop_
_space_group_symop_operation_xyz
x,y,z
-x,1/2-y,z
x,-y,-z
-x,1/2+y,-z
-x,-y,-z
x,1/2+y,-z
-x,y,z
x,1/2-y,z
1/2+x,1/2+y,1/2+z
1/2-x,-y,1/2+z
1/2+x,1/2-y,1/2-z
1/2-x,y,1/2-z
1/2-x,1/2-y,1/2-z
1/2+x,y,1/2-z
1/2-x,1/2+y,1/2+z
1/2+x,-y,1/2+z
loop_
_atom_site_type_symbol
_atom_site_label
_atom_site_fract_x
_atom_site_fract_y
_atom_site_fract_z
Si Si1 0.310042 0.250000 0.781489
Si Si2 0.707587 0.441084 0.362138
Si Si3 0.552336 0.750000 0.513856
Si Si4 0.356630 0.558173 0.150770
Si Si5 0.555115 0.057870 0.641425
Si Si6 0.158991 0.250000 0.046814
O O1 0.250000 0.250000 0.750000
O O2 0.328386 0.342019 0.872157
O O3 0.341600 0.250000 0.631152
O O4 0.729735 0.500000 0.500000
O O5 0.750000 0.416093 0.250000
O O6 0.667458 0.506661 0.289248
O O7 0.685988 0.341989 0.403156
O O8 0.500000 0.750000 0.608053
O O9 0.552668 0.836226 0.404967
O O10 0.602570 0.750000 0.612342
O O11 0.413466 0.558734 0.205479
O O12 0.352034 0.500000 0.000000
O O13 0.500000 0.018219 0.677765
O O14 0.577772 0.000000 0.500000
#
# Coordination Sequence:
#
# PCOD8298102 Si02
#       6
#     8  16   8  16  16   8
#     4  12  26  44  67  91 132 178 213 266 329 390
#     4  12  25  42  64  94 130 174 223 270 324 385
#     4  10  18  35  65  95 123 165 213 260 322 387
#     4  12  25  42  66  93 135 172 217 265 326 390
#     4  10  20  38  65  95 126 166 216 267 322 384
#     4  12  23  41  68  95 133 166 221 276 323 387
#
# _framework density 20.678999999999998
#
# number of rings (size 3 to 8) (size 9 to 14) (size 15 to 20)
#    0.000    0.667    4.444    3.667    3.111    1.333 
#    0.000    1.111    0.000    0.000    0.000    0.000 
#    0.000    0.000    0.000    0.000    0.000    0.000 
#
# Total GULP energy -446085.188292 kJ/mol
# GULP energy per Si atom -12391.255230 kJ/mol
# Density = 2.063193 g / cm^3
# Si number density = 20.679000 Si / 1000 Ang^3
#
#
#
# Elastic Constant Matrix: (Units=GPa)
#
#
# Indices 1 2 3 4 5 6 
#
# 1 140.9479 49.1419 44.6718 0.0000 0.0000 0.0000
# 2 49.1419 168.5027 57.9360 0.0000 0.0000 0.0000
# 3 44.6718 57.9360 96.2270 0.0000 0.0000 0.0000
# 4 0.0000 0.0000 0.0000 78.4956 0.0000 0.0000
# 5 0.0000 0.0000 0.0000 0.0000 49.4097 0.0000
# 6 0.0000 0.0000 0.0000 0.0000 0.0000 32.0759
#
#
#
# Elastic Compliance Matrix: (Units=1/GPa)
#
#
# Indices 1 2 3 4 5 6 
#
# 1 0.008583 -0.001429 -0.003124 0.000000 0.000000 0.000000
# 2 -0.001429 0.007722 -0.003986 0.000000 0.000000 0.000000
# 3 -0.003124 -0.003986 0.014242 0.000000 0.000000 0.000000
# 4 0.000000 0.000000 0.000000 0.012740 0.000000 0.000000
# 5 0.000000 0.000000 0.000000 0.000000 0.020239 0.000000
# 6 0.000000 0.000000 0.000000 0.000000 0.000000 0.031176
#
#
# Mechanical properties :
#
#
# Convention : Reuss Voigt Hill
#
# Bulk Modulus (GPa) = 74.24311 78.79745 76.52028
# Shear Modulus (GPa) = 43.00356 48.92478 45.96417
#
# Velocity S-wave (km/s) = 4.56518 4.86935 4.71972
# Velocity P-wave (km/s) = 7.98552 8.35475 8.17222
#
# Compressibility (1/GPa) = 0.01346926
#
# Stress axis : x y z
#
# Youngs Moduli (GPa) = 116.50610 129.50388 70.21392
#
# Poissons Ratio (x) = 0.18506 0.21937
# Poissons Ratio (y) = 0.16649 0.27985
# Poissons Ratio (z) = 0.36400 0.51617
#
# Static dielectric constant tensor:
#      x y z
#    x 4.522500 0.000000 0.000000 
#    y 0.000000 3.771150 0.000000 
#    z 0.000000 0.000000 3.482550 
# 
# 
# High freq. dielectric constant tensor:
#      x y z
#    x 1.830550 0.000000 0.000000 
#    y 0.000000 1.834070 0.000000 
#    z 0.000000 0.000000 1.771610 
# 
# From -- ./inp_files/9221.got.cif
#   From: 2010.03.12/outbox.cif.g09.slc.cpg/sg74_5_cif.got.tgz:9221.got - 2010.04.16 15:46:19.
