data_PCOD8298061
_publ_section_title
;
Structure prediction by ZEFSAII (Michael W. Deem and Ramdas Pophale) SiO2 
 PCOD8298061
Probable space group: I M M A
;
_chemical_formula_sum "Si O2"
_cell_formula_units_Z 96
_cell_length_a 23.563968
_cell_length_b 8.832946
_cell_length_c 25.741205
_cell_angle_alpha 90.000000
_cell_angle_beta 90.000000
_cell_angle_gamma 90.000000
_cell_volume 5357.755280
_symmetry_space_group_name_H-M "I M M A"
_symmetry_group_IT_number 74
_symmetry_cell_setting 'orthorhombic'
loop_
_space_group_symop_operation_xyz
x,y,z
-x,1/2-y,z
x,-y,-z
-x,1/2+y,-z
-x,-y,-z
x,1/2+y,-z
-x,y,z
x,1/2-y,z
1/2+x,1/2+y,1/2+z
1/2-x,-y,1/2+z
1/2+x,1/2-y,1/2-z
1/2-x,y,1/2-z
1/2-x,1/2-y,1/2-z
1/2+x,y,1/2-z
1/2-x,1/2+y,1/2+z
1/2+x,-y,1/2+z
loop_
_atom_site_type_symbol
_atom_site_label
_atom_site_fract_x
_atom_site_fract_y
_atom_site_fract_z
Si Si1 0.816626 0.428223 0.946439
Si Si2 0.887170 0.929481 0.152967
Si Si3 0.187474 0.929224 0.446240
Si Si4 0.813134 0.069957 0.750132
Si Si5 0.000000 0.429296 0.192432
Si Si6 0.119310 0.570400 0.347974
Si Si7 0.000000 0.429070 0.693343
O O1 0.818616 0.250000 0.952587
O O2 0.858475 0.481770 0.900842
O O3 0.752102 0.480188 0.933884
O O4 0.838458 0.500000 0.000000
O O5 0.897591 0.750000 0.154934
O O6 0.845114 0.983234 0.198342
O O7 0.946213 0.014681 0.159726
O O8 0.183166 0.750000 0.450457
O O9 0.146035 0.993380 0.401262
O O10 0.166070 0.000000 0.500000
O O11 0.810999 0.250000 0.747555
O O12 0.750000 0.001798 0.750000
O O13 0.845519 0.003273 0.700281
O O14 0.000000 0.495010 0.250425
O O15 0.000000 0.250000 0.195966
O O16 0.124353 0.750000 0.348031
O O17 0.054105 0.519788 0.340719
O O18 0.000000 0.250000 0.703882
#
# Coordination Sequence:
#
# PCOD8298061 Si02
#       7
#    16  16  16  16   8  16   8
#     4   9  18  32  53  78 104 133 167 208 254 305
#     4  10  19  34  55  77 101 133 175 213 251 302
#     4   9  17  31  50  76 105 135 169 207 254 303
#     4   9  15  24  46  79 104 121 155 213 262 295
#     4  12  24  36  51  74 105 140 172 209 258 313
#     4   9  16  27  48  74  99 128 170 214 248 293
#     4  10  18  34  55  74  96 134 178 217 257 297
#
# _framework density 17.917950000000001
#
# number of rings (size 3 to 8) (size 9 to 14) (size 15 to 20)
#    0.000    2.500    1.667    1.750    0.000    4.667 
#    0.000    1.667    0.000    0.500    0.000    0.000 
#    0.000    0.000    0.000    0.000    0.000    0.000 
#
# Total GULP energy -595138.068701 kJ/mol
# GULP energy per Si atom -12398.709765 kJ/mol
# Density = 1.787717 g / cm^3
# Si number density = 17.917950 Si / 1000 Ang^3
#
#
#
# Elastic Constant Matrix: (Units=GPa)
#
#
# Indices 1 2 3 4 5 6 
#
# 1 165.1854 30.1981 101.0746 0.0000 0.0000 0.0000
# 2 30.1981 25.2557 31.8826 0.0000 0.0000 0.0000
# 3 101.0746 31.8826 180.2178 0.0000 0.0000 0.0000
# 4 0.0000 0.0000 0.0000 24.7395 0.0000 0.0000
# 5 0.0000 0.0000 0.0000 0.0000 31.2043 0.0000
# 6 0.0000 0.0000 0.0000 0.0000 0.0000 10.6600
#
#
#
# Elastic Compliance Matrix: (Units=1/GPa)
#
#
# Indices 1 2 3 4 5 6 
#
# 1 0.009924 -0.006232 -0.004464 0.000000 0.000000 0.000000
# 2 -0.006232 0.054894 -0.006216 0.000000 0.000000 0.000000
# 3 -0.004464 -0.006216 0.009152 0.000000 0.000000 0.000000
# 4 0.000000 0.000000 0.000000 0.040421 0.000000 0.000000
# 5 0.000000 0.000000 0.000000 0.000000 0.032047 0.000000
# 6 0.000000 0.000000 0.000000 0.000000 0.000000 0.093809
#
#
# Mechanical properties :
#
#
# Convention : Reuss Voigt Hill
#
# Bulk Modulus (GPa) = 24.90858 77.44106 51.17482
# Shear Modulus (GPa) = 17.39423 27.15433 22.27428
#
# Velocity S-wave (km/s) = 3.11910 3.89714 3.52963
# Velocity P-wave (km/s) = 5.18685 7.97270 6.72560
#
# Compressibility (1/GPa) = 0.04014681
#
# Stress axis : x y z
#
# Youngs Moduli (GPa) = 100.76398 18.21706 109.26664
#
# Poissons Ratio (x) = 0.11352 0.48771
# Poissons Ratio (y) = 0.62792 0.67924
# Poissons Ratio (z) = 0.44976 0.11324
#
# Static dielectric constant tensor:
#      x y z
#    x 3.534160 0.000000 0.000000 
#    y 0.000000 2.873800 0.000000 
#    z 0.000000 0.000000 3.459350 
# 
# 
# High freq. dielectric constant tensor:
#      x y z
#    x 1.698920 0.000000 0.000000 
#    y 0.000000 1.648390 0.000000 
#    z 0.000000 0.000000 1.699070 
# 
# From -- ./inp_files/57344.got.cif
#   From: 2010.03.12/outbox.cif.g09.slc.cpg/sg74_29_cif.got.tgz:57344.got - 2010.04.16 15:46:19.
