data_PCOD8298865
_publ_section_title
;
Structure prediction by ZEFSAII (Michael W. Deem and Ramdas Pophale) SiO2 
 PCOD8298865
Probable space group: I M M A
;
_chemical_formula_sum "Si O2"
_cell_formula_units_Z 88
_cell_length_a 8.050592
_cell_length_b 31.922295
_cell_length_c 17.083862
_cell_angle_alpha 90.000000
_cell_angle_beta 90.000000
_cell_angle_gamma 90.000000
_cell_volume 4390.439315
_symmetry_space_group_name_H-M "I M M A"
_symmetry_group_IT_number 74
_symmetry_cell_setting 'orthorhombic'
loop_
_space_group_symop_operation_xyz
x,y,z
-x,1/2-y,z
x,-y,-z
-x,1/2+y,-z
-x,-y,-z
x,1/2+y,-z
-x,y,z
x,1/2-y,z
1/2+x,1/2+y,1/2+z
1/2-x,-y,1/2+z
1/2+x,1/2-y,1/2-z
1/2-x,y,1/2-z
1/2-x,1/2-y,1/2-z
1/2+x,y,1/2-z
1/2-x,1/2+y,1/2+z
1/2+x,-y,1/2+z
loop_
_atom_site_type_symbol
_atom_site_label
_atom_site_fract_x
_atom_site_fract_y
_atom_site_fract_z
Si Si1 0.193778 0.645592 0.539326
Si Si2 0.000000 0.297182 0.023091
Si Si3 0.692161 0.081632 0.339153
Si Si4 0.802345 0.507551 0.338513
Si Si5 0.750000 0.146139 0.750000
Si Si6 0.500000 0.297376 0.662365
Si Si7 0.681552 0.593763 0.104581
O O1 0.327363 0.682456 0.554645
O O2 0.197753 0.614056 0.612130
O O3 0.267675 0.622489 0.461327
O O4 0.000000 0.661490 0.529542
O O5 0.000000 0.250000 0.055756
O O6 0.000000 0.297138 0.930127
O O7 0.500000 0.093622 0.346917
O O8 0.750000 0.083756 0.250000
O O9 0.722457 0.034841 0.373005
O O10 0.750000 0.513652 0.250000
O O11 0.731293 0.548284 0.385177
O O12 0.000000 0.504737 0.344269
O O13 0.653147 0.177177 0.694432
O O14 0.657454 0.116152 0.811227
O O15 0.500000 0.250000 0.695163
O O16 0.500000 0.585107 0.069950
#
# Coordination Sequence:
#
# PCOD8298865 Si02
#       7
#    16   8  16  16   8   8  16
#     4  11  23  43  65  94 126 163 210 254 316 376
#     4  11  24  44  66  96 127 161 208 263 318 384
#     4  11  22  40  63  93 123 160 206 254 308 377
#     4  10  19  33  52  84 122 163 212 257 306 358
#     4  12  19  36  56  80 118 160 212 252 311 358
#     4  11  24  38  58  85 120 159 215 272 312 369
#     4  10  21  34  55  83 121 169 207 258 302 361
#
# _framework density 20.043551999999998
#
# number of rings (size 3 to 8) (size 9 to 14) (size 15 to 20)
#    0.000    1.273    4.545    3.545    0.000    1.091 
#    4.909    3.636    0.000    0.545    0.000    0.000 
#    0.000    0.000    0.000    0.000    0.000    0.000 
#
# Total GULP energy -545168.163881 kJ/mol
# GULP energy per Si atom -12390.185543 kJ/mol
# Density = 1.999793 g / cm^3
# Si number density = 20.043552 Si / 1000 Ang^3
#
#
#
# Elastic Constant Matrix: (Units=GPa)
#
#
# Indices 1 2 3 4 5 6 
#
# 1 102.6521 36.9630 10.1219 0.0000 0.0000 0.0000
# 2 36.9630 139.8430 39.8882 0.0001 0.0000 0.0001
# 3 10.1219 39.8882 56.2946 0.0004 -0.0001 0.0004
# 4 0.0000 0.0001 0.0004 29.2619 0.0000 0.0002
# 5 0.0000 0.0000 -0.0001 0.0000 23.4562 0.0000
# 6 0.0000 0.0001 0.0004 0.0002 0.0000 -13.2232
#
#
#
# Elastic Compliance Matrix: (Units=1/GPa)
#
#
# Indices 1 2 3 4 5 6 
#
# 1 0.010767 -0.002875 0.000101 0.000000 0.000000 0.000000
# 2 -0.002875 0.009730 -0.006377 0.000000 0.000000 0.000000
# 3 0.000101 -0.006377 0.022264 0.000000 0.000000 0.000001
# 4 0.000000 0.000000 0.000000 0.034174 0.000000 0.000000
# 5 0.000000 0.000000 0.000000 0.000000 0.042633 0.000000
# 6 0.000000 0.000000 0.000001 0.000000 0.000000 -0.075625
#
#
# Mechanical properties :
#
#
# Convention : Reuss Voigt Hill
#
# Bulk Modulus (GPa) = 40.88492 52.52620 46.70556
# Shear Modulus (GPa) = 71.02528 22.02010 46.52269
#
# Velocity S-wave (km/s) = 5.95923 3.31813 4.82299
# Velocity P-wave (km/s) = 8.23360 6.39866 7.37343
#
# Compressibility (1/GPa) = 0.02445890
#
# Stress axis : x y z
#
# Youngs Moduli (GPa) = 92.87815 102.77787 44.91509
#
# Poissons Ratio (x) = 0.29545 -0.00454
# Poissons Ratio (y) = 0.26699 0.28643
# Poissons Ratio (z) = -0.00938 0.65544
#
# Static dielectric constant tensor:
#      x y z
#    x 3.568510 0.000000 0.000000 
#    y 0.000000 3.895730 0.000000 
#    z 0.000000 0.000000 3.447940 
# 
# 
# High freq. dielectric constant tensor:
#      x y z
#    x 1.780560 0.000000 0.000000 
#    y 0.000000 1.781540 0.000000 
#    z 0.000000 0.000000 1.765670 
# 
# From -- ./inp_files/40172.got.cif
#   From: 2010.03.12/outbox.cif.g09.slc.cpg/sg74_21_cif.got.tgz:40172.got - 2010.04.16 15:46:19.
