data_PCOD8298703
_publ_section_title
;
Structure prediction by ZEFSAII (Michael W. Deem and Ramdas Pophale) SiO2 
 PCOD8298703
Probable space group: I M M A
;
_chemical_formula_sum "Si O2"
_cell_formula_units_Z 96
_cell_length_a 17.534661
_cell_length_b 20.336746
_cell_length_c 14.026718
_cell_angle_alpha 90.000000
_cell_angle_beta 90.000000
_cell_angle_gamma 90.000000
_cell_volume 5001.898841
_symmetry_space_group_name_H-M "I M M A"
_symmetry_group_IT_number 74
_symmetry_cell_setting 'orthorhombic'
loop_
_space_group_symop_operation_xyz
x,y,z
-x,1/2-y,z
x,-y,-z
-x,1/2+y,-z
-x,-y,-z
x,1/2+y,-z
-x,y,z
x,1/2-y,z
1/2+x,1/2+y,1/2+z
1/2-x,-y,1/2+z
1/2+x,1/2-y,1/2-z
1/2-x,y,1/2-z
1/2-x,1/2-y,1/2-z
1/2+x,y,1/2-z
1/2-x,1/2+y,1/2+z
1/2+x,-y,1/2+z
loop_
_atom_site_type_symbol
_atom_site_label
_atom_site_fract_x
_atom_site_fract_y
_atom_site_fract_z
Si Si1 0.329722 0.430941 0.452092
Si Si2 0.911323 0.474003 0.223324
Si Si3 0.329545 0.825046 0.218258
Si Si4 0.412878 0.887212 0.375928
Si Si5 0.411910 0.325616 0.968667
Si Si6 0.652876 0.942142 0.926381
O O1 0.350208 0.500000 0.500000
O O2 0.375860 0.423026 0.353207
O O3 0.360894 0.378672 0.529488
O O4 0.240895 0.421928 0.433129
O O5 0.897081 0.546756 0.183941
O O6 0.866121 0.467770 0.321653
O O7 0.000000 0.458102 0.238725
O O8 0.312414 0.750000 0.195420
O O9 0.250000 0.860532 0.250000
O O10 0.390626 0.829306 0.303560
O O11 0.363236 0.854464 0.120363
O O12 0.500000 0.881679 0.408501
O O13 0.500000 0.329339 0.939522
O O14 0.390826 0.250000 0.996263
O O15 0.395141 0.375488 0.055115
O O16 0.631357 0.000000 0.000000
#
# Coordination Sequence:
#
# PCOD8298703 Si02
#       6
#    16  16  16  16  16  16
#     4   9  19  34  51  73 103 136 166 203 258 314
#     4  10  20  33  51  76 104 133 168 211 258 306
#     4  10  20  33  50  73 102 136 172 209 251 303
#     4  10  19  32  52  75 101 133 169 210 255 304
#     4  10  21  36  52  73 106 143 171 201 254 317
#     4  11  21  33  54  81 105 131 171 219 256 294
#
# _framework density 19.192712
#
# number of rings (size 3 to 8) (size 9 to 14) (size 15 to 20)
#    0.000    2.000    0.000    4.000    0.000    8.333 
#    0.000    0.000    0.000    3.000    0.000    0.000 
#    0.000    0.000    0.000    0.000    0.000    0.000 
#
# Total GULP energy -595130.231960 kJ/mol
# GULP energy per Si atom -12398.546499 kJ/mol
# Density = 1.914903 g / cm^3
# Si number density = 19.192712 Si / 1000 Ang^3
#
#
#
# Elastic Constant Matrix: (Units=GPa)
#
#
# Indices 1 2 3 4 5 6 
#
# 1 111.8277 26.3716 51.0090 0.0000 0.0000 0.0000
# 2 26.3716 40.3442 17.2104 0.0000 0.0000 0.0000
# 3 51.0090 17.2104 114.0146 0.0000 0.0000 0.0000
# 4 0.0000 0.0000 0.0000 22.1796 0.0000 0.0000
# 5 0.0000 0.0000 0.0000 0.0000 40.1190 0.0000
# 6 0.0000 0.0000 0.0000 0.0000 0.0000 21.2415
#
#
#
# Elastic Compliance Matrix: (Units=1/GPa)
#
#
# Indices 1 2 3 4 5 6 
#
# 1 0.012536 -0.006201 -0.004672 0.000000 0.000000 0.000000
# 2 -0.006201 0.029560 -0.001688 0.000000 0.000000 0.000000
# 3 -0.004672 -0.001688 0.011116 0.000000 0.000000 0.000000
# 4 0.000000 0.000000 0.000000 0.045087 0.000000 0.000000
# 5 0.000000 0.000000 0.000000 0.000000 0.024926 0.000000
# 6 0.000000 0.000000 0.000000 0.000000 0.000000 0.047078
#
#
# Mechanical properties :
#
#
# Convention : Reuss Voigt Hill
#
# Bulk Modulus (GPa) = 35.60051 50.59648 43.09850
# Shear Modulus (GPa) = 24.41552 28.14773 26.28163
#
# Velocity S-wave (km/s) = 3.57056 3.83376 3.70449
# Velocity P-wave (km/s) = 5.96555 6.78354 6.38765
#
# Compressibility (1/GPa) = 0.02808948
#
# Stress axis : x y z
#
# Youngs Moduli (GPa) = 79.77042 33.82936 89.96073
#
# Poissons Ratio (x) = 0.20978 0.42033
# Poissons Ratio (y) = 0.49467 0.15183
# Poissons Ratio (z) = 0.37272 0.05710
#
# Static dielectric constant tensor:
#      x y z
#    x 3.610390 0.000000 0.000000 
#    y 0.000000 3.190090 0.000000 
#    z 0.000000 0.000000 3.586610 
# 
# 
# High freq. dielectric constant tensor:
#      x y z
#    x 1.762270 0.000000 0.000000 
#    y 0.000000 1.706430 0.000000 
#    z 0.000000 0.000000 1.748480 
# 
# From -- ./inp_files/22478.got.cif
#   From: 2010.03.12/outbox.cif.g09.slc.cpg/sg74_12_cif.got.tgz:22478.got - 2010.04.16 15:46:19.
