data_PCOD8298351
_publ_section_title
;
Structure prediction by ZEFSAII (Michael W. Deem and Ramdas Pophale) SiO2 
 PCOD8298351
Probable space group: I M M A
;
_chemical_formula_sum "Si O2"
_cell_formula_units_Z 112
_cell_length_a 14.226173
_cell_length_b 15.619999
_cell_length_c 28.844223
_cell_angle_alpha 90.000000
_cell_angle_beta 90.000000
_cell_angle_gamma 90.000000
_cell_volume 6409.555788
_symmetry_space_group_name_H-M "I M M A"
_symmetry_group_IT_number 74
_symmetry_cell_setting 'orthorhombic'
loop_
_space_group_symop_operation_xyz
x,y,z
-x,1/2-y,z
x,-y,-z
-x,1/2+y,-z
-x,-y,-z
x,1/2+y,-z
-x,y,z
x,1/2-y,z
1/2+x,1/2+y,1/2+z
1/2-x,-y,1/2+z
1/2+x,1/2-y,1/2-z
1/2-x,y,1/2-z
1/2-x,1/2-y,1/2-z
1/2+x,y,1/2-z
1/2-x,1/2+y,1/2+z
1/2+x,-y,1/2+z
loop_
_atom_site_type_symbol
_atom_site_label
_atom_site_fract_x
_atom_site_fract_y
_atom_site_fract_z
Si Si1 0.107676 0.501651 0.714098
Si Si2 0.896938 0.845988 0.644655
Si Si3 0.103427 0.567520 0.810687
Si Si4 0.701821 0.346435 0.389826
Si Si5 0.889435 0.492810 0.052087
Si Si6 0.103190 0.601595 0.133911
Si Si7 0.272354 0.343574 0.803938
O O1 0.118202 0.587778 0.685728
O O2 0.150760 0.525121 0.764789
O O3 0.159342 0.423979 0.686855
O O4 0.000000 0.472127 0.720431
O O5 0.890475 0.750000 0.665795
O O6 0.814891 0.858695 0.607073
O O7 0.000000 0.860472 0.621430
O O8 0.169277 0.636884 0.836142
O O9 0.089919 0.493097 0.847298
O O10 0.000000 0.606811 0.798563
O O11 0.672702 0.250000 0.402838
O O12 0.657625 0.408544 0.427051
O O13 0.865303 0.581158 0.080563
O O14 0.000000 0.476822 0.052384
O O15 0.850318 0.500000 0.000000
O O16 0.179955 0.653107 0.163418
O O17 0.000000 0.648262 0.135994
O O18 0.318827 0.250000 0.814522
O O19 0.250000 0.347258 0.750000
#
# Coordination Sequence:
#
# PCOD8298351 Si02
#       7
#    16  16  16  16  16  16  16
#     4  10  19  32  49  67  97 137 170 212 259 298
#     4   9  19  33  49  73 101 131 168 205 247 301
#     4   9  17  28  44  66  94 129 165 203 247 299
#     4  10  19  30  49  74 100 130 162 205 256 307
#     4   9  18  33  54  78 103 133 167 208 260 320
#     4   9  17  32  50  68  96 132 169 209 256 308
#     4  11  22  32  47  70  97 135 182 226 259 299
#
# _framework density 17.473908999999999
#
# number of rings (size 3 to 8) (size 9 to 14) (size 15 to 20)
#    0.000    2.429    1.429    3.000    0.000    2.286 
#    0.000    5.000    0.000    3.000    0.000    0.000 
#    0.000    2.286    0.000    0.000    0.000    0.000 
#
# Total GULP energy -693743.259803 kJ/mol
# GULP energy per Si atom -12388.272496 kJ/mol
# Density = 1.743414 g / cm^3
# Si number density = 17.473909 Si / 1000 Ang^3
#
#
#
# Elastic Constant Matrix: (Units=GPa)
#
#
# Indices 1 2 3 4 5 6 
#
# 1 74.7835 42.9629 39.4477 0.0000 0.0000 0.0000
# 2 42.9629 94.2378 35.9589 0.0000 0.0000 0.0000
# 3 39.4477 35.9589 91.1123 0.0000 0.0000 0.0000
# 4 0.0000 0.0000 0.0000 13.2443 0.0000 0.0000
# 5 0.0000 0.0000 0.0000 0.0000 18.0656 0.0000
# 6 0.0000 0.0000 0.0000 0.0000 0.0000 17.1904
#
#
#
# Elastic Compliance Matrix: (Units=1/GPa)
#
#
# Indices 1 2 3 4 5 6 
#
# 1 0.020691 -0.007081 -0.006164 0.000000 0.000000 0.000000
# 2 -0.007081 0.014916 -0.002821 0.000000 0.000000 0.000000
# 3 -0.006164 -0.002821 0.014757 0.000000 0.000000 0.000000
# 4 0.000000 0.000000 0.000000 0.075504 0.000000 0.000000
# 5 0.000000 0.000000 0.000000 0.000000 0.055354 0.000000
# 6 0.000000 0.000000 0.000000 0.000000 0.000000 0.058172
#
#
# Mechanical properties :
#
#
# Convention : Reuss Voigt Hill
#
# Bulk Modulus (GPa) = 54.84558 55.20806 55.02682
# Shear Modulus (GPa) = 18.01119 19.15099 18.58109
#
# Velocity S-wave (km/s) = 3.21401 3.31414 3.26446
# Velocity P-wave (km/s) = 6.72521 6.80499 6.76522
#
# Compressibility (1/GPa) = 0.01823301
#
# Stress axis : x y z
#
# Youngs Moduli (GPa) = 48.32915 67.04104 67.76219
#
# Poissons Ratio (x) = 0.47474 0.41767
# Poissons Ratio (y) = 0.34223 0.19116
# Poissons Ratio (z) = 0.29789 0.18913
#
# Static dielectric constant tensor:
#      x y z
#    x 3.477060 0.000000 0.000000 
#    y 0.000000 3.253310 0.000000 
#    z 0.000000 0.000000 3.187420 
# 
# 
# High freq. dielectric constant tensor:
#      x y z
#    x 1.675530 0.000000 0.000000 
#    y 0.000000 1.669770 0.000000 
#    z 0.000000 0.000000 1.638930 
# 
# From -- ./inp_files/72684.got.cif
#   From: 2010.03.12/outbox.cif.g09.slc.cpg/sg74_37_cif.got.tgz:72684.got - 2010.04.16 15:46:19.
