data_PCOD8298024
_publ_section_title
;
Structure prediction by ZEFSAII (Michael W. Deem and Ramdas Pophale) SiO2 
 PCOD8298024
Probable space group: I M M A
;
_chemical_formula_sum "Si O2"
_cell_formula_units_Z 80
_cell_length_a 8.435909
_cell_length_b 24.846158
_cell_length_c 20.587292
_cell_angle_alpha 90.000000
_cell_angle_beta 90.000000
_cell_angle_gamma 90.000000
_cell_volume 4315.094919
_symmetry_space_group_name_H-M "I M M A"
_symmetry_group_IT_number 74
_symmetry_cell_setting 'orthorhombic'
loop_
_space_group_symop_operation_xyz
x,y,z
-x,1/2-y,z
x,-y,-z
-x,1/2+y,-z
-x,-y,-z
x,1/2+y,-z
-x,y,z
x,1/2-y,z
1/2+x,1/2+y,1/2+z
1/2-x,-y,1/2+z
1/2+x,1/2-y,1/2-z
1/2-x,y,1/2-z
1/2-x,1/2-y,1/2-z
1/2+x,y,1/2-z
1/2-x,1/2+y,1/2+z
1/2+x,-y,1/2+z
loop_
_atom_site_type_symbol
_atom_site_label
_atom_site_fract_x
_atom_site_fract_y
_atom_site_fract_z
Si Si1 0.176454 0.750000 0.981235
Si Si2 0.685095 0.036218 0.439850
Si Si3 0.175373 0.750000 0.135526
Si Si4 0.816539 0.139594 0.491888
Si Si5 0.185187 0.026390 0.681040
Si Si6 0.187766 0.134109 0.866951
O O1 0.267885 0.696204 0.958602
O O2 0.000000 0.750000 0.951114
O O3 0.167885 0.750000 0.058315
O O4 0.500000 0.048493 0.445104
O O5 0.780038 0.092416 0.440572
O O6 0.744042 0.000000 0.500000
O O7 0.720644 0.005892 0.373364
O O8 0.255304 0.806805 0.156586
O O9 0.000000 0.750000 0.164989
O O10 0.716332 0.126607 0.556442
O O11 0.000000 0.141095 0.510633
O O12 0.250000 0.006225 0.750000
O O13 0.218596 0.089975 0.674044
O O14 0.000000 0.014766 0.674981
O O15 0.000000 0.128763 0.854695
#
# Coordination Sequence:
#
# PCOD8298024 Si02
#       6
#     8  16   8  16  16  16
#     4   9  17  31  49  74 111 148 181 222 275 329
#     4  11  22  37  59  83 111 147 187 229 279 334
#     4   7  14  27  48  72  99 136 179 224 268 315
#     4  11  20  31  52  83 114 144 182 229 278 328
#     4  12  25  40  57  79 109 145 186 233 283 336
#     4  10  18  33  53  76 106 144 185 227 277 330
#
# _framework density 18.539569
#
# number of rings (size 3 to 8) (size 9 to 14) (size 15 to 20)
#    0.000    1.600    2.000    6.300    0.000    0.800 
#    0.000    2.000    0.000    0.000    0.000    0.700 
#    0.000    0.000    0.000    0.000    0.000    0.000 
#
# Total GULP energy -495933.642712 kJ/mol
# GULP energy per Si atom -12398.341068 kJ/mol
# Density = 1.849737 g / cm^3
# Si number density = 18.539569 Si / 1000 Ang^3
#
#
#
# Elastic Constant Matrix: (Units=GPa)
#
#
# Indices 1 2 3 4 5 6 
#
# 1 74.8835 25.5831 4.5562 0.0000 0.0000 0.0000
# 2 25.5831 119.4175 34.8309 -0.0001 0.0000 0.0000
# 3 4.5562 34.8309 72.5869 0.0000 0.0000 0.0000
# 4 0.0000 -0.0001 0.0000 15.9642 0.0000 0.0000
# 5 0.0000 0.0000 0.0000 0.0000 22.1599 0.0000
# 6 0.0000 0.0000 0.0000 0.0000 0.0000 31.0082
#
#
#
# Elastic Compliance Matrix: (Units=1/GPa)
#
#
# Indices 1 2 3 4 5 6 
#
# 1 0.014437 -0.003289 0.000672 0.000000 0.000000 0.000000
# 2 -0.003289 0.010486 -0.004825 0.000000 0.000000 0.000000
# 3 0.000672 -0.004825 0.016050 0.000000 0.000000 0.000000
# 4 0.000000 0.000000 0.000000 0.062640 0.000000 0.000000
# 5 0.000000 0.000000 0.000000 0.000000 0.045127 0.000000
# 6 0.000000 0.000000 0.000000 0.000000 0.000000 0.032250
#
#
# Mechanical properties :
#
#
# Convention : Reuss Voigt Hill
#
# Bulk Modulus (GPa) = 38.33137 44.09206 41.21171
# Shear Modulus (GPa) = 24.44160 27.28763 25.86462
#
# Velocity S-wave (km/s) = 3.63485 3.84064 3.73916
# Velocity P-wave (km/s) = 6.19164 6.59558 6.39680
#
# Compressibility (1/GPa) = 0.02608829
#
# Stress axis : x y z
#
# Youngs Moduli (GPa) = 69.26755 95.36564 62.30599
#
# Poissons Ratio (x) = 0.31364 -0.04187
# Poissons Ratio (y) = 0.22781 0.30064
# Poissons Ratio (z) = -0.04654 0.46016
#
# Static dielectric constant tensor:
#      x y z
#    x 3.353240 0.000000 0.000000 
#    y 0.000000 3.829210 0.000000 
#    z 0.000000 0.000000 2.965330 
# 
# 
# High freq. dielectric constant tensor:
#      x y z
#    x 1.724100 0.000000 0.000000 
#    y 0.000000 1.733500 0.000000 
#    z 0.000000 0.000000 1.665120 
# 
# From -- ./inp_files/39776.got.cif
#   From: 2010.03.12/outbox.cif.g09.slc.cpg/sg74_20_cif.got.tgz:39776.got - 2010.04.16 15:46:19.
