data_PCOD8298472
_publ_section_title
;
Structure prediction by ZEFSAII (Michael W. Deem and Ramdas Pophale) SiO2 
 PCOD8298472
Probable space group: I M M A
;
_chemical_formula_sum "Si O2"
_cell_formula_units_Z 112
_cell_length_a 27.675412
_cell_length_b 10.086336
_cell_length_c 23.054207
_cell_angle_alpha 90.000000
_cell_angle_beta 90.000000
_cell_angle_gamma 90.000000
_cell_volume 6435.432132
_symmetry_space_group_name_H-M "I M M A"
_symmetry_group_IT_number 74
_symmetry_cell_setting 'orthorhombic'
loop_
_space_group_symop_operation_xyz
x,y,z
-x,1/2-y,z
x,-y,-z
-x,1/2+y,-z
-x,-y,-z
x,1/2+y,-z
-x,y,z
x,1/2-y,z
1/2+x,1/2+y,1/2+z
1/2-x,-y,1/2+z
1/2+x,1/2-y,1/2-z
1/2-x,y,1/2-z
1/2-x,1/2-y,1/2-z
1/2+x,y,1/2-z
1/2-x,1/2+y,1/2+z
1/2+x,-y,1/2+z
loop_
_atom_site_type_symbol
_atom_site_label
_atom_site_fract_x
_atom_site_fract_y
_atom_site_fract_z
Si Si1 0.861886 0.395873 0.955509
Si Si2 0.228992 0.601297 0.685894
Si Si3 0.608023 0.094424 0.731388
Si Si4 0.699312 0.894422 0.340668
Si Si5 0.947030 0.407716 0.881414
Si Si6 0.384407 0.597970 0.831510
Si Si7 0.055771 0.402797 0.446869
O O1 0.866058 0.250000 0.984623
O O2 0.830001 0.383559 0.899147
O O3 0.913885 0.453615 0.935167
O O4 0.838782 0.500000 0.000000
O O5 0.242347 0.750000 0.667148
O O6 0.250000 0.574355 0.750000
O O7 0.258413 0.498540 0.646772
O O8 0.173017 0.575350 0.672672
O O9 0.600969 0.250000 0.746037
O O10 0.663409 0.065391 0.712063
O O11 0.573083 0.044284 0.680331
O O12 0.592740 0.005288 0.786199
O O13 0.721948 0.750000 0.326401
O O14 0.947073 0.250000 0.880360
O O15 0.000000 0.468584 0.890777
O O16 0.396884 0.750000 0.814491
O O17 0.407343 0.565033 0.894277
O O18 0.069242 0.500000 0.500000
O O19 0.062605 0.250000 0.466899
O O20 0.000000 0.426611 0.427240
#
# Coordination Sequence:
#
# PCOD8298472 Si02
#       7
#    16  16  16  16  16  16  16
#     4   9  18  32  49  69  92 124 166 206 245 288
#     4  10  19  31  49  74 102 134 164 191 235 293
#     4   9  17  29  47  71  97 128 165 199 237 289
#     4   9  18  32  48  68  97 130 164 202 241 284
#     4   8  15  29  47  67  95 128 160 201 249 289
#     4  10  20  33  50  76 106 130 158 198 244 293
#     4   9  19  37  58  76  98 131 166 203 249 296
#
# _framework density 17.403649999999999
#
# number of rings (size 3 to 8) (size 9 to 14) (size 15 to 20)
#    0.000    2.857    1.429    1.714    0.000    2.857 
#    0.000    2.857    0.000    4.286    0.000    0.000 
#    0.000    0.000    0.000    0.000    0.000    0.000 
#
# Total GULP energy -693901.090211 kJ/mol
# GULP energy per Si atom -12391.090897 kJ/mol
# Density = 1.736404 g / cm^3
# Si number density = 17.403650 Si / 1000 Ang^3
#
#
#
# Elastic Constant Matrix: (Units=GPa)
#
#
# Indices 1 2 3 4 5 6 
#
# 1 66.7257 28.7087 22.1389 0.0000 0.0000 0.0000
# 2 28.7087 79.0676 48.8563 0.0000 0.0000 0.0000
# 3 22.1389 48.8563 80.6436 0.0000 0.0000 0.0000
# 4 0.0000 0.0000 0.0000 21.9606 0.0000 0.0000
# 5 0.0000 0.0000 0.0000 0.0000 13.3917 0.0000
# 6 0.0000 0.0000 0.0000 0.0000 0.0000 21.8052
#
#
#
# Elastic Compliance Matrix: (Units=1/GPa)
#
#
# Indices 1 2 3 4 5 6 
#
# 1 0.017883 -0.005530 -0.001559 0.000000 0.000000 0.000000
# 2 -0.005530 0.021925 -0.011764 0.000000 0.000000 0.000000
# 3 -0.001559 -0.011764 0.019956 0.000000 0.000000 0.000000
# 4 0.000000 0.000000 0.000000 0.045536 0.000000 0.000000
# 5 0.000000 0.000000 0.000000 0.000000 0.074673 0.000000
# 6 0.000000 0.000000 0.000000 0.000000 0.000000 0.045861
#
#
# Mechanical properties :
#
#
# Convention : Reuss Voigt Hill
#
# Bulk Modulus (GPa) = 45.33860 47.31609 46.32734
# Shear Modulus (GPa) = 18.45752 19.88038 19.16895
#
# Velocity S-wave (km/s) = 3.26015 3.38348 3.32238
# Velocity P-wave (km/s) = 6.34659 6.52000 6.43388
#
# Compressibility (1/GPa) = 0.02205626
#
# Stress axis : x y z
#
# Youngs Moduli (GPa) = 55.91821 45.61102 50.11126
#
# Poissons Ratio (x) = 0.25222 0.07814
# Poissons Ratio (y) = 0.30921 0.58953
# Poissons Ratio (z) = 0.08720 0.53659
#
# Static dielectric constant tensor:
#      x y z
#    x 3.420080 0.000000 0.000000 
#    y 0.000000 3.523360 0.000000 
#    z 0.000000 0.000000 3.064310 
# 
# 
# High freq. dielectric constant tensor:
#      x y z
#    x 1.665690 0.000000 0.000000 
#    y 0.000000 1.669130 0.000000 
#    z 0.000000 0.000000 1.653140 
# 
# From -- ./inp_files/55406.got.cif
#   From: 2010.03.12/outbox.cif.g09.slc.cpg/sg74_28_cif.got.tgz:55406.got - 2010.04.16 15:46:19.
