data_PCOD8298837
_publ_section_title
;
Structure prediction by ZEFSAII (Michael W. Deem and Ramdas Pophale) SiO2 
 PCOD8298837
Probable space group: I M M A
;
_chemical_formula_sum "Si O2"
_cell_formula_units_Z 96
_cell_length_a 8.678196
_cell_length_b 22.438147
_cell_length_c 27.386796
_cell_angle_alpha 90.000000
_cell_angle_beta 90.000000
_cell_angle_gamma 90.000000
_cell_volume 5332.829151
_symmetry_space_group_name_H-M "I M M A"
_symmetry_group_IT_number 74
_symmetry_cell_setting 'orthorhombic'
loop_
_space_group_symop_operation_xyz
x,y,z
-x,1/2-y,z
x,-y,-z
-x,1/2+y,-z
-x,-y,-z
x,1/2+y,-z
-x,y,z
x,1/2-y,z
1/2+x,1/2+y,1/2+z
1/2-x,-y,1/2+z
1/2+x,1/2-y,1/2-z
1/2-x,y,1/2-z
1/2-x,1/2-y,1/2-z
1/2+x,y,1/2-z
1/2-x,1/2+y,1/2+z
1/2+x,-y,1/2+z
loop_
_atom_site_type_symbol
_atom_site_label
_atom_site_fract_x
_atom_site_fract_y
_atom_site_fract_z
Si Si1 0.317405 0.750000 0.508992
Si Si2 0.317006 0.519033 0.698677
Si Si3 0.819074 0.869940 0.468239
Si Si4 0.825764 0.445972 0.893629
Si Si5 0.180964 0.871763 0.645962
Si Si6 0.675740 0.568304 0.555370
Si Si7 0.817709 0.750000 0.877916
O O1 0.500000 0.750000 0.506108
O O2 0.253175 0.693491 0.480235
O O3 0.261748 0.750000 0.565396
O O4 0.500000 0.522876 0.699672
O O5 0.250000 0.496981 0.750000
O O6 0.262752 0.470887 0.658095
O O7 0.253476 0.584531 0.686332
O O8 0.778202 0.891000 0.412889
O O9 0.743365 0.920551 0.502061
O O10 0.000000 0.866744 0.475561
O O11 0.818543 0.498766 0.933237
O O12 0.000000 0.422805 0.887741
O O13 0.218850 0.894490 0.592019
O O14 0.252215 0.806364 0.651459
O O15 0.000000 0.869155 0.654306
O O16 0.500000 0.592346 0.559074
O O17 0.000000 0.750000 0.875169
#
# Coordination Sequence:
#
# PCOD8298837 Si02
#       7
#     8  16  16  16  16  16   8
#     4  11  23  37  55  72 104 153 190 220 262 316
#     4  10  21  39  61  83 108 138 175 222 274 328
#     4  12  23  33  50  78 110 140 180 225 264 310
#     4   9  20  36  54  76 106 142 177 214 264 323
#     4  11  21  33  53  79 107 140 181 228 271 316
#     4  10  19  33  51  73 105 145 182 217 261 316
#     4  11  21  35  54  74 102 147 191 224 265 318
#
# _framework density 18.001702000000002
#
# number of rings (size 3 to 8) (size 9 to 14) (size 15 to 20)
#    0.000    1.500    1.667    6.000    0.000    6.667 
#    0.000    0.417    0.000    0.000    0.000    0.583 
#    0.000    0.000    0.000    0.000    0.000    0.000 
#
# Total GULP energy -595255.954863 kJ/mol
# GULP energy per Si atom -12401.165726 kJ/mol
# Density = 1.796073 g / cm^3
# Si number density = 18.001702 Si / 1000 Ang^3
#
#
#
# Elastic Constant Matrix: (Units=GPa)
#
#
# Indices 1 2 3 4 5 6 
#
# 1 100.5610 34.3803 37.7993 0.0000 0.0000 0.0000
# 2 34.3803 53.2496 45.8781 0.0000 0.0000 0.0000
# 3 37.7993 45.8781 102.1799 0.0000 0.0000 0.0000
# 4 0.0000 0.0000 0.0000 15.9402 0.0000 0.0000
# 5 0.0000 0.0000 0.0000 0.0000 27.5627 0.0000
# 6 0.0000 0.0000 0.0000 0.0000 0.0000 16.3709
#
#
#
# Elastic Compliance Matrix: (Units=1/GPa)
#
#
# Indices 1 2 3 4 5 6 
#
# 1 0.012937 -0.006898 -0.001689 0.000000 0.000000 0.000000
# 2 -0.006898 0.034305 -0.012851 0.000000 0.000000 0.000000
# 3 -0.001689 -0.012851 0.016181 0.000000 0.000000 0.000000
# 4 0.000000 0.000000 0.000000 0.062734 0.000000 0.000000
# 5 0.000000 0.000000 0.000000 0.000000 0.036281 0.000000
# 6 0.000000 0.000000 0.000000 0.000000 0.000000 0.061084
#
#
# Mechanical properties :
#
#
# Convention : Reuss Voigt Hill
#
# Bulk Modulus (GPa) = 48.66554 54.67842 51.67198
# Shear Modulus (GPa) = 18.29842 21.17030 19.73436
#
# Velocity S-wave (km/s) = 3.19169 3.43303 3.31456
# Velocity P-wave (km/s) = 6.37770 6.79369 6.58898
#
# Compressibility (1/GPa) = 0.02054842
#
# Stress axis : x y z
#
# Youngs Moduli (GPa) = 77.29599 29.15021 61.79936
#
# Poissons Ratio (x) = 0.20107 0.10437
# Poissons Ratio (y) = 0.53318 0.79418
# Poissons Ratio (z) = 0.13054 0.37461
#
# Static dielectric constant tensor:
#      x y z
#    x 3.359330 0.000000 0.000000 
#    y 0.000000 3.238050 0.000000 
#    z 0.000000 0.000000 3.323170 
# 
# 
# High freq. dielectric constant tensor:
#      x y z
#    x 1.708140 0.000000 0.000000 
#    y 0.000000 1.683050 0.000000 
#    z 0.000000 0.000000 1.675490 
# 
# From -- ./inp_files/64727.got.cif
#   From: 2010.03.12/outbox.cif.g09.slc.cpg/sg74_33_cif.got.tgz:64727.got - 2010.04.16 15:46:19.
