data_PCOD8298301
_publ_section_title
;
Structure prediction by ZEFSAII (Michael W. Deem and Ramdas Pophale) SiO2 
 PCOD8298301
Probable space group: I M M A
;
_chemical_formula_sum "Si O2"
_cell_formula_units_Z 80
_cell_length_a 18.149735
_cell_length_b 27.436970
_cell_length_c 10.103656
_cell_angle_alpha 90.000000
_cell_angle_beta 90.000000
_cell_angle_gamma 90.000000
_cell_volume 5031.355312
_symmetry_space_group_name_H-M "I M M A"
_symmetry_group_IT_number 74
_symmetry_cell_setting 'orthorhombic'
loop_
_space_group_symop_operation_xyz
x,y,z
-x,1/2-y,z
x,-y,-z
-x,1/2+y,-z
-x,-y,-z
x,1/2+y,-z
-x,y,z
x,1/2-y,z
1/2+x,1/2+y,1/2+z
1/2-x,-y,1/2+z
1/2+x,1/2-y,1/2-z
1/2-x,y,1/2-z
1/2-x,1/2-y,1/2-z
1/2+x,y,1/2-z
1/2-x,1/2+y,1/2+z
1/2+x,-y,1/2+z
loop_
_atom_site_type_symbol
_atom_site_label
_atom_site_fract_x
_atom_site_fract_y
_atom_site_fract_z
Si Si1 0.770294 0.693816 0.890222
Si Si2 0.081351 0.194954 0.976820
Si Si3 0.415816 0.893854 0.278226
Si Si4 0.793458 0.038081 0.881884
Si Si5 0.709559 0.369323 0.887903
O O1 0.749303 0.750000 0.887232
O O2 0.750000 0.669238 0.750000
O O3 0.857147 0.684727 0.912596
O O4 0.719196 0.672692 0.005774
O O5 0.092070 0.250000 0.918313
O O6 0.090585 0.155062 0.864050
O O7 0.000000 0.190277 0.041927
O O8 0.500000 0.909333 0.253485
O O9 0.373650 0.940130 0.342660
O O10 0.376878 0.879398 0.139537
O O11 0.750000 0.017876 0.750000
O O12 0.745613 0.081488 0.945142
O O13 0.804275 0.000000 0.000000
O O14 0.750000 0.355412 0.750000
#
# Coordination Sequence:
#
# PCOD8298301 Si02
#       5
#    16  16  16  16  16
#     4  10  19  30  46  72 101 130 163 198 235 284
#     4   9  16  28  47  70  97 127 158 195 238 281
#     4   9  17  31  50  73  99 123 160 205 243 283
#     4   9  18  32  49  72  93 123 160 200 251 294
#     4   9  17  32  48  71  94 123 160 200 242 281
#
# _framework density 15.900289000000001
#
# number of rings (size 3 to 8) (size 9 to 14) (size 15 to 20)
#    0.000    3.200    4.000    0.000    0.000    2.400 
#    0.000    1.000    0.000   10.800    0.000    0.000 
#    0.000    0.000    0.000    0.000    0.000    0.000 
#
# Total GULP energy -495530.740306 kJ/mol
# GULP energy per Si atom -12388.268508 kJ/mol
# Density = 1.586410 g / cm^3
# Si number density = 15.900289 Si / 1000 Ang^3
#
#
#
# Elastic Constant Matrix: (Units=GPa)
#
#
# Indices 1 2 3 4 5 6 
#
# 1 145.8296 48.2878 55.1980 0.0000 0.0000 0.0000
# 2 48.2878 58.8637 51.4382 0.0000 0.0000 0.0000
# 3 55.1980 51.4382 88.6890 0.0001 0.0001 0.0008
# 4 0.0000 0.0000 0.0001 29.6692 0.0000 0.0002
# 5 0.0000 0.0000 0.0001 0.0000 17.5716 0.0001
# 6 0.0000 0.0000 0.0008 0.0002 0.0001 13.1324
#
#
#
# Elastic Compliance Matrix: (Units=1/GPa)
#
#
# Indices 1 2 3 4 5 6 
#
# 1 0.009770 -0.005477 -0.002904 0.000000 0.000000 0.000000
# 2 -0.005477 0.037517 -0.018351 0.000000 0.000000 0.000001
# 3 -0.002904 -0.018351 0.023726 0.000000 0.000000 -0.000001
# 4 0.000000 0.000000 0.000000 0.033705 0.000000 0.000000
# 5 0.000000 0.000000 0.000000 0.000000 0.056910 0.000000
# 6 0.000000 0.000001 -0.000001 0.000000 0.000000 0.076148
#
#
# Mechanical properties :
#
#
# Convention : Reuss Voigt Hill
#
# Bulk Modulus (GPa) = 56.98105 67.02559 62.00332
# Shear Modulus (GPa) = 16.83000 21.30520 19.06760
#
# Velocity S-wave (km/s) = 3.25694 3.66447 3.46670
# Velocity P-wave (km/s) = 7.07516 7.75562 7.42319
#
# Compressibility (1/GPa) = 0.01754969
#
# Stress axis : x y z
#
# Youngs Moduli (GPa) = 102.35281 26.65456 42.14809
#
# Poissons Ratio (x) = 0.14599 0.12240
# Poissons Ratio (y) = 0.56058 0.77344
# Poissons Ratio (z) = 0.29725 0.48913
#
# Static dielectric constant tensor:
#      x y z
#    x 3.309250 0.000000 0.000000 
#    y 0.000000 2.955010 0.000000 
#    z 0.000000 0.000000 2.842390 
# 
# 
# High freq. dielectric constant tensor:
#      x y z
#    x 1.616050 0.000000 0.000000 
#    y 0.000000 1.603630 0.000000 
#    z 0.000000 0.000000 1.581680 
# 
# From -- ./inp_files/11165.got.cif
#   From: 2010.03.12/outbox.cif.g09.slc.cpg/sg74_6_cif.got.tgz:11165.got - 2010.04.16 15:46:19.
