data_PCOD8298456
_publ_section_title
;
Structure prediction by ZEFSAII (Michael W. Deem and Ramdas Pophale) SiO2 
 PCOD8298456
Probable space group: I M M A
;
_chemical_formula_sum "Si O2"
_cell_formula_units_Z 96
_cell_length_a 18.925774
_cell_length_b 9.081306
_cell_length_c 30.908736
_cell_angle_alpha 90.000000
_cell_angle_beta 90.000000
_cell_angle_gamma 90.000000
_cell_volume 5312.307483
_symmetry_space_group_name_H-M "I M M A"
_symmetry_group_IT_number 74
_symmetry_cell_setting 'orthorhombic'
loop_
_space_group_symop_operation_xyz
x,y,z
-x,1/2-y,z
x,-y,-z
-x,1/2+y,-z
-x,-y,-z
x,1/2+y,-z
-x,y,z
x,1/2-y,z
1/2+x,1/2+y,1/2+z
1/2-x,-y,1/2+z
1/2+x,1/2-y,1/2-z
1/2-x,y,1/2-z
1/2-x,1/2-y,1/2-z
1/2+x,y,1/2-z
1/2-x,1/2+y,1/2+z
1/2+x,-y,1/2+z
loop_
_atom_site_type_symbol
_atom_site_label
_atom_site_fract_x
_atom_site_fract_y
_atom_site_fract_z
Si Si1 0.668235 0.415501 0.458244
Si Si2 0.917155 0.919770 0.703692
Si Si3 0.328936 0.578862 0.372976
Si Si4 0.163480 0.583466 0.542004
Si Si5 0.581704 0.580079 0.290904
Si Si6 0.664975 0.922474 0.128190
O O1 0.637525 0.500000 0.500000
O O2 0.638889 0.250000 0.459147
O O3 0.641457 0.492945 0.414571
O O4 0.752422 0.417927 0.459625
O O5 0.894299 0.750000 0.700560
O O6 0.000000 0.940537 0.695881
O O7 0.895305 0.980955 0.750506
O O8 0.876964 0.014184 0.668377
O O9 0.340855 0.750000 0.382391
O O10 0.372634 0.525524 0.331490
O O11 0.247215 0.543072 0.364341
O O12 0.132756 0.500000 0.500000
O O13 0.134326 0.750000 0.542531
O O14 0.136654 0.499973 0.584723
O O15 0.500000 0.556958 0.302667
O O16 0.597900 0.750000 0.279640
O O17 0.650338 0.750000 0.123873
#
# Coordination Sequence:
#
# PCOD8298456 Si02
#       6
#    16  16  16  16  16  16
#     4   9  16  26  43  67  96 129 161 195 236 282
#     4  10  21  36  52  70  94 125 161 200 240 285
#     4   9  18  31  48  73 101 126 157 199 242 282
#     4   9  16  27  44  68  98 129 161 195 234 281
#     4   9  18  34  54  72  93 126 164 198 237 288
#     4  10  19  31  49  73 100 128 159 197 240 284
#
# _framework density 18.071242999999999
#
# number of rings (size 3 to 8) (size 9 to 14) (size 15 to 20)
#    0.000    2.667    0.000    2.000    0.000    7.000 
#    0.000    3.333    0.000    1.000    0.000    0.000 
#    0.000    0.000    0.000    0.000    0.000    0.000 
#
# Total GULP energy -595279.770943 kJ/mol
# GULP energy per Si atom -12401.661895 kJ/mol
# Density = 1.803011 g / cm^3
# Si number density = 18.071243 Si / 1000 Ang^3
#
#
#
# Elastic Constant Matrix: (Units=GPa)
#
#
# Indices 1 2 3 4 5 6 
#
# 1 30.7413 33.0271 49.5185 0.0000 0.0000 0.0000
# 2 33.0271 125.4402 87.6804 0.0000 0.0000 0.0000
# 3 49.5185 87.6804 173.4526 0.0000 0.0000 0.0000
# 4 0.0000 0.0000 0.0000 42.0835 0.0000 0.0000
# 5 0.0000 0.0000 0.0000 0.0000 -7.3419 0.0000
# 6 0.0000 0.0000 0.0000 0.0000 0.0000 17.2587
#
#
#
# Elastic Compliance Matrix: (Units=1/GPa)
#
#
# Indices 1 2 3 4 5 6 
#
# 1 0.063226 -0.006232 -0.014900 0.000000 0.000000 0.000000
# 2 -0.006232 0.012942 -0.004763 0.000000 0.000000 0.000000
# 3 -0.014900 -0.004763 0.012427 0.000000 0.000000 0.000000
# 4 0.000000 0.000000 0.000000 0.023762 0.000000 0.000000
# 5 0.000000 0.000000 0.000000 0.000000 -0.136204 0.000000
# 6 0.000000 0.000000 0.000000 0.000000 0.000000 0.057942
#
#
# Mechanical properties :
#
#
# Convention : Reuss Voigt Hill
#
# Bulk Modulus (GPa) = 27.17045 74.45398 50.81222
# Shear Modulus (GPa) = 50.94142 21.02728 35.98435
#
# Velocity S-wave (km/s) = 5.31511 3.41482 4.46718
# Velocity P-wave (km/s) = 7.26189 7.53908 7.40178
#
# Compressibility (1/GPa) = 0.03680469
#
# Stress axis : x y z
#
# Youngs Moduli (GPa) = 15.81637 77.26769 80.47181
#
# Poissons Ratio (x) = 0.48153 1.19902
# Poissons Ratio (y) = 0.09857 0.38329
# Poissons Ratio (z) = 0.23566 0.36803
#
# Static dielectric constant tensor:
#      x y z
#    x 2.946430 0.000000 0.000000 
#    y 0.000000 3.485240 0.000000 
#    z 0.000000 0.000000 3.512850 
# 
# 
# High freq. dielectric constant tensor:
#      x y z
#    x 1.652460 0.000000 0.000000 
#    y 0.000000 1.711380 0.000000 
#    z 0.000000 0.000000 1.715110 
# 
# From -- ./inp_files/61912.got.cif
#   From: 2010.03.12/outbox.cif.g09.slc.cpg/sg74_31_cif.got.tgz:61912.got - 2010.04.16 15:46:19.
