data_PCOD8298860
_publ_section_title
;
Structure prediction by ZEFSAII (Michael W. Deem and Ramdas Pophale) SiO2 
 PCOD8298860
Probable space group: I M M A
;
_chemical_formula_sum "Si O2"
_cell_formula_units_Z 88
_cell_length_a 27.168174
_cell_length_b 8.944824
_cell_length_c 18.782162
_cell_angle_alpha 90.000000
_cell_angle_beta 90.000000
_cell_angle_gamma 90.000000
_cell_volume 4564.338362
_symmetry_space_group_name_H-M "I M M A"
_symmetry_group_IT_number 74
_symmetry_cell_setting 'orthorhombic'
loop_
_space_group_symop_operation_xyz
x,y,z
-x,1/2-y,z
x,-y,-z
-x,1/2+y,-z
-x,-y,-z
x,1/2+y,-z
-x,y,z
x,1/2-y,z
1/2+x,1/2+y,1/2+z
1/2-x,-y,1/2+z
1/2+x,1/2-y,1/2-z
1/2-x,y,1/2-z
1/2-x,1/2-y,1/2-z
1/2+x,y,1/2-z
1/2-x,1/2+y,1/2+z
1/2+x,-y,1/2+z
loop_
_atom_site_type_symbol
_atom_site_label
_atom_site_fract_x
_atom_site_fract_y
_atom_site_fract_z
Si Si1 0.927578 0.582237 0.669301
Si Si2 0.053868 0.079857 0.811268
Si Si3 0.682428 0.920014 0.801944
Si Si4 0.743700 0.572975 0.574080
Si Si5 0.161618 0.576188 0.154580
Si Si6 0.000000 0.422770 0.573773
O O1 0.946611 0.750000 0.655472
O O2 0.944875 0.536291 0.747403
O O3 0.869508 0.572309 0.658632
O O4 0.950731 0.468648 0.614116
O O5 0.057837 0.250000 0.782081
O O6 0.102777 0.047880 0.858319
O O7 0.000000 0.059470 0.850459
O O8 0.694575 0.750000 0.777828
O O9 0.721670 0.977902 0.860000
O O10 0.681184 0.021909 0.731720
O O11 0.761815 0.500000 0.500000
O O12 0.743932 0.750000 0.564581
O O13 0.688932 0.514534 0.592327
O O14 0.174577 0.750000 0.147702
O O15 0.000000 0.500000 0.500000
O O16 0.000000 0.250000 0.561029
#
# Coordination Sequence:
#
# PCOD8298860 Si02
#       6
#    16  16  16  16  16   8
#     4  10  19  33  52  76 103 133 173 220 265 314
#     4   9  17  31  53  80 110 140 172 215 265 314
#     4   9  20  37  57  81 110 143 181 226 275 323
#     4  11  23  39  57  78 109 147 184 228 279 333
#     4  10  20  34  56  86 114 144 183 226 271 324
#     4  12  24  36  48  66  98 140 181 220 267 320
#
# _framework density 19.279903000000001
#
# number of rings (size 3 to 8) (size 9 to 14) (size 15 to 20)
#    0.000    2.000    0.909    3.000    0.000    5.818 
#    0.000    1.818    0.000    0.545    0.000    0.000 
#    0.000    0.000    0.000    0.000    0.000    0.000 
#
# Total GULP energy -545372.958801 kJ/mol
# GULP energy per Si atom -12394.839973 kJ/mol
# Density = 1.923602 g / cm^3
# Si number density = 19.279903 Si / 1000 Ang^3
#
#
#
# Elastic Constant Matrix: (Units=GPa)
#
#
# Indices 1 2 3 4 5 6 
#
# 1 117.4777 26.0319 21.5360 0.0000 0.0000 0.0000
# 2 26.0319 95.8153 18.7422 0.0000 0.0000 0.0000
# 3 21.5360 18.7422 39.7104 0.0000 0.0000 0.0000
# 4 0.0000 0.0000 0.0000 31.7764 0.0000 0.0000
# 5 0.0000 0.0000 0.0000 0.0000 3.2406 0.0000
# 6 0.0000 0.0000 0.0000 0.0000 0.0000 22.9461
#
#
#
# Elastic Compliance Matrix: (Units=1/GPa)
#
#
# Indices 1 2 3 4 5 6 
#
# 1 0.009718 -0.001773 -0.004433 0.000000 0.000000 0.000000
# 2 -0.001773 0.011822 -0.004618 0.000000 0.000000 0.000000
# 3 -0.004433 -0.004618 0.029766 0.000000 0.000000 0.000000
# 4 0.000000 0.000000 0.000000 0.031470 0.000000 0.000000
# 5 0.000000 0.000000 0.000000 0.000000 0.308584 0.000000
# 6 0.000000 0.000000 0.000000 0.000000 0.000000 0.043580
#
#
# Mechanical properties :
#
#
# Convention : Reuss Voigt Hill
#
# Bulk Modulus (GPa) = 33.71887 42.84705 38.28296
# Shear Modulus (GPa) = 10.71870 24.03886 17.37878
#
# Velocity S-wave (km/s) = 2.36042 3.53489 3.00558
# Velocity P-wave (km/s) = 4.99559 6.23959 5.65192
#
# Compressibility (1/GPa) = 0.02965699
#
# Stress axis : x y z
#
# Youngs Moduli (GPa) = 102.90317 84.58976 33.59514
#
# Poissons Ratio (x) = 0.14998 0.14894
# Poissons Ratio (y) = 0.18245 0.15514
# Poissons Ratio (z) = 0.45621 0.39063
#
# Static dielectric constant tensor:
#      x y z
#    x 3.880800 0.000000 0.000000 
#    y 0.000000 3.574450 0.000000 
#    z 0.000000 0.000000 3.111490 
# 
# 
# High freq. dielectric constant tensor:
#      x y z
#    x 1.770020 0.000000 0.000000 
#    y 0.000000 1.759330 0.000000 
#    z 0.000000 0.000000 1.708020 
# 
# From -- ./inp_files/47050.got.cif
#   From: 2010.03.12/outbox.cif.g09.slc.cpg/sg74_24_cif.got.tgz:47050.got - 2010.04.16 15:46:19.
