data_PCOD8298495
_publ_section_title
;
Structure prediction by ZEFSAII (Michael W. Deem and Ramdas Pophale) SiO2 
 PCOD8298495
Probable space group: I M M A
;
_chemical_formula_sum "Si O2"
_cell_formula_units_Z 80
_cell_length_a 26.646386
_cell_length_b 9.032597
_cell_length_c 18.401212
_cell_angle_alpha 90.000000
_cell_angle_beta 90.000000
_cell_angle_gamma 90.000000
_cell_volume 4428.915330
_symmetry_space_group_name_H-M "I M M A"
_symmetry_group_IT_number 74
_symmetry_cell_setting 'orthorhombic'
loop_
_space_group_symop_operation_xyz
x,y,z
-x,1/2-y,z
x,-y,-z
-x,1/2+y,-z
-x,-y,-z
x,1/2+y,-z
-x,y,z
x,1/2-y,z
1/2+x,1/2+y,1/2+z
1/2-x,-y,1/2+z
1/2+x,1/2-y,1/2-z
1/2-x,y,1/2-z
1/2-x,1/2-y,1/2-z
1/2+x,y,1/2-z
1/2-x,1/2+y,1/2+z
1/2+x,-y,1/2+z
loop_
_atom_site_type_symbol
_atom_site_label
_atom_site_fract_x
_atom_site_fract_y
_atom_site_fract_z
Si Si1 0.097923 0.420236 0.788866
Si Si2 0.055792 0.579995 0.655811
Si Si3 0.558017 0.422872 0.425900
Si Si4 0.654764 0.423757 0.075374
Si Si5 0.200491 0.079489 0.708860
O O1 0.084392 0.250000 0.803273
O O2 0.060601 0.480670 0.727323
O O3 0.091752 0.511815 0.862160
O O4 0.154947 0.442188 0.764314
O O5 0.064128 0.750000 0.679434
O O6 0.097237 0.534436 0.596118
O O7 0.000000 0.555875 0.622807
O O8 0.575136 0.500000 0.500000
O O9 0.500000 0.457262 0.408851
O O10 0.568429 0.250000 0.433265
O O11 0.662319 0.250000 0.066794
O O12 0.692546 0.482328 0.136882
O O13 0.668573 0.500000 0.000000
O O14 0.205782 0.250000 0.684707
O O15 0.250000 0.022926 0.750000
#
# Coordination Sequence:
#
# PCOD8298495 Si02
#       5
#    16  16  16  16  16
#     4  10  19  31  50  75 100 127 163 207 251 297
#     4   9  18  32  49  71 101 137 172 203 239 287
#     4  10  20  33  49  70  99 134 168 203 245 294
#     4  10  20  34  53  77 105 135 168 206 247 293
#     4   9  19  37  58  77  99 129 166 208 253 299
#
# _framework density 18.063115
#
# number of rings (size 3 to 8) (size 9 to 14) (size 15 to 20)
#    0.000    2.400    0.000    2.400    0.000    6.400 
#    0.000    1.000    0.000    0.000    0.000    0.000 
#    0.000    0.000    0.000    0.000    0.000    0.000 
#
# Total GULP energy -496122.183721 kJ/mol
# GULP energy per Si atom -12403.054593 kJ/mol
# Density = 1.802200 g / cm^3
# Si number density = 18.063115 Si / 1000 Ang^3
#
#
#
# Elastic Constant Matrix: (Units=GPa)
#
#
# Indices 1 2 3 4 5 6 
#
# 1 88.3117 34.4049 47.6241 0.0000 0.0000 0.0000
# 2 34.4049 95.6332 69.3134 0.0000 0.0000 0.0000
# 3 47.6241 69.3134 137.0401 0.0000 0.0000 0.0000
# 4 0.0000 0.0000 0.0000 37.0740 0.0000 0.0000
# 5 0.0000 0.0000 0.0000 0.0000 16.3316 0.0000
# 6 0.0000 0.0000 0.0000 0.0000 0.0000 23.5917
#
#
#
# Elastic Compliance Matrix: (Units=1/GPa)
#
#
# Indices 1 2 3 4 5 6 
#
# 1 0.014285 -0.002433 -0.003734 0.000000 0.000000 0.000000
# 2 -0.002433 0.016923 -0.007714 0.000000 0.000000 0.000000
# 3 -0.003734 -0.007714 0.012496 0.000000 0.000000 0.000000
# 4 0.000000 0.000000 0.000000 0.026973 0.000000 0.000000
# 5 0.000000 0.000000 0.000000 0.000000 0.061231 0.000000
# 6 0.000000 0.000000 0.000000 0.000000 0.000000 0.042388
#
#
# Mechanical properties :
#
#
# Convention : Reuss Voigt Hill
#
# Bulk Modulus (GPa) = 62.72410 69.29663 66.01037
# Shear Modulus (GPa) = 24.11135 26.70896 25.41015
#
# Velocity S-wave (km/s) = 3.65751 3.84949 3.75473
# Velocity P-wave (km/s) = 7.25513 7.62922 7.44452
#
# Compressibility (1/GPa) = 0.01594283
#
# Stress axis : x y z
#
# Youngs Moduli (GPa) = 70.00421 59.09194 80.02405
#
# Poissons Ratio (x) = 0.14377 0.29878
# Poissons Ratio (y) = 0.17032 0.61729
# Poissons Ratio (z) = 0.26137 0.45583
#
# Static dielectric constant tensor:
#      x y z
#    x 3.267340 0.000000 0.000000 
#    y 0.000000 3.425120 0.000000 
#    z 0.000000 0.000000 3.244850 
# 
# 
# High freq. dielectric constant tensor:
#      x y z
#    x 1.685240 0.000000 0.000000 
#    y 0.000000 1.709880 0.000000 
#    z 0.000000 0.000000 1.695280 
# 
# From -- ./inp_files/39678.got.cif
#   From: 2010.03.12/outbox.cif.g09.slc.cpg/sg74_20_cif.got.tgz:39678.got - 2010.04.16 15:46:19.
