data_PCOD8298614
_publ_section_title
;
Structure prediction by ZEFSAII (Michael W. Deem and Ramdas Pophale) SiO2 
 PCOD8298614
Probable space group: I M M A
;
_chemical_formula_sum "Si O2"
_cell_formula_units_Z 128
_cell_length_a 28.123480
_cell_length_b 9.722154
_cell_length_c 25.734858
_cell_angle_alpha 90.000000
_cell_angle_beta 90.000000
_cell_angle_gamma 90.000000
_cell_volume 7036.445554
_symmetry_space_group_name_H-M "I M M A"
_symmetry_group_IT_number 74
_symmetry_cell_setting 'orthorhombic'
loop_
_space_group_symop_operation_xyz
x,y,z
-x,1/2-y,z
x,-y,-z
-x,1/2+y,-z
-x,-y,-z
x,1/2+y,-z
-x,y,z
x,1/2-y,z
1/2+x,1/2+y,1/2+z
1/2-x,-y,1/2+z
1/2+x,1/2-y,1/2-z
1/2-x,y,1/2-z
1/2-x,1/2-y,1/2-z
1/2+x,y,1/2-z
1/2-x,1/2+y,1/2+z
1/2+x,-y,1/2+z
loop_
_atom_site_type_symbol
_atom_site_label
_atom_site_fract_x
_atom_site_fract_y
_atom_site_fract_z
Si Si1 0.185701 0.901011 0.357748
Si Si2 0.655020 0.909927 0.450281
Si Si3 0.600980 0.410533 0.157772
Si Si4 0.737408 0.598390 0.043727
Si Si5 0.944424 0.408432 0.233264
Si Si6 0.443982 0.591643 0.951550
Si Si7 0.777133 0.408320 0.798043
Si Si8 0.877189 0.586419 0.162741
O O1 0.168305 0.750000 0.338705
O O2 0.191359 0.909339 0.419170
O O3 0.241083 0.925199 0.345134
O O4 0.150926 0.012934 0.333701
O O5 0.647925 0.750000 0.464549
O O6 0.709965 0.943404 0.435414
O O7 0.623811 0.946696 0.399068
O O8 0.638280 0.000000 0.500000
O O9 0.611575 0.250000 0.155415
O O10 0.568421 0.448113 0.207196
O O11 0.577663 0.460223 0.103477
O O12 0.742443 0.750000 0.020370
O O13 0.719220 0.500000 0.000000
O O14 0.930336 0.250000 0.222453
O O15 0.919443 0.505617 0.190938
O O16 0.000000 0.432507 0.226350
O O17 0.500000 0.574415 0.945481
O O18 0.430122 0.750000 0.962422
O O19 0.425264 0.500000 0.000000
O O20 0.786849 0.250000 0.783863
O O21 0.750000 0.482117 0.750000
O O22 0.828325 0.471915 0.811587
O O23 0.883218 0.750000 0.171177
#
# Coordination Sequence:
#
# PCOD8298614 Si02
#       8
#    16  16  16  16  16  16  16  16
#     4  10  19  32  49  72 102 137 175 212 250 299
#     4   9  17  31  52  79 110 142 178 218 260 311
#     4  10  21  36  53  74 104 141 180 220 269 324
#     4   9  17  30  47  69 101 140 179 214 250 297
#     4  10  22  40  59  79 106 140 176 218 273 335
#     4   9  18  34  55  75  96 128 173 225 279 329
#     4   9  16  28  48  72 100 135 171 207 252 303
#     4  10  19  34  57  84 110 138 179 227 269 316
#
# _framework density 18.191002000000001
#
# number of rings (size 3 to 8) (size 9 to 14) (size 15 to 20)
#    0.000    2.500    1.250    1.125    0.000    5.250 
#    0.000    3.125    0.000    4.875    0.000    0.000 
#    0.000    0.000    0.000    0.000    0.000    0.000 
#
# Total GULP energy -792968.820148 kJ/mol
# GULP energy per Si atom -12390.137815 kJ/mol
# Density = 1.814960 g / cm^3
# Si number density = 18.191002 Si / 1000 Ang^3
#
#
#
# Elastic Constant Matrix: (Units=GPa)
#
#
# Indices 1 2 3 4 5 6 
#
# 1 77.5938 39.2449 47.3609 0.0000 0.0000 0.0000
# 2 39.2449 61.8633 57.1017 0.0000 0.0000 0.0000
# 3 47.3609 57.1017 123.3078 0.0000 0.0000 0.0000
# 4 0.0000 0.0000 0.0000 29.1870 0.0000 0.0000
# 5 0.0000 0.0000 0.0000 0.0000 1.0892 0.0000
# 6 0.0000 0.0000 0.0000 0.0000 0.0000 23.2724
#
#
#
# Elastic Compliance Matrix: (Units=1/GPa)
#
#
# Indices 1 2 3 4 5 6 
#
# 1 0.019631 -0.009595 -0.003097 0.000000 0.000000 0.000000
# 2 -0.009595 0.032922 -0.011560 0.000000 0.000000 0.000000
# 3 -0.003097 -0.011560 0.014653 0.000000 0.000000 0.000000
# 4 0.000000 0.000000 0.000000 0.034262 0.000000 0.000000
# 5 0.000000 0.000000 0.000000 0.000000 0.918097 0.000000
# 6 0.000000 0.000000 0.000000 0.000000 0.000000 0.042969
#
#
# Mechanical properties :
#
#
# Convention : Reuss Voigt Hill
#
# Bulk Modulus (GPa) = 53.47207 61.13112 57.30159
# Shear Modulus (GPa) = 4.47519 18.64689 11.56104
#
# Velocity S-wave (km/s) = 1.57018 3.20513 2.52372
# Velocity P-wave (km/s) = 5.72240 6.88297 6.32934
#
# Compressibility (1/GPa) = 0.01870135
#
# Stress axis : x y z
#
# Youngs Moduli (GPa) = 50.94090 30.37471 68.24770
#
# Poissons Ratio (x) = 0.29145 0.21133
# Poissons Ratio (y) = 0.48878 0.78897
# Poissons Ratio (z) = 0.15774 0.35114
#
# Static dielectric constant tensor:
#      x y z
#    x 3.153170 0.000000 0.000000 
#    y 0.000000 3.207680 0.000000 
#    z 0.000000 0.000000 4.455650 
# 
# 
# High freq. dielectric constant tensor:
#      x y z
#    x 1.686120 0.000000 0.000000 
#    y 0.000000 1.683420 0.000000 
#    z 0.000000 0.000000 1.713820 
# 
# From -- ./inp_files/62101.got.cif
#   From: 2010.03.12/outbox.cif.g09.slc.cpg/sg74_32_cif.got.tgz:62101.got - 2010.04.16 15:46:19.
