data_PCOD8298662
_publ_section_title
;
Structure prediction by ZEFSAII (Michael W. Deem and Ramdas Pophale) SiO2 
 PCOD8298662
Probable space group: I M M A
;
_chemical_formula_sum "Si O2"
_cell_formula_units_Z 104
_cell_length_a 9.389798
_cell_length_b 18.245891
_cell_length_c 28.961183
_cell_angle_alpha 90.000000
_cell_angle_beta 90.000000
_cell_angle_gamma 90.000000
_cell_volume 4961.781362
_symmetry_space_group_name_H-M "I M M A"
_symmetry_group_IT_number 74
_symmetry_cell_setting 'orthorhombic'
loop_
_space_group_symop_operation_xyz
x,y,z
-x,1/2-y,z
x,-y,-z
-x,1/2+y,-z
-x,-y,-z
x,1/2+y,-z
-x,y,z
x,1/2-y,z
1/2+x,1/2+y,1/2+z
1/2-x,-y,1/2+z
1/2+x,1/2-y,1/2-z
1/2-x,y,1/2-z
1/2-x,1/2-y,1/2-z
1/2+x,y,1/2-z
1/2-x,1/2+y,1/2+z
1/2+x,-y,1/2+z
loop_
_atom_site_type_symbol
_atom_site_label
_atom_site_fract_x
_atom_site_fract_y
_atom_site_fract_z
Si Si1 0.663760 0.828716 0.447131
Si Si2 0.156882 0.645023 0.707955
Si Si3 0.656727 0.025874 0.790747
Si Si4 0.835256 0.070798 0.030306
Si Si5 0.831343 0.333940 0.396610
Si Si6 0.165073 0.607140 0.144320
Si Si7 0.663103 0.250000 0.703468
O O1 0.500000 0.816825 0.433672
O O2 0.742390 0.750000 0.445681
O O3 0.680763 0.859739 0.497655
O O4 0.722165 0.883129 0.407966
O O5 0.250000 0.679110 0.750000
O O6 0.143045 0.559466 0.716631
O O7 0.220548 0.661054 0.656933
O O8 0.000000 0.680856 0.710805
O O9 0.500000 0.062394 0.790463
O O10 0.750000 0.062642 0.750000
O O11 0.738838 0.040369 0.838269
O O12 0.745703 0.099568 0.074698
O O13 0.000000 0.055959 0.044998
O O14 0.779797 0.000000 0.000000
O O15 0.796295 0.250000 0.413683
O O16 0.000000 0.349335 0.400078
O O17 0.200895 0.679810 0.172814
O O18 0.000000 0.584293 0.147445
O O19 0.500000 0.250000 0.717937
O O20 0.750000 0.250000 0.750000
#
# Coordination Sequence:
#
# PCOD8298662 Si02
#       7
#    16  16  16  16  16  16   8
#     4   9  17  33  55  77 108 147 185 230 286 342
#     4   9  20  38  59  86 119 154 193 239 293 354
#     4  10  20  34  51  74 105 141 181 227 282 337
#     4  10  22  38  60  93 122 151 197 250 298 350
#     4  10  22  41  63  88 123 164 201 242 300 366
#     4  10  19  32  51  73  98 137 184 227 277 336
#     4  10  20  32  46  68  98 134 180 224 273 330
#
# _framework density 20.960213
#
# number of rings (size 3 to 8) (size 9 to 14) (size 15 to 20)
#    0.000    2.308    0.769    1.385    2.154    4.615 
#    0.000    0.769    0.000    0.923    0.000    0.000 
#    0.000    0.000    0.000    0.000    0.000    0.000 
#
# Total GULP energy -644217.892261 kJ/mol
# GULP energy per Si atom -12388.805620 kJ/mol
# Density = 2.091251 g / cm^3
# Si number density = 20.960213 Si / 1000 Ang^3
#
#
#
# Elastic Constant Matrix: (Units=GPa)
#
#
# Indices 1 2 3 4 5 6 
#
# 1 82.5428 31.8465 47.6863 0.0000 0.0000 0.0000
# 2 31.8465 56.6051 27.2964 0.0000 0.0000 0.0000
# 3 47.6863 27.2964 124.5697 0.0000 0.0000 0.0000
# 4 0.0000 0.0000 0.0000 -1.4427 0.0000 0.0000
# 5 0.0000 0.0000 0.0000 0.0000 29.6636 0.0000
# 6 0.0000 0.0000 0.0000 0.0000 0.0000 4.3653
#
#
#
# Elastic Compliance Matrix: (Units=1/GPa)
#
#
# Indices 1 2 3 4 5 6 
#
# 1 0.018101 -0.007651 -0.005253 0.000000 0.000000 0.000000
# 2 -0.007651 0.022987 -0.002108 0.000000 0.000000 0.000000
# 3 -0.005253 -0.002108 0.010500 0.000000 0.000000 0.000000
# 4 0.000000 0.000000 0.000000 -0.693154 0.000000 0.000000
# 5 0.000000 0.000000 0.000000 0.000000 0.033711 0.000000
# 6 0.000000 0.000000 0.000000 0.000000 0.000000 0.229078
#
#
# Mechanical properties :
#
#
# Convention : Reuss Voigt Hill
#
# Bulk Modulus (GPa) = 46.37120 53.04179 49.70649
# Shear Modulus (GPa) = -14.63860 16.97647 1.16894
#
# Velocity S-wave (km/s) = -2.64559 2.84903 0.74760
# Velocity P-wave (km/s) = 3.58319 6.01527 4.95090
#
# Compressibility (1/GPa) = 0.02156511
#
# Stress axis : x y z
#
# Youngs Moduli (GPa) = 55.24411 43.50203 95.23396
#
# Poissons Ratio (x) = 0.33283 0.50025
# Poissons Ratio (y) = 0.42267 0.20078
# Poissons Ratio (z) = 0.29019 0.09171
#
# Static dielectric constant tensor:
#      x y z
#    x 3.782780 0.000000 0.000000 
#    y 0.000000 3.760050 0.000000 
#    z 0.000000 0.000000 3.970530 
# 
# 
# High freq. dielectric constant tensor:
#      x y z
#    x 1.785950 0.000000 0.000000 
#    y 0.000000 1.828270 0.000000 
#    z 0.000000 0.000000 1.829450 
# 
# From -- ./inp_files/64500.got.cif
#   From: 2010.03.12/outbox.cif.g09.slc.cpg/sg74_33_cif.got.tgz:64500.got - 2010.04.16 15:46:19.
