data_PCOD8298453
_publ_section_title
;
Structure prediction by ZEFSAII (Michael W. Deem and Ramdas Pophale) SiO2 
 PCOD8298453
Probable space group: I M M A
;
_chemical_formula_sum "Si O2"
_cell_formula_units_Z 72
_cell_length_a 16.123604
_cell_length_b 9.270753
_cell_length_c 27.095104
_cell_angle_alpha 90.000000
_cell_angle_beta 90.000000
_cell_angle_gamma 90.000000
_cell_volume 4050.120605
_symmetry_space_group_name_H-M "I M M A"
_symmetry_group_IT_number 74
_symmetry_cell_setting 'orthorhombic'
loop_
_space_group_symop_operation_xyz
x,y,z
-x,1/2-y,z
x,-y,-z
-x,1/2+y,-z
-x,-y,-z
x,1/2+y,-z
-x,y,z
x,1/2-y,z
1/2+x,1/2+y,1/2+z
1/2-x,-y,1/2+z
1/2+x,1/2-y,1/2-z
1/2-x,y,1/2-z
1/2-x,1/2-y,1/2-z
1/2+x,y,1/2-z
1/2-x,1/2+y,1/2+z
1/2+x,-y,1/2+z
loop_
_atom_site_type_symbol
_atom_site_label
_atom_site_fract_x
_atom_site_fract_y
_atom_site_fract_z
Si Si1 0.173198 0.917077 0.050487
Si Si2 0.249917 0.918466 0.694397
Si Si3 0.337042 0.083480 0.888770
Si Si4 0.592421 0.585860 0.632593
Si Si5 0.500000 0.920910 0.052483
O O1 0.155156 0.750000 0.041570
O O2 0.263562 0.945280 0.072891
O O3 0.103257 0.980037 0.086458
O O4 0.167029 0.000000 0.000000
O O5 0.228799 0.750000 0.693195
O O6 0.250000 0.978817 0.750000
O O7 0.341890 0.953761 0.674801
O O8 0.179474 0.995952 0.661598
O O9 0.343521 0.250000 0.873791
O O10 0.420553 0.030387 0.915553
O O11 0.500000 0.564869 0.654327
O O12 0.606524 0.750000 0.614533
O O13 0.500000 0.750000 0.042401
O O14 0.500000 0.000000 0.000000
#
# Coordination Sequence:
#
# PCOD8298453 Si02
#       5
#    16  16  16  16   8
#     4  10  19  31  49  72  98 130 165 201 242 290
#     4   9  18  34  54  76 100 128 165 209 254 300
#     4   9  19  34  51  73 102 135 170 208 249 300
#     4   9  18  33  51  70  96 129 162 199 242 289
#     4  10  20  34  52  76 108 140 174 214 257 306
#
# _framework density 17.777249000000001
#
# number of rings (size 3 to 8) (size 9 to 14) (size 15 to 20)
#    0.000    2.667    0.000    1.333    0.000    3.111 
#    2.000    0.000    0.000    0.000    0.000    0.000 
#    0.000    0.000    0.000    0.000    0.000    0.000 
#
# Total GULP energy -446420.602085 kJ/mol
# GULP energy per Si atom -12400.572280 kJ/mol
# Density = 1.773679 g / cm^3
# Si number density = 17.777249 Si / 1000 Ang^3
#
#
#
# Elastic Constant Matrix: (Units=GPa)
#
#
# Indices 1 2 3 4 5 6 
#
# 1 112.7724 39.7940 61.5858 0.0000 0.0000 0.0000
# 2 39.7940 69.6046 66.6737 0.0000 0.0000 0.0000
# 3 61.5858 66.6737 160.3228 0.0000 0.0000 0.0000
# 4 0.0000 0.0000 0.0000 30.7505 0.0000 0.0000
# 5 0.0000 0.0000 0.0000 0.0000 19.0247 0.0000
# 6 0.0000 0.0000 0.0000 0.0000 0.0000 24.3726
#
#
#
# Elastic Compliance Matrix: (Units=1/GPa)
#
#
# Indices 1 2 3 4 5 6 
#
# 1 0.011861 -0.004017 -0.002886 0.000000 0.000000 0.000000
# 2 -0.004017 0.025240 -0.008954 0.000000 0.000000 0.000000
# 3 -0.002886 -0.008954 0.011069 0.000000 0.000000 0.000000
# 4 0.000000 0.000000 0.000000 0.032520 0.000000 0.000000
# 5 0.000000 0.000000 0.000000 0.000000 0.052563 0.000000
# 6 0.000000 0.000000 0.000000 0.000000 0.000000 0.041030
#
#
# Mechanical properties :
#
#
# Convention : Reuss Voigt Hill
#
# Bulk Modulus (GPa) = 60.76071 75.42299 68.09185
# Shear Modulus (GPa) = 23.64282 26.47265 25.05774
#
# Velocity S-wave (km/s) = 3.65080 3.86311 3.75846
# Velocity P-wave (km/s) = 7.21278 7.90044 7.56443
#
# Compressibility (1/GPa) = 0.01645800
#
# Stress axis : x y z
#
# Youngs Moduli (GPa) = 84.31211 39.61985 90.33887
#
# Poissons Ratio (x) = 0.15914 0.26069
# Poissons Ratio (y) = 0.33866 0.80885
# Poissons Ratio (z) = 0.24330 0.35474
#
# Static dielectric constant tensor:
#      x y z
#    x 3.475200 0.000000 0.000000 
#    y 0.000000 3.321020 0.000000 
#    z 0.000000 0.000000 3.288700 
# 
# 
# High freq. dielectric constant tensor:
#      x y z
#    x 1.688250 0.000000 0.000000 
#    y 0.000000 1.686430 0.000000 
#    z 0.000000 0.000000 1.682150 
# 
# From -- ./inp_files/63602.got.cif
#   From: 2010.03.12/outbox.cif.g09.slc.cpg/sg74_32_cif.got.tgz:63602.got - 2010.04.16 15:46:19.
