data_PCOD8298073
_publ_section_title
;
Structure prediction by ZEFSAII (Michael W. Deem and Ramdas Pophale) SiO2 
 PCOD8298073
Probable space group: I M M A
;
_chemical_formula_sum "Si O2"
_cell_formula_units_Z 104
_cell_length_a 26.101649
_cell_length_b 8.687462
_cell_length_c 23.967721
_cell_angle_alpha 90.000000
_cell_angle_beta 90.000000
_cell_angle_gamma 90.000000
_cell_volume 5434.850520
_symmetry_space_group_name_H-M "I M M A"
_symmetry_group_IT_number 74
_symmetry_cell_setting 'orthorhombic'
loop_
_space_group_symop_operation_xyz
x,y,z
-x,1/2-y,z
x,-y,-z
-x,1/2+y,-z
-x,-y,-z
x,1/2+y,-z
-x,y,z
x,1/2-y,z
1/2+x,1/2+y,1/2+z
1/2-x,-y,1/2+z
1/2+x,1/2-y,1/2-z
1/2-x,y,1/2-z
1/2-x,1/2-y,1/2-z
1/2+x,y,1/2-z
1/2-x,1/2+y,1/2+z
1/2+x,-y,1/2+z
loop_
_atom_site_type_symbol
_atom_site_label
_atom_site_fract_x
_atom_site_fract_y
_atom_site_fract_z
Si Si1 0.787208 0.428012 0.656310
Si Si2 0.000000 0.432780 0.938137
Si Si3 0.602826 0.931193 0.560839
Si Si4 0.441144 0.567862 0.150688
Si Si5 0.367033 0.430194 0.236310
Si Si6 0.169016 0.069820 0.847811
Si Si7 0.861688 0.073000 0.560154
O O1 0.796230 0.250000 0.673147
O O2 0.816831 0.533415 0.700126
O O3 0.728268 0.473963 0.659878
O O4 0.809166 0.458233 0.594144
O O5 0.948187 0.496816 0.909758
O O6 0.000000 0.250000 0.937676
O O7 0.000000 0.500000 0.000000
O O8 0.596369 0.750000 0.555670
O O9 0.612406 0.000000 0.500000
O O10 0.650907 0.975167 0.598563
O O11 0.500000 0.519491 0.143219
O O12 0.434230 0.750000 0.158483
O O13 0.418463 0.485895 0.205337
O O14 0.409841 0.509546 0.096261
O O15 0.370345 0.250000 0.248257
O O16 0.363658 0.519495 0.294507
O O17 0.161724 0.250000 0.858807
O O18 0.870897 0.250000 0.549163
O O19 0.857983 0.000000 0.500000
#
# Coordination Sequence:
#
# PCOD8298073 Si02
#       7
#    16   8  16  16  16  16  16
#     4   9  20  38  58  78 108 150 190 230 276 331
#     4  10  18  34  58  80 104 140 180 216 263 320
#     4  11  22  38  58  83 114 146 183 228 277 330
#     4   9  19  38  60  79 107 150 194 234 280 335
#     4  11  22  36  56  84 114 143 181 232 287 341
#     4  11  22  38  59  83 110 146 191 233 278 334
#     4   9  18  33  53  81 113 146 186 229 276 330
#
# _framework density 19.135762
#
# number of rings (size 3 to 8) (size 9 to 14) (size 15 to 20)
#    0.000    2.000    0.000    6.231    0.000    6.769 
#    1.385    1.538    0.000    0.000    0.000    0.000 
#    0.000    0.000    0.000    0.000    0.000    0.000 
#
# Total GULP energy -644849.060005 kJ/mol
# GULP energy per Si atom -12400.943462 kJ/mol
# Density = 1.909221 g / cm^3
# Si number density = 19.135762 Si / 1000 Ang^3
#
#
#
# Elastic Constant Matrix: (Units=GPa)
#
#
# Indices 1 2 3 4 5 6 
#
# 1 52.4894 25.2560 23.7151 0.0000 0.0000 0.0000
# 2 25.2560 93.0463 25.6541 0.0000 0.0000 0.0000
# 3 23.7151 25.6541 98.5951 0.0000 0.0000 0.0000
# 4 0.0000 0.0000 0.0000 34.6633 0.0000 0.0000
# 5 0.0000 0.0000 0.0000 0.0000 17.9506 0.0000
# 6 0.0000 0.0000 0.0000 0.0000 0.0000 26.2772
#
#
#
# Elastic Compliance Matrix: (Units=1/GPa)
#
#
# Indices 1 2 3 4 5 6 
#
# 1 0.023492 -0.005191 -0.004300 0.000000 0.000000 0.000000
# 2 -0.005191 0.012725 -0.002062 0.000000 0.000000 0.000000
# 3 -0.004300 -0.002062 0.011713 0.000000 0.000000 0.000000
# 4 0.000000 0.000000 0.000000 0.028849 0.000000 0.000000
# 5 0.000000 0.000000 0.000000 0.000000 0.055708 0.000000
# 6 0.000000 0.000000 0.000000 0.000000 0.000000 0.038056
#
#
# Mechanical properties :
#
#
# Convention : Reuss Voigt Hill
#
# Bulk Modulus (GPa) = 40.28398 43.70904 41.99651
# Shear Modulus (GPa) = 24.76171 27.07857 25.92014
#
# Velocity S-wave (km/s) = 3.60113 3.76583 3.68440
# Velocity P-wave (km/s) = 6.19582 6.46528 6.33198
#
# Compressibility (1/GPa) = 0.02482377
#
# Stress axis : x y z
#
# Youngs Moduli (GPa) = 42.56783 78.58547 85.37252
#
# Poissons Ratio (x) = 0.40794 0.36709
# Poissons Ratio (y) = 0.22097 0.17607
# Poissons Ratio (z) = 0.18304 0.16208
#
# Static dielectric constant tensor:
#      x y z
#    x 3.827820 0.000000 0.000000 
#    y 0.000000 3.454260 0.000000 
#    z 0.000000 0.000000 3.522530 
# 
# 
# High freq. dielectric constant tensor:
#      x y z
#    x 1.749170 0.000000 0.000000 
#    y 0.000000 1.744820 0.000000 
#    z 0.000000 0.000000 1.737040 
# 
# From -- ./inp_files/55229.got.cif
#   From: 2010.03.12/outbox.cif.g09.slc.cpg/sg74_28_cif.got.tgz:55229.got - 2010.04.16 15:46:19.
