data_PCOD8298682
_publ_section_title
;
Structure prediction by ZEFSAII (Michael W. Deem and Ramdas Pophale) SiO2 
 PCOD8298682
Probable space group: I M M A
;
_chemical_formula_sum "Si O2"
_cell_formula_units_Z 80
_cell_length_a 9.498982
_cell_length_b 27.862847
_cell_length_c 16.647066
_cell_angle_alpha 90.000000
_cell_angle_beta 90.000000
_cell_angle_gamma 90.000000
_cell_volume 4405.957019
_symmetry_space_group_name_H-M "I M M A"
_symmetry_group_IT_number 74
_symmetry_cell_setting 'orthorhombic'
loop_
_space_group_symop_operation_xyz
x,y,z
-x,1/2-y,z
x,-y,-z
-x,1/2+y,-z
-x,-y,-z
x,1/2+y,-z
-x,y,z
x,1/2-y,z
1/2+x,1/2+y,1/2+z
1/2-x,-y,1/2+z
1/2+x,1/2-y,1/2-z
1/2-x,y,1/2-z
1/2-x,1/2-y,1/2-z
1/2+x,y,1/2-z
1/2-x,1/2+y,1/2+z
1/2+x,-y,1/2+z
loop_
_atom_site_type_symbol
_atom_site_label
_atom_site_fract_x
_atom_site_fract_y
_atom_site_fract_z
Si Si1 0.212130 0.694352 0.058749
Si Si2 0.840148 0.532761 0.422271
Si Si3 0.842997 0.601227 0.983682
Si Si4 0.000000 0.305956 0.806765
Si Si5 0.667429 0.958004 0.671401
Si Si6 0.000000 0.694385 0.368586
O O1 0.183930 0.750000 0.034628
O O2 0.371901 0.681231 0.074693
O O3 0.136243 0.679961 0.141804
O O4 0.160818 0.659527 0.986815
O O5 0.846820 0.500000 0.500000
O O6 0.764696 0.582007 0.448627
O O7 0.742624 0.507616 0.355229
O O8 0.000000 0.542487 0.390341
O O9 0.804662 0.583297 0.894634
O O10 0.000000 0.582468 0.004471
O O11 0.000000 0.250000 0.791515
O O12 0.000000 0.331980 0.719140
O O13 0.500000 0.965989 0.686782
O O14 0.750000 0.939752 0.750000
O O15 0.000000 0.750000 0.347971
#
# Coordination Sequence:
#
# PCOD8298682 Si02
#       6
#    16  16  16   8  16   8
#     4  10  19  32  51  76 106 142 183 221 260 309
#     4   9  18  33  55  79 102 132 168 211 264 317
#     4  10  20  34  54  79 107 142 180 218 262 314
#     4   9  16  30  50  68  94 133 175 215 256 304
#     4  10  20  36  57  80 106 136 175 221 269 321
#     4   9  18  30  46  70  98 133 175 221 266 302
#
# _framework density 18.157236000000001
#
# number of rings (size 3 to 8) (size 9 to 14) (size 15 to 20)
#    0.000    2.400    1.000    1.800    1.400    5.600 
#    0.000    2.000    0.000    0.600    0.000    0.000 
#    0.000    0.000    0.000    0.000    0.000    0.000 
#
# Total GULP energy -495652.267245 kJ/mol
# GULP energy per Si atom -12391.306681 kJ/mol
# Density = 1.811591 g / cm^3
# Si number density = 18.157236 Si / 1000 Ang^3
#
#
#
# Elastic Constant Matrix: (Units=GPa)
#
#
# Indices 1 2 3 4 5 6 
#
# 1 135.4652 30.0087 41.4096 0.0000 0.0000 0.0000
# 2 30.0087 85.1055 42.5901 -0.0001 0.0000 0.0000
# 3 41.4096 42.5901 82.4508 -0.0004 0.0001 0.0001
# 4 0.0000 -0.0001 -0.0004 20.6474 0.0001 0.0000
# 5 0.0000 0.0000 0.0001 0.0001 32.0295 -0.0001
# 6 0.0000 0.0000 0.0001 0.0000 -0.0001 19.5166
#
#
#
# Elastic Compliance Matrix: (Units=1/GPa)
#
#
# Indices 1 2 3 4 5 6 
#
# 1 0.008811 -0.001203 -0.003804 0.000000 0.000000 0.000000
# 2 -0.001203 0.016011 -0.007666 0.000000 0.000000 0.000000
# 3 -0.003804 -0.007666 0.017999 0.000000 0.000000 0.000000
# 4 0.000000 0.000000 0.000000 0.048432 0.000000 0.000000
# 5 0.000000 0.000000 0.000000 0.000000 0.031221 0.000000
# 6 0.000000 0.000000 0.000000 0.000000 0.000000 0.051238
#
#
# Mechanical properties :
#
#
# Convention : Reuss Voigt Hill
#
# Bulk Modulus (GPa) = 57.22611 59.00425 58.11518
# Shear Modulus (GPa) = 24.40407 27.03957 25.72182
#
# Velocity S-wave (km/s) = 3.67009 3.86319 3.76788
# Velocity P-wave (km/s) = 7.03881 7.24333 7.14180
#
# Compressibility (1/GPa) = 0.01747454
#
# Stress axis : x y z
#
# Youngs Moduli (GPa) = 113.49089 62.45781 55.55958
#
# Poissons Ratio (x) = 0.07516 0.21133
# Poissons Ratio (y) = 0.13657 0.42592
# Poissons Ratio (z) = 0.43169 0.47880
#
# Static dielectric constant tensor:
#      x y z
#    x 3.609490 0.000000 0.000000 
#    y 0.000000 3.160970 0.000000 
#    z 0.000000 0.000000 3.140880 
# 
# 
# High freq. dielectric constant tensor:
#      x y z
#    x 1.727830 0.000000 0.000000 
#    y 0.000000 1.680100 0.000000 
#    z 0.000000 0.000000 1.672250 
# 
# From -- ./inp_files/40008.got.cif
#   From: 2010.03.12/outbox.cif.g09.slc.cpg/sg74_21_cif.got.tgz:40008.got - 2010.04.16 15:46:19.
