data_PCOD8298870
_publ_section_title
;
Structure prediction by ZEFSAII (Michael W. Deem and Ramdas Pophale) SiO2 
 PCOD8298870
Probable space group: I M M A
;
_chemical_formula_sum "Si O2"
_cell_formula_units_Z 80
_cell_length_a 15.593214
_cell_length_b 23.436389
_cell_length_c 11.740620
_cell_angle_alpha 90.000000
_cell_angle_beta 90.000000
_cell_angle_gamma 90.000000
_cell_volume 4290.593483
_symmetry_space_group_name_H-M "I M M A"
_symmetry_group_IT_number 74
_symmetry_cell_setting 'orthorhombic'
loop_
_space_group_symop_operation_xyz
x,y,z
-x,1/2-y,z
x,-y,-z
-x,1/2+y,-z
-x,-y,-z
x,1/2+y,-z
-x,y,z
x,1/2-y,z
1/2+x,1/2+y,1/2+z
1/2-x,-y,1/2+z
1/2+x,1/2-y,1/2-z
1/2-x,y,1/2-z
1/2-x,1/2-y,1/2-z
1/2+x,y,1/2-z
1/2-x,1/2+y,1/2+z
1/2+x,-y,1/2+z
loop_
_atom_site_type_symbol
_atom_site_label
_atom_site_fract_x
_atom_site_fract_y
_atom_site_fract_z
Si Si1 0.677892 0.921748 0.516498
Si Si2 0.902782 0.512401 0.168149
Si Si3 0.596953 0.313952 0.963616
Si Si4 0.818839 0.913819 0.343265
Si Si5 0.244808 0.685660 0.880268
O O1 0.604368 0.934949 0.422382
O O2 0.770448 0.935079 0.457777
O O3 0.677656 0.855722 0.555035
O O4 0.661179 0.962218 0.625873
O O5 0.874199 0.533527 0.293123
O O6 0.000000 0.490139 0.173188
O O7 0.500000 0.324814 0.006257
O O8 0.606282 0.250000 0.912120
O O9 0.620222 0.359731 0.866627
O O10 0.659320 0.320988 0.071393
O O11 0.750000 0.893120 0.250000
O O12 0.209859 0.750000 0.894488
O O13 0.250000 0.667036 0.750000
#
# Coordination Sequence:
#
# PCOD8298870 Si02
#       5
#    16  16  16  16  16
#     4   9  18  31  50  74  98 129 166 202 242 292
#     4  10  19  33  53  75 102 133 166 204 250 297
#     4   9  17  31  51  75 103 132 163 202 247 291
#     4   9  18  31  49  75 101 132 168 203 241 290
#     4   9  18  33  53  74  98 131 167 204 247 297
#
# _framework density 18.645439
#
# number of rings (size 3 to 8) (size 9 to 14) (size 15 to 20)
#    0.000    2.800    0.000    1.800    0.000    4.400 
#    0.000    5.000    0.000    6.000    0.000   57.400 
#    0.000    0.000    0.000    0.000    0.000    0.000 
#
# Total GULP energy -495676.818668 kJ/mol
# GULP energy per Si atom -12391.920467 kJ/mol
# Density = 1.860300 g / cm^3
# Si number density = 18.645439 Si / 1000 Ang^3
#
#
#
# Elastic Constant Matrix: (Units=GPa)
#
#
# Indices 1 2 3 4 5 6 
#
# 1 93.7765 58.3536 32.8640 0.0000 0.0000 0.0000
# 2 58.3536 111.7048 54.5888 0.0001 0.0000 0.0000
# 3 32.8640 54.5888 74.2265 0.0004 0.0000 -0.0001
# 4 0.0000 0.0001 0.0004 33.1505 0.0000 0.0000
# 5 0.0000 0.0000 0.0000 0.0000 15.6584 0.0000
# 6 0.0000 0.0000 -0.0001 0.0000 0.0000 24.6922
#
#
#
# Elastic Compliance Matrix: (Units=1/GPa)
#
#
# Indices 1 2 3 4 5 6 
#
# 1 0.015899 -0.007595 -0.001454 0.000000 0.000000 0.000000
# 2 -0.007595 0.017603 -0.009583 0.000000 0.000000 0.000000
# 3 -0.001454 -0.009583 0.021164 0.000000 0.000000 0.000000
# 4 0.000000 0.000000 0.000000 0.030165 0.000000 0.000000
# 5 0.000000 0.000000 0.000000 0.000000 0.063863 0.000000
# 6 0.000000 0.000000 0.000000 0.000000 0.000000 0.040499
#
#
# Mechanical properties :
#
#
# Convention : Reuss Voigt Hill
#
# Bulk Modulus (GPa) = 57.46465 63.48007 60.47236
# Shear Modulus (GPa) = 21.52777 23.62697 22.57737
#
# Velocity S-wave (km/s) = 3.40161 3.56360 3.48354
# Velocity P-wave (km/s) = 6.80548 7.14508 6.97734
#
# Compressibility (1/GPa) = 0.01740200
#
# Stress axis : x y z
#
# Youngs Moduli (GPa) = 62.89557 56.80846 47.25102
#
# Poissons Ratio (x) = 0.43148 0.06869
# Poissons Ratio (y) = 0.47771 0.45281
# Poissons Ratio (z) = 0.09143 0.54440
#
# Static dielectric constant tensor:
#      x y z
#    x 3.355830 0.000000 0.000000 
#    y 0.000000 3.537370 0.000000 
#    z 0.000000 0.000000 3.413210 
# 
# 
# High freq. dielectric constant tensor:
#      x y z
#    x 1.708020 0.000000 0.000000 
#    y 0.000000 1.719080 0.000000 
#    z 0.000000 0.000000 1.713860 
# 
# From -- ./inp_files/20515.got.cif
#   From: 2010.03.12/outbox.cif.g09.slc.cpg/sg74_11_cif.got.tgz:20515.got - 2010.04.16 15:46:19.
