data_PCOD8298728
_publ_section_title
;
Structure prediction by ZEFSAII (Michael W. Deem and Ramdas Pophale) SiO2 
 PCOD8298728
Probable space group: I M M A
;
_chemical_formula_sum "Si O2"
_cell_formula_units_Z 104
_cell_length_a 27.566202
_cell_length_b 8.878576
_cell_length_c 22.560762
_cell_angle_alpha 90.000000
_cell_angle_beta 90.000000
_cell_angle_gamma 90.000000
_cell_volume 5521.715354
_symmetry_space_group_name_H-M "I M M A"
_symmetry_group_IT_number 74
_symmetry_cell_setting 'orthorhombic'
loop_
_space_group_symop_operation_xyz
x,y,z
-x,1/2-y,z
x,-y,-z
-x,1/2+y,-z
-x,-y,-z
x,1/2+y,-z
-x,y,z
x,1/2-y,z
1/2+x,1/2+y,1/2+z
1/2-x,-y,1/2+z
1/2+x,1/2-y,1/2-z
1/2-x,y,1/2-z
1/2-x,1/2-y,1/2-z
1/2+x,y,1/2-z
1/2-x,1/2+y,1/2+z
1/2+x,-y,1/2+z
loop_
_atom_site_type_symbol
_atom_site_label
_atom_site_fract_x
_atom_site_fract_y
_atom_site_fract_z
Si Si1 0.000000 0.926142 0.063033
Si Si2 0.302939 0.579301 0.765727
Si Si3 0.228103 0.925441 0.559697
Si Si4 0.102971 0.075978 0.937635
Si Si5 0.556035 0.427363 0.063493
Si Si6 0.356449 0.070708 0.873747
Si Si7 0.820262 0.084252 0.133659
O O1 0.948797 0.974405 0.093035
O O2 0.000000 0.750000 0.053581
O O3 0.000000 0.000000 0.000000
O O4 0.297010 0.750000 0.791610
O O5 0.250000 0.510145 0.750000
O O6 0.334870 0.481028 0.810489
O O7 0.330288 0.581627 0.703322
O O8 0.217726 0.750000 0.548876
O O9 0.264749 0.951769 0.614849
O O10 0.250019 0.000000 0.500000
O O11 0.178352 0.010898 0.574315
O O12 0.103090 0.250000 0.951276
O O13 0.145214 0.040884 0.892539
O O14 0.113160 0.000000 0.000000
O O15 0.500000 0.459468 0.080927
O O16 0.566451 0.250000 0.059861
O O17 0.590154 0.501509 0.114096
O O18 0.568232 0.500000 0.000000
O O19 0.359684 0.250000 0.874789
O O20 0.833402 0.250000 0.108314
#
# Coordination Sequence:
#
# PCOD8298728 Si02
#       7
#     8  16  16  16  16  16  16
#     4   8  16  30  48  72 100 136 172 210 257 312
#     4  10  20  40  62  80 106 147 191 233 278 328
#     4  11  22  37  54  79 114 150 185 226 278 333
#     4  10  19  32  52  77 108 140 177 220 271 327
#     4  10  21  39  64  92 122 156 193 238 293 352
#     4  12  24  37  58  87 117 151 191 236 283 339
#     4  10  21  36  56  79 106 141 182 228 278 328
#
# _framework density 18.834726
#
# number of rings (size 3 to 8) (size 9 to 14) (size 15 to 20)
#    0.000    1.692    1.538    3.692    0.000    4.923 
#    0.000    0.000    1.692    0.000    0.000    0.000 
#    0.000    0.000    0.000    0.000    0.000    0.000 
#
# Total GULP energy -644537.366511 kJ/mol
# GULP energy per Si atom -12394.949356 kJ/mol
# Density = 1.879186 g / cm^3
# Si number density = 18.834726 Si / 1000 Ang^3
#
#
#
# Elastic Constant Matrix: (Units=GPa)
#
#
# Indices 1 2 3 4 5 6 
#
# 1 121.5043 56.4900 40.3701 0.0000 0.0000 0.0000
# 2 56.4900 102.0259 42.9903 0.0000 0.0000 0.0000
# 3 40.3701 42.9903 86.2517 0.0000 0.0000 0.0000
# 4 0.0000 0.0000 0.0000 30.3412 0.0000 0.0000
# 5 0.0000 0.0000 0.0000 0.0000 19.9974 0.0000
# 6 0.0000 0.0000 0.0000 0.0000 0.0000 26.4160
#
#
#
# Elastic Compliance Matrix: (Units=1/GPa)
#
#
# Indices 1 2 3 4 5 6 
#
# 1 0.011601 -0.005235 -0.002821 0.000000 0.000000 0.000000
# 2 -0.005235 0.014769 -0.004911 0.000000 0.000000 0.000000
# 3 -0.002821 -0.004911 0.015362 0.000000 0.000000 0.000000
# 4 0.000000 0.000000 0.000000 0.032958 0.000000 0.000000
# 5 0.000000 0.000000 0.000000 0.000000 0.050006 0.000000
# 6 0.000000 0.000000 0.000000 0.000000 0.000000 0.037856
#
#
# Mechanical properties :
#
#
# Convention : Reuss Voigt Hill
#
# Bulk Modulus (GPa) = 63.29541 65.49808 64.39675
# Shear Modulus (GPa) = 25.80603 26.67971 26.24287
#
# Velocity S-wave (km/s) = 3.70554 3.76775 3.73677
# Velocity P-wave (km/s) = 7.21018 7.33339 7.27205
#
# Compressibility (1/GPa) = 0.01579893
#
# Stress axis : x y z
#
# Youngs Moduli (GPa) = 86.19854 67.70808 65.09509
#
# Poissons Ratio (x) = 0.35444 0.18362
# Poissons Ratio (y) = 0.45123 0.31970
# Poissons Ratio (z) = 0.24314 0.33253
#
# Static dielectric constant tensor:
#      x y z
#    x 3.811710 0.000000 0.000000 
#    y 0.000000 3.387940 0.000000 
#    z 0.000000 0.000000 3.268020 
# 
# 
# High freq. dielectric constant tensor:
#      x y z
#    x 1.737000 0.000000 0.000000 
#    y 0.000000 1.736640 0.000000 
#    z 0.000000 0.000000 1.711830 
# 
# From -- ./inp_files/62343.got.cif
#   From: 2010.03.12/outbox.cif.g09.slc.cpg/sg74_32_cif.got.tgz:62343.got - 2010.04.16 15:46:19.
