data_PCOD8298519
_publ_section_title
;
Structure prediction by ZEFSAII (Michael W. Deem and Ramdas Pophale) SiO2 
 PCOD8298519
Probable space group: I M M A
;
_chemical_formula_sum "Si O2"
_cell_formula_units_Z 104
_cell_length_a 17.327660
_cell_length_b 13.496054
_cell_length_c 24.187782
_cell_angle_alpha 90.000000
_cell_angle_beta 90.000000
_cell_angle_gamma 90.000000
_cell_volume 5656.434607
_symmetry_space_group_name_H-M "I M M A"
_symmetry_group_IT_number 74
_symmetry_cell_setting 'orthorhombic'
loop_
_space_group_symop_operation_xyz
x,y,z
-x,1/2-y,z
x,-y,-z
-x,1/2+y,-z
-x,-y,-z
x,1/2+y,-z
-x,y,z
x,1/2-y,z
1/2+x,1/2+y,1/2+z
1/2-x,-y,1/2+z
1/2+x,1/2-y,1/2-z
1/2-x,y,1/2-z
1/2-x,1/2-y,1/2-z
1/2+x,y,1/2-z
1/2-x,1/2+y,1/2+z
1/2+x,-y,1/2+z
loop_
_atom_site_type_symbol
_atom_site_label
_atom_site_fract_x
_atom_site_fract_y
_atom_site_fract_z
Si Si1 0.282909 0.500000 0.000000
Si Si2 0.782184 0.637273 0.688865
Si Si3 0.914758 0.861617 0.498127
Si Si4 0.721570 0.035536 0.617028
Si Si5 0.909190 0.133598 0.819617
Si Si6 0.622519 0.360965 0.870555
Si Si7 0.416878 0.000401 0.218040
O O1 0.342587 0.418316 0.025535
O O2 0.227471 0.470647 0.949668
O O3 0.786512 0.750000 0.665879
O O4 0.750000 0.636197 0.750000
O O5 0.729693 0.572012 0.646863
O O6 0.866922 0.591944 0.696501
O O7 0.908336 0.750000 0.518720
O O8 0.905177 0.871529 0.432841
O O9 0.000000 0.903271 0.514843
O O10 0.639908 0.088519 0.629444
O O11 0.789050 0.106459 0.638763
O O12 0.890370 0.250000 0.810260
O O13 0.881585 0.067645 0.767147
O O14 0.000000 0.119648 0.832081
O O15 0.613765 0.250000 0.849248
O O16 0.568031 0.428101 0.833445
O O17 0.500000 0.043310 0.236551
#
# Coordination Sequence:
#
# PCOD8298519 Si02
#       7
#     8  16  16  16  16  16  16
#     4  10  21  34  53  74 102 138 180 222 265 304
#     4  10  20  36  55  75 103 140 180 222 263 303
#     4   9  17  30  48  72 103 138 174 210 251 298
#     4  10  20  36  53  77 104 138 178 221 262 315
#     4  10  20  34  54  80 108 134 162 206 267 328
#     4   9  17  28  48  77 110 142 168 199 247 310
#     4  10  19  31  50  79 111 140 172 208 252 310
#
# _framework density 18.386140000000001
#
# number of rings (size 3 to 8) (size 9 to 14) (size 15 to 20)
#    0.000    2.308    1.538    1.615    0.000    3.077 
#    0.000    3.462    0.000    0.462    0.000    0.000 
#    0.000    0.000    0.000    0.000    0.000    0.000 
#
# Total GULP energy -644346.410357 kJ/mol
# GULP energy per Si atom -12391.277122 kJ/mol
# Density = 1.834429 g / cm^3
# Si number density = 18.386140 Si / 1000 Ang^3
#
#
#
# Elastic Constant Matrix: (Units=GPa)
#
#
# Indices 1 2 3 4 5 6 
#
# 1 69.1725 28.7900 14.0686 0.0000 0.0000 0.0000
# 2 28.7900 103.1877 5.4846 0.0000 0.0000 0.0000
# 3 14.0686 5.4846 33.6531 0.0000 0.0000 0.0000
# 4 0.0000 0.0000 0.0000 23.2916 0.0000 0.0000
# 5 0.0000 0.0000 0.0000 0.0000 20.7394 0.0000
# 6 0.0000 0.0000 0.0000 0.0000 0.0000 34.3752
#
#
#
# Elastic Compliance Matrix: (Units=1/GPa)
#
#
# Indices 1 2 3 4 5 6 
#
# 1 0.017722 -0.004590 -0.006660 0.000000 0.000000 0.000000
# 2 -0.004590 0.010965 0.000132 0.000000 0.000000 0.000000
# 3 -0.006660 0.000132 0.032478 0.000000 0.000000 0.000000
# 4 0.000000 0.000000 0.000000 0.042934 0.000000 0.000000
# 5 0.000000 0.000000 0.000000 0.000000 0.048217 0.000000
# 6 0.000000 0.000000 0.000000 0.000000 0.000000 0.029091
#
#
# Mechanical properties :
#
#
# Convention : Reuss Voigt Hill
#
# Bulk Modulus (GPa) = 25.68930 33.63330 29.66130
# Shear Modulus (GPa) = 23.08190 26.19257 24.63724
#
# Velocity S-wave (km/s) = 3.54700 3.77846 3.66456
# Velocity P-wave (km/s) = 5.54774 6.11295 5.83719
#
# Compressibility (1/GPa) = 0.03892672
#
# Stress axis : x y z
#
# Youngs Moduli (GPa) = 56.42758 91.20060 30.79028
#
# Poissons Ratio (x) = 0.41866 0.20508
# Poissons Ratio (y) = 0.25903 -0.00407
# Poissons Ratio (z) = 0.37583 -0.01204
#
# Static dielectric constant tensor:
#      x y z
#    x 3.344880 0.000000 0.000000 
#    y 0.000000 3.736250 0.000000 
#    z 0.000000 0.000000 3.192680 
# 
# 
# High freq. dielectric constant tensor:
#      x y z
#    x 1.703080 0.000000 0.000000 
#    y 0.000000 1.717130 0.000000 
#    z 0.000000 0.000000 1.694400 
# 
# From -- ./inp_files/60962.got.cif
#   From: 2010.03.12/outbox.cif.g09.slc.cpg/sg74_31_cif.got.tgz:60962.got - 2010.04.16 15:46:19.
