data_PCOD8298045
_publ_section_title
;
Structure prediction by ZEFSAII (Michael W. Deem and Ramdas Pophale) SiO2 
 PCOD8298045
Probable space group: I M M A
;
_chemical_formula_sum "Si O2"
_cell_formula_units_Z 72
_cell_length_a 8.570193
_cell_length_b 14.523373
_cell_length_c 30.143712
_cell_angle_alpha 90.000000
_cell_angle_beta 90.000000
_cell_angle_gamma 90.000000
_cell_volume 3751.930850
_symmetry_space_group_name_H-M "I M M A"
_symmetry_group_IT_number 74
_symmetry_cell_setting 'orthorhombic'
loop_
_space_group_symop_operation_xyz
x,y,z
-x,1/2-y,z
x,-y,-z
-x,1/2+y,-z
-x,-y,-z
x,1/2+y,-z
-x,y,z
x,1/2-y,z
1/2+x,1/2+y,1/2+z
1/2-x,-y,1/2+z
1/2+x,1/2-y,1/2-z
1/2-x,y,1/2-z
1/2-x,1/2-y,1/2-z
1/2+x,y,1/2-z
1/2-x,1/2+y,1/2+z
1/2+x,-y,1/2+z
loop_
_atom_site_type_symbol
_atom_site_label
_atom_site_fract_x
_atom_site_fract_y
_atom_site_fract_z
Si Si1 0.814168 0.750000 0.010795
Si Si2 0.185386 0.555815 0.873750
Si Si3 0.815082 0.250000 0.089294
Si Si4 0.185527 0.944056 0.041842
Si Si5 0.815118 0.250000 0.799379
Si Si6 0.816319 0.562078 0.298925
O O1 0.746220 0.750000 0.960679
O O2 0.000000 0.750000 0.007927
O O3 0.754722 0.660901 0.037765
O O4 0.241289 0.659555 0.884376
O O5 0.246940 0.489160 0.912892
O O6 0.267114 0.524923 0.828435
O O7 0.000000 0.550127 0.868236
O O8 0.000000 0.250000 0.085487
O O9 0.000000 0.949213 0.041054
O O10 0.253013 0.000000 0.000000
O O11 0.750000 0.250000 0.750000
O O12 0.752497 0.344229 0.821644
O O13 0.000000 0.250000 0.800780
O O14 0.750000 0.546055 0.250000
O O15 0.000000 0.571109 0.295680
#
# Coordination Sequence:
#
# PCOD8298045 Si02
#       6
#     8  16   8  16   8  16
#     4   9  14  23  41  72 108 142 179 225 278 322
#     4  10  19  32  52  80 110 145 188 236 284 331
#     4   9  16  28  49  75 107 145 188 233 280 328
#     4   9  15  24  42  71 106 139 177 228 278 324
#     4  10  18  33  58  85 111 141 175 214 265 326
#     4  11  22  38  58  82 112 147 183 227 276 333
#
# _framework density 19.19012
#
# number of rings (size 3 to 8) (size 9 to 14) (size 15 to 20)
#    0.000    2.222    2.222    4.333    0.000    0.889 
#    0.000    3.333    0.000    0.667    0.000    0.000 
#    0.000    0.000    0.000    0.000    0.000    0.000 
#
# Total GULP energy -446300.674217 kJ/mol
# GULP energy per Si atom -12397.240950 kJ/mol
# Density = 1.914644 g / cm^3
# Si number density = 19.190120 Si / 1000 Ang^3
#
#
#
# Elastic Constant Matrix: (Units=GPa)
#
#
# Indices 1 2 3 4 5 6 
#
# 1 79.2537 35.5493 31.0474 0.0000 0.0000 0.0000
# 2 35.5493 187.2794 77.7344 0.0000 0.0000 0.0000
# 3 31.0474 77.7344 108.9255 0.0000 0.0000 0.0000
# 4 0.0000 0.0000 0.0000 35.2913 0.0000 0.0000
# 5 0.0000 0.0000 0.0000 0.0000 15.0144 0.0000
# 6 0.0000 0.0000 0.0000 0.0000 0.0000 14.8346
#
#
#
# Elastic Compliance Matrix: (Units=1/GPa)
#
#
# Indices 1 2 3 4 5 6 
#
# 1 0.014484 -0.001472 -0.003078 0.000000 0.000000 0.000000
# 2 -0.001472 0.007737 -0.005102 0.000000 0.000000 0.000000
# 3 -0.003078 -0.005102 0.013699 0.000000 0.000000 0.000000
# 4 0.000000 0.000000 0.000000 0.028336 0.000000 0.000000
# 5 0.000000 0.000000 0.000000 0.000000 0.066603 0.000000
# 6 0.000000 0.000000 0.000000 0.000000 0.000000 0.067410
#
#
# Mechanical properties :
#
#
# Convention : Reuss Voigt Hill
#
# Bulk Modulus (GPa) = 60.18266 73.79122 66.98694
# Shear Modulus (GPa) = 22.41061 28.43657 25.42359
#
# Velocity S-wave (km/s) = 3.42105 3.85364 3.64377
# Velocity P-wave (km/s) = 6.85814 7.63786 7.25848
#
# Compressibility (1/GPa) = 0.01661608
#
# Stress axis : x y z
#
# Youngs Moduli (GPa) = 69.04335 129.25694 72.99938
#
# Poissons Ratio (x) = 0.19022 0.22470
# Poissons Ratio (y) = 0.10161 0.37242
# Poissons Ratio (z) = 0.21252 0.65943
#
# Static dielectric constant tensor:
#      x y z
#    x 2.988180 0.000000 0.000000 
#    y 0.000000 4.011820 0.000000 
#    z 0.000000 0.000000 3.437040 
# 
# 
# High freq. dielectric constant tensor:
#      x y z
#    x 1.699880 0.000000 0.000000 
#    y 0.000000 1.760320 0.000000 
#    z 0.000000 0.000000 1.734180 
# 
# From -- ./inp_files/70000.got.cif
#   From: 2010.03.12/outbox.cif.g09.slc.cpg/sg74_35_cif.got.tgz:70000.got - 2010.04.16 15:46:19.
