data_PCOD8298129
_publ_section_title
;
Structure prediction by ZEFSAII (Michael W. Deem and Ramdas Pophale) SiO2 
 PCOD8298129
Probable space group: I M M A
;
_chemical_formula_sum "Si O2"
_cell_formula_units_Z 88
_cell_length_a 10.491910
_cell_length_b 13.752905
_cell_length_c 38.177239
_cell_angle_alpha 90.000000
_cell_angle_beta 90.000000
_cell_angle_gamma 90.000000
_cell_volume 5508.755744
_symmetry_space_group_name_H-M "I M M A"
_symmetry_group_IT_number 74
_symmetry_cell_setting 'orthorhombic'
loop_
_space_group_symop_operation_xyz
x,y,z
-x,1/2-y,z
x,-y,-z
-x,1/2+y,-z
-x,-y,-z
x,1/2+y,-z
-x,y,z
x,1/2-y,z
1/2+x,1/2+y,1/2+z
1/2-x,-y,1/2+z
1/2+x,1/2-y,1/2-z
1/2-x,y,1/2-z
1/2-x,1/2-y,1/2-z
1/2+x,y,1/2-z
1/2-x,1/2+y,1/2+z
1/2+x,-y,1/2+z
loop_
_atom_site_type_symbol
_atom_site_label
_atom_site_fract_x
_atom_site_fract_y
_atom_site_fract_z
Si Si1 0.000000 0.135505 0.403023
Si Si2 0.271160 0.059155 0.053272
Si Si3 0.000000 0.865777 0.674972
Si Si4 0.500000 0.952358 0.588473
Si Si5 0.737159 0.141307 0.977547
Si Si6 0.500000 0.365841 0.333551
Si Si7 0.245489 0.134311 0.210515
Si Si8 0.000000 0.646153 0.055760
O O1 0.129924 0.098777 0.419260
O O2 0.000000 0.094450 0.364047
O O3 0.000000 0.250000 0.404011
O O4 0.128409 0.079502 0.067880
O O5 0.313741 0.946245 0.047039
O O6 0.290666 0.119823 0.017886
O O7 0.126645 0.907187 0.693089
O O8 0.000000 0.750000 0.676926
O O9 0.500000 0.914671 0.628134
O O10 0.500000 0.069748 0.587602
O O11 0.682540 0.250000 0.968046
O O12 0.886931 0.136365 0.971745
O O13 0.500000 0.250000 0.339063
O O14 0.622887 0.401641 0.311539
O O15 0.243009 0.250000 0.211145
O O16 0.250000 0.093273 0.250000
O O17 0.000000 0.750000 0.075264
#
# Coordination Sequence:
#
# PCOD8298129 Si02
#       8
#     8  16   8   8  16   8  16   8
#     4  11  22  34  44  60  90 122 148 178 223 272
#     4  10  20  32  47  65  86 115 148 183 226 266
#     4   9  17  28  41  56  79 112 142 168 206 252
#     4  10  19  31  47  68  91 113 145 185 218 261
#     4   9  17  30  47  66  86 111 148 189 224 262
#     4  10  19  27  39  63  90 113 141 177 211 245
#     4   9  16  27  42  59  81 112 147 175 199 236
#     4   8  15  29  48  67  88 113 141 182 233 269
#
# _framework density 15.974569000000001
#
# number of rings (size 3 to 8) (size 9 to 14) (size 15 to 20)
#    0.000    2.545    0.000    2.727    0.000    8.727 
#    0.000    1.364    0.000    0.000    0.000    0.000 
#    0.000    0.727    0.000    4.909    0.000    4.364 
#
# Total GULP energy -545133.426644 kJ/mol
# GULP energy per Si atom -12389.396060 kJ/mol
# Density = 1.593821 g / cm^3
# Si number density = 15.974569 Si / 1000 Ang^3
#
#
#
# Elastic Constant Matrix: (Units=GPa)
#
#
# Indices 1 2 3 4 5 6 
#
# 1 112.2333 18.8409 56.2228 0.0000 0.0000 0.0000
# 2 18.8409 62.0627 31.3341 0.0000 0.0000 0.0000
# 3 56.2228 31.3341 126.2041 0.0000 0.0000 0.0000
# 4 0.0000 0.0000 0.0000 16.0267 0.0000 0.0000
# 5 0.0000 0.0000 0.0000 0.0000 23.6177 0.0000
# 6 0.0000 0.0000 0.0000 0.0000 0.0000 3.5011
#
#
#
# Elastic Compliance Matrix: (Units=1/GPa)
#
#
# Indices 1 2 3 4 5 6 
#
# 1 0.011528 -0.001037 -0.004878 0.000000 0.000000 0.000000
# 2 -0.001037 0.018515 -0.004135 0.000000 0.000000 0.000000
# 3 -0.004878 -0.004135 0.011123 0.000000 0.000000 0.000000
# 4 0.000000 0.000000 0.000000 0.062396 0.000000 0.000000
# 5 0.000000 0.000000 0.000000 0.000000 0.042341 0.000000
# 6 0.000000 0.000000 0.000000 0.000000 0.000000 0.285624
#
#
# Mechanical properties :
#
#
# Convention : Reuss Voigt Hill
#
# Bulk Modulus (GPa) = 47.46867 57.03286 52.25076
# Shear Modulus (GPa) = 10.90158 21.56927 16.23543
#
# Velocity S-wave (km/s) = 2.61518 3.67853 3.19145
# Velocity P-wave (km/s) = 6.23687 7.33634 6.80883
#
# Compressibility (1/GPa) = 0.02106653
#
# Stress axis : x y z
#
# Youngs Moduli (GPa) = 86.74749 54.00969 89.89985
#
# Poissons Ratio (x) = 0.05599 0.43854
# Poissons Ratio (y) = 0.08993 0.37175
# Poissons Ratio (z) = 0.42316 0.22334
#
# Static dielectric constant tensor:
#      x y z
#    x 3.120460 0.000000 0.000000 
#    y 0.000000 3.032430 0.000000 
#    z 0.000000 0.000000 3.029930 
# 
# 
# High freq. dielectric constant tensor:
#      x y z
#    x 1.625760 0.000000 0.000000 
#    y 0.000000 1.575820 0.000000 
#    z 0.000000 0.000000 1.606930 
# 
# From -- ./inp_files/71795.got.cif
#   From: 2010.03.12/outbox.cif.g09.slc.cpg/sg74_36_cif.got.tgz:71795.got - 2010.04.16 15:46:19.
