data_PCOD8298970
_publ_section_title
;
Structure prediction by ZEFSAII (Michael W. Deem and Ramdas Pophale) SiO2 
 PCOD8298970
Probable space group: I M M A
;
_chemical_formula_sum "Si O2"
_cell_formula_units_Z 80
_cell_length_a 9.295406
_cell_length_b 15.345799
_cell_length_c 29.003767
_cell_angle_alpha 90.000000
_cell_angle_beta 90.000000
_cell_angle_gamma 90.000000
_cell_volume 4137.254876
_symmetry_space_group_name_H-M "I M M A"
_symmetry_group_IT_number 74
_symmetry_cell_setting 'orthorhombic'
loop_
_space_group_symop_operation_xyz
x,y,z
-x,1/2-y,z
x,-y,-z
-x,1/2+y,-z
-x,-y,-z
x,1/2+y,-z
-x,y,z
x,1/2-y,z
1/2+x,1/2+y,1/2+z
1/2-x,-y,1/2+z
1/2+x,1/2-y,1/2-z
1/2-x,y,1/2-z
1/2-x,1/2-y,1/2-z
1/2+x,y,1/2-z
1/2-x,1/2+y,1/2+z
1/2+x,-y,1/2+z
loop_
_atom_site_type_symbol
_atom_site_label
_atom_site_fract_x
_atom_site_fract_y
_atom_site_fract_z
Si Si1 0.835800 0.599870 0.706236
Si Si2 0.333771 0.651433 0.893223
Si Si3 0.669389 0.505627 0.552364
Si Si4 0.335743 0.347238 0.616327
Si Si5 0.666744 0.395049 0.794912
O O1 0.750000 0.636880 0.750000
O O2 0.779561 0.645121 0.659620
O O3 0.811154 0.497618 0.700047
O O4 0.000000 0.623861 0.715583
O O5 0.500000 0.622077 0.895503
O O6 0.312892 0.750000 0.910760
O O7 0.242243 0.589240 0.925345
O O8 0.723698 0.500000 0.500000
O O9 0.500000 0.520327 0.554774
O O10 0.715898 0.416882 0.578246
O O11 0.500000 0.367581 0.631383
O O12 0.324173 0.250000 0.594854
O O13 0.233846 0.350191 0.660513
O O14 0.500000 0.368920 0.790851
O O15 0.750000 0.359803 0.750000
#
# Coordination Sequence:
#
# PCOD8298970 Si02
#       5
#    16  16  16  16  16
#     4   9  18  32  52  80 113 149 187 227 271 324
#     4  10  21  38  59  85 118 153 189 231 279 333
#     4  10  22  40  62  86 112 145 186 237 291 340
#     4  10  21  37  57  82 113 148 187 232 282 336
#     4  10  19  33  55  82 113 150 189 230 276 330
#
# _framework density 19.336493000000001
#
# number of rings (size 3 to 8) (size 9 to 14) (size 15 to 20)
#    0.000    2.200    2.000    0.600    0.000    4.400 
#    0.000    2.000    0.000    0.000    0.000    0.000 
#    0.000    0.000    0.000    0.000    0.000    0.000 
#
# Total GULP energy -496079.935582 kJ/mol
# GULP energy per Si atom -12401.998390 kJ/mol
# Density = 1.929248 g / cm^3
# Si number density = 19.336493 Si / 1000 Ang^3
#
#
#
# Elastic Constant Matrix: (Units=GPa)
#
#
# Indices 1 2 3 4 5 6 
#
# 1 65.5930 39.7776 52.0078 0.0000 0.0000 0.0000
# 2 39.7776 98.2880 64.9205 0.0000 0.0000 0.0000
# 3 52.0078 64.9205 145.2510 0.0000 0.0000 0.0000
# 4 0.0000 0.0000 0.0000 2.3570 0.0000 0.0000
# 5 0.0000 0.0000 0.0000 0.0000 32.1887 0.0000
# 6 0.0000 0.0000 0.0000 0.0000 0.0000 -15.0811
#
#
#
# Elastic Compliance Matrix: (Units=1/GPa)
#
#
# Indices 1 2 3 4 5 6 
#
# 1 0.023242 -0.005547 -0.005843 0.000000 0.000000 0.000000
# 2 -0.005547 0.015760 -0.005058 0.000000 0.000000 0.000000
# 3 -0.005843 -0.005058 0.011237 0.000000 0.000000 0.000000
# 4 0.000000 0.000000 0.000000 0.424264 0.000000 0.000000
# 5 0.000000 0.000000 0.000000 0.000000 0.031067 0.000000
# 6 0.000000 0.000000 0.000000 0.000000 0.000000 -0.066308
#
#
# Mechanical properties :
#
#
# Convention : Reuss Voigt Hill
#
# Bulk Modulus (GPa) = 57.65635 69.17153 63.41394
# Shear Modulus (GPa) = 10.46161 14.05465 12.25813
#
# Velocity S-wave (km/s) = 2.32853 2.69893 2.52054
# Velocity P-wave (km/s) = 6.09192 6.75000 6.42939
#
# Compressibility (1/GPa) = 0.01734414
#
# Stress axis : x y z
#
# Youngs Moduli (GPa) = 43.02567 63.45250 88.99004
#
# Poissons Ratio (x) = 0.35197 0.51994
# Poissons Ratio (y) = 0.23866 0.45009
# Poissons Ratio (z) = 0.25138 0.32093
#
# Static dielectric constant tensor:
#      x y z
#    x 3.484660 0.000000 0.000000 
#    y 0.000000 3.511620 0.000000 
#    z 0.000000 0.000000 3.574050 
# 
# 
# High freq. dielectric constant tensor:
#      x y z
#    x 1.745610 0.000000 0.000000 
#    y 0.000000 1.755720 0.000000 
#    z 0.000000 0.000000 1.747890 
# 
# From -- ./inp_files/63960.got.cif
#   From: 2010.03.12/outbox.cif.g09.slc.cpg/sg74_32_cif.got.tgz:63960.got - 2010.04.16 15:46:19.
