data_PCOD8298563
_publ_section_title
;
Structure prediction by ZEFSAII (Michael W. Deem and Ramdas Pophale) SiO2 
 PCOD8298563
Probable space group: I M M A
;
_chemical_formula_sum "Si O2"
_cell_formula_units_Z 96
_cell_length_a 24.031014
_cell_length_b 9.367320
_cell_length_c 21.165602
_cell_angle_alpha 90.000000
_cell_angle_beta 90.000000
_cell_angle_gamma 90.000000
_cell_volume 4764.508196
_symmetry_space_group_name_H-M "I M M A"
_symmetry_group_IT_number 74
_symmetry_cell_setting 'orthorhombic'
loop_
_space_group_symop_operation_xyz
x,y,z
-x,1/2-y,z
x,-y,-z
-x,1/2+y,-z
-x,-y,-z
x,1/2+y,-z
-x,y,z
x,1/2-y,z
1/2+x,1/2+y,1/2+z
1/2-x,-y,1/2+z
1/2+x,1/2-y,1/2-z
1/2-x,y,1/2-z
1/2-x,1/2-y,1/2-z
1/2+x,y,1/2-z
1/2-x,1/2+y,1/2+z
1/2+x,-y,1/2+z
loop_
_atom_site_type_symbol
_atom_site_label
_atom_site_fract_x
_atom_site_fract_y
_atom_site_fract_z
Si Si1 0.329018 0.419801 0.439219
Si Si2 0.249135 0.917701 0.676327
Si Si3 0.437949 0.589881 0.055681
Si Si4 0.855811 0.587538 0.330815
Si Si5 0.440011 0.413951 0.734075
Si Si6 0.436890 0.087281 0.586257
O O1 0.300121 0.500000 0.500000
O O2 0.327162 0.250000 0.450004
O O3 0.300018 0.459670 0.371371
O O4 0.393077 0.473885 0.440966
O O5 0.240787 0.750000 0.675520
O O6 0.250000 0.971778 0.750000
O O7 0.195440 0.992326 0.646793
O O8 0.500000 0.532406 0.070564
O O9 0.439890 0.750000 0.030867
O O10 0.402793 0.575193 0.117727
O O11 0.409522 0.500000 0.000000
O O12 0.835007 0.750000 0.320386
O O13 0.885957 0.519158 0.268578
O O14 0.500000 0.484540 0.752534
O O15 0.442155 0.250000 0.756508
O O16 0.431406 0.426296 0.660557
O O17 0.500000 0.048053 0.564732
O O18 0.422420 0.250000 0.565418
#
# Coordination Sequence:
#
# PCOD8298563 Si02
#       6
#    16  16  16  16  16  16
#     4  11  24  41  61  83 111 148 186 228 276 327
#     4  10  23  42  60  80 110 147 185 229 282 332
#     4   9  18  32  49  72 105 142 179 221 269 322
#     4  10  19  31  53  81 104 135 181 227 270 321
#     4   8  14  27  50  81 114 143 174 218 270 322
#     4   9  18  34  58  87 116 144 175 216 268 325
#
# _framework density 20.148983999999999
#
# number of rings (size 3 to 8) (size 9 to 14) (size 15 to 20)
#    0.000    2.500    0.000    3.000    0.000    5.667 
#    0.000    3.333    0.000    2.500    0.000    0.000 
#    0.000    0.000    0.000    0.000    0.000    0.000 
#
# Total GULP energy -594633.332681 kJ/mol
# GULP energy per Si atom -12388.194431 kJ/mol
# Density = 2.010312 g / cm^3
# Si number density = 20.148984 Si / 1000 Ang^3
#
#
#
# Elastic Constant Matrix: (Units=GPa)
#
#
# Indices 1 2 3 4 5 6 
#
# 1 94.9982 38.1263 34.7469 0.0000 0.0000 0.0000
# 2 38.1263 52.0705 39.7958 0.0000 0.0000 0.0000
# 3 34.7469 39.7958 98.5486 0.0000 0.0000 0.0000
# 4 0.0000 0.0000 0.0000 29.4899 0.0000 0.0000
# 5 0.0000 0.0000 0.0000 0.0000 -46.1373 0.0000
# 6 0.0000 0.0000 0.0000 0.0000 0.0000 29.2626
#
#
#
# Elastic Compliance Matrix: (Units=1/GPa)
#
#
# Indices 1 2 3 4 5 6 
#
# 1 0.015010 -0.010046 -0.001236 0.000000 0.000000 0.000000
# 2 -0.010046 0.034502 -0.010390 0.000000 0.000000 0.000000
# 3 -0.001236 -0.010390 0.014779 0.000000 0.000000 0.000000
# 4 0.000000 0.000000 0.000000 0.033910 0.000000 0.000000
# 5 0.000000 0.000000 0.000000 0.000000 -0.021674 0.000000
# 6 0.000000 0.000000 0.000000 0.000000 0.000000 0.034173
#
#
# Mechanical properties :
#
#
# Convention : Reuss Voigt Hill
#
# Bulk Modulus (GPa) = 47.74081 52.32837 50.03459
# Shear Modulus (GPa) = 31.05083 11.38625 21.21854
#
# Velocity S-wave (km/s) = 3.92989 2.37977 3.24864
# Velocity P-wave (km/s) = 6.65864 5.79467 6.24162
#
# Compressibility (1/GPa) = 0.02094644
#
# Stress axis : x y z
#
# Youngs Moduli (GPa) = 66.62023 28.98403 67.66503
#
# Poissons Ratio (x) = 0.29119 0.08360
# Poissons Ratio (y) = 0.66930 0.70306
# Poissons Ratio (z) = 0.08231 0.30115
#
# Static dielectric constant tensor:
#      x y z
#    x 3.750460 0.000000 0.000000 
#    y 0.000000 3.686210 0.000000 
#    z 0.000000 0.000000 3.991990 
# 
# 
# High freq. dielectric constant tensor:
#      x y z
#    x 1.784800 0.000000 0.000000 
#    y 0.000000 1.756950 0.000000 
#    z 0.000000 0.000000 1.799690 
# 
# From -- ./inp_files/53884.got.cif
#   From: 2010.03.12/outbox.cif.g09.slc.cpg/sg74_27_cif.got.tgz:53884.got - 2010.04.16 15:46:19.
