data_PCOD8298848
_publ_section_title
;
Structure prediction by ZEFSAII (Michael W. Deem and Ramdas Pophale) SiO2 
 PCOD8298848
Probable space group: I M M A
;
_chemical_formula_sum "Si O2"
_cell_formula_units_Z 96
_cell_length_a 25.070772
_cell_length_b 17.366139
_cell_length_c 12.654818
_cell_angle_alpha 90.000000
_cell_angle_beta 90.000000
_cell_angle_gamma 90.000000
_cell_volume 5509.686442
_symmetry_space_group_name_H-M "I M M A"
_symmetry_group_IT_number 74
_symmetry_cell_setting 'orthorhombic'
loop_
_space_group_symop_operation_xyz
x,y,z
-x,1/2-y,z
x,-y,-z
-x,1/2+y,-z
-x,-y,-z
x,1/2+y,-z
-x,y,z
x,1/2-y,z
1/2+x,1/2+y,1/2+z
1/2-x,-y,1/2+z
1/2+x,1/2-y,1/2-z
1/2-x,y,1/2-z
1/2-x,1/2-y,1/2-z
1/2+x,y,1/2-z
1/2-x,1/2+y,1/2+z
1/2+x,-y,1/2+z
loop_
_atom_site_type_symbol
_atom_site_label
_atom_site_fract_x
_atom_site_fract_y
_atom_site_fract_z
Si Si1 0.194008 0.458087 0.206542
Si Si2 0.259064 0.109527 0.630247
Si Si3 0.853006 0.545936 0.396963
Si Si4 0.060722 0.660998 0.319658
Si Si5 0.442240 0.158732 0.579800
Si Si6 0.839062 0.837667 0.963101
O O1 0.250000 0.426252 0.250000
O O2 0.206518 0.531415 0.133327
O O3 0.154148 0.485989 0.299556
O O4 0.170048 0.389025 0.139421
O O5 0.250000 0.143253 0.750000
O O6 0.201325 0.093025 0.581258
O O7 0.291811 0.164147 0.551160
O O8 0.869345 0.500000 0.500000
O O9 0.900056 0.607190 0.384698
O O10 0.078452 0.750000 0.331602
O O11 0.065681 0.632062 0.199630
O O12 0.000000 0.650804 0.359994
O O13 0.500000 0.128830 0.537185
O O14 0.441586 0.250000 0.577931
O O15 0.393577 0.126966 0.510842
O O16 0.846477 0.750000 0.925010
#
# Coordination Sequence:
#
# PCOD8298848 Si02
#       6
#    16  16  16  16  16  16
#     4   9  19  35  50  67 100 137 164 198 252 304
#     4   9  18  32  50  70  98 132 164 204 249 293
#     4  10  19  33  52  71  93 129 172 207 247 300
#     4   9  18  33  52  74  99 125 158 208 263 300
#     4   8  15  29  48  70  97 126 155 192 242 295
#     4  11  20  30  50  77 103 133 167 204 250 303
#
# _framework density 17.423859
#
# number of rings (size 3 to 8) (size 9 to 14) (size 15 to 20)
#    0.000    3.000    0.000    5.500    0.000    1.667 
#    0.000    1.667    0.000    4.500    0.000    2.333 
#    0.000    0.000    0.000    0.000    0.000    0.000 
#
# Total GULP energy -594846.221052 kJ/mol
# GULP energy per Si atom -12392.629605 kJ/mol
# Density = 1.738420 g / cm^3
# Si number density = 17.423859 Si / 1000 Ang^3
#
#
#
# Elastic Constant Matrix: (Units=GPa)
#
#
# Indices 1 2 3 4 5 6 
#
# 1 113.2822 54.0837 54.2888 0.0000 0.0000 0.0000
# 2 54.0837 66.5334 46.3139 0.0000 0.0000 0.0000
# 3 54.2888 46.3139 71.6333 0.0000 0.0000 0.0000
# 4 0.0000 0.0000 0.0000 28.7134 0.0000 0.0000
# 5 0.0000 0.0000 0.0000 0.0000 21.0044 0.0000
# 6 0.0000 0.0000 0.0000 0.0000 0.0000 18.2243
#
#
#
# Elastic Compliance Matrix: (Units=1/GPa)
#
#
# Indices 1 2 3 4 5 6 
#
# 1 0.016054 -0.008329 -0.006782 0.000000 0.000000 0.000000
# 2 -0.008329 0.031652 -0.014152 0.000000 0.000000 0.000000
# 3 -0.006782 -0.014152 0.028249 0.000000 0.000000 0.000000
# 4 0.000000 0.000000 0.000000 0.034827 0.000000 0.000000
# 5 0.000000 0.000000 0.000000 0.000000 0.047609 0.000000
# 6 0.000000 0.000000 0.000000 0.000000 0.000000 0.054872
#
#
# Mechanical properties :
#
#
# Convention : Reuss Voigt Hill
#
# Bulk Modulus (GPa) = 57.37291 62.31353 59.84322
# Shear Modulus (GPa) = 18.01162 20.03923 19.02543
#
# Velocity S-wave (km/s) = 3.21866 3.39500 3.30800
# Velocity P-wave (km/s) = 6.84195 7.15604 7.00076
#
# Compressibility (1/GPa) = 0.01742983
#
# Stress axis : x y z
#
# Youngs Moduli (GPa) = 62.28896 31.59385 35.39917
#
# Poissons Ratio (x) = 0.26316 0.24007
# Poissons Ratio (y) = 0.51883 0.50095
# Poissons Ratio (z) = 0.42243 0.44710
#
# Static dielectric constant tensor:
#      x y z
#    x 3.559700 0.000000 0.000000 
#    y 0.000000 2.930260 0.000000 
#    z 0.000000 0.000000 3.047770 
# 
# 
# High freq. dielectric constant tensor:
#      x y z
#    x 1.679530 0.000000 0.000000 
#    y 0.000000 1.649560 0.000000 
#    z 0.000000 0.000000 1.653290 
# 
# From -- ./inp_files/25174.got.cif
#   From: 2010.03.12/outbox.cif.g09.slc.cpg/sg74_13_cif.got.tgz:25174.got - 2010.04.16 15:46:19.
