data_PCOD8298174
_publ_section_title
;
Structure prediction by ZEFSAII (Michael W. Deem and Ramdas Pophale) SiO2 
 PCOD8298174
Probable space group: I M M A
;
_chemical_formula_sum "Si O2"
_cell_formula_units_Z 104
_cell_length_a 9.383407
_cell_length_b 24.118870
_cell_length_c 27.777439
_cell_angle_alpha 90.000000
_cell_angle_beta 90.000000
_cell_angle_gamma 90.000000
_cell_volume 6286.511484
_symmetry_space_group_name_H-M "I M M A"
_symmetry_group_IT_number 74
_symmetry_cell_setting 'orthorhombic'
loop_
_space_group_symop_operation_xyz
x,y,z
-x,1/2-y,z
x,-y,-z
-x,1/2+y,-z
-x,-y,-z
x,1/2+y,-z
-x,y,z
x,1/2-y,z
1/2+x,1/2+y,1/2+z
1/2-x,-y,1/2+z
1/2+x,1/2-y,1/2-z
1/2-x,y,1/2-z
1/2-x,1/2-y,1/2-z
1/2+x,y,1/2-z
1/2-x,1/2+y,1/2+z
1/2+x,-y,1/2+z
loop_
_atom_site_type_symbol
_atom_site_label
_atom_site_fract_x
_atom_site_fract_y
_atom_site_fract_z
Si Si1 0.161285 0.565802 0.607650
Si Si2 0.161930 0.464125 0.546742
Si Si3 0.334970 0.628869 0.799098
Si Si4 0.343359 0.650852 0.559907
Si Si5 0.340816 0.353870 0.551546
Si Si6 0.837689 0.250000 0.297440
Si Si7 0.161442 0.750000 0.444459
Si Si8 0.841362 0.250000 0.440636
O O1 0.169578 0.500548 0.595845
O O2 0.210374 0.582207 0.661668
O O3 0.267740 0.592599 0.569075
O O4 0.000000 0.587608 0.598968
O O5 0.209875 0.500000 0.500000
O O6 0.264523 0.412830 0.557008
O O7 0.000000 0.442807 0.538014
O O8 0.500000 0.622250 0.785837
O O9 0.250000 0.618101 0.750000
O O10 0.303618 0.690423 0.822879
O O11 0.500000 0.652981 0.584223
O O12 0.360183 0.660947 0.503778
O O13 0.241516 0.697914 0.581487
O O14 0.500000 0.355919 0.575121
O O15 0.245270 0.304645 0.574742
O O16 0.750000 0.250000 0.250000
O O17 0.000000 0.250000 0.281421
O O18 0.151553 0.750000 0.502003
O O19 0.000000 0.750000 0.423483
O O20 0.000000 0.250000 0.418131
#
# Coordination Sequence:
#
# PCOD8298174 Si02
#       8
#    16  16  16  16  16   8   8   8
#     4  10  20  32  46  65  87 116 154 191 229 278
#     4  10  19  31  47  64  88 122 159 193 227 273
#     4   9  18  32  49  67  88 114 149 193 241 288
#     4  10  19  29  41  60  85 111 144 188 231 271
#     4  10  19  30  45  64  89 117 149 190 233 270
#     4   8  14  27  46  65  83 107 140 182 233 284
#     4   9  17  29  46  64  83 113 153 188 226 272
#     4   9  17  28  42  57  79 112 147 184 228 274
#
# _framework density 16.543357
#
# number of rings (size 3 to 8) (size 9 to 14) (size 15 to 20)
#    0.000    2.462    1.538    1.385    0.000    5.231 
#    0.000    1.538    0.000    1.846    0.000    0.000 
#    0.000    0.000    0.000    0.692    0.000    8.308 
#
# Total GULP energy -644238.707209 kJ/mol
# GULP energy per Si atom -12389.205908 kJ/mol
# Density = 1.650570 g / cm^3
# Si number density = 16.543357 Si / 1000 Ang^3
#
#
#
# Elastic Constant Matrix: (Units=GPa)
#
#
# Indices 1 2 3 4 5 6 
#
# 1 118.8553 63.8352 11.6740 0.0000 0.0000 0.0000
# 2 63.8352 111.8607 24.4486 0.0000 0.0000 0.0000
# 3 11.6740 24.4486 40.8448 0.0000 0.0000 0.0000
# 4 0.0000 0.0000 0.0000 11.2364 0.0000 0.0000
# 5 0.0000 0.0000 0.0000 0.0000 13.7182 0.0000
# 6 0.0000 0.0000 0.0000 0.0000 0.0000 19.9796
#
#
#
# Elastic Compliance Matrix: (Units=1/GPa)
#
#
# Indices 1 2 3 4 5 6 
#
# 1 0.012154 -0.007106 0.000780 0.000000 0.000000 0.000000
# 2 -0.007106 0.014440 -0.006612 0.000000 0.000000 0.000000
# 3 0.000780 -0.006612 0.028218 0.000000 0.000000 0.000000
# 4 0.000000 0.000000 0.000000 0.088996 0.000000 0.000000
# 5 0.000000 0.000000 0.000000 0.000000 0.072896 0.000000
# 6 0.000000 0.000000 0.000000 0.000000 0.000000 0.050051
#
#
# Mechanical properties :
#
#
# Convention : Reuss Voigt Hill
#
# Bulk Modulus (GPa) = 34.56096 52.38628 43.47362
# Shear Modulus (GPa) = 16.54113 20.42706 18.48409
#
# Velocity S-wave (km/s) = 3.16549 3.51773 3.34625
# Velocity P-wave (km/s) = 5.85636 6.94507 6.42382
#
# Compressibility (1/GPa) = 0.02893438
#
# Stress axis : x y z
#
# Youngs Moduli (GPa) = 82.28044 69.25137 35.43829
#
# Poissons Ratio (x) = 0.49211 -0.02764
# Poissons Ratio (y) = 0.58469 0.23433
# Poissons Ratio (z) = -0.06417 0.45792
#
# Static dielectric constant tensor:
#      x y z
#    x 3.382670 0.000000 0.000000 
#    y 0.000000 3.273110 0.000000 
#    z 0.000000 0.000000 2.571170 
# 
# 
# High freq. dielectric constant tensor:
#      x y z
#    x 1.653280 0.000000 0.000000 
#    y 0.000000 1.631600 0.000000 
#    z 0.000000 0.000000 1.569650 
# 
# From -- ./inp_files/70857.got.cif
#   From: 2010.03.12/outbox.cif.g09.slc.cpg/sg74_36_cif.got.tgz:70857.got - 2010.04.16 15:46:19.
