data_PCOD8298180
_publ_section_title
;
Structure prediction by ZEFSAII (Michael W. Deem and Ramdas Pophale) SiO2 
 PCOD8298180
Probable space group: I M M A
;
_chemical_formula_sum "Si O2"
_cell_formula_units_Z 80
_cell_length_a 26.981970
_cell_length_b 9.076760
_cell_length_c 19.042156
_cell_angle_alpha 90.000000
_cell_angle_beta 90.000000
_cell_angle_gamma 90.000000
_cell_volume 4663.592832
_symmetry_space_group_name_H-M "I M M A"
_symmetry_group_IT_number 74
_symmetry_cell_setting 'orthorhombic'
loop_
_space_group_symop_operation_xyz
x,y,z
-x,1/2-y,z
x,-y,-z
-x,1/2+y,-z
-x,-y,-z
x,1/2+y,-z
-x,y,z
x,1/2-y,z
1/2+x,1/2+y,1/2+z
1/2-x,-y,1/2+z
1/2+x,1/2-y,1/2-z
1/2-x,y,1/2-z
1/2-x,1/2-y,1/2-z
1/2+x,y,1/2-z
1/2-x,1/2+y,1/2+z
1/2+x,-y,1/2+z
loop_
_atom_site_type_symbol
_atom_site_label
_atom_site_fract_x
_atom_site_fract_y
_atom_site_fract_z
Si Si1 0.803634 0.411183 0.937084
Si Si2 0.310408 0.087768 0.934241
Si Si3 0.056522 0.076308 0.926558
Si Si4 0.862926 0.081732 0.162656
Si Si5 0.299129 0.581573 0.790736
O O1 0.828945 0.250000 0.929112
O O2 0.746593 0.390270 0.953382
O O3 0.812714 0.511806 0.869449
O O4 0.830349 0.500000 0.000000
O O5 0.335372 0.250000 0.928347
O O6 0.313991 0.006439 0.860201
O O7 0.335388 0.000000 0.000000
O O8 0.064989 0.250000 0.933864
O O9 0.000000 0.039243 0.906545
O O10 0.089924 0.012897 0.862791
O O11 0.070950 0.000000 0.000000
O O12 0.870488 0.250000 0.138788
O O13 0.849964 0.071755 0.245065
O O14 0.287546 0.750000 0.811815
O O15 0.250000 0.518878 0.750000
#
# Coordination Sequence:
#
# PCOD8298180 Si02
#       5
#    16  16  16  16  16
#     4  10  19  29  42  62  89 122 162 203 240 284
#     4  10  20  32  48  66  90 126 166 205 243 287
#     4  10  21  37  55  74  99 131 168 212 257 302
#     4  11  21  32  49  70  95 128 163 205 251 296
#     4  10  20  34  49  68  98 131 165 206 250 295
#
# _framework density 17.154157000000001
#
# number of rings (size 3 to 8) (size 9 to 14) (size 15 to 20)
#    0.000    1.800    2.000    3.000    0.000    4.800 
#    0.000    0.000    0.000    0.000    0.000    0.000 
#    0.000    0.800    0.000    2.600    0.000    3.800 
#
# Total GULP energy -495595.856796 kJ/mol
# GULP energy per Si atom -12389.896420 kJ/mol
# Density = 1.711511 g / cm^3
# Si number density = 17.154157 Si / 1000 Ang^3
#
#
#
# Elastic Constant Matrix: (Units=GPa)
#
#
# Indices 1 2 3 4 5 6 
#
# 1 48.7051 20.6700 18.8675 0.0000 0.0000 0.0000
# 2 20.6700 133.1175 69.8182 0.0000 0.0000 0.0000
# 3 18.8675 69.8182 113.3688 0.0000 0.0000 0.0000
# 4 0.0000 0.0000 0.0000 31.7351 0.0000 0.0000
# 5 0.0000 0.0000 0.0000 0.0000 19.4428 0.0000
# 6 0.0000 0.0000 0.0000 0.0000 0.0000 18.3083
#
#
#
# Elastic Compliance Matrix: (Units=1/GPa)
#
#
# Indices 1 2 3 4 5 6 
#
# 1 0.022393 -0.002249 -0.002342 0.000000 0.000000 0.000000
# 2 -0.002249 0.011322 -0.006598 0.000000 0.000000 0.000000
# 3 -0.002342 -0.006598 0.013274 0.000000 0.000000 0.000000
# 4 0.000000 0.000000 0.000000 0.031511 0.000000 0.000000
# 5 0.000000 0.000000 0.000000 0.000000 0.051433 0.000000
# 6 0.000000 0.000000 0.000000 0.000000 0.000000 0.054620
#
#
# Mechanical properties :
#
#
# Convention : Reuss Voigt Hill
#
# Bulk Modulus (GPa) = 40.63185 57.10032 48.86609
# Shear Modulus (GPa) = 23.24115 26.28629 24.76372
#
# Velocity S-wave (km/s) = 3.68481 3.91878 3.80359
# Velocity P-wave (km/s) = 6.46850 7.33721 6.91651
#
# Compressibility (1/GPa) = 0.02461123
#
# Stress axis : x y z
#
# Youngs Moduli (GPa) = 44.65619 88.32231 75.33412
#
# Poissons Ratio (x) = 0.19863 0.17642
# Poissons Ratio (y) = 0.10043 0.49709
# Poissons Ratio (z) = 0.10458 0.58279
#
# Static dielectric constant tensor:
#      x y z
#    x 2.857140 0.000000 0.000000 
#    y 0.000000 3.583870 0.000000 
#    z 0.000000 0.000000 3.108080 
# 
# 
# High freq. dielectric constant tensor:
#      x y z
#    x 1.609040 0.000000 0.000000 
#    y 0.000000 1.684610 0.000000 
#    z 0.000000 0.000000 1.652960 
# 
# From -- ./inp_files/39713.got.cif
#   From: 2010.03.12/outbox.cif.g09.slc.cpg/sg74_20_cif.got.tgz:39713.got - 2010.04.16 15:46:19.
