data_PCOD8298981
_publ_section_title
;
Structure prediction by ZEFSAII (Michael W. Deem and Ramdas Pophale) SiO2 
 PCOD8298981
Probable space group: I M M A
;
_chemical_formula_sum "Si O2"
_cell_formula_units_Z 96
_cell_length_a 18.843163
_cell_length_b 14.884639
_cell_length_c 19.352881
_cell_angle_alpha 90.000000
_cell_angle_beta 90.000000
_cell_angle_gamma 90.000000
_cell_volume 5427.973731
_symmetry_space_group_name_H-M "I M M A"
_symmetry_group_IT_number 74
_symmetry_cell_setting 'orthorhombic'
loop_
_space_group_symop_operation_xyz
x,y,z
-x,1/2-y,z
x,-y,-z
-x,1/2+y,-z
-x,-y,-z
x,1/2+y,-z
-x,y,z
x,1/2-y,z
1/2+x,1/2+y,1/2+z
1/2-x,-y,1/2+z
1/2+x,1/2-y,1/2-z
1/2-x,y,1/2-z
1/2-x,1/2-y,1/2-z
1/2+x,y,1/2-z
1/2-x,1/2+y,1/2+z
1/2+x,-y,1/2+z
loop_
_atom_site_type_symbol
_atom_site_label
_atom_site_fract_x
_atom_site_fract_y
_atom_site_fract_z
Si Si1 0.716800 0.851201 0.413942
Si Si2 0.180058 0.491782 0.421710
Si Si3 0.303640 0.353702 0.432871
Si Si4 0.329961 0.352237 0.731170
Si Si5 0.081365 0.853767 0.821463
Si Si6 0.416701 0.492487 0.203855
O O1 0.747302 0.750000 0.414180
O O2 0.677895 0.873396 0.486571
O O3 0.660506 0.862922 0.351855
O O4 0.784246 0.914247 0.400798
O O5 0.151564 0.500000 0.500000
O O6 0.236262 0.412015 0.411349
O O7 0.114884 0.470864 0.371364
O O8 0.283792 0.250000 0.420824
O O9 0.371320 0.381789 0.387294
O O10 0.343754 0.250000 0.754957
O O11 0.250000 0.381984 0.750000
O O12 0.387376 0.413805 0.767876
O O13 0.093073 0.750000 0.801349
O O14 0.104667 0.912252 0.755625
O O15 0.000000 0.872789 0.842027
O O16 0.500000 0.501313 0.195285
#
# Coordination Sequence:
#
# PCOD8298981 Si02
#       6
#    16  16  16  16  16  16
#     4   9  17  31  52  79 105 131 170 211 254 301
#     4  10  20  34  53  74 100 135 171 219 260 306
#     4   9  18  32  53  80 105 132 173 215 250 305
#     4  10  19  33  56  79 101 136 173 209 255 306
#     4   9  19  35  53  76 108 142 172 209 261 311
#     4  11  23  36  52  76 105 138 174 217 261 307
#
# _framework density 17.686157999999999
#
# number of rings (size 3 to 8) (size 9 to 14) (size 15 to 20)
#    0.000    2.333    1.667    1.000    0.000    1.333 
#    0.000    2.500    0.000    9.500    0.000    7.000 
#    0.000    0.000    0.000    0.000    0.000    0.000 
#
# Total GULP energy -595164.988557 kJ/mol
# GULP energy per Si atom -12399.270595 kJ/mol
# Density = 1.764590 g / cm^3
# Si number density = 17.686158 Si / 1000 Ang^3
#
#
#
# Elastic Constant Matrix: (Units=GPa)
#
#
# Indices 1 2 3 4 5 6 
#
# 1 88.2093 45.1608 72.3875 0.0000 0.0000 0.0000
# 2 45.1608 76.5851 49.3355 0.0000 0.0000 0.0000
# 3 72.3875 49.3355 134.4798 0.0000 0.0000 0.0000
# 4 0.0000 0.0000 0.0000 26.3025 0.0000 0.0000
# 5 0.0000 0.0000 0.0000 0.0000 27.7557 0.0000
# 6 0.0000 0.0000 0.0000 0.0000 0.0000 23.7225
#
#
#
# Elastic Compliance Matrix: (Units=1/GPa)
#
#
# Indices 1 2 3 4 5 6 
#
# 1 0.023081 -0.007342 -0.009730 0.000000 0.000000 0.000000
# 2 -0.007342 0.019434 -0.003177 0.000000 0.000000 0.000000
# 3 -0.009730 -0.003177 0.013839 0.000000 0.000000 0.000000
# 4 0.000000 0.000000 0.000000 0.038019 0.000000 0.000000
# 5 0.000000 0.000000 0.000000 0.000000 0.036029 0.000000
# 6 0.000000 0.000000 0.000000 0.000000 0.000000 0.042154
#
#
# Mechanical properties :
#
#
# Convention : Reuss Voigt Hill
#
# Bulk Modulus (GPa) = 63.07491 70.33798 66.70645
# Shear Modulus (GPa) = 22.90009 24.38216 23.64113
#
# Velocity S-wave (km/s) = 3.60224 3.71698 3.66006
# Velocity P-wave (km/s) = 7.28302 7.63398 7.46056
#
# Compressibility (1/GPa) = 0.01585416
#
# Stress axis : x y z
#
# Youngs Moduli (GPa) = 43.32648 51.45692 72.25789
#
# Poissons Ratio (x) = 0.37780 0.70309
# Poissons Ratio (y) = 0.31811 0.22959
# Poissons Ratio (z) = 0.42158 0.16350
#
# Static dielectric constant tensor:
#      x y z
#    x 2.967830 0.000000 0.000000 
#    y 0.000000 3.415340 0.000000 
#    z 0.000000 0.000000 3.547540 
# 
# 
# High freq. dielectric constant tensor:
#      x y z
#    x 1.647090 0.000000 0.000000 
#    y 0.000000 1.697440 0.000000 
#    z 0.000000 0.000000 1.699260 
# 
# From -- ./inp_files/51871.got.cif
#   From: 2010.03.12/outbox.cif.g09.slc.cpg/sg74_26_cif.got.tgz:51871.got - 2010.04.16 15:46:19.
