data_PCOD8298384
_publ_section_title
;
Structure prediction by ZEFSAII (Michael W. Deem and Ramdas Pophale) SiO2 
 PCOD8298384
Probable space group: I M M A
;
_chemical_formula_sum "Si O2"
_cell_formula_units_Z 72
_cell_length_a 10.042913
_cell_length_b 11.161159
_cell_length_c 37.644868
_cell_angle_alpha 90.000000
_cell_angle_beta 90.000000
_cell_angle_gamma 90.000000
_cell_volume 4219.633914
_symmetry_space_group_name_H-M "I M M A"
_symmetry_group_IT_number 74
_symmetry_cell_setting 'orthorhombic'
loop_
_space_group_symop_operation_xyz
x,y,z
-x,1/2-y,z
x,-y,-z
-x,1/2+y,-z
-x,-y,-z
x,1/2+y,-z
-x,y,z
x,1/2-y,z
1/2+x,1/2+y,1/2+z
1/2-x,-y,1/2+z
1/2+x,1/2-y,1/2-z
1/2-x,y,1/2-z
1/2-x,1/2-y,1/2-z
1/2+x,y,1/2-z
1/2-x,1/2+y,1/2+z
1/2+x,-y,1/2+z
loop_
_atom_site_type_symbol
_atom_site_label
_atom_site_fract_x
_atom_site_fract_y
_atom_site_fract_z
Si Si1 0.650263 0.388420 0.897348
Si Si2 0.348623 0.041146 0.661089
Si Si3 0.154233 0.250000 0.784002
Si Si4 0.645187 0.610122 0.723077
Si Si5 0.657751 0.384575 0.978510
O O1 0.500000 0.437642 0.892236
O O2 0.656007 0.250000 0.886672
O O3 0.750907 0.459782 0.872344
O O4 0.697707 0.406249 0.937734
O O5 0.500000 0.057958 0.647068
O O6 0.313057 0.137154 0.691245
O O7 0.325222 0.915689 0.681564
O O8 0.250000 0.250000 0.750000
O O9 0.000000 0.250000 0.771580
O O10 0.500000 0.555317 0.732594
O O11 0.645054 0.750000 0.729001
O O12 0.750000 0.549080 0.750000
O O13 0.500000 0.382634 0.982727
O O14 0.709945 0.250000 0.990550
O O15 0.717305 0.500000 0.000000
#
# Coordination Sequence:
#
# PCOD8298384 Si02
#       5
#    16  16   8  16  16
#     4   9  17  29  46  69  94 121 152 185 224 274
#     4  10  19  31  46  65  91 120 151 186 226 275
#     4  10  20  30  42  64  90 116 148 186 230 270
#     4   9  18  32  48  64  84 115 154 192 231 273
#     4   8  14  26  45  68  93 120 151 188 231 277
#
# _framework density 17.063091
#
# number of rings (size 3 to 8) (size 9 to 14) (size 15 to 20)
#    0.000    2.889    1.111    2.000    0.000    1.778 
#    0.000    1.111    0.000    2.000    0.000    0.000 
#    0.000    0.000    0.000    0.000    0.000    0.000 
#
# Total GULP energy -445992.758004 kJ/mol
# GULP energy per Si atom -12388.687722 kJ/mol
# Density = 1.702425 g / cm^3
# Si number density = 17.063091 Si / 1000 Ang^3
#
#
#
# Elastic Constant Matrix: (Units=GPa)
#
#
# Indices 1 2 3 4 5 6 
#
# 1 77.2224 29.5222 60.8385 0.0000 0.0000 0.0000
# 2 29.5222 50.8454 38.9235 0.0000 0.0000 0.0000
# 3 60.8385 38.9235 101.5503 0.0000 0.0000 0.0000
# 4 0.0000 0.0000 0.0000 24.9186 0.0000 0.0000
# 5 0.0000 0.0000 0.0000 0.0000 25.1812 0.0000
# 6 0.0000 0.0000 0.0000 0.0000 0.0000 12.8386
#
#
#
# Elastic Compliance Matrix: (Units=1/GPa)
#
#
# Indices 1 2 3 4 5 6 
#
# 1 0.025187 -0.004349 -0.013422 0.000000 0.000000 0.000000
# 2 -0.004349 0.028586 -0.008351 0.000000 0.000000 0.000000
# 3 -0.013422 -0.008351 0.021090 0.000000 0.000000 0.000000
# 4 0.000000 0.000000 0.000000 0.040131 0.000000 0.000000
# 5 0.000000 0.000000 0.000000 0.000000 0.039712 0.000000
# 6 0.000000 0.000000 0.000000 0.000000 0.000000 0.077890
#
#
# Mechanical properties :
#
#
# Convention : Reuss Voigt Hill
#
# Bulk Modulus (GPa) = 44.21464 54.24293 49.22879
# Shear Modulus (GPa) = 17.10106 19.27660 18.18883
#
# Velocity S-wave (km/s) = 3.16923 3.36478 3.26847
# Velocity P-wave (km/s) = 6.27381 6.85232 6.56944
#
# Compressibility (1/GPa) = 0.02261694
#
# Stress axis : x y z
#
# Youngs Moduli (GPa) = 39.70315 34.98250 47.41656
#
# Poissons Ratio (x) = 0.15214 0.63645
# Poissons Ratio (y) = 0.17267 0.39599
# Poissons Ratio (z) = 0.53291 0.29215
#
# Static dielectric constant tensor:
#      x y z
#    x 3.230820 0.000000 0.000000 
#    y 0.000000 3.432210 0.000000 
#    z 0.000000 0.000000 3.142540 
# 
# 
# High freq. dielectric constant tensor:
#      x y z
#    x 1.636630 0.000000 0.000000 
#    y 0.000000 1.652790 0.000000 
#    z 0.000000 0.000000 1.646220 
# 
# From -- ./inp_files/65675.got.cif
#   From: 2010.03.12/outbox.cif.g09.slc.cpg/sg74_33_cif.got.tgz:65675.got - 2010.04.16 15:46:19.
