data_PCOD8298838
_publ_section_title
;
Structure prediction by ZEFSAII (Michael W. Deem and Ramdas Pophale) SiO2 
 PCOD8298838
Probable space group: I M M A
;
_chemical_formula_sum "Si O2"
_cell_formula_units_Z 96
_cell_length_a 17.220156
_cell_length_b 24.223646
_cell_length_c 13.230071
_cell_angle_alpha 90.000000
_cell_angle_beta 90.000000
_cell_angle_gamma 90.000000
_cell_volume 5518.725177
_symmetry_space_group_name_H-M "I M M A"
_symmetry_group_IT_number 74
_symmetry_cell_setting 'orthorhombic'
loop_
_space_group_symop_operation_xyz
x,y,z
-x,1/2-y,z
x,-y,-z
-x,1/2+y,-z
-x,-y,-z
x,1/2+y,-z
-x,y,z
x,1/2-y,z
1/2+x,1/2+y,1/2+z
1/2-x,-y,1/2+z
1/2+x,1/2-y,1/2-z
1/2-x,y,1/2-z
1/2-x,1/2-y,1/2-z
1/2+x,y,1/2-z
1/2-x,1/2+y,1/2+z
1/2+x,-y,1/2+z
loop_
_atom_site_type_symbol
_atom_site_label
_atom_site_fract_x
_atom_site_fract_y
_atom_site_fract_z
Si Si1 0.166682 0.913723 0.300157
Si Si2 0.592012 0.187136 0.687597
Si Si3 0.085724 0.685551 0.960829
Si Si4 0.408651 0.470239 0.207324
Si Si5 0.190070 0.112689 0.166526
Si Si6 0.308169 0.439868 0.022942
O O1 0.250000 0.925597 0.250000
O O2 0.133046 0.855937 0.261400
O O3 0.169112 0.907596 0.421321
O O4 0.111157 0.965443 0.274895
O O5 0.500000 0.181767 0.698204
O O6 0.617498 0.250000 0.715160
O O7 0.618086 0.172578 0.573105
O O8 0.080856 0.750000 0.944450
O O9 0.138257 0.662853 0.871064
O O10 0.000000 0.659367 0.950190
O O11 0.500000 0.460988 0.218150
O O12 0.363467 0.436523 0.292894
O O13 0.382140 0.447507 0.097484
O O14 0.250000 0.135091 0.250000
O O15 0.237715 0.092555 0.070961
O O16 0.274162 0.500000 0.000000
#
# Coordination Sequence:
#
# PCOD8298838 Si02
#       6
#    16  16  16  16  16  16
#     4  11  20  32  52  75 102 134 166 201 244 295
#     4   9  19  35  53  74 100 130 166 205 243 289
#     4   9  18  33  52  72  96 129 165 201 246 297
#     4  10  20  33  51  75 100 130 167 204 246 295
#     4  10  19  33  51  73  99 126 162 208 248 286
#     4   9  19  33  49  71 102 134 160 194 244 298
#
# _framework density 17.395323000000001
#
# number of rings (size 3 to 8) (size 9 to 14) (size 15 to 20)
#    0.000    2.333    0.000    5.500    0.000    4.333 
#    0.000    0.833    0.000    6.000    0.000    9.333 
#    0.000    0.000    0.000    0.000    0.000    0.000 
#
# Total GULP energy -595068.737024 kJ/mol
# GULP energy per Si atom -12397.265355 kJ/mol
# Density = 1.735573 g / cm^3
# Si number density = 17.395323 Si / 1000 Ang^3
#
#
#
# Elastic Constant Matrix: (Units=GPa)
#
#
# Indices 1 2 3 4 5 6 
#
# 1 89.8268 44.8931 49.5702 0.0000 0.0000 0.0000
# 2 44.8931 80.2203 67.1150 0.0000 0.0000 0.0000
# 3 49.5702 67.1150 110.5960 0.0000 0.0001 0.0000
# 4 0.0000 0.0000 0.0000 31.9499 0.0000 0.0000
# 5 0.0000 0.0000 0.0001 0.0000 13.5411 0.0000
# 6 0.0000 0.0000 0.0000 0.0000 0.0000 25.3567
#
#
#
# Elastic Compliance Matrix: (Units=1/GPa)
#
#
# Indices 1 2 3 4 5 6 
#
# 1 0.016115 -0.006044 -0.003555 0.000000 0.000000 0.000000
# 2 -0.006044 0.027589 -0.014033 0.000000 0.000000 0.000000
# 3 -0.003555 -0.014033 0.019151 0.000000 0.000000 0.000000
# 4 0.000000 0.000000 0.000000 0.031299 0.000000 0.000000
# 5 0.000000 0.000000 0.000000 0.000000 0.073849 0.000000
# 6 0.000000 0.000000 0.000000 0.000000 0.000000 0.039437
#
#
# Mechanical properties :
#
#
# Convention : Reuss Voigt Hill
#
# Bulk Modulus (GPa) = 64.14169 67.08887 65.61528
# Shear Modulus (GPa) = 19.23804 22.10719 20.67262
#
# Velocity S-wave (km/s) = 3.32916 3.56879 3.45106
# Velocity P-wave (km/s) = 7.19241 7.45873 7.32678
#
# Compressibility (1/GPa) = 0.01559049
#
# Stress axis : x y z
#
# Youngs Moduli (GPa) = 62.05383 36.24687 52.21571
#
# Poissons Ratio (x) = 0.21908 0.18563
# Poissons Ratio (y) = 0.37505 0.73275
# Poissons Ratio (z) = 0.22061 0.50866
#
# Static dielectric constant tensor:
#      x y z
#    x 3.231310 0.000000 0.000000 
#    y 0.000000 3.101640 0.000000 
#    z 0.000000 0.000000 3.438850 
# 
# 
# High freq. dielectric constant tensor:
#      x y z
#    x 1.671830 0.000000 0.000000 
#    y 0.000000 1.663490 0.000000 
#    z 0.000000 0.000000 1.677140 
# 
# From -- ./inp_files/22418.got.cif
#   From: 2010.03.12/outbox.cif.g09.slc.cpg/sg74_12_cif.got.tgz:22418.got - 2010.04.16 15:46:19.
