data_PCOD8298114
_publ_section_title
;
Structure prediction by ZEFSAII (Michael W. Deem and Ramdas Pophale) SiO2 
 PCOD8298114
Probable space group: I M M A
;
_chemical_formula_sum "Si O2"
_cell_formula_units_Z 104
_cell_length_a 23.892115
_cell_length_b 26.122398
_cell_length_c 8.074416
_cell_angle_alpha 90.000000
_cell_angle_beta 90.000000
_cell_angle_gamma 90.000000
_cell_volume 5039.399161
_symmetry_space_group_name_H-M "I M M A"
_symmetry_group_IT_number 74
_symmetry_cell_setting 'orthorhombic'
loop_
_space_group_symop_operation_xyz
x,y,z
-x,1/2-y,z
x,-y,-z
-x,1/2+y,-z
-x,-y,-z
x,1/2+y,-z
-x,y,z
x,1/2-y,z
1/2+x,1/2+y,1/2+z
1/2-x,-y,1/2+z
1/2+x,1/2-y,1/2-z
1/2-x,y,1/2-z
1/2-x,1/2-y,1/2-z
1/2+x,y,1/2-z
1/2-x,1/2+y,1/2+z
1/2+x,-y,1/2+z
loop_
_atom_site_type_symbol
_atom_site_label
_atom_site_fract_x
_atom_site_fract_y
_atom_site_fract_z
Si Si1 0.438720 0.250000 0.055701
Si Si2 0.745332 0.636424 0.063742
Si Si3 0.143055 0.840715 0.937704
Si Si4 0.934633 0.445388 0.425213
Si Si5 0.750000 0.435906 0.250000
Si Si6 0.130570 0.154682 0.454999
Si Si7 0.063131 0.750000 0.949125
Si Si8 0.633860 0.046760 0.384336
O O1 0.500000 0.250000 0.979528
O O2 0.410259 0.199279 0.987198
O O3 0.439734 0.250000 0.253069
O O4 0.750000 0.613454 0.250000
O O5 0.796727 0.674676 0.016554
O O6 0.739953 0.593982 0.920812
O O7 0.686490 0.665979 0.058880
O O8 0.145627 0.841353 0.739110
O O9 0.095998 0.801589 0.006019
O O10 0.135305 0.900379 0.991499
O O11 0.917787 0.500000 0.500000
O O12 0.898116 0.399362 0.504457
O O13 0.919901 0.447923 0.232470
O O14 0.000000 0.432903 0.448513
O O15 0.691799 0.466115 0.282970
O O16 0.000000 0.750000 0.023628
O O17 0.620224 0.000000 0.500000
#
# Coordination Sequence:
#
# PCOD8298114 Si02
#       8
#     8  16  16  16   8  16   8  16
#     4   9  18  31  59  92 112 153 211 251 314 380
#     4  11  20  36  64  89 123 167 201 252 315 374
#     4   9  19  37  58  89 128 153 206 258 307 379
#     4  10  21  36  57  83 119 164 207 254 309 376
#     4  10  20  44  56  93 128 157 216 252 314 376
#     4  10  18  37  58  84 124 158 199 264 312 375
#     4   9  18  35  65  94 118 167 215 257 316 378
#     4  10  21  38  60  87 126 162 203 265 321 373
#
# _framework density 20.63738
#
# number of rings (size 3 to 8) (size 9 to 14) (size 15 to 20)
#    0.000    2.154    4.615    0.462    0.000    7.692 
#    5.538    3.846    0.000    2.769    0.000    0.000 
#    0.000    0.000    0.000    0.000    0.000    0.000 
#
# Total GULP energy -644219.599950 kJ/mol
# GULP energy per Si atom -12388.838461 kJ/mol
# Density = 2.059041 g / cm^3
# Si number density = 20.637380 Si / 1000 Ang^3
#
#
#
# Elastic Constant Matrix: (Units=GPa)
#
#
# Indices 1 2 3 4 5 6 
#
# 1 157.7294 75.6450 20.6885 0.0000 0.0000 0.0000
# 2 75.6450 146.2137 21.0330 0.0000 0.0000 0.0000
# 3 20.6885 21.0330 58.0753 0.0000 0.0000 0.0000
# 4 0.0000 0.0000 0.0000 14.8987 0.0000 0.0000
# 5 0.0000 0.0000 0.0000 0.0000 14.8431 0.0000
# 6 0.0000 0.0000 0.0000 0.0000 0.0000 26.6467
#
#
#
# Elastic Compliance Matrix: (Units=1/GPa)
#
#
# Indices 1 2 3 4 5 6 
#
# 1 0.008558 -0.004208 -0.001525 0.000000 0.000000 0.000000
# 2 -0.004208 0.009285 -0.001863 0.000000 0.000000 0.000000
# 3 -0.001525 -0.001863 0.018437 0.000000 0.000000 0.000000
# 4 0.000000 0.000000 0.000000 0.067120 0.000000 0.000000
# 5 0.000000 0.000000 0.000000 0.000000 0.067371 0.000000
# 6 0.000000 0.000000 0.000000 0.000000 0.000000 0.037528
#
#
# Mechanical properties :
#
#
# Convention : Reuss Voigt Hill
#
# Bulk Modulus (GPa) = 47.42245 66.30571 56.86408
# Shear Modulus (GPa) = 21.68999 27.58782 24.63891
#
# Velocity S-wave (km/s) = 3.24544 3.66018 3.45903
# Velocity P-wave (km/s) = 6.08873 7.07540 6.60052
#
# Compressibility (1/GPa) = 0.02108706
#
# Stress axis : x y z
#
# Youngs Moduli (GPa) = 116.84669 107.70533 54.23872
#
# Poissons Ratio (x) = 0.45326 0.08269
# Poissons Ratio (y) = 0.49173 0.10107
# Poissons Ratio (z) = 0.17815 0.20070
#
# Static dielectric constant tensor:
#      x y z
#    x 4.278980 0.000000 0.000000 
#    y 0.000000 3.747310 0.000000 
#    z 0.000000 0.000000 3.373040 
# 
# 
# High freq. dielectric constant tensor:
#      x y z
#    x 1.825030 0.000000 0.000000 
#    y 0.000000 1.789830 0.000000 
#    z 0.000000 0.000000 1.774140 
# 
# From -- ./inp_files/12812.got.cif
#   From: 2010.03.12/outbox.cif.g09.slc.cpg/sg74_7_cif.got.tgz:12812.got - 2010.04.16 15:46:19.
