data_PCOD8298392
_publ_section_title
;
Structure prediction by ZEFSAII (Michael W. Deem and Ramdas Pophale) SiO2 
 PCOD8298392
Probable space group: I M M A
;
_chemical_formula_sum "Si O2"
_cell_formula_units_Z 88
_cell_length_a 9.730928
_cell_length_b 17.731941
_cell_length_c 30.077835
_cell_angle_alpha 90.000000
_cell_angle_beta 90.000000
_cell_angle_gamma 90.000000
_cell_volume 5189.877527
_symmetry_space_group_name_H-M "I M M A"
_symmetry_group_IT_number 74
_symmetry_cell_setting 'orthorhombic'
loop_
_space_group_symop_operation_xyz
x,y,z
-x,1/2-y,z
x,-y,-z
-x,1/2+y,-z
-x,-y,-z
x,1/2+y,-z
-x,y,z
x,1/2-y,z
1/2+x,1/2+y,1/2+z
1/2-x,-y,1/2+z
1/2+x,1/2-y,1/2-z
1/2-x,y,1/2-z
1/2-x,1/2-y,1/2-z
1/2+x,y,1/2-z
1/2-x,1/2+y,1/2+z
1/2+x,-y,1/2+z
loop_
_atom_site_type_symbol
_atom_site_label
_atom_site_fract_x
_atom_site_fract_y
_atom_site_fract_z
Si Si1 0.160433 0.836232 0.396033
Si Si2 0.152597 0.836925 0.497660
Si Si3 0.345173 0.250000 0.291725
Si Si4 0.161626 0.531467 0.130627
Si Si5 0.655031 0.553195 0.542112
Si Si6 0.840720 0.085789 0.206025
O O1 0.189260 0.750000 0.381575
O O2 0.205375 0.848025 0.447250
O O3 0.252756 0.890892 0.365377
O O4 0.000000 0.855325 0.389688
O O5 0.149254 0.750000 0.510101
O O6 0.250857 0.874726 0.533732
O O7 0.000000 0.871708 0.502063
O O8 0.500000 0.250000 0.273760
O O9 0.250000 0.250000 0.250000
O O10 0.318804 0.330300 0.316800
O O11 0.206988 0.490366 0.085442
O O12 0.204642 0.477385 0.171024
O O13 0.000000 0.550483 0.130725
O O14 0.668108 0.500000 0.500000
O O15 0.500000 0.581899 0.549213
O O16 0.750000 0.075907 0.250000
O O17 0.000000 0.074862 0.219139
#
# Coordination Sequence:
#
# PCOD8298392 Si02
#       6
#    16  16   8  16  16  16
#     4   9  18  32  50  72  96 127 168 207 243 288
#     4   9  18  32  48  66  92 128 169 207 241 280
#     4   8  14  28  50  72  94 124 158 192 234 280
#     4  10  20  33  49  74 103 129 162 202 245 293
#     4  10  19  31  46  69 100 131 163 197 235 288
#     4   9  18  33  53  75  99 127 161 201 242 287
#
# _framework density 16.956083
#
# number of rings (size 3 to 8) (size 9 to 14) (size 15 to 20)
#    0.000    2.727    1.818    1.091    0.000    2.545 
#    1.636    1.818    0.000    0.545    0.000    0.000 
#    0.000    0.000    0.000    0.000    0.000    0.000 
#
# Total GULP energy -545311.532124 kJ/mol
# GULP energy per Si atom -12393.443912 kJ/mol
# Density = 1.691749 g / cm^3
# Si number density = 16.956083 Si / 1000 Ang^3
#
#
#
# Elastic Constant Matrix: (Units=GPa)
#
#
# Indices 1 2 3 4 5 6 
#
# 1 63.2709 62.0544 32.6891 0.0000 0.0000 0.0000
# 2 62.0544 127.0055 53.5860 0.0000 0.0000 0.0000
# 3 32.6891 53.5860 71.3169 0.0000 0.0000 0.0000
# 4 0.0000 0.0000 0.0000 28.3082 0.0000 0.0000
# 5 0.0000 0.0000 0.0000 0.0000 22.5486 0.0000
# 6 0.0000 0.0000 0.0000 0.0000 0.0000 35.0856
#
#
#
# Elastic Compliance Matrix: (Units=1/GPa)
#
#
# Indices 1 2 3 4 5 6 
#
# 1 0.031170 -0.013473 -0.004164 0.000000 0.000000 0.000000
# 2 -0.013473 0.017352 -0.006862 0.000000 0.000000 0.000000
# 3 -0.004164 -0.006862 0.021087 0.000000 0.000000 0.000000
# 4 0.000000 0.000000 0.000000 0.035325 0.000000 0.000000
# 5 0.000000 0.000000 0.000000 0.000000 0.044349 0.000000
# 6 0.000000 0.000000 0.000000 0.000000 0.000000 0.028502
#
#
# Mechanical properties :
#
#
# Convention : Reuss Voigt Hill
#
# Bulk Modulus (GPa) = 48.51941 62.02802 55.27372
# Shear Modulus (GPa) = 21.39928 24.73940 23.06934
#
# Velocity S-wave (km/s) = 3.55638 3.82387 3.69254
# Velocity P-wave (km/s) = 6.74838 7.49379 7.13083
#
# Compressibility (1/GPa) = 0.02061031
#
# Stress axis : x y z
#
# Youngs Moduli (GPa) = 32.08210 57.63134 47.42296
#
# Poissons Ratio (x) = 0.77644 0.19748
# Poissons Ratio (y) = 0.43223 0.32543
# Poissons Ratio (z) = 0.13360 0.39548
#
# Static dielectric constant tensor:
#      x y z
#    x 3.162190 0.000000 0.000000 
#    y 0.000000 3.349440 0.000000 
#    z 0.000000 0.000000 2.954780 
# 
# 
# High freq. dielectric constant tensor:
#      x y z
#    x 1.656510 0.000000 0.000000 
#    y 0.000000 1.661470 0.000000 
#    z 0.000000 0.000000 1.614560 
# 
# From -- ./inp_files/57018.got.cif
#   From: 2010.03.12/outbox.cif.g09.slc.cpg/sg74_29_cif.got.tgz:57018.got - 2010.04.16 15:46:19.
