data_PCOD8298236
_publ_section_title
;
Structure prediction by ZEFSAII (Michael W. Deem and Ramdas Pophale) SiO2 
 PCOD8298236
Probable space group: I M M A
;
_chemical_formula_sum "Si O2"
_cell_formula_units_Z 88
_cell_length_a 18.590743
_cell_length_b 13.593213
_cell_length_c 20.454096
_cell_angle_alpha 90.000000
_cell_angle_beta 90.000000
_cell_angle_gamma 90.000000
_cell_volume 5168.912248
_symmetry_space_group_name_H-M "I M M A"
_symmetry_group_IT_number 74
_symmetry_cell_setting 'orthorhombic'
loop_
_space_group_symop_operation_xyz
x,y,z
-x,1/2-y,z
x,-y,-z
-x,1/2+y,-z
-x,-y,-z
x,1/2+y,-z
-x,y,z
x,1/2-y,z
1/2+x,1/2+y,1/2+z
1/2-x,-y,1/2+z
1/2+x,1/2-y,1/2-z
1/2-x,y,1/2-z
1/2-x,1/2-y,1/2-z
1/2+x,y,1/2-z
1/2-x,1/2+y,1/2+z
1/2+x,-y,1/2+z
loop_
_atom_site_type_symbol
_atom_site_label
_atom_site_fract_x
_atom_site_fract_y
_atom_site_fract_z
Si Si1 0.309302 0.500000 0.500000
Si Si2 0.762678 0.359611 0.597938
Si Si3 0.083470 0.862919 0.757063
Si Si4 0.115682 0.356732 0.827734
Si Si5 0.325571 0.467799 0.786809
Si Si6 0.421116 0.953211 0.606053
O O1 0.258046 0.581413 0.467512
O O2 0.360354 0.441950 0.449005
O O3 0.792744 0.250000 0.580202
O O4 0.694615 0.346039 0.643553
O O5 0.819101 0.424072 0.640102
O O6 0.101216 0.750000 0.742700
O O7 0.102508 0.886352 0.832780
O O8 0.000000 0.887294 0.743836
O O9 0.133572 0.927350 0.709223
O O10 0.077088 0.250000 0.828424
O O11 0.123323 0.393509 0.753383
O O12 0.070936 0.433485 0.870916
O O13 0.250000 0.483890 0.750000
O O14 0.500000 0.921002 0.579117
#
# Coordination Sequence:
#
# PCOD8298236 Si02
#       6
#     8  16  16  16  16  16
#     4  10  19  30  42  62  93 130 170 198 224 264
#     4   9  17  29  44  62  87 118 151 191 234 271
#     4   9  18  32  48  68  96 126 154 189 237 288
#     4   8  14  25  42  63  85 111 148 194 239 278
#     4   9  16  28  47  70  91 116 152 194 241 285
#     4   9  17  28  42  61  90 129 167 197 223 261
#
# _framework density 17.024857999999998
#
# number of rings (size 3 to 8) (size 9 to 14) (size 15 to 20)
#    0.000    3.091    0.000    1.909    0.000    3.636 
#    0.000    0.909    0.000    4.909    0.000    0.636 
#    0.000    0.000    0.000    0.000    0.000    0.000 
#
# Total GULP energy -545299.485814 kJ/mol
# GULP energy per Si atom -12393.170132 kJ/mol
# Density = 1.698611 g / cm^3
# Si number density = 17.024858 Si / 1000 Ang^3
#
#
#
# Elastic Constant Matrix: (Units=GPa)
#
#
# Indices 1 2 3 4 5 6 
#
# 1 40.4907 34.9801 36.0455 0.0000 0.0000 0.0000
# 2 34.9801 127.4414 51.3120 0.0000 0.0000 0.0000
# 3 36.0455 51.3120 87.0318 0.0000 0.0000 0.0000
# 4 0.0000 0.0000 0.0000 20.4830 0.0000 0.0000
# 5 0.0000 0.0000 0.0000 0.0000 15.9157 0.0000
# 6 0.0000 0.0000 0.0000 0.0000 0.0000 19.6705
#
#
#
# Elastic Compliance Matrix: (Units=1/GPa)
#
#
# Indices 1 2 3 4 5 6 
#
# 1 0.042332 -0.005980 -0.014007 0.000000 0.000000 0.000000
# 2 -0.005980 0.011134 -0.004088 0.000000 0.000000 0.000000
# 3 -0.014007 -0.004088 0.019701 0.000000 0.000000 0.000000
# 4 0.000000 0.000000 0.000000 0.048821 0.000000 0.000000
# 5 0.000000 0.000000 0.000000 0.000000 0.062831 0.000000
# 6 0.000000 0.000000 0.000000 0.000000 0.000000 0.050837
#
#
# Mechanical properties :
#
#
# Convention : Reuss Voigt Hill
#
# Bulk Modulus (GPa) = 39.97037 55.51544 47.74290
# Shear Modulus (GPa) = 17.11480 20.05562 18.58521
#
# Velocity S-wave (km/s) = 3.17406 3.43595 3.30760
# Velocity P-wave (km/s) = 6.07960 6.95847 6.53383
#
# Compressibility (1/GPa) = 0.02501853
#
# Stress axis : x y z
#
# Youngs Moduli (GPa) = 23.62275 89.81597 50.75809
#
# Poissons Ratio (x) = 0.53707 0.71097
# Poissons Ratio (y) = 0.14126 0.20749
# Poissons Ratio (z) = 0.33088 0.36714
#
# Static dielectric constant tensor:
#      x y z
#    x 2.994130 0.000000 0.000000 
#    y 0.000000 3.417310 0.000000 
#    z 0.000000 0.000000 2.964600 
# 
# 
# High freq. dielectric constant tensor:
#      x y z
#    x 1.628070 0.000000 0.000000 
#    y 0.000000 1.662170 0.000000 
#    z 0.000000 0.000000 1.624060 
# 
# From -- ./inp_files/52862.got.cif
#   From: 2010.03.12/outbox.cif.g09.slc.cpg/sg74_27_cif.got.tgz:52862.got - 2010.04.16 15:46:19.
