data_PCOD8298491
_publ_section_title
;
Structure prediction by ZEFSAII (Michael W. Deem and Ramdas Pophale) SiO2 
 PCOD8298491
Probable space group: I M M A
;
_chemical_formula_sum "Si O2"
_cell_formula_units_Z 104
_cell_length_a 9.270446
_cell_length_b 25.659321
_cell_length_c 23.964998
_cell_angle_alpha 90.000000
_cell_angle_beta 90.000000
_cell_angle_gamma 90.000000
_cell_volume 5700.634350
_symmetry_space_group_name_H-M "I M M A"
_symmetry_group_IT_number 74
_symmetry_cell_setting 'orthorhombic'
loop_
_space_group_symop_operation_xyz
x,y,z
-x,1/2-y,z
x,-y,-z
-x,1/2+y,-z
-x,-y,-z
x,1/2+y,-z
-x,y,z
x,1/2-y,z
1/2+x,1/2+y,1/2+z
1/2-x,-y,1/2+z
1/2+x,1/2-y,1/2-z
1/2-x,y,1/2-z
1/2-x,1/2-y,1/2-z
1/2+x,y,1/2-z
1/2-x,1/2+y,1/2+z
1/2+x,-y,1/2+z
loop_
_atom_site_type_symbol
_atom_site_label
_atom_site_fract_x
_atom_site_fract_y
_atom_site_fract_z
Si Si1 0.668655 0.051685 0.193830
Si Si2 0.669846 0.308598 0.999265
Si Si3 0.668528 0.162610 0.876620
Si Si4 0.656874 0.309567 0.298591
Si Si5 0.673668 0.250000 0.690791
Si Si6 0.665742 0.434272 0.804312
Si Si7 0.668895 0.357466 0.112079
O O1 0.500000 0.056693 0.205934
O O2 0.750000 0.069551 0.250000
O O3 0.712508 0.087020 0.140001
O O4 0.713471 0.992556 0.178140
O O5 0.500000 0.302828 0.000162
O O6 0.736025 0.250000 0.007095
O O7 0.716862 0.349750 0.047597
O O8 0.719098 0.333291 0.940706
O O9 0.500000 0.178978 0.869215
O O10 0.772909 0.199157 0.841414
O O11 0.694825 0.103483 0.856626
O O12 0.500000 0.337093 0.302647
O O13 0.633173 0.250000 0.282682
O O14 0.750000 0.337693 0.250000
O O15 0.743746 0.312805 0.355974
O O16 0.500000 0.250000 0.696462
O O17 0.750000 0.250000 0.750000
O O18 0.500000 0.433319 0.786693
O O19 0.750000 0.414144 0.750000
O O20 0.500000 0.346859 0.119363
#
# Coordination Sequence:
#
# PCOD8298491 Si02
#       7
#    16  16  16  16   8  16  16
#     4   9  18  32  49  74 104 132 169 215 263 309
#     4   9  17  31  52  74  99 136 177 212 253 305
#     4  10  19  35  56  77 104 139 176 211 253 308
#     4  10  20  32  46  67  96 127 162 212 267 316
#     4  12  24  36  54  82 112 138 167 210 261 310
#     4   9  18  32  52  76 103 134 167 209 259 309
#     4  10  19  31  50  73  98 133 175 213 252 307
#
# _framework density 18.243583000000001
#
# number of rings (size 3 to 8) (size 9 to 14) (size 15 to 20)
#    0.000    2.308    0.769    2.538    0.000    5.231 
#    0.000    1.538    0.000    4.615    0.000    0.000 
#    0.000    7.385    0.000    0.000    0.000    0.000 
#
# Total GULP energy -644460.578518 kJ/mol
# GULP energy per Si atom -12393.472664 kJ/mol
# Density = 1.820206 g / cm^3
# Si number density = 18.243583 Si / 1000 Ang^3
#
#
#
# Elastic Constant Matrix: (Units=GPa)
#
#
# Indices 1 2 3 4 5 6 
#
# 1 70.0692 32.3133 50.1501 0.0000 0.0000 0.0000
# 2 32.3133 108.5070 71.9171 0.0000 0.0000 0.0000
# 3 50.1501 71.9171 173.1638 0.0000 0.0000 0.0000
# 4 0.0000 0.0000 0.0000 30.6169 0.0000 0.0000
# 5 0.0000 0.0000 0.0000 0.0000 22.9655 0.0000
# 6 0.0000 0.0000 0.0000 0.0000 0.0000 19.4657
#
#
#
# Elastic Compliance Matrix: (Units=1/GPa)
#
#
# Indices 1 2 3 4 5 6 
#
# 1 0.018564 -0.002711 -0.004250 0.000000 0.000000 0.000000
# 2 -0.002711 0.013112 -0.004660 0.000000 0.000000 0.000000
# 3 -0.004250 -0.004660 0.008941 0.000000 0.000000 0.000000
# 4 0.000000 0.000000 0.000000 0.032662 0.000000 0.000000
# 5 0.000000 0.000000 0.000000 0.000000 0.043544 0.000000
# 6 0.000000 0.000000 0.000000 0.000000 0.000000 0.051372
#
#
# Mechanical properties :
#
#
# Convention : Reuss Voigt Hill
#
# Bulk Modulus (GPa) = 57.55888 73.38900 65.47394
# Shear Modulus (GPa) = 25.35102 27.76692 26.55897
#
# Velocity S-wave (km/s) = 3.73176 3.90553 3.81963
# Velocity P-wave (km/s) = 7.08426 7.78795 7.44442
#
# Compressibility (1/GPa) = 0.01737352
#
# Stress axis : x y z
#
# Youngs Moduli (GPa) = 53.86775 76.26408 111.83964
#
# Poissons Ratio (x) = 0.20677 0.47535
# Poissons Ratio (y) = 0.14605 0.52123
# Poissons Ratio (z) = 0.22895 0.35543
#
# Static dielectric constant tensor:
#      x y z
#    x 3.351660 0.000000 0.000000 
#    y 0.000000 3.487200 0.000000 
#    z 0.000000 0.000000 3.613470 
# 
# 
# High freq. dielectric constant tensor:
#      x y z
#    x 1.690430 0.000000 0.000000 
#    y 0.000000 1.705720 0.000000 
#    z 0.000000 0.000000 1.699970 
# 
# From -- ./inp_files/57589.got.cif
#   From: 2010.03.12/outbox.cif.g09.slc.cpg/sg74_29_cif.got.tgz:57589.got - 2010.04.16 15:46:19.
