data_PCOD8298996
_publ_section_title
;
Structure prediction by ZEFSAII (Michael W. Deem and Ramdas Pophale) SiO2 
 PCOD8298996
Probable space group: I M M A
;
_chemical_formula_sum "Si O2"
_cell_formula_units_Z 80
_cell_length_a 24.882213
_cell_length_b 17.739552
_cell_length_c 9.442155
_cell_angle_alpha 90.000000
_cell_angle_beta 90.000000
_cell_angle_gamma 90.000000
_cell_volume 4167.760715
_symmetry_space_group_name_H-M "I M M A"
_symmetry_group_IT_number 74
_symmetry_cell_setting 'orthorhombic'
loop_
_space_group_symop_operation_xyz
x,y,z
-x,1/2-y,z
x,-y,-z
-x,1/2+y,-z
-x,-y,-z
x,1/2+y,-z
-x,y,z
x,1/2-y,z
1/2+x,1/2+y,1/2+z
1/2-x,-y,1/2+z
1/2+x,1/2-y,1/2-z
1/2-x,y,1/2-z
1/2-x,1/2-y,1/2-z
1/2+x,y,1/2-z
1/2-x,1/2+y,1/2+z
1/2+x,-y,1/2+z
loop_
_atom_site_type_symbol
_atom_site_label
_atom_site_fract_x
_atom_site_fract_y
_atom_site_fract_z
Si Si1 0.938541 0.602864 0.097778
Si Si2 0.092991 0.552306 0.800334
Si Si3 0.635252 0.165385 0.816873
Si Si4 0.940619 0.665376 0.571614
Si Si5 0.303864 0.983620 0.166650
O O1 0.939478 0.525892 0.189372
O O2 0.905947 0.665612 0.184656
O O3 0.000000 0.628084 0.067581
O O4 0.904544 0.590448 0.954597
O O5 0.060569 0.608612 0.701493
O O6 0.151800 0.538210 0.735718
O O7 0.659278 0.250000 0.829215
O O8 0.682554 0.104334 0.803249
O O9 0.602368 0.141183 0.955466
O O10 0.928530 0.750000 0.626568
O O11 0.000000 0.661522 0.502823
O O12 0.250000 0.003336 0.250000
O O13 0.297200 0.000000 0.000000
#
# Coordination Sequence:
#
# PCOD8298996 Si02
#       5
#    16  16  16  16  16
#     4  10  20  33  56  86 122 161 194 234 280 341
#     4  10  20  37  56  85 118 152 197 246 287 344
#     4  10  22  39  58  87 124 154 192 241 288 349
#     4  10  19  33  56  84 119 158 189 227 283 349
#     4  11  24  41  66  88 110 149 199 254 307 350
#
# _framework density 19.194959000000001
#
# number of rings (size 3 to 8) (size 9 to 14) (size 15 to 20)
#    0.000    1.800    2.000    3.000    5.600    2.400 
#    0.000    3.000    0.000    1.200    0.000    0.000 
#    0.000    0.000    0.000    0.000    0.000    0.000 
#
# Total GULP energy -495948.495662 kJ/mol
# GULP energy per Si atom -12398.712392 kJ/mol
# Density = 1.915127 g / cm^3
# Si number density = 19.194959 Si / 1000 Ang^3
#
#
#
# Elastic Constant Matrix: (Units=GPa)
#
#
# Indices 1 2 3 4 5 6 
#
# 1 97.3691 13.8213 37.2815 0.0000 0.0000 0.0000
# 2 13.8213 55.5910 25.0938 0.0000 0.0000 0.0000
# 3 37.2815 25.0938 103.6653 0.0000 0.0000 0.0000
# 4 0.0000 0.0000 0.0000 25.9110 0.0000 0.0000
# 5 0.0000 0.0000 0.0000 0.0000 31.6884 0.0000
# 6 0.0000 0.0000 0.0000 0.0000 0.0000 19.3579
#
#
#
# Elastic Compliance Matrix: (Units=1/GPa)
#
#
# Indices 1 2 3 4 5 6 
#
# 1 0.011977 -0.001160 -0.004026 0.000000 0.000000 0.000000
# 2 -0.001160 0.020308 -0.004499 0.000000 0.000000 0.000000
# 3 -0.004026 -0.004499 0.012183 0.000000 0.000000 0.000000
# 4 0.000000 0.000000 0.000000 0.038594 0.000000 0.000000
# 5 0.000000 0.000000 0.000000 0.000000 0.031557 0.000000
# 6 0.000000 0.000000 0.000000 0.000000 0.000000 0.051659
#
#
# Mechanical properties :
#
#
# Convention : Reuss Voigt Hill
#
# Bulk Modulus (GPa) = 39.84473 45.44651 42.64562
# Shear Modulus (GPa) = 25.77148 27.42003 26.59576
#
# Velocity S-wave (km/s) = 3.66815 3.78365 3.72635
# Velocity P-wave (km/s) = 6.22442 6.54337 6.38589
#
# Compressibility (1/GPa) = 0.02509742
#
# Stress axis : x y z
#
# Youngs Moduli (GPa) = 83.49676 49.24267 82.07913
#
# Poissons Ratio (x) = 0.05713 0.33048
# Poissons Ratio (y) = 0.09687 0.36923
# Poissons Ratio (z) = 0.33618 0.22152
#
# Static dielectric constant tensor:
#      x y z
#    x 3.312600 0.000000 0.000000 
#    y 0.000000 3.435370 0.000000 
#    z 0.000000 0.000000 3.566230 
# 
# 
# High freq. dielectric constant tensor:
#      x y z
#    x 1.729640 0.000000 0.000000 
#    y 0.000000 1.742270 0.000000 
#    z 0.000000 0.000000 1.754010 
# 
# From -- ./inp_files/10921.got.cif
#   From: 2010.03.12/outbox.cif.g09.slc.cpg/sg74_6_cif.got.tgz:10921.got - 2010.04.16 15:46:19.
