data_PCOD8298872
_publ_section_title
;
Structure prediction by ZEFSAII (Michael W. Deem and Ramdas Pophale) SiO2 
 PCOD8298872
Probable space group: I M M A
;
_chemical_formula_sum "Si O2"
_cell_formula_units_Z 96
_cell_length_a 18.478403
_cell_length_b 15.413589
_cell_length_c 18.565843
_cell_angle_alpha 90.000000
_cell_angle_beta 90.000000
_cell_angle_gamma 90.000000
_cell_volume 5287.895726
_symmetry_space_group_name_H-M "I M M A"
_symmetry_group_IT_number 74
_symmetry_cell_setting 'orthorhombic'
loop_
_space_group_symop_operation_xyz
x,y,z
-x,1/2-y,z
x,-y,-z
-x,1/2+y,-z
-x,-y,-z
x,1/2+y,-z
-x,y,z
x,1/2-y,z
1/2+x,1/2+y,1/2+z
1/2-x,-y,1/2+z
1/2+x,1/2-y,1/2-z
1/2-x,y,1/2-z
1/2-x,1/2-y,1/2-z
1/2+x,y,1/2-z
1/2-x,1/2+y,1/2+z
1/2+x,-y,1/2+z
loop_
_atom_site_type_symbol
_atom_site_label
_atom_site_fract_x
_atom_site_fract_y
_atom_site_fract_z
Si Si1 0.336285 0.010769 0.831276
Si Si2 0.833062 0.991798 0.166226
Si Si3 0.415220 0.849525 0.074036
Si Si4 0.660813 0.349177 0.073616
Si Si5 0.674159 0.655514 0.575936
Si Si6 0.918384 0.911448 0.044143
O O1 0.251463 0.028909 0.840998
O O2 0.359321 0.010720 0.748108
O O3 0.358740 0.916849 0.863174
O O4 0.378079 0.089060 0.868133
O O5 0.851056 0.087328 0.135838
O O6 0.878377 0.921399 0.120824
O O7 0.500000 0.866218 0.076309
O O8 0.395682 0.750000 0.092817
O O9 0.387949 0.873290 0.994507
O O10 0.646305 0.250000 0.099866
O O11 0.743958 0.362796 0.050344
O O12 0.668264 0.750000 0.612561
O O13 0.624769 0.656830 0.504560
O O14 0.000000 0.878821 0.057909
O O15 0.917152 0.000000 0.000000
#
# Coordination Sequence:
#
# PCOD8298872 Si02
#       6
#    16  16  16  16  16  16
#     4  10  19  33  53  75 103 137 168 201 250 305
#     4   9  19  33  49  74 104 132 165 204 247 300
#     4  10  21  36  53  74 100 131 171 215 252 291
#     4   9  18  32  52  78 104 131 166 207 248 296
#     4   9  17  31  52  75 100 131 165 203 248 297
#     4   9  17  30  47  66  92 127 165 204 243 284
#
# _framework density 18.154669999999999
#
# number of rings (size 3 to 8) (size 9 to 14) (size 15 to 20)
#    0.000    2.667    0.000    1.500    0.000    5.667 
#    0.000    5.833    0.000    0.000    0.000    4.667 
#    0.000    0.000    0.000    0.000    0.000    0.000 
#
# Total GULP energy -595152.661479 kJ/mol
# GULP energy per Si atom -12399.013781 kJ/mol
# Density = 1.811335 g / cm^3
# Si number density = 18.154670 Si / 1000 Ang^3
#
#
#
# Elastic Constant Matrix: (Units=GPa)
#
#
# Indices 1 2 3 4 5 6 
#
# 1 72.4089 35.4394 55.8348 0.0000 0.0000 0.0000
# 2 35.4394 68.1779 49.2395 0.0000 0.0000 0.0000
# 3 55.8348 49.2395 138.8230 0.0000 0.0000 0.0000
# 4 0.0000 0.0000 0.0000 21.8659 0.0000 0.0000
# 5 0.0000 0.0000 0.0000 0.0000 11.2120 0.0000
# 6 0.0000 0.0000 0.0000 0.0000 0.0000 22.7260
#
#
#
# Elastic Compliance Matrix: (Units=1/GPa)
#
#
# Indices 1 2 3 4 5 6 
#
# 1 0.022157 -0.006831 -0.006489 0.000000 0.000000 0.000000
# 2 -0.006831 0.021825 -0.004994 0.000000 0.000000 0.000000
# 3 -0.006489 -0.004994 0.011584 0.000000 0.000000 0.000000
# 4 0.000000 0.000000 0.000000 0.045733 0.000000 0.000000
# 5 0.000000 0.000000 0.000000 0.000000 0.089190 0.000000
# 6 0.000000 0.000000 0.000000 0.000000 0.000000 0.044003
#
#
# Mechanical properties :
#
#
# Convention : Reuss Voigt Hill
#
# Bulk Modulus (GPa) = 52.79966 62.27078 57.53522
# Shear Modulus (GPa) = 18.02238 20.42053 19.22145
#
# Velocity S-wave (km/s) = 3.15415 3.35745 3.25739
# Velocity P-wave (km/s) = 6.51239 7.02884 6.77554
#
# Compressibility (1/GPa) = 0.01893952
#
# Stress axis : x y z
#
# Youngs Moduli (GPa) = 45.13161 45.81914 86.32315
#
# Poissons Ratio (x) = 0.31300 0.56013
# Poissons Ratio (y) = 0.30831 0.43106
# Poissons Ratio (z) = 0.29285 0.22880
#
# Static dielectric constant tensor:
#      x y z
#    x 3.401140 0.000000 0.000000 
#    y 0.000000 3.380590 0.000000 
#    z 0.000000 0.000000 3.273560 
# 
# 
# High freq. dielectric constant tensor:
#      x y z
#    x 1.701140 0.000000 0.000000 
#    y 0.000000 1.700090 0.000000 
#    z 0.000000 0.000000 1.691160 
# 
# From -- ./inp_files/44136.got.cif
#   From: 2010.03.12/outbox.cif.g09.slc.cpg/sg74_23_cif.got.tgz:44136.got - 2010.04.16 15:46:19.
