data_PCOD8298799
_publ_section_title
;
Structure prediction by ZEFSAII (Michael W. Deem and Ramdas Pophale) SiO2 
 PCOD8298799
Probable space group: I M M A
;
_chemical_formula_sum "Si O2"
_cell_formula_units_Z 64
_cell_length_a 10.387808
_cell_length_b 19.235022
_cell_length_c 17.521563
_cell_angle_alpha 90.000000
_cell_angle_beta 90.000000
_cell_angle_gamma 90.000000
_cell_volume 3500.978517
_symmetry_space_group_name_H-M "I M M A"
_symmetry_group_IT_number 74
_symmetry_cell_setting 'orthorhombic'
loop_
_space_group_symop_operation_xyz
x,y,z
-x,1/2-y,z
x,-y,-z
-x,1/2+y,-z
-x,-y,-z
x,1/2+y,-z
-x,y,z
x,1/2-y,z
1/2+x,1/2+y,1/2+z
1/2-x,-y,1/2+z
1/2+x,1/2-y,1/2-z
1/2-x,y,1/2-z
1/2-x,1/2-y,1/2-z
1/2+x,y,1/2-z
1/2-x,1/2+y,1/2+z
1/2+x,-y,1/2+z
loop_
_atom_site_type_symbol
_atom_site_label
_atom_site_fract_x
_atom_site_fract_y
_atom_site_fract_z
Si Si1 0.743693 0.448251 0.336356
Si Si2 0.252761 0.386826 0.663817
Si Si3 0.500000 0.433161 0.086056
Si Si4 0.000000 0.168468 0.922706
Si Si5 0.000000 0.400505 0.579142
Si Si6 0.000000 0.566973 0.942543
O O1 0.750000 0.420158 0.250000
O O2 0.740209 0.530811 0.336153
O O3 0.622056 0.426979 0.387095
O O4 0.869986 0.412907 0.371164
O O5 0.250000 0.357846 0.750000
O O6 0.374917 0.354711 0.623103
O O7 0.123143 0.365548 0.619392
O O8 0.500000 0.516261 0.080058
O O9 0.500000 0.385461 0.010584
O O10 0.000000 0.250000 0.934006
O O11 0.000000 0.135053 0.005936
O O12 0.000000 0.500000 0.000000
#
# Coordination Sequence:
#
# PCOD8298799 Si02
#       6
#    16  16   8   8   8   8
#     4  10  19  32  55  85 112 139 178 231 288 336
#     4  10  19  34  53  78 110 146 185 225 272 333
#     4   9  17  26  45  74 110 132 167 217 280 327
#     4  12  25  38  54  80 115 157 197 230 272 330
#     4   9  17  28  48  72  99 136 175 220 265 321
#     4  12  21  36  60  84 114 149 188 237 283 326
#
# _framework density 18.280602999999999
#
# number of rings (size 3 to 8) (size 9 to 14) (size 15 to 20)
#    0.000    1.750    2.500    3.000    3.500    4.500 
#    0.000    0.625    0.000    0.750    0.000    0.000 
#    0.000    0.000    0.000    0.000    0.000    0.000 
#
# Total GULP energy -396574.728277 kJ/mol
# GULP energy per Si atom -12392.960259 kJ/mol
# Density = 1.823900 g / cm^3
# Si number density = 18.280603 Si / 1000 Ang^3
#
#
#
# Elastic Constant Matrix: (Units=GPa)
#
#
# Indices 1 2 3 4 5 6 
#
# 1 209.1418 34.0233 115.0610 0.0000 0.0000 0.0000
# 2 34.0233 23.1596 40.3607 0.0000 0.0000 0.0000
# 3 115.0610 40.3607 198.2381 0.0000 0.0000 0.0000
# 4 0.0000 0.0000 0.0000 11.1196 0.0000 0.0000
# 5 0.0000 0.0000 0.0000 0.0000 58.4188 0.0000
# 6 0.0000 0.0000 0.0000 0.0000 0.0000 3.3771
#
#
#
# Elastic Compliance Matrix: (Units=1/GPa)
#
#
# Indices 1 2 3 4 5 6 
#
# 1 0.007416 -0.005260 -0.003234 0.000000 0.000000 0.000000
# 2 -0.005260 0.070654 -0.011332 0.000000 0.000000 0.000000
# 3 -0.003234 -0.011332 0.009228 0.000000 0.000000 0.000000
# 4 0.000000 0.000000 0.000000 0.089931 0.000000 0.000000
# 5 0.000000 0.000000 0.000000 0.000000 0.017118 0.000000
# 6 0.000000 0.000000 0.000000 0.000000 0.000000 0.296111
#
#
# Mechanical properties :
#
#
# Convention : Reuss Voigt Hill
#
# Bulk Modulus (GPa) = 20.98724 89.93661 55.46193
# Shear Modulus (GPa) = 9.15763 30.65607 19.90685
#
# Velocity S-wave (km/s) = 2.24062 4.09953 3.30352
# Velocity P-wave (km/s) = 4.26607 8.46834 6.70493
#
# Compressibility (1/GPa) = 0.04764800
#
# Stress axis : x y z
#
# Youngs Moduli (GPa) = 134.84278 14.15344 108.36008
#
# Poissons Ratio (x) = 0.07444 0.35039
# Poissons Ratio (y) = 0.70921 1.22797
# Poissons Ratio (z) = 0.43603 0.16039
#
# Static dielectric constant tensor:
#      x y z
#    x 3.664770 0.000000 0.000000 
#    y 0.000000 2.782550 0.000000 
#    z 0.000000 0.000000 3.872080 
# 
# 
# High freq. dielectric constant tensor:
#      x y z
#    x 1.733590 0.000000 0.000000 
#    y 0.000000 1.635600 0.000000 
#    z 0.000000 0.000000 1.731250 
# 
# From -- ./inp_files/30276.got.cif
#   From: 2010.03.12/outbox.cif.g09.slc.cpg/sg74_16_cif.got.tgz:30276.got - 2010.04.16 15:46:19.
