data_PCOD8298598
_publ_section_title
;
Structure prediction by ZEFSAII (Michael W. Deem and Ramdas Pophale) SiO2 
 PCOD8298598
Probable space group: I M M A
;
_chemical_formula_sum "Si O2"
_cell_formula_units_Z 96
_cell_length_a 22.719770
_cell_length_b 19.775733
_cell_length_c 14.609526
_cell_angle_alpha 90.000000
_cell_angle_beta 90.000000
_cell_angle_gamma 90.000000
_cell_volume 6564.061571
_symmetry_space_group_name_H-M "I M M A"
_symmetry_group_IT_number 74
_symmetry_cell_setting 'orthorhombic'
loop_
_space_group_symop_operation_xyz
x,y,z
-x,1/2-y,z
x,-y,-z
-x,1/2+y,-z
-x,-y,-z
x,1/2+y,-z
-x,y,z
x,1/2-y,z
1/2+x,1/2+y,1/2+z
1/2-x,-y,1/2+z
1/2+x,1/2-y,1/2-z
1/2-x,y,1/2-z
1/2-x,1/2-y,1/2-z
1/2+x,y,1/2-z
1/2-x,1/2+y,1/2+z
1/2+x,-y,1/2+z
loop_
_atom_site_type_symbol
_atom_site_label
_atom_site_fract_x
_atom_site_fract_y
_atom_site_fract_z
Si Si1 0.234912 0.873774 0.155654
Si Si2 0.640389 0.481796 0.712638
Si Si3 0.817461 0.983771 0.401717
Si Si4 0.066981 0.432281 0.943539
Si Si5 0.837668 0.825756 0.995724
Si Si6 0.221331 0.908190 0.843731
O O1 0.250000 0.833126 0.250000
O O2 0.196140 0.935518 0.192429
O O3 0.289675 0.908205 0.101931
O O4 0.201118 0.824124 0.087834
O O5 0.632078 0.487425 0.822853
O O6 0.583730 0.450535 0.661625
O O7 0.658608 0.555545 0.675556
O O8 0.847145 0.000000 0.500000
O O9 0.766884 0.040116 0.389568
O O10 0.000000 0.406919 0.945383
O O11 0.076872 0.500000 0.000000
O O12 0.106609 0.374281 0.988637
O O13 0.860503 0.750000 0.976431
O O14 0.795266 0.848156 0.912820
O O15 0.250000 0.878911 0.750000
#
# Coordination Sequence:
#
# PCOD8298598 Si02
#       6
#    16  16  16  16  16  16
#     4   8  15  25  38  59  85 114 142 167 202 249
#     4   8  15  25  42  64  81 104 144 181 209 244
#     4   9  13  22  44  65  83 110 141 173 199 248
#     4  10  19  32  49  61  78 112 149 185 215 248
#     4  11  20  28  42  63  90 116 139 177 212 249
#     4   9  16  26  40  60  90 117 138 167 202 254
#
# _framework density 14.625090999999999
#
# number of rings (size 3 to 8) (size 9 to 14) (size 15 to 20)
#    0.000    2.833    3.333    2.000    0.000    1.000 
#    0.000    0.000    0.000    0.500    0.000    0.000 
#    0.000    0.000    0.000    0.000    6.333    0.000 
#
# Total GULP energy -594628.048782 kJ/mol
# GULP energy per Si atom -12388.084350 kJ/mol
# Density = 1.459180 g / cm^3
# Si number density = 14.625091 Si / 1000 Ang^3
#
#
#
# Elastic Constant Matrix: (Units=GPa)
#
#
# Indices 1 2 3 4 5 6 
#
# 1 55.3945 28.7027 32.8842 0.0000 0.0000 0.0000
# 2 28.7027 62.4773 27.4718 0.0000 0.0000 0.0000
# 3 32.8842 27.4718 108.2761 0.0000 0.0000 0.0000
# 4 0.0000 0.0000 0.0000 11.5457 0.0000 0.0000
# 5 0.0000 0.0000 0.0000 0.0000 15.4221 0.0000
# 6 0.0000 0.0000 0.0000 0.0000 0.0000 9.1836
#
#
#
# Elastic Compliance Matrix: (Units=1/GPa)
#
#
# Indices 1 2 3 4 5 6 
#
# 1 0.026358 -0.009668 -0.005552 0.000000 0.000000 0.000000
# 2 -0.009668 0.021562 -0.002534 0.000000 0.000000 0.000000
# 3 -0.005552 -0.002534 0.011565 0.000000 0.000000 0.000000
# 4 0.000000 0.000000 0.000000 0.086612 0.000000 0.000000
# 5 0.000000 0.000000 0.000000 0.000000 0.064842 0.000000
# 6 0.000000 0.000000 0.000000 0.000000 0.000000 0.108890
#
#
# Mechanical properties :
#
#
# Convention : Reuss Voigt Hill
#
# Bulk Modulus (GPa) = 41.70893 44.91836 43.31364
# Shear Modulus (GPa) = 13.76167 16.36958 15.06562
#
# Velocity S-wave (km/s) = 3.07084 3.34919 3.21303
# Velocity P-wave (km/s) = 6.41514 6.76284 6.59129
#
# Compressibility (1/GPa) = 0.02397568
#
# Stress axis : x y z
#
# Youngs Moduli (GPa) = 37.93983 46.37866 86.46845
#
# Poissons Ratio (x) = 0.44837 0.48008
# Poissons Ratio (y) = 0.36679 0.21915
# Poissons Ratio (z) = 0.21065 0.11755
#
# Static dielectric constant tensor:
#      x y z
#    x 2.503940 0.000000 0.000000 
#    y 0.000000 2.534810 0.000000 
#    z 0.000000 0.000000 3.189430 
# 
# 
# High freq. dielectric constant tensor:
#      x y z
#    x 1.511450 0.000000 0.000000 
#    y 0.000000 1.532050 0.000000 
#    z 0.000000 0.000000 1.573870 
# 
# From -- ./inp_files/35618.got.cif
#   From: 2010.03.12/outbox.cif.g09.slc.cpg/sg74_18_cif.got.tgz:35618.got - 2010.04.16 15:46:19.
