data_PCOD8298881
_publ_section_title
;
Structure prediction by ZEFSAII (Michael W. Deem and Ramdas Pophale) SiO2 
 PCOD8298881
Probable space group: I M M A
;
_chemical_formula_sum "Si O2"
_cell_formula_units_Z 72
_cell_length_a 9.020498
_cell_length_b 16.049280
_cell_length_c 28.193868
_cell_angle_alpha 90.000000
_cell_angle_beta 90.000000
_cell_angle_gamma 90.000000
_cell_volume 4081.696703
_symmetry_space_group_name_H-M "I M M A"
_symmetry_group_IT_number 74
_symmetry_cell_setting 'orthorhombic'
loop_
_space_group_symop_operation_xyz
x,y,z
-x,1/2-y,z
x,-y,-z
-x,1/2+y,-z
-x,-y,-z
x,1/2+y,-z
-x,y,z
x,1/2-y,z
1/2+x,1/2+y,1/2+z
1/2-x,-y,1/2+z
1/2+x,1/2-y,1/2-z
1/2-x,y,1/2-z
1/2-x,1/2-y,1/2-z
1/2+x,y,1/2-z
1/2-x,1/2+y,1/2+z
1/2+x,-y,1/2+z
loop_
_atom_site_type_symbol
_atom_site_label
_atom_site_fract_x
_atom_site_fract_y
_atom_site_fract_z
Si Si1 0.174718 0.430896 0.301214
Si Si2 0.169346 0.250000 0.298696
Si Si3 0.662572 0.587203 0.526218
Si Si4 0.675684 0.013043 0.613785
Si Si5 0.169419 0.654533 0.443209
O O1 0.250000 0.440100 0.250000
O O2 0.206771 0.338175 0.324243
O O3 0.246813 0.498612 0.335846
O O4 0.000000 0.448316 0.296364
O O5 0.250000 0.250000 0.250000
O O6 0.000000 0.250000 0.284425
O O7 0.648062 0.500000 0.500000
O O8 0.500000 0.630324 0.527524
O O9 0.717637 0.564968 0.579373
O O10 0.776366 0.645840 0.497940
O O11 0.500000 0.020260 0.620168
O O12 0.733296 0.100086 0.592612
O O13 0.185264 0.750000 0.427449
O O14 0.000000 0.624244 0.440896
#
# Coordination Sequence:
#
# PCOD8298881 Si02
#       5
#    16   8  16  16  16
#     4  10  19  33  53  76 104 136 171 211 253 300
#     4   8  16  30  48  70  96 128 162 200 246 292
#     4   8  16  31  49  69  96 128 164 204 247 296
#     4  10  20  34  52  75 102 135 174 211 252 302
#     4  10  20  33  51  76 103 133 170 211 256 305
#
# _framework density 17.639721999999999
#
# number of rings (size 3 to 8) (size 9 to 14) (size 15 to 20)
#    0.000    2.667    0.000    3.333    0.000    7.556 
#    2.000    0.000    0.000    0.667    0.000    0.000 
#    0.000    0.000    0.000    0.000    0.000    0.000 
#
# Total GULP energy -446043.608078 kJ/mol
# GULP energy per Si atom -12390.100224 kJ/mol
# Density = 1.759957 g / cm^3
# Si number density = 17.639722 Si / 1000 Ang^3
#
#
#
# Elastic Constant Matrix: (Units=GPa)
#
#
# Indices 1 2 3 4 5 6 
#
# 1 107.0374 46.6878 52.7969 0.0000 0.0000 0.0000
# 2 46.6878 68.7084 38.9692 0.0000 0.0000 0.0000
# 3 52.7969 38.9692 97.8769 0.0000 0.0000 0.0000
# 4 0.0000 0.0000 0.0000 20.3155 0.0000 0.0000
# 5 0.0000 0.0000 0.0000 0.0000 29.5943 0.0000
# 6 0.0000 0.0000 0.0000 0.0000 0.0000 21.8171
#
#
#
# Elastic Compliance Matrix: (Units=1/GPa)
#
#
# Indices 1 2 3 4 5 6 
#
# 1 0.015112 -0.007292 -0.005248 0.000000 0.000000 0.000000
# 2 -0.007292 0.022318 -0.004952 0.000000 0.000000 0.000000
# 3 -0.005248 -0.004952 0.015020 0.000000 0.000000 0.000000
# 4 0.000000 0.000000 0.000000 0.049224 0.000000 0.000000
# 5 0.000000 0.000000 0.000000 0.000000 0.033790 0.000000
# 6 0.000000 0.000000 0.000000 0.000000 0.000000 0.045836
#
#
# Mechanical properties :
#
#
# Convention : Reuss Voigt Hill
#
# Bulk Modulus (GPa) = 57.25989 61.17007 59.21498
# Shear Modulus (GPa) = 22.51174 23.35662 22.93418
#
# Velocity S-wave (km/s) = 3.57626 3.64276 3.60966
# Velocity P-wave (km/s) = 7.04160 7.24194 7.14247
#
# Compressibility (1/GPa) = 0.01746423
#
# Stress axis : x y z
#
# Youngs Moduli (GPa) = 66.17258 44.80686 66.57860
#
# Poissons Ratio (x) = 0.32673 0.34944
# Poissons Ratio (y) = 0.48253 0.32972
# Poissons Ratio (z) = 0.34731 0.22190
#
# Static dielectric constant tensor:
#      x y z
#    x 3.352640 0.000000 0.000000 
#    y 0.000000 3.359610 0.000000 
#    z 0.000000 0.000000 3.252650 
# 
# 
# High freq. dielectric constant tensor:
#      x y z
#    x 1.696400 0.000000 0.000000 
#    y 0.000000 1.662440 0.000000 
#    z 0.000000 0.000000 1.661600 
# 
# From -- ./inp_files/67468.got.cif
#   From: 2010.03.12/outbox.cif.g09.slc.cpg/sg74_34_cif.got.tgz:67468.got - 2010.04.16 15:46:19.
