data_PCOD8298913
_publ_section_title
;
Structure prediction by ZEFSAII (Michael W. Deem and Ramdas Pophale) SiO2 
 PCOD8298913
Probable space group: I M M A
;
_chemical_formula_sum "Si O2"
_cell_formula_units_Z 80
_cell_length_a 18.598949
_cell_length_b 7.713078
_cell_length_c 29.297963
_cell_angle_alpha 90.000000
_cell_angle_beta 90.000000
_cell_angle_gamma 90.000000
_cell_volume 4202.943511
_symmetry_space_group_name_H-M "I M M A"
_symmetry_group_IT_number 74
_symmetry_cell_setting 'orthorhombic'
loop_
_space_group_symop_operation_xyz
x,y,z
-x,1/2-y,z
x,-y,-z
-x,1/2+y,-z
-x,-y,-z
x,1/2+y,-z
-x,y,z
x,1/2-y,z
1/2+x,1/2+y,1/2+z
1/2-x,-y,1/2+z
1/2+x,1/2-y,1/2-z
1/2-x,y,1/2-z
1/2-x,1/2-y,1/2-z
1/2+x,y,1/2-z
1/2-x,1/2+y,1/2+z
1/2+x,-y,1/2+z
loop_
_atom_site_type_symbol
_atom_site_label
_atom_site_fract_x
_atom_site_fract_y
_atom_site_fract_z
Si Si1 0.085205 0.750000 0.608378
Si Si2 0.085747 0.250000 0.288234
Si Si3 0.919255 0.544539 0.872171
Si Si4 0.652224 0.053983 0.948932
Si Si5 0.914769 0.441973 0.773603
Si Si6 0.812730 0.453586 0.049765
O O1 0.114163 0.750000 0.660209
O O2 0.113608 0.575177 0.585579
O O3 0.000000 0.750000 0.605915
O O4 0.116739 0.419705 0.262346
O O5 0.000000 0.250000 0.287568
O O6 0.920692 0.750000 0.870501
O O7 0.885768 0.475986 0.824697
O O8 0.869567 0.476994 0.913266
O O9 0.000000 0.472178 0.879966
O O10 0.625398 0.250000 0.939474
O O11 0.737746 0.050128 0.942277
O O12 0.630823 0.000000 0.000000
O O13 0.891545 0.250000 0.757456
O O14 0.000000 0.462823 0.775431
O O15 0.798668 0.250000 0.054482
O O16 0.844132 0.500000 0.000000
#
# Coordination Sequence:
#
# PCOD8298913 Si02
#       6
#     8   8  16  16  16  16
#     4  11  24  40  61  91 116 138 175 232 290 332
#     4   9  18  34  53  77 113 142 173 223 277 334
#     4   9  17  30  50  79 112 149 193 238 280 316
#     4  11  21  40  62  82 111 149 189 219 266 344
#     4   9  16  28  50  76 106 147 187 223 270 328
#     4  10  19  33  54  77 109 152 193 231 274 330
#
# _framework density 19.034279999999999
#
# number of rings (size 3 to 8) (size 9 to 14) (size 15 to 20)
#    0.000    2.200    3.000    1.800    0.000    3.600 
#    0.000    2.000    0.000    2.400    0.000    2.800 
#    0.000    0.000    0.000    0.000    0.000    0.000 
#
# Total GULP energy -495982.111501 kJ/mol
# GULP energy per Si atom -12399.552788 kJ/mol
# Density = 1.899096 g / cm^3
# Si number density = 19.034280 Si / 1000 Ang^3
#
#
#
# Elastic Constant Matrix: (Units=GPa)
#
#
# Indices 1 2 3 4 5 6 
#
# 1 42.5244 25.8996 52.5834 0.0000 0.0000 0.0000
# 2 25.8996 136.8304 78.6318 0.0000 0.0000 0.0000
# 3 52.5834 78.6318 176.8861 0.0000 0.0000 0.0000
# 4 0.0000 0.0000 0.0000 49.2374 0.0000 0.0000
# 5 0.0000 0.0000 0.0000 0.0000 1.5605 0.0000
# 6 0.0000 0.0000 0.0000 0.0000 0.0000 16.3111
#
#
#
# Elastic Compliance Matrix: (Units=1/GPa)
#
#
# Indices 1 2 3 4 5 6 
#
# 1 0.037271 -0.000924 -0.010669 0.000000 0.000000 0.000000
# 2 -0.000924 0.009839 -0.004099 0.000000 0.000000 0.000000
# 3 -0.010669 -0.004099 0.010647 0.000000 0.000000 0.000000
# 4 0.000000 0.000000 0.000000 0.020310 0.000000 0.000000
# 5 0.000000 0.000000 0.000000 0.000000 0.640839 0.000000
# 6 0.000000 0.000000 0.000000 0.000000 0.000000 0.061308
#
#
# Mechanical properties :
#
#
# Convention : Reuss Voigt Hill
#
# Bulk Modulus (GPa) = 37.91673 74.49672 56.20672
# Shear Modulus (GPa) = 6.09467 26.69685 16.39576
#
# Velocity S-wave (km/s) = 1.79134 3.74915 2.93811
# Velocity P-wave (km/s) = 4.92362 7.61345 6.41119
#
# Compressibility (1/GPa) = 0.02637359
#
# Stress axis : x y z
#
# Youngs Moduli (GPa) = 26.83019 101.63889 93.92133
#
# Poissons Ratio (x) = 0.09387 1.00207
# Poissons Ratio (y) = 0.02478 0.38499
# Poissons Ratio (z) = 0.28626 0.41663
#
# Static dielectric constant tensor:
#      x y z
#    x 3.163720 0.000000 0.000000 
#    y 0.000000 3.582410 0.000000 
#    z 0.000000 0.000000 3.674750 
# 
# 
# High freq. dielectric constant tensor:
#      x y z
#    x 1.695200 0.000000 0.000000 
#    y 0.000000 1.752970 0.000000 
#    z 0.000000 0.000000 1.743560 
# 
# From -- ./inp_files/72896.got.cif
#   From: 2010.03.12/outbox.cif.g09.slc.cpg/sg74_37_cif.got.tgz:72896.got - 2010.04.16 15:46:19.
