data_PCOD8298164
_publ_section_title
;
Structure prediction by ZEFSAII (Michael W. Deem and Ramdas Pophale) SiO2 
 PCOD8298164
Probable space group: I M M A
;
_chemical_formula_sum "Si O2"
_cell_formula_units_Z 112
_cell_length_a 8.881009
_cell_length_b 32.244456
_cell_length_c 31.621591
_cell_angle_alpha 90.000000
_cell_angle_beta 90.000000
_cell_angle_gamma 90.000000
_cell_volume 9055.263274
_symmetry_space_group_name_H-M "I M M A"
_symmetry_group_IT_number 74
_symmetry_cell_setting 'orthorhombic'
loop_
_space_group_symop_operation_xyz
x,y,z
-x,1/2-y,z
x,-y,-z
-x,1/2+y,-z
-x,-y,-z
x,1/2+y,-z
-x,y,z
x,1/2-y,z
1/2+x,1/2+y,1/2+z
1/2-x,-y,1/2+z
1/2+x,1/2-y,1/2-z
1/2-x,y,1/2-z
1/2-x,1/2-y,1/2-z
1/2+x,y,1/2-z
1/2-x,1/2+y,1/2+z
1/2+x,-y,1/2+z
loop_
_atom_site_type_symbol
_atom_site_label
_atom_site_fract_x
_atom_site_fract_y
_atom_site_fract_z
Si Si1 0.669407 0.404135 0.502116
Si Si2 0.821143 0.250000 0.930288
Si Si3 0.170033 0.526372 0.542715
Si Si4 0.821169 0.335425 0.794850
Si Si5 0.330458 0.956667 0.412800
Si Si6 0.823874 0.614647 0.367772
Si Si7 0.323886 0.333777 0.951266
Si Si8 0.178598 0.250000 0.834562
O O1 0.500000 0.392590 0.488506
O O2 0.747907 0.429642 0.464338
O O3 0.668268 0.432063 0.543595
O O4 0.762573 0.362335 0.510810
O O5 0.760027 0.209893 0.954442
O O6 0.758095 0.250000 0.882264
O O7 0.000000 0.250000 0.931372
O O8 0.171644 0.500000 0.500000
O O9 0.255429 0.501521 0.579817
O O10 0.000000 0.534885 0.557475
O O11 0.750000 0.345862 0.750000
O O12 0.767154 0.370374 0.827145
O O13 0.761162 0.290521 0.810256
O O14 0.000000 0.336252 0.791677
O O15 0.500000 0.962675 0.395790
O O16 0.232715 0.931535 0.378584
O O17 0.786645 0.645571 0.406201
O O18 0.000000 0.613253 0.357699
O O19 0.500000 0.327236 0.957692
O O20 0.000000 0.250000 0.836095
#
# Coordination Sequence:
#
# PCOD8298164 Si02
#       8
#    16   8  16  16  16  16  16   8
#     4   9  16  25  37  52  70  92 114 134 159 194
#     4  11  19  30  44  56  69  88 114 142 175 215
#     4   9  15  23  35  52  73  93 111 133 157 186
#     4  11  21  34  46  58  71  87 108 137 175 218
#     4   9  16  25  38  54  71  91 111 132 157 192
#     4  10  19  30  42  56  71  88 109 135 167 206
#     4  10  19  29  40  55  71  88 111 140 172 205
#     4   9  19  32  46  58  69  83 105 137 175 217
#
# _framework density 12.368497
#
# number of rings (size 3 to 8) (size 9 to 14) (size 15 to 20)
#    0.000    2.286    1.429    3.000    0.000    6.286 
#    0.000    1.071    0.000    0.000    0.000    0.000 
#    0.000    0.000    0.000    0.000    0.000    0.000 
#
# Total GULP energy -694458.797273 kJ/mol
# GULP energy per Si atom -12401.049951 kJ/mol
# Density = 1.234035 g / cm^3
# Si number density = 12.368497 Si / 1000 Ang^3
#
#
#
# Elastic Constant Matrix: (Units=GPa)
#
#
# Indices 1 2 3 4 5 6 
#
# 1 84.2362 42.4889 22.8485 0.0000 0.0000 0.0000
# 2 42.4889 81.8373 41.7545 0.0000 0.0000 0.0000
# 3 22.8485 41.7545 33.1209 0.0000 0.0000 0.0000
# 4 0.0000 0.0000 0.0000 10.5214 0.0000 0.0000
# 5 0.0000 0.0000 0.0000 0.0000 15.6308 0.0000
# 6 0.0000 0.0000 0.0000 0.0000 0.0000 23.0507
#
#
#
# Elastic Compliance Matrix: (Units=1/GPa)
#
#
# Indices 1 2 3 4 5 6 
#
# 1 0.016113 -0.007552 -0.001595 0.000000 0.000000 0.000000
# 2 -0.007552 0.037787 -0.042428 0.000000 0.000000 0.000000
# 3 -0.001595 -0.042428 0.084780 0.000000 0.000000 0.000000
# 4 0.000000 0.000000 0.000000 0.095044 0.000000 0.000000
# 5 0.000000 0.000000 0.000000 0.000000 0.063976 0.000000
# 6 0.000000 0.000000 0.000000 0.000000 0.000000 0.043383
#
#
# Mechanical properties :
#
#
# Convention : Reuss Voigt Hill
#
# Bulk Modulus (GPa) = 28.14447 45.93090 37.03768
# Shear Modulus (GPa) = 10.96306 15.98075 13.47191
#
# Velocity S-wave (km/s) = 2.98043 3.59841 3.30390
# Velocity P-wave (km/s) = 5.88628 7.38111 6.67567
#
# Compressibility (1/GPa) = 0.03553096
#
# Stress axis : x y z
#
# Youngs Moduli (GPa) = 62.06071 26.46396 11.79524
#
# Poissons Ratio (x) = 0.19985 0.01882
# Poissons Ratio (y) = 0.46867 0.50044
# Poissons Ratio (z) = 0.09901 1.12280
#
# Static dielectric constant tensor:
#      x y z
#    x 2.656650 0.000000 0.000000 
#    y 0.000000 2.524180 0.000000 
#    z 0.000000 0.000000 2.203440 
# 
# 
# High freq. dielectric constant tensor:
#      x y z
#    x 1.488280 0.000000 0.000000 
#    y 0.000000 1.455910 0.000000 
#    z 0.000000 0.000000 1.411520 
# 
# From -- ./inp_files/71120.got.cif
#   From: 2010.03.12/outbox.cif.g09.slc.cpg/sg74_36_cif.got.tgz:71120.got - 2010.04.16 15:46:19.
