data_PCOD8298386
_publ_section_title
;
Structure prediction by ZEFSAII (Michael W. Deem and Ramdas Pophale) SiO2 
 PCOD8298386
Probable space group: I M M A
;
_chemical_formula_sum "Si O2"
_cell_formula_units_Z 104
_cell_length_a 9.282260
_cell_length_b 27.491213
_cell_length_c 23.475891
_cell_angle_alpha 90.000000
_cell_angle_beta 90.000000
_cell_angle_gamma 90.000000
_cell_volume 5990.591641
_symmetry_space_group_name_H-M "I M M A"
_symmetry_group_IT_number 74
_symmetry_cell_setting 'orthorhombic'
loop_
_space_group_symop_operation_xyz
x,y,z
-x,1/2-y,z
x,-y,-z
-x,1/2+y,-z
-x,-y,-z
x,1/2+y,-z
-x,y,z
x,1/2-y,z
1/2+x,1/2+y,1/2+z
1/2-x,-y,1/2+z
1/2+x,1/2-y,1/2-z
1/2-x,y,1/2-z
1/2-x,1/2-y,1/2-z
1/2+x,y,1/2-z
1/2-x,1/2+y,1/2+z
1/2+x,-y,1/2+z
loop_
_atom_site_type_symbol
_atom_site_label
_atom_site_fract_x
_atom_site_fract_y
_atom_site_fract_z
Si Si1 0.330554 0.553539 0.983366
Si Si2 0.160429 0.382939 0.591246
Si Si3 0.831321 0.305660 0.192164
Si Si4 0.839710 0.750000 0.194560
Si Si5 0.662713 0.694642 0.004363
Si Si6 0.333996 0.144331 0.691077
Si Si7 0.829455 0.368597 0.083028
O O1 0.500000 0.553874 0.968553
O O2 0.292561 0.583122 0.039673
O O3 0.274886 0.500000 0.000000
O O4 0.247547 0.578985 0.929820
O O5 0.168318 0.328021 0.567502
O O6 0.267213 0.391707 0.644194
O O7 0.000000 0.395742 0.612620
O O8 0.790989 0.250000 0.173361
O O9 0.750000 0.320036 0.250000
O O10 0.786594 0.345266 0.144163
O O11 0.000000 0.309058 0.204513
O O12 0.750000 0.750000 0.250000
O O13 0.812626 0.698581 0.162997
O O14 0.000000 0.750000 0.218232
O O15 0.500000 0.688085 0.979438
O O16 0.707950 0.750000 0.011059
O O17 0.778018 0.670090 0.963330
O O18 0.500000 0.130989 0.701430
O O19 0.250000 0.138465 0.750000
O O20 0.000000 0.375994 0.078205
#
# Coordination Sequence:
#
# PCOD8298386 Si02
#       7
#    16  16  16   8  16  16  16
#     4   9  19  37  58  76  96 125 162 204 252 307
#     4   9  18  31  48  71  95 120 157 200 243 290
#     4   9  18  31  47  71 105 143 178 207 240 287
#     4   8  16  28  40  58  84 118 158 190 217 258
#     4   9  18  31  46  67  97 134 170 201 238 290
#     4  10  19  31  46  65  92 126 162 197 235 278
#     4  10  19  31  49  75 104 131 163 208 255 299
#
# _framework density 17.360555999999999
#
# number of rings (size 3 to 8) (size 9 to 14) (size 15 to 20)
#    0.000    2.769    0.000    2.308    1.077    5.538 
#    0.000    1.538    0.000    0.923    0.000    2.154 
#    0.000    0.000    0.000    0.000    0.000    0.000 
#
# Total GULP energy -644199.321458 kJ/mol
# GULP energy per Si atom -12388.448490 kJ/mol
# Density = 1.732104 g / cm^3
# Si number density = 17.360556 Si / 1000 Ang^3
#
#
#
# Elastic Constant Matrix: (Units=GPa)
#
#
# Indices 1 2 3 4 5 6 
#
# 1 79.3591 35.1043 56.6698 0.0000 0.0000 0.0000
# 2 35.1043 99.6954 41.4306 0.0000 0.0000 0.0000
# 3 56.6698 41.4306 97.5070 0.0001 0.0000 0.0000
# 4 0.0000 0.0000 0.0001 19.4319 0.0000 0.0000
# 5 0.0000 0.0000 0.0000 0.0000 32.9576 0.0000
# 6 0.0000 0.0000 0.0000 0.0000 0.0000 21.1593
#
#
#
# Elastic Compliance Matrix: (Units=1/GPa)
#
#
# Indices 1 2 3 4 5 6 
#
# 1 0.022251 -0.002988 -0.011662 0.000000 0.000000 0.000000
# 2 -0.002988 0.012583 -0.003610 0.000000 0.000000 0.000000
# 3 -0.011662 -0.003610 0.018567 0.000000 0.000000 0.000000
# 4 0.000000 0.000000 0.000000 0.051462 0.000000 0.000000
# 5 0.000000 0.000000 0.000000 0.000000 0.030342 0.000000
# 6 0.000000 0.000000 0.000000 0.000000 0.000000 0.047261
#
#
# Mechanical properties :
#
#
# Convention : Reuss Voigt Hill
#
# Bulk Modulus (GPa) = 59.23946 60.33010 59.78478
# Shear Modulus (GPa) = 22.26060 24.26687 23.26374
#
# Velocity S-wave (km/s) = 3.58474 3.74279 3.66462
# Velocity P-wave (km/s) = 7.16456 7.31469 7.24001
#
# Compressibility (1/GPa) = 0.01688064
#
# Stress axis : x y z
#
# Youngs Moduli (GPa) = 44.94260 79.47315 53.85848
#
# Poissons Ratio (x) = 0.23750 0.62810
# Poissons Ratio (y) = 0.13431 0.19441
# Poissons Ratio (z) = 0.52412 0.28687
#
# Static dielectric constant tensor:
#      x y z
#    x 3.227240 0.000000 0.000000 
#    y 0.000000 3.261350 0.000000 
#    z 0.000000 0.000000 3.055620 
# 
# 
# High freq. dielectric constant tensor:
#      x y z
#    x 1.674840 0.000000 0.000000 
#    y 0.000000 1.649130 0.000000 
#    z 0.000000 0.000000 1.654170 
# 
# From -- ./inp_files/57831.got.cif
#   From: 2010.03.12/outbox.cif.g09.slc.cpg/sg74_29_cif.got.tgz:57831.got - 2010.04.16 15:46:19.
