data_PCOD8298742
_publ_section_title
;
Structure prediction by ZEFSAII (Michael W. Deem and Ramdas Pophale) SiO2 
 PCOD8298742
Probable space group: I M M A
;
_chemical_formula_sum "Si O2"
_cell_formula_units_Z 96
_cell_length_a 20.610903
_cell_length_b 9.196520
_cell_length_c 24.505291
_cell_angle_alpha 90.000000
_cell_angle_beta 90.000000
_cell_angle_gamma 90.000000
_cell_volume 4644.943152
_symmetry_space_group_name_H-M "I M M A"
_symmetry_group_IT_number 74
_symmetry_cell_setting 'orthorhombic'
loop_
_space_group_symop_operation_xyz
x,y,z
-x,1/2-y,z
x,-y,-z
-x,1/2+y,-z
-x,-y,-z
x,1/2+y,-z
-x,y,z
x,1/2-y,z
1/2+x,1/2+y,1/2+z
1/2-x,-y,1/2+z
1/2+x,1/2-y,1/2-z
1/2-x,y,1/2-z
1/2-x,1/2-y,1/2-z
1/2+x,y,1/2-z
1/2-x,1/2+y,1/2+z
1/2+x,-y,1/2+z
loop_
_atom_site_type_symbol
_atom_site_label
_atom_site_fract_x
_atom_site_fract_y
_atom_site_fract_z
Si Si1 0.072221 0.418388 0.172380
Si Si2 0.887569 0.579243 0.947157
Si Si3 0.676212 0.080206 0.745351
Si Si4 0.924647 0.907664 0.549031
Si Si5 0.247031 0.920036 0.052100
Si Si6 0.860064 0.414307 0.633661
O O1 0.084649 0.250000 0.185628
O O2 0.070524 0.444524 0.107219
O O3 0.131255 0.505427 0.199994
O O4 0.000000 0.465502 0.193567
O O5 0.878798 0.750000 0.959999
O O6 0.819158 0.503181 0.935626
O O7 0.920231 0.500000 0.000000
O O8 0.679532 0.250000 0.730475
O O9 0.750000 0.018648 0.750000
O O10 0.642490 0.049637 0.802916
O O11 0.890632 0.750000 0.548403
O O12 0.000000 0.889004 0.538856
O O13 0.893030 0.000000 0.500000
O O14 0.913879 0.982737 0.607239
O O15 0.234807 0.750000 0.039981
O O16 0.290760 0.942101 0.105531
O O17 0.280093 0.000000 0.000000
O O18 0.882769 0.250000 0.623589
#
# Coordination Sequence:
#
# PCOD8298742 Si02
#       6
#    16  16  16  16  16  16
#     4  10  23  42  61  85 119 154 191 239 290 342
#     4  10  20  35  57  84 114 148 184 225 276 333
#     4  10  22  41  63  87 116 151 195 245 292 342
#     4  10  21  36  54  77 107 144 184 228 279 334
#     4  10  19  32  52  80 114 147 181 226 278 332
#     4  10  21  35  54  80 108 141 182 230 281 333
#
# _framework density 20.667638
#
# number of rings (size 3 to 8) (size 9 to 14) (size 15 to 20)
#    0.000    2.000    0.000    4.000    0.000    8.667 
#    0.000    3.333    0.000    0.000    0.000    0.000 
#    0.000    0.000    0.000    0.000    0.000    0.000 
#
# Total GULP energy -594979.379510 kJ/mol
# GULP energy per Si atom -12395.403740 kJ/mol
# Density = 2.062060 g / cm^3
# Si number density = 20.667638 Si / 1000 Ang^3
#
#
#
# Elastic Constant Matrix: (Units=GPa)
#
#
# Indices 1 2 3 4 5 6 
#
# 1 83.6629 40.0811 35.0176 0.0000 0.0000 0.0000
# 2 40.0811 128.0275 57.0681 0.0000 0.0000 0.0000
# 3 35.0176 57.0681 98.0082 0.0000 0.0000 0.0000
# 4 0.0000 0.0000 0.0000 33.9488 0.0000 0.0000
# 5 0.0000 0.0000 0.0000 0.0000 29.1444 0.0000
# 6 0.0000 0.0000 0.0000 0.0000 0.0000 23.7573
#
#
#
# Elastic Compliance Matrix: (Units=1/GPa)
#
#
# Indices 1 2 3 4 5 6 
#
# 1 0.014912 -0.003097 -0.003524 0.000000 0.000000 0.000000
# 2 -0.003097 0.011192 -0.005410 0.000000 0.000000 0.000000
# 3 -0.003524 -0.005410 0.014613 0.000000 0.000000 0.000000
# 4 0.000000 0.000000 0.000000 0.029456 0.000000 0.000000
# 5 0.000000 0.000000 0.000000 0.000000 0.034312 0.000000
# 6 0.000000 0.000000 0.000000 0.000000 0.000000 0.042092
#
#
# Mechanical properties :
#
#
# Convention : Reuss Voigt Hill
#
# Bulk Modulus (GPa) = 60.05049 63.78135 61.91592
# Shear Modulus (GPa) = 28.37816 29.20555 28.79185
#
# Velocity S-wave (km/s) = 3.70952 3.76321 3.73646
# Velocity P-wave (km/s) = 6.88954 7.05761 6.97408
#
# Compressibility (1/GPa) = 0.01665265
#
# Stress axis : x y z
#
# Youngs Moduli (GPa) = 67.06120 89.34843 68.43358
#
# Poissons Ratio (x) = 0.27675 0.24118
# Poissons Ratio (y) = 0.20772 0.37024
# Poissons Ratio (z) = 0.23634 0.48340
#
# Static dielectric constant tensor:
#      x y z
#    x 3.558020 0.000000 0.000000 
#    y 0.000000 3.921530 0.000000 
#    z 0.000000 0.000000 3.909700 
# 
# 
# High freq. dielectric constant tensor:
#      x y z
#    x 1.805180 0.000000 0.000000 
#    y 0.000000 1.810480 0.000000 
#    z 0.000000 0.000000 1.809670 
# 
# From -- ./inp_files/61904.got.cif
#   From: 2010.03.12/outbox.cif.g09.slc.cpg/sg74_31_cif.got.tgz:61904.got - 2010.04.16 15:46:19.
