data_PCOD8298388
_publ_section_title
;
Structure prediction by ZEFSAII (Michael W. Deem and Ramdas Pophale) SiO2 
 PCOD8298388
Probable space group: I M M A
;
_chemical_formula_sum "Si O2"
_cell_formula_units_Z 128
_cell_length_a 28.948654
_cell_length_b 9.401230
_cell_length_c 26.100328
_cell_angle_alpha 90.000000
_cell_angle_beta 90.000000
_cell_angle_gamma 90.000000
_cell_volume 7103.281377
_symmetry_space_group_name_H-M "I M M A"
_symmetry_group_IT_number 74
_symmetry_cell_setting 'orthorhombic'
loop_
_space_group_symop_operation_xyz
x,y,z
-x,1/2-y,z
x,-y,-z
-x,1/2+y,-z
-x,-y,-z
x,1/2+y,-z
-x,y,z
x,1/2-y,z
1/2+x,1/2+y,1/2+z
1/2-x,-y,1/2+z
1/2+x,1/2-y,1/2-z
1/2-x,y,1/2-z
1/2-x,1/2-y,1/2-z
1/2+x,y,1/2-z
1/2-x,1/2+y,1/2+z
1/2+x,-y,1/2+z
loop_
_atom_site_type_symbol
_atom_site_label
_atom_site_fract_x
_atom_site_fract_y
_atom_site_fract_z
Si Si1 0.103519 0.418977 0.749257
Si Si2 0.114159 0.081146 0.552141
Si Si3 0.947902 0.419384 0.849089
Si Si4 0.709669 0.086516 0.548770
Si Si5 0.703338 0.416876 0.889310
Si Si6 0.604697 0.416686 0.550932
Si Si7 0.203900 0.080785 0.723785
Si Si8 0.947773 0.081300 0.647963
O O1 0.099136 0.250000 0.748438
O O2 0.078400 0.481833 0.799518
O O3 0.157364 0.463855 0.753733
O O4 0.079702 0.479898 0.697512
O O5 0.113112 0.250000 0.541949
O O6 0.164431 0.026206 0.571550
O O7 0.077227 0.035454 0.595456
O O8 0.101423 0.000000 0.500000
O O9 0.945759 0.250000 0.848206
O O10 0.924980 0.474803 0.901566
O O11 0.000000 0.475998 0.847322
O O12 0.714299 0.250000 0.533608
O O13 0.744779 0.045261 0.593661
O O14 0.657714 0.049503 0.565587
O O15 0.725728 0.000000 0.500000
O O16 0.694834 0.250000 0.884958
O O17 0.698332 0.484170 0.833090
O O18 0.589391 0.500000 0.500000
O O19 0.596686 0.250000 0.540940
O O20 0.208861 0.250000 0.721296
O O21 0.250000 0.016074 0.750000
O O22 0.948415 0.250000 0.651779
O O23 0.000000 0.020609 0.648024
#
# Coordination Sequence:
#
# PCOD8298388 Si02
#       8
#    16  16  16  16  16  16  16  16
#     4   9  15  25  40  61  89 118 147 181 226 276
#     4  10  19  31  46  66  92 121 155 191 227 269
#     4   9  17  27  41  63  89 117 149 186 226 268
#     4   9  17  28  43  62  86 116 148 179 214 257
#     4   9  16  27  41  60  88 119 147 179 222 271
#     4   9  18  31  46  66  93 122 151 184 223 266
#     4   9  16  23  36  60  89 118 144 174 222 277
#     4   9  16  27  43  62  87 119 150 184 229 276
#
# _framework density 18.019842000000001
#
# number of rings (size 3 to 8) (size 9 to 14) (size 15 to 20)
#    0.000    2.875    1.250    0.750    1.750    2.000 
#    0.000    0.000    0.000    0.000    0.000    0.875 
#    0.000    4.000    0.000    0.000    0.000    0.000 
#
# Total GULP energy -793292.116451 kJ/mol
# GULP energy per Si atom -12395.189320 kJ/mol
# Density = 1.797883 g / cm^3
# Si number density = 18.019842 Si / 1000 Ang^3
#
#
#
# Elastic Constant Matrix: (Units=GPa)
#
#
# Indices 1 2 3 4 5 6 
#
# 1 147.0269 17.4507 89.1481 0.0000 0.0000 0.0000
# 2 17.4507 12.2511 23.4862 0.0000 0.0000 0.0000
# 3 89.1481 23.4862 162.8590 0.0000 0.0000 0.0000
# 4 0.0000 0.0000 0.0000 18.5882 0.0000 0.0000
# 5 0.0000 0.0000 0.0000 0.0000 22.4659 0.0000
# 6 0.0000 0.0000 0.0000 0.0000 0.0000 8.5331
#
#
#
# Elastic Compliance Matrix: (Units=1/GPa)
#
#
# Indices 1 2 3 4 5 6 
#
# 1 0.010433 -0.005408 -0.004931 0.000000 0.000000 0.000000
# 2 -0.005408 0.115617 -0.013713 0.000000 0.000000 0.000000
# 3 -0.004931 -0.013713 0.010817 0.000000 0.000000 0.000000
# 4 0.000000 0.000000 0.000000 0.053798 0.000000 0.000000
# 5 0.000000 0.000000 0.000000 0.000000 0.044512 0.000000
# 6 0.000000 0.000000 0.000000 0.000000 0.000000 0.117191
#
#
# Mechanical properties :
#
#
# Convention : Reuss Voigt Hill
#
# Bulk Modulus (GPa) = 11.26595 64.70079 37.98337
# Shear Modulus (GPa) = 11.62626 22.72089 17.17358
#
# Velocity S-wave (km/s) = 2.54282 3.55474 3.09048
# Velocity P-wave (km/s) = 3.85834 7.26853 5.81886
#
# Compressibility (1/GPa) = 0.08876308
#
# Stress axis : x y z
#
# Youngs Moduli (GPa) = 95.84626 8.64925 92.44511
#
# Poissons Ratio (x) = 0.04677 0.45587
# Poissons Ratio (y) = 0.51833 1.26771
# Poissons Ratio (z) = 0.47265 0.11861
#
# Static dielectric constant tensor:
#      x y z
#    x 3.579350 0.000000 0.000000 
#    y 0.000000 2.628750 0.000000 
#    z 0.000000 0.000000 3.637470 
# 
# 
# High freq. dielectric constant tensor:
#      x y z
#    x 1.714290 0.000000 0.000000 
#    y 0.000000 1.613340 0.000000 
#    z 0.000000 0.000000 1.708070 
# 
# From -- ./inp_files/62527.got.cif
#   From: 2010.03.12/outbox.cif.g09.slc.cpg/sg74_32_cif.got.tgz:62527.got - 2010.04.16 15:46:19.
