data_PCOD8298423
_publ_section_title
;
Structure prediction by ZEFSAII (Michael W. Deem and Ramdas Pophale) SiO2 
 PCOD8298423
Probable space group: I M M A
;
_chemical_formula_sum "Si O2"
_cell_formula_units_Z 104
_cell_length_a 8.919642
_cell_length_b 26.105119
_cell_length_c 21.933427
_cell_angle_alpha 90.000000
_cell_angle_beta 90.000000
_cell_angle_gamma 90.000000
_cell_volume 5107.161538
_symmetry_space_group_name_H-M "I M M A"
_symmetry_group_IT_number 74
_symmetry_cell_setting 'orthorhombic'
loop_
_space_group_symop_operation_xyz
x,y,z
-x,1/2-y,z
x,-y,-z
-x,1/2+y,-z
-x,-y,-z
x,1/2+y,-z
-x,y,z
x,1/2-y,z
1/2+x,1/2+y,1/2+z
1/2-x,-y,1/2+z
1/2+x,1/2-y,1/2-z
1/2-x,y,1/2-z
1/2-x,1/2-y,1/2-z
1/2+x,y,1/2-z
1/2-x,1/2+y,1/2+z
1/2+x,-y,1/2+z
loop_
_atom_site_type_symbol
_atom_site_label
_atom_site_fract_x
_atom_site_fract_y
_atom_site_fract_z
Si Si1 0.830878 0.372249 0.188772
Si Si2 0.179527 0.250000 0.817216
Si Si3 0.826876 0.045358 0.688473
Si Si4 0.676894 0.351304 0.870793
Si Si5 0.831800 0.808300 0.924585
Si Si6 0.177062 0.455092 0.393193
Si Si7 0.825832 0.389162 0.500748
O O1 0.750000 0.355934 0.250000
O O2 0.825588 0.322205 0.146435
O O3 0.748589 0.419486 0.157598
O O4 0.000000 0.389501 0.202691
O O5 0.250000 0.250000 0.750000
O O6 0.232542 0.199820 0.854026
O O7 0.000000 0.250000 0.811977
O O8 0.750000 0.025218 0.750000
O O9 0.792337 0.105492 0.680050
O O10 0.000000 0.035502 0.699124
O O11 0.779336 0.013008 0.627419
O O12 0.500000 0.337897 0.875703
O O13 0.743062 0.377345 0.932723
O O14 0.787427 0.750000 0.933302
O O15 0.000000 0.819724 0.949854
O O16 0.706854 0.839518 0.960559
O O17 0.235564 0.438972 0.461882
O O18 0.000000 0.446166 0.392885
O O19 0.000000 0.397105 0.511814
#
# Coordination Sequence:
#
# PCOD8298423 Si02
#       7
#    16   8  16  16  16  16  16
#     4  10  19  31  48  71 101 139 182 229 281 334
#     4  12  26  44  66  90 118 154 193 238 289 342
#     4  10  21  36  57  84 115 150 189 233 281 335
#     4  10  22  40  61  88 119 151 188 235 286 339
#     4   9  19  34  50  70 101 139 180 230 283 335
#     4   9  18  34  55  81 111 146 186 227 275 331
#     4   9  19  35  56  82 112 145 185 230 277 332
#
# _framework density 20.363562000000002
#
# number of rings (size 3 to 8) (size 9 to 14) (size 15 to 20)
#    0.000    2.308    0.000    2.077    1.077    6.154 
#    0.000    3.077    0.000    0.000    0.000    6.462 
#    0.000    0.000    0.000    0.000    0.000    0.000 
#
# Total GULP energy -644325.049264 kJ/mol
# GULP energy per Si atom -12390.866332 kJ/mol
# Density = 2.031721 g / cm^3
# Si number density = 20.363562 Si / 1000 Ang^3
#
#
#
# Elastic Constant Matrix: (Units=GPa)
#
#
# Indices 1 2 3 4 5 6 
#
# 1 39.3871 30.6209 33.0339 0.0000 0.0000 0.0000
# 2 30.6209 109.9430 43.2984 0.0000 0.0000 0.0000
# 3 33.0339 43.2984 125.4205 0.0000 0.0000 0.0000
# 4 0.0000 0.0000 0.0000 21.9489 0.0000 0.0000
# 5 0.0000 0.0000 0.0000 0.0000 27.0119 0.0000
# 6 0.0000 0.0000 0.0000 0.0000 0.0000 21.6654
#
#
#
# Elastic Compliance Matrix: (Units=1/GPa)
#
#
# Indices 1 2 3 4 5 6 
#
# 1 0.037315 -0.007548 -0.007222 0.000000 0.000000 0.000000
# 2 -0.007548 0.012054 -0.002173 0.000000 0.000000 0.000000
# 3 -0.007222 -0.002173 0.010626 0.000000 0.000000 0.000000
# 4 0.000000 0.000000 0.000000 0.045560 0.000000 0.000000
# 5 0.000000 0.000000 0.000000 0.000000 0.037021 0.000000
# 6 0.000000 0.000000 0.000000 0.000000 0.000000 0.046157
#
#
# Mechanical properties :
#
#
# Convention : Reuss Voigt Hill
#
# Bulk Modulus (GPa) = 38.30457 54.29521 46.29989
# Shear Modulus (GPa) = 21.61493 25.31174 23.46334
#
# Velocity S-wave (km/s) = 3.26153 3.52943 3.39812
# Velocity P-wave (km/s) = 5.74757 6.58255 6.17918
#
# Compressibility (1/GPa) = 0.02610655
#
# Stress axis : x y z
#
# Youngs Moduli (GPa) = 26.79909 82.96119 94.11214
#
# Poissons Ratio (x) = 0.62623 0.67970
# Poissons Ratio (y) = 0.20229 0.20452
# Poissons Ratio (z) = 0.19355 0.18029
#
# Static dielectric constant tensor:
#      x y z
#    x 3.575980 0.000000 0.000000 
#    y 0.000000 3.741190 0.000000 
#    z 0.000000 0.000000 3.880430 
# 
# 
# High freq. dielectric constant tensor:
#      x y z
#    x 1.777470 0.000000 0.000000 
#    y 0.000000 1.796150 0.000000 
#    z 0.000000 0.000000 1.803340 
# 
# From -- ./inp_files/49242.got.cif
#   From: 2010.03.12/outbox.cif.g09.slc.cpg/sg74_25_cif.got.tgz:49242.got - 2010.04.16 15:46:19.
