data_PCOD8298700
_publ_section_title
;
Structure prediction by ZEFSAII (Michael W. Deem and Ramdas Pophale) SiO2 
 PCOD8298700
Probable space group: I M M A
;
_chemical_formula_sum "Si O2"
_cell_formula_units_Z 88
_cell_length_a 8.876347
_cell_length_b 30.580377
_cell_length_c 17.716537
_cell_angle_alpha 90.000000
_cell_angle_beta 90.000000
_cell_angle_gamma 90.000000
_cell_volume 4809.012903
_symmetry_space_group_name_H-M "I M M A"
_symmetry_group_IT_number 74
_symmetry_cell_setting 'orthorhombic'
loop_
_space_group_symop_operation_xyz
x,y,z
-x,1/2-y,z
x,-y,-z
-x,1/2+y,-z
-x,-y,-z
x,1/2+y,-z
-x,y,z
x,1/2-y,z
1/2+x,1/2+y,1/2+z
1/2-x,-y,1/2+z
1/2+x,1/2-y,1/2-z
1/2-x,y,1/2-z
1/2-x,1/2-y,1/2-z
1/2+x,y,1/2-z
1/2-x,1/2+y,1/2+z
1/2+x,-y,1/2+z
loop_
_atom_site_type_symbol
_atom_site_label
_atom_site_fract_x
_atom_site_fract_y
_atom_site_fract_z
Si Si1 0.324901 0.250000 0.170590
Si Si2 0.175479 0.369626 0.555690
Si Si3 0.826554 0.659265 0.612296
Si Si4 0.321904 0.700048 0.331324
Si Si5 0.821998 0.950355 0.987671
Si Si6 0.324097 0.419443 0.324930
O O1 0.500000 0.250000 0.185410
O O2 0.250000 0.250000 0.250000
O O3 0.274027 0.208649 0.122426
O O4 0.205231 0.349602 0.474392
O O5 0.256630 0.337279 0.613997
O O6 0.244677 0.418847 0.550643
O O7 0.000000 0.372804 0.577170
O O8 0.724014 0.631090 0.668879
O O9 0.000000 0.650564 0.633972
O O10 0.500000 0.693583 0.325515
O O11 0.283624 0.750000 0.358672
O O12 0.250000 0.691900 0.250000
O O13 0.765159 0.941242 0.902371
O O14 0.000000 0.943313 0.995158
O O15 0.772557 0.000000 0.000000
O O16 0.500000 0.424963 0.315852
O O17 0.250000 0.440845 0.250000
#
# Coordination Sequence:
#
# PCOD8298700 Si02
#       6
#     8  16  16  16  16  16
#     4  10  20  32  44  64  95 132 169 206 245 288
#     4  10  20  34  56  82 108 140 177 223 274 327
#     4   9  19  33  49  70  99 135 174 210 251 299
#     4  10  21  37  57  82 112 147 187 231 277 332
#     4   9  19  37  58  78 105 142 181 225 277 330
#     4  10  19  32  52  75 100 130 169 212 259 312
#
# _framework density 18.298974000000001
#
# number of rings (size 3 to 8) (size 9 to 14) (size 15 to 20)
#    0.000    2.364    0.000    2.182    1.273    5.091 
#    0.000    0.909    0.000    2.182    0.000    0.000 
#    0.000    0.000    0.000    0.000    0.000    0.000 
#
# Total GULP energy -545386.822623 kJ/mol
# GULP energy per Si atom -12395.155060 kJ/mol
# Density = 1.825732 g / cm^3
# Si number density = 18.298974 Si / 1000 Ang^3
#
#
#
# Elastic Constant Matrix: (Units=GPa)
#
#
# Indices 1 2 3 4 5 6 
#
# 1 71.8508 46.8438 42.4229 -0.0001 0.0000 0.0000
# 2 46.8438 144.3138 58.0150 -0.0001 0.0000 0.0000
# 3 42.4229 58.0150 91.8121 -0.0005 -0.0001 0.0001
# 4 -0.0001 -0.0001 -0.0005 19.0413 0.0000 0.0000
# 5 0.0000 0.0000 -0.0001 0.0000 34.0440 0.0000
# 6 0.0000 0.0000 0.0001 0.0000 0.0000 26.6630
#
#
#
# Elastic Compliance Matrix: (Units=1/GPa)
#
#
# Indices 1 2 3 4 5 6 
#
# 1 0.020610 -0.003836 -0.007099 0.000000 0.000000 0.000000
# 2 -0.003836 0.010003 -0.004548 0.000000 0.000000 0.000000
# 3 -0.007099 -0.004548 0.017046 0.000000 0.000000 0.000000
# 4 0.000000 0.000000 0.000000 0.052517 0.000000 0.000000
# 5 0.000000 0.000000 0.000000 0.000000 0.029374 0.000000
# 6 0.000000 0.000000 0.000000 0.000000 0.000000 0.037505
#
#
# Mechanical properties :
#
#
# Convention : Reuss Voigt Hill
#
# Bulk Modulus (GPa) = 59.90831 66.94889 63.42860
# Shear Modulus (GPa) = 24.55955 26.66267 25.61111
#
# Velocity S-wave (km/s) = 3.66748 3.82128 3.74517
# Velocity P-wave (km/s) = 7.12345 7.49234 7.31022
#
# Compressibility (1/GPa) = 0.01669218
#
# Stress axis : x y z
#
# Youngs Moduli (GPa) = 48.51938 99.97058 58.66452
#
# Poissons Ratio (x) = 0.38350 0.41647
# Poissons Ratio (y) = 0.18612 0.26682
# Poissons Ratio (z) = 0.34445 0.45469
#
# Static dielectric constant tensor:
#      x y z
#    x 2.938630 0.000000 0.000000 
#    y 0.000000 3.561130 0.000000 
#    z 0.000000 0.000000 3.379350 
# 
# 
# High freq. dielectric constant tensor:
#      x y z
#    x 1.712790 0.000000 0.000000 
#    y 0.000000 1.706030 0.000000 
#    z 0.000000 0.000000 1.707150 
# 
# From -- ./inp_files/40059.got.cif
#   From: 2010.03.12/outbox.cif.g09.slc.cpg/sg74_21_cif.got.tgz:40059.got - 2010.04.16 15:46:19.
