data_PCOD8298971
_publ_section_title
;
Structure prediction by ZEFSAII (Michael W. Deem and Ramdas Pophale) SiO2 
 PCOD8298971
Probable space group: I M M A
;
_chemical_formula_sum "Si O2"
_cell_formula_units_Z 88
_cell_length_a 8.868386
_cell_length_b 21.760754
_cell_length_c 23.815130
_cell_angle_alpha 90.000000
_cell_angle_beta 90.000000
_cell_angle_gamma 90.000000
_cell_volume 4595.909663
_symmetry_space_group_name_H-M "I M M A"
_symmetry_group_IT_number 74
_symmetry_cell_setting 'orthorhombic'
loop_
_space_group_symop_operation_xyz
x,y,z
-x,1/2-y,z
x,-y,-z
-x,1/2+y,-z
-x,-y,-z
x,1/2+y,-z
-x,y,z
x,1/2-y,z
1/2+x,1/2+y,1/2+z
1/2-x,-y,1/2+z
1/2+x,1/2-y,1/2-z
1/2-x,y,1/2-z
1/2-x,1/2-y,1/2-z
1/2+x,y,1/2-z
1/2-x,1/2+y,1/2+z
1/2+x,-y,1/2+z
loop_
_atom_site_type_symbol
_atom_site_label
_atom_site_fract_x
_atom_site_fract_y
_atom_site_fract_z
Si Si1 0.823798 0.404006 0.405890
Si Si2 0.669861 0.683232 0.515680
Si Si3 0.327558 0.347953 0.607243
Si Si4 0.677769 0.680850 0.805880
Si Si5 0.178404 0.020705 0.938216
Si Si6 0.180368 0.750000 0.312492
O O1 0.782498 0.369706 0.463915
O O2 0.765207 0.359654 0.357169
O O3 0.735136 0.467383 0.396871
O O4 0.000000 0.417315 0.404042
O O5 0.500000 0.662893 0.532118
O O6 0.710070 0.750000 0.542071
O O7 0.681709 0.691857 0.449063
O O8 0.500000 0.353216 0.629039
O O9 0.262027 0.415425 0.589069
O O10 0.232422 0.312414 0.655101
O O11 0.500000 0.678884 0.800264
O O12 0.736821 0.750000 0.815560
O O13 0.750000 0.652572 0.750000
O O14 0.000000 0.025176 0.941889
O O15 0.242291 0.000000 0.000000
O O16 0.250000 0.750000 0.250000
O O17 0.000000 0.750000 0.308555
#
# Coordination Sequence:
#
# PCOD8298971 Si02
#       6
#    16  16  16  16  16   8
#     4  11  22  34  52  82 121 153 187 237 289 344
#     4  10  19  33  55  82 114 153 194 235 285 351
#     4  10  20  39  63  86 117 153 195 244 293 349
#     4   9  19  36  55  76 106 145 187 232 279 327
#     4  10  20  37  59  83 116 159 198 232 282 348
#     4  12  26  44  68  94 122 156 201 252 309 366
#
# _framework density 19.147461
#
# number of rings (size 3 to 8) (size 9 to 14) (size 15 to 20)
#    0.000    1.818    2.727    1.909    0.000    4.364 
#    0.000    2.727    0.000    2.182    0.000    0.000 
#    0.000    0.000    0.000    0.000    0.000    0.000 
#
# Total GULP energy -545323.841512 kJ/mol
# GULP energy per Si atom -12393.723671 kJ/mol
# Density = 1.910388 g / cm^3
# Si number density = 19.147461 Si / 1000 Ang^3
#
#
#
# Elastic Constant Matrix: (Units=GPa)
#
#
# Indices 1 2 3 4 5 6 
#
# 1 34.5032 36.5452 30.0359 0.0000 0.0000 0.0000
# 2 36.5452 149.0316 55.8061 0.0000 0.0000 0.0000
# 3 30.0359 55.8061 96.2377 0.0000 0.0000 0.0000
# 4 0.0000 0.0000 0.0000 13.0658 0.0000 0.0000
# 5 0.0000 0.0000 0.0000 0.0000 30.1752 0.0000
# 6 0.0000 0.0000 0.0000 0.0000 0.0000 31.5764
#
#
#
# Elastic Compliance Matrix: (Units=1/GPa)
#
#
# Indices 1 2 3 4 5 6 
#
# 1 0.045469 -0.007455 -0.009868 0.000000 0.000000 0.000000
# 2 -0.007455 0.009793 -0.003352 0.000000 0.000000 0.000000
# 3 -0.009868 -0.003352 0.015415 0.000000 0.000000 0.000000
# 4 0.000000 0.000000 0.000000 0.076536 0.000000 0.000000
# 5 0.000000 0.000000 0.000000 0.000000 0.033140 0.000000
# 6 0.000000 0.000000 0.000000 0.000000 0.000000 0.031669
#
#
# Mechanical properties :
#
#
# Convention : Reuss Voigt Hill
#
# Bulk Modulus (GPa) = 34.09840 58.28300 46.19070
# Shear Modulus (GPa) = 19.00072 25.45583 22.22827
#
# Velocity S-wave (km/s) = 3.15355 3.65014 3.41089
# Velocity P-wave (km/s) = 5.57735 6.94764 6.29987
#
# Compressibility (1/GPa) = 0.02932689
#
# Stress axis : x y z
#
# Youngs Moduli (GPa) = 21.99295 102.11069 64.87290
#
# Poissons Ratio (x) = 0.76120 0.64018
# Poissons Ratio (y) = 0.16395 0.21747
# Poissons Ratio (z) = 0.21703 0.34231
#
# Static dielectric constant tensor:
#      x y z
#    x 3.292640 0.000000 0.000000 
#    y 0.000000 3.722530 0.000000 
#    z 0.000000 0.000000 3.447940 
# 
# 
# High freq. dielectric constant tensor:
#      x y z
#    x 1.728420 0.000000 0.000000 
#    y 0.000000 1.757850 0.000000 
#    z 0.000000 0.000000 1.725330 
# 
# From -- ./inp_files/48758.got.cif
#   From: 2010.03.12/outbox.cif.g09.slc.cpg/sg74_25_cif.got.tgz:48758.got - 2010.04.16 15:46:19.
