data_PCOD8298302
_publ_section_title
;
Structure prediction by ZEFSAII (Michael W. Deem and Ramdas Pophale) SiO2 
 PCOD8298302
Probable space group: I M M A
;
_chemical_formula_sum "Si O2"
_cell_formula_units_Z 72
_cell_length_a 19.141673
_cell_length_b 22.882295
_cell_length_c 9.172415
_cell_angle_alpha 90.000000
_cell_angle_beta 90.000000
_cell_angle_gamma 90.000000
_cell_volume 4017.567378
_symmetry_space_group_name_H-M "I M M A"
_symmetry_group_IT_number 74
_symmetry_cell_setting 'orthorhombic'
loop_
_space_group_symop_operation_xyz
x,y,z
-x,1/2-y,z
x,-y,-z
-x,1/2+y,-z
-x,-y,-z
x,1/2+y,-z
-x,y,z
x,1/2-y,z
1/2+x,1/2+y,1/2+z
1/2-x,-y,1/2+z
1/2+x,1/2-y,1/2-z
1/2-x,y,1/2-z
1/2-x,1/2-y,1/2-z
1/2+x,y,1/2-z
1/2-x,1/2+y,1/2+z
1/2+x,-y,1/2+z
loop_
_atom_site_type_symbol
_atom_site_label
_atom_site_fract_x
_atom_site_fract_y
_atom_site_fract_z
Si Si1 0.578169 0.432180 0.474632
Si Si2 0.581014 0.182398 0.020689
Si Si3 0.325704 0.100732 0.206907
Si Si4 0.145570 0.000000 0.500000
Si Si5 0.580438 0.408955 0.785810
O O1 0.570616 0.500000 0.500000
O O2 0.500000 0.406511 0.440327
O O3 0.631228 0.420707 0.344986
O O4 0.613552 0.406060 0.623581
O O5 0.500000 0.172594 0.064609
O O6 0.599692 0.250000 0.004777
O O7 0.630317 0.154044 0.141415
O O8 0.597258 0.151760 0.866313
O O9 0.250000 0.125270 0.250000
O O10 0.310715 0.047553 0.092762
O O11 0.100113 0.964688 0.383352
O O12 0.500000 0.417948 0.754179
#
# Coordination Sequence:
#
# PCOD8298302 Si02
#       5
#    16  16  16   8  16
#     4  10  19  33  53  80 111 140 174 222 276 327
#     4   9  19  38  60  80 105 142 190 234 271 319
#     4  11  23  34  52  79 112 151 183 225 269 330
#     4  10  19  30  46  72 107 142 178 214 270 334
#     4   9  17  30  53  79 103 134 173 224 275 325
#
# _framework density 17.921292999999999
#
# number of rings (size 3 to 8) (size 9 to 14) (size 15 to 20)
#    0.000    2.222    2.222    1.000    1.556    2.222 
#    0.000    4.444    0.000    5.333    0.000    0.000 
#    0.000    0.000    0.000    0.000    0.000    0.000 
#
# Total GULP energy -446112.438943 kJ/mol
# GULP energy per Si atom -12392.012193 kJ/mol
# Density = 1.788050 g / cm^3
# Si number density = 17.921293 Si / 1000 Ang^3
#
#
#
# Elastic Constant Matrix: (Units=GPa)
#
#
# Indices 1 2 3 4 5 6 
#
# 1 74.6885 34.5306 49.8111 0.0000 0.0000 0.0000
# 2 34.5306 108.2253 38.0709 0.0000 0.0000 0.0000
# 3 49.8111 38.0709 118.0799 0.0000 0.0000 0.0000
# 4 0.0000 0.0000 0.0000 18.8109 0.0000 0.0000
# 5 0.0000 0.0000 0.0000 0.0000 11.8516 0.0000
# 6 0.0000 0.0000 0.0000 0.0000 0.0000 69.6582
#
#
#
# Elastic Compliance Matrix: (Units=1/GPa)
#
#
# Indices 1 2 3 4 5 6 
#
# 1 0.019952 -0.003841 -0.007178 0.000000 0.000000 0.000000
# 2 -0.003841 0.011161 -0.001978 0.000000 0.000000 0.000000
# 3 -0.007178 -0.001978 0.012135 0.000000 0.000000 0.000000
# 4 0.000000 0.000000 0.000000 0.053161 0.000000 0.000000
# 5 0.000000 0.000000 0.000000 0.000000 0.084376 0.000000
# 6 0.000000 0.000000 0.000000 0.000000 0.000000 0.014356
#
#
# Mechanical properties :
#
#
# Convention : Reuss Voigt Hill
#
# Bulk Modulus (GPa) = 57.96008 60.64656 59.30332
# Shear Modulus (GPa) = 22.03739 31.96954 27.00346
#
# Velocity S-wave (km/s) = 3.51048 4.22819 3.88594
# Velocity P-wave (km/s) = 6.98877 7.59939 7.30047
#
# Compressibility (1/GPa) = 0.01725325
#
# Stress axis : x y z
#
# Youngs Moduli (GPa) = 50.12040 89.59461 82.40751
#
# Poissons Ratio (x) = 0.34411 0.59154
# Poissons Ratio (y) = 0.19250 0.16304
# Poissons Ratio (z) = 0.35978 0.17726
#
# Static dielectric constant tensor:
#      x y z
#    x 3.145000 0.000000 0.000000 
#    y 0.000000 3.304330 0.000000 
#    z 0.000000 0.000000 -1.147580 
# 
# 
# High freq. dielectric constant tensor:
#      x y z
#    x 1.672330 0.000000 0.000000 
#    y 0.000000 1.674170 0.000000 
#    z 0.000000 0.000000 1.711460 
# 
# From -- ./inp_files/10652.got.cif
#   From: 2010.03.12/outbox.cif.g09.slc.cpg/sg74_6_cif.got.tgz:10652.got - 2010.04.16 15:46:19.
