data_PCOD8298200
_publ_section_title
;
Structure prediction by ZEFSAII (Michael W. Deem and Ramdas Pophale) SiO2 
 PCOD8298200
Probable space group: I M M A
;
_chemical_formula_sum "Si O2"
_cell_formula_units_Z 72
_cell_length_a 9.291919
_cell_length_b 12.791512
_cell_length_c 31.726696
_cell_angle_alpha 90.000000
_cell_angle_beta 90.000000
_cell_angle_gamma 90.000000
_cell_volume 3770.961905
_symmetry_space_group_name_H-M "I M M A"
_symmetry_group_IT_number 74
_symmetry_cell_setting 'orthorhombic'
loop_
_space_group_symop_operation_xyz
x,y,z
-x,1/2-y,z
x,-y,-z
-x,1/2+y,-z
-x,-y,-z
x,1/2+y,-z
-x,y,z
x,1/2-y,z
1/2+x,1/2+y,1/2+z
1/2-x,-y,1/2+z
1/2+x,1/2-y,1/2-z
1/2-x,y,1/2-z
1/2-x,1/2-y,1/2-z
1/2+x,y,1/2-z
1/2-x,1/2+y,1/2+z
1/2+x,-y,1/2+z
loop_
_atom_site_type_symbol
_atom_site_label
_atom_site_fract_x
_atom_site_fract_y
_atom_site_fract_z
Si Si1 0.831719 0.581519 0.860685
Si Si2 0.667754 0.250000 0.293404
Si Si3 0.660326 0.626384 0.479686
Si Si4 0.840896 0.370363 0.443299
Si Si5 0.669471 0.863761 0.387291
O O1 0.787642 0.645698 0.819118
O O2 0.742329 0.624276 0.899473
O O3 0.795975 0.457160 0.854267
O O4 0.000000 0.599046 0.870607
O O5 0.500000 0.250000 0.283266
O O6 0.750000 0.250000 0.250000
O O7 0.500000 0.579659 0.482503
O O8 0.654650 0.750000 0.485201
O O9 0.751062 0.575254 0.518499
O O10 0.731157 0.602091 0.433453
O O11 0.859879 0.250000 0.455267
O O12 0.000000 0.422124 0.439601
O O13 0.500000 0.850525 0.393220
O O14 0.732623 0.750000 0.372536
#
# Coordination Sequence:
#
# PCOD8298200 Si02
#       5
#    16   8  16  16  16
#     4  10  19  33  54  77  99 126 165 209 253 303
#     4  10  22  38  58  82 104 128 158 202 262 320
#     4   8  14  26  44  65  93 132 174 214 250 285
#     4  10  19  29  43  67 101 138 174 212 254 297
#     4   8  15  29  50  75 100 130 172 214 247 283
#
# _framework density 19.093271999999999
#
# number of rings (size 3 to 8) (size 9 to 14) (size 15 to 20)
#    0.000    2.889    1.111    2.000    0.000    2.667 
#    0.000    5.556    0.000    2.667    0.000    0.000 
#    0.000    0.000    0.000    0.000    0.000    0.000 
#
# Total GULP energy -446069.317136 kJ/mol
# GULP energy per Si atom -12390.814365 kJ/mol
# Density = 1.904981 g / cm^3
# Si number density = 19.093272 Si / 1000 Ang^3
#
#
#
# Elastic Constant Matrix: (Units=GPa)
#
#
# Indices 1 2 3 4 5 6 
#
# 1 76.8096 16.9980 51.9751 0.0000 0.0000 0.0000
# 2 16.9980 117.8607 71.0110 0.0000 0.0000 0.0000
# 3 51.9751 71.0110 124.0351 0.0000 0.0000 0.0000
# 4 0.0000 0.0000 0.0000 24.3509 0.0000 0.0000
# 5 0.0000 0.0000 0.0000 0.0000 17.6909 0.0000
# 6 0.0000 0.0000 0.0000 0.0000 0.0000 8.7932
#
#
#
# Elastic Compliance Matrix: (Units=1/GPa)
#
#
# Indices 1 2 3 4 5 6 
#
# 1 0.018896 0.003122 -0.009706 0.000000 0.000000 0.000000
# 2 0.003122 0.013468 -0.009019 0.000000 0.000000 0.000000
# 3 -0.009706 -0.009019 0.017293 0.000000 0.000000 0.000000
# 4 0.000000 0.000000 0.000000 0.041066 0.000000 0.000000
# 5 0.000000 0.000000 0.000000 0.000000 0.056526 0.000000
# 6 0.000000 0.000000 0.000000 0.000000 0.000000 0.113724
#
#
# Mechanical properties :
#
#
# Convention : Reuss Voigt Hill
#
# Bulk Modulus (GPa) = 54.19397 66.51928 60.35663
# Shear Modulus (GPa) = 16.76005 22.08176 19.42090
#
# Velocity S-wave (km/s) = 2.96598 3.40445 3.19275
# Velocity P-wave (km/s) = 6.33836 7.09708 6.72842
#
# Compressibility (1/GPa) = 0.01845224
#
# Stress axis : x y z
#
# Youngs Moduli (GPa) = 52.92196 74.24848 57.82771
#
# Poissons Ratio (x) = -0.23184 0.56125
# Poissons Ratio (y) = -0.16525 0.52156
# Poissons Ratio (z) = 0.51364 0.66966
#
# Static dielectric constant tensor:
#      x y z
#    x 3.446580 0.000000 0.000000 
#    y 0.000000 3.973090 0.000000 
#    z 0.000000 0.000000 3.115170 
# 
# 
# High freq. dielectric constant tensor:
#      x y z
#    x 1.711930 0.000000 0.000000 
#    y 0.000000 1.770960 0.000000 
#    z 0.000000 0.000000 1.693190 
# 
# From -- ./inp_files/69980.got.cif
#   From: 2010.03.12/outbox.cif.g09.slc.cpg/sg74_35_cif.got.tgz:69980.got - 2010.04.16 15:46:19.
