data_PCOD8298754
_publ_section_title
;
Structure prediction by ZEFSAII (Michael W. Deem and Ramdas Pophale) SiO2 
 PCOD8298754
Probable space group: I M M A
;
_chemical_formula_sum "Si O2"
_cell_formula_units_Z 96
_cell_length_a 27.715103
_cell_length_b 8.767030
_cell_length_c 20.641596
_cell_angle_alpha 90.000000
_cell_angle_beta 90.000000
_cell_angle_gamma 90.000000
_cell_volume 5015.477233
_symmetry_space_group_name_H-M "I M M A"
_symmetry_group_IT_number 74
_symmetry_cell_setting 'orthorhombic'
loop_
_space_group_symop_operation_xyz
x,y,z
-x,1/2-y,z
x,-y,-z
-x,1/2+y,-z
-x,-y,-z
x,1/2+y,-z
-x,y,z
x,1/2-y,z
1/2+x,1/2+y,1/2+z
1/2-x,-y,1/2+z
1/2+x,1/2-y,1/2-z
1/2-x,y,1/2-z
1/2-x,1/2-y,1/2-z
1/2+x,y,1/2-z
1/2-x,1/2+y,1/2+z
1/2+x,-y,1/2+z
loop_
_atom_site_type_symbol
_atom_site_label
_atom_site_fract_x
_atom_site_fract_y
_atom_site_fract_z
Si Si1 0.278317 0.929593 0.432899
Si Si2 0.054158 0.931427 0.813639
Si Si3 0.784002 0.427963 0.691300
Si Si4 0.387890 0.930771 0.809459
Si Si5 0.944969 0.930256 0.566718
Si Si6 0.618735 0.568789 0.567689
O O1 0.286050 0.750000 0.441451
O O2 0.240542 0.968478 0.376873
O O3 0.258431 0.000000 0.500000
O O4 0.328931 0.004914 0.413695
O O5 0.052907 0.750000 0.810879
O O6 0.082188 0.996934 0.751263
O O7 0.081300 0.986854 0.878104
O O8 0.000000 0.997997 0.814177
O O9 0.795448 0.250000 0.697288
O O10 0.750000 0.482016 0.750000
O O11 0.833094 0.519459 0.696154
O O12 0.390343 0.750000 0.809069
O O13 0.412090 0.994662 0.875134
O O14 0.941393 0.750000 0.561855
O O15 0.000000 0.982630 0.579269
O O16 0.925018 0.000000 0.500000
O O17 0.600484 0.500000 0.500000
O O18 0.621767 0.750000 0.562629
#
# Coordination Sequence:
#
# PCOD8298754 Si02
#       6
#    16  16  16  16  16  16
#     4  10  20  35  55  76 102 136 170 208 253 302
#     4   9  18  33  53  77 104 134 170 211 253 297
#     4  10  22  38  54  74 103 137 169 207 258 308
#     4  10  20  34  55  79 101 131 172 215 253 294
#     4   9  18  33  53  77 105 136 169 206 250 300
#     4  10  19  32  53  78 104 135 169 208 252 299
#
# _framework density 19.140751000000002
#
# number of rings (size 3 to 8) (size 9 to 14) (size 15 to 20)
#    0.000    2.333    0.000    3.500    0.000    5.333 
#    0.000    4.167    0.000    5.000    0.000    0.000 
#    0.000    0.000    0.000    0.000    0.000    0.000 
#
# Total GULP energy -595283.998662 kJ/mol
# GULP energy per Si atom -12401.749972 kJ/mol
# Density = 1.909719 g / cm^3
# Si number density = 19.140751 Si / 1000 Ang^3
#
#
#
# Elastic Constant Matrix: (Units=GPa)
#
#
# Indices 1 2 3 4 5 6 
#
# 1 122.2768 24.3787 87.0148 0.0000 0.0000 0.0000
# 2 24.3787 42.7294 34.9620 0.0000 0.0000 0.0000
# 3 87.0148 34.9620 162.2334 0.0000 0.0000 0.0000
# 4 0.0000 0.0000 0.0000 26.6364 0.0000 0.0000
# 5 0.0000 0.0000 0.0000 0.0000 41.1946 0.0000
# 6 0.0000 0.0000 0.0000 0.0000 0.0000 21.8958
#
#
#
# Elastic Compliance Matrix: (Units=1/GPa)
#
#
# Indices 1 2 3 4 5 6 
#
# 1 0.013386 -0.002140 -0.006718 0.000000 0.000000 0.000000
# 2 -0.002140 0.028755 -0.005049 0.000000 0.000000 0.000000
# 3 -0.006718 -0.005049 0.010855 0.000000 0.000000 0.000000
# 4 0.000000 0.000000 0.000000 0.037543 0.000000 0.000000
# 5 0.000000 0.000000 0.000000 0.000000 0.024275 0.000000
# 6 0.000000 0.000000 0.000000 0.000000 0.000000 0.045671
#
#
# Mechanical properties :
#
#
# Convention : Reuss Voigt Hill
#
# Bulk Modulus (GPa) = 39.71145 68.88341 54.29743
# Shear Modulus (GPa) = 25.42024 30.00431 27.71228
#
# Velocity S-wave (km/s) = 3.64822 3.96354 3.80915
# Velocity P-wave (km/s) = 6.20791 7.55064 6.91196
#
# Compressibility (1/GPa) = 0.02518166
#
# Stress axis : x y z
#
# Youngs Moduli (GPa) = 74.70634 34.77623 92.11943
#
# Poissons Ratio (x) = 0.07442 0.61889
# Poissons Ratio (y) = 0.15987 0.46512
# Poissons Ratio (z) = 0.50190 0.17559
#
# Static dielectric constant tensor:
#      x y z
#    x 3.493600 0.000000 0.000000 
#    y 0.000000 3.265530 0.000000 
#    z 0.000000 0.000000 3.817270 
# 
# 
# High freq. dielectric constant tensor:
#      x y z
#    x 1.744390 0.000000 0.000000 
#    y 0.000000 1.723560 0.000000 
#    z 0.000000 0.000000 1.763860 
# 
# From -- ./inp_files/49074.got.cif
#   From: 2010.03.12/outbox.cif.g09.slc.cpg/sg74_25_cif.got.tgz:49074.got - 2010.04.16 15:46:19.
