data_PCOD8298549
_publ_section_title
;
Structure prediction by ZEFSAII (Michael W. Deem and Ramdas Pophale) SiO2 
 PCOD8298549
Probable space group: I M M A
;
_chemical_formula_sum "Si O2"
_cell_formula_units_Z 88
_cell_length_a 17.073067
_cell_length_b 13.575034
_cell_length_c 20.516919
_cell_angle_alpha 90.000000
_cell_angle_beta 90.000000
_cell_angle_gamma 90.000000
_cell_volume 4755.154306
_symmetry_space_group_name_H-M "I M M A"
_symmetry_group_IT_number 74
_symmetry_cell_setting 'orthorhombic'
loop_
_space_group_symop_operation_xyz
x,y,z
-x,1/2-y,z
x,-y,-z
-x,1/2+y,-z
-x,-y,-z
x,1/2+y,-z
-x,y,z
x,1/2-y,z
1/2+x,1/2+y,1/2+z
1/2-x,-y,1/2+z
1/2+x,1/2-y,1/2-z
1/2-x,y,1/2-z
1/2-x,1/2-y,1/2-z
1/2+x,y,1/2-z
1/2-x,1/2+y,1/2+z
1/2+x,-y,1/2+z
loop_
_atom_site_type_symbol
_atom_site_label
_atom_site_fract_x
_atom_site_fract_y
_atom_site_fract_z
Si Si1 0.784669 0.136886 0.399557
Si Si2 0.093006 0.858308 0.240529
Si Si3 0.587437 0.549529 0.392035
Si Si4 0.407768 0.448958 0.189934
Si Si5 0.202393 0.000000 0.000000
Si Si6 0.130071 0.859810 0.824878
O O1 0.799884 0.250000 0.419346
O O2 0.864875 0.087045 0.375159
O O3 0.756162 0.078780 0.463294
O O4 0.722078 0.128181 0.341014
O O5 0.125459 0.750000 0.259871
O O6 0.121570 0.885772 0.167726
O O7 0.000000 0.859522 0.238818
O O8 0.121290 0.939803 0.292568
O O9 0.500000 0.583177 0.413158
O O10 0.646770 0.562433 0.451672
O O11 0.581194 0.435960 0.368610
O O12 0.500000 0.445416 0.176566
O O13 0.384937 0.376656 0.248728
O O14 0.101595 0.750000 0.842968
#
# Coordination Sequence:
#
# PCOD8298549 Si02
#       6
#    16  16  16  16   8  16
#     4  10  21  36  52  71  99 134 167 204 250 296
#     4   8  15  29  49  75 104 126 149 192 251 307
#     4   9  17  29  49  75 100 130 167 206 244 287
#     4  10  19  31  52  79 101 125 161 205 252 300
#     4  10  21  36  49  64  98 140 180 210 237 284
#     4   9  17  30  50  76 105 131 154 192 254 318
#
# _framework density 18.506233000000002
#
# number of rings (size 3 to 8) (size 9 to 14) (size 15 to 20)
#    0.000    2.727    0.000    3.000    0.000    4.727 
#    0.000    1.364    0.000   17.455    0.000    0.000 
#    0.000    0.000    0.000    0.000    0.000    0.000 
#
# Total GULP energy -545480.407932 kJ/mol
# GULP energy per Si atom -12397.281998 kJ/mol
# Density = 1.846411 g / cm^3
# Si number density = 18.506233 Si / 1000 Ang^3
#
#
#
# Elastic Constant Matrix: (Units=GPa)
#
#
# Indices 1 2 3 4 5 6 
#
# 1 79.1891 43.1985 50.7595 0.0000 0.0000 0.0000
# 2 43.1985 131.8827 49.9286 0.0000 0.0000 0.0000
# 3 50.7595 49.9286 91.6010 0.0000 0.0000 0.0000
# 4 0.0000 0.0000 0.0000 20.2008 0.0000 0.0000
# 5 0.0000 0.0000 0.0000 0.0000 21.9252 0.0000
# 6 0.0000 0.0000 0.0000 0.0000 0.0000 19.7443
#
#
#
# Elastic Compliance Matrix: (Units=1/GPa)
#
#
# Indices 1 2 3 4 5 6 
#
# 1 0.020510 -0.003043 -0.009707 0.000000 0.000000 0.000000
# 2 -0.003043 0.010006 -0.003767 0.000000 0.000000 0.000000
# 3 -0.009707 -0.003767 0.018349 0.000000 0.000000 0.000000
# 4 0.000000 0.000000 0.000000 0.049503 0.000000 0.000000
# 5 0.000000 0.000000 0.000000 0.000000 0.045610 0.000000
# 6 0.000000 0.000000 0.000000 0.000000 0.000000 0.050648
#
#
# Mechanical properties :
#
#
# Convention : Reuss Voigt Hill
#
# Bulk Modulus (GPa) = 63.16983 65.60513 64.38748
# Shear Modulus (GPa) = 21.46514 22.95980 22.21247
#
# Velocity S-wave (km/s) = 3.40941 3.52611 3.46825
# Velocity P-wave (km/s) = 7.05033 7.21839 7.13486
#
# Compressibility (1/GPa) = 0.01583034
#
# Stress axis : x y z
#
# Youngs Moduli (GPa) = 48.75674 99.94426 54.49868
#
# Poissons Ratio (x) = 0.30417 0.52899
# Poissons Ratio (y) = 0.14838 0.20531
# Poissons Ratio (z) = 0.47326 0.37652
#
# Static dielectric constant tensor:
#      x y z
#    x 3.215330 0.000000 0.000000 
#    y 0.000000 3.659360 0.000000 
#    z 0.000000 0.000000 3.126430 
# 
# 
# High freq. dielectric constant tensor:
#      x y z
#    x 1.701020 0.000000 0.000000 
#    y 0.000000 1.722130 0.000000 
#    z 0.000000 0.000000 1.687930 
# 
# From -- ./inp_files/43951.got.cif
#   From: 2010.03.12/outbox.cif.g09.slc.cpg/sg74_22_cif.got.tgz:43951.got - 2010.04.16 15:46:19.
