data_PCOD8298106
_publ_section_title
;
Structure prediction by ZEFSAII (Michael W. Deem and Ramdas Pophale) SiO2 
 PCOD8298106
Probable space group: I M M A
;
_chemical_formula_sum "Si O2"
_cell_formula_units_Z 76
_cell_length_a 11.130295
_cell_length_b 14.475154
_cell_length_c 26.185196
_cell_angle_alpha 90.000000
_cell_angle_beta 90.000000
_cell_angle_gamma 90.000000
_cell_volume 4218.768523
_symmetry_space_group_name_H-M "I M M A"
_symmetry_group_IT_number 74
_symmetry_cell_setting 'orthorhombic'
loop_
_space_group_symop_operation_xyz
x,y,z
-x,1/2-y,z
x,-y,-z
-x,1/2+y,-z
-x,-y,-z
x,1/2+y,-z
-x,y,z
x,1/2-y,z
1/2+x,1/2+y,1/2+z
1/2-x,-y,1/2+z
1/2+x,1/2-y,1/2-z
1/2-x,y,1/2-z
1/2-x,1/2-y,1/2-z
1/2+x,y,1/2-z
1/2-x,1/2+y,1/2+z
1/2+x,-y,1/2+z
loop_
_atom_site_type_symbol
_atom_site_label
_atom_site_fract_x
_atom_site_fract_y
_atom_site_fract_z
Si Si1 0.868117 0.250000 0.136934
Si Si2 0.250000 0.953498 0.250000
Si Si3 0.000000 0.355169 0.765564
Si Si4 0.500000 0.750000 0.447336
Si Si5 0.361821 0.426671 0.043948
Si Si6 0.204422 0.750000 0.972766
Si Si7 0.223744 0.449805 0.143418
Si Si8 0.500000 0.925956 0.376252
O O1 0.882180 0.250000 0.075944
O O2 0.799148 0.158246 0.154181
O O3 0.000000 0.250000 0.161995
O O4 0.125682 0.896858 0.254634
O O5 0.257614 0.013426 0.198921
O O6 0.000000 0.365308 0.825746
O O7 0.000000 0.250000 0.748046
O O8 0.622978 0.750000 0.477826
O O9 0.500000 0.847641 0.418740
O O10 0.500000 0.398879 0.045777
O O11 0.287500 0.338670 0.027358
O O12 0.327048 0.462578 0.100771
O O13 0.335001 0.500000 0.000000
O O14 0.112087 0.505271 0.119880
#
# Coordination Sequence:
#
# PCOD8298106 Si02
#       8
#     8   8   8   4  16   8  16   8
#     4  10  18  36  56  80 114 148 185 233 307 348
#     4  10  23  37  64  88 120 156 204 252 302 356
#     4  10  20  40  60  87 119 162 196 244 299 363
#     4  12  20  32  58  88 120 148 196 238 300 366
#     4  10  21  37  57  78 114 155 194 237 288 348
#     4  10  21  34  54  83 110 149 192 234 285 350
#     4  10  21  37  59  85 116 153 196 249 297 358
#     4  10  20  34  55  87 120 145 188 247 300 348
#
# _framework density 18.014734000000001
#
# number of rings (size 3 to 8) (size 9 to 14) (size 15 to 20)
#    0.000    1.895    2.105    1.895    1.474    0.421 
#    0.000    3.158    0.000    0.000    0.000    0.000 
#    0.000    0.000    0.000    0.000    0.000    0.000 
#
# Total GULP energy -470949.191489 kJ/mol
# GULP energy per Si atom -12393.399776 kJ/mol
# Density = 1.797373 g / cm^3
# Si number density = 18.014734 Si / 1000 Ang^3
#
#
#
# Elastic Constant Matrix: (Units=GPa)
#
#
# Indices 1 2 3 4 5 6 
#
# 1 125.6173 67.1072 60.1908 0.0000 0.0000 0.0000
# 2 67.1072 136.0359 65.4581 0.0000 0.0000 0.0000
# 3 60.1908 65.4581 121.1007 0.0000 0.0000 0.0000
# 4 0.0000 0.0000 0.0000 7.8796 0.0000 0.0000
# 5 0.0000 0.0000 0.0000 0.0000 31.7237 0.0000
# 6 0.0000 0.0000 0.0000 0.0000 0.0000 -4.5257
#
#
#
# Elastic Compliance Matrix: (Units=1/GPa)
#
#
# Indices 1 2 3 4 5 6 
#
# 1 0.011930 -0.004098 -0.003715 0.000000 0.000000 0.000000
# 2 -0.004098 0.011342 -0.004094 0.000000 0.000000 0.000000
# 3 -0.003715 -0.004094 0.012317 0.000000 0.000000 0.000000
# 4 0.000000 0.000000 0.000000 0.126909 0.000000 0.000000
# 5 0.000000 0.000000 0.000000 0.000000 0.031522 0.000000
# 6 0.000000 0.000000 0.000000 0.000000 0.000000 -0.220958
#
#
# Mechanical properties :
#
#
# Convention : Reuss Voigt Hill
#
# Bulk Modulus (GPa) = 84.91722 85.36291 85.14007
# Shear Modulus (GPa) = 6246.61171 19.68204 3133.14687
#
# Velocity S-wave (km/s) = 58.94938 3.30896 41.74912
# Velocity P-wave (km/s) = 68.41500 7.87952 48.69650
#
# Compressibility (1/GPa) = 0.01177617
#
# Stress axis : x y z
#
# Youngs Moduli (GPa) = 83.82574 88.16458 81.18939
#
# Poissons Ratio (x) = 0.36126 0.30158
# Poissons Ratio (y) = 0.34348 0.33241
# Poissons Ratio (z) = 0.31137 0.36097
#
# Static dielectric constant tensor:
#      x y z
#    x 3.402730 0.000000 0.000000 
#    y 0.000000 3.481130 0.000000 
#    z 0.000000 0.000000 3.302530 
# 
# 
# High freq. dielectric constant tensor:
#      x y z
#    x 1.706940 0.000000 0.000000 
#    y 0.000000 1.710490 0.000000 
#    z 0.000000 0.000000 1.695710 
# 
# From -- ./inp_files/71605.got.cif
#   From: 2010.03.12/outbox.cif.g09.slc.cpg/sg74_36_cif.got.tgz:71605.got - 2010.04.16 15:46:19.
