data_PCOD8298287
_publ_section_title
;
Structure prediction by ZEFSAII (Michael W. Deem and Ramdas Pophale) SiO2 
 PCOD8298287
Probable space group: I M M A
;
_chemical_formula_sum "Si O2"
_cell_formula_units_Z 64
_cell_length_a 13.617190
_cell_length_b 13.735611
_cell_length_c 16.891617
_cell_angle_alpha 90.000000
_cell_angle_beta 90.000000
_cell_angle_gamma 90.000000
_cell_volume 3159.415218
_symmetry_space_group_name_H-M "I M M A"
_symmetry_group_IT_number 74
_symmetry_cell_setting 'orthorhombic'
loop_
_space_group_symop_operation_xyz
x,y,z
-x,1/2-y,z
x,-y,-z
-x,1/2+y,-z
-x,-y,-z
x,1/2+y,-z
-x,y,z
x,1/2-y,z
1/2+x,1/2+y,1/2+z
1/2-x,-y,1/2+z
1/2+x,1/2-y,1/2-z
1/2-x,y,1/2-z
1/2-x,1/2-y,1/2-z
1/2+x,y,1/2-z
1/2-x,1/2+y,1/2+z
1/2+x,-y,1/2+z
loop_
_atom_site_type_symbol
_atom_site_label
_atom_site_fract_x
_atom_site_fract_y
_atom_site_fract_z
Si Si1 0.890818 0.135302 0.977361
Si Si2 0.217221 0.864718 0.869496
Si Si3 0.614218 0.049881 0.222516
Si Si4 0.616158 0.643120 0.304210
O O1 0.897413 0.250000 0.989267
O O2 0.843051 0.112416 0.891190
O O3 0.000000 0.090277 0.985474
O O4 0.823868 0.091258 0.047895
O O5 0.234557 0.750000 0.874893
O O6 0.322125 0.915010 0.851995
O O7 0.139455 0.886131 0.799672
O O8 0.500000 0.061050 0.201769
O O9 0.644953 0.937255 0.239264
O O10 0.500000 0.648345 0.314716
O O11 0.655844 0.750000 0.277844
#
# Coordination Sequence:
#
# PCOD8298287 Si02
#       4
#    16  16  16  16
#     4   8  14  27  48  72  98 126 154 191 241 289
#     4  10  20  31  43  66  99 131 164 196 231 282
#     4  10  19  30  46  69  96 126 159 194 238 289
#     4   8  15  29  49  73  98 121 150 195 249 296
#
# _framework density 20.256913000000001
#
# number of rings (size 3 to 8) (size 9 to 14) (size 15 to 20)
#    0.000    3.000    0.000    3.750    0.000    4.000 
#    0.000    6.250    0.000    0.000    0.000   19.250 
#    0.000   14.000    0.000    0.000    0.000    0.000 
#
# Total GULP energy -396601.605805 kJ/mol
# GULP energy per Si atom -12393.800181 kJ/mol
# Density = 2.021081 g / cm^3
# Si number density = 20.256913 Si / 1000 Ang^3
#
#
#
# Elastic Constant Matrix: (Units=GPa)
#
#
# Indices 1 2 3 4 5 6 
#
# 1 107.8521 24.2692 41.6085 0.0000 0.0000 0.0000
# 2 24.2692 92.3688 25.9256 0.0000 0.0000 0.0000
# 3 41.6085 25.9256 68.3092 0.0000 0.0000 0.0000
# 4 0.0000 0.0000 0.0000 10.0939 0.0000 0.0000
# 5 0.0000 0.0000 0.0000 0.0000 23.9627 0.0000
# 6 0.0000 0.0000 0.0000 0.0000 0.0000 14.0259
#
#
#
# Elastic Compliance Matrix: (Units=1/GPa)
#
#
# Indices 1 2 3 4 5 6 
#
# 1 0.012249 -0.001258 -0.006984 0.000000 0.000000 0.000000
# 2 -0.001258 0.012246 -0.003881 0.000000 0.000000 0.000000
# 3 -0.006984 -0.003881 0.020366 0.000000 0.000000 0.000000
# 4 0.000000 0.000000 0.000000 0.099070 0.000000 0.000000
# 5 0.000000 0.000000 0.000000 0.000000 0.041732 0.000000
# 6 0.000000 0.000000 0.000000 0.000000 0.000000 0.071297
#
#
# Mechanical properties :
#
#
# Convention : Reuss Voigt Hill
#
# Bulk Modulus (GPa) = 48.50820 50.23739 49.37279
# Shear Modulus (GPa) = 17.35639 21.39830 19.37735
#
# Velocity S-wave (km/s) = 2.93031 3.25367 3.09622
# Velocity P-wave (km/s) = 5.95378 6.24253 6.09986
#
# Compressibility (1/GPa) = 0.02061507
#
# Stress axis : x y z
#
# Youngs Moduli (GPa) = 81.63681 81.65822 49.10053
#
# Poissons Ratio (x) = 0.10275 0.34291
# Poissons Ratio (y) = 0.10272 0.19058
# Poissons Ratio (z) = 0.57013 0.31695
#
# Static dielectric constant tensor:
#      x y z
#    x 3.547500 0.000000 0.000000 
#    y 0.000000 3.939750 0.000000 
#    z 0.000000 0.000000 3.639820 
# 
# 
# High freq. dielectric constant tensor:
#      x y z
#    x 1.765200 0.000000 0.000000 
#    y 0.000000 1.810300 0.000000 
#    z 0.000000 0.000000 1.765030 
# 
# From -- ./inp_files/31697.got.cif
#   From: 2010.03.12/outbox.cif.g09.slc.cpg/sg74_16_cif.got.tgz:31697.got - 2010.04.16 15:46:19.
