data_PCOD8298775
_publ_section_title
;
Structure prediction by ZEFSAII (Michael W. Deem and Ramdas Pophale) SiO2 
 PCOD8298775
Probable space group: I M M A
;
_chemical_formula_sum "Si O2"
_cell_formula_units_Z 112
_cell_length_a 19.619462
_cell_length_b 13.917289
_cell_length_c 22.747313
_cell_angle_alpha 90.000000
_cell_angle_beta 90.000000
_cell_angle_gamma 90.000000
_cell_volume 6211.147506
_symmetry_space_group_name_H-M "I M M A"
_symmetry_group_IT_number 74
_symmetry_cell_setting 'orthorhombic'
loop_
_space_group_symop_operation_xyz
x,y,z
-x,1/2-y,z
x,-y,-z
-x,1/2+y,-z
-x,-y,-z
x,1/2+y,-z
-x,y,z
x,1/2-y,z
1/2+x,1/2+y,1/2+z
1/2-x,-y,1/2+z
1/2+x,1/2-y,1/2-z
1/2-x,y,1/2-z
1/2-x,1/2-y,1/2-z
1/2+x,y,1/2-z
1/2-x,1/2+y,1/2+z
1/2+x,-y,1/2+z
loop_
_atom_site_type_symbol
_atom_site_label
_atom_site_fract_x
_atom_site_fract_y
_atom_site_fract_z
Si Si1 0.673324 0.022974 0.934385
Si Si2 0.579424 0.526646 0.265510
Si Si3 0.180094 0.859999 0.781669
Si Si4 0.197146 0.361661 0.966162
Si Si5 0.738094 0.140384 0.405961
Si Si6 0.580064 0.859666 0.149814
Si Si7 0.922635 0.361882 0.882925
O O1 0.741364 0.086596 0.933286
O O2 0.613599 0.077425 0.901196
O O3 0.693348 0.923653 0.901374
O O4 0.647245 0.000000 0.000000
O O5 0.500000 0.500865 0.263444
O O6 0.619975 0.427321 0.258494
O O7 0.600133 0.597894 0.213035
O O8 0.599661 0.579179 0.325651
O O9 0.160865 0.750000 0.766577
O O10 0.250000 0.889411 0.750000
O O11 0.187973 0.875218 0.851418
O O12 0.210277 0.250000 0.957771
O O13 0.125523 0.392309 0.937124
O O14 0.196099 0.389626 0.035248
O O15 0.763582 0.250000 0.408848
O O16 0.500000 0.864591 0.139186
O O17 0.606234 0.750000 0.146896
O O18 0.914911 0.250000 0.867151
O O19 0.000000 0.386021 0.901528
#
# Coordination Sequence:
#
# PCOD8298775 Si02
#       7
#    16  16  16  16  16  16  16
#     4  10  19  32  54  77 102 133 165 204 249 299
#     4  10  20  34  52  74 102 136 171 209 255 303
#     4  10  20  34  53  74  97 130 172 216 259 303
#     4   9  17  30  49  74 103 135 172 212 255 302
#     4   9  18  32  50  73 101 134 172 212 255 301
#     4  10  21  37  56  78 104 132 163 203 253 307
#     4   9  17  30  49  74 105 140 175 210 251 301
#
# _framework density 18.032094000000001
#
# number of rings (size 3 to 8) (size 9 to 14) (size 15 to 20)
#    0.000    2.429    0.000    2.571    0.000    2.857 
#    0.000    0.714    0.000   13.714    0.000    0.000 
#    0.000    0.000    0.000    0.000    0.000    0.000 
#
# Total GULP energy -694444.627429 kJ/mol
# GULP energy per Si atom -12400.796918 kJ/mol
# Density = 1.799105 g / cm^3
# Si number density = 18.032094 Si / 1000 Ang^3
#
#
#
# Elastic Constant Matrix: (Units=GPa)
#
#
# Indices 1 2 3 4 5 6 
#
# 1 66.9645 54.4398 51.1097 0.0000 0.0000 0.0000
# 2 54.4398 95.0351 49.5211 0.0000 0.0000 0.0000
# 3 51.1097 49.5211 94.0139 0.0000 0.0000 0.0000
# 4 0.0000 0.0000 0.0000 30.4310 0.0000 0.0000
# 5 0.0000 0.0000 0.0000 0.0000 27.0158 0.0000
# 6 0.0000 0.0000 0.0000 0.0000 0.0000 35.0142
#
#
#
# Elastic Compliance Matrix: (Units=1/GPa)
#
#
# Indices 1 2 3 4 5 6 
#
# 1 0.035465 -0.014154 -0.011825 0.000000 0.000000 0.000000
# 2 -0.014154 0.020152 -0.002920 0.000000 0.000000 0.000000
# 3 -0.011825 -0.002920 0.018603 0.000000 0.000000 0.000000
# 4 0.000000 0.000000 0.000000 0.032861 0.000000 0.000000
# 5 0.000000 0.000000 0.000000 0.000000 0.037015 0.000000
# 6 0.000000 0.000000 0.000000 0.000000 0.000000 0.028560
#
#
# Mechanical properties :
#
#
# Convention : Reuss Voigt Hill
#
# Bulk Modulus (GPa) = 60.89219 62.90607 61.89913
# Shear Modulus (GPa) = 21.19281 25.22174 23.20728
#
# Velocity S-wave (km/s) = 3.43196 3.74400 3.59137
# Velocity P-wave (km/s) = 7.03893 7.32471 7.18324
#
# Compressibility (1/GPa) = 0.01642247
#
# Stress axis : x y z
#
# Youngs Moduli (GPa) = 28.19676 49.62246 53.75400
#
# Poissons Ratio (x) = 0.70236 0.63562
# Poissons Ratio (y) = 0.39910 0.15697
# Poissons Ratio (z) = 0.33342 0.14491
#
# Static dielectric constant tensor:
#      x y z
#    x 3.161160 0.000000 0.000000 
#    y 0.000000 3.508240 0.000000 
#    z 0.000000 0.000000 3.427290 
# 
# 
# High freq. dielectric constant tensor:
#      x y z
#    x 1.675450 0.000000 0.000000 
#    y 0.000000 1.712750 0.000000 
#    z 0.000000 0.000000 1.703740 
# 
# From -- ./inp_files/60128.got.cif
#   From: 2010.03.12/outbox.cif.g09.slc.cpg/sg74_31_cif.got.tgz:60128.got - 2010.04.16 15:46:19.
