data_PCOD8298186
_publ_section_title
;
Structure prediction by ZEFSAII (Michael W. Deem and Ramdas Pophale) SiO2 
 PCOD8298186
Probable space group: I M M A
;
_chemical_formula_sum "Si O2"
_cell_formula_units_Z 56
_cell_length_a 12.385561
_cell_length_b 9.029523
_cell_length_c 29.912101
_cell_angle_alpha 90.000000
_cell_angle_beta 90.000000
_cell_angle_gamma 90.000000
_cell_volume 3345.240991
_symmetry_space_group_name_H-M "I M M A"
_symmetry_group_IT_number 74
_symmetry_cell_setting 'orthorhombic'
loop_
_space_group_symop_operation_xyz
x,y,z
-x,1/2-y,z
x,-y,-z
-x,1/2+y,-z
-x,-y,-z
x,1/2+y,-z
-x,y,z
x,1/2-y,z
1/2+x,1/2+y,1/2+z
1/2-x,-y,1/2+z
1/2+x,1/2-y,1/2-z
1/2-x,y,1/2-z
1/2-x,1/2-y,1/2-z
1/2+x,y,1/2-z
1/2-x,1/2+y,1/2+z
1/2+x,-y,1/2+z
loop_
_atom_site_type_symbol
_atom_site_label
_atom_site_fract_x
_atom_site_fract_y
_atom_site_fract_z
Si Si1 0.882773 0.581704 0.648989
Si Si2 0.000000 0.074365 0.952162
Si Si3 0.662663 0.421183 0.389195
Si Si4 0.000000 0.576283 0.279811
Si Si5 0.000000 0.583757 0.811616
O O1 0.855597 0.750000 0.662942
O O2 0.786914 0.525107 0.616737
O O3 0.000000 0.572347 0.623707
O O4 0.892811 0.487335 0.694989
O O5 0.000000 0.250000 0.956746
O O6 0.107729 0.023120 0.926408
O O7 0.000000 0.000000 0.000000
O O8 0.653450 0.250000 0.404709
O O9 0.605598 0.443430 0.341538
O O10 0.000000 0.532176 0.228310
O O11 0.000000 0.750000 0.283781
O O12 0.000000 0.750000 0.791975
#
# Coordination Sequence:
#
# PCOD8298186 Si02
#       5
#    16   8  16   8   8
#     4   8  16  32  51  70  94 131 172 206 245 290
#     4  11  22  36  56  81 106 128 154 193 242 297
#     4   9  18  34  55  75  97 128 166 207 249 296
#     4  10  19  29  42  66 100 135 172 213 246 284
#     4   9  17  29  45  67  96 131 170 210 253 293
#
# _framework density 16.740200000000002
#
# number of rings (size 3 to 8) (size 9 to 14) (size 15 to 20)
#    0.857    2.000    0.000    3.000    0.000    4.571 
#    0.000    5.714    0.000    0.857    0.000    0.000 
#    0.000    0.000    0.000    0.000    0.000    0.000 
#
# Total GULP energy -346948.498464 kJ/mol
# GULP energy per Si atom -12391.017802 kJ/mol
# Density = 1.670210 g / cm^3
# Si number density = 16.740200 Si / 1000 Ang^3
#
#
#
# Elastic Constant Matrix: (Units=GPa)
#
#
# Indices 1 2 3 4 5 6 
#
# 1 126.7384 45.3869 53.1401 0.0000 0.0000 0.0000
# 2 45.3869 109.8289 59.8421 0.0000 0.0000 0.0000
# 3 53.1401 59.8421 95.8892 0.0000 0.0000 0.0000
# 4 0.0000 0.0000 0.0000 27.1803 0.0000 0.0000
# 5 0.0000 0.0000 0.0000 0.0000 5.8693 0.0000
# 6 0.0000 0.0000 0.0000 0.0000 0.0000 18.6530
#
#
#
# Elastic Compliance Matrix: (Units=1/GPa)
#
#
# Indices 1 2 3 4 5 6 
#
# 1 0.010501 -0.001771 -0.004714 0.000000 0.000000 0.000000
# 2 -0.001771 0.014095 -0.007815 0.000000 0.000000 0.000000
# 3 -0.004714 -0.007815 0.017918 0.000000 0.000000 0.000000
# 4 0.000000 0.000000 0.000000 0.036791 0.000000 0.000000
# 5 0.000000 0.000000 0.000000 0.000000 0.170380 0.000000
# 6 0.000000 0.000000 0.000000 0.000000 0.000000 0.053611
#
#
# Mechanical properties :
#
#
# Convention : Reuss Voigt Hill
#
# Bulk Modulus (GPa) = 71.86928 72.13274 72.00101
# Shear Modulus (GPa) = 14.85732 21.94634 18.40183
#
# Velocity S-wave (km/s) = 2.98236 3.62470 3.31911
# Velocity P-wave (km/s) = 7.40842 7.79108 7.60216
#
# Compressibility (1/GPa) = 0.01391415
#
# Stress axis : x y z
#
# Youngs Moduli (GPa) = 95.22779 70.94717 55.80840
#
# Poissons Ratio (x) = 0.12564 0.26310
# Poissons Ratio (y) = 0.16864 0.43614
# Poissons Ratio (z) = 0.44894 0.55445
#
# Static dielectric constant tensor:
#      x y z
#    x 3.356810 0.000000 0.000000 
#    y 0.000000 3.027140 0.000000 
#    z 0.000000 0.000000 2.829260 
# 
# 
# High freq. dielectric constant tensor:
#      x y z
#    x 1.645720 0.000000 0.000000 
#    y 0.000000 1.639770 0.000000 
#    z 0.000000 0.000000 1.611270 
# 
# From -- ./inp_files/66616.got.cif
#   From: 2010.03.12/outbox.cif.g09.slc.cpg/sg74_34_cif.got.tgz:66616.got - 2010.04.16 15:46:19.
