data_PCOD8298858
_publ_section_title
;
Structure prediction by ZEFSAII (Michael W. Deem and Ramdas Pophale) SiO2 
 PCOD8298858
Probable space group: I M M A
;
_chemical_formula_sum "Si O2"
_cell_formula_units_Z 80
_cell_length_a 13.875084
_cell_length_b 25.944635
_cell_length_c 11.568691
_cell_angle_alpha 90.000000
_cell_angle_beta 90.000000
_cell_angle_gamma 90.000000
_cell_volume 4164.543545
_symmetry_space_group_name_H-M "I M M A"
_symmetry_group_IT_number 74
_symmetry_cell_setting 'orthorhombic'
loop_
_space_group_symop_operation_xyz
x,y,z
-x,1/2-y,z
x,-y,-z
-x,1/2+y,-z
-x,-y,-z
x,1/2+y,-z
-x,y,z
x,1/2-y,z
1/2+x,1/2+y,1/2+z
1/2-x,-y,1/2+z
1/2+x,1/2-y,1/2-z
1/2-x,y,1/2-z
1/2-x,1/2-y,1/2-z
1/2+x,y,1/2-z
1/2-x,1/2+y,1/2+z
1/2+x,-y,1/2+z
loop_
_atom_site_type_symbol
_atom_site_label
_atom_site_fract_x
_atom_site_fract_y
_atom_site_fract_z
Si Si1 0.610259 0.807118 0.852328
Si Si2 0.714731 0.655015 0.071557
Si Si3 0.262032 0.445230 0.059063
Si Si4 0.388263 0.087827 0.261345
Si Si5 0.109416 0.810106 0.207015
O O1 0.500000 0.814188 0.893494
O O2 0.626336 0.750000 0.797752
O O3 0.634523 0.851153 0.757956
O O4 0.677534 0.811979 0.963768
O O5 0.822262 0.674654 0.100450
O O6 0.642441 0.660083 0.178696
O O7 0.716368 0.594708 0.042839
O O8 0.348413 0.444631 0.152419
O O9 0.162430 0.429737 0.121271
O O10 0.251834 0.500000 0.000000
O O11 0.500000 0.075864 0.274147
O O12 0.119582 0.750000 0.233659
O O13 0.000000 0.825389 0.175212
#
# Coordination Sequence:
#
# PCOD8298858 Si02
#       5
#    16  16  16  16  16
#     4   9  16  30  55  82 107 137 170 206 255 315
#     4  10  19  33  52  75 104 140 178 214 258 309
#     4  10  22  39  56  77 105 137 176 222 263 303
#     4   9  20  38  57  81 109 134 169 216 261 310
#     4  10  20  33  50  77 111 141 173 214 256 306
#
# _framework density 19.209786999999999
#
# number of rings (size 3 to 8) (size 9 to 14) (size 15 to 20)
#    0.000    2.400    0.000    3.000    0.000    7.200 
#    0.000   12.000    0.000    2.400    0.000    0.000 
#    0.000    0.000    0.000    0.000    0.000    0.000 
#
# Total GULP energy -496028.560225 kJ/mol
# GULP energy per Si atom -12400.714006 kJ/mol
# Density = 1.916606 g / cm^3
# Si number density = 19.209787 Si / 1000 Ang^3
#
#
#
# Elastic Constant Matrix: (Units=GPa)
#
#
# Indices 1 2 3 4 5 6 
#
# 1 104.1490 45.9772 19.8568 -0.0001 -0.0001 0.0000
# 2 45.9772 146.3016 62.7006 0.0000 0.0000 0.0000
# 3 19.8568 62.7006 60.9350 0.0000 0.0000 0.0000
# 4 -0.0001 0.0000 0.0000 -12.1801 0.0000 0.0000
# 5 -0.0001 0.0000 0.0000 0.0000 24.4140 0.0000
# 6 0.0000 0.0000 0.0000 0.0000 0.0000 21.8914
#
#
#
# Elastic Compliance Matrix: (Units=1/GPa)
#
#
# Indices 1 2 3 4 5 6 
#
# 1 0.011148 -0.003482 -0.000050 0.000000 0.000000 0.000000
# 2 -0.003482 0.013315 -0.012566 0.000000 0.000000 0.000000
# 3 -0.000050 -0.012566 0.029357 0.000000 0.000000 0.000000
# 4 0.000000 0.000000 0.000000 -0.082101 0.000000 0.000000
# 5 0.000000 0.000000 0.000000 0.000000 0.040960 0.000000
# 6 0.000000 0.000000 0.000000 0.000000 0.000000 0.045680
#
#
# Mechanical properties :
#
#
# Convention : Reuss Voigt Hill
#
# Bulk Modulus (GPa) = 46.24374 63.16165 54.70269
# Shear Modulus (GPa) = 51.14354 19.01511 35.07933
#
# Velocity S-wave (km/s) = 5.16541 3.14963 4.27795
# Velocity P-wave (km/s) = 7.72662 6.79545 7.27595
#
# Compressibility (1/GPa) = 0.02162455
#
# Stress axis : x y z
#
# Youngs Moduli (GPa) = 89.69935 75.10365 34.06306
#
# Poissons Ratio (x) = 0.26152 0.00170
# Poissons Ratio (y) = 0.31235 0.42804
# Poissons Ratio (z) = 0.00447 0.94375
#
# Static dielectric constant tensor:
#      x y z
#    x 3.686390 0.000000 0.000000 
#    y 0.000000 3.454900 0.000000 
#    z 0.000000 0.000000 3.327270 
# 
# 
# High freq. dielectric constant tensor:
#      x y z
#    x 1.759180 0.000000 0.000000 
#    y 0.000000 1.739890 0.000000 
#    z 0.000000 0.000000 1.733980 
# 
# From -- ./inp_files/20500.got.cif
#   From: 2010.03.12/outbox.cif.g09.slc.cpg/sg74_11_cif.got.tgz:20500.got - 2010.04.16 15:46:19.
