data_PCOD8298335
_publ_section_title
;
Structure prediction by ZEFSAII (Michael W. Deem and Ramdas Pophale) SiO2 
 PCOD8298335
Probable space group: I M M A
;
_chemical_formula_sum "Si O2"
_cell_formula_units_Z 88
_cell_length_a 16.393900
_cell_length_b 9.290992
_cell_length_c 30.481208
_cell_angle_alpha 90.000000
_cell_angle_beta 90.000000
_cell_angle_gamma 90.000000
_cell_volume 4642.763295
_symmetry_space_group_name_H-M "I M M A"
_symmetry_group_IT_number 74
_symmetry_cell_setting 'orthorhombic'
loop_
_space_group_symop_operation_xyz
x,y,z
-x,1/2-y,z
x,-y,-z
-x,1/2+y,-z
-x,-y,-z
x,1/2+y,-z
-x,y,z
x,1/2-y,z
1/2+x,1/2+y,1/2+z
1/2-x,-y,1/2+z
1/2+x,1/2-y,1/2-z
1/2-x,y,1/2-z
1/2-x,1/2-y,1/2-z
1/2+x,y,1/2-z
1/2-x,1/2+y,1/2+z
1/2+x,-y,1/2+z
loop_
_atom_site_type_symbol
_atom_site_label
_atom_site_fract_x
_atom_site_fract_y
_atom_site_fract_z
Si Si1 0.591167 0.079186 0.202068
Si Si2 0.141064 0.580734 0.888515
Si Si3 0.404179 0.090212 0.959930
Si Si4 0.000000 0.578210 0.953359
Si Si5 0.596223 0.091341 0.296202
Si Si6 0.326029 0.081943 0.114394
O O1 0.500000 0.022443 0.189918
O O2 0.587121 0.250000 0.207373
O O3 0.620589 0.015359 0.249653
O O4 0.656013 0.035172 0.164665
O O5 0.125081 0.750000 0.884063
O O6 0.079894 0.524388 0.926248
O O7 0.124061 0.508140 0.840574
O O8 0.234195 0.544914 0.900504
O O9 0.500000 0.102632 0.966306
O O10 0.365170 0.250000 0.959665
O O11 0.386886 0.009467 0.914899
O O12 0.365057 0.000000 0.000000
O O13 0.000000 0.750000 0.960739
O O14 0.000000 0.500000 0.000000
O O15 0.500000 0.105714 0.297048
O O16 0.637093 0.250000 0.297481
O O17 0.345666 0.250000 0.107894
#
# Coordination Sequence:
#
# PCOD8298335 Si02
#       6
#    16  16  16   8  16  16
#     4   8  14  23  39  67 103 137 165 199 246 292
#     4   9  17  29  47  70  98 133 169 207 255 304
#     4  10  21  37  56  75  96 129 168 202 242 296
#     4  10  20  36  54  72  94 126 170 218 263 310
#     4   8  12  22  41  65  97 135 170 206 247 293
#     4  10  19  30  47  76 109 134 161 204 253 302
#
# _framework density 18.954229999999999
#
# number of rings (size 3 to 8) (size 9 to 14) (size 15 to 20)
#    0.000    2.909    0.909    2.182    0.000    3.273 
#    0.000    6.364    0.000    0.000    0.000    3.818 
#    0.000    0.000    0.000    0.000    0.000    0.000 
#
# Total GULP energy -545127.055411 kJ/mol
# GULP energy per Si atom -12389.251259 kJ/mol
# Density = 1.891109 g / cm^3
# Si number density = 18.954230 Si / 1000 Ang^3
#
#
#
# Elastic Constant Matrix: (Units=GPa)
#
#
# Indices 1 2 3 4 5 6 
#
# 1 56.9515 16.0866 39.1442 0.0000 0.0000 0.0000
# 2 16.0866 46.7963 40.4228 0.0000 0.0000 0.0000
# 3 39.1442 40.4228 154.1856 0.0000 0.0000 0.0000
# 4 0.0000 0.0000 0.0000 16.9690 0.0000 0.0000
# 5 0.0000 0.0000 0.0000 0.0000 17.7904 0.0000
# 6 0.0000 0.0000 0.0000 0.0000 0.0000 10.6906
#
#
#
# Elastic Compliance Matrix: (Units=1/GPa)
#
#
# Indices 1 2 3 4 5 6 
#
# 1 0.021703 -0.003492 -0.004594 0.000000 0.000000 0.000000
# 2 -0.003492 0.028187 -0.006503 0.000000 0.000000 0.000000
# 3 -0.004594 -0.006503 0.009357 0.000000 0.000000 0.000000
# 4 0.000000 0.000000 0.000000 0.058931 0.000000 0.000000
# 5 0.000000 0.000000 0.000000 0.000000 0.056210 0.000000
# 6 0.000000 0.000000 0.000000 0.000000 0.000000 0.093540
#
#
# Mechanical properties :
#
#
# Convention : Reuss Voigt Hill
#
# Bulk Modulus (GPa) = 33.25796 49.91562 41.58679
# Shear Modulus (GPa) = 16.27972 19.90864 18.09418
#
# Velocity S-wave (km/s) = 2.93387 3.24443 3.09305
# Velocity P-wave (km/s) = 5.39086 6.35823 5.89442
#
# Compressibility (1/GPa) = 0.03006799
#
# Stress axis : x y z
#
# Youngs Moduli (GPa) = 46.07659 35.47712 106.87084
#
# Poissons Ratio (x) = 0.12388 0.49101
# Poissons Ratio (y) = 0.16089 0.69502
# Poissons Ratio (z) = 0.21170 0.23072
#
# Static dielectric constant tensor:
#      x y z
#    x 3.305750 0.000000 0.000000 
#    y 0.000000 2.917040 0.000000 
#    z 0.000000 0.000000 3.856610 
# 
# 
# High freq. dielectric constant tensor:
#      x y z
#    x 1.724130 0.000000 0.000000 
#    y 0.000000 1.658640 0.000000 
#    z 0.000000 0.000000 1.758720 
# 
# From -- ./inp_files/72978.got.cif
#   From: 2010.03.12/outbox.cif.g09.slc.cpg/sg74_37_cif.got.tgz:72978.got - 2010.04.16 15:46:19.
