data_PCOD8298084
_publ_section_title
;
Structure prediction by ZEFSAII (Michael W. Deem and Ramdas Pophale) SiO2 
 PCOD8298084
Probable space group: I M M A
;
_chemical_formula_sum "Si O2"
_cell_formula_units_Z 96
_cell_length_a 17.200962
_cell_length_b 23.826052
_cell_length_c 12.488652
_cell_angle_alpha 90.000000
_cell_angle_beta 90.000000
_cell_angle_gamma 90.000000
_cell_volume 5118.236926
_symmetry_space_group_name_H-M "I M M A"
_symmetry_group_IT_number 74
_symmetry_cell_setting 'orthorhombic'
loop_
_space_group_symop_operation_xyz
x,y,z
-x,1/2-y,z
x,-y,-z
-x,1/2+y,-z
-x,-y,-z
x,1/2+y,-z
-x,y,z
x,1/2-y,z
1/2+x,1/2+y,1/2+z
1/2-x,-y,1/2+z
1/2+x,1/2-y,1/2-z
1/2-x,y,1/2-z
1/2-x,1/2-y,1/2-z
1/2+x,y,1/2-z
1/2-x,1/2+y,1/2+z
1/2+x,-y,1/2+z
loop_
_atom_site_type_symbol
_atom_site_label
_atom_site_fract_x
_atom_site_fract_y
_atom_site_fract_z
Si Si1 0.406987 0.750000 0.218750
Si Si2 0.839660 0.558056 0.777662
Si Si3 0.407626 0.132741 0.859676
Si Si4 0.091721 0.057603 0.452935
Si Si5 0.907992 0.750000 0.040534
Si Si6 0.591268 0.557332 0.336820
Si Si7 0.908605 0.630576 0.955748
O O1 0.500000 0.750000 0.221098
O O2 0.374436 0.804636 0.156892
O O3 0.373622 0.750000 0.339375
O O4 0.750000 0.557083 0.750000
O O5 0.886550 0.567008 0.668889
O O6 0.863834 0.501437 0.838975
O O7 0.859530 0.610118 0.854205
O O8 0.500000 0.134743 0.854738
O O9 0.378359 0.092475 0.764653
O O10 0.377169 0.108811 0.973162
O O11 0.000000 0.054566 0.462397
O O12 0.127788 0.000000 0.500000
O O13 0.880825 0.694189 0.978501
O O14 0.000000 0.750000 0.051125
O O15 0.500000 0.544305 0.328489
O O16 0.611319 0.591822 0.442899
O O17 0.000000 0.627763 0.929575
#
# Coordination Sequence:
#
# PCOD8298084 Si02
#       7
#     8  16  16  16   8  16  16
#     4   9  14  26  51  87 118 130 161 222 289 336
#     4  12  25  37  51  78 114 157 190 229 274 327
#     4   9  16  28  53  85 110 135 166 214 278 335
#     4  10  19  34  56  77 105 144 184 224 271 334
#     4   9  16  30  58  89 113 140 175 229 286 337
#     4  10  18  34  59  85 111 139 177 231 286 332
#     4  10  20  36  60  88 114 141 185 237 284 332
#
# _framework density 18.756457999999999
#
# number of rings (size 3 to 8) (size 9 to 14) (size 15 to 20)
#    0.000    2.000    3.333    2.000    0.000    2.667 
#    0.000    1.250    0.000    3.000    0.000    2.333 
#    0.000    0.000    0.000    0.000    0.000    0.000 
#
# Total GULP energy -595174.763286 kJ/mol
# GULP energy per Si atom -12399.474235 kJ/mol
# Density = 1.871377 g / cm^3
# Si number density = 18.756458 Si / 1000 Ang^3
#
#
#
# Elastic Constant Matrix: (Units=GPa)
#
#
# Indices 1 2 3 4 5 6 
#
# 1 32.9106 34.2248 23.8792 0.0000 0.0000 0.0000
# 2 34.2248 176.6006 84.1940 0.0000 0.0000 0.0000
# 3 23.8792 84.1940 130.8814 0.0000 0.0000 0.0000
# 4 0.0000 0.0000 0.0000 46.5723 0.0000 0.0000
# 5 0.0000 0.0000 0.0000 0.0000 10.6318 0.0000
# 6 0.0000 0.0000 0.0000 0.0000 0.0000 4.2300
#
#
#
# Elastic Compliance Matrix: (Units=1/GPa)
#
#
# Indices 1 2 3 4 5 6 
#
# 1 0.038990 -0.006007 -0.003249 0.000000 0.000000 0.000000
# 2 -0.006007 0.009093 -0.004753 0.000000 0.000000 0.000000
# 3 -0.003249 -0.004753 0.011291 0.000000 0.000000 0.000000
# 4 0.000000 0.000000 0.000000 0.021472 0.000000 0.000000
# 5 0.000000 0.000000 0.000000 0.000000 0.094057 0.000000
# 6 0.000000 0.000000 0.000000 0.000000 0.000000 0.236406
#
#
# Mechanical properties :
#
#
# Convention : Reuss Voigt Hill
#
# Bulk Modulus (GPa) = 31.89349 69.44316 50.66832
# Shear Modulus (GPa) = 11.11655 25.49312 18.30483
#
# Velocity S-wave (km/s) = 2.43714 3.69069 3.12736
# Velocity P-wave (km/s) = 4.99604 7.43408 6.33348
#
# Compressibility (1/GPa) = 0.03135437
#
# Stress axis : x y z
#
# Youngs Moduli (GPa) = 25.64760 109.97793 88.56562
#
# Poissons Ratio (x) = 0.66063 0.28779
# Poissons Ratio (y) = 0.15406 0.42097
# Poissons Ratio (z) = 0.08334 0.52275
#
# Static dielectric constant tensor:
#      x y z
#    x 2.415990 0.000000 0.000000 
#    y 0.000000 3.746820 0.000000 
#    z 0.000000 0.000000 4.270340 
# 
# 
# High freq. dielectric constant tensor:
#      x y z
#    x 1.678030 0.000000 0.000000 
#    y 0.000000 1.735300 0.000000 
#    z 0.000000 0.000000 1.733760 
# 
# From -- ./inp_files/24128.got.cif
#   From: 2010.03.12/outbox.cif.g09.slc.cpg/sg74_13_cif.got.tgz:24128.got - 2010.04.16 15:46:19.
