data_PCOD8298634
_publ_section_title
;
Structure prediction by ZEFSAII (Michael W. Deem and Ramdas Pophale) SiO2 
 PCOD8298634
Probable space group: I M M A
;
_chemical_formula_sum "Si O2"
_cell_formula_units_Z 88
_cell_length_a 22.013595
_cell_length_b 8.844534
_cell_length_c 24.994847
_cell_angle_alpha 90.000000
_cell_angle_beta 90.000000
_cell_angle_gamma 90.000000
_cell_volume 4866.496447
_symmetry_space_group_name_H-M "I M M A"
_symmetry_group_IT_number 74
_symmetry_cell_setting 'orthorhombic'
loop_
_space_group_symop_operation_xyz
x,y,z
-x,1/2-y,z
x,-y,-z
-x,1/2+y,-z
-x,-y,-z
x,1/2+y,-z
-x,y,z
x,1/2-y,z
1/2+x,1/2+y,1/2+z
1/2-x,-y,1/2+z
1/2+x,1/2-y,1/2-z
1/2-x,y,1/2-z
1/2-x,1/2-y,1/2-z
1/2+x,y,1/2-z
1/2-x,1/2+y,1/2+z
1/2+x,-y,1/2+z
loop_
_atom_site_type_symbol
_atom_site_label
_atom_site_fract_x
_atom_site_fract_y
_atom_site_fract_z
Si Si1 0.152581 0.571756 0.649287
Si Si2 0.870624 0.927243 0.057565
Si Si3 0.321843 0.923503 0.255156
Si Si4 0.792411 0.573611 0.858258
Si Si5 0.929390 0.072039 0.556656
Si Si6 0.500000 0.078020 0.555959
O O1 0.141172 0.750000 0.647571
O O2 0.139449 0.509621 0.709267
O O3 0.222090 0.525470 0.638625
O O4 0.109653 0.495120 0.605292
O O5 0.853611 0.750000 0.055724
O O6 0.936532 0.955802 0.086996
O O7 0.818435 0.021559 0.085695
O O8 0.874727 0.000000 0.000000
O O9 0.341754 0.750000 0.253325
O O10 0.250000 0.947120 0.250000
O O11 0.334348 0.992638 0.313457
O O12 0.798227 0.750000 0.848167
O O13 0.917655 0.250000 0.553247
O O14 0.000000 0.034663 0.567830
O O15 0.908922 0.000000 0.500000
O O16 0.500000 0.250000 0.538801
O O17 0.500000 0.000000 0.500000
#
# Coordination Sequence:
#
# PCOD8298634 Si02
#       6
#    16  16  16  16  16   8
#     4  10  20  34  54  78 105 137 171 211 257 309
#     4  10  19  32  50  72  99 132 169 210 256 304
#     4   9  17  31  52  76 101 132 169 207 251 304
#     4  10  20  33  50  76 107 137 171 212 259 309
#     4  10  21  37  57  80 106 138 177 219 264 316
#     4   8  16  30  48  68  90 122 164 202 239 288
#
# _framework density 18.082825
#
# number of rings (size 3 to 8) (size 9 to 14) (size 15 to 20)
#    0.000    2.364    0.000    2.727    0.000    6.909 
#    0.000    0.000    2.000    0.000    0.000    0.000 
#    0.000    0.000    0.000    0.000    0.000    0.000 
#
# Total GULP energy -545201.028096 kJ/mol
# GULP energy per Si atom -12390.932457 kJ/mol
# Density = 1.804167 g / cm^3
# Si number density = 18.082825 Si / 1000 Ang^3
#
#
#
# Elastic Constant Matrix: (Units=GPa)
#
#
# Indices 1 2 3 4 5 6 
#
# 1 68.4832 39.3221 51.5729 0.0000 0.0000 0.0000
# 2 39.3221 67.0037 40.4057 0.0000 0.0000 0.0000
# 3 51.5729 40.4057 103.3130 0.0000 0.0000 0.0000
# 4 0.0000 0.0000 0.0000 38.9177 0.0000 0.0000
# 5 0.0000 0.0000 0.0000 0.0000 24.2915 0.0000
# 6 0.0000 0.0000 0.0000 0.0000 0.0000 24.1502
#
#
#
# Elastic Compliance Matrix: (Units=1/GPa)
#
#
# Indices 1 2 3 4 5 6 
#
# 1 0.028110 -0.010515 -0.009920 0.000000 0.000000 0.000000
# 2 -0.010515 0.023464 -0.003928 0.000000 0.000000 0.000000
# 3 -0.009920 -0.003928 0.016167 0.000000 0.000000 0.000000
# 4 0.000000 0.000000 0.000000 0.025695 0.000000 0.000000
# 5 0.000000 0.000000 0.000000 0.000000 0.041167 0.000000
# 6 0.000000 0.000000 0.000000 0.000000 0.000000 0.041407
#
#
# Mechanical properties :
#
#
# Convention : Reuss Voigt Hill
#
# Bulk Modulus (GPa) = 52.58645 55.71127 54.14886
# Shear Modulus (GPa) = 21.63806 24.63851 23.13829
#
# Velocity S-wave (km/s) = 3.46296 3.69526 3.58099
# Velocity P-wave (km/s) = 6.71814 7.00588 6.86352
#
# Compressibility (1/GPa) = 0.01901631
#
# Stress axis : x y z
#
# Youngs Moduli (GPa) = 35.57462 42.61873 61.85254
#
# Poissons Ratio (x) = 0.44812 0.61358
# Poissons Ratio (y) = 0.37405 0.24295
# Poissons Ratio (z) = 0.35290 0.16740
#
# Static dielectric constant tensor:
#      x y z
#    x 3.481150 0.000000 0.000000 
#    y 0.000000 3.429640 0.000000 
#    z 0.000000 0.000000 3.336530 
# 
# 
# High freq. dielectric constant tensor:
#      x y z
#    x 1.681630 0.000000 0.000000 
#    y 0.000000 1.717430 0.000000 
#    z 0.000000 0.000000 1.693780 
# 
# From -- ./inp_files/61454.got.cif
#   From: 2010.03.12/outbox.cif.g09.slc.cpg/sg74_31_cif.got.tgz:61454.got - 2010.04.16 15:46:19.
