data_PCOD8298322
_publ_section_title
;
Structure prediction by ZEFSAII (Michael W. Deem and Ramdas Pophale) SiO2 
 PCOD8298322
Probable space group: I M M A
;
_chemical_formula_sum "Si O2"
_cell_formula_units_Z 96
_cell_length_a 24.809376
_cell_length_b 18.930744
_cell_length_c 11.721461
_cell_angle_alpha 90.000000
_cell_angle_beta 90.000000
_cell_angle_gamma 90.000000
_cell_volume 5505.100739
_symmetry_space_group_name_H-M "I M M A"
_symmetry_group_IT_number 74
_symmetry_cell_setting 'orthorhombic'
loop_
_space_group_symop_operation_xyz
x,y,z
-x,1/2-y,z
x,-y,-z
-x,1/2+y,-z
-x,-y,-z
x,1/2+y,-z
-x,y,z
x,1/2-y,z
1/2+x,1/2+y,1/2+z
1/2-x,-y,1/2+z
1/2+x,1/2-y,1/2-z
1/2-x,y,1/2-z
1/2-x,1/2-y,1/2-z
1/2+x,y,1/2-z
1/2-x,1/2+y,1/2+z
1/2+x,-y,1/2+z
loop_
_atom_site_type_symbol
_atom_site_label
_atom_site_fract_x
_atom_site_fract_y
_atom_site_fract_z
Si Si1 0.938288 0.167417 0.881479
Si Si2 0.185069 0.933394 0.748728
Si Si3 0.851081 0.589892 0.263388
Si Si4 0.276336 0.827710 0.385610
Si Si5 0.364790 0.672898 0.572183
Si Si6 0.187845 0.919832 0.498578
O O1 0.929226 0.250000 0.851834
O O2 0.905253 0.118803 0.792500
O O3 0.000000 0.145226 0.866349
O O4 0.922370 0.152206 0.014941
O O5 0.250000 0.932669 0.750000
O O6 0.158450 0.883032 0.840823
O O7 0.165667 0.903526 0.625175
O O8 0.161806 0.010430 0.777152
O O9 0.796842 0.636123 0.233510
O O10 0.857982 0.590937 0.401412
O O11 0.252028 0.750000 0.360678
O O12 0.330492 0.821693 0.457380
O O13 0.237854 0.871662 0.467152
O O14 0.366926 0.750000 0.632897
O O15 0.209737 0.000000 0.500000
#
# Coordination Sequence:
#
# PCOD8298322 Si02
#       6
#    16  16  16  16  16  16
#     4   9  19  38  61  80 102 133 172 230 293 325
#     4  11  20  33  51  72 108 155 183 207 256 321
#     4  10  20  32  50  76 103 134 178 225 265 319
#     4  10  19  30  47  72 103 135 171 220 265 313
#     4   9  19  33  50  76 104 135 181 222 262 319
#     4  10  20  32  46  69 105 143 178 208 255 317
#
# _framework density 17.438372999999999
#
# number of rings (size 3 to 8) (size 9 to 14) (size 15 to 20)
#    0.000    2.167    1.667    4.000    0.000    5.000 
#    0.000    1.667    0.000    5.500    0.000    2.333 
#    0.000    0.000    0.000    0.000    0.000    0.000 
#
# Total GULP energy -594793.615796 kJ/mol
# GULP energy per Si atom -12391.533662 kJ/mol
# Density = 1.739868 g / cm^3
# Si number density = 17.438373 Si / 1000 Ang^3
#
#
#
# Elastic Constant Matrix: (Units=GPa)
#
#
# Indices 1 2 3 4 5 6 
#
# 1 99.1987 53.1979 40.4116 0.0000 0.0000 0.0000
# 2 53.1979 112.3329 61.0487 0.0000 0.0000 0.0000
# 3 40.4116 61.0487 111.5688 0.0000 0.0000 0.0000
# 4 0.0000 0.0000 0.0000 17.3653 0.0000 0.0000
# 5 0.0000 0.0000 0.0000 0.0000 21.6633 0.0000
# 6 0.0000 0.0000 0.0000 0.0000 0.0000 24.3749
#
#
#
# Elastic Compliance Matrix: (Units=1/GPa)
#
#
# Indices 1 2 3 4 5 6 
#
# 1 0.013828 -0.005446 -0.002029 0.000000 0.000000 0.000000
# 2 -0.005446 0.014815 -0.006134 0.000000 0.000000 0.000000
# 3 -0.002029 -0.006134 0.013054 0.000000 0.000000 0.000000
# 4 0.000000 0.000000 0.000000 0.057586 0.000000 0.000000
# 5 0.000000 0.000000 0.000000 0.000000 0.046161 0.000000
# 6 0.000000 0.000000 0.000000 0.000000 0.000000 0.041026
#
#
# Mechanical properties :
#
#
# Convention : Reuss Voigt Hill
#
# Bulk Modulus (GPa) = 69.06146 70.26855 69.66501
# Shear Modulus (GPa) = 22.88193 23.91015 23.39604
#
# Velocity S-wave (km/s) = 3.62630 3.70688 3.66682
# Velocity P-wave (km/s) = 7.56456 7.66186 7.61337
#
# Compressibility (1/GPa) = 0.01447986
#
# Stress axis : x y z
#
# Youngs Moduli (GPa) = 72.31838 67.50075 76.60390
#
# Poissons Ratio (x) = 0.36761 0.15540
# Poissons Ratio (y) = 0.39384 0.46987
# Poissons Ratio (z) = 0.14671 0.41403
#
# Static dielectric constant tensor:
#      x y z
#    x 3.025020 0.000000 0.000000 
#    y 0.000000 3.370490 0.000000 
#    z 0.000000 0.000000 3.456430 
# 
# 
# High freq. dielectric constant tensor:
#      x y z
#    x 1.638150 0.000000 0.000000 
#    y 0.000000 1.682670 0.000000 
#    z 0.000000 0.000000 1.679980 
# 
# From -- ./inp_files/22667.got.cif
#   From: 2010.03.12/outbox.cif.g09.slc.cpg/sg74_12_cif.got.tgz:22667.got - 2010.04.16 15:46:19.
