data_PCOD8298625
_publ_section_title
;
Structure prediction by ZEFSAII (Michael W. Deem and Ramdas Pophale) SiO2 
 PCOD8298625
Probable space group: I M M A
;
_chemical_formula_sum "Si O2"
_cell_formula_units_Z 96
_cell_length_a 17.103992
_cell_length_b 9.420056
_cell_length_c 29.013498
_cell_angle_alpha 90.000000
_cell_angle_beta 90.000000
_cell_angle_gamma 90.000000
_cell_volume 4674.671117
_symmetry_space_group_name_H-M "I M M A"
_symmetry_group_IT_number 74
_symmetry_cell_setting 'orthorhombic'
loop_
_space_group_symop_operation_xyz
x,y,z
-x,1/2-y,z
x,-y,-z
-x,1/2+y,-z
-x,-y,-z
x,1/2+y,-z
-x,y,z
x,1/2-y,z
1/2+x,1/2+y,1/2+z
1/2-x,-y,1/2+z
1/2+x,1/2-y,1/2-z
1/2-x,y,1/2-z
1/2-x,1/2-y,1/2-z
1/2+x,y,1/2-z
1/2-x,1/2+y,1/2+z
1/2+x,-y,1/2+z
loop_
_atom_site_type_symbol
_atom_site_label
_atom_site_fract_x
_atom_site_fract_y
_atom_site_fract_z
Si Si1 0.686074 0.586225 0.855660
Si Si2 0.180573 0.911562 0.196694
Si Si3 0.332672 0.594726 0.959050
Si Si4 0.652765 0.403605 0.461248
Si Si5 0.410727 0.587608 0.769214
Si Si6 0.087861 0.407884 0.889031
O O1 0.716256 0.750000 0.860254
O O2 0.751817 0.489799 0.831858
O O3 0.662222 0.529492 0.906970
O O4 0.609265 0.578858 0.823492
O O5 0.206901 0.750000 0.208794
O O6 0.103254 0.908769 0.165333
O O7 0.154682 0.993395 0.242919
O O8 0.373641 0.750000 0.959629
O O9 0.242926 0.614746 0.973041
O O10 0.372071 0.500000 0.000000
O O11 0.610530 0.500000 0.500000
O O12 0.611405 0.250000 0.459876
O O13 0.645706 0.480154 0.412253
O O14 0.500000 0.533531 0.762114
O O15 0.402838 0.750000 0.751743
O O16 0.103275 0.250000 0.909110
O O17 0.000000 0.457208 0.898261
#
# Coordination Sequence:
#
# PCOD8298625 Si02
#       6
#    16  16  16  16  16  16
#     4  10  20  37  59  84 113 145 186 231 271 323
#     4  11  22  36  56  82 112 145 184 228 276 325
#     4   9  18  32  53  80 109 139 175 222 274 322
#     4  10  19  32  50  71  97 132 175 221 272 322
#     4  10  22  39  59  82 111 149 188 227 275 329
#     4  10  21  35  49  68  99 139 179 221 268 318
#
# _framework density 20.536203
#
# number of rings (size 3 to 8) (size 9 to 14) (size 15 to 20)
#    0.000    2.000    1.667    2.000    0.000    6.333 
#    0.000    0.000    0.000    0.500    0.000    0.000 
#    0.000    0.000    0.000    0.000    0.000    0.000 
#
# Total GULP energy -594850.604195 kJ/mol
# GULP energy per Si atom -12392.720921 kJ/mol
# Density = 2.048946 g / cm^3
# Si number density = 20.536203 Si / 1000 Ang^3
#
#
#
# Elastic Constant Matrix: (Units=GPa)
#
#
# Indices 1 2 3 4 5 6 
#
# 1 26.7914 15.8432 15.8332 0.0000 0.0000 0.0000
# 2 15.8432 106.7561 55.1248 0.0000 0.0000 0.0000
# 3 15.8332 55.1248 142.4944 0.0000 0.0000 0.0000
# 4 0.0000 0.0000 0.0000 33.1428 0.0000 0.0000
# 5 0.0000 0.0000 0.0000 0.0000 16.4712 0.0000
# 6 0.0000 0.0000 0.0000 0.0000 0.0000 12.1417
#
#
#
# Elastic Compliance Matrix: (Units=1/GPa)
#
#
# Indices 1 2 3 4 5 6 
#
# 1 0.041794 -0.004754 -0.002805 0.000000 0.000000 0.000000
# 2 -0.004754 0.012246 -0.004209 0.000000 0.000000 0.000000
# 3 -0.002805 -0.004209 0.008958 0.000000 0.000000 0.000000
# 4 0.000000 0.000000 0.000000 0.030172 0.000000 0.000000
# 5 0.000000 0.000000 0.000000 0.000000 0.060712 0.000000
# 6 0.000000 0.000000 0.000000 0.000000 0.000000 0.082361
#
#
# Mechanical properties :
#
#
# Convention : Reuss Voigt Hill
#
# Bulk Modulus (GPa) = 25.34088 49.96048 37.65068
# Shear Modulus (GPa) = 18.31942 24.96718 21.64330
#
# Velocity S-wave (km/s) = 2.98997 3.49056 3.24992
# Velocity P-wave (km/s) = 4.92811 6.37387 5.69704
#
# Compressibility (1/GPa) = 0.03946193
#
# Stress axis : x y z
#
# Youngs Moduli (GPa) = 23.92663 81.65793 111.63401
#
# Poissons Ratio (x) = 0.38822 0.31311
# Poissons Ratio (y) = 0.11375 0.46990
# Poissons Ratio (z) = 0.06711 0.34372
#
# Static dielectric constant tensor:
#      x y z
#    x 3.259010 0.000000 0.000000 
#    y 0.000000 4.029300 0.000000 
#    z 0.000000 0.000000 3.813600 
# 
# 
# High freq. dielectric constant tensor:
#      x y z
#    x 1.759740 0.000000 0.000000 
#    y 0.000000 1.804590 0.000000 
#    z 0.000000 0.000000 1.813210 
# 
# From -- ./inp_files/68120.got.cif
#   From: 2010.03.12/outbox.cif.g09.slc.cpg/sg74_35_cif.got.tgz:68120.got - 2010.04.16 15:46:19.
