data_PCOD8298726
_publ_section_title
;
Structure prediction by ZEFSAII (Michael W. Deem and Ramdas Pophale) SiO2 
 PCOD8298726
Probable space group: I M M A
;
_chemical_formula_sum "Si O2"
_cell_formula_units_Z 104
_cell_length_a 9.176881
_cell_length_b 27.591366
_cell_length_c 22.563086
_cell_angle_alpha 90.000000
_cell_angle_beta 90.000000
_cell_angle_gamma 90.000000
_cell_volume 5713.033899
_symmetry_space_group_name_H-M "I M M A"
_symmetry_group_IT_number 74
_symmetry_cell_setting 'orthorhombic'
loop_
_space_group_symop_operation_xyz
x,y,z
-x,1/2-y,z
x,-y,-z
-x,1/2+y,-z
-x,-y,-z
x,1/2+y,-z
-x,y,z
x,1/2-y,z
1/2+x,1/2+y,1/2+z
1/2-x,-y,1/2+z
1/2+x,1/2-y,1/2-z
1/2-x,y,1/2-z
1/2-x,1/2-y,1/2-z
1/2+x,y,1/2-z
1/2-x,1/2+y,1/2+z
1/2+x,-y,1/2+z
loop_
_atom_site_type_symbol
_atom_site_label
_atom_site_fract_x
_atom_site_fract_y
_atom_site_fract_z
Si Si1 0.833769 0.250000 0.189921
Si Si2 0.327881 0.099968 0.622825
Si Si3 0.665403 0.446710 0.985240
Si Si4 0.169385 0.695420 0.189506
Si Si5 0.331690 0.146442 0.311530
Si Si6 0.830353 0.019874 0.691700
Si Si7 0.339826 0.427401 0.117320
O O1 0.750000 0.250000 0.250000
O O2 0.798296 0.300875 0.157116
O O3 0.000000 0.250000 0.209123
O O4 0.500000 0.089567 0.622739
O O5 0.263318 0.084650 0.559249
O O6 0.293898 0.156572 0.637489
O O7 0.250012 0.069339 0.674266
O O8 0.500000 0.451474 0.959415
O O9 0.729772 0.500000 0.000000
O O10 0.664995 0.419027 0.047375
O O11 0.213692 0.750000 0.168295
O O12 0.250000 0.681248 0.250000
O O13 0.000000 0.693110 0.204787
O O14 0.500000 0.139264 0.297713
O O15 0.250000 0.140106 0.250000
O O16 0.284604 0.106059 0.357057
O O17 0.750000 0.998583 0.750000
O O18 0.000000 0.029550 0.705584
O O19 0.810166 0.982897 0.636771
O O20 0.500000 0.412326 0.141424
#
# Coordination Sequence:
#
# PCOD8298726 Si02
#       7
#     8  16  16  16  16  16  16
#     4   8  16  30  48  72 100 132 166 204 251 306
#     4  11  22  35  56  84 109 141 183 224 267 321
#     4  10  20  39  59  76 102 142 181 219 266 312
#     4   9  19  36  57  83 115 146 179 222 275 330
#     4  10  19  32  52  77 106 136 171 213 262 314
#     4  11  22  36  52  76 111 145 175 214 266 319
#     4  10  21  36  54  75 102 138 177 217 266 315
#
# _framework density 18.203987999999999
#
# number of rings (size 3 to 8) (size 9 to 14) (size 15 to 20)
#    0.000    2.000    1.538    2.308    0.000    6.462 
#    0.000    0.000    1.692    0.000    0.000    0.000 
#    0.000    0.000    0.000    0.000    0.000    0.000 
#
# Total GULP energy -644502.108902 kJ/mol
# GULP energy per Si atom -12394.271325 kJ/mol
# Density = 1.816255 g / cm^3
# Si number density = 18.203988 Si / 1000 Ang^3
#
#
#
# Elastic Constant Matrix: (Units=GPa)
#
#
# Indices 1 2 3 4 5 6 
#
# 1 92.1085 56.3633 42.9853 0.0000 0.0000 0.0000
# 2 56.3633 121.2634 43.4303 0.0000 0.0000 0.0000
# 3 42.9853 43.4303 86.5998 0.0000 0.0000 0.0000
# 4 0.0000 0.0000 0.0000 18.7037 0.0000 0.0000
# 5 0.0000 0.0000 0.0000 0.0000 30.9103 0.0000
# 6 0.0000 0.0000 0.0000 0.0000 0.0000 22.4573
#
#
#
# Elastic Compliance Matrix: (Units=1/GPa)
#
#
# Indices 1 2 3 4 5 6 
#
# 1 0.017066 -0.005971 -0.005477 0.000000 0.000000 0.000000
# 2 -0.005971 0.012141 -0.003125 0.000000 0.000000 0.000000
# 3 -0.005477 -0.003125 0.015833 0.000000 0.000000 0.000000
# 4 0.000000 0.000000 0.000000 0.053465 0.000000 0.000000
# 5 0.000000 0.000000 0.000000 0.000000 0.032352 0.000000
# 6 0.000000 0.000000 0.000000 0.000000 0.000000 0.044529
#
#
# Mechanical properties :
#
#
# Convention : Reuss Voigt Hill
#
# Bulk Modulus (GPa) = 62.91258 65.05884 63.98571
# Shear Modulus (GPa) = 23.82876 24.89377 24.36126
#
# Velocity S-wave (km/s) = 3.62192 3.70197 3.66216
# Velocity P-wave (km/s) = 7.21982 7.35453 7.28749
#
# Compressibility (1/GPa) = 0.01589507
#
# Stress axis : x y z
#
# Youngs Moduli (GPa) = 58.59447 82.36514 63.15899
#
# Poissons Ratio (x) = 0.49180 0.34591
# Poissons Ratio (y) = 0.34987 0.19737
# Poissons Ratio (z) = 0.32091 0.25739
#
# Static dielectric constant tensor:
#      x y z
#    x 3.403860 0.000000 0.000000 
#    y 0.000000 3.752660 0.000000 
#    z 0.000000 0.000000 3.140640 
# 
# 
# High freq. dielectric constant tensor:
#      x y z
#    x 1.712670 0.000000 0.000000 
#    y 0.000000 1.708570 0.000000 
#    z 0.000000 0.000000 1.683810 
# 
# From -- ./inp_files/49278.got.cif
#   From: 2010.03.12/outbox.cif.g09.slc.cpg/sg74_25_cif.got.tgz:49278.got - 2010.04.16 15:46:19.
