data_PCOD8298693
_publ_section_title
;
Structure prediction by ZEFSAII (Michael W. Deem and Ramdas Pophale) SiO2 
 PCOD8298693
Probable space group: I M M A
;
_chemical_formula_sum "Si O2"
_cell_formula_units_Z 92
_cell_length_a 9.392224
_cell_length_b 22.657418
_cell_length_c 23.979560
_cell_angle_alpha 90.000000
_cell_angle_beta 90.000000
_cell_angle_gamma 90.000000
_cell_volume 5102.935378
_symmetry_space_group_name_H-M "I M M A"
_symmetry_group_IT_number 74
_symmetry_cell_setting 'orthorhombic'
loop_
_space_group_symop_operation_xyz
x,y,z
-x,1/2-y,z
x,-y,-z
-x,1/2+y,-z
-x,-y,-z
x,1/2+y,-z
-x,y,z
x,1/2-y,z
1/2+x,1/2+y,1/2+z
1/2-x,-y,1/2+z
1/2+x,1/2-y,1/2-z
1/2-x,y,1/2-z
1/2-x,1/2-y,1/2-z
1/2+x,y,1/2-z
1/2-x,1/2+y,1/2+z
1/2+x,-y,1/2+z
loop_
_atom_site_type_symbol
_atom_site_label
_atom_site_fract_x
_atom_site_fract_y
_atom_site_fract_z
Si Si1 0.665565 0.646887 0.591165
Si Si2 0.832049 0.618166 0.695674
Si Si3 0.836217 0.013469 0.060373
Si Si4 0.500000 0.184091 0.699831
Si Si5 0.657119 0.750000 0.516314
Si Si6 0.250000 0.607650 0.250000
Si Si7 0.500000 0.250000 0.591873
Si Si8 0.339631 0.013388 0.838545
O O1 0.500000 0.656345 0.607471
O O2 0.765722 0.655558 0.644852
O O3 0.688882 0.582141 0.568056
O O4 0.725284 0.690687 0.542492
O O5 0.750000 0.641099 0.750000
O O6 0.797648 0.548594 0.689693
O O7 0.000000 0.630605 0.700483
O O8 0.000000 0.994382 0.063424
O O9 0.758591 0.975090 0.107778
O O10 0.770666 0.000000 0.000000
O O11 0.500000 0.250000 0.727142
O O12 0.638474 0.149058 0.718767
O O13 0.500000 0.191955 0.631863
O O14 0.500000 0.750000 0.542332
O O15 0.642235 0.750000 0.448230
O O16 0.325781 0.566538 0.204809
O O17 0.500000 0.010466 0.860427
#
# Coordination Sequence:
#
# PCOD8298693 Si02
#       8
#    16  16  16   8   8   8   4  16
#     4   9  17  32  54  76 104 146 183 237 287 334
#     4  10  19  32  51  78 117 147 186 228 281 341
#     4   9  19  33  52  82 116 146 187 241 291 347
#     4  10  24  40  60  85 115 154 188 242 299 331
#     4   8  16  34  58  80 105 137 195 235 280 341
#     4  12  21  38  60  86 116 149 196 238 286 362
#     4   8  20  38  60  88 102 150 188 254 280 338
#     4  10  21  34  52  83 112 153 191 230 287 346
#
# _framework density 18.028839999999999
#
# number of rings (size 3 to 8) (size 9 to 14) (size 15 to 20)
#    0.522    1.913    1.739    0.783    1.217    2.435 
#    0.000    0.870    0.000    0.000    2.261    0.000 
#    0.000    0.000    0.000    0.000    0.000    0.000 
#
# Total GULP energy -570066.823679 kJ/mol
# GULP energy per Si atom -12392.757037 kJ/mol
# Density = 1.798781 g / cm^3
# Si number density = 18.028840 Si / 1000 Ang^3
#
#
#
# Elastic Constant Matrix: (Units=GPa)
#
#
# Indices 1 2 3 4 5 6 
#
# 1 73.4489 21.4919 57.8639 0.0000 0.0000 0.0000
# 2 21.4919 65.8415 43.6223 0.0000 0.0000 0.0000
# 3 57.8639 43.6223 159.2032 0.0000 0.0000 0.0000
# 4 0.0000 0.0000 0.0000 30.1909 0.0000 0.0000
# 5 0.0000 0.0000 0.0000 0.0000 30.7658 0.0000
# 6 0.0000 0.0000 0.0000 0.0000 0.0000 17.8294
#
#
#
# Elastic Compliance Matrix: (Units=1/GPa)
#
#
# Indices 1 2 3 4 5 6 
#
# 1 0.019295 -0.002018 -0.006460 0.000000 0.000000 0.000000
# 2 -0.002018 0.018768 -0.004409 0.000000 0.000000 0.000000
# 3 -0.006460 -0.004409 0.009837 0.000000 0.000000 0.000000
# 4 0.000000 0.000000 0.000000 0.033123 0.000000 0.000000
# 5 0.000000 0.000000 0.000000 0.000000 0.032504 0.000000
# 6 0.000000 0.000000 0.000000 0.000000 0.000000 0.056087
#
#
# Mechanical properties :
#
#
# Convention : Reuss Voigt Hill
#
# Bulk Modulus (GPa) = 45.19632 60.49443 52.84538
# Shear Modulus (GPa) = 24.65946 27.45826 26.05886
#
# Velocity S-wave (km/s) = 3.70236 3.90682 3.80596
# Velocity P-wave (km/s) = 6.58786 7.34698 6.97775
#
# Compressibility (1/GPa) = 0.02212569
#
# Stress axis : x y z
#
# Youngs Moduli (GPa) = 51.82806 53.28267 101.65488
#
# Poissons Ratio (x) = 0.10754 0.65667
# Poissons Ratio (y) = 0.10460 0.44819
# Poissons Ratio (z) = 0.33480 0.23492
#
# Static dielectric constant tensor:
#      x y z
#    x 3.205910 0.000000 0.000000 
#    y 0.000000 3.265160 0.000000 
#    z 0.000000 0.000000 3.415520 
# 
# 
# High freq. dielectric constant tensor:
#      x y z
#    x 1.680940 0.000000 0.000000 
#    y 0.000000 1.686040 0.000000 
#    z 0.000000 0.000000 1.701510 
# 
# From -- ./inp_files/57386.got.cif
#   From: 2010.03.12/outbox.cif.g09.slc.cpg/sg74_29_cif.got.tgz:57386.got - 2010.04.16 15:46:19.
