data_PCOD8298603
_publ_section_title
;
Structure prediction by ZEFSAII (Michael W. Deem and Ramdas Pophale) SiO2 
 PCOD8298603
Probable space group: I M M A
;
_chemical_formula_sum "Si O2"
_cell_formula_units_Z 112
_cell_length_a 35.164116
_cell_length_b 34.008986
_cell_length_c 5.026494
_cell_angle_alpha 90.000000
_cell_angle_beta 90.000000
_cell_angle_gamma 90.000000
_cell_volume 6011.163710
_symmetry_space_group_name_H-M "I M M A"
_symmetry_group_IT_number 74
_symmetry_cell_setting 'orthorhombic'
loop_
_space_group_symop_operation_xyz
x,y,z
-x,1/2-y,z
x,-y,-z
-x,1/2+y,-z
-x,-y,-z
x,1/2+y,-z
-x,y,z
x,1/2-y,z
1/2+x,1/2+y,1/2+z
1/2-x,-y,1/2+z
1/2+x,1/2-y,1/2-z
1/2-x,y,1/2-z
1/2-x,1/2-y,1/2-z
1/2+x,y,1/2-z
1/2-x,1/2+y,1/2+z
1/2+x,-y,1/2+z
loop_
_atom_site_type_symbol
_atom_site_label
_atom_site_fract_x
_atom_site_fract_y
_atom_site_fract_z
Si Si1 0.356274 0.585779 0.382019
Si Si2 0.542513 0.914009 0.883259
Si Si3 0.411198 0.705295 0.731344
Si Si4 0.458603 0.794763 0.247361
Si Si5 0.205831 0.973872 0.246669
Si Si6 0.619435 0.629313 0.894333
Si Si7 0.932730 0.957162 0.119674
O O1 0.316504 0.566827 0.291954
O O2 0.357834 0.602490 0.681641
O O3 0.388021 0.551996 0.353341
O O4 0.362293 0.622172 0.181462
O O5 0.500000 0.896777 0.924359
O O6 0.574314 0.880531 0.925583
O O7 0.546251 0.927921 0.580715
O O8 0.549127 0.950515 0.088320
O O9 0.395003 0.750000 0.704616
O O10 0.428195 0.687421 0.455917
O O11 0.377379 0.675467 0.817267
O O12 0.444525 0.703353 0.946999
O O13 0.500000 0.815677 0.266065
O O14 0.463139 0.750000 0.341921
O O15 0.250000 0.962392 0.250000
O O16 0.193834 0.000000 0.500000
O O17 0.194603 0.000000 0.000000
O O18 0.939018 0.000000 0.000000
#
# Coordination Sequence:
#
# PCOD8298603 Si02
#       7
#    16  16  16  16  16  16  16
#     4  10  20  35  52  72 104 134 161 195 239 299
#     4  10  21  33  44  62  88 119 158 207 254 287
#     4  10  19  32  49  68  92 122 165 217 258 303
#     4   9  17  28  43  65  90 117 154 205 266 320
#     4  10  20  34  56  86 114 138 164 195 232 280
#     4  10  21  35  49  69  96 132 169 204 254 305
#     4  10  20  32  48  66  85 119 162 199 239 283
#
# _framework density 18.632000000000001
#
# number of rings (size 3 to 8) (size 9 to 14) (size 15 to 20)
#    0.000    2.143    0.000    3.429    0.000    6.857 
#    0.000    0.000    0.000    0.000    0.000    0.000 
#    0.000    3.429    0.000    0.000    0.000    0.000 
#
# Total GULP energy -694143.235327 kJ/mol
# GULP energy per Si atom -12395.414917 kJ/mol
# Density = 1.858959 g / cm^3
# Si number density = 18.632000 Si / 1000 Ang^3
#
#
#
# Elastic Constant Matrix: (Units=GPa)
#
#
# Indices 1 2 3 4 5 6 
#
# 1 57.6801 25.3726 15.5626 0.0000 0.0000 0.0000
# 2 25.3726 66.2349 1.1195 0.0000 0.0000 0.0000
# 3 15.5626 1.1195 87.3603 0.0000 0.0000 0.0000
# 4 0.0000 0.0000 0.0000 16.1239 0.0000 0.0000
# 5 0.0000 0.0000 0.0000 0.0000 18.7133 0.0000
# 6 0.0000 0.0000 0.0000 0.0000 0.0000 14.7892
#
#
#
# Elastic Compliance Matrix: (Units=1/GPa)
#
#
# Indices 1 2 3 4 5 6 
#
# 1 0.022056 -0.008385 -0.003822 0.000000 0.000000 0.000000
# 2 -0.008385 0.018288 0.001259 0.000000 0.000000 0.000000
# 3 -0.003822 0.001259 0.012112 0.000000 0.000000 0.000000
# 4 0.000000 0.000000 0.000000 0.062020 0.000000 0.000000
# 5 0.000000 0.000000 0.000000 0.000000 0.053438 0.000000
# 6 0.000000 0.000000 0.000000 0.000000 0.000000 0.067617
#
#
# Mechanical properties :
#
#
# Convention : Reuss Voigt Hill
#
# Bulk Modulus (GPa) = 32.72008 32.82052 32.77030
# Shear Modulus (GPa) = 18.68376 21.20666 19.94521
#
# Velocity S-wave (km/s) = 3.17010 3.37736 3.27537
# Velocity P-wave (km/s) = 5.56765 5.73255 5.65070
#
# Compressibility (1/GPa) = 0.03056228
#
# Stress axis : x y z
#
# Youngs Moduli (GPa) = 45.33840 54.67960 82.56605
#
# Poissons Ratio (x) = 0.45846 0.31554
# Poissons Ratio (y) = 0.38014 -0.10397
# Poissons Ratio (z) = 0.17327 -0.06886
#
# Static dielectric constant tensor:
#      x y z
#    x 3.169770 0.000000 0.000000 
#    y 0.000000 3.295510 0.000000 
#    z 0.000000 0.000000 3.651820 
# 
# 
# High freq. dielectric constant tensor:
#      x y z
#    x 1.671620 0.000000 0.000000 
#    y 0.000000 1.706570 0.000000 
#    z 0.000000 0.000000 1.750510 
# 
# From -- ./inp_files/5350.got.cif
#   From: 2010.03.12/outbox.cif.g09.slc.cpg/sg74_3_cif.got.tgz:5350.got - 2010.04.16 15:46:19.
