data_PCOD8298202
_publ_section_title
;
Structure prediction by ZEFSAII (Michael W. Deem and Ramdas Pophale) SiO2 
 PCOD8298202
Probable space group: I M M A
;
_chemical_formula_sum "Si O2"
_cell_formula_units_Z 96
_cell_length_a 14.547511
_cell_length_b 14.985397
_cell_length_c 25.179546
_cell_angle_alpha 90.000000
_cell_angle_beta 90.000000
_cell_angle_gamma 90.000000
_cell_volume 5489.146761
_symmetry_space_group_name_H-M "I M M A"
_symmetry_group_IT_number 74
_symmetry_cell_setting 'orthorhombic'
loop_
_space_group_symop_operation_xyz
x,y,z
-x,1/2-y,z
x,-y,-z
-x,1/2+y,-z
-x,-y,-z
x,1/2+y,-z
-x,y,z
x,1/2-y,z
1/2+x,1/2+y,1/2+z
1/2-x,-y,1/2+z
1/2+x,1/2-y,1/2-z
1/2-x,y,1/2-z
1/2-x,1/2-y,1/2-z
1/2+x,y,1/2-z
1/2-x,1/2+y,1/2+z
1/2+x,-y,1/2+z
loop_
_atom_site_type_symbol
_atom_site_label
_atom_site_fract_x
_atom_site_fract_y
_atom_site_fract_z
Si Si1 0.787670 0.001110 0.121533
Si Si2 0.141739 0.250000 0.798198
Si Si3 0.838230 0.250000 0.672789
Si Si4 0.895580 0.559492 0.337912
Si Si5 0.604064 0.851413 0.562641
Si Si6 0.395994 0.851857 0.438056
Si Si7 0.400022 0.444209 0.714989
O O1 0.676355 0.997888 0.126815
O O2 0.822991 0.914985 0.090063
O O3 0.827822 0.000674 0.181119
O O4 0.819355 0.090729 0.092582
O O5 0.158162 0.250000 0.735780
O O6 0.229422 0.250000 0.837469
O O7 0.089520 0.343129 0.808792
O O8 0.886756 0.336096 0.646924
O O9 0.868159 0.551958 0.275994
O O10 0.000000 0.527071 0.349302
O O11 0.500000 0.884890 0.575200
O O12 0.615517 0.750000 0.582140
O O13 0.623144 0.858085 0.500436
O O14 0.500000 0.884430 0.425994
O O15 0.383714 0.750000 0.417977
O O16 0.500000 0.489008 0.709516
#
# Coordination Sequence:
#
# PCOD8298202 Si02
#       7
#    16   8   8  16  16  16  16
#     4  12  20  29  52  77  97 129 172 206 235 287
#     4   9  15  25  41  60  93 135 168 197 225 280
#     4   9  15  29  43  56  89 143 180 193 225 276
#     4  10  21  33  44  64 101 143 174 204 239 279
#     4   9  19  37  56  75 100 126 155 197 255 313
#     4   9  19  33  50  77 109 130 148 189 249 307
#     4  10  19  29  43  68 103 136 164 198 243 290
#
# _framework density 17.489056999999999
#
# number of rings (size 3 to 8) (size 9 to 14) (size 15 to 20)
#    0.000    2.167    1.667    4.000    2.333    3.333 
#    0.000    0.000    0.000    4.500    0.000    4.667 
#    0.000    0.000    0.000    0.000    0.000    0.000 
#
# Total GULP energy -594872.021310 kJ/mol
# GULP energy per Si atom -12393.167111 kJ/mol
# Density = 1.744925 g / cm^3
# Si number density = 17.489057 Si / 1000 Ang^3
#
#
#
# Elastic Constant Matrix: (Units=GPa)
#
#
# Indices 1 2 3 4 5 6 
#
# 1 118.2200 35.8685 35.1026 0.0000 0.0000 0.0000
# 2 35.8685 61.0428 24.4494 0.0000 0.0000 0.0000
# 3 35.1026 24.4494 34.0380 0.0000 0.0000 0.0000
# 4 0.0000 0.0000 0.0000 26.6601 0.0000 0.0000
# 5 0.0000 0.0000 0.0000 0.0000 24.6947 0.0000
# 6 0.0000 0.0000 0.0000 0.0000 0.0000 21.7163
#
#
#
# Elastic Compliance Matrix: (Units=1/GPa)
#
#
# Indices 1 2 3 4 5 6 
#
# 1 0.012593 -0.003086 -0.010770 0.000000 0.000000 0.000000
# 2 -0.003086 0.023755 -0.013881 0.000000 0.000000 0.000000
# 3 -0.010770 -0.013881 0.050457 0.000000 0.000000 0.000000
# 4 0.000000 0.000000 0.000000 0.037509 0.000000 0.000000
# 5 0.000000 0.000000 0.000000 0.000000 0.040494 0.000000
# 6 0.000000 0.000000 0.000000 0.000000 0.000000 0.046048
#
#
# Mechanical properties :
#
#
# Convention : Reuss Voigt Hill
#
# Bulk Modulus (GPa) = 31.91756 44.90465 38.41111
# Shear Modulus (GPa) = 18.06530 22.47293 20.26911
#
# Velocity S-wave (km/s) = 3.21744 3.58854 3.40804
# Velocity P-wave (km/s) = 5.66500 6.54994 6.12348
#
# Compressibility (1/GPa) = 0.03133072
#
# Stress axis : x y z
#
# Youngs Moduli (GPa) = 79.40879 42.09689 19.81898
#
# Poissons Ratio (x) = 0.12990 0.21346
# Poissons Ratio (y) = 0.24504 0.27510
# Poissons Ratio (z) = 0.85527 0.58433
#
# Static dielectric constant tensor:
#      x y z
#    x 3.222140 0.000000 0.000000 
#    y 0.000000 3.031860 0.000000 
#    z 0.000000 0.000000 3.131520 
# 
# 
# High freq. dielectric constant tensor:
#      x y z
#    x 1.668070 0.000000 0.000000 
#    y 0.000000 1.640000 0.000000 
#    z 0.000000 0.000000 1.659850 
# 
# From -- ./inp_files/67116.got.cif
#   From: 2010.03.12/outbox.cif.g09.slc.cpg/sg74_34_cif.got.tgz:67116.got - 2010.04.16 15:46:19.
