data_PCOD8298101
_publ_section_title
;
Structure prediction by ZEFSAII (Michael W. Deem and Ramdas Pophale) SiO2 
 PCOD8298101
Probable space group: I M M A
;
_chemical_formula_sum "Si O2"
_cell_formula_units_Z 88
_cell_length_a 11.525078
_cell_length_b 16.536390
_cell_length_c 22.671232
_cell_angle_alpha 90.000000
_cell_angle_beta 90.000000
_cell_angle_gamma 90.000000
_cell_volume 4320.755593
_symmetry_space_group_name_H-M "I M M A"
_symmetry_group_IT_number 74
_symmetry_cell_setting 'orthorhombic'
loop_
_space_group_symop_operation_xyz
x,y,z
-x,1/2-y,z
x,-y,-z
-x,1/2+y,-z
-x,-y,-z
x,1/2+y,-z
-x,y,z
x,1/2-y,z
1/2+x,1/2+y,1/2+z
1/2-x,-y,1/2+z
1/2+x,1/2-y,1/2-z
1/2-x,y,1/2-z
1/2-x,1/2-y,1/2-z
1/2+x,y,1/2-z
1/2-x,1/2+y,1/2+z
1/2+x,-y,1/2+z
loop_
_atom_site_type_symbol
_atom_site_label
_atom_site_fract_x
_atom_site_fract_y
_atom_site_fract_z
Si Si1 0.364218 0.750000 0.207850
Si Si2 0.635376 0.842776 0.605562
Si Si3 0.000000 0.839701 0.693104
Si Si4 0.792923 0.552214 0.689247
Si Si5 0.368725 0.602052 0.120910
Si Si6 0.000000 0.159590 0.446060
Si Si7 0.273181 0.345139 0.995148
O O1 0.500000 0.750000 0.234692
O O2 0.250000 0.750000 0.250000
O O3 0.348433 0.670429 0.169123
O O4 0.500000 0.851730 0.615435
O O5 0.677849 0.750000 0.616412
O O6 0.695022 0.902200 0.651827
O O7 0.663860 0.866132 0.537122
O O8 0.115056 0.883757 0.714617
O O9 0.000000 0.750000 0.720103
O O10 0.000000 0.840635 0.623237
O O11 0.750000 0.510796 0.750000
O O12 0.853414 0.485137 0.649474
O O13 0.500000 0.609099 0.095346
O O14 0.273573 0.611548 0.068572
O O15 0.883251 0.118086 0.469333
O O16 0.000000 0.250000 0.471328
O O17 0.280696 0.250000 0.983122
#
# Coordination Sequence:
#
# PCOD8298101 Si02
#       7
#     8  16   8  16  16   8  16
#     4  10  22  42  66  96 130 178 233 274 329 396
#     4  10  23  43  65  90 128 174 213 260 321 392
#     4  11  22  41  63  92 122 162 212 261 318 374
#     4  12  26  42  60  91 131 165 214 272 318 367
#     4  11  22  39  66  97 128 165 213 272 327 381
#     4   9  16  29  59  93 124 147 184 256 323 359
#     4  10  18  35  64  97 127 155 201 260 320 381
#
# _framework density 20.366807999999999
#
# number of rings (size 3 to 8) (size 9 to 14) (size 15 to 20)
#    0.000    1.455    4.545    1.091    1.273    2.182 
#    0.000    5.455    0.000    0.000    0.000    0.000 
#    0.000    0.000    0.000    0.000    0.000    0.000 
#
# Total GULP energy -545280.154417 kJ/mol
# GULP energy per Si atom -12392.730782 kJ/mol
# Density = 2.032045 g / cm^3
# Si number density = 20.366808 Si / 1000 Ang^3
#
#
#
# Elastic Constant Matrix: (Units=GPa)
#
#
# Indices 1 2 3 4 5 6 
#
# 1 81.4346 22.0117 28.0322 0.0000 0.0000 0.0000
# 2 22.0117 78.5955 22.0224 0.0000 0.0000 0.0000
# 3 28.0322 22.0224 91.7976 0.0000 0.0000 0.0000
# 4 0.0000 0.0000 0.0000 14.7407 0.0000 0.0000
# 5 0.0000 0.0000 0.0000 0.0000 1189.3812 0.0000
# 6 0.0000 0.0000 0.0000 0.0000 0.0000 30.2209
#
#
#
# Elastic Compliance Matrix: (Units=1/GPa)
#
#
# Indices 1 2 3 4 5 6 
#
# 1 0.014350 -0.002992 -0.003664 0.000000 0.000000 0.000000
# 2 -0.002992 0.014264 -0.002508 0.000000 0.000000 0.000000
# 3 -0.003664 -0.002508 0.012614 0.000000 0.000000 0.000000
# 4 0.000000 0.000000 0.000000 0.067839 0.000000 0.000000
# 5 0.000000 0.000000 0.000000 0.000000 0.000841 0.000000
# 6 0.000000 0.000000 0.000000 0.000000 0.000000 0.033090
#
#
# Mechanical properties :
#
#
# Convention : Reuss Voigt Hill
#
# Bulk Modulus (GPa) = 43.67003 43.99557 43.83280
# Shear Modulus (GPa) = 29.59272 258.85265 144.22268
#
# Velocity S-wave (km/s) = 3.81594 11.28589 8.42415
# Velocity P-wave (km/s) = 6.39559 13.83752 10.77916
#
# Compressibility (1/GPa) = 0.02289900
#
# Stress axis : x y z
#
# Youngs Moduli (GPa) = 69.68686 70.10563 79.27573
#
# Poissons Ratio (x) = 0.20977 0.29048
# Poissons Ratio (y) = 0.20852 0.19885
# Poissons Ratio (z) = 0.25535 0.17584
#
# Static dielectric constant tensor:
#      x y z
#    x 3.604180 0.000000 0.000000 
#    y 0.000000 3.746560 0.000000 
#    z 0.000000 0.000000 3.648280 
# 
# 
# High freq. dielectric constant tensor:
#      x y z
#    x 1.787860 0.000000 0.000000 
#    y 0.000000 1.787280 0.000000 
#    z 0.000000 0.000000 1.796460 
# 
# From -- ./inp_files/58692.got.cif
#   From: 2010.03.12/outbox.cif.g09.slc.cpg/sg74_30_cif.got.tgz:58692.got - 2010.04.16 15:46:19.
