data_PCOD8298037
_publ_section_title
;
Structure prediction by ZEFSAII (Michael W. Deem and Ramdas Pophale) SiO2 
 PCOD8298037
Probable space group: I M M A
;
_chemical_formula_sum "Si O2"
_cell_formula_units_Z 104
_cell_length_a 29.633391
_cell_length_b 9.245919
_cell_length_c 19.512887
_cell_angle_alpha 90.000000
_cell_angle_beta 90.000000
_cell_angle_gamma 90.000000
_cell_volume 5346.295574
_symmetry_space_group_name_H-M "I M M A"
_symmetry_group_IT_number 74
_symmetry_cell_setting 'orthorhombic'
loop_
_space_group_symop_operation_xyz
x,y,z
-x,1/2-y,z
x,-y,-z
-x,1/2+y,-z
-x,-y,-z
x,1/2+y,-z
-x,y,z
x,1/2-y,z
1/2+x,1/2+y,1/2+z
1/2-x,-y,1/2+z
1/2+x,1/2-y,1/2-z
1/2-x,y,1/2-z
1/2-x,1/2-y,1/2-z
1/2+x,y,1/2-z
1/2-x,1/2+y,1/2+z
1/2+x,-y,1/2+z
loop_
_atom_site_type_symbol
_atom_site_label
_atom_site_fract_x
_atom_site_fract_y
_atom_site_fract_z
Si Si1 0.664408 0.580537 0.184418
Si Si2 0.000000 0.410374 0.433597
Si Si3 0.500000 0.091518 0.749419
Si Si4 0.927226 0.918615 0.677508
Si Si5 0.402230 0.422304 0.565753
Si Si6 0.759477 0.079998 0.572356
Si Si7 0.500000 0.093517 0.591663
Si Si8 0.676972 0.919811 0.338210
O O1 0.651951 0.750000 0.187989
O O2 0.621078 0.487663 0.165207
O O3 0.699891 0.548181 0.124762
O O4 0.681996 0.526842 0.259461
O O5 0.000000 0.500000 0.500000
O O6 0.044928 0.443291 0.391476
O O7 0.000000 0.250000 0.460460
O O8 0.500000 0.250000 0.787015
O O9 0.500000 0.123601 0.670789
O O10 0.545407 0.001741 0.763696
O O11 0.923332 0.750000 0.697191
O O12 0.379951 0.500000 0.500000
O O13 0.402347 0.250000 0.556241
O O14 0.453289 0.487631 0.572411
O O15 0.372266 0.463416 0.632227
O O16 0.755377 0.250000 0.556546
O O17 0.715287 0.016403 0.611165
O O18 0.767098 0.000000 0.500000
O O19 0.500000 0.250000 0.554427
O O20 0.684464 0.750000 0.338527
#
# Coordination Sequence:
#
# PCOD8298037 Si02
#       8
#    16   8   8  16  16  16   8  16
#     4  10  20  36  59  83 105 140 189 230 268 325
#     4   9  20  36  53  73 102 141 180 217 259 315
#     4  10  18  33  57  79 101 139 188 226 260 315
#     4  10  21  36  52  78 114 142 170 221 284 330
#     4  10  19  32  50  73 104 140 177 220 270 320
#     4  10  21  37  58  83 111 142 179 227 280 333
#     4   9  18  31  49  74 104 138 176 219 261 306
#     4   9  18  35  58  80 104 139 186 234 273 319
#
# _framework density 19.452722999999999
#
# number of rings (size 3 to 8) (size 9 to 14) (size 15 to 20)
#    0.000    2.308    0.000    3.231    0.000    7.385 
#    0.000    7.692    0.000    1.846    0.000    0.000 
#    0.000    0.000    0.000    0.000    0.000    0.000 
#
# Total GULP energy -644431.837218 kJ/mol
# GULP energy per Si atom -12392.919947 kJ/mol
# Density = 1.940845 g / cm^3
# Si number density = 19.452723 Si / 1000 Ang^3
#
#
#
# Elastic Constant Matrix: (Units=GPa)
#
#
# Indices 1 2 3 4 5 6 
#
# 1 137.5637 49.8748 61.8253 0.0000 0.0000 0.0000
# 2 49.8748 65.8308 49.3046 0.0000 0.0000 0.0000
# 3 61.8253 49.3046 148.7793 0.0000 0.0000 0.0000
# 4 0.0000 0.0000 0.0000 29.2613 0.0000 0.0000
# 5 0.0000 0.0000 0.0000 0.0000 -42.2933 0.0000
# 6 0.0000 0.0000 0.0000 0.0000 0.0000 22.3161
#
#
#
# Elastic Compliance Matrix: (Units=1/GPa)
#
#
# Indices 1 2 3 4 5 6 
#
# 1 0.010591 -0.006288 -0.002317 0.000000 0.000000 0.000000
# 2 -0.006288 0.023939 -0.005320 0.000000 0.000000 0.000000
# 3 -0.002317 -0.005320 0.009447 0.000000 0.000000 0.000000
# 4 0.000000 0.000000 0.000000 0.034175 0.000000 0.000000
# 5 0.000000 0.000000 0.000000 0.000000 -0.023644 0.000000
# 6 0.000000 0.000000 0.000000 0.000000 0.000000 0.044811
#
#
# Mechanical properties :
#
#
# Convention : Reuss Voigt Hill
#
# Bulk Modulus (GPa) = 62.01147 74.90924 68.46036
# Shear Modulus (GPa) = 37.72311 14.60141 26.16226
#
# Velocity S-wave (km/s) = 4.40843 2.74270 3.67129
# Velocity P-wave (km/s) = 7.60655 6.97293 7.29662
#
# Compressibility (1/GPa) = 0.01612605
#
# Stress axis : x y z
#
# Youngs Moduli (GPa) = 94.42367 41.77237 105.85040
#
# Poissons Ratio (x) = 0.26268 0.24526
# Poissons Ratio (y) = 0.59376 0.56315
# Poissons Ratio (z) = 0.21878 0.22224
#
# Static dielectric constant tensor:
#      x y z
#    x 3.697380 0.000000 0.000000 
#    y 0.000000 3.079170 0.000000 
#    z 0.000000 0.000000 3.555100 
# 
# 
# High freq. dielectric constant tensor:
#      x y z
#    x 1.767120 0.000000 0.000000 
#    y 0.000000 1.730620 0.000000 
#    z 0.000000 0.000000 1.762320 
# 
# From -- ./inp_files/55305.got.cif
#   From: 2010.03.12/outbox.cif.g09.slc.cpg/sg74_28_cif.got.tgz:55305.got - 2010.04.16 15:46:19.
