data_PCOD8298452
_publ_section_title
;
Structure prediction by ZEFSAII (Michael W. Deem and Ramdas Pophale) SiO2 
 PCOD8298452
Probable space group: I M M A
;
_chemical_formula_sum "Si O2"
_cell_formula_units_Z 96
_cell_length_a 9.043196
_cell_length_b 27.603789
_cell_length_c 20.793721
_cell_angle_alpha 90.000000
_cell_angle_beta 90.000000
_cell_angle_gamma 90.000000
_cell_volume 5190.663260
_symmetry_space_group_name_H-M "I M M A"
_symmetry_group_IT_number 74
_symmetry_cell_setting 'orthorhombic'
loop_
_space_group_symop_operation_xyz
x,y,z
-x,1/2-y,z
x,-y,-z
-x,1/2+y,-z
-x,-y,-z
x,1/2+y,-z
-x,y,z
x,1/2-y,z
1/2+x,1/2+y,1/2+z
1/2-x,-y,1/2+z
1/2+x,1/2-y,1/2-z
1/2-x,y,1/2-z
1/2-x,1/2-y,1/2-z
1/2+x,y,1/2-z
1/2-x,1/2+y,1/2+z
1/2+x,-y,1/2+z
loop_
_atom_site_type_symbol
_atom_site_label
_atom_site_fract_x
_atom_site_fract_y
_atom_site_fract_z
Si Si1 0.327708 0.469532 0.939273
Si Si2 0.165927 0.528615 0.187875
Si Si3 0.331334 0.692495 0.559484
Si Si4 0.667298 0.856012 0.312740
Si Si5 0.667412 0.692296 0.813136
Si Si6 0.173534 0.857182 0.441589
O O1 0.500000 0.477658 0.926777
O O2 0.244443 0.489834 0.876756
O O3 0.291034 0.413589 0.952197
O O4 0.270729 0.500000 0.000000
O O5 0.250000 0.507433 0.250000
O O6 0.168218 0.586320 0.189961
O O7 0.000000 0.508376 0.188849
O O8 0.500000 0.673882 0.557816
O O9 0.325005 0.750000 0.556643
O O10 0.254727 0.673146 0.624505
O O11 0.241801 0.672216 0.499766
O O12 0.500000 0.836033 0.314253
O O13 0.750000 0.834923 0.250000
O O14 0.753019 0.837911 0.375919
O O15 0.500000 0.672199 0.814634
O O16 0.666318 0.750000 0.811883
O O17 0.750000 0.672037 0.750000
O O18 0.000000 0.847064 0.437693
#
# Coordination Sequence:
#
# PCOD8298452 Si02
#       6
#    16  16  16  16  16  16
#     4   9  18  32  49  70  97 127 157 192 235 281
#     4   9  16  26  43  67  93 121 155 195 235 275
#     4  10  20  33  49  70  97 128 160 195 236 281
#     4   9  16  27  44  67  94 122 155 195 235 276
#     4   9  16  27  45  69  95 122 155 195 236 278
#     4  10  19  31  49  72  97 126 159 195 236 281
#
# _framework density 18.494745000000002
#
# number of rings (size 3 to 8) (size 9 to 14) (size 15 to 20)
#    0.000    2.667    0.000    2.500    0.000    8.000 
#    0.000    0.000    0.000    1.500    0.000    4.667 
#    0.000    0.000    0.000    0.000    0.000    0.000 
#
# Total GULP energy -595227.604581 kJ/mol
# GULP energy per Si atom -12400.575095 kJ/mol
# Density = 1.845265 g / cm^3
# Si number density = 18.494745 Si / 1000 Ang^3
#
#
#
# Elastic Constant Matrix: (Units=GPa)
#
#
# Indices 1 2 3 4 5 6 
#
# 1 145.2553 16.9339 88.8584 0.0000 0.0000 0.0000
# 2 16.9339 9.7342 20.2640 -0.0001 0.0000 0.0000
# 3 88.8584 20.2640 188.8907 -0.0005 0.0000 0.0001
# 4 0.0000 -0.0001 -0.0005 25.2936 0.0000 0.0000
# 5 0.0000 0.0000 0.0000 0.0000 45.4618 0.0000
# 6 0.0000 0.0000 0.0001 0.0000 0.0000 13.2182
#
#
#
# Elastic Compliance Matrix: (Units=1/GPa)
#
#
# Indices 1 2 3 4 5 6 
#
# 1 0.010394 -0.010175 -0.003798 0.000000 0.000000 0.000000
# 2 -0.010175 0.142231 -0.010472 0.000000 0.000000 0.000000
# 3 -0.003798 -0.010472 0.008204 0.000000 0.000000 0.000000
# 4 0.000000 0.000000 0.000000 0.039536 0.000000 0.000000
# 5 0.000000 0.000000 0.000000 0.000000 0.021996 0.000000
# 6 0.000000 0.000000 0.000000 0.000000 0.000000 0.075653
#
#
# Mechanical properties :
#
#
# Convention : Reuss Voigt Hill
#
# Bulk Modulus (GPa) = 8.93344 66.22143 37.57744
# Shear Modulus (GPa) = 13.01345 31.31630 22.16488
#
# Velocity S-wave (km/s) = 2.65548 4.11938 3.46561
# Velocity P-wave (km/s) = 3.77397 7.64912 6.03125
#
# Compressibility (1/GPa) = 0.11193894
#
# Stress axis : x y z
#
# Youngs Moduli (GPa) = 96.20868 7.03082 121.89005
#
# Poissons Ratio (x) = 0.07154 0.46294
# Poissons Ratio (y) = 0.97897 1.27639
# Poissons Ratio (z) = 0.36540 0.07362
#
# Static dielectric constant tensor:
#      x y z
#    x 3.644810 0.000000 0.000000 
#    y 0.000000 2.812480 0.000000 
#    z 0.000000 0.000000 3.642020 
# 
# 
# High freq. dielectric constant tensor:
#      x y z
#    x 1.735070 0.000000 0.000000 
#    y 0.000000 1.648620 0.000000 
#    z 0.000000 0.000000 1.737450 
# 
# From -- ./inp_files/49070.got.cif
#   From: 2010.03.12/outbox.cif.g09.slc.cpg/sg74_25_cif.got.tgz:49070.got - 2010.04.16 15:46:19.
