data_PCOD8298895
_publ_section_title
;
Structure prediction by ZEFSAII (Michael W. Deem and Ramdas Pophale) SiO2 
 PCOD8298895
Probable space group: I M M A
;
_chemical_formula_sum "Si O2"
_cell_formula_units_Z 104
_cell_length_a 27.754194
_cell_length_b 8.969499
_cell_length_c 22.970840
_cell_angle_alpha 90.000000
_cell_angle_beta 90.000000
_cell_angle_gamma 90.000000
_cell_volume 5718.388827
_symmetry_space_group_name_H-M "I M M A"
_symmetry_group_IT_number 74
_symmetry_cell_setting 'orthorhombic'
loop_
_space_group_symop_operation_xyz
x,y,z
-x,1/2-y,z
x,-y,-z
-x,1/2+y,-z
-x,-y,-z
x,1/2+y,-z
-x,y,z
x,1/2-y,z
1/2+x,1/2+y,1/2+z
1/2-x,-y,1/2+z
1/2+x,1/2-y,1/2-z
1/2-x,y,1/2-z
1/2-x,1/2-y,1/2-z
1/2+x,y,1/2-z
1/2-x,1/2+y,1/2+z
1/2+x,-y,1/2+z
loop_
_atom_site_type_symbol
_atom_site_label
_atom_site_fract_x
_atom_site_fract_y
_atom_site_fract_z
Si Si1 0.820474 0.574637 0.858245
Si Si2 0.896975 0.925417 0.062830
Si Si3 0.354245 0.077301 0.132883
Si Si4 0.500000 0.583073 0.440716
Si Si5 0.445364 0.074803 0.061287
Si Si6 0.195095 0.573610 0.257445
Si Si7 0.736068 0.920927 0.940043
O O1 0.821242 0.750000 0.845401
O O2 0.861814 0.527984 0.901462
O O3 0.831759 0.485744 0.799406
O O4 0.769805 0.522872 0.887051
O O5 0.881840 0.750000 0.060578
O O6 0.949896 0.946317 0.093548
O O7 0.897641 0.000000 0.000000
O O8 0.354808 0.250000 0.151450
O O9 0.407421 0.023603 0.111480
O O10 0.319066 0.051083 0.077918
O O11 0.334173 0.985203 0.187063
O O12 0.500000 0.750000 0.462964
O O13 0.500000 0.500000 0.500000
O O14 0.500000 0.031972 0.080840
O O15 0.440182 0.250000 0.051421
O O16 0.432326 0.000000 0.000000
O O17 0.193948 0.750000 0.260439
O O18 0.250000 0.513929 0.250000
O O19 0.747702 0.750000 0.951696
O O20 0.748895 0.000000 0.000000
#
# Coordination Sequence:
#
# PCOD8298895 Si02
#       7
#    16  16  16   8  16  16  16
#     4  11  22  36  54  76 105 142 179 221 269 320
#     4  10  19  33  53  79 109 140 176 217 266 319
#     4  10  20  36  56  78 108 146 183 222 267 322
#     4   8  16  30  50  74 102 136 170 210 255 306
#     4   9  18  33  56  86 117 148 183 225 274 327
#     4  11  23  38  57  80 103 136 181 228 270 319
#     4  10  21  33  49  75 107 141 173 210 260 315
#
# _framework density 18.186941000000001
#
# number of rings (size 3 to 8) (size 9 to 14) (size 15 to 20)
#    0.000    2.000    1.538    2.308    0.000    4.923 
#    0.000    0.000    1.692    0.000    0.000    0.000 
#    0.000    0.000    0.000    0.000    0.000    0.000 
#
# Total GULP energy -644441.192199 kJ/mol
# GULP energy per Si atom -12393.099850 kJ/mol
# Density = 1.814555 g / cm^3
# Si number density = 18.186941 Si / 1000 Ang^3
#
#
#
# Elastic Constant Matrix: (Units=GPa)
#
#
# Indices 1 2 3 4 5 6 
#
# 1 123.4972 35.1156 48.2422 0.0000 0.0000 0.0000
# 2 35.1156 47.5217 37.6795 0.0000 0.0000 0.0000
# 3 48.2422 37.6795 102.7897 0.0000 0.0000 0.0000
# 4 0.0000 0.0000 0.0000 34.6873 0.0000 0.0000
# 5 0.0000 0.0000 0.0000 0.0000 10.0650 0.0000
# 6 0.0000 0.0000 0.0000 0.0000 0.0000 3.9716
#
#
#
# Elastic Compliance Matrix: (Units=1/GPa)
#
#
# Indices 1 2 3 4 5 6 
#
# 1 0.010888 -0.005630 -0.003046 0.000000 0.000000 0.000000
# 2 -0.005630 0.032577 -0.009299 0.000000 0.000000 0.000000
# 3 -0.003046 -0.009299 0.014567 0.000000 0.000000 0.000000
# 4 0.000000 0.000000 0.000000 0.028829 0.000000 0.000000
# 5 0.000000 0.000000 0.000000 0.000000 0.099354 0.000000
# 6 0.000000 0.000000 0.000000 0.000000 0.000000 0.251789
#
#
# Mechanical properties :
#
#
# Convention : Reuss Voigt Hill
#
# Bulk Modulus (GPa) = 45.28880 57.32035 51.30458
# Shear Modulus (GPa) = 10.38820 19.92953 15.15886
#
# Velocity S-wave (km/s) = 2.39255 3.31390 2.89018
# Velocity P-wave (km/s) = 5.70861 6.79914 6.27760
#
# Compressibility (1/GPa) = 0.02208051
#
# Stress axis : x y z
#
# Youngs Moduli (GPa) = 91.84169 30.69682 68.64816
#
# Poissons Ratio (x) = 0.17284 0.20912
# Poissons Ratio (y) = 0.51711 0.63836
# Poissons Ratio (z) = 0.27977 0.28545
#
# Static dielectric constant tensor:
#      x y z
#    x 3.570150 0.000000 0.000000 
#    y 0.000000 3.330090 0.000000 
#    z 0.000000 0.000000 3.153010 
# 
# 
# High freq. dielectric constant tensor:
#      x y z
#    x 1.713840 0.000000 0.000000 
#    y 0.000000 1.707790 0.000000 
#    z 0.000000 0.000000 1.685050 
# 
# From -- ./inp_files/62325.got.cif
#   From: 2010.03.12/outbox.cif.g09.slc.cpg/sg74_32_cif.got.tgz:62325.got - 2010.04.16 15:46:19.
