data_PCOD8298763
_publ_section_title
;
Structure prediction by ZEFSAII (Michael W. Deem and Ramdas Pophale) SiO2 
 PCOD8298763
Probable space group: I M M A
;
_chemical_formula_sum "Si O2"
_cell_formula_units_Z 112
_cell_length_a 17.027936
_cell_length_b 20.316373
_cell_length_c 16.997496
_cell_angle_alpha 90.000000
_cell_angle_beta 90.000000
_cell_angle_gamma 90.000000
_cell_volume 5880.214038
_symmetry_space_group_name_H-M "I M M A"
_symmetry_group_IT_number 74
_symmetry_cell_setting 'orthorhombic'
loop_
_space_group_symop_operation_xyz
x,y,z
-x,1/2-y,z
x,-y,-z
-x,1/2+y,-z
-x,-y,-z
x,1/2+y,-z
-x,y,z
x,1/2-y,z
1/2+x,1/2+y,1/2+z
1/2-x,-y,1/2+z
1/2+x,1/2-y,1/2-z
1/2-x,y,1/2-z
1/2-x,1/2-y,1/2-z
1/2+x,y,1/2-z
1/2-x,1/2+y,1/2+z
1/2+x,-y,1/2+z
loop_
_atom_site_type_symbol
_atom_site_label
_atom_site_fract_x
_atom_site_fract_y
_atom_site_fract_z
Si Si1 0.185492 0.076077 0.682494
Si Si2 0.589015 0.628398 0.685233
Si Si3 0.908301 0.621572 0.184604
Si Si4 0.725289 0.177223 0.408250
Si Si5 0.090085 0.499812 0.914692
Si Si6 0.221675 0.323191 0.912663
Si Si7 0.183744 0.927174 0.684359
O O1 0.250000 0.076100 0.750000
O O2 0.108267 0.109510 0.722608
O O3 0.212950 0.122830 0.611361
O O4 0.167739 0.001368 0.652256
O O5 0.500000 0.655620 0.682383
O O6 0.650995 0.681038 0.652019
O O7 0.602562 0.568882 0.625461
O O8 0.606482 0.604001 0.774249
O O9 0.874537 0.555974 0.141106
O O10 0.855766 0.677645 0.143485
O O11 0.000000 0.637228 0.172555
O O12 0.764435 0.250000 0.402791
O O13 0.696523 0.163042 0.497133
O O14 0.788776 0.121373 0.385217
O O15 0.000000 0.480937 0.926322
O O16 0.132390 0.500000 0.000000
O O17 0.258500 0.250000 0.904667
O O18 0.250000 0.930062 0.750000
#
# Coordination Sequence:
#
# PCOD8298763 Si02
#       7
#    16  16  16  16  16  16  16
#     4   9  18  33  53  76 103 136 178 222 261 311
#     4  10  19  32  53  80 108 137 169 213 267 321
#     4  10  19  32  53  80 108 137 169 213 267 321
#     4  10  22  37  52  74 107 145 182 221 264 312
#     4   9  16  26  43  72 107 137 161 193 246 309
#     4  10  22  37  52  74 107 145 182 221 264 312
#     4   9  18  33  53  76 103 136 178 222 261 311
#
# _framework density 19.046925999999999
#
# number of rings (size 3 to 8) (size 9 to 14) (size 15 to 20)
#    0.000    2.429    1.429    0.857    2.000    8.000 
#    0.000    1.429    0.000    0.857    0.000    4.000 
#    0.000    0.000    0.000    0.000    0.000    0.000 
#
# Total GULP energy -693964.041803 kJ/mol
# GULP energy per Si atom -12392.215032 kJ/mol
# Density = 1.900357 g / cm^3
# Si number density = 19.046926 Si / 1000 Ang^3
#
#
#
# Elastic Constant Matrix: (Units=GPa)
#
#
# Indices 1 2 3 4 5 6 
#
# 1 52.3425 24.7798 44.9944 0.0000 0.0000 0.0000
# 2 24.7798 103.8899 50.3630 0.0000 0.0000 0.0000
# 3 44.9944 50.3630 73.3214 0.0000 0.0000 0.0000
# 4 0.0000 0.0000 0.0000 27.1937 0.0000 0.0000
# 5 0.0000 0.0000 0.0000 0.0000 21.7717 0.0000
# 6 0.0000 0.0000 0.0000 0.0000 0.0000 18.6359
#
#
#
# Elastic Compliance Matrix: (Units=1/GPa)
#
#
# Indices 1 2 3 4 5 6 
#
# 1 0.041340 0.003655 -0.027879 0.000000 0.000000 0.000000
# 2 0.003655 0.014754 -0.012377 0.000000 0.000000 0.000000
# 3 -0.027879 -0.012377 0.039248 0.000000 0.000000 0.000000
# 4 0.000000 0.000000 0.000000 0.036773 0.000000 0.000000
# 5 0.000000 0.000000 0.000000 0.000000 0.045931 0.000000
# 6 0.000000 0.000000 0.000000 0.000000 0.000000 0.053660
#
#
# Mechanical properties :
#
#
# Convention : Reuss Voigt Hill
#
# Bulk Modulus (GPa) = 45.16786 52.20313 48.68549
# Shear Modulus (GPa) = 16.01085 20.81468 18.41276
#
# Velocity S-wave (km/s) = 2.90246 3.30935 3.11256
# Velocity P-wave (km/s) = 5.91589 6.48611 6.20755
#
# Compressibility (1/GPa) = 0.02213964
#
# Stress axis : x y z
#
# Youngs Moduli (GPa) = 24.18969 67.77915 25.47898
#
# Poissons Ratio (x) = -0.24770 0.71033
# Poissons Ratio (y) = -0.08840 0.31535
# Poissons Ratio (z) = 0.67438 0.83888
#
# Static dielectric constant tensor:
#      x y z
#    x 3.412890 0.000000 0.000000 
#    y 0.000000 3.555760 0.000000 
#    z 0.000000 0.000000 3.535750 
# 
# 
# High freq. dielectric constant tensor:
#      x y z
#    x 1.703040 0.000000 0.000000 
#    y 0.000000 1.744020 0.000000 
#    z 0.000000 0.000000 1.723440 
# 
# From -- ./inp_files/44454.got.cif
#   From: 2010.03.12/outbox.cif.g09.slc.cpg/sg74_23_cif.got.tgz:44454.got - 2010.04.16 15:46:19.
