data_PCOD8298526
_publ_section_title
;
Structure prediction by ZEFSAII (Michael W. Deem and Ramdas Pophale) SiO2 
 PCOD8298526
Probable space group: I M M A
;
_chemical_formula_sum "Si O2"
_cell_formula_units_Z 80
_cell_length_a 9.130379
_cell_length_b 27.805866
_cell_length_c 17.704117
_cell_angle_alpha 90.000000
_cell_angle_beta 90.000000
_cell_angle_gamma 90.000000
_cell_volume 4494.687498
_symmetry_space_group_name_H-M "I M M A"
_symmetry_group_IT_number 74
_symmetry_cell_setting 'orthorhombic'
loop_
_space_group_symop_operation_xyz
x,y,z
-x,1/2-y,z
x,-y,-z
-x,1/2+y,-z
-x,-y,-z
x,1/2+y,-z
-x,y,z
x,1/2-y,z
1/2+x,1/2+y,1/2+z
1/2-x,-y,1/2+z
1/2+x,1/2-y,1/2-z
1/2-x,y,1/2-z
1/2-x,1/2-y,1/2-z
1/2+x,y,1/2-z
1/2-x,1/2+y,1/2+z
1/2+x,-y,1/2+z
loop_
_atom_site_type_symbol
_atom_site_label
_atom_site_fract_x
_atom_site_fract_y
_atom_site_fract_z
Si Si1 0.326451 0.541618 0.329675
Si Si2 0.660345 0.540077 0.563114
Si Si3 0.668826 0.398853 0.954679
Si Si4 0.667676 0.303803 0.030716
Si Si5 0.836934 0.192937 0.178891
O O1 0.500000 0.549024 0.322397
O O2 0.250000 0.548489 0.250000
O O3 0.288517 0.488106 0.361091
O O4 0.265573 0.582844 0.385338
O O5 0.642817 0.500000 0.500000
O O6 0.500000 0.564399 0.575569
O O7 0.779117 0.578718 0.535162
O O8 0.500000 0.413141 0.941481
O O9 0.688915 0.341053 0.961527
O O10 0.500000 0.303403 0.057935
O O11 0.715358 0.250000 0.004407
O O12 0.761542 0.322473 0.101186
O O13 0.839842 0.250000 0.185687
O O14 0.750000 0.170662 0.250000
O O15 0.000000 0.171393 0.179900
#
# Coordination Sequence:
#
# PCOD8298526 Si02
#       5
#    16  16  16  16  16
#     4  10  20  34  53  76 102 130 160 198 244 295
#     4   8  16  31  49  70  97 127 155 189 237 289
#     4  10  19  31  51  76 100 130 166 203 244 290
#     4   9  18  32  48  68  97 133 172 210 246 287
#     4   9  16  26  42  63  86 115 153 197 243 287
#
# _framework density 17.79879
#
# number of rings (size 3 to 8) (size 9 to 14) (size 15 to 20)
#    0.000    2.800    0.000    3.000    0.000    8.400 
#    0.000    1.000    0.000    3.000    0.000    0.000 
#    0.000    0.000    0.000    0.000    0.000    0.000 
#
# Total GULP energy -495751.821114 kJ/mol
# GULP energy per Si atom -12393.795528 kJ/mol
# Density = 1.775828 g / cm^3
# Si number density = 17.798790 Si / 1000 Ang^3
#
#
#
# Elastic Constant Matrix: (Units=GPa)
#
#
# Indices 1 2 3 4 5 6 
#
# 1 111.1882 38.5158 56.0764 0.0000 0.0000 0.0000
# 2 38.5158 68.9678 43.9585 0.0001 0.0000 0.0000
# 3 56.0764 43.9585 101.7677 0.0002 0.0000 0.0001
# 4 0.0000 0.0001 0.0002 19.1275 0.0000 0.0000
# 5 0.0000 0.0000 0.0000 0.0000 28.2596 0.0000
# 6 0.0000 0.0000 0.0001 0.0000 0.0000 19.0918
#
#
#
# Elastic Compliance Matrix: (Units=1/GPa)
#
#
# Indices 1 2 3 4 5 6 
#
# 1 0.013123 -0.003753 -0.005610 0.000000 0.000000 0.000000
# 2 -0.003753 0.021081 -0.007038 0.000000 0.000000 0.000000
# 3 -0.005610 -0.007038 0.015958 0.000000 0.000000 0.000000
# 4 0.000000 0.000000 0.000000 0.052281 0.000000 0.000000
# 5 0.000000 0.000000 0.000000 0.000000 0.035386 0.000000
# 6 0.000000 0.000000 0.000000 0.000000 0.000000 0.052378
#
#
# Mechanical properties :
#
#
# Convention : Reuss Voigt Hill
#
# Bulk Modulus (GPa) = 57.60413 62.11388 59.85901
# Shear Modulus (GPa) = 21.85346 22.85398 22.35372
#
# Velocity S-wave (km/s) = 3.50781 3.58721 3.54773
# Velocity P-wave (km/s) = 6.98861 7.22018 7.10534
#
# Compressibility (1/GPa) = 0.01735987
#
# Stress axis : x y z
#
# Youngs Moduli (GPa) = 76.20102 47.43525 62.66583
#
# Poissons Ratio (x) = 0.17803 0.35156
# Poissons Ratio (y) = 0.28599 0.44105
# Poissons Ratio (z) = 0.42749 0.33385
#
# Static dielectric constant tensor:
#      x y z
#    x 3.478690 0.000000 0.000000 
#    y 0.000000 3.235340 0.000000 
#    z 0.000000 0.000000 3.187420 
# 
# 
# High freq. dielectric constant tensor:
#      x y z
#    x 1.701210 0.000000 0.000000 
#    y 0.000000 1.667090 0.000000 
#    z 0.000000 0.000000 1.664460 
# 
# From -- ./inp_files/39672.got.cif
#   From: 2010.03.12/outbox.cif.g09.slc.cpg/sg74_20_cif.got.tgz:39672.got - 2010.04.16 15:46:19.
