data_PCOD8298436
_publ_section_title
;
Structure prediction by ZEFSAII (Michael W. Deem and Ramdas Pophale) SiO2 
 PCOD8298436
Probable space group: I M M A
;
_chemical_formula_sum "Si O2"
_cell_formula_units_Z 80
_cell_length_a 27.763452
_cell_length_b 8.791796
_cell_length_c 17.387910
_cell_angle_alpha 90.000000
_cell_angle_beta 90.000000
_cell_angle_gamma 90.000000
_cell_volume 4244.225493
_symmetry_space_group_name_H-M "I M M A"
_symmetry_group_IT_number 74
_symmetry_cell_setting 'orthorhombic'
loop_
_space_group_symop_operation_xyz
x,y,z
-x,1/2-y,z
x,-y,-z
-x,1/2+y,-z
-x,-y,-z
x,1/2+y,-z
-x,y,z
x,1/2-y,z
1/2+x,1/2+y,1/2+z
1/2-x,-y,1/2+z
1/2+x,1/2-y,1/2-z
1/2-x,y,1/2-z
1/2-x,1/2-y,1/2-z
1/2+x,y,1/2-z
1/2-x,1/2+y,1/2+z
1/2+x,-y,1/2+z
loop_
_atom_site_type_symbol
_atom_site_label
_atom_site_fract_x
_atom_site_fract_y
_atom_site_fract_z
Si Si1 0.142557 0.926383 0.309623
Si Si2 0.307397 0.572104 0.350757
Si Si3 0.554893 0.072492 0.264492
Si Si4 0.897349 0.571320 0.922781
Si Si5 0.285069 0.570357 0.916644
O O1 0.142481 0.750000 0.331146
O O2 0.174849 0.961027 0.235189
O O3 0.087930 0.979486 0.294606
O O4 0.163787 0.019602 0.381306
O O5 0.301442 0.750000 0.367013
O O6 0.345086 0.503122 0.411010
O O7 0.256456 0.490506 0.360431
O O8 0.500000 0.025920 0.248505
O O9 0.563986 0.250000 0.250523
O O10 0.567509 0.029629 0.352394
O O11 0.891027 0.750000 0.932597
O O12 0.920291 0.500000 0.000000
O O13 0.282654 0.750000 0.922845
O O14 0.277940 0.500000 0.000000
#
# Coordination Sequence:
#
# PCOD8298436 Si02
#       5
#    16  16  16  16  16
#     4  10  21  37  57  81 108 138 175 218 262 311
#     4  10  20  35  54  77 108 144 180 216 255 305
#     4   9  19  36  56  77 102 136 178 221 266 316
#     4  10  19  31  48  73 107 144 181 220 261 307
#     4  12  24  37  55  79 109 142 176 215 260 311
#
# _framework density 18.849139999999998
#
# number of rings (size 3 to 8) (size 9 to 14) (size 15 to 20)
#    0.000    1.800    0.000    4.800    0.000    6.400 
#    0.000    0.000    0.000    0.600    0.000    0.000 
#    0.000    0.000    0.000    0.000    0.000    0.000 
#
# Total GULP energy -496207.286511 kJ/mol
# GULP energy per Si atom -12405.182163 kJ/mol
# Density = 1.880624 g / cm^3
# Si number density = 18.849140 Si / 1000 Ang^3
#
#
#
# Elastic Constant Matrix: (Units=GPa)
#
#
# Indices 1 2 3 4 5 6 
#
# 1 112.8987 46.4947 31.4326 0.0000 0.0000 0.0000
# 2 46.4947 110.1819 30.4691 0.0000 0.0000 0.0000
# 3 31.4326 30.4691 39.2391 0.0000 0.0000 0.0000
# 4 0.0000 0.0000 0.0000 31.2638 0.0000 0.0000
# 5 0.0000 0.0000 0.0000 0.0000 17.1910 0.0000
# 6 0.0000 0.0000 0.0000 0.0000 0.0000 30.0280
#
#
#
# Elastic Compliance Matrix: (Units=1/GPa)
#
#
# Indices 1 2 3 4 5 6 
#
# 1 0.012183 -0.003110 -0.007344 0.000000 0.000000 0.000000
# 2 -0.003110 0.012352 -0.007100 0.000000 0.000000 0.000000
# 3 -0.007344 -0.007100 0.036881 0.000000 0.000000 0.000000
# 4 0.000000 0.000000 0.000000 0.031986 0.000000 0.000000
# 5 0.000000 0.000000 0.000000 0.000000 0.058170 0.000000
# 6 0.000000 0.000000 0.000000 0.000000 0.000000 0.033302
#
#
# Mechanical properties :
#
#
# Convention : Reuss Voigt Hill
#
# Bulk Modulus (GPa) = 38.01208 53.23473 45.62340
# Shear Modulus (GPa) = 21.85782 25.95810 23.90796
#
# Velocity S-wave (km/s) = 3.40901 3.71502 3.56530
# Velocity P-wave (km/s) = 5.97540 6.83416 6.41916
#
# Compressibility (1/GPa) = 0.02630743
#
# Stress axis : x y z
#
# Youngs Moduli (GPa) = 82.08112 80.96129 27.11429
#
# Poissons Ratio (x) = 0.25179 0.19914
# Poissons Ratio (y) = 0.25528 0.19250
# Poissons Ratio (z) = 0.60283 0.57480
#
# Static dielectric constant tensor:
#      x y z
#    x 3.414940 0.000000 0.000000 
#    y 0.000000 3.510120 0.000000 
#    z 0.000000 0.000000 3.346980 
# 
# 
# High freq. dielectric constant tensor:
#      x y z
#    x 1.722800 0.000000 0.000000 
#    y 0.000000 1.744520 0.000000 
#    z 0.000000 0.000000 1.718830 
# 
# From -- ./inp_files/39671.got.cif
#   From: 2010.03.12/outbox.cif.g09.slc.cpg/sg74_20_cif.got.tgz:39671.got - 2010.04.16 15:46:19.
