data_PCOD8298383
_publ_section_title
;
Structure prediction by ZEFSAII (Michael W. Deem and Ramdas Pophale) SiO2 
 PCOD8298383
Probable space group: I M M A
;
_chemical_formula_sum "Si O2"
_cell_formula_units_Z 96
_cell_length_a 15.848791
_cell_length_b 12.897481
_cell_length_c 28.379729
_cell_angle_alpha 90.000000
_cell_angle_beta 90.000000
_cell_angle_gamma 90.000000
_cell_volume 5801.085670
_symmetry_space_group_name_H-M "I M M A"
_symmetry_group_IT_number 74
_symmetry_cell_setting 'orthorhombic'
loop_
_space_group_symop_operation_xyz
x,y,z
-x,1/2-y,z
x,-y,-z
-x,1/2+y,-z
-x,-y,-z
x,1/2+y,-z
-x,y,z
x,1/2-y,z
1/2+x,1/2+y,1/2+z
1/2-x,-y,1/2+z
1/2+x,1/2-y,1/2-z
1/2-x,y,1/2-z
1/2-x,1/2-y,1/2-z
1/2+x,y,1/2-z
1/2-x,1/2+y,1/2+z
1/2+x,-y,1/2+z
loop_
_atom_site_type_symbol
_atom_site_label
_atom_site_fract_x
_atom_site_fract_y
_atom_site_fract_z
Si Si1 0.500000 0.127344 0.784633
Si Si2 0.593677 0.872789 0.469434
Si Si3 0.000000 0.374097 0.606884
Si Si4 0.675862 0.937716 0.070386
Si Si5 0.838062 0.373994 0.771108
Si Si6 0.753374 0.133020 0.475237
Si Si7 0.825389 0.870418 0.124847
O O1 0.500000 0.250000 0.780000
O O2 0.500000 0.093154 0.838696
O O3 0.416143 0.082609 0.759470
O O4 0.500000 0.911908 0.482497
O O5 0.597767 0.750000 0.464324
O O6 0.657567 0.904806 0.511683
O O7 0.621225 0.920055 0.418491
O O8 0.078111 0.428517 0.581525
O O9 0.000000 0.250000 0.600269
O O10 0.726452 0.889955 0.114551
O O11 0.704578 0.057416 0.063000
O O12 0.694067 0.870856 0.023698
O O13 0.836805 0.250000 0.771111
O O14 0.750000 0.416143 0.750000
O O15 0.848884 0.418598 0.824366
O O16 0.754770 0.250000 0.455180
O O17 0.844476 0.750000 0.128158
#
# Coordination Sequence:
#
# PCOD8298383 Si02
#       7
#     8  16   8  16  16  16  16
#     4   9  18  28  41  64  90 119 151 182 222 271
#     4   8  14  25  43  63  83 116 151 179 218 261
#     4  11  20  31  48  66  90 118 154 192 221 270
#     4  10  19  31  46  65  87 121 155 183 227 271
#     4   9  16  25  38  57  85 120 150 179 220 266
#     4   9  18  32  46  64  92 119 150 191 226 266
#     4   9  16  26  41  60  89 119 149 183 217 266
#
# _framework density 16.548625999999999
#
# number of rings (size 3 to 8) (size 9 to 14) (size 15 to 20)
#    0.000    2.833    0.000    3.500    1.167    4.000 
#    0.000    7.917    0.000    0.000    0.000    0.000 
#    0.000    7.333    0.000    0.000    0.000    0.000 
#
# Total GULP energy -594874.678467 kJ/mol
# GULP energy per Si atom -12393.222468 kJ/mol
# Density = 1.651096 g / cm^3
# Si number density = 16.548626 Si / 1000 Ang^3
#
#
#
# Elastic Constant Matrix: (Units=GPa)
#
#
# Indices 1 2 3 4 5 6 
#
# 1 145.2227 9.6097 44.5372 0.0000 0.0000 0.0000
# 2 9.6097 41.6652 14.4037 0.0000 0.0000 0.0000
# 3 44.5372 14.4037 78.7903 0.0000 0.0000 0.0000
# 4 0.0000 0.0000 0.0000 13.8588 0.0000 0.0000
# 5 0.0000 0.0000 0.0000 0.0000 5.2292 0.0000
# 6 0.0000 0.0000 0.0000 0.0000 0.0000 -6.4607
#
#
#
# Elastic Compliance Matrix: (Units=1/GPa)
#
#
# Indices 1 2 3 4 5 6 
#
# 1 0.008334 -0.000313 -0.004654 0.000000 0.000000 0.000000
# 2 -0.000313 0.025632 -0.004509 0.000000 0.000000 0.000000
# 3 -0.004654 -0.004509 0.016147 0.000000 0.000000 0.000000
# 4 0.000000 0.000000 0.000000 0.072156 0.000000 0.000000
# 5 0.000000 0.000000 0.000000 0.000000 0.191233 0.000000
# 6 0.000000 0.000000 0.000000 0.000000 0.000000 -0.154782
#
#
# Mechanical properties :
#
#
# Convention : Reuss Voigt Hill
#
# Bulk Modulus (GPa) = 32.09123 44.75324 38.42224
# Shear Modulus (GPa) = 26.58762 15.66732 21.12747
#
# Velocity S-wave (km/s) = 4.01264 3.08026 3.57696
# Velocity P-wave (km/s) = 6.39551 6.30499 6.35041
#
# Compressibility (1/GPa) = 0.03116116
#
# Stress axis : x y z
#
# Youngs Moduli (GPa) = 119.99231 39.01415 61.93256
#
# Poissons Ratio (x) = 0.01223 0.28820
# Poissons Ratio (y) = 0.03761 0.27923
# Poissons Ratio (z) = 0.55839 0.17590
#
# Static dielectric constant tensor:
#      x y z
#    x 3.317100 0.000000 0.000000 
#    y 0.000000 2.690740 0.000000 
#    z 0.000000 0.000000 3.147240 
# 
# 
# High freq. dielectric constant tensor:
#      x y z
#    x 1.648080 0.000000 0.000000 
#    y 0.000000 1.581930 0.000000 
#    z 0.000000 0.000000 1.626630 
# 
# From -- ./inp_files/67114.got.cif
#   From: 2010.03.12/outbox.cif.g09.slc.cpg/sg74_34_cif.got.tgz:67114.got - 2010.04.16 15:46:19.
