data_PCOD8298280
_publ_section_title
;
Structure prediction by ZEFSAII (Michael W. Deem and Ramdas Pophale) SiO2 
 PCOD8298280
Probable space group: I M M A
;
_chemical_formula_sum "Si O2"
_cell_formula_units_Z 112
_cell_length_a 13.765274
_cell_length_b 28.105495
_cell_length_c 16.493747
_cell_angle_alpha 90.000000
_cell_angle_beta 90.000000
_cell_angle_gamma 90.000000
_cell_volume 6381.098193
_symmetry_space_group_name_H-M "I M M A"
_symmetry_group_IT_number 74
_symmetry_cell_setting 'orthorhombic'
loop_
_space_group_symop_operation_xyz
x,y,z
-x,1/2-y,z
x,-y,-z
-x,1/2+y,-z
-x,-y,-z
x,1/2+y,-z
-x,y,z
x,1/2-y,z
1/2+x,1/2+y,1/2+z
1/2-x,-y,1/2+z
1/2+x,1/2-y,1/2-z
1/2-x,y,1/2-z
1/2-x,1/2-y,1/2-z
1/2+x,y,1/2-z
1/2-x,1/2+y,1/2+z
1/2+x,-y,1/2+z
loop_
_atom_site_type_symbol
_atom_site_label
_atom_site_fract_x
_atom_site_fract_y
_atom_site_fract_z
Si Si1 0.108086 0.653317 0.281452
Si Si2 0.221864 0.956158 0.053500
Si Si3 0.114287 0.511180 0.812968
Si Si4 0.387146 0.902898 0.582093
Si Si5 0.390631 0.950129 0.169094
Si Si6 0.783918 0.695344 0.134094
Si Si7 0.388636 0.197396 0.467087
O O1 0.110256 0.596320 0.274439
O O2 0.138465 0.671472 0.193376
O O3 0.178622 0.671655 0.352921
O O4 0.000000 0.671691 0.302202
O O5 0.145487 0.972795 0.120636
O O6 0.321589 0.938440 0.093576
O O7 0.173186 0.915524 0.998669
O O8 0.254806 0.000000 0.000000
O O9 0.146830 0.564929 0.840367
O O10 0.151687 0.494771 0.723216
O O11 0.000000 0.507758 0.806981
O O12 0.500000 0.914384 0.565027
O O13 0.371217 0.845954 0.597291
O O14 0.500000 0.960616 0.137407
O O15 0.775900 0.750000 0.158259
O O16 0.817842 0.688531 0.042342
O O17 0.500000 0.195666 0.497774
O O18 0.367571 0.250000 0.428330
#
# Coordination Sequence:
#
# PCOD8298280 Si02
#       7
#    16  16  16  16  16  16  16
#     4  10  20  30  41  58  80 113 151 185 221 256
#     4  10  19  30  46  65  87 118 151 184 225 263
#     4   9  18  30  44  66  89 113 148 185 225 266
#     4   9  17  29  46  67  92 118 148 186 224 266
#     4  10  21  32  44  63  88 119 153 186 220 264
#     4  10  20  30  42  60  81 113 152 187 219 255
#     4   9  17  28  43  64  89 116 145 177 219 268
#
# _framework density 17.551836999999999
#
# number of rings (size 3 to 8) (size 9 to 14) (size 15 to 20)
#    0.000    2.429    0.000    3.000    6.000    3.714 
#    0.000    0.000    0.000    0.000    0.000    0.000 
#    0.000    9.143    0.000    2.000    0.000    9.143 
#
# Total GULP energy -693875.264673 kJ/mol
# GULP energy per Si atom -12390.629726 kJ/mol
# Density = 1.751189 g / cm^3
# Si number density = 17.551837 Si / 1000 Ang^3
#
#
#
# Elastic Constant Matrix: (Units=GPa)
#
#
# Indices 1 2 3 4 5 6 
#
# 1 70.4343 31.2657 20.2551 0.0000 0.0000 0.0000
# 2 31.2657 101.6254 18.5580 0.0001 0.0000 0.0000
# 3 20.2551 18.5580 33.5103 0.0003 0.0000 -0.0001
# 4 0.0000 0.0001 0.0003 22.6999 0.0000 0.0000
# 5 0.0000 0.0000 0.0000 0.0000 12.8806 0.0000
# 6 0.0000 0.0000 -0.0001 0.0000 0.0000 20.5346
#
#
#
# Elastic Compliance Matrix: (Units=1/GPa)
#
#
# Indices 1 2 3 4 5 6 
#
# 1 0.018590 -0.004080 -0.008977 0.000000 0.000000 0.000000
# 2 -0.004080 0.011843 -0.004092 0.000000 0.000000 0.000000
# 3 -0.008977 -0.004092 0.037534 0.000000 0.000000 0.000000
# 4 0.000000 0.000000 0.000000 0.044053 0.000000 0.000000
# 5 0.000000 0.000000 0.000000 0.000000 0.077636 0.000000
# 6 0.000000 0.000000 0.000000 0.000000 0.000000 0.048698
#
#
# Mechanical properties :
#
#
# Convention : Reuss Voigt Hill
#
# Bulk Modulus (GPa) = 29.70192 38.41416 34.05804
# Shear Modulus (GPa) = 17.61330 20.25577 18.93454
#
# Velocity S-wave (km/s) = 3.17125 3.40082 3.28804
# Velocity P-wave (km/s) = 5.51074 6.11183 5.81905
#
# Compressibility (1/GPa) = 0.03366786
#
# Stress axis : x y z
#
# Youngs Moduli (GPa) = 53.79112 84.44083 26.64245
#
# Poissons Ratio (x) = 0.34453 0.23918
# Poissons Ratio (y) = 0.21947 0.10903
# Poissons Ratio (z) = 0.48290 0.34555
#
# Static dielectric constant tensor:
#      x y z
#    x 3.281940 0.000000 0.000000 
#    y 0.000000 3.570760 0.000000 
#    z 0.000000 0.000000 3.003360 
# 
# 
# High freq. dielectric constant tensor:
#      x y z
#    x 1.678730 0.000000 0.000000 
#    y 0.000000 1.686940 0.000000 
#    z 0.000000 0.000000 1.629920 
# 
# From -- ./inp_files/32905.got.cif
#   From: 2010.03.12/outbox.cif.g09.slc.cpg/sg74_17_cif.got.tgz:32905.got - 2010.04.16 15:46:19.
