data_PCOD8298670
_publ_section_title
;
Structure prediction by ZEFSAII (Michael W. Deem and Ramdas Pophale) SiO2 
 PCOD8298670
Probable space group: I M M A
;
_chemical_formula_sum "Si O2"
_cell_formula_units_Z 112
_cell_length_a 19.862951
_cell_length_b 18.187819
_cell_length_c 17.419700
_cell_angle_alpha 90.000000
_cell_angle_beta 90.000000
_cell_angle_gamma 90.000000
_cell_volume 6293.106278
_symmetry_space_group_name_H-M "I M M A"
_symmetry_group_IT_number 74
_symmetry_cell_setting 'orthorhombic'
loop_
_space_group_symop_operation_xyz
x,y,z
-x,1/2-y,z
x,-y,-z
-x,1/2+y,-z
-x,-y,-z
x,1/2+y,-z
-x,y,z
x,1/2-y,z
1/2+x,1/2+y,1/2+z
1/2-x,-y,1/2+z
1/2+x,1/2-y,1/2-z
1/2-x,y,1/2-z
1/2-x,1/2-y,1/2-z
1/2+x,y,1/2-z
1/2-x,1/2+y,1/2+z
1/2+x,-y,1/2+z
loop_
_atom_site_type_symbol
_atom_site_label
_atom_site_fract_x
_atom_site_fract_y
_atom_site_fract_z
Si Si1 0.793554 0.666350 0.516663
Si Si2 0.817175 0.566824 0.055882
Si Si3 0.782371 0.329076 0.167866
Si Si4 0.422770 0.666284 0.377949
Si Si5 0.181338 0.021695 0.205300
Si Si6 0.076937 0.921353 0.275348
Si Si7 0.423914 0.334942 0.928490
O O1 0.777492 0.750000 0.491432
O O2 0.748793 0.610782 0.467823
O O3 0.777509 0.654390 0.606542
O O4 0.872090 0.648458 0.498241
O O5 0.881078 0.621095 0.058527
O O6 0.803776 0.537540 0.140583
O O7 0.834740 0.500000 0.000000
O O8 0.817406 0.250000 0.146716
O O9 0.750000 0.319894 0.250000
O O10 0.835482 0.397320 0.168357
O O11 0.500000 0.658726 0.402400
O O12 0.398092 0.750000 0.379514
O O13 0.411030 0.637260 0.291949
O O14 0.250000 0.033183 0.250000
O O15 0.121803 0.994225 0.260921
O O16 0.097319 0.883567 0.355247
O O17 0.000000 0.948058 0.277014
O O18 0.500000 0.354381 0.955888
O O19 0.420214 0.250000 0.903034
#
# Coordination Sequence:
#
# PCOD8298670 Si02
#       7
#    16  16  16  16  16  16  16
#     4  10  19  32  51  75 104 135 167 211 259 308
#     4  11  20  31  47  75 100 129 164 213 263 306
#     4   9  18  33  52  71  89 121 171 217 256 299
#     4   9  18  32  49  69  98 136 172 203 243 304
#     4  10  19  32  51  74  97 132 169 207 254 306
#     4   9  17  30  50  76 108 139 168 200 242 306
#     4   9  17  30  51  80 112 144 172 201 247 310
#
# _framework density 17.797253000000001
#
# number of rings (size 3 to 8) (size 9 to 14) (size 15 to 20)
#    0.000    2.429    1.429    1.714    0.000    2.000 
#    0.000    0.000    0.000   11.143    0.000    4.000 
#    0.000    0.000    0.000    0.000    0.000    0.000 
#
# Total GULP energy -694017.561951 kJ/mol
# GULP energy per Si atom -12393.170749 kJ/mol
# Density = 1.775675 g / cm^3
# Si number density = 17.797253 Si / 1000 Ang^3
#
#
#
# Elastic Constant Matrix: (Units=GPa)
#
#
# Indices 1 2 3 4 5 6 
#
# 1 87.8698 63.5006 41.3307 0.0000 0.0000 0.0000
# 2 63.5006 125.1804 35.7356 0.0000 0.0000 0.0000
# 3 41.3307 35.7356 75.2661 0.0000 0.0000 0.0000
# 4 0.0000 0.0000 0.0000 25.2488 0.0000 0.0000
# 5 0.0000 0.0000 0.0000 0.0000 25.5935 0.0000
# 6 0.0000 0.0000 0.0000 0.0000 0.0000 24.3753
#
#
#
# Elastic Compliance Matrix: (Units=1/GPa)
#
#
# Indices 1 2 3 4 5 6 
#
# 1 0.021105 -0.008557 -0.007526 0.000000 0.000000 0.000000
# 2 -0.008557 0.012711 -0.001336 0.000000 0.000000 0.000000
# 3 -0.007526 -0.001336 0.018053 0.000000 0.000000 0.000000
# 4 0.000000 0.000000 0.000000 0.039606 0.000000 0.000000
# 5 0.000000 0.000000 0.000000 0.000000 0.039072 0.000000
# 6 0.000000 0.000000 0.000000 0.000000 0.000000 0.041025
#
#
# Mechanical properties :
#
#
# Convention : Reuss Voigt Hill
#
# Bulk Modulus (GPa) = 58.72030 63.27221 60.99625
# Shear Modulus (GPa) = 23.57522 24.89350 24.23436
#
# Velocity S-wave (km/s) = 3.64353 3.74401 3.69411
# Velocity P-wave (km/s) = 7.12503 7.37014 7.24862
#
# Compressibility (1/GPa) = 0.01702989
#
# Stress axis : x y z
#
# Youngs Moduli (GPa) = 47.38312 78.67398 55.39157
#
# Poissons Ratio (x) = 0.67323 0.41689
# Poissons Ratio (y) = 0.40547 0.07400
# Poissons Ratio (z) = 0.35661 0.10510
#
# Static dielectric constant tensor:
#      x y z
#    x 3.228840 0.000000 0.000000 
#    y 0.000000 3.862290 0.000000 
#    z 0.000000 0.000000 3.257660 
# 
# 
# High freq. dielectric constant tensor:
#      x y z
#    x 1.664090 0.000000 0.000000 
#    y 0.000000 1.701340 0.000000 
#    z 0.000000 0.000000 1.684060 
# 
# From -- ./inp_files/44421.got.cif
#   From: 2010.03.12/outbox.cif.g09.slc.cpg/sg74_23_cif.got.tgz:44421.got - 2010.04.16 15:46:19.
