data_PCOD8298445
_publ_section_title
;
Structure prediction by ZEFSAII (Michael W. Deem and Ramdas Pophale) SiO2 
 PCOD8298445
Probable space group: I M M A
;
_chemical_formula_sum "Si O2"
_cell_formula_units_Z 72
_cell_length_a 9.269414
_cell_length_b 32.543392
_cell_length_c 13.061229
_cell_angle_alpha 90.000000
_cell_angle_beta 90.000000
_cell_angle_gamma 90.000000
_cell_volume 3940.026483
_symmetry_space_group_name_H-M "I M M A"
_symmetry_group_IT_number 74
_symmetry_cell_setting 'orthorhombic'
loop_
_space_group_symop_operation_xyz
x,y,z
-x,1/2-y,z
x,-y,-z
-x,1/2+y,-z
-x,-y,-z
x,1/2+y,-z
-x,y,z
x,1/2-y,z
1/2+x,1/2+y,1/2+z
1/2-x,-y,1/2+z
1/2+x,1/2-y,1/2-z
1/2-x,y,1/2-z
1/2-x,1/2-y,1/2-z
1/2+x,y,1/2-z
1/2-x,1/2+y,1/2+z
1/2+x,-y,1/2+z
loop_
_atom_site_type_symbol
_atom_site_label
_atom_site_fract_x
_atom_site_fract_y
_atom_site_fract_z
Si Si1 0.841268 0.400909 0.161508
Si Si2 0.833529 0.336014 0.449268
Si Si3 0.333328 0.250000 0.142084
Si Si4 0.170390 0.387902 0.646637
Si Si5 0.661752 0.543918 0.465186
O O1 0.750000 0.423571 0.250000
O O2 0.761099 0.358794 0.135060
O O3 0.000000 0.390013 0.202361
O O4 0.850157 0.430235 0.066644
O O5 0.796501 0.288252 0.432474
O O6 0.794478 0.352358 0.563331
O O7 0.000000 0.345833 0.427668
O O8 0.500000 0.250000 0.173486
O O9 0.250000 0.250000 0.250000
O O10 0.250000 0.373792 0.750000
O O11 0.232844 0.432573 0.613200
O O12 0.000000 0.392577 0.665505
O O13 0.726533 0.500000 0.500000
O O14 0.500000 0.538815 0.417262
#
# Coordination Sequence:
#
# PCOD8298445 Si02
#       5
#    16  16   8  16  16
#     4  10  19  31  49  71  98 130 162 199 244 296
#     4   9  19  35  53  74 101 132 167 206 249 300
#     4  10  20  34  53  78 106 134 165 204 253 306
#     4  10  20  35  55  76 101 136 175 214 257 304
#     4   9  19  35  52  73 101 131 167 211 254 298
#
# _framework density 18.273990000000001
#
# number of rings (size 3 to 8) (size 9 to 14) (size 15 to 20)
#    0.000    2.444    0.000    2.000    0.000    5.778 
#    0.000    2.778    0.000    0.000    0.000    0.000 
#    0.000    0.000    0.000    0.000    0.000    0.000 
#
# Total GULP energy -446227.757292 kJ/mol
# GULP energy per Si atom -12395.215480 kJ/mol
# Density = 1.823240 g / cm^3
# Si number density = 18.273990 Si / 1000 Ang^3
#
#
#
# Elastic Constant Matrix: (Units=GPa)
#
#
# Indices 1 2 3 4 5 6 
#
# 1 104.7746 35.2061 50.5821 -0.0001 0.0000 0.0000
# 2 35.2061 112.0829 28.5143 -0.0003 -0.0001 0.0000
# 3 50.5821 28.5143 87.7958 -0.0009 -0.0003 -0.0002
# 4 -0.0001 -0.0003 -0.0009 11.1573 -0.0001 0.0000
# 5 0.0000 -0.0001 -0.0003 -0.0001 34.3726 0.0000
# 6 0.0000 0.0000 -0.0002 0.0000 0.0000 35.0201
#
#
#
# Elastic Compliance Matrix: (Units=1/GPa)
#
#
# Indices 1 2 3 4 5 6 
#
# 1 0.013850 -0.002529 -0.007158 -0.000001 0.000000 0.000000
# 2 -0.002529 0.010187 -0.001851 0.000000 0.000000 0.000000
# 3 -0.007158 -0.001851 0.016115 0.000001 0.000000 0.000000
# 4 -0.000001 0.000000 0.000001 0.089627 0.000000 0.000000
# 5 0.000000 0.000000 0.000000 0.000000 0.029093 0.000000
# 6 0.000000 0.000000 0.000000 0.000000 0.000000 0.028555
#
#
# Mechanical properties :
#
#
# Convention : Reuss Voigt Hill
#
# Bulk Modulus (GPa) = 58.56430 59.25090 58.90760
# Shear Modulus (GPa) = 23.12709 28.80007 25.96358
#
# Velocity S-wave (km/s) = 3.56135 3.97421 3.77343
# Velocity P-wave (km/s) = 7.00203 7.31800 7.16176
#
# Compressibility (1/GPa) = 0.01707525
#
# Stress axis : x y z
#
# Youngs Moduli (GPa) = 72.20322 98.15981 62.05305
#
# Poissons Ratio (x) = 0.24828 0.44417
# Poissons Ratio (y) = 0.18263 0.11489
# Poissons Ratio (z) = 0.51682 0.18174
#
# Static dielectric constant tensor:
#      x y z
#    x 3.766720 0.000000 0.000000 
#    y 0.000000 3.459550 0.000000 
#    z 0.000000 0.000000 3.424550 
# 
# 
# High freq. dielectric constant tensor:
#      x y z
#    x 1.716330 0.000000 0.000000 
#    y 0.000000 1.698280 0.000000 
#    z 0.000000 0.000000 1.705480 
# 
# From -- ./inp_files/29424.got.cif
#   From: 2010.03.12/outbox.cif.g09.slc.cpg/sg74_15_cif.got.tgz:29424.got - 2010.04.16 15:46:19.
