data_PCOD8298353
_publ_section_title
;
Structure prediction by ZEFSAII (Michael W. Deem and Ramdas Pophale) SiO2 
 PCOD8298353
Probable space group: I M M A
;
_chemical_formula_sum "Si O2"
_cell_formula_units_Z 96
_cell_length_a 20.910944
_cell_length_b 9.582909
_cell_length_c 24.700103
_cell_angle_alpha 90.000000
_cell_angle_beta 90.000000
_cell_angle_gamma 90.000000
_cell_volume 4949.596174
_symmetry_space_group_name_H-M "I M M A"
_symmetry_group_IT_number 74
_symmetry_cell_setting 'orthorhombic'
loop_
_space_group_symop_operation_xyz
x,y,z
-x,1/2-y,z
x,-y,-z
-x,1/2+y,-z
-x,-y,-z
x,1/2+y,-z
-x,y,z
x,1/2-y,z
1/2+x,1/2+y,1/2+z
1/2-x,-y,1/2+z
1/2+x,1/2-y,1/2-z
1/2-x,y,1/2-z
1/2-x,1/2-y,1/2-z
1/2+x,y,1/2-z
1/2-x,1/2+y,1/2+z
1/2+x,-y,1/2+z
loop_
_atom_site_type_symbol
_atom_site_label
_atom_site_fract_x
_atom_site_fract_y
_atom_site_fract_z
Si Si1 0.678009 0.086202 0.250253
Si Si2 0.570542 0.915599 0.668983
Si Si3 0.139039 0.590990 0.630696
Si Si4 0.106981 0.912831 0.949053
Si Si5 0.746301 0.593174 0.952308
Si Si6 0.074852 0.094108 0.548534
O O1 0.685334 0.250000 0.260883
O O2 0.750000 0.020162 0.250000
O O3 0.629369 0.021061 0.295326
O O4 0.644885 0.054064 0.193293
O O5 0.500000 0.961921 0.690969
O O6 0.576845 0.750000 0.671829
O O7 0.574062 0.963466 0.606396
O O8 0.114594 0.750000 0.622332
O O9 0.208168 0.570070 0.603209
O O10 0.088982 0.483233 0.604998
O O11 0.094167 0.750000 0.960430
O O12 0.181189 0.947943 0.940256
O O13 0.079402 0.000000 0.000000
O O14 0.741037 0.750000 0.973337
O O15 0.716638 0.500000 0.000000
O O16 0.105406 0.250000 0.546971
O O17 0.000000 0.108601 0.541393
O O18 0.103896 0.000000 0.500000
#
# Coordination Sequence:
#
# PCOD8298353 Si02
#       6
#    16  16  16  16  16  16
#     4   9  17  30  49  73 102 136 172 210 252 299
#     4   9  17  29  46  69  96 126 163 207 249 289
#     4  10  19  30  49  75  99 127 166 209 252 300
#     4   9  17  30  48  70  98 129 160 196 241 293
#     4   9  17  28  43  67  97 126 156 194 241 290
#     4  10  21  36  52  71  99 134 169 208 257 311
#
# _framework density 19.395520999999999
#
# number of rings (size 3 to 8) (size 9 to 14) (size 15 to 20)
#    0.000    2.667    0.000    2.000    0.000    8.000 
#    0.000    1.667    0.000    1.500    0.000    0.000 
#    0.000    0.000    0.000    0.000    0.000    0.000 
#
# Total GULP energy -594950.646851 kJ/mol
# GULP energy per Si atom -12394.805143 kJ/mol
# Density = 1.935138 g / cm^3
# Si number density = 19.395521 Si / 1000 Ang^3
#
#
#
# Elastic Constant Matrix: (Units=GPa)
#
#
# Indices 1 2 3 4 5 6 
#
# 1 89.6167 21.3836 50.1494 0.0000 0.0000 0.0000
# 2 21.3836 70.8547 41.9730 0.0000 0.0000 0.0000
# 3 50.1494 41.9730 127.1899 0.0000 0.0000 0.0000
# 4 0.0000 0.0000 0.0000 22.5703 0.0000 0.0000
# 5 0.0000 0.0000 0.0000 0.0000 26.9334 0.0000
# 6 0.0000 0.0000 0.0000 0.0000 0.0000 12.6860
#
#
#
# Elastic Compliance Matrix: (Units=1/GPa)
#
#
# Indices 1 2 3 4 5 6 
#
# 1 0.014402 -0.001221 -0.005276 0.000000 0.000000 0.000000
# 2 -0.001221 0.017646 -0.005342 0.000000 0.000000 0.000000
# 3 -0.005276 -0.005342 0.011705 0.000000 0.000000 0.000000
# 4 0.000000 0.000000 0.000000 0.044306 0.000000 0.000000
# 5 0.000000 0.000000 0.000000 0.000000 0.037129 0.000000
# 6 0.000000 0.000000 0.000000 0.000000 0.000000 0.078827
#
#
# Mechanical properties :
#
#
# Convention : Reuss Voigt Hill
#
# Bulk Modulus (GPa) = 49.80990 57.18593 53.49791
# Shear Modulus (GPa) = 21.33242 24.04829 22.69036
#
# Velocity S-wave (km/s) = 3.32002 3.52503 3.42406
# Velocity P-wave (km/s) = 6.35874 6.79086 6.57835
#
# Compressibility (1/GPa) = 0.02007633
#
# Stress axis : x y z
#
# Youngs Moduli (GPa) = 69.43340 56.66884 85.43236
#
# Poissons Ratio (x) = 0.06921 0.45071
# Poissons Ratio (y) = 0.08480 0.45636
# Poissons Ratio (z) = 0.36630 0.30271
#
# Static dielectric constant tensor:
#      x y z
#    x 3.621140 0.000000 0.000000 
#    y 0.000000 3.407670 0.000000 
#    z 0.000000 0.000000 3.647620 
# 
# 
# High freq. dielectric constant tensor:
#      x y z
#    x 1.763820 0.000000 0.000000 
#    y 0.000000 1.704140 0.000000 
#    z 0.000000 0.000000 1.753740 
# 
# From -- ./inp_files/68113.got.cif
#   From: 2010.03.12/outbox.cif.g09.slc.cpg/sg74_35_cif.got.tgz:68113.got - 2010.04.16 15:46:19.
