data_PCOD8298025
_publ_section_title
;
Structure prediction by ZEFSAII (Michael W. Deem and Ramdas Pophale) SiO2 
 PCOD8298025
Probable space group: I M M A
;
_chemical_formula_sum "Si O2"
_cell_formula_units_Z 112
_cell_length_a 15.245101
_cell_length_b 14.822171
_cell_length_c 26.132902
_cell_angle_alpha 90.000000
_cell_angle_beta 90.000000
_cell_angle_gamma 90.000000
_cell_volume 5905.134108
_symmetry_space_group_name_H-M "I M M A"
_symmetry_group_IT_number 74
_symmetry_cell_setting 'orthorhombic'
loop_
_space_group_symop_operation_xyz
x,y,z
-x,1/2-y,z
x,-y,-z
-x,1/2+y,-z
-x,-y,-z
x,1/2+y,-z
-x,y,z
x,1/2-y,z
1/2+x,1/2+y,1/2+z
1/2-x,-y,1/2+z
1/2+x,1/2-y,1/2-z
1/2-x,y,1/2-z
1/2-x,1/2-y,1/2-z
1/2+x,y,1/2-z
1/2-x,1/2+y,1/2+z
1/2+x,-y,1/2+z
loop_
_atom_site_type_symbol
_atom_site_label
_atom_site_fract_x
_atom_site_fract_y
_atom_site_fract_z
Si Si1 0.601415 0.971806 0.388926
Si Si2 0.202648 0.505763 0.203533
Si Si3 0.272156 0.354850 0.542490
Si Si4 0.811801 0.649404 0.926146
Si Si5 0.096488 0.047011 0.553799
Si Si6 0.598869 0.852469 0.759829
Si Si7 0.159818 0.083856 0.364331
O O1 0.500000 0.952325 0.398360
O O2 0.655770 0.908043 0.425710
O O3 0.624563 0.947652 0.329019
O O4 0.621966 0.077334 0.400719
O O5 0.250000 0.562658 0.250000
O O6 0.167190 0.414023 0.229586
O O7 0.276152 0.488667 0.161456
O O8 0.285264 0.250000 0.553155
O O9 0.289553 0.380264 0.483735
O O10 0.174037 0.380575 0.560579
O O11 0.853904 0.750000 0.924025
O O12 0.719397 0.653383 0.896313
O O13 0.000000 0.093898 0.555773
O O14 0.111539 0.000000 0.500000
O O15 0.096891 0.971324 0.597972
O O16 0.500000 0.876623 0.742841
O O17 0.621900 0.750000 0.745321
O O18 0.604622 0.864375 0.821215
#
# Coordination Sequence:
#
# PCOD8298025 Si02
#       7
#    16  16  16  16  16  16  16
#     4  11  22  38  60  86 118 154 197 243 291 343
#     4   9  19  33  55  76 103 144 187 228 283 343
#     4  11  22  39  59  83 117 155 198 244 295 346
#     4  10  20  34  56  83 119 159 195 232 281 346
#     4  11  20  35  60  86 115 152 196 241 291 347
#     4  10  20  32  47  77 115 146 186 235 281 342
#     4  10  18  33  53  77 111 151 189 221 278 336
#
# _framework density 18.966546999999998
#
# number of rings (size 3 to 8) (size 9 to 14) (size 15 to 20)
#    0.000    1.714    4.286    1.714    0.000    6.857 
#    0.000    1.429    0.000    0.429    0.000    0.000 
#    0.000    0.000    0.000    0.000    0.000    0.000 
#
# Total GULP energy -694017.872086 kJ/mol
# GULP energy per Si atom -12393.176287 kJ/mol
# Density = 1.892338 g / cm^3
# Si number density = 18.966547 Si / 1000 Ang^3
#
#
#
# Elastic Constant Matrix: (Units=GPa)
#
#
# Indices 1 2 3 4 5 6 
#
# 1 121.1400 29.7895 33.2845 0.0000 0.0000 0.0000
# 2 29.7895 42.2797 19.5181 0.0000 0.0000 0.0000
# 3 33.2845 19.5181 103.9161 0.0000 0.0000 0.0000
# 4 0.0000 0.0000 0.0000 18.5477 0.0000 0.0000
# 5 0.0000 0.0000 0.0000 0.0000 22.4489 0.0000
# 6 0.0000 0.0000 0.0000 0.0000 0.0000 14.0073
#
#
#
# Elastic Compliance Matrix: (Units=1/GPa)
#
#
# Indices 1 2 3 4 5 6 
#
# 1 0.010402 -0.006341 -0.002141 0.000000 0.000000 0.000000
# 2 -0.006341 0.029763 -0.003559 0.000000 0.000000 0.000000
# 3 -0.002141 -0.003559 0.010977 0.000000 0.000000 0.000000
# 4 0.000000 0.000000 0.000000 0.053915 0.000000 0.000000
# 5 0.000000 0.000000 0.000000 0.000000 0.044546 0.000000
# 6 0.000000 0.000000 0.000000 0.000000 0.000000 0.071391
#
#
# Mechanical properties :
#
#
# Convention : Reuss Voigt Hill
#
# Bulk Modulus (GPa) = 36.95430 48.05777 42.50603
# Shear Modulus (GPa) = 19.67749 23.31701 21.49725
#
# Velocity S-wave (km/s) = 3.22449 3.51005 3.37030
# Velocity P-wave (km/s) = 5.77835 6.46687 6.13228
#
# Compressibility (1/GPa) = 0.02706045
#
# Stress axis : x y z
#
# Youngs Moduli (GPa) = 96.13092 33.59887 91.09634
#
# Poissons Ratio (x) = 0.21305 0.19503
# Poissons Ratio (y) = 0.60957 0.32423
# Poissons Ratio (z) = 0.20581 0.11958
#
# Static dielectric constant tensor:
#      x y z
#    x 3.530630 0.000000 0.000000 
#    y 0.000000 3.070830 0.000000 
#    z 0.000000 0.000000 3.868380 
# 
# 
# High freq. dielectric constant tensor:
#      x y z
#    x 1.741900 0.000000 0.000000 
#    y 0.000000 1.690020 0.000000 
#    z 0.000000 0.000000 1.754650 
# 
# From -- ./inp_files/67217.got.cif
#   From: 2010.03.12/outbox.cif.g09.slc.cpg/sg74_34_cif.got.tgz:67217.got - 2010.04.16 15:46:19.
