data_PCOD8298295
_publ_section_title
;
Structure prediction by ZEFSAII (Michael W. Deem and Ramdas Pophale) SiO2 
 PCOD8298295
Probable space group: I M M A
;
_chemical_formula_sum "Si O2"
_cell_formula_units_Z 64
_cell_length_a 8.862432
_cell_length_b 40.772784
_cell_length_c 10.060373
_cell_angle_alpha 90.000000
_cell_angle_beta 90.000000
_cell_angle_gamma 90.000000
_cell_volume 3635.275800
_symmetry_space_group_name_H-M "I M M A"
_symmetry_group_IT_number 74
_symmetry_cell_setting 'orthorhombic'
loop_
_space_group_symop_operation_xyz
x,y,z
-x,1/2-y,z
x,-y,-z
-x,1/2+y,-z
-x,-y,-z
x,1/2+y,-z
-x,y,z
x,1/2-y,z
1/2+x,1/2+y,1/2+z
1/2-x,-y,1/2+z
1/2+x,1/2-y,1/2-z
1/2-x,y,1/2-z
1/2-x,1/2-y,1/2-z
1/2+x,y,1/2-z
1/2-x,1/2+y,1/2+z
1/2+x,-y,1/2+z
loop_
_atom_site_type_symbol
_atom_site_label
_atom_site_fract_x
_atom_site_fract_y
_atom_site_fract_z
Si Si1 0.823278 0.285536 0.893591
Si Si2 0.322638 0.098300 0.113081
Si Si3 0.178081 0.023939 0.386290
Si Si4 0.821092 0.150017 0.604838
O O1 0.797616 0.250000 0.965981
O O2 0.750000 0.283230 0.750000
O O3 0.740933 0.316278 0.964245
O O4 0.000000 0.293150 0.880396
O O5 0.500000 0.100758 0.131847
O O6 0.250000 0.110982 0.250000
O O7 0.270959 0.061128 0.081630
O O8 0.268281 0.120532 0.990313
O O9 0.250000 0.011515 0.250000
O O10 0.000000 0.021251 0.373236
O O11 0.240692 0.000000 0.500000
O O12 0.750000 0.144314 0.750000
O O13 0.000000 0.151843 0.618452
#
# Coordination Sequence:
#
# PCOD8298295 Si02
#       4
#    16  16  16  16
#     4   9  16  26  42  65  92 121 153 190 232 276
#     4   9  19  34  50  69  94 126 160 192 231 278
#     4   9  18  33  51  71  96 124 156 194 233 276
#     4  10  19  30  46  70  97 123 155 194 234 277
#
# _framework density 17.605266
#
# number of rings (size 3 to 8) (size 9 to 14) (size 15 to 20)
#    0.000    2.750    0.000    3.000    0.000    5.000 
#    0.000    0.000    0.000    0.750    0.000    0.000 
#    0.000    0.000    0.000    0.000    0.000    0.000 
#
# Total GULP energy -396574.600049 kJ/mol
# GULP energy per Si atom -12392.956252 kJ/mol
# Density = 1.756520 g / cm^3
# Si number density = 17.605266 Si / 1000 Ang^3
#
#
#
# Elastic Constant Matrix: (Units=GPa)
#
#
# Indices 1 2 3 4 5 6 
#
# 1 57.2639 41.9978 36.8677 -0.0001 0.0000 -0.0001
# 2 41.9978 135.7941 86.4685 -0.0003 0.0000 -0.0001
# 3 36.8677 86.4685 106.6882 -0.0011 0.0001 -0.0002
# 4 -0.0001 -0.0003 -0.0011 23.7618 -0.0001 0.0002
# 5 0.0000 0.0000 0.0001 -0.0001 25.9583 -0.0001
# 6 -0.0001 -0.0001 -0.0002 0.0002 -0.0001 25.8410
#
#
#
# Elastic Compliance Matrix: (Units=1/GPa)
#
#
# Indices 1 2 3 4 5 6 
#
# 1 0.023647 -0.004360 -0.004637 0.000000 0.000000 0.000000
# 2 -0.004360 0.016022 -0.011478 0.000000 0.000000 0.000000
# 3 -0.004637 -0.011478 0.020279 0.000001 0.000000 0.000000
# 4 0.000000 0.000000 0.000001 0.042084 0.000000 0.000000
# 5 0.000000 0.000000 0.000000 0.000000 0.038523 0.000000
# 6 0.000000 0.000000 0.000000 0.000000 0.000000 0.038698
#
#
# Mechanical properties :
#
#
# Convention : Reuss Voigt Hill
#
# Bulk Modulus (GPa) = 52.64693 70.04601 61.34647
# Shear Modulus (GPa) = 22.07148 24.07305 23.07227
#
# Velocity S-wave (km/s) = 3.54458 3.70182 3.62405
# Velocity P-wave (km/s) = 6.83528 7.62526 7.24105
#
# Compressibility (1/GPa) = 0.01899446
#
# Stress axis : x y z
#
# Youngs Moduli (GPa) = 42.28933 62.41548 49.31295
#
# Poissons Ratio (x) = 0.27216 0.22869
# Poissons Ratio (y) = 0.18440 0.56603
# Poissons Ratio (z) = 0.19611 0.71643
#
# Static dielectric constant tensor:
#      x y z
#    x 3.264610 0.000000 0.000000 
#    y 0.000000 4.065720 0.000000 
#    z 0.000000 0.000000 3.037170 
# 
# 
# High freq. dielectric constant tensor:
#      x y z
#    x 1.685090 0.000000 0.000000 
#    y 0.000000 1.697700 0.000000 
#    z 0.000000 0.000000 1.642110 
# 
# From -- ./inp_files/17578.got.cif
#   From: 2010.03.12/outbox.cif.g09.slc.cpg/sg74_9_cif.got.tgz:17578.got - 2010.04.16 15:46:19.
