data_PCOD8298257
_publ_section_title
;
Structure prediction by ZEFSAII (Michael W. Deem and Ramdas Pophale) SiO2 
 PCOD8298257
Probable space group: I M M A
;
_chemical_formula_sum "Si O2"
_cell_formula_units_Z 112
_cell_length_a 23.231526
_cell_length_b 9.830996
_cell_length_c 34.104964
_cell_angle_alpha 90.000000
_cell_angle_beta 90.000000
_cell_angle_gamma 90.000000
_cell_volume 7789.199959
_symmetry_space_group_name_H-M "I M M A"
_symmetry_group_IT_number 74
_symmetry_cell_setting 'orthorhombic'
loop_
_space_group_symop_operation_xyz
x,y,z
-x,1/2-y,z
x,-y,-z
-x,1/2+y,-z
-x,-y,-z
x,1/2+y,-z
-x,y,z
x,1/2-y,z
1/2+x,1/2+y,1/2+z
1/2-x,-y,1/2+z
1/2+x,1/2-y,1/2-z
1/2-x,y,1/2-z
1/2-x,1/2-y,1/2-z
1/2+x,y,1/2-z
1/2-x,1/2+y,1/2+z
1/2+x,-y,1/2+z
loop_
_atom_site_type_symbol
_atom_site_label
_atom_site_fract_x
_atom_site_fract_y
_atom_site_fract_z
Si Si1 0.841567 0.405920 0.763585
Si Si2 0.107685 0.597382 0.966403
Si Si3 0.245261 0.909786 0.879473
Si Si4 0.728728 0.905794 0.187919
Si Si5 0.384138 0.910433 0.618324
Si Si6 0.745091 0.599744 0.532846
Si Si7 0.565980 0.408002 0.300420
O O1 0.859963 0.250000 0.770880
O O2 0.788934 0.445887 0.791776
O O3 0.822899 0.426943 0.718630
O O4 0.895441 0.503441 0.771383
O O5 0.083780 0.750000 0.973418
O O6 0.089565 0.538460 0.923376
O O7 0.176415 0.598055 0.967649
O O8 0.081673 0.500000 0.000000
O O9 0.250436 0.750000 0.869736
O O10 0.180144 0.965692 0.874442
O O11 0.266865 0.940966 0.923663
O O12 0.283511 0.995725 0.848914
O O13 0.730486 0.750000 0.173571
O O14 0.378825 0.750000 0.613583
O O15 0.424477 0.954241 0.654400
O O16 0.771188 0.500000 0.500000
O O17 0.767514 0.750000 0.522384
O O18 0.500000 0.433593 0.289270
O O19 0.583040 0.250000 0.295631
#
# Coordination Sequence:
#
# PCOD8298257 Si02
#       7
#    16  16  16  16  16  16  16
#     4   9  18  31  43  58  81 104 126 157 200 243
#     4   8  13  22  35  49  67  91 118 151 191 233
#     4   9  15  24  39  57  77 102 131 162 198 236
#     4   9  17  28  42  60  81 103 128 159 196 241
#     4   8  14  25  38  53  75  97 120 155 198 238
#     4   8  14  22  32  49  73 100 129 158 188 228
#     4  10  19  30  45  62  77  98 132 166 196 238
#
# _framework density 14.378883
#
# number of rings (size 3 to 8) (size 9 to 14) (size 15 to 20)
#    0.000    3.286    1.429    2.571    0.000    1.429 
#    0.000    4.286    0.000    0.429    0.000    0.000 
#    0.000    0.000    0.000    0.000    0.000    0.714 
#
# Total GULP energy -694028.601057 kJ/mol
# GULP energy per Si atom -12393.367876 kJ/mol
# Density = 1.434616 g / cm^3
# Si number density = 14.378883 Si / 1000 Ang^3
#
#
#
# Elastic Constant Matrix: (Units=GPa)
#
#
# Indices 1 2 3 4 5 6 
#
# 1 38.3637 28.2707 30.4703 0.0000 0.0000 0.0000
# 2 28.2707 74.1685 62.8442 0.0000 0.0000 0.0000
# 3 30.4703 62.8442 97.8701 0.0000 0.0000 0.0000
# 4 0.0000 0.0000 0.0000 30.1430 0.0000 0.0000
# 5 0.0000 0.0000 0.0000 0.0000 11.8520 0.0000
# 6 0.0000 0.0000 0.0000 0.0000 0.0000 14.2456
#
#
#
# Elastic Compliance Matrix: (Units=1/GPa)
#
#
# Indices 1 2 3 4 5 6 
#
# 1 0.037543 -0.009665 -0.005482 0.000000 0.000000 0.000000
# 2 -0.009665 0.032061 -0.017578 0.000000 0.000000 0.000000
# 3 -0.005482 -0.017578 0.023212 0.000000 0.000000 0.000000
# 4 0.000000 0.000000 0.000000 0.033175 0.000000 0.000000
# 5 0.000000 0.000000 0.000000 0.000000 0.084374 0.000000
# 6 0.000000 0.000000 0.000000 0.000000 0.000000 0.070197
#
#
# Mechanical properties :
#
#
# Convention : Reuss Voigt Hill
#
# Bulk Modulus (GPa) = 36.54296 50.39695 43.46995
# Shear Modulus (GPa) = 14.07925 17.16926 15.62426
#
# Velocity S-wave (km/s) = 3.13255 3.45927 3.29995
# Velocity P-wave (km/s) = 6.20913 7.14708 6.69455
#
# Compressibility (1/GPa) = 0.02736505
#
# Stress axis : x y z
#
# Youngs Moduli (GPa) = 26.63624 31.19084 43.08205
#
# Poissons Ratio (x) = 0.30145 0.23619
# Poissons Ratio (y) = 0.25743 0.75729
# Poissons Ratio (z) = 0.14603 0.54827
#
# Static dielectric constant tensor:
#      x y z
#    x 2.300290 0.000000 0.000000 
#    y 0.000000 2.788480 0.000000 
#    z 0.000000 0.000000 2.965380 
# 
# 
# High freq. dielectric constant tensor:
#      x y z
#    x 1.483420 0.000000 0.000000 
#    y 0.000000 1.542960 0.000000 
#    z 0.000000 0.000000 1.554040 
# 
# From -- ./inp_files/68379.got.cif
#   From: 2010.03.12/outbox.cif.g09.slc.cpg/sg74_35_cif.got.tgz:68379.got - 2010.04.16 15:46:19.
