data_PCOD8298618
_publ_section_title
;
Structure prediction by ZEFSAII (Michael W. Deem and Ramdas Pophale) SiO2 
 PCOD8298618
Probable space group: I M M A
;
_chemical_formula_sum "Si O2"
_cell_formula_units_Z 80
_cell_length_a 18.733844
_cell_length_b 13.244232
_cell_length_c 18.174911
_cell_angle_alpha 90.000000
_cell_angle_beta 90.000000
_cell_angle_gamma 90.000000
_cell_volume 4509.474880
_symmetry_space_group_name_H-M "I M M A"
_symmetry_group_IT_number 74
_symmetry_cell_setting 'orthorhombic'
loop_
_space_group_symop_operation_xyz
x,y,z
-x,1/2-y,z
x,-y,-z
-x,1/2+y,-z
-x,-y,-z
x,1/2+y,-z
-x,y,z
x,1/2-y,z
1/2+x,1/2+y,1/2+z
1/2-x,-y,1/2+z
1/2+x,1/2-y,1/2-z
1/2-x,y,1/2-z
1/2-x,1/2-y,1/2-z
1/2+x,y,1/2-z
1/2-x,1/2+y,1/2+z
1/2+x,-y,1/2+z
loop_
_atom_site_type_symbol
_atom_site_label
_atom_site_fract_x
_atom_site_fract_y
_atom_site_fract_z
Si Si1 0.293576 0.134170 0.620349
Si Si2 0.420072 0.632606 0.774088
Si Si3 0.781561 0.448311 0.328165
Si Si4 0.580744 0.005620 0.372974
Si Si5 0.316255 0.136148 0.452945
O O1 0.285436 0.250000 0.644769
O O2 0.232381 0.068216 0.660573
O O3 0.283048 0.117986 0.533246
O O4 0.372243 0.094148 0.644176
O O5 0.500000 0.619493 0.806105
O O6 0.399868 0.750000 0.765889
O O7 0.365735 0.576991 0.829899
O O8 0.414404 0.581847 0.694775
O O9 0.750000 0.412169 0.250000
O O10 0.744088 0.386415 0.392890
O O11 0.500000 0.972816 0.390840
O O12 0.614937 0.064560 0.442223
O O13 0.343357 0.250000 0.445498
#
# Coordination Sequence:
#
# PCOD8298618 Si02
#       5
#    16  16  16  16  16
#     4  10  22  37  50  72 105 143 181 212 250 301
#     4  10  20  33  51  79 110 132 159 208 268 317
#     4  11  19  33  56  80 100 132 173 218 256 303
#     4  10  19  32  49  74 107 140 174 211 252 301
#     4  10  20  33  52  77 106 137 171 213 261 311
#
# _framework density 17.740424000000001
#
# number of rings (size 3 to 8) (size 9 to 14) (size 15 to 20)
#    0.000    1.800    4.000    3.600    0.000    4.400 
#    0.000    2.000    0.000    3.000    0.000    2.800 
#    0.000    0.000    0.000    0.000    0.000    0.000 
#
# Total GULP energy -495908.645581 kJ/mol
# GULP energy per Si atom -12397.716140 kJ/mol
# Density = 1.770005 g / cm^3
# Si number density = 17.740424 Si / 1000 Ang^3
#
#
#
# Elastic Constant Matrix: (Units=GPa)
#
#
# Indices 1 2 3 4 5 6 
#
# 1 116.2884 58.1711 40.6743 0.0000 0.0000 0.0000
# 2 58.1711 108.6267 28.6613 0.0000 0.0000 0.0000
# 3 40.6743 28.6613 53.7827 0.0000 0.0000 0.0000
# 4 0.0000 0.0000 0.0000 21.2851 0.0000 0.0000
# 5 0.0000 0.0000 0.0000 0.0000 19.5462 0.0000
# 6 0.0000 0.0000 0.0000 0.0000 0.0000 23.7490
#
#
#
# Elastic Compliance Matrix: (Units=1/GPa)
#
#
# Indices 1 2 3 4 5 6 
#
# 1 0.014033 -0.005486 -0.007689 0.000000 0.000000 0.000000
# 2 -0.005486 0.012857 -0.002703 0.000000 0.000000 0.000000
# 3 -0.007689 -0.002703 0.025849 0.000000 0.000000 0.000000
# 4 0.000000 0.000000 0.000000 0.046981 0.000000 0.000000
# 5 0.000000 0.000000 0.000000 0.000000 0.051161 0.000000
# 6 0.000000 0.000000 0.000000 0.000000 0.000000 0.042107
#
#
# Mechanical properties :
#
#
# Convention : Reuss Voigt Hill
#
# Bulk Modulus (GPa) = 47.65794 59.30125 53.47960
# Shear Modulus (GPa) = 21.57611 22.99546 22.28579
#
# Velocity S-wave (km/s) = 3.49121 3.60421 3.54816
# Velocity P-wave (km/s) = 6.57067 7.12883 6.85543
#
# Compressibility (1/GPa) = 0.02098286
#
# Stress axis : x y z
#
# Youngs Moduli (GPa) = 71.26012 77.77992 38.68663
#
# Poissons Ratio (x) = 0.42671 0.29747
# Poissons Ratio (y) = 0.39094 0.10455
# Poissons Ratio (z) = 0.54794 0.21020
#
# Static dielectric constant tensor:
#      x y z
#    x 3.494710 0.000000 0.000000 
#    y 0.000000 3.463300 0.000000 
#    z 0.000000 0.000000 3.210450 
# 
# 
# High freq. dielectric constant tensor:
#      x y z
#    x 1.671370 0.000000 0.000000 
#    y 0.000000 1.693650 0.000000 
#    z 0.000000 0.000000 1.674330 
# 
# From -- ./inp_files/43857.got.cif
#   From: 2010.03.12/outbox.cif.g09.slc.cpg/sg74_22_cif.got.tgz:43857.got - 2010.04.16 15:46:19.
