data_PCOD8298924
_publ_section_title
;
Structure prediction by ZEFSAII (Michael W. Deem and Ramdas Pophale) SiO2 
 PCOD8298924
Probable space group: I M M A
;
_chemical_formula_sum "Si O2"
_cell_formula_units_Z 88
_cell_length_a 8.460343
_cell_length_b 22.854386
_cell_length_c 24.737917
_cell_angle_alpha 90.000000
_cell_angle_beta 90.000000
_cell_angle_gamma 90.000000
_cell_volume 4783.223309
_symmetry_space_group_name_H-M "I M M A"
_symmetry_group_IT_number 74
_symmetry_cell_setting 'orthorhombic'
loop_
_space_group_symop_operation_xyz
x,y,z
-x,1/2-y,z
x,-y,-z
-x,1/2+y,-z
-x,-y,-z
x,1/2+y,-z
-x,y,z
x,1/2-y,z
1/2+x,1/2+y,1/2+z
1/2-x,-y,1/2+z
1/2+x,1/2-y,1/2-z
1/2-x,y,1/2-z
1/2-x,1/2-y,1/2-z
1/2+x,y,1/2-z
1/2-x,1/2+y,1/2+z
1/2+x,-y,1/2+z
loop_
_atom_site_type_symbol
_atom_site_label
_atom_site_fract_x
_atom_site_fract_y
_atom_site_fract_z
Si Si1 0.687964 0.316018 0.397002
Si Si2 0.185403 0.468417 0.692282
Si Si3 0.188230 0.250000 0.689486
Si Si4 0.687249 0.685144 0.484073
Si Si5 0.312557 0.137246 0.627427
Si Si6 0.313041 0.594737 0.691486
O O1 0.500000 0.316998 0.394402
O O2 0.748859 0.250000 0.385666
O O3 0.745052 0.337097 0.456868
O O4 0.758518 0.359946 0.352299
O O5 0.250000 0.446785 0.750000
O O6 0.228620 0.421130 0.647525
O O7 0.260482 0.529899 0.674988
O O8 0.000000 0.476698 0.697108
O O9 0.250000 0.250000 0.750000
O O10 0.254083 0.192786 0.660546
O O11 0.000000 0.250000 0.688415
O O12 0.500000 0.689440 0.484158
O O13 0.756753 0.750000 0.473354
O O14 0.741163 0.643076 0.435327
O O15 0.500000 0.131586 0.634035
O O16 0.500000 0.597235 0.692503
O O17 0.250000 0.613160 0.750000
#
# Coordination Sequence:
#
# PCOD8298924 Si02
#       6
#    16  16   8  16  16  16
#     4   8  15  29  52  82 110 134 169 215 258 302
#     4  11  22  37  54  73 101 139 177 218 263 315
#     4  12  24  36  50  74 108 140 175 218 263 310
#     4   8  14  28  51  78 104 133 170 215 259 300
#     4  11  20  34  55  79 103 134 176 221 265 308
#     4  10  19  33  54  79 106 138 173 213 259 312
#
# _framework density 18.397635000000001
#
# number of rings (size 3 to 8) (size 9 to 14) (size 15 to 20)
#    0.000    2.182    0.909    6.273    0.000    0.364 
#    0.000    0.909    0.000   11.455    0.000    0.000 
#    0.000    0.000    0.000    0.000    0.000    0.000 
#
# Total GULP energy -545451.856768 kJ/mol
# GULP energy per Si atom -12396.633108 kJ/mol
# Density = 1.835576 g / cm^3
# Si number density = 18.397635 Si / 1000 Ang^3
#
#
#
# Elastic Constant Matrix: (Units=GPa)
#
#
# Indices 1 2 3 4 5 6 
#
# 1 45.2761 9.2440 13.3774 0.0000 0.0000 0.0000
# 2 9.2440 112.7826 94.6015 0.0000 0.0000 0.0000
# 3 13.3774 94.6015 159.6493 0.0000 0.0000 0.0000
# 4 0.0000 0.0000 0.0000 27.6001 0.0000 0.0000
# 5 0.0000 0.0000 0.0000 0.0000 21.3399 0.0000
# 6 0.0000 0.0000 0.0000 0.0000 0.0000 19.5388
#
#
#
# Elastic Compliance Matrix: (Units=1/GPa)
#
#
# Indices 1 2 3 4 5 6 
#
# 1 0.022663 -0.000526 -0.001587 0.000000 0.000000 0.000000
# 2 -0.000526 0.017641 -0.010409 0.000000 0.000000 0.000000
# 3 -0.001587 -0.010409 0.012565 0.000000 0.000000 0.000000
# 4 0.000000 0.000000 0.000000 0.036232 0.000000 0.000000
# 5 0.000000 0.000000 0.000000 0.000000 0.046861 0.000000
# 6 0.000000 0.000000 0.000000 0.000000 0.000000 0.051180
#
#
# Mechanical properties :
#
#
# Convention : Reuss Voigt Hill
#
# Bulk Modulus (GPa) = 35.94068 61.35043 48.64555
# Shear Modulus (GPa) = 22.57731 27.06141 24.81936
#
# Velocity S-wave (km/s) = 3.50692 3.83942 3.67693
# Velocity P-wave (km/s) = 5.99799 7.28520 6.67271
#
# Compressibility (1/GPa) = 0.02782363
#
# Stress axis : x y z
#
# Youngs Moduli (GPa) = 44.12460 56.68640 79.58765
#
# Poissons Ratio (x) = 0.02983 0.12632
# Poissons Ratio (y) = 0.02322 0.82844
# Poissons Ratio (z) = 0.07003 0.59006
#
# Static dielectric constant tensor:
#      x y z
#    x 3.195310 0.000000 0.000000 
#    y 0.000000 3.680130 0.000000 
#    z 0.000000 0.000000 3.837690 
# 
# 
# High freq. dielectric constant tensor:
#      x y z
#    x 1.694880 0.000000 0.000000 
#    y 0.000000 1.705500 0.000000 
#    z 0.000000 0.000000 1.723470 
# 
# From -- ./inp_files/48741.got.cif
#   From: 2010.03.12/outbox.cif.g09.slc.cpg/sg74_25_cif.got.tgz:48741.got - 2010.04.16 15:46:19.
