data_PCOD8298218
_publ_section_title
;
Structure prediction by ZEFSAII (Michael W. Deem and Ramdas Pophale) SiO2 
 PCOD8298218
Probable space group: I M M A
;
_chemical_formula_sum "Si O2"
_cell_formula_units_Z 112
_cell_length_a 14.962960
_cell_length_b 14.531459
_cell_length_c 28.956778
_cell_angle_alpha 90.000000
_cell_angle_beta 90.000000
_cell_angle_gamma 90.000000
_cell_volume 6296.177636
_symmetry_space_group_name_H-M "I M M A"
_symmetry_group_IT_number 74
_symmetry_cell_setting 'orthorhombic'
loop_
_space_group_symop_operation_xyz
x,y,z
-x,1/2-y,z
x,-y,-z
-x,1/2+y,-z
-x,-y,-z
x,1/2+y,-z
-x,y,z
x,1/2-y,z
1/2+x,1/2+y,1/2+z
1/2-x,-y,1/2+z
1/2+x,1/2-y,1/2-z
1/2-x,y,1/2-z
1/2-x,1/2-y,1/2-z
1/2+x,y,1/2-z
1/2-x,1/2+y,1/2+z
1/2+x,-y,1/2+z
loop_
_atom_site_type_symbol
_atom_site_label
_atom_site_fract_x
_atom_site_fract_y
_atom_site_fract_z
Si Si1 0.395893 0.353840 0.627001
Si Si2 0.397825 0.644022 0.856295
Si Si3 0.602768 0.643988 0.684165
Si Si4 0.099147 0.509412 0.945834
Si Si5 0.278901 0.354072 0.403676
Si Si6 0.100183 0.035803 0.269147
Si Si7 0.847563 0.647509 0.229230
O O1 0.500000 0.359442 0.638470
O O2 0.367756 0.250000 0.612910
O O3 0.371082 0.419045 0.583592
O O4 0.347013 0.383017 0.675111
O O5 0.500000 0.622763 0.872504
O O6 0.390298 0.750000 0.838652
O O7 0.327697 0.628789 0.898065
O O8 0.361169 0.573008 0.817484
O O9 0.500000 0.614934 0.673093
O O10 0.608108 0.750000 0.698081
O O11 0.665132 0.619758 0.641607
O O12 0.646774 0.585369 0.725788
O O13 0.178399 0.583312 0.942790
O O14 0.000000 0.540668 0.927964
O O15 0.091083 0.500000 0.000000
O O16 0.297019 0.250000 0.418393
O O17 0.000000 0.073531 0.269833
O O18 0.101300 0.925705 0.261785
O O19 0.891176 0.750000 0.233313
O O20 0.750000 0.649888 0.250000
#
# Coordination Sequence:
#
# PCOD8298218 Si02
#       7
#    16  16  16  16  16  16  16
#     4   9  18  34  53  70  95 136 177 209 250 306
#     4   9  19  34  49  70 100 132 169 209 250 302
#     4   9  17  28  43  69 102 132 163 197 240 299
#     4  10  21  35  53  80 109 134 164 206 257 314
#     4  10  20  32  50  73  99 133 167 203 251 304
#     4  10  19  29  45  66  92 132 170 207 252 293
#     4  10  21  32  44  67  96 128 172 219 255 293
#
# _framework density 17.78857
#
# number of rings (size 3 to 8) (size 9 to 14) (size 15 to 20)
#    0.000    2.429    0.000    2.143    4.000    6.286 
#    0.000    3.571    0.000    0.429    0.000    0.000 
#    0.000    0.000    0.000    0.000    0.000    0.000 
#
# Total GULP energy -693798.352815 kJ/mol
# GULP energy per Si atom -12389.256300 kJ/mol
# Density = 1.774808 g / cm^3
# Si number density = 17.788570 Si / 1000 Ang^3
#
#
#
# Elastic Constant Matrix: (Units=GPa)
#
#
# Indices 1 2 3 4 5 6 
#
# 1 78.4358 29.7817 30.2453 0.0000 0.0000 0.0000
# 2 29.7817 74.1103 39.7453 0.0000 0.0000 0.0000
# 3 30.2453 39.7453 66.4099 0.0000 0.0000 0.0000
# 4 0.0000 0.0000 0.0000 20.8954 0.0000 0.0000
# 5 0.0000 0.0000 0.0000 0.0000 18.3637 0.0000
# 6 0.0000 0.0000 0.0000 0.0000 0.0000 21.4722
#
#
#
# Elastic Compliance Matrix: (Units=1/GPa)
#
#
# Indices 1 2 3 4 5 6 
#
# 1 0.016142 -0.003747 -0.005109 0.000000 0.000000 0.000000
# 2 -0.003747 0.020741 -0.010707 0.000000 0.000000 0.000000
# 3 -0.005109 -0.010707 0.023793 0.000000 0.000000 0.000000
# 4 0.000000 0.000000 0.000000 0.047858 0.000000 0.000000
# 5 0.000000 0.000000 0.000000 0.000000 0.054455 0.000000
# 6 0.000000 0.000000 0.000000 0.000000 0.000000 0.046572
#
#
# Mechanical properties :
#
#
# Convention : Reuss Voigt Hill
#
# Bulk Modulus (GPa) = 46.40307 46.50008 46.45157
# Shear Modulus (GPa) = 19.54120 20.09184 19.81652
#
# Velocity S-wave (km/s) = 3.31800 3.36442 3.34129
# Velocity P-wave (km/s) = 6.38916 6.42570 6.40745
#
# Compressibility (1/GPa) = 0.02155030
#
# Stress axis : x y z
#
# Youngs Moduli (GPa) = 61.95004 48.21338 42.02945
#
# Poissons Ratio (x) = 0.18064 0.21474
# Poissons Ratio (y) = 0.23211 0.45000
# Poissons Ratio (z) = 0.31652 0.51622
#
# Static dielectric constant tensor:
#      x y z
#    x 3.451690 0.000000 0.000000 
#    y 0.000000 3.554010 0.000000 
#    z 0.000000 0.000000 3.024920 
# 
# 
# High freq. dielectric constant tensor:
#      x y z
#    x 1.677790 0.000000 0.000000 
#    y 0.000000 1.693940 0.000000 
#    z 0.000000 0.000000 1.653000 
# 
# From -- ./inp_files/60118.got.cif
#   From: 2010.03.12/outbox.cif.g09.slc.cpg/sg74_31_cif.got.tgz:60118.got - 2010.04.16 15:46:19.
