data_PCOD8298796
_publ_section_title
;
Structure prediction by ZEFSAII (Michael W. Deem and Ramdas Pophale) SiO2 
 PCOD8298796
Probable space group: I M M A
;
_chemical_formula_sum "Si O2"
_cell_formula_units_Z 112
_cell_length_a 27.453855
_cell_length_b 19.581269
_cell_length_c 10.969263
_cell_angle_alpha 90.000000
_cell_angle_beta 90.000000
_cell_angle_gamma 90.000000
_cell_volume 5896.870881
_symmetry_space_group_name_H-M "I M M A"
_symmetry_group_IT_number 74
_symmetry_cell_setting 'orthorhombic'
loop_
_space_group_symop_operation_xyz
x,y,z
-x,1/2-y,z
x,-y,-z
-x,1/2+y,-z
-x,-y,-z
x,1/2+y,-z
-x,y,z
x,1/2-y,z
1/2+x,1/2+y,1/2+z
1/2-x,-y,1/2+z
1/2+x,1/2-y,1/2-z
1/2-x,y,1/2-z
1/2-x,1/2-y,1/2-z
1/2+x,y,1/2-z
1/2-x,1/2+y,1/2+z
1/2+x,-y,1/2+z
loop_
_atom_site_type_symbol
_atom_site_label
_atom_site_fract_x
_atom_site_fract_y
_atom_site_fract_z
Si Si1 0.054898 0.102906 0.565173
Si Si2 0.233748 0.039412 0.121786
Si Si3 0.877125 0.558414 0.913649
Si Si4 0.147001 0.671335 0.350521
Si Si5 0.157035 0.827523 0.083806
Si Si6 0.054781 0.962942 0.692291
Si Si7 0.236583 0.828171 0.512122
O O1 0.094093 0.161676 0.589489
O O2 0.057909 0.086413 0.423096
O O3 0.000000 0.127414 0.597645
O O4 0.069841 0.038513 0.648748
O O5 0.250000 0.005326 0.250000
O O6 0.175916 0.034884 0.127531
O O7 0.255091 0.117166 0.120475
O O8 0.252705 0.000000 0.000000
O O9 0.910291 0.567337 0.795184
O O10 0.900308 0.500000 0.000000
O O11 0.873295 0.630332 0.983860
O O12 0.158364 0.750000 0.331154
O O13 0.146901 0.638475 0.215697
O O14 0.190417 0.643614 0.435666
O O15 0.138101 0.750000 0.072147
O O16 0.215160 0.831520 0.069872
O O17 0.000000 0.963934 0.744180
O O18 0.228466 0.750000 0.561171
#
# Coordination Sequence:
#
# PCOD8298796 Si02
#       7
#    16  16  16  16  16  16  16
#     4   9  19  35  54  78 104 132 171 226 279 314
#     4  10  23  37  52  80 116 149 183 228 281 329
#     4  10  20  34  53  78 106 137 177 219 267 321
#     4  10  19  32  55  82 104 138 182 217 266 327
#     4   9  18  34  53  77 112 145 174 219 269 317
#     4   9  19  36  56  76 100 133 176 221 269 324
#     4   9  19  35  55  80 109 146 188 226 266 325
#
# _framework density 18.993124999999999
#
# number of rings (size 3 to 8) (size 9 to 14) (size 15 to 20)
#    0.000    2.571    0.000    2.143    2.000    7.143 
#    0.000    1.429    0.000    2.143    0.000    0.000 
#    0.000    0.000    0.000    0.000    0.000    0.000 
#
# Total GULP energy -694131.644950 kJ/mol
# GULP energy per Si atom -12395.207946 kJ/mol
# Density = 1.894990 g / cm^3
# Si number density = 18.993125 Si / 1000 Ang^3
#
#
#
# Elastic Constant Matrix: (Units=GPa)
#
#
# Indices 1 2 3 4 5 6 
#
# 1 87.3572 26.1896 52.4653 0.0000 0.0000 0.0000
# 2 26.1896 50.1605 28.9932 0.0000 0.0000 0.0000
# 3 52.4653 28.9932 110.8611 0.0000 0.0000 0.0000
# 4 0.0000 0.0000 0.0000 22.6422 0.0000 0.0000
# 5 0.0000 0.0000 0.0000 0.0000 34.0906 0.0000
# 6 0.0000 0.0000 0.0000 0.0000 0.0000 28.0852
#
#
#
# Elastic Compliance Matrix: (Units=1/GPa)
#
#
# Indices 1 2 3 4 5 6 
#
# 1 0.016985 -0.004974 -0.006737 0.000000 0.000000 0.000000
# 2 -0.004974 0.024943 -0.004169 0.000000 0.000000 0.000000
# 3 -0.006737 -0.004169 0.013299 0.000000 0.000000 0.000000
# 4 0.000000 0.000000 0.000000 0.044165 0.000000 0.000000
# 5 0.000000 0.000000 0.000000 0.000000 0.029334 0.000000
# 6 0.000000 0.000000 0.000000 0.000000 0.000000 0.035606
#
#
# Mechanical properties :
#
#
# Convention : Reuss Voigt Hill
#
# Bulk Modulus (GPa) = 42.61520 51.51945 47.06732
# Shear Modulus (GPa) = 24.52009 26.34563 25.43286
#
# Velocity S-wave (km/s) = 3.59694 3.72844 3.66328
# Velocity P-wave (km/s) = 6.30369 6.76160 6.53666
#
# Compressibility (1/GPa) = 0.02346581
#
# Stress axis : x y z
#
# Youngs Moduli (GPa) = 58.87654 40.09166 75.19278
#
# Poissons Ratio (x) = 0.19941 0.50659
# Poissons Ratio (y) = 0.29284 0.31351
# Poissons Ratio (z) = 0.39667 0.16716
#
# Static dielectric constant tensor:
#      x y z
#    x 3.331020 0.000000 0.000000 
#    y 0.000000 3.451120 0.000000 
#    z 0.000000 0.000000 3.433650 
# 
# 
# High freq. dielectric constant tensor:
#      x y z
#    x 1.728060 0.000000 0.000000 
#    y 0.000000 1.726970 0.000000 
#    z 0.000000 0.000000 1.735280 
# 
# From -- ./inp_files/25397.got.cif
#   From: 2010.03.12/outbox.cif.g09.slc.cpg/sg74_13_cif.got.tgz:25397.got - 2010.04.16 15:46:19.
