data_PCOD8298251
_publ_section_title
;
Structure prediction by ZEFSAII (Michael W. Deem and Ramdas Pophale) SiO2 
 PCOD8298251
Probable space group: I M M A
;
_chemical_formula_sum "Si O2"
_cell_formula_units_Z 104
_cell_length_a 22.159286
_cell_length_b 9.763770
_cell_length_c 29.329016
_cell_angle_alpha 90.000000
_cell_angle_beta 90.000000
_cell_angle_gamma 90.000000
_cell_volume 6345.572284
_symmetry_space_group_name_H-M "I M M A"
_symmetry_group_IT_number 74
_symmetry_cell_setting 'orthorhombic'
loop_
_space_group_symop_operation_xyz
x,y,z
-x,1/2-y,z
x,-y,-z
-x,1/2+y,-z
-x,-y,-z
x,1/2+y,-z
-x,y,z
x,1/2-y,z
1/2+x,1/2+y,1/2+z
1/2-x,-y,1/2+z
1/2+x,1/2-y,1/2-z
1/2-x,y,1/2-z
1/2-x,1/2-y,1/2-z
1/2+x,y,1/2-z
1/2-x,1/2+y,1/2+z
1/2+x,-y,1/2+z
loop_
_atom_site_type_symbol
_atom_site_label
_atom_site_fract_x
_atom_site_fract_y
_atom_site_fract_z
Si Si1 0.888550 0.907684 0.608780
Si Si2 0.854693 0.408774 0.042552
Si Si3 0.430324 0.090142 0.812382
Si Si4 0.070274 0.908103 0.869859
Si Si5 0.283919 0.093848 0.041458
Si Si6 0.000000 0.090596 0.455150
Si Si7 0.428266 0.098395 0.710621
O O1 0.895341 0.750000 0.623786
O O2 0.824244 0.936858 0.585526
O O3 0.941239 0.948216 0.573872
O O4 0.890360 0.001246 0.653415
O O5 0.866116 0.250000 0.030470
O O6 0.894199 0.455866 0.085431
O O7 0.785061 0.437303 0.054757
O O8 0.875692 0.500000 0.000000
O O9 0.500000 0.047091 0.817890
O O10 0.421974 0.250000 0.823380
O O11 0.406644 0.056740 0.761330
O O12 0.082352 0.750000 0.858969
O O13 0.000000 0.938336 0.878347
O O14 0.096115 0.991974 0.826766
O O15 0.292400 0.250000 0.025291
O O16 0.305970 0.000000 0.000000
O O17 0.000000 0.250000 0.469158
O O18 0.000000 0.000000 0.500000
O O19 0.500000 0.099858 0.711122
O O20 0.404089 0.250000 0.698154
#
# Coordination Sequence:
#
# PCOD8298251 Si02
#       7
#    16  16  16  16  16   8  16
#     4  10  19  30  44  64  89 115 148 189 228 266
#     4   9  18  32  48  67  92 120 151 184 217 260
#     4   9  17  29  45  66  91 118 148 183 226 271
#     4   9  17  29  46  70  96 119 145 179 221 265
#     4   9  18  32  48  64  85 117 154 188 221 261
#     4  10  20  30  40  60  88 114 142 182 227 268
#     4   8  15  28  45  66  92 119 147 180 218 265
#
# _framework density 16.389382000000001
#
# number of rings (size 3 to 8) (size 9 to 14) (size 15 to 20)
#    0.000    2.923    0.769    1.385    0.000    2.769 
#    0.000    1.538    0.000    0.923    0.000    6.462 
#    0.000    0.000    0.000    0.000    0.000    0.000 
#
# Total GULP energy -644794.810921 kJ/mol
# GULP energy per Si atom -12399.900210 kJ/mol
# Density = 1.635208 g / cm^3
# Si number density = 16.389382 Si / 1000 Ang^3
#
#
#
# Elastic Constant Matrix: (Units=GPa)
#
#
# Indices 1 2 3 4 5 6 
#
# 1 47.5228 35.4164 50.1537 0.0000 0.0000 0.0000
# 2 35.4164 82.2594 87.1605 0.0000 0.0000 0.0000
# 3 50.1537 87.1605 151.6294 0.0000 0.0000 0.0000
# 4 0.0000 0.0000 0.0000 39.0337 0.0000 0.0000
# 5 0.0000 0.0000 0.0000 0.0000 20.1876 0.0000
# 6 0.0000 0.0000 0.0000 0.0000 0.0000 16.7989
#
#
#
# Elastic Compliance Matrix: (Units=1/GPa)
#
#
# Indices 1 2 3 4 5 6 
#
# 1 0.033801 -0.006923 -0.007201 0.000000 0.000000 0.000000
# 2 -0.006923 0.032515 -0.016401 0.000000 0.000000 0.000000
# 3 -0.007201 -0.016401 0.018404 0.000000 0.000000 0.000000
# 4 0.000000 0.000000 0.000000 0.025619 0.000000 0.000000
# 5 0.000000 0.000000 0.000000 0.000000 0.049535 0.000000
# 6 0.000000 0.000000 0.000000 0.000000 0.000000 0.059528
#
#
# Mechanical properties :
#
#
# Convention : Reuss Voigt Hill
#
# Bulk Modulus (GPa) = 42.24457 69.65253 55.94855
# Shear Modulus (GPa) = 17.34049 22.44944 19.89496
#
# Velocity S-wave (km/s) = 3.25627 3.70504 3.48788
# Velocity P-wave (km/s) = 6.32212 7.80345 7.10152
#
# Compressibility (1/GPa) = 0.02367168
#
# Stress axis : x y z
#
# Youngs Moduli (GPa) = 29.58459 30.75481 54.33556
#
# Poissons Ratio (x) = 0.21293 0.39124
# Poissons Ratio (y) = 0.20483 0.89113
# Poissons Ratio (z) = 0.21302 0.50440
#
# Static dielectric constant tensor:
#      x y z
#    x 2.910510 0.000000 0.000000 
#    y 0.000000 3.162220 0.000000 
#    z 0.000000 0.000000 3.135810 
# 
# 
# High freq. dielectric constant tensor:
#      x y z
#    x 1.603460 0.000000 0.000000 
#    y 0.000000 1.633550 0.000000 
#    z 0.000000 0.000000 1.629880 
# 
# From -- ./inp_files/70973.got.cif
#   From: 2010.03.12/outbox.cif.g09.slc.cpg/sg74_36_cif.got.tgz:70973.got - 2010.04.16 15:46:19.
