data_PCOD8298314
_publ_section_title
;
Structure prediction by ZEFSAII (Michael W. Deem and Ramdas Pophale) SiO2 
 PCOD8298314
Probable space group: I M M A
;
_chemical_formula_sum "Si O2"
_cell_formula_units_Z 96
_cell_length_a 19.434363
_cell_length_b 9.188244
_cell_length_c 30.928742
_cell_angle_alpha 90.000000
_cell_angle_beta 90.000000
_cell_angle_gamma 90.000000
_cell_volume 5522.873371
_symmetry_space_group_name_H-M "I M M A"
_symmetry_group_IT_number 74
_symmetry_cell_setting 'orthorhombic'
loop_
_space_group_symop_operation_xyz
x,y,z
-x,1/2-y,z
x,-y,-z
-x,1/2+y,-z
-x,-y,-z
x,1/2+y,-z
-x,y,z
x,1/2-y,z
1/2+x,1/2+y,1/2+z
1/2-x,-y,1/2+z
1/2+x,1/2-y,1/2-z
1/2-x,y,1/2-z
1/2-x,1/2-y,1/2-z
1/2+x,y,1/2-z
1/2-x,1/2+y,1/2+z
1/2+x,-y,1/2+z
loop_
_atom_site_type_symbol
_atom_site_label
_atom_site_fract_x
_atom_site_fract_y
_atom_site_fract_z
Si Si1 0.679388 0.077638 0.127590
Si Si2 0.921577 0.581250 0.704821
Si Si3 0.578322 0.079527 0.710091
Si Si4 0.666109 0.090675 0.539478
Si Si5 0.179049 0.923186 0.133918
Si Si6 0.170692 0.086026 0.540970
O O1 0.687918 0.250000 0.120212
O O2 0.623740 0.038961 0.163807
O O3 0.751083 0.009426 0.143331
O O4 0.651786 0.003630 0.083877
O O5 0.915377 0.750000 0.715823
O O6 0.893619 0.496405 0.746698
O O7 0.000000 0.536037 0.694485
O O8 0.500000 0.031846 0.700380
O O9 0.584324 0.250000 0.717578
O O10 0.624275 0.029659 0.669765
O O11 0.633859 0.250000 0.534552
O O12 0.648103 0.028381 0.587161
O O13 0.747906 0.095703 0.535545
O O14 0.633533 0.000000 0.500000
O O15 0.194585 0.750000 0.133542
O O16 0.139995 0.250000 0.543340
O O17 0.138751 0.000000 0.500000
#
# Coordination Sequence:
#
# PCOD8298314 Si02
#       6
#    16  16  16  16  16  16
#     4  10  19  30  47  71  96 123 156 192 232 278
#     4   9  19  35  51  67  91 123 156 192 236 283
#     4   9  18  33  52  70  88 118 160 197 232 281
#     4   8  14  24  39  60  87 118 147 177 217 263
#     4   9  18  31  46  68  97 123 150 192 241 279
#     4   9  16  27  44  67  96 126 155 189 230 274
#
# _framework density 17.382255000000001
#
# number of rings (size 3 to 8) (size 9 to 14) (size 15 to 20)
#    0.000    3.000    0.000    2.000    0.000    6.667 
#    0.000    3.333    0.000    1.000    0.000    0.000 
#    0.000    0.000    0.000    0.000    0.000    1.833 
#
# Total GULP energy -595035.927133 kJ/mol
# GULP energy per Si atom -12396.581815 kJ/mol
# Density = 1.734269 g / cm^3
# Si number density = 17.382255 Si / 1000 Ang^3
#
#
#
# Elastic Constant Matrix: (Units=GPa)
#
#
# Indices 1 2 3 4 5 6 
#
# 1 52.8706 36.4798 67.1037 0.0000 0.0000 0.0000
# 2 36.4798 78.8014 72.4148 0.0000 0.0000 0.0000
# 3 67.1037 72.4148 178.3329 0.0000 0.0000 0.0000
# 4 0.0000 0.0000 0.0000 35.6829 0.0000 0.0000
# 5 0.0000 0.0000 0.0000 0.0000 2.9660 0.0000
# 6 0.0000 0.0000 0.0000 0.0000 0.0000 15.3890
#
#
#
# Elastic Compliance Matrix: (Units=1/GPa)
#
#
# Indices 1 2 3 4 5 6 
#
# 1 0.038617 -0.007217 -0.011600 0.000000 0.000000 0.000000
# 2 -0.007217 0.021593 -0.006053 0.000000 0.000000 0.000000
# 3 -0.011600 -0.006053 0.012430 0.000000 0.000000 0.000000
# 4 0.000000 0.000000 0.000000 0.028025 0.000000 0.000000
# 5 0.000000 0.000000 0.000000 0.000000 0.337155 0.000000
# 6 0.000000 0.000000 0.000000 0.000000 0.000000 0.064982
#
#
# Mechanical properties :
#
#
# Convention : Reuss Voigt Hill
#
# Bulk Modulus (GPa) = 43.66697 73.55573 58.61135
# Shear Modulus (GPa) = 8.92579 19.74134 14.33356
#
# Velocity S-wave (km/s) = 2.26851 3.37370 2.87472
# Velocity P-wave (km/s) = 5.66018 7.58843 6.69410
#
# Compressibility (1/GPa) = 0.02290060
#
# Stress axis : x y z
#
# Youngs Moduli (GPa) = 25.89537 46.31100 80.44846
#
# Poissons Ratio (x) = 0.33422 0.93324
# Poissons Ratio (y) = 0.18688 0.48693
# Poissons Ratio (z) = 0.30040 0.28030
#
# Static dielectric constant tensor:
#      x y z
#    x 2.899430 0.000000 0.000000 
#    y 0.000000 3.353590 0.000000 
#    z 0.000000 0.000000 3.498670 
# 
# 
# High freq. dielectric constant tensor:
#      x y z
#    x 1.623860 0.000000 0.000000 
#    y 0.000000 1.674840 0.000000 
#    z 0.000000 0.000000 1.687180 
# 
# From -- ./inp_files/64675.got.cif
#   From: 2010.03.12/outbox.cif.g09.slc.cpg/sg74_33_cif.got.tgz:64675.got - 2010.04.16 15:46:19.
