data_PCOD8298560
_publ_section_title
;
Structure prediction by ZEFSAII (Michael W. Deem and Ramdas Pophale) SiO2 
 PCOD8298560
Probable space group: I M M A
;
_chemical_formula_sum "Si O2"
_cell_formula_units_Z 88
_cell_length_a 8.976969
_cell_length_b 17.315834
_cell_length_c 28.487595
_cell_angle_alpha 90.000000
_cell_angle_beta 90.000000
_cell_angle_gamma 90.000000
_cell_volume 4428.217314
_symmetry_space_group_name_H-M "I M M A"
_symmetry_group_IT_number 74
_symmetry_cell_setting 'orthorhombic'
loop_
_space_group_symop_operation_xyz
x,y,z
-x,1/2-y,z
x,-y,-z
-x,1/2+y,-z
-x,-y,-z
x,1/2+y,-z
-x,y,z
x,1/2-y,z
1/2+x,1/2+y,1/2+z
1/2-x,-y,1/2+z
1/2+x,1/2-y,1/2-z
1/2-x,y,1/2-z
1/2-x,1/2-y,1/2-z
1/2+x,y,1/2-z
1/2-x,1/2+y,1/2+z
1/2+x,-y,1/2+z
loop_
_atom_site_type_symbol
_atom_site_label
_atom_site_fract_x
_atom_site_fract_y
_atom_site_fract_z
Si Si1 0.174123 0.039545 0.701599
Si Si2 0.673013 0.106564 0.138228
Si Si3 0.827143 0.159239 0.860097
Si Si4 0.824958 0.750000 0.700094
Si Si5 0.667803 0.158244 0.953969
Si Si6 0.174981 0.339331 0.047908
O O1 0.250000 0.014066 0.750000
O O2 0.246353 0.118887 0.683598
O O3 0.000000 0.052090 0.710322
O O4 0.205511 0.974015 0.663263
O O5 0.500000 0.117496 0.125671
O O6 0.728550 0.174734 0.172096
O O7 0.766868 0.108784 0.090541
O O8 0.801680 0.250000 0.853909
O O9 0.755654 0.128144 0.908442
O O10 0.000000 0.137398 0.860409
O O11 0.750000 0.750000 0.750000
O O12 0.000000 0.750000 0.708072
O O13 0.500000 0.125313 0.952327
O O14 0.667899 0.250000 0.954046
O O15 0.749038 0.128229 0.000694
O O16 0.218972 0.250000 0.056808
O O17 0.000000 0.349323 0.042172
#
# Coordination Sequence:
#
# PCOD8298560 Si02
#       6
#    16  16  16   8  16  16
#     4  11  24  41  61  85 114 150 190 236 292 345
#     4  10  21  37  56  80 113 153 194 237 285 337
#     4  10  21  39  63  89 116 147 186 233 285 345
#     4  10  20  34  54  78 108 146 192 240 283 330
#     4   9  17  31  55  85 117 152 187 229 282 339
#     4  10  19  31  52  84 118 154 195 237 280 331
#
# _framework density 19.872555999999999
#
# number of rings (size 3 to 8) (size 9 to 14) (size 15 to 20)
#    0.000    2.000    0.909    2.727    0.000    6.545 
#    0.000    0.909    0.000    5.455    0.000    0.000 
#    0.000    0.000    0.000    0.000    0.000    0.000 
#
# Total GULP energy -545820.182931 kJ/mol
# GULP energy per Si atom -12405.004158 kJ/mol
# Density = 1.982733 g / cm^3
# Si number density = 19.872556 Si / 1000 Ang^3
#
#
#
# Elastic Constant Matrix: (Units=GPa)
#
#
# Indices 1 2 3 4 5 6 
#
# 1 122.5896 40.6248 53.7835 0.0000 0.0000 0.0000
# 2 40.6248 53.5577 28.5343 0.0000 0.0000 0.0000
# 3 53.7835 28.5343 93.0391 0.0000 0.0000 0.0000
# 4 0.0000 0.0000 0.0000 19.4670 0.0000 0.0000
# 5 0.0000 0.0000 0.0000 0.0000 46.3758 0.0000
# 6 0.0000 0.0000 0.0000 0.0000 0.0000 21.2048
#
#
#
# Elastic Compliance Matrix: (Units=1/GPa)
#
#
# Indices 1 2 3 4 5 6 
#
# 1 0.012738 -0.006860 -0.005260 0.000000 0.000000 0.000000
# 2 -0.006860 0.026013 -0.004012 0.000000 0.000000 0.000000
# 3 -0.005260 -0.004012 0.015019 0.000000 0.000000 0.000000
# 4 0.000000 0.000000 0.000000 0.051369 0.000000 0.000000
# 5 0.000000 0.000000 0.000000 0.000000 0.021563 0.000000
# 6 0.000000 0.000000 0.000000 0.000000 0.000000 0.047159
#
#
# Mechanical properties :
#
#
# Convention : Reuss Voigt Hill
#
# Bulk Modulus (GPa) = 46.49856 57.23018 51.86437
# Shear Modulus (GPa) = 23.44186 27.15911 25.30048
#
# Velocity S-wave (km/s) = 3.43827 3.70085 3.57198
# Velocity P-wave (km/s) = 6.26190 6.86461 6.57017
#
# Compressibility (1/GPa) = 0.02150604
#
# Stress axis : x y z
#
# Youngs Moduli (GPa) = 78.50403 38.44299 66.58136
#
# Poissons Ratio (x) = 0.26372 0.35020
# Poissons Ratio (y) = 0.53853 0.26714
# Poissons Ratio (z) = 0.41291 0.15424
#
# Static dielectric constant tensor:
#      x y z
#    x 3.669330 0.000000 0.000000 
#    y 0.000000 3.395740 0.000000 
#    z 0.000000 0.000000 3.670770 
# 
# 
# High freq. dielectric constant tensor:
#      x y z
#    x 1.783210 0.000000 0.000000 
#    y 0.000000 1.751600 0.000000 
#    z 0.000000 0.000000 1.785950 
# 
# From -- ./inp_files/70230.got.cif
#   From: 2010.03.12/outbox.cif.g09.slc.cpg/sg74_36_cif.got.tgz:70230.got - 2010.04.16 15:46:19.
