data_PCOD8298415
_publ_section_title
;
Structure prediction by ZEFSAII (Michael W. Deem and Ramdas Pophale) SiO2 
 PCOD8298415
Probable space group: I M M A
;
_chemical_formula_sum "Si O2"
_cell_formula_units_Z 96
_cell_length_a 23.022418
_cell_length_b 9.428764
_cell_length_c 24.348184
_cell_angle_alpha 90.000000
_cell_angle_beta 90.000000
_cell_angle_gamma 90.000000
_cell_volume 5285.332031
_symmetry_space_group_name_H-M "I M M A"
_symmetry_group_IT_number 74
_symmetry_cell_setting 'orthorhombic'
loop_
_space_group_symop_operation_xyz
x,y,z
-x,1/2-y,z
x,-y,-z
-x,1/2+y,-z
-x,-y,-z
x,1/2+y,-z
-x,y,z
x,1/2-y,z
1/2+x,1/2+y,1/2+z
1/2-x,-y,1/2+z
1/2+x,1/2-y,1/2-z
1/2-x,y,1/2-z
1/2-x,1/2-y,1/2-z
1/2+x,y,1/2-z
1/2-x,1/2+y,1/2+z
1/2+x,-y,1/2+z
loop_
_atom_site_type_symbol
_atom_site_label
_atom_site_fract_x
_atom_site_fract_y
_atom_site_fract_z
Si Si1 0.857795 0.412709 0.552917
Si Si2 0.066626 0.586742 0.345064
Si Si3 0.851582 0.408618 0.139361
Si Si4 0.433738 0.417741 0.264005
Si Si5 0.277722 0.416133 0.555607
Si Si6 0.936325 0.903664 0.956204
O O1 0.877733 0.500000 0.500000
O O2 0.872534 0.250000 0.540540
O O3 0.893741 0.468228 0.605049
O O4 0.790260 0.434534 0.565839
O O5 0.080525 0.750000 0.330709
O O6 0.082146 0.492640 0.292729
O O7 0.000000 0.567112 0.362776
O O8 0.823603 0.250000 0.146872
O O9 0.881504 0.466886 0.195100
O O10 0.806801 0.516772 0.110529
O O11 0.907314 0.394521 0.101785
O O12 0.500000 0.460425 0.282604
O O13 0.430557 0.250000 0.256030
O O14 0.295987 0.500000 0.500000
O O15 0.295106 0.250000 0.549400
O O16 0.940298 0.750000 0.983656
O O17 0.000000 0.969856 0.946143
O O18 0.901201 0.000000 0.000000
#
# Coordination Sequence:
#
# PCOD8298415 Si02
#       6
#    16  16  16  16  16  16
#     4   9  19  35  54  77 104 132 161 197 244 296
#     4   9  18  34  55  78 104 131 160 198 244 295
#     4  10  19  31  48  69  94 127 168 209 246 288
#     4   9  18  33  52  74 101 133 168 207 251 295
#     4  10  20  34  51  71  98 132 168 206 249 296
#     4   9  17  28  41  59  85 116 150 194 247 293
#
# _framework density 18.163475999999999
#
# number of rings (size 3 to 8) (size 9 to 14) (size 15 to 20)
#    0.000    2.667    0.000    1.500    0.000    6.333 
#    0.000    0.833    0.000   10.000    0.000    0.000 
#    0.000    0.000    0.000    0.000    0.000    0.000 
#
# Total GULP energy -594784.483515 kJ/mol
# GULP energy per Si atom -12391.343407 kJ/mol
# Density = 1.812214 g / cm^3
# Si number density = 18.163476 Si / 1000 Ang^3
#
#
#
# Elastic Constant Matrix: (Units=GPa)
#
#
# Indices 1 2 3 4 5 6 
#
# 1 67.7598 37.9959 59.1286 0.0000 0.0000 0.0000
# 2 37.9959 77.5940 59.7176 0.0000 0.0000 0.0000
# 3 59.1286 59.7176 132.1876 0.0000 0.0000 0.0000
# 4 0.0000 0.0000 0.0000 34.3571 0.0000 0.0000
# 5 0.0000 0.0000 0.0000 0.0000 38.2010 0.0000
# 6 0.0000 0.0000 0.0000 0.0000 0.0000 27.7339
#
#
#
# Elastic Compliance Matrix: (Units=1/GPa)
#
#
# Indices 1 2 3 4 5 6 
#
# 1 0.025776 -0.005746 -0.008934 0.000000 0.000000 0.000000
# 2 -0.005746 0.021038 -0.006934 0.000000 0.000000 0.000000
# 3 -0.008934 -0.006934 0.014694 0.000000 0.000000 0.000000
# 4 0.000000 0.000000 0.000000 0.029106 0.000000 0.000000
# 5 0.000000 0.000000 0.000000 0.000000 0.026177 0.000000
# 6 0.000000 0.000000 0.000000 0.000000 0.000000 0.036057
#
#
# Mechanical properties :
#
#
# Convention : Reuss Voigt Hill
#
# Bulk Modulus (GPa) = 54.70564 65.69173 60.19868
# Shear Modulus (GPa) = 24.73182 28.10503 26.41843
#
# Velocity S-wave (km/s) = 3.69402 3.93789 3.81790
# Velocity P-wave (km/s) = 6.95545 7.54463 7.25602
#
# Compressibility (1/GPa) = 0.01827965
#
# Stress axis : x y z
#
# Youngs Moduli (GPa) = 38.79567 47.53374 68.05675
#
# Poissons Ratio (x) = 0.27314 0.60801
# Poissons Ratio (y) = 0.22293 0.47189
# Poissons Ratio (z) = 0.34660 0.32959
#
# Static dielectric constant tensor:
#      x y z
#    x 3.318740 0.000000 0.000000 
#    y 0.000000 3.429910 0.000000 
#    z 0.000000 0.000000 3.321740 
# 
# 
# High freq. dielectric constant tensor:
#      x y z
#    x 1.698870 0.000000 0.000000 
#    y 0.000000 1.702110 0.000000 
#    z 0.000000 0.000000 1.693680 
# 
# From -- ./inp_files/57261.got.cif
#   From: 2010.03.12/outbox.cif.g09.slc.cpg/sg74_29_cif.got.tgz:57261.got - 2010.04.16 15:46:19.
