data_PCOD8298744
_publ_section_title
;
Structure prediction by ZEFSAII (Michael W. Deem and Ramdas Pophale) SiO2 
 PCOD8298744
Probable space group: I M M A
;
_chemical_formula_sum "Si O2"
_cell_formula_units_Z 96
_cell_length_a 19.742868
_cell_length_b 22.718314
_cell_length_c 11.474284
_cell_angle_alpha 90.000000
_cell_angle_beta 90.000000
_cell_angle_gamma 90.000000
_cell_volume 5146.499496
_symmetry_space_group_name_H-M "I M M A"
_symmetry_group_IT_number 74
_symmetry_cell_setting 'orthorhombic'
loop_
_space_group_symop_operation_xyz
x,y,z
-x,1/2-y,z
x,-y,-z
-x,1/2+y,-z
-x,-y,-z
x,1/2+y,-z
-x,y,z
x,1/2-y,z
1/2+x,1/2+y,1/2+z
1/2-x,-y,1/2+z
1/2+x,1/2-y,1/2-z
1/2-x,y,1/2-z
1/2-x,1/2-y,1/2-z
1/2+x,y,1/2-z
1/2-x,1/2+y,1/2+z
1/2+x,-y,1/2+z
loop_
_atom_site_type_symbol
_atom_site_label
_atom_site_fract_x
_atom_site_fract_y
_atom_site_fract_z
Si Si1 0.423406 0.514667 0.370479
Si Si2 0.574790 0.348614 0.680533
Si Si3 0.813920 0.597276 0.499032
Si Si4 0.683499 0.498030 0.184330
Si Si5 0.219389 0.815667 0.123441
Si Si6 0.924046 0.182623 0.551202
O O1 0.396297 0.500000 0.500000
O O2 0.500000 0.490872 0.355388
O O3 0.419285 0.583576 0.349861
O O4 0.376381 0.483161 0.274980
O O5 0.500000 0.324806 0.640367
O O6 0.637427 0.316191 0.618730
O O7 0.582709 0.338419 0.816897
O O8 0.798061 0.561777 0.616318
O O9 0.837750 0.551162 0.400336
O O10 0.747968 0.635358 0.464749
O O11 0.875483 0.641832 0.525741
O O12 0.750000 0.520274 0.250000
O O13 0.242631 0.750000 0.086276
O O14 0.250000 0.830812 0.250000
O O15 0.900360 0.250000 0.541840
O O16 0.000000 0.174800 0.504199
#
# Coordination Sequence:
#
# PCOD8298744 Si02
#       6
#    16  16  16  16  16  16
#     4  10  21  37  59  84 114 153 191 230 278 340
#     4  10  19  32  52  81 113 143 183 231 282 340
#     4  11  22  36  56  83 113 148 183 231 289 339
#     4  11  24  37  56  82 114 150 188 234 283 344
#     4  11  20  32  53  80 113 146 183 231 286 342
#     4  10  19  33  55  84 115 143 178 229 287 341
#
# _framework density 18.653455000000001
#
# number of rings (size 3 to 8) (size 9 to 14) (size 15 to 20)
#    0.000    1.500    3.333    2.500    4.667    1.667 
#    0.000    1.667    0.000    2.000    0.000    0.000 
#    0.000    0.000    0.000    0.000    0.000    0.000 
#
# Total GULP energy -595102.519358 kJ/mol
# GULP energy per Si atom -12397.969153 kJ/mol
# Density = 1.861100 g / cm^3
# Si number density = 18.653455 Si / 1000 Ang^3
#
#
#
# Elastic Constant Matrix: (Units=GPa)
#
#
# Indices 1 2 3 4 5 6 
#
# 1 116.1943 30.2136 29.4970 0.0000 0.0000 0.0000
# 2 30.2136 97.5857 27.5163 0.0000 0.0000 0.0000
# 3 29.4970 27.5163 64.0442 0.0000 0.0000 0.0000
# 4 0.0000 0.0000 0.0000 24.5866 0.0000 0.0000
# 5 0.0000 0.0000 0.0000 0.0000 23.8272 0.0000
# 6 0.0000 0.0000 0.0000 0.0000 0.0000 23.2128
#
#
#
# Elastic Compliance Matrix: (Units=1/GPa)
#
#
# Indices 1 2 3 4 5 6 
#
# 1 0.010099 -0.002065 -0.003764 0.000000 0.000000 0.000000
# 2 -0.002065 0.012082 -0.004240 0.000000 0.000000 0.000000
# 3 -0.003764 -0.004240 0.019169 0.000000 0.000000 0.000000
# 4 0.000000 0.000000 0.000000 0.040672 0.000000 0.000000
# 5 0.000000 0.000000 0.000000 0.000000 0.041969 0.000000
# 6 0.000000 0.000000 0.000000 0.000000 0.000000 0.043080
#
#
# Mechanical properties :
#
#
# Convention : Reuss Voigt Hill
#
# Bulk Modulus (GPa) = 47.14238 50.25312 48.69775
# Shear Modulus (GPa) = 25.73595 27.03180 26.38388
#
# Velocity S-wave (km/s) = 3.71845 3.81091 3.76496
# Velocity P-wave (km/s) = 6.61539 6.80903 6.71291
#
# Compressibility (1/GPa) = 0.02121234
#
# Stress axis : x y z
#
# Youngs Moduli (GPa) = 99.02137 82.76502 52.16645
#
# Poissons Ratio (x) = 0.17094 0.19635
# Poissons Ratio (y) = 0.20452 0.22118
# Poissons Ratio (z) = 0.37270 0.35091
#
# Static dielectric constant tensor:
#      x y z
#    x 3.810700 0.000000 0.000000 
#    y 0.000000 3.499550 0.000000 
#    z 0.000000 0.000000 3.002830 
# 
# 
# High freq. dielectric constant tensor:
#      x y z
#    x 1.741870 0.000000 0.000000 
#    y 0.000000 1.728640 0.000000 
#    z 0.000000 0.000000 1.672900 
# 
# From -- ./inp_files/23915.got.cif
#   From: 2010.03.12/outbox.cif.g09.slc.cpg/sg74_12_cif.got.tgz:23915.got - 2010.04.16 15:46:19.
