data_PCOD8298720
_publ_section_title
;
Structure prediction by ZEFSAII (Michael W. Deem and Ramdas Pophale) SiO2 
 PCOD8298720
Probable space group: I M M A
;
_chemical_formula_sum "Si O2"
_cell_formula_units_Z 120
_cell_length_a 25.875851
_cell_length_b 8.689711
_cell_length_c 29.478364
_cell_angle_alpha 90.000000
_cell_angle_beta 90.000000
_cell_angle_gamma 90.000000
_cell_volume 6628.318245
_symmetry_space_group_name_H-M "I M M A"
_symmetry_group_IT_number 74
_symmetry_cell_setting 'orthorhombic'
loop_
_space_group_symop_operation_xyz
x,y,z
-x,1/2-y,z
x,-y,-z
-x,1/2+y,-z
-x,-y,-z
x,1/2+y,-z
-x,y,z
x,1/2-y,z
1/2+x,1/2+y,1/2+z
1/2-x,-y,1/2+z
1/2+x,1/2-y,1/2-z
1/2-x,y,1/2-z
1/2-x,1/2-y,1/2-z
1/2+x,y,1/2-z
1/2-x,1/2+y,1/2+z
1/2+x,-y,1/2+z
loop_
_atom_site_type_symbol
_atom_site_label
_atom_site_fract_x
_atom_site_fract_y
_atom_site_fract_z
Si Si1 0.258299 0.425657 0.130889
Si Si2 0.705269 0.068228 0.548611
Si Si3 0.898680 0.928398 0.911382
Si Si4 0.000000 0.069773 0.951315
Si Si5 0.056492 0.069953 0.727456
Si Si6 0.163222 0.427082 0.297240
Si Si7 0.204920 0.419620 0.787315
Si Si8 0.906536 0.917905 0.179756
O O1 0.246820 0.250000 0.117168
O O2 0.249017 0.527391 0.085923
O O3 0.316368 0.447293 0.150887
O O4 0.219602 0.470307 0.171210
O O5 0.700157 0.250000 0.544729
O O6 0.721619 0.000000 0.500000
O O7 0.650582 0.000135 0.563982
O O8 0.901319 0.750000 0.923980
O O9 0.897501 0.951020 0.857435
O O10 0.949639 0.014859 0.925903
O O11 0.000000 0.250000 0.955010
O O12 0.000000 0.000000 0.000000
O O13 0.065305 0.250000 0.719170
O O14 0.052332 0.033865 0.781724
O O15 0.000000 0.019156 0.707518
O O16 0.104092 0.983039 0.703359
O O17 0.164238 0.250000 0.281961
O O18 0.207431 0.512000 0.264958
O O19 0.231434 0.250000 0.790995
O O20 0.143997 0.399521 0.790032
O O21 0.920098 0.750000 0.157430
#
# Coordination Sequence:
#
# PCOD8298720 Si02
#       8
#    16  16  16   8  16  16  16  16
#     4  11  22  36  54  79 110 143 180 224 271 324
#     4  12  25  42  62  83 107 140 179 223 278 334
#     4  12  24  39  58  80 104 133 175 224 277 332
#     4  12  26  44  60  74  96 124 166 224 280 332
#     4   9  19  35  54  76 106 144 186 226 267 317
#     4  10  21  34  51  78 112 146 181 223 271 320
#     4  10  19  32  52  76 105 140 179 217 262 316
#     4   9  18  32  50  75 102 136 177 219 267 314
#
# _framework density 18.104140000000001
#
# number of rings (size 3 to 8) (size 9 to 14) (size 15 to 20)
#    0.000    1.467    1.333    5.800    0.933    6.133 
#    0.000    0.000    0.000    0.000    0.000    0.000 
#    0.000    0.533    0.000    1.733    0.000    2.533 
#
# Total GULP energy -743609.876623 kJ/mol
# GULP energy per Si atom -12393.497944 kJ/mol
# Density = 1.806293 g / cm^3
# Si number density = 18.104140 Si / 1000 Ang^3
#
#
#
# Elastic Constant Matrix: (Units=GPa)
#
#
# Indices 1 2 3 4 5 6 
#
# 1 75.4557 27.9454 43.8771 0.0000 0.0000 0.0000
# 2 27.9454 123.0645 38.4413 0.0000 0.0000 0.0000
# 3 43.8771 38.4413 96.8794 0.0000 0.0000 0.0000
# 4 0.0000 0.0000 0.0000 26.0835 0.0000 0.0000
# 5 0.0000 0.0000 0.0000 0.0000 11.5303 0.0000
# 6 0.0000 0.0000 0.0000 0.0000 0.0000 27.0441
#
#
#
# Elastic Compliance Matrix: (Units=1/GPa)
#
#
# Indices 1 2 3 4 5 6 
#
# 1 0.018330 -0.001791 -0.007591 0.000000 0.000000 0.000000
# 2 -0.001791 0.009451 -0.002939 0.000000 0.000000 0.000000
# 3 -0.007591 -0.002939 0.014926 0.000000 0.000000 0.000000
# 4 0.000000 0.000000 0.000000 0.038338 0.000000 0.000000
# 5 0.000000 0.000000 0.000000 0.000000 0.086728 0.000000
# 6 0.000000 0.000000 0.000000 0.000000 0.000000 0.036977
#
#
# Mechanical properties :
#
#
# Convention : Reuss Voigt Hill
#
# Bulk Modulus (GPa) = 55.35554 57.32524 56.34039
# Shear Modulus (GPa) = 21.23918 25.27396 23.25657
#
# Velocity S-wave (km/s) = 3.42887 3.74040 3.58802
# Velocity P-wave (km/s) = 6.80579 7.09839 6.95363
#
# Compressibility (1/GPa) = 0.01806504
#
# Stress axis : x y z
#
# Youngs Moduli (GPa) = 54.55412 105.81429 66.99616
#
# Poissons Ratio (x) = 0.18954 0.50858
# Poissons Ratio (y) = 0.09772 0.19688
# Poissons Ratio (z) = 0.41413 0.31095
#
# Static dielectric constant tensor:
#      x y z
#    x 3.446770 0.000000 0.000000 
#    y 0.000000 3.500050 0.000000 
#    z 0.000000 0.000000 3.287090 
# 
# 
# High freq. dielectric constant tensor:
#      x y z
#    x 1.698380 0.000000 0.000000 
#    y 0.000000 1.713940 0.000000 
#    z 0.000000 0.000000 1.676000 
# 
# From -- ./inp_files/69033.got.cif
#   From: 2010.03.12/outbox.cif.g09.slc.cpg/sg74_35_cif.got.tgz:69033.got - 2010.04.16 15:46:19.
