data_PCOD8298513
_publ_section_title
;
Structure prediction by ZEFSAII (Michael W. Deem and Ramdas Pophale) SiO2 
 PCOD8298513
Probable space group: I M M A
;
_chemical_formula_sum "Si O2"
_cell_formula_units_Z 80
_cell_length_a 20.224111
_cell_length_b 8.965082
_cell_length_c 23.083216
_cell_angle_alpha 90.000000
_cell_angle_beta 90.000000
_cell_angle_gamma 90.000000
_cell_volume 4185.236671
_symmetry_space_group_name_H-M "I M M A"
_symmetry_group_IT_number 74
_symmetry_cell_setting 'orthorhombic'
loop_
_space_group_symop_operation_xyz
x,y,z
-x,1/2-y,z
x,-y,-z
-x,1/2+y,-z
-x,-y,-z
x,1/2+y,-z
-x,y,z
x,1/2-y,z
1/2+x,1/2+y,1/2+z
1/2-x,-y,1/2+z
1/2+x,1/2-y,1/2-z
1/2-x,y,1/2-z
1/2-x,1/2-y,1/2-z
1/2+x,y,1/2-z
1/2-x,1/2+y,1/2+z
1/2+x,-y,1/2+z
loop_
_atom_site_type_symbol
_atom_site_label
_atom_site_fract_x
_atom_site_fract_y
_atom_site_fract_z
Si Si1 0.756725 0.418048 0.942680
Si Si2 0.115104 0.580043 0.133394
Si Si3 0.000000 0.927152 0.437617
Si Si4 0.324992 0.927620 0.248241
Si Si5 0.500000 0.427158 0.436366
Si Si6 0.368193 0.427560 0.875546
O O1 0.740849 0.250000 0.960617
O O2 0.814249 0.426701 0.896415
O O3 0.691107 0.492045 0.915097
O O4 0.780130 0.500000 0.000000
O O5 0.087666 0.750000 0.133670
O O6 0.128864 0.518695 0.198296
O O7 0.064176 0.475029 0.099871
O O8 0.063183 0.984555 0.401909
O O9 0.000000 0.750000 0.444744
O O10 0.000000 0.000000 0.500000
O O11 0.320875 0.750000 0.250773
O O12 0.250000 0.991838 0.250000
O O13 0.360350 0.986730 0.190001
O O14 0.500000 0.250000 0.444483
O O15 0.500000 0.500000 0.500000
O O16 0.364008 0.250000 0.874556
#
# Coordination Sequence:
#
# PCOD8298513 Si02
#       6
#    16  16   8  16   8  16
#     4  10  19  31  50  77 107 140 182 228 273 320
#     4  10  20  35  59  86 111 144 184 228 282 338
#     4  10  20  33  50  74 108 145 181 220 265 318
#     4   9  15  29  55  85 114 141 177 229 278 322
#     4  12  26  43  60  80 114 151 187 234 285 340
#     4   9  17  30  50  78 109 142 180 225 270 313
#
# _framework density 19.114809000000001
#
# number of rings (size 3 to 8) (size 9 to 14) (size 15 to 20)
#    0.000    2.200    2.000    2.100    0.000    3.200 
#    0.000    3.000    0.000    4.200    0.000    0.000 
#    0.000    0.000    0.000    0.000    0.000    0.000 
#
# Total GULP energy -495927.900419 kJ/mol
# GULP energy per Si atom -12398.197510 kJ/mol
# Density = 1.907130 g / cm^3
# Si number density = 19.114809 Si / 1000 Ang^3
#
#
#
# Elastic Constant Matrix: (Units=GPa)
#
#
# Indices 1 2 3 4 5 6 
#
# 1 119.7685 29.3588 54.2589 0.0000 0.0000 0.0000
# 2 29.3588 49.7252 34.4205 0.0000 0.0000 0.0000
# 3 54.2589 34.4205 159.8264 0.0000 0.0000 0.0000
# 4 0.0000 0.0000 0.0000 21.9104 0.0000 0.0000
# 5 0.0000 0.0000 0.0000 0.0000 32.5858 0.0000
# 6 0.0000 0.0000 0.0000 0.0000 0.0000 12.6156
#
#
#
# Elastic Compliance Matrix: (Units=1/GPa)
#
#
# Indices 1 2 3 4 5 6 
#
# 1 0.010642 -0.004445 -0.002656 0.000000 0.000000 0.000000
# 2 -0.004445 0.025490 -0.003981 0.000000 0.000000 0.000000
# 3 -0.002656 -0.003981 0.008016 0.000000 0.000000 0.000000
# 4 0.000000 0.000000 0.000000 0.045641 0.000000 0.000000
# 5 0.000000 0.000000 0.000000 0.000000 0.030688 0.000000
# 6 0.000000 0.000000 0.000000 0.000000 0.000000 0.079267
#
#
# Mechanical properties :
#
#
# Convention : Reuss Voigt Hill
#
# Bulk Modulus (GPa) = 45.48433 62.82184 54.15309
# Shear Modulus (GPa) = 21.81166 27.50780 24.65973
#
# Velocity S-wave (km/s) = 3.38166 3.79764 3.59567
# Velocity P-wave (km/s) = 6.25256 7.22263 6.75503
#
# Compressibility (1/GPa) = 0.02198559
#
# Stress axis : x y z
#
# Youngs Moduli (GPa) = 93.96630 39.23036 124.75701
#
# Poissons Ratio (x) = 0.17438 0.33130
# Poissons Ratio (y) = 0.41769 0.49661
# Poissons Ratio (z) = 0.24953 0.15616
#
# Static dielectric constant tensor:
#      x y z
#    x 3.670280 0.000000 0.000000 
#    y 0.000000 3.030070 0.000000 
#    z 0.000000 0.000000 3.750860 
# 
# 
# High freq. dielectric constant tensor:
#      x y z
#    x 1.751640 0.000000 0.000000 
#    y 0.000000 1.685580 0.000000 
#    z 0.000000 0.000000 1.763140 
# 
# From -- ./inp_files/61351.got.cif
#   From: 2010.03.12/outbox.cif.g09.slc.cpg/sg74_31_cif.got.tgz:61351.got - 2010.04.16 15:46:19.
