data_PCOD8298909
_publ_section_title
;
Structure prediction by ZEFSAII (Michael W. Deem and Ramdas Pophale) SiO2 
 PCOD8298909
Probable space group: I M M A
;
_chemical_formula_sum "Si O2"
_cell_formula_units_Z 104
_cell_length_a 9.038910
_cell_length_b 20.034555
_cell_length_c 32.031504
_cell_angle_alpha 90.000000
_cell_angle_beta 90.000000
_cell_angle_gamma 90.000000
_cell_volume 5800.602341
_symmetry_space_group_name_H-M "I M M A"
_symmetry_group_IT_number 74
_symmetry_cell_setting 'orthorhombic'
loop_
_space_group_symop_operation_xyz
x,y,z
-x,1/2-y,z
x,-y,-z
-x,1/2+y,-z
-x,-y,-z
x,1/2+y,-z
-x,y,z
x,1/2-y,z
1/2+x,1/2+y,1/2+z
1/2-x,-y,1/2+z
1/2+x,1/2-y,1/2-z
1/2-x,y,1/2-z
1/2-x,1/2-y,1/2-z
1/2+x,y,1/2-z
1/2-x,1/2+y,1/2+z
1/2+x,-y,1/2+z
loop_
_atom_site_type_symbol
_atom_site_label
_atom_site_fract_x
_atom_site_fract_y
_atom_site_fract_z
Si Si1 0.674113 0.437902 0.622741
Si Si2 0.172091 0.075298 0.084262
Si Si3 0.668594 0.326585 0.926500
Si Si4 0.170338 0.750000 0.707449
Si Si5 0.173899 0.675118 0.522687
Si Si6 0.331199 0.116017 0.164143
Si Si7 0.671048 0.480448 0.793340
O O1 0.500000 0.438897 0.631578
O O2 0.717496 0.497234 0.590018
O O3 0.721484 0.368846 0.602005
O O4 0.755506 0.443572 0.667221
O O5 0.253473 0.113521 0.046980
O O6 0.214836 0.108986 0.127430
O O7 0.000000 0.082987 0.075500
O O8 0.500000 0.350952 0.919943
O O9 0.684810 0.250000 0.912697
O O10 0.715309 0.335109 0.974511
O O11 0.250000 0.750000 0.750000
O O12 0.218444 0.814344 0.682361
O O13 0.000000 0.750000 0.717650
O O14 0.227336 0.750000 0.536942
O O15 0.000000 0.670756 0.529755
O O16 0.500000 0.116188 0.146949
O O17 0.312898 0.059687 0.199501
O O18 0.500000 0.458660 0.790497
O O19 0.750000 0.460533 0.750000
#
# Coordination Sequence:
#
# PCOD8298909 Si02
#       7
#    16  16  16   8  16  16  16
#     4  10  21  36  54  79 110 141 174 214 261 313
#     4  10  21  34  49  74 106 138 177 222 264 305
#     4   9  19  37  59  82 106 135 173 214 259 314
#     4  10  20  32  46  66  92 126 170 218 266 314
#     4   9  19  35  54  75 103 141 181 220 263 314
#     4   9  19  33  48  68  97 135 175 216 264 313
#     4  10  19  33  54  77 103 136 174 216 261 311
#
# _framework density 17.929172000000001
#
# number of rings (size 3 to 8) (size 9 to 14) (size 15 to 20)
#    0.000    2.462    0.000    2.769    1.077    4.923 
#    0.000    4.615    0.000    0.462    0.000    0.000 
#    0.000    0.000    0.000    0.000    0.000    0.000 
#
# Total GULP energy -644624.915691 kJ/mol
# GULP energy per Si atom -12396.632994 kJ/mol
# Density = 1.788836 g / cm^3
# Si number density = 17.929172 Si / 1000 Ang^3
#
#
#
# Elastic Constant Matrix: (Units=GPa)
#
#
# Indices 1 2 3 4 5 6 
#
# 1 68.8807 41.6582 50.3653 0.0000 0.0000 0.0000
# 2 41.6582 91.7035 56.3722 0.0000 0.0000 0.0000
# 3 50.3653 56.3722 91.7645 0.0000 0.0000 0.0000
# 4 0.0000 0.0000 0.0000 28.3246 0.0000 0.0000
# 5 0.0000 0.0000 0.0000 0.0000 34.7438 0.0000
# 6 0.0000 0.0000 0.0000 0.0000 0.0000 28.0041
#
#
#
# Elastic Compliance Matrix: (Units=1/GPa)
#
#
# Indices 1 2 3 4 5 6 
#
# 1 0.025494 -0.004788 -0.011051 0.000000 0.000000 0.000000
# 2 -0.004788 0.018420 -0.008688 0.000000 0.000000 0.000000
# 3 -0.011051 -0.008688 0.022300 0.000000 0.000000 0.000000
# 4 0.000000 0.000000 0.000000 0.035305 0.000000 0.000000
# 5 0.000000 0.000000 0.000000 0.000000 0.028782 0.000000
# 6 0.000000 0.000000 0.000000 0.000000 0.000000 0.035709
#
#
# Mechanical properties :
#
#
# Convention : Reuss Voigt Hill
#
# Bulk Modulus (GPa) = 58.27388 61.01555 59.64472
# Shear Modulus (GPa) = 22.64640 25.14472 23.89556
#
# Velocity S-wave (km/s) = 3.55787 3.74899 3.65468
# Velocity P-wave (km/s) = 7.03212 7.26947 7.15178
#
# Compressibility (1/GPa) = 0.01716035
#
# Stress axis : x y z
#
# Youngs Moduli (GPa) = 39.22472 54.28756 44.84236
#
# Poissons Ratio (x) = 0.25991 0.49557
# Poissons Ratio (y) = 0.18780 0.38960
# Poissons Ratio (z) = 0.43349 0.47166
#
# Static dielectric constant tensor:
#      x y z
#    x 3.260580 0.000000 0.000000 
#    y 0.000000 3.600010 0.000000 
#    z 0.000000 0.000000 3.160170 
# 
# 
# High freq. dielectric constant tensor:
#      x y z
#    x 1.696250 0.000000 0.000000 
#    y 0.000000 1.687680 0.000000 
#    z 0.000000 0.000000 1.688020 
# 
# From -- ./inp_files/70550.got.cif
#   From: 2010.03.12/outbox.cif.g09.slc.cpg/sg74_36_cif.got.tgz:70550.got - 2010.04.16 15:46:19.
