data_PCOD8298239
_publ_section_title
;
Structure prediction by ZEFSAII (Michael W. Deem and Ramdas Pophale) SiO2 
 PCOD8298239
Probable space group: I M M A
;
_chemical_formula_sum "Si O2"
_cell_formula_units_Z 72
_cell_length_a 12.859072
_cell_length_b 15.036778
_cell_length_c 22.565997
_cell_angle_alpha 90.000000
_cell_angle_beta 90.000000
_cell_angle_gamma 90.000000
_cell_volume 4363.338861
_symmetry_space_group_name_H-M "I M M A"
_symmetry_group_IT_number 74
_symmetry_cell_setting 'orthorhombic'
loop_
_space_group_symop_operation_xyz
x,y,z
-x,1/2-y,z
x,-y,-z
-x,1/2+y,-z
-x,-y,-z
x,1/2+y,-z
-x,y,z
x,1/2-y,z
1/2+x,1/2+y,1/2+z
1/2-x,-y,1/2+z
1/2+x,1/2-y,1/2-z
1/2-x,y,1/2-z
1/2-x,1/2-y,1/2-z
1/2+x,y,1/2-z
1/2-x,1/2+y,1/2+z
1/2+x,-y,1/2+z
loop_
_atom_site_type_symbol
_atom_site_label
_atom_site_fract_x
_atom_site_fract_y
_atom_site_fract_z
Si Si1 0.303530 0.851267 0.583915
Si Si2 0.117147 0.648109 0.664804
Si Si3 0.250000 0.468207 0.250000
Si Si4 0.879695 0.851572 0.043307
Si Si5 0.381896 0.482343 0.645719
O O1 0.341892 0.750000 0.595252
O O2 0.184326 0.864596 0.604769
O O3 0.311548 0.874279 0.514518
O O4 0.376327 0.916384 0.622148
O O5 0.118523 0.750000 0.685474
O O6 0.163588 0.592485 0.718877
O O7 0.000000 0.615785 0.651173
O O8 0.309052 0.530825 0.297046
O O9 0.863809 0.750000 0.063502
O O10 0.000000 0.871116 0.027798
O O11 0.840107 0.914646 0.095867
O O12 0.500000 0.459536 0.662942
#
# Coordination Sequence:
#
# PCOD8298239 Si02
#       5
#    16  16   8  16  16
#     4   9  17  28  45  70  95 116 140 173 216 267
#     4   9  17  29  44  63  90 122 150 176 211 258
#     4  10  19  30  43  62  88 116 152 188 214 250
#     4   9  17  30  48  69  90 111 141 183 226 264
#     4  10  19  30  46  66  89 118 147 179 220 260
#
# _framework density 16.501124999999998
#
# number of rings (size 3 to 8) (size 9 to 14) (size 15 to 20)
#    0.000    2.667    0.000    2.333    0.000    4.000 
#    0.000    0.556    0.000   12.000    0.000    0.000 
#    0.000    0.000    0.000    0.000    0.000    0.000 
#
# Total GULP energy -446385.412939 kJ/mol
# GULP energy per Si atom -12399.594804 kJ/mol
# Density = 1.646357 g / cm^3
# Si number density = 16.501125 Si / 1000 Ang^3
#
#
#
# Elastic Constant Matrix: (Units=GPa)
#
#
# Indices 1 2 3 4 5 6 
#
# 1 82.3135 23.3842 53.1269 0.0000 0.0000 0.0000
# 2 23.3842 48.2793 44.5326 0.0000 0.0000 0.0000
# 3 53.1269 44.5326 126.7448 0.0000 0.0000 0.0000
# 4 0.0000 0.0000 0.0000 27.4259 0.0000 0.0000
# 5 0.0000 0.0000 0.0000 0.0000 28.3156 0.0000
# 6 0.0000 0.0000 0.0000 0.0000 0.0000 15.8812
#
#
#
# Elastic Compliance Matrix: (Units=1/GPa)
#
#
# Indices 1 2 3 4 5 6 
#
# 1 0.016846 -0.002435 -0.006205 0.000000 0.000000 0.000000
# 2 -0.002435 0.030996 -0.009870 0.000000 0.000000 0.000000
# 3 -0.006205 -0.009870 0.013959 0.000000 0.000000 0.000000
# 4 0.000000 0.000000 0.000000 0.036462 0.000000 0.000000
# 5 0.000000 0.000000 0.000000 0.000000 0.035316 0.000000
# 6 0.000000 0.000000 0.000000 0.000000 0.000000 0.062967
#
#
# Mechanical properties :
#
#
# Convention : Reuss Voigt Hill
#
# Bulk Modulus (GPa) = 40.35614 55.49165 47.92390
# Shear Modulus (GPa) = 20.67588 23.41081 22.04335
#
# Velocity S-wave (km/s) = 3.54361 3.77070 3.65892
# Velocity P-wave (km/s) = 6.42282 7.25669 6.85245
#
# Compressibility (1/GPa) = 0.02477938
#
# Stress axis : x y z
#
# Youngs Moduli (GPa) = 59.36250 32.26181 71.63927
#
# Poissons Ratio (x) = 0.07857 0.44455
# Poissons Ratio (y) = 0.14457 0.70708
# Poissons Ratio (z) = 0.36837 0.31842
#
# Static dielectric constant tensor:
#      x y z
#    x 3.078960 0.000000 0.000000 
#    y 0.000000 3.052420 0.000000 
#    z 0.000000 0.000000 3.101230 
# 
# 
# High freq. dielectric constant tensor:
#      x y z
#    x 1.621680 0.000000 0.000000 
#    y 0.000000 1.621890 0.000000 
#    z 0.000000 0.000000 1.631410 
# 
# From -- ./inp_files/42519.got.cif
#   From: 2010.03.12/outbox.cif.g09.slc.cpg/sg74_22_cif.got.tgz:42519.got - 2010.04.16 15:46:19.
