data_PCOD8298701
_publ_section_title
;
Structure prediction by ZEFSAII (Michael W. Deem and Ramdas Pophale) SiO2 
 PCOD8298701
Probable space group: I M M A
;
_chemical_formula_sum "Si O2"
_cell_formula_units_Z 96
_cell_length_a 31.228926
_cell_length_b 9.231769
_cell_length_c 19.118221
_cell_angle_alpha 90.000000
_cell_angle_beta 90.000000
_cell_angle_gamma 90.000000
_cell_volume 5511.749293
_symmetry_space_group_name_H-M "I M M A"
_symmetry_group_IT_number 74
_symmetry_cell_setting 'orthorhombic'
loop_
_space_group_symop_operation_xyz
x,y,z
-x,1/2-y,z
x,-y,-z
-x,1/2+y,-z
-x,-y,-z
x,1/2+y,-z
-x,y,z
x,1/2-y,z
1/2+x,1/2+y,1/2+z
1/2-x,-y,1/2+z
1/2+x,1/2-y,1/2-z
1/2-x,y,1/2-z
1/2-x,1/2-y,1/2-z
1/2+x,y,1/2-z
1/2-x,1/2+y,1/2+z
1/2+x,-y,1/2+z
loop_
_atom_site_type_symbol
_atom_site_label
_atom_site_fract_x
_atom_site_fract_y
_atom_site_fract_z
Si Si1 0.450355 0.590513 0.060043
Si Si2 0.293665 0.084276 0.713444
Si Si3 0.666727 0.078760 0.069725
Si Si4 0.244912 0.919164 0.067638
Si Si5 0.870682 0.581534 0.718631
Si Si6 0.048783 0.416839 0.718189
O O1 0.500000 0.552233 0.060622
O O2 0.440867 0.750000 0.034426
O O3 0.435462 0.566099 0.138508
O O4 0.425989 0.500000 0.000000
O O5 0.303897 0.250000 0.734649
O O6 0.250000 0.033123 0.750000
O O7 0.289073 0.067310 0.630071
O O8 0.331581 0.983125 0.738449
O O9 0.673571 0.250000 0.056211
O O10 0.635062 0.052385 0.135293
O O11 0.711530 0.001689 0.088590
O O12 0.648027 0.000000 0.000000
O O13 0.254808 0.750000 0.051806
O O14 0.224947 0.000000 0.000000
O O15 0.872631 0.750000 0.734358
O O16 0.914381 0.514135 0.753196
O O17 0.051355 0.250000 0.742416
O O18 0.000000 0.473615 0.731106
#
# Coordination Sequence:
#
# PCOD8298701 Si02
#       6
#    16  16  16  16  16  16
#     4   8  14  25  41  60  80 107 147 195 246 293
#     4  10  20  35  54  75 102 137 171 203 245 300
#     4  10  20  32  46  67  96 131 170 210 254 299
#     4  10  19  32  52  75 100 133 169 205 247 291
#     4  11  23  34  49  74 100 129 167 214 261 300
#     4   9  19  35  51  65  87 123 164 206 253 305
#
# _framework density 17.417338000000001
#
# number of rings (size 3 to 8) (size 9 to 14) (size 15 to 20)
#    0.000    2.333    1.667    3.500    0.000    5.333 
#    0.000    5.000    0.000    0.000    0.000    0.000 
#    0.000    0.667    0.000    2.167    0.000    2.667 
#
# Total GULP energy -594663.331314 kJ/mol
# GULP energy per Si atom -12388.819402 kJ/mol
# Density = 1.737770 g / cm^3
# Si number density = 17.417338 Si / 1000 Ang^3
#
#
#
# Elastic Constant Matrix: (Units=GPa)
#
#
# Indices 1 2 3 4 5 6 
#
# 1 116.1797 69.1231 31.9781 0.0000 0.0000 0.0000
# 2 69.1231 108.1310 31.7530 0.0000 0.0000 0.0000
# 3 31.9781 31.7530 51.6666 0.0000 0.0000 0.0000
# 4 0.0000 0.0000 0.0000 24.9185 0.0000 0.0000
# 5 0.0000 0.0000 0.0000 0.0000 -4.5026 0.0000
# 6 0.0000 0.0000 0.0000 0.0000 0.0000 21.2856
#
#
#
# Elastic Compliance Matrix: (Units=1/GPa)
#
#
# Indices 1 2 3 4 5 6 
#
# 1 0.014541 -0.008118 -0.004011 0.000000 0.000000 0.000000
# 2 -0.008118 0.015816 -0.004696 0.000000 0.000000 0.000000
# 3 -0.004011 -0.004696 0.024724 0.000000 0.000000 0.000000
# 4 0.000000 0.000000 0.000000 0.040131 0.000000 0.000000
# 5 0.000000 0.000000 0.000000 0.000000 -0.222095 0.000000
# 6 0.000000 0.000000 0.000000 0.000000 0.000000 0.046980
#
#
# Mechanical properties :
#
#
# Convention : Reuss Voigt Hill
#
# Bulk Modulus (GPa) = 46.66038 60.18730 53.42384
# Shear Modulus (GPa) = -127.84439 17.88184 -54.98127
#
# Velocity S-wave (km/s) = -8.57671 3.20764 -5.62455
# Velocity P-wave (km/s) = 8.43992 6.95339 3.38250
#
# Compressibility (1/GPa) = 0.02143146
#
# Stress axis : x y z
#
# Youngs Moduli (GPa) = 68.77068 63.22616 40.44726
#
# Poissons Ratio (x) = 0.51324 0.16224
# Poissons Ratio (y) = 0.55825 0.18994
# Poissons Ratio (z) = 0.27584 0.29691
#
# Static dielectric constant tensor:
#      x y z
#    x 3.089800 0.000000 0.000000 
#    y 0.000000 3.308990 0.000000 
#    z 0.000000 0.000000 3.111410 
# 
# 
# High freq. dielectric constant tensor:
#      x y z
#    x 1.664190 0.000000 0.000000 
#    y 0.000000 1.682470 0.000000 
#    z 0.000000 0.000000 1.632420 
# 
# From -- ./inp_files/62269.got.cif
#   From: 2010.03.12/outbox.cif.g09.slc.cpg/sg74_32_cif.got.tgz:62269.got - 2010.04.16 15:46:19.
