data_PCOD8298738
_publ_section_title
;
Structure prediction by ZEFSAII (Michael W. Deem and Ramdas Pophale) SiO2 
 PCOD8298738
Probable space group: I M M A
;
_chemical_formula_sum "Si O2"
_cell_formula_units_Z 72
_cell_length_a 12.299944
_cell_length_b 8.664264
_cell_length_c 31.943734
_cell_angle_alpha 90.000000
_cell_angle_beta 90.000000
_cell_angle_gamma 90.000000
_cell_volume 3404.242519
_symmetry_space_group_name_H-M "I M M A"
_symmetry_group_IT_number 74
_symmetry_cell_setting 'orthorhombic'
loop_
_space_group_symop_operation_xyz
x,y,z
-x,1/2-y,z
x,-y,-z
-x,1/2+y,-z
-x,-y,-z
x,1/2+y,-z
-x,y,z
x,1/2-y,z
1/2+x,1/2+y,1/2+z
1/2-x,-y,1/2+z
1/2+x,1/2-y,1/2-z
1/2-x,y,1/2-z
1/2-x,1/2-y,1/2-z
1/2+x,y,1/2-z
1/2-x,1/2+y,1/2+z
1/2+x,-y,1/2+z
loop_
_atom_site_type_symbol
_atom_site_label
_atom_site_fract_x
_atom_site_fract_y
_atom_site_fract_z
Si Si1 0.629617 0.425387 0.724311
Si Si2 0.124201 0.578550 0.691692
Si Si3 0.000000 0.432444 0.454070
Si Si4 0.676112 0.568757 0.105347
Si Si5 0.122039 0.931035 0.862021
O O1 0.500000 0.437360 0.725432
O O2 0.667175 0.250000 0.717277
O O3 0.678799 0.487233 0.768874
O O4 0.670816 0.527717 0.684336
O O5 0.176174 0.750000 0.685028
O O6 0.127165 0.478530 0.649809
O O7 0.000000 0.601012 0.704610
O O8 0.000000 0.500000 0.500000
O O9 0.108870 0.487698 0.431110
O O10 0.000000 0.250000 0.455666
O O11 0.668210 0.750000 0.098778
O O12 0.801866 0.512196 0.103318
O O13 0.122987 0.750000 0.869000
O O14 0.000000 0.997289 0.866768
#
# Coordination Sequence:
#
# PCOD8298738 Si02
#       5
#    16  16   8  16  16
#     4   9  17  30  49  76 114 159 208 262 313 361
#     4  10  19  32  52  79 116 160 207 259 312 368
#     4  12  26  48  74 102 132 160 196 246 310 380
#     4  12  24  39  63  93 124 160 203 252 310 371
#     4  10  21  38  59  85 121 166 215 260 306 362
#
# _framework density 21.150079000000002
#
# number of rings (size 3 to 8) (size 9 to 14) (size 15 to 20)
#    0.000    1.556    1.111    5.000    0.000    5.778 
#    0.000    4.444    0.000    0.667    0.000    0.000 
#    0.000    0.000    0.000    0.000    0.000    0.000 
#
# Total GULP energy -446557.804892 kJ/mol
# GULP energy per Si atom -12404.383469 kJ/mol
# Density = 2.110194 g / cm^3
# Si number density = 21.150079 Si / 1000 Ang^3
#
#
#
# Elastic Constant Matrix: (Units=GPa)
#
#
# Indices 1 2 3 4 5 6 
#
# 1 103.5833 43.8996 68.6759 0.0000 0.0000 0.0000
# 2 43.8996 171.2407 61.7333 0.0000 0.0000 0.0000
# 3 68.6759 61.7333 131.8209 0.0000 0.0000 0.0000
# 4 0.0000 0.0000 0.0000 33.5878 0.0000 0.0000
# 5 0.0000 0.0000 0.0000 0.0000 22.3183 0.0000
# 6 0.0000 0.0000 0.0000 0.0000 0.0000 32.5901
#
#
#
# Elastic Compliance Matrix: (Units=1/GPa)
#
#
# Indices 1 2 3 4 5 6 
#
# 1 0.014962 -0.001234 -0.007217 0.000000 0.000000 0.000000
# 2 -0.001234 0.007128 -0.002695 0.000000 0.000000 0.000000
# 3 -0.007217 -0.002695 0.012608 0.000000 0.000000 0.000000
# 4 0.000000 0.000000 0.000000 0.029773 0.000000 0.000000
# 5 0.000000 0.000000 0.000000 0.000000 0.044806 0.000000
# 6 0.000000 0.000000 0.000000 0.000000 0.000000 0.030684
#
#
# Mechanical properties :
#
#
# Convention : Reuss Voigt Hill
#
# Bulk Modulus (GPa) = 80.60853 83.91806 82.26329
# Shear Modulus (GPa) = 30.05023 33.18831 31.61927
#
# Velocity S-wave (km/s) = 3.77345 3.96559 3.87071
# Velocity P-wave (km/s) = 7.56179 7.79303 7.67828
#
# Compressibility (1/GPa) = 0.01240564
#
# Stress axis : x y z
#
# Youngs Moduli (GPa) = 66.83654 140.29825 79.31400
#
# Poissons Ratio (x) = 0.17311 0.57241
# Poissons Ratio (y) = 0.08247 0.21376
# Poissons Ratio (z) = 0.48236 0.37812
#
# Static dielectric constant tensor:
#      x y z
#    x 4.587860 0.000000 0.000000 
#    y 0.000000 3.917940 0.000000 
#    z 0.000000 0.000000 3.469880 
# 
# 
# High freq. dielectric constant tensor:
#      x y z
#    x 1.878400 0.000000 0.000000 
#    y 0.000000 1.843150 0.000000 
#    z 0.000000 0.000000 1.778630 
# 
# From -- ./inp_files/72276.got.cif
#   From: 2010.03.12/outbox.cif.g09.slc.cpg/sg74_37_cif.got.tgz:72276.got - 2010.04.16 15:46:19.
