data_PCOD8298691
_publ_section_title
;
Structure prediction by ZEFSAII (Michael W. Deem and Ramdas Pophale) SiO2 
 PCOD8298691
Probable space group: I M M A
;
_chemical_formula_sum "Si O2"
_cell_formula_units_Z 80
_cell_length_a 19.111809
_cell_length_b 12.539992
_cell_length_c 19.352983
_cell_angle_alpha 90.000000
_cell_angle_beta 90.000000
_cell_angle_gamma 90.000000
_cell_volume 4638.173295
_symmetry_space_group_name_H-M "I M M A"
_symmetry_group_IT_number 74
_symmetry_cell_setting 'orthorhombic'
loop_
_space_group_symop_operation_xyz
x,y,z
-x,1/2-y,z
x,-y,-z
-x,1/2+y,-z
-x,-y,-z
x,1/2+y,-z
-x,y,z
x,1/2-y,z
1/2+x,1/2+y,1/2+z
1/2-x,-y,1/2+z
1/2+x,1/2-y,1/2-z
1/2-x,y,1/2-z
1/2-x,1/2-y,1/2-z
1/2+x,y,1/2-z
1/2-x,1/2+y,1/2+z
1/2+x,-y,1/2+z
loop_
_atom_site_type_symbol
_atom_site_label
_atom_site_fract_x
_atom_site_fract_y
_atom_site_fract_z
Si Si1 0.220263 0.871864 0.175051
Si Si2 0.264706 0.750000 0.634595
Si Si3 0.578729 0.058251 0.166454
Si Si4 0.577238 0.371178 0.732477
Si Si5 0.710057 0.459315 0.077295
Si Si6 0.139219 0.750000 0.742112
O O1 0.236879 0.750000 0.155525
O O2 0.250000 0.901408 0.250000
O O3 0.136615 0.894799 0.175250
O O4 0.256762 0.945774 0.120260
O O5 0.258357 0.854241 0.585942
O O6 0.205618 0.750000 0.692441
O O7 0.338045 0.750000 0.677039
O O8 0.500000 0.075299 0.138258
O O9 0.631577 0.068696 0.102296
O O10 0.593979 0.144812 0.226329
O O11 0.587708 0.942104 0.199662
O O12 0.500000 0.390610 0.699628
O O13 0.585905 0.250000 0.758862
O O14 0.706844 0.500000 0.000000
#
# Coordination Sequence:
#
# PCOD8298691 Si02
#       6
#    16   8  16  16  16   8
#     4  10  19  33  56  80 103 137 182 230 267 311
#     4   9  20  34  52  76  99 136 181 233 277 317
#     4  10  19  32  51  77 108 142 179 216 264 321
#     4   9  17  30  51  81 106 129 167 221 273 311
#     4  11  23  35  52  75 113 148 184 220 269 330
#     4   9  17  32  56  76  99 131 179 233 274 313
#
# _framework density 17.248169000000001
#
# number of rings (size 3 to 8) (size 9 to 14) (size 15 to 20)
#    0.000    2.200    2.000    1.500    4.200    0.400 
#    0.000    0.000    0.000    0.600    0.000    0.000 
#    0.000    0.000    0.000    0.000    0.000    0.000 
#
# Total GULP energy -495900.288933 kJ/mol
# GULP energy per Si atom -12397.507223 kJ/mol
# Density = 1.720891 g / cm^3
# Si number density = 17.248169 Si / 1000 Ang^3
#
#
#
# Elastic Constant Matrix: (Units=GPa)
#
#
# Indices 1 2 3 4 5 6 
#
# 1 99.7293 48.7762 53.3999 0.0000 0.0000 0.0000
# 2 48.7762 101.6510 60.8325 0.0000 0.0000 0.0000
# 3 53.3999 60.8325 97.8227 0.0000 0.0000 0.0000
# 4 0.0000 0.0000 0.0000 26.1234 0.0000 0.0000
# 5 0.0000 0.0000 0.0000 0.0000 17.5535 0.0000
# 6 0.0000 0.0000 0.0000 0.0000 0.0000 23.9208
#
#
#
# Elastic Compliance Matrix: (Units=1/GPa)
#
#
# Indices 1 2 3 4 5 6 
#
# 1 0.014974 -0.003653 -0.005903 0.000000 0.000000 0.000000
# 2 -0.003653 0.016560 -0.008304 0.000000 0.000000 0.000000
# 3 -0.005903 -0.008304 0.018609 0.000000 0.000000 0.000000
# 4 0.000000 0.000000 0.000000 0.038280 0.000000 0.000000
# 5 0.000000 0.000000 0.000000 0.000000 0.056969 0.000000
# 6 0.000000 0.000000 0.000000 0.000000 0.000000 0.041805
#
#
# Mechanical properties :
#
#
# Convention : Reuss Voigt Hill
#
# Bulk Modulus (GPa) = 69.32941 69.46892 69.39917
# Shear Modulus (GPa) = 21.95652 22.59916 22.27784
#
# Velocity S-wave (km/s) = 3.57175 3.62364 3.59779
# Velocity P-wave (km/s) = 7.56917 7.60732 7.58827
#
# Compressibility (1/GPa) = 0.01442389
#
# Stress axis : x y z
#
# Youngs Moduli (GPa) = 66.78137 60.38723 53.73848
#
# Poissons Ratio (x) = 0.22058 0.31720
# Poissons Ratio (y) = 0.24394 0.44624
# Poissons Ratio (z) = 0.39419 0.50145
#
# Static dielectric constant tensor:
#      x y z
#    x 3.559760 0.000000 0.000000 
#    y 0.000000 3.451410 0.000000 
#    z 0.000000 0.000000 2.928560 
# 
# 
# High freq. dielectric constant tensor:
#      x y z
#    x 1.674090 0.000000 0.000000 
#    y 0.000000 1.687770 0.000000 
#    z 0.000000 0.000000 1.610930 
# 
# From -- ./inp_files/41212.got.cif
#   From: 2010.03.12/outbox.cif.g09.slc.cpg/sg74_21_cif.got.tgz:41212.got - 2010.04.16 15:46:19.
