data_PCOD8298947
_publ_section_title
;
Structure prediction by ZEFSAII (Michael W. Deem and Ramdas Pophale) SiO2 
 PCOD8298947
Probable space group: I M M A
;
_chemical_formula_sum "Si O2"
_cell_formula_units_Z 96
_cell_length_a 26.718952
_cell_length_b 25.383138
_cell_length_c 8.117756
_cell_angle_alpha 90.000000
_cell_angle_beta 90.000000
_cell_angle_gamma 90.000000
_cell_volume 5505.550163
_symmetry_space_group_name_H-M "I M M A"
_symmetry_group_IT_number 74
_symmetry_cell_setting 'orthorhombic'
loop_
_space_group_symop_operation_xyz
x,y,z
-x,1/2-y,z
x,-y,-z
-x,1/2+y,-z
-x,-y,-z
x,1/2+y,-z
-x,y,z
x,1/2-y,z
1/2+x,1/2+y,1/2+z
1/2-x,-y,1/2+z
1/2+x,1/2-y,1/2-z
1/2-x,y,1/2-z
1/2-x,1/2-y,1/2-z
1/2+x,y,1/2-z
1/2-x,1/2+y,1/2+z
1/2+x,-y,1/2+z
loop_
_atom_site_type_symbol
_atom_site_label
_atom_site_fract_x
_atom_site_fract_y
_atom_site_fract_z
Si Si1 0.691226 0.850421 0.087393
Si Si2 0.624986 0.945253 0.092920
Si Si3 0.446037 0.999169 0.689101
Si Si4 0.057752 0.889960 0.654810
Si Si5 0.699931 0.688798 0.434651
Si Si6 0.862300 0.188685 0.258113
O O1 0.676187 0.912200 0.109584
O O2 0.673395 0.820647 0.256109
O O3 0.750681 0.847243 0.064181
O O4 0.668125 0.825012 0.923276
O O5 0.598797 0.961435 0.263795
O O6 0.584640 0.905450 0.014614
O O7 0.635692 0.000000 0.000000
O O8 0.500000 0.014218 0.774226
O O9 0.453708 0.000000 0.500000
O O10 0.433017 0.939308 0.728495
O O11 0.084348 0.840186 0.739915
O O12 0.000000 0.875689 0.624238
O O13 0.715116 0.750000 0.450566
O O14 0.666549 0.671434 0.590792
O O15 0.873524 0.250000 0.252723
#
# Coordination Sequence:
#
# PCOD8298947 Si02
#       6
#    16  16  16  16  16  16
#     4  10  19  33  55  73 103 132 169 216 258 305
#     4   9  18  32  51  72 103 134 171 210 256 305
#     4   9  17  29  49  74  99 130 169 209 249 297
#     4   9  18  32  50  74 102 135 171 207 254 305
#     4  10  20  34  55  78  99 130 176 218 258 305
#     4  10  20  33  53  78 103 134 170 213 259 305
#
# _framework density 17.43695
#
# number of rings (size 3 to 8) (size 9 to 14) (size 15 to 20)
#    0.000    2.500    0.000    3.000    2.333    3.667 
#    0.000    0.000   22.000    0.000    0.000    2.333 
#    0.000    0.000    0.000    0.000    0.000    0.000 
#
# Total GULP energy -594714.712551 kJ/mol
# GULP energy per Si atom -12389.889845 kJ/mol
# Density = 1.739726 g / cm^3
# Si number density = 17.436950 Si / 1000 Ang^3
#
#
#
# Elastic Constant Matrix: (Units=GPa)
#
#
# Indices 1 2 3 4 5 6 
#
# 1 96.6877 60.3354 38.3680 0.0000 0.0000 0.0000
# 2 60.3354 95.6796 30.9080 0.0000 0.0000 0.0000
# 3 38.3680 30.9080 105.7321 0.0000 0.0000 0.0000
# 4 0.0000 0.0000 0.0000 11.6717 0.0000 0.0000
# 5 0.0000 0.0000 0.0000 0.0000 22.5476 0.0000
# 6 0.0000 0.0000 0.0000 0.0000 0.0000 34.0460
#
#
#
# Elastic Compliance Matrix: (Units=1/GPa)
#
#
# Indices 1 2 3 4 5 6 
#
# 1 0.018209 -0.010323 -0.003590 0.000000 0.000000 0.000000
# 2 -0.010323 0.017393 -0.001339 0.000000 0.000000 0.000000
# 3 -0.003590 -0.001339 0.011152 0.000000 0.000000 0.000000
# 4 0.000000 0.000000 0.000000 0.085677 0.000000 0.000000
# 5 0.000000 0.000000 0.000000 0.000000 0.044351 0.000000
# 6 0.000000 0.000000 0.000000 0.000000 0.000000 0.029372
#
#
# Mechanical properties :
#
#
# Convention : Reuss Voigt Hill
#
# Bulk Modulus (GPa) = 61.53296 61.92469 61.72883
# Shear Modulus (GPa) = 20.65484 24.88560 22.77022
#
# Velocity S-wave (km/s) = 3.44545 3.78190 3.61759
# Velocity P-wave (km/s) = 7.15497 7.39330 7.27511
#
# Compressibility (1/GPa) = 0.01625145
#
# Stress axis : x y z
#
# Youngs Moduli (GPa) = 54.91848 57.49285 89.67065
#
# Poissons Ratio (x) = 0.59348 0.32192
# Poissons Ratio (y) = 0.56691 0.12003
# Poissons Ratio (z) = 0.19716 0.07696
#
# Static dielectric constant tensor:
#      x y z
#    x 3.335480 0.000000 0.000000 
#    y 0.000000 3.093220 0.000000 
#    z 0.000000 0.000000 3.278590 
# 
# 
# High freq. dielectric constant tensor:
#      x y z
#    x 1.662010 0.000000 0.000000 
#    y 0.000000 1.667960 0.000000 
#    z 0.000000 0.000000 1.680670 
# 
# From -- ./inp_files/13898.got.cif
#   From: 2010.03.12/outbox.cif.g09.slc.cpg/sg74_7_cif.got.tgz:13898.got - 2010.04.16 15:46:19.
