data_PCOD8298666
_publ_section_title
;
Structure prediction by ZEFSAII (Michael W. Deem and Ramdas Pophale) SiO2 
 PCOD8298666
Probable space group: I M M A
;
_chemical_formula_sum "Si O2"
_cell_formula_units_Z 96
_cell_length_a 9.318148
_cell_length_b 22.645690
_cell_length_c 24.466890
_cell_angle_alpha 90.000000
_cell_angle_beta 90.000000
_cell_angle_gamma 90.000000
_cell_volume 5162.902593
_symmetry_space_group_name_H-M "I M M A"
_symmetry_group_IT_number 74
_symmetry_cell_setting 'orthorhombic'
loop_
_space_group_symop_operation_xyz
x,y,z
-x,1/2-y,z
x,-y,-z
-x,1/2+y,-z
-x,-y,-z
x,1/2+y,-z
-x,y,z
x,1/2-y,z
1/2+x,1/2+y,1/2+z
1/2-x,-y,1/2+z
1/2+x,1/2-y,1/2-z
1/2-x,y,1/2-z
1/2-x,1/2-y,1/2-z
1/2+x,y,1/2-z
1/2-x,1/2+y,1/2+z
1/2+x,-y,1/2+z
loop_
_atom_site_type_symbol
_atom_site_label
_atom_site_fract_x
_atom_site_fract_y
_atom_site_fract_z
Si Si1 0.664666 0.129115 0.116872
Si Si2 0.344483 0.682346 0.702792
Si Si3 0.836569 0.182206 0.496373
Si Si4 0.334943 0.974609 0.803955
Si Si5 0.164993 0.319182 0.896410
Si Si6 0.169456 0.109803 0.694602
O O1 0.500000 0.144978 0.129364
O O2 0.764161 0.177690 0.145324
O O3 0.694369 0.135343 0.052312
O O4 0.705035 0.065168 0.142778
O O5 0.500000 0.650947 0.700401
O O6 0.366733 0.750000 0.717933
O O7 0.250000 0.650788 0.750000
O O8 0.813282 0.250000 0.476559
O O9 0.726046 0.165594 0.543840
O O10 0.000000 0.174406 0.517477
O O11 0.500000 0.967550 0.788560
O O12 0.250000 0.954639 0.750000
O O13 0.298836 0.041747 0.820011
O O14 0.176560 0.250000 0.884594
O O15 0.264364 0.351542 0.853163
O O16 0.000000 0.340729 0.892915
O O17 0.250000 0.127993 0.750000
O O18 0.000000 0.122676 0.700585
#
# Coordination Sequence:
#
# PCOD8298666 Si02
#       6
#    16  16  16  16  16  16
#     4  10  19  32  51  74 100 133 176 219 259 306
#     4  10  20  31  43  63  93 128 168 217 270 317
#     4   9  18  33  53  76 103 138 177 216 260 308
#     4   9  19  34  52  76 105 138 175 216 261 307
#     4  10  21  37  57  81 108 136 168 209 256 307
#     4  10  20  36  58  82 109 139 170 206 252 308
#
# _framework density 18.594190999999999
#
# number of rings (size 3 to 8) (size 9 to 14) (size 15 to 20)
#    0.000    2.333    0.000    2.500    0.000    6.333 
#    0.000    2.500    0.000    5.000    0.000    0.000 
#    0.000    0.000    0.000    0.000    0.000    0.000 
#
# Total GULP energy -595049.187752 kJ/mol
# GULP energy per Si atom -12396.858078 kJ/mol
# Density = 1.855187 g / cm^3
# Si number density = 18.594191 Si / 1000 Ang^3
#
#
#
# Elastic Constant Matrix: (Units=GPa)
#
#
# Indices 1 2 3 4 5 6 
#
# 1 125.8583 43.6865 72.4612 0.0000 0.0000 0.0000
# 2 43.6865 63.5766 56.1637 0.0000 0.0000 0.0000
# 3 72.4612 56.1637 124.7573 0.0000 0.0000 0.0000
# 4 0.0000 0.0000 0.0000 33.0750 0.0000 0.0000
# 5 0.0000 0.0000 0.0000 0.0000 35.9939 0.0000
# 6 0.0000 0.0000 0.0000 0.0000 0.0000 18.1985
#
#
#
# Elastic Compliance Matrix: (Units=1/GPa)
#
#
# Indices 1 2 3 4 5 6 
#
# 1 0.012411 -0.003586 -0.005594 0.000000 0.000000 0.000000
# 2 -0.003586 0.027151 -0.010140 0.000000 0.000000 0.000000
# 3 -0.005594 -0.010140 0.015829 0.000000 0.000000 0.000000
# 4 0.000000 0.000000 0.000000 0.030234 0.000000 0.000000
# 5 0.000000 0.000000 0.000000 0.000000 0.027782 0.000000
# 6 0.000000 0.000000 0.000000 0.000000 0.000000 0.054950
#
#
# Mechanical properties :
#
#
# Convention : Reuss Voigt Hill
#
# Bulk Modulus (GPa) = 59.69832 73.20167 66.45000
# Shear Modulus (GPa) = 23.52033 26.91221 25.21627
#
# Velocity S-wave (km/s) = 3.56044 3.80853 3.68657
# Velocity P-wave (km/s) = 7.00556 7.66768 7.34409
#
# Compressibility (1/GPa) = 0.01675089
#
# Stress axis : x y z
#
# Youngs Moduli (GPa) = 80.57384 36.83096 63.17354
#
# Poissons Ratio (x) = 0.13209 0.35339
# Poissons Ratio (y) = 0.28898 0.64057
# Poissons Ratio (z) = 0.45072 0.37346
#
# Static dielectric constant tensor:
#      x y z
#    x 3.690680 0.000000 0.000000 
#    y 0.000000 3.350370 0.000000 
#    z 0.000000 0.000000 3.334570 
# 
# 
# High freq. dielectric constant tensor:
#      x y z
#    x 1.734090 0.000000 0.000000 
#    y 0.000000 1.706920 0.000000 
#    z 0.000000 0.000000 1.711470 
# 
# From -- ./inp_files/55059.got.cif
#   From: 2010.03.12/outbox.cif.g09.slc.cpg/sg74_28_cif.got.tgz:55059.got - 2010.04.16 15:46:19.
