data_PCOD8298461
_publ_section_title
;
Structure prediction by ZEFSAII (Michael W. Deem and Ramdas Pophale) SiO2 
 PCOD8298461
Probable space group: I M M A
;
_chemical_formula_sum "Si O2"
_cell_formula_units_Z 104
_cell_length_a 9.358472
_cell_length_b 25.835603
_cell_length_c 21.162304
_cell_angle_alpha 90.000000
_cell_angle_beta 90.000000
_cell_angle_gamma 90.000000
_cell_volume 5116.659261
_symmetry_space_group_name_H-M "I M M A"
_symmetry_group_IT_number 74
_symmetry_cell_setting 'orthorhombic'
loop_
_space_group_symop_operation_xyz
x,y,z
-x,1/2-y,z
x,-y,-z
-x,1/2+y,-z
-x,-y,-z
x,1/2+y,-z
-x,y,z
x,1/2-y,z
1/2+x,1/2+y,1/2+z
1/2-x,-y,1/2+z
1/2+x,1/2-y,1/2-z
1/2-x,y,1/2-z
1/2-x,1/2-y,1/2-z
1/2+x,y,1/2-z
1/2-x,1/2+y,1/2+z
1/2+x,-y,1/2+z
loop_
_atom_site_type_symbol
_atom_site_label
_atom_site_fract_x
_atom_site_fract_y
_atom_site_fract_z
Si Si1 0.833432 0.606385 0.500317
Si Si2 0.160535 0.629172 0.190606
Si Si3 0.662170 0.308191 0.897403
Si Si4 0.837224 0.458491 0.188290
Si Si5 0.339400 0.539422 0.411342
Si Si6 0.337251 0.856655 0.619776
Si Si7 0.167961 0.750000 0.815626
O O1 0.803043 0.655144 0.455910
O O2 0.759358 0.554753 0.471153
O O3 0.767278 0.622271 0.566622
O O4 0.000000 0.594333 0.508914
O O5 0.250000 0.609029 0.250000
O O6 0.234987 0.680076 0.161584
O O7 0.163501 0.584695 0.139303
O O8 0.000000 0.643298 0.211177
O O9 0.500000 0.316376 0.874276
O O10 0.689932 0.250000 0.920730
O O11 0.750000 0.474961 0.250000
O O12 0.781250 0.488148 0.124928
O O13 0.826514 0.396931 0.177884
O O14 0.000000 0.476372 0.200214
O O15 0.500000 0.530516 0.437139
O O16 0.500000 0.854302 0.593924
O O17 0.287452 0.800510 0.644194
O O18 0.250000 0.750000 0.750000
O O19 0.000000 0.750000 0.800749
#
# Coordination Sequence:
#
# PCOD8298461 Si02
#       7
#    16  16  16  16  16  16   8
#     4  10  21  36  57  84 111 144 187 233 281 331
#     4  10  19  31  49  73 101 135 177 221 271 328
#     4   9  19  35  52  71  99 134 175 226 276 325
#     4  10  21  37  59  85 114 150 190 233 282 337
#     4   9  19  36  56  79 110 148 185 226 278 334
#     4  10  22  39  58  84 117 152 189 231 286 345
#     4  10  22  40  62  88 118 154 193 238 289 342
#
# _framework density 20.325762000000001
#
# number of rings (size 3 to 8) (size 9 to 14) (size 15 to 20)
#    0.000    2.308    0.000    1.846    1.077    4.308 
#    0.000    3.077    0.000    0.000    0.000    0.000 
#    0.000    0.000    0.000    0.000    0.000    0.000 
#
# Total GULP energy -644827.614117 kJ/mol
# GULP energy per Si atom -12400.531041 kJ/mol
# Density = 2.027950 g / cm^3
# Si number density = 20.325762 Si / 1000 Ang^3
#
#
#
# Elastic Constant Matrix: (Units=GPa)
#
#
# Indices 1 2 3 4 5 6 
#
# 1 107.2980 32.2864 59.3183 0.0000 0.0000 0.0000
# 2 32.2864 107.6069 30.7791 0.0000 0.0000 0.0000
# 3 59.3183 30.7791 98.6271 -0.0002 0.0000 0.0000
# 4 0.0000 0.0000 -0.0002 20.1891 0.0000 0.0000
# 5 0.0000 0.0000 0.0000 0.0000 40.2859 0.0000
# 6 0.0000 0.0000 0.0000 0.0000 0.0000 21.7622
#
#
#
# Elastic Compliance Matrix: (Units=1/GPa)
#
#
# Indices 1 2 3 4 5 6 
#
# 1 0.014350 -0.002017 -0.008001 0.000000 0.000000 0.000000
# 2 -0.002017 0.010487 -0.002060 0.000000 0.000000 0.000000
# 3 -0.008001 -0.002060 0.015594 0.000000 0.000000 0.000000
# 4 0.000000 0.000000 0.000000 0.049532 0.000000 0.000000
# 5 0.000000 0.000000 0.000000 0.000000 0.024823 0.000000
# 6 0.000000 0.000000 0.000000 0.000000 0.000000 0.045951
#
#
# Mechanical properties :
#
#
# Convention : Reuss Voigt Hill
#
# Bulk Modulus (GPa) = 61.44105 62.03329 61.73717
# Shear Modulus (GPa) = 26.27169 29.19066 27.73118
#
# Velocity S-wave (km/s) = 3.59908 3.79376 3.69770
# Velocity P-wave (km/s) = 6.89674 7.05520 6.97642
#
# Compressibility (1/GPa) = 0.01627576
#
# Stress axis : x y z
#
# Youngs Moduli (GPa) = 69.68557 95.35233 64.12599
#
# Poissons Ratio (x) = 0.19233 0.51309
# Poissons Ratio (y) = 0.14056 0.13208
# Poissons Ratio (z) = 0.55758 0.19640
#
# Static dielectric constant tensor:
#      x y z
#    x 3.792810 0.000000 0.000000 
#    y 0.000000 3.869950 0.000000 
#    z 0.000000 0.000000 3.484610 
# 
# 
# High freq. dielectric constant tensor:
#      x y z
#    x 1.790110 0.000000 0.000000 
#    y 0.000000 1.801360 0.000000 
#    z 0.000000 0.000000 1.787060 
# 
# From -- ./inp_files/49296.got.cif
#   From: 2010.03.12/outbox.cif.g09.slc.cpg/sg74_25_cif.got.tgz:49296.got - 2010.04.16 15:46:19.
