data_PCOD8298019
_publ_section_title
;
Structure prediction by ZEFSAII (Michael W. Deem and Ramdas Pophale) SiO2 
 PCOD8298019
Probable space group: I M M A
;
_chemical_formula_sum "Si O2"
_cell_formula_units_Z 80
_cell_length_a 7.844826
_cell_length_b 27.977371
_cell_length_c 20.552229
_cell_angle_alpha 90.000000
_cell_angle_beta 90.000000
_cell_angle_gamma 90.000000
_cell_volume 4510.754048
_symmetry_space_group_name_H-M "I M M A"
_symmetry_group_IT_number 74
_symmetry_cell_setting 'orthorhombic'
loop_
_space_group_symop_operation_xyz
x,y,z
-x,1/2-y,z
x,-y,-z
-x,1/2+y,-z
-x,-y,-z
x,1/2+y,-z
-x,y,z
x,1/2-y,z
1/2+x,1/2+y,1/2+z
1/2-x,-y,1/2+z
1/2+x,1/2-y,1/2-z
1/2-x,y,1/2-z
1/2-x,1/2-y,1/2-z
1/2+x,y,1/2-z
1/2-x,1/2+y,1/2+z
1/2+x,-y,1/2+z
loop_
_atom_site_type_symbol
_atom_site_label
_atom_site_fract_x
_atom_site_fract_y
_atom_site_fract_z
Si Si1 0.197807 0.975055 0.564749
Si Si2 0.000000 0.696523 0.972315
Si Si3 0.311291 0.132903 0.874916
Si Si4 0.693358 0.130943 0.026423
Si Si5 0.000000 0.303406 0.872931
Si Si6 0.192907 0.962905 0.180201
O O1 0.229204 0.918455 0.563291
O O2 0.000000 0.988236 0.570014
O O3 0.274221 0.000000 0.500000
O O4 0.290714 0.994663 0.628359
O O5 0.828815 0.669841 0.947619
O O6 0.000000 0.750000 0.942963
O O7 0.000000 0.698884 0.049675
O O8 0.500000 0.155362 0.864795
O O9 0.170105 0.169734 0.847950
O O10 0.306427 0.082950 0.837185
O O11 0.277952 0.121271 0.950290
O O12 0.500000 0.149126 0.039794
O O13 0.000000 0.250000 0.843600
O O14 0.250000 0.983359 0.250000
O O15 0.000000 0.945066 0.182039
#
# Coordination Sequence:
#
# PCOD8298019 Si02
#       6
#    16   8  16  16   8  16
#     4  10  19  33  53  78 108 140 178 220 261 319
#     4   9  18  30  46  72 108 138 174 222 263 313
#     4  10  18  33  52  74 101 136 180 217 263 319
#     4   9  18  30  50  76 105 139 174 216 264 311
#     4   9  18  32  49  75 101 131 177 228 276 313
#     4  12  24  36  52  77 107 144 180 220 266 321
#
# _framework density 17.735393999999999
#
# number of rings (size 3 to 8) (size 9 to 14) (size 15 to 20)
#    0.000    2.000    3.000    1.800    1.400    1.200 
#    0.000    4.000    0.000    0.600    0.000    0.000 
#    0.000    0.800    0.400    0.000    0.000    0.000 
#
# Total GULP energy -496031.341849 kJ/mol
# GULP energy per Si atom -12400.783546 kJ/mol
# Density = 1.769503 g / cm^3
# Si number density = 17.735394 Si / 1000 Ang^3
#
#
#
# Elastic Constant Matrix: (Units=GPa)
#
#
# Indices 1 2 3 4 5 6 
#
# 1 127.8665 61.9750 28.5538 0.0000 0.0000 0.0000
# 2 61.9750 112.0216 39.1862 0.0000 0.0000 0.0000
# 3 28.5538 39.1862 68.2211 0.0000 0.0000 0.0000
# 4 0.0000 0.0000 0.0000 9.2821 0.0000 0.0000
# 5 0.0000 0.0000 0.0000 0.0000 16.4183 0.0000
# 6 0.0000 0.0000 0.0000 0.0000 0.0000 28.0647
#
#
#
# Elastic Compliance Matrix: (Units=1/GPa)
#
#
# Indices 1 2 3 4 5 6 
#
# 1 0.010786 -0.005491 -0.001360 0.000000 0.000000 0.000000
# 2 -0.005491 0.013967 -0.005724 0.000000 0.000000 0.000000
# 3 -0.001360 -0.005724 0.018516 0.000000 0.000000 0.000000
# 4 0.000000 0.000000 0.000000 0.107734 0.000000 0.000000
# 5 0.000000 0.000000 0.000000 0.000000 0.060908 0.000000
# 6 0.000000 0.000000 0.000000 0.000000 0.000000 0.035632
#
#
# Mechanical properties :
#
#
# Convention : Reuss Voigt Hill
#
# Bulk Modulus (GPa) = 55.19703 63.05990 59.12846
# Shear Modulus (GPa) = 17.93828 22.64598 20.29213
#
# Velocity S-wave (km/s) = 3.18376 3.57722 3.38621
# Velocity P-wave (km/s) = 6.68620 7.25915 6.97855
#
# Compressibility (1/GPa) = 0.01811692
#
# Stress axis : x y z
#
# Youngs Moduli (GPa) = 92.71240 71.59507 54.00847
#
# Poissons Ratio (x) = 0.39316 0.07346
# Poissons Ratio (y) = 0.50913 0.30917
# Poissons Ratio (z) = 0.12610 0.40984
#
# Static dielectric constant tensor:
#      x y z
#    x 3.469220 0.000000 0.000000 
#    y 0.000000 3.247540 0.000000 
#    z 0.000000 0.000000 2.925250 
# 
# 
# High freq. dielectric constant tensor:
#      x y z
#    x 1.703550 0.000000 0.000000 
#    y 0.000000 1.671980 0.000000 
#    z 0.000000 0.000000 1.635620 
# 
# From -- ./inp_files/39778.got.cif
#   From: 2010.03.12/outbox.cif.g09.slc.cpg/sg74_20_cif.got.tgz:39778.got - 2010.04.16 15:46:19.
