data_PCOD8298797
_publ_section_title
;
Structure prediction by ZEFSAII (Michael W. Deem and Ramdas Pophale) SiO2 
 PCOD8298797
Probable space group: I M M A
;
_chemical_formula_sum "Si O2"
_cell_formula_units_Z 88
_cell_length_a 27.896297
_cell_length_b 8.872460
_cell_length_c 19.219835
_cell_angle_alpha 90.000000
_cell_angle_beta 90.000000
_cell_angle_gamma 90.000000
_cell_volume 4757.077899
_symmetry_space_group_name_H-M "I M M A"
_symmetry_group_IT_number 74
_symmetry_cell_setting 'orthorhombic'
loop_
_space_group_symop_operation_xyz
x,y,z
-x,1/2-y,z
x,-y,-z
-x,1/2+y,-z
-x,-y,-z
x,1/2+y,-z
-x,y,z
x,1/2-y,z
1/2+x,1/2+y,1/2+z
1/2-x,-y,1/2+z
1/2+x,1/2-y,1/2-z
1/2-x,y,1/2-z
1/2-x,1/2-y,1/2-z
1/2+x,y,1/2-z
1/2-x,1/2+y,1/2+z
1/2+x,-y,1/2+z
loop_
_atom_site_type_symbol
_atom_site_label
_atom_site_fract_x
_atom_site_fract_y
_atom_site_fract_z
Si Si1 0.553727 0.571270 0.191686
Si Si2 0.500000 0.572628 0.425596
Si Si3 0.279628 0.925057 0.925618
Si Si4 0.326652 0.425184 0.424675
Si Si5 0.408588 0.071675 0.661399
Si Si6 0.372955 0.071308 0.924170
O O1 0.500000 0.502659 0.188134
O O2 0.550073 0.750000 0.195695
O O3 0.581440 0.514162 0.260364
O O4 0.582798 0.519242 0.123696
O O5 0.500000 0.750000 0.433679
O O6 0.500000 0.500000 0.500000
O O7 0.546810 0.517919 0.384872
O O8 0.292510 0.750000 0.932138
O O9 0.226956 0.949319 0.892660
O O10 0.323871 0.009300 0.887341
O O11 0.276797 0.000000 0.000000
O O12 0.334089 0.500000 0.500000
O O13 0.337838 0.250000 0.435188
O O14 0.360970 0.494129 0.366868
O O15 0.401474 0.250000 0.658328
O O16 0.369862 0.250000 0.930410
O O17 0.380745 0.000000 0.000000
#
# Coordination Sequence:
#
# PCOD8298797 Si02
#       6
#    16   8  16  16  16  16
#     4   9  18  35  56  76 102 138 176 212 258 310
#     4  10  20  32  50  74  99 130 170 212 253 296
#     4   9  17  31  51  74 104 137 168 209 258 307
#     4  10  20  33  51  77 106 138 175 214 258 305
#     4  10  19  34  54  74 100 137 176 215 257 303
#     4  10  19  32  55  82 105 132 169 214 258 310
#
# _framework density 18.498752
#
# number of rings (size 3 to 8) (size 9 to 14) (size 15 to 20)
#    0.000    2.364    0.909    3.273    0.000    4.727 
#    0.000    2.727    0.000    9.273    0.000    0.000 
#    0.000    0.000    0.000    0.000    0.000    0.000 
#
# Total GULP energy -545357.514446 kJ/mol
# GULP energy per Si atom -12394.488965 kJ/mol
# Density = 1.845665 g / cm^3
# Si number density = 18.498752 Si / 1000 Ang^3
#
#
#
# Elastic Constant Matrix: (Units=GPa)
#
#
# Indices 1 2 3 4 5 6 
#
# 1 167.9259 54.6806 80.9545 0.0000 0.0000 0.0000
# 2 54.6806 70.9962 39.2290 0.0000 0.0000 0.0000
# 3 80.9545 39.2290 112.7657 0.0000 0.0000 0.0000
# 4 0.0000 0.0000 0.0000 21.8775 0.0000 0.0000
# 5 0.0000 0.0000 0.0000 0.0000 13.7721 0.0000
# 6 0.0000 0.0000 0.0000 0.0000 0.0000 27.2180
#
#
#
# Elastic Compliance Matrix: (Units=1/GPa)
#
#
# Indices 1 2 3 4 5 6 
#
# 1 0.010251 -0.004740 -0.005711 0.000000 0.000000 0.000000
# 2 -0.004740 0.019629 -0.003425 0.000000 0.000000 0.000000
# 3 -0.005711 -0.003425 0.014159 0.000000 0.000000 0.000000
# 4 0.000000 0.000000 0.000000 0.045709 0.000000 0.000000
# 5 0.000000 0.000000 0.000000 0.000000 0.072611 0.000000
# 6 0.000000 0.000000 0.000000 0.000000 0.000000 0.036740
#
#
# Mechanical properties :
#
#
# Convention : Reuss Voigt Hill
#
# Bulk Modulus (GPa) = 61.39837 77.93515 69.66676
# Shear Modulus (GPa) = 21.52563 24.36175 22.94369
#
# Velocity S-wave (km/s) = 3.41490 3.63290 3.52559
# Velocity P-wave (km/s) = 6.98651 7.73426 7.36987
#
# Compressibility (1/GPa) = 0.01628708
#
# Stress axis : x y z
#
# Youngs Moduli (GPa) = 97.54675 50.94526 70.62558
#
# Poissons Ratio (x) = 0.24149 0.40331
# Poissons Ratio (y) = 0.46240 0.24193
# Poissons Ratio (z) = 0.55704 0.17451
#
# Static dielectric constant tensor:
#      x y z
#    x 4.240090 0.000000 0.000000 
#    y 0.000000 3.280340 0.000000 
#    z 0.000000 0.000000 3.218990 
# 
# 
# High freq. dielectric constant tensor:
#      x y z
#    x 1.738020 0.000000 0.000000 
#    y 0.000000 1.706280 0.000000 
#    z 0.000000 0.000000 1.692810 
# 
# From -- ./inp_files/47018.got.cif
#   From: 2010.03.12/outbox.cif.g09.slc.cpg/sg74_24_cif.got.tgz:47018.got - 2010.04.16 15:46:19.
