data_PCOD8298606
_publ_section_title
;
Structure prediction by ZEFSAII (Michael W. Deem and Ramdas Pophale) SiO2 
 PCOD8298606
Probable space group: I M M A
;
_chemical_formula_sum "Si O2"
_cell_formula_units_Z 88
_cell_length_a 9.332568
_cell_length_b 22.323304
_cell_length_c 24.347479
_cell_angle_alpha 90.000000
_cell_angle_beta 90.000000
_cell_angle_gamma 90.000000
_cell_volume 5072.401666
_symmetry_space_group_name_H-M "I M M A"
_symmetry_group_IT_number 74
_symmetry_cell_setting 'orthorhombic'
loop_
_space_group_symop_operation_xyz
x,y,z
-x,1/2-y,z
x,-y,-z
-x,1/2+y,-z
-x,-y,-z
x,1/2+y,-z
-x,y,z
x,1/2-y,z
1/2+x,1/2+y,1/2+z
1/2-x,-y,1/2+z
1/2+x,1/2-y,1/2-z
1/2-x,y,1/2-z
1/2-x,1/2-y,1/2-z
1/2+x,y,1/2-z
1/2-x,1/2+y,1/2+z
1/2+x,-y,1/2+z
loop_
_atom_site_type_symbol
_atom_site_label
_atom_site_fract_x
_atom_site_fract_y
_atom_site_fract_z
Si Si1 0.667191 0.750000 0.306628
Si Si2 0.332707 0.180264 0.985249
Si Si3 0.834827 0.965376 0.196992
Si Si4 0.667370 0.602008 0.695989
Si Si5 0.334322 0.819290 0.593549
Si Si6 0.666651 0.139493 0.617393
O O1 0.500000 0.750000 0.292923
O O2 0.750000 0.750000 0.250000
O O3 0.712228 0.808290 0.340924
O O4 0.500000 0.165609 0.988201
O O5 0.302739 0.250000 0.973825
O O6 0.261400 0.142061 0.937061
O O7 0.260702 0.160391 0.042137
O O8 0.750000 0.942199 0.250000
O O9 0.798341 0.924234 0.144929
O O10 0.000000 0.959544 0.212897
O O11 0.793055 0.033352 0.181861
O O12 0.500000 0.610292 0.707391
O O13 0.750000 0.624015 0.750000
O O14 0.718477 0.642388 0.645355
O O15 0.500000 0.832272 0.579514
O O16 0.309247 0.750000 0.607976
O O17 0.500000 0.145939 0.601247
#
# Coordination Sequence:
#
# PCOD8298606 Si02
#       6
#     8  16  16  16  16  16
#     4  10  20  30  44  68  96 124 159 202 243 282
#     4  10  20  33  50  73  98 126 162 205 249 289
#     4   9  18  32  50  71  97 130 165 200 240 288
#     4   9  18  33  52  75 101 129 161 196 239 290
#     4   9  18  33  53  74  98 129 162 197 240 292
#     4  10  19  32  49  69  95 130 167 200 241 291
#
# _framework density 17.348783000000001
#
# number of rings (size 3 to 8) (size 9 to 14) (size 15 to 20)
#    0.000    2.545    0.909    1.091    0.000    3.273 
#    0.000    0.909    0.000    5.455    0.000    0.000 
#    0.000    0.000    0.000    0.000    0.000    0.000 
#
# Total GULP energy -545749.069307 kJ/mol
# GULP energy per Si atom -12403.387939 kJ/mol
# Density = 1.730930 g / cm^3
# Si number density = 17.348783 Si / 1000 Ang^3
#
#
#
# Elastic Constant Matrix: (Units=GPa)
#
#
# Indices 1 2 3 4 5 6 
#
# 1 74.7712 41.6247 80.4427 0.0000 0.0000 0.0000
# 2 41.6247 73.9223 73.2984 0.0000 0.0000 0.0000
# 3 80.4427 73.2984 167.8954 0.0000 0.0000 0.0000
# 4 0.0000 0.0000 0.0000 29.4343 0.0000 0.0000
# 5 0.0000 0.0000 0.0000 0.0000 37.9990 0.0000
# 6 0.0000 0.0000 0.0000 0.0000 0.0000 17.5859
#
#
#
# Elastic Compliance Matrix: (Units=1/GPa)
#
#
# Indices 1 2 3 4 5 6 
#
# 1 0.028393 -0.004406 -0.011680 0.000000 0.000000 0.000000
# 2 -0.004406 0.024537 -0.008601 0.000000 0.000000 0.000000
# 3 -0.011680 -0.008601 0.015307 0.000000 0.000000 0.000000
# 4 0.000000 0.000000 0.000000 0.033974 0.000000 0.000000
# 5 0.000000 0.000000 0.000000 0.000000 0.026316 0.000000
# 6 0.000000 0.000000 0.000000 0.000000 0.000000 0.056864
#
#
# Mechanical properties :
#
#
# Convention : Reuss Voigt Hill
#
# Bulk Modulus (GPa) = 53.01452 78.59115 65.80284
# Shear Modulus (GPa) = 20.74212 25.08539 22.91375
#
# Velocity S-wave (km/s) = 3.46149 3.80668 3.63818
# Velocity P-wave (km/s) = 6.82644 8.04488 7.46058
#
# Compressibility (1/GPa) = 0.01886276
#
# Stress axis : x y z
#
# Youngs Moduli (GPa) = 35.21957 40.75402 65.32757
#
# Poissons Ratio (x) = 0.17957 0.76305
# Poissons Ratio (y) = 0.15518 0.56190
# Poissons Ratio (z) = 0.41138 0.35054
#
# Static dielectric constant tensor:
#      x y z
#    x 3.189390 0.000000 0.000000 
#    y 0.000000 3.246940 0.000000 
#    z 0.000000 0.000000 3.189240 
# 
# 
# High freq. dielectric constant tensor:
#      x y z
#    x 1.667850 0.000000 0.000000 
#    y 0.000000 1.661310 0.000000 
#    z 0.000000 0.000000 1.670280 
# 
# From -- ./inp_files/48706.got.cif
#   From: 2010.03.12/outbox.cif.g09.slc.cpg/sg74_25_cif.got.tgz:48706.got - 2010.04.16 15:46:19.
