data_PCOD8298356
_publ_section_title
;
Structure prediction by ZEFSAII (Michael W. Deem and Ramdas Pophale) SiO2 
 PCOD8298356
Probable space group: I M M A
;
_chemical_formula_sum "Si O2"
_cell_formula_units_Z 88
_cell_length_a 10.023792
_cell_length_b 21.240093
_cell_length_c 23.633214
_cell_angle_alpha 90.000000
_cell_angle_beta 90.000000
_cell_angle_gamma 90.000000
_cell_volume 5031.659542
_symmetry_space_group_name_H-M "I M M A"
_symmetry_group_IT_number 74
_symmetry_cell_setting 'orthorhombic'
loop_
_space_group_symop_operation_xyz
x,y,z
-x,1/2-y,z
x,-y,-z
-x,1/2+y,-z
-x,-y,-z
x,1/2+y,-z
-x,y,z
x,1/2-y,z
1/2+x,1/2+y,1/2+z
1/2-x,-y,1/2+z
1/2+x,1/2-y,1/2-z
1/2-x,y,1/2-z
1/2-x,1/2-y,1/2-z
1/2+x,y,1/2-z
1/2-x,1/2+y,1/2+z
1/2+x,-y,1/2+z
loop_
_atom_site_type_symbol
_atom_site_label
_atom_site_fract_x
_atom_site_fract_y
_atom_site_fract_z
Si Si1 0.846876 0.250000 0.304046
Si Si2 0.153672 0.591509 0.095830
Si Si3 0.651118 0.822125 0.297775
Si Si4 0.652426 0.511005 0.933968
Si Si5 0.651726 0.845309 0.902330
Si Si6 0.350997 0.181602 0.496721
O O1 0.750000 0.250000 0.250000
O O2 0.820932 0.185931 0.340728
O O3 0.000000 0.250000 0.282575
O O4 0.178492 0.637334 0.147441
O O5 0.248704 0.531684 0.102950
O O6 0.000000 0.569604 0.092205
O O7 0.198570 0.628782 0.039861
O O8 0.500000 0.829973 0.275915
O O9 0.682907 0.750000 0.313060
O O10 0.750000 0.847610 0.250000
O O11 0.500000 0.490079 0.924177
O O12 0.676715 0.580053 0.907886
O O13 0.689396 0.500000 0.000000
O O14 0.500000 0.829808 0.920390
O O15 0.751879 0.812022 0.944665
O O16 0.500000 0.164791 0.474981
O O17 0.353309 0.250000 0.527195
#
# Coordination Sequence:
#
# PCOD8298356 Si02
#       6
#     8  16  16  16  16  16
#     4  10  22  40  62  82 106 140 181 230 277 322
#     4  10  20  33  51  77 110 144 178 216 262 315
#     4   9  18  34  54  75 103 139 179 222 264 307
#     4  10  20  34  53  78 110 146 178 212 263 325
#     4  10  20  36  56  79 106 137 174 220 272 321
#     4  10  19  30  49  79 110 139 173 216 264 316
#
# _framework density 17.489258
#
# number of rings (size 3 to 8) (size 9 to 14) (size 15 to 20)
#    0.000    2.182    2.727    0.545    0.000    4.727 
#    0.000    0.909    0.000    7.636    0.000    0.000 
#    0.000    0.000    0.000    0.000    0.000    0.000 
#
# Total GULP energy -545367.005081 kJ/mol
# GULP energy per Si atom -12394.704661 kJ/mol
# Density = 1.744945 g / cm^3
# Si number density = 17.489258 Si / 1000 Ang^3
#
#
#
# Elastic Constant Matrix: (Units=GPa)
#
#
# Indices 1 2 3 4 5 6 
#
# 1 94.7533 58.4611 63.9973 0.0000 0.0000 0.0000
# 2 58.4611 106.1316 46.4567 0.0000 0.0000 0.0000
# 3 63.9973 46.4567 92.2286 0.0000 0.0000 0.0000
# 4 0.0000 0.0000 0.0000 93.6050 0.0000 0.0000
# 5 0.0000 0.0000 0.0000 0.0000 33.2716 0.0000
# 6 0.0000 0.0000 0.0000 0.0000 0.0000 47.0401
#
#
#
# Elastic Compliance Matrix: (Units=1/GPa)
#
#
# Indices 1 2 3 4 5 6 
#
# 1 0.023791 -0.007542 -0.012710 0.000000 0.000000 0.000000
# 2 -0.007542 0.014478 -0.002060 0.000000 0.000000 0.000000
# 3 -0.012710 -0.002060 0.020699 0.000000 0.000000 0.000000
# 4 0.000000 0.000000 0.000000 0.010683 0.000000 0.000000
# 5 0.000000 0.000000 0.000000 0.000000 0.030056 0.000000
# 6 0.000000 0.000000 0.000000 0.000000 0.000000 0.021258
#
#
# Mechanical properties :
#
#
# Convention : Reuss Voigt Hill
#
# Bulk Modulus (GPa) = 69.70381 70.10483 69.90432
# Shear Modulus (GPa) = 29.34789 43.06322 36.20555
#
# Velocity S-wave (km/s) = 4.10085 4.96751 4.55484
# Velocity P-wave (km/s) = 7.89711 8.54828 8.22914
#
# Compressibility (1/GPa) = 0.01434642
#
# Stress axis : x y z
#
# Youngs Moduli (GPa) = 42.03265 69.07034 48.31048
#
# Poissons Ratio (x) = 0.52090 0.61402
# Poissons Ratio (y) = 0.31699 0.09951
# Poissons Ratio (z) = 0.53423 0.14226
#
# Static dielectric constant tensor:
#      x y z
#    x 3.353600 0.000000 0.000000 
#    y 0.000000 3.349040 0.000000 
#    z 0.000000 0.000000 3.022450 
# 
# 
# High freq. dielectric constant tensor:
#      x y z
#    x 1.685710 0.000000 0.000000 
#    y 0.000000 1.682060 0.000000 
#    z 0.000000 0.000000 1.648410 
# 
# From -- ./inp_files/48715.got.cif
#   From: 2010.03.12/outbox.cif.g09.slc.cpg/sg74_25_cif.got.tgz:48715.got - 2010.04.16 15:46:19.
