data_PCOD8298324
_publ_section_title
;
Structure prediction by ZEFSAII (Michael W. Deem and Ramdas Pophale) SiO2 
 PCOD8298324
Probable space group: I M M A
;
_chemical_formula_sum "Si O2"
_cell_formula_units_Z 96
_cell_length_a 21.515650
_cell_length_b 17.761877
_cell_length_c 13.558780
_cell_angle_alpha 90.000000
_cell_angle_beta 90.000000
_cell_angle_gamma 90.000000
_cell_volume 5181.600706
_symmetry_space_group_name_H-M "I M M A"
_symmetry_group_IT_number 74
_symmetry_cell_setting 'orthorhombic'
loop_
_space_group_symop_operation_xyz
x,y,z
-x,1/2-y,z
x,-y,-z
-x,1/2+y,-z
-x,-y,-z
x,1/2+y,-z
-x,y,z
x,1/2-y,z
1/2+x,1/2+y,1/2+z
1/2-x,-y,1/2+z
1/2+x,1/2-y,1/2-z
1/2-x,y,1/2-z
1/2-x,1/2-y,1/2-z
1/2+x,y,1/2-z
1/2-x,1/2+y,1/2+z
1/2+x,-y,1/2+z
loop_
_atom_site_type_symbol
_atom_site_label
_atom_site_fract_x
_atom_site_fract_y
_atom_site_fract_z
Si Si1 0.875739 0.424160 0.823510
Si Si2 0.305870 0.339131 0.321347
Si Si3 0.070022 0.330205 0.981800
Si Si4 0.193709 0.833699 0.325959
Si Si5 0.428269 0.914336 0.675143
Si Si6 0.233063 0.080877 0.977916
O O1 0.916191 0.358865 0.872713
O O2 0.856175 0.392689 0.716741
O O3 0.917384 0.497813 0.806592
O O4 0.818364 0.440016 0.895963
O O5 0.306172 0.250000 0.332887
O O6 0.250000 0.365691 0.250000
O O7 0.372414 0.366172 0.272863
O O8 0.296598 0.377943 0.427822
O O9 0.106383 0.250000 0.002731
O O10 0.000000 0.307194 0.987936
O O11 0.083431 0.395701 0.060275
O O12 0.165266 0.750000 0.340425
O O13 0.250000 0.828801 0.250000
O O14 0.215643 0.863549 0.432363
O O15 0.500000 0.893612 0.707769
O O16 0.264473 0.000000 0.000000
#
# Coordination Sequence:
#
# PCOD8298324 Si02
#       6
#    16  16  16  16  16  16
#     4  11  19  32  51  77 108 149 184 225 268 327
#     4  11  24  39  57  80 111 149 190 234 282 337
#     4  10  19  30  47  72 107 149 188 223 269 333
#     4   9  20  33  51  77 108 146 188 233 275 326
#     4  11  22  35  52  79 115 150 188 229 277 334
#     4  11  20  33  54  80 110 146 183 228 278 330
#
# _framework density 18.527094000000002
#
# number of rings (size 3 to 8) (size 9 to 14) (size 15 to 20)
#    0.000    1.500    3.333    2.500    2.333    3.667 
#    0.000    0.000    0.000    0.000    0.000    3.500 
#    0.000    5.333    0.000    0.000    0.000    0.000 
#
# Total GULP energy -594642.583214 kJ/mol
# GULP energy per Si atom -12388.387150 kJ/mol
# Density = 1.848493 g / cm^3
# Si number density = 18.527094 Si / 1000 Ang^3
#
#
#
# Elastic Constant Matrix: (Units=GPa)
#
#
# Indices 1 2 3 4 5 6 
#
# 1 102.4583 42.1261 37.8983 0.0000 0.0000 0.0000
# 2 42.1261 135.9523 28.7921 0.0000 0.0000 0.0000
# 3 37.8983 28.7921 47.6626 0.0000 0.0000 0.0000
# 4 0.0000 0.0000 0.0000 11.5399 0.0000 0.0000
# 5 0.0000 0.0000 0.0000 0.0000 25.4089 0.0000
# 6 0.0000 0.0000 0.0000 0.0000 0.0000 27.4404
#
#
#
# Elastic Compliance Matrix: (Units=1/GPa)
#
#
# Indices 1 2 3 4 5 6 
#
# 1 0.014450 -0.002344 -0.010074 0.000000 0.000000 0.000000
# 2 -0.002344 0.008815 -0.003461 0.000000 0.000000 0.000000
# 3 -0.010074 -0.003461 0.031082 0.000000 0.000000 0.000000
# 4 0.000000 0.000000 0.000000 0.086656 0.000000 0.000000
# 5 0.000000 0.000000 0.000000 0.000000 0.039356 0.000000
# 6 0.000000 0.000000 0.000000 0.000000 0.000000 0.036443
#
#
# Mechanical properties :
#
#
# Convention : Reuss Voigt Hill
#
# Bulk Modulus (GPa) = 44.26985 55.96736 50.11861
# Shear Modulus (GPa) = 19.52452 24.69497 22.10974
#
# Velocity S-wave (km/s) = 3.24981 3.65487 3.45827
# Velocity P-wave (km/s) = 6.16670 6.93431 6.56174
#
# Compressibility (1/GPa) = 0.02258873
#
# Stress axis : x y z
#
# Youngs Moduli (GPa) = 69.20412 113.44525 32.17344
#
# Poissons Ratio (x) = 0.26592 0.32411
# Poissons Ratio (y) = 0.16222 0.11135
# Poissons Ratio (z) = 0.69714 0.39264
#
# Static dielectric constant tensor:
#      x y z
#    x 3.532770 0.000000 0.000000 
#    y 0.000000 3.529430 0.000000 
#    z 0.000000 0.000000 -3.217240 
# 
# 
# High freq. dielectric constant tensor:
#      x y z
#    x 1.701440 0.000000 0.000000 
#    y 0.000000 1.744310 0.000000 
#    z 0.000000 0.000000 1.670130 
# 
# From -- ./inp_files/25176.got.cif
#   From: 2010.03.12/outbox.cif.g09.slc.cpg/sg74_13_cif.got.tgz:25176.got - 2010.04.16 15:46:19.
