data_PCOD8298668
_publ_section_title
;
Structure prediction by ZEFSAII (Michael W. Deem and Ramdas Pophale) SiO2 
 PCOD8298668
Probable space group: I M M A
;
_chemical_formula_sum "Si O2"
_cell_formula_units_Z 96
_cell_length_a 30.261815
_cell_length_b 9.155075
_cell_length_c 19.278481
_cell_angle_alpha 90.000000
_cell_angle_beta 90.000000
_cell_angle_gamma 90.000000
_cell_volume 5341.087468
_symmetry_space_group_name_H-M "I M M A"
_symmetry_group_IT_number 74
_symmetry_cell_setting 'orthorhombic'
loop_
_space_group_symop_operation_xyz
x,y,z
-x,1/2-y,z
x,-y,-z
-x,1/2+y,-z
-x,-y,-z
x,1/2+y,-z
-x,y,z
x,1/2-y,z
1/2+x,1/2+y,1/2+z
1/2-x,-y,1/2+z
1/2+x,1/2-y,1/2-z
1/2-x,y,1/2-z
1/2-x,1/2-y,1/2-z
1/2+x,y,1/2-z
1/2-x,1/2+y,1/2+z
1/2+x,-y,1/2+z
loop_
_atom_site_type_symbol
_atom_site_label
_atom_site_fract_x
_atom_site_fract_y
_atom_site_fract_z
Si Si1 0.447368 0.914140 0.433844
Si Si2 0.338769 0.920461 0.069465
Si Si3 0.949813 0.081543 0.201419
Si Si4 0.627917 0.417939 0.199366
Si Si5 0.263772 0.921106 0.430109
Si Si6 0.208966 0.419842 0.202822
O O1 0.500000 0.916255 0.436767
O O2 0.428810 0.750000 0.435700
O O3 0.427793 0.000000 0.500000
O O4 0.431196 0.989815 0.363250
O O5 0.347525 0.750000 0.060515
O O6 0.287598 0.955820 0.083958
O O7 0.367475 0.979654 0.133011
O O8 0.355017 0.000000 0.000000
O O9 0.946794 0.250000 0.179029
O O10 0.920177 0.050103 0.268672
O O11 0.000000 0.037221 0.220317
O O12 0.633196 0.250000 0.175879
O O13 0.664217 0.456449 0.256959
O O14 0.272847 0.750000 0.437404
O O15 0.279733 0.000000 0.500000
O O16 0.291884 0.985264 0.366854
O O17 0.212847 0.250000 0.182673
O O18 0.250000 0.468849 0.250000
#
# Coordination Sequence:
#
# PCOD8298668 Si02
#       6
#    16  16  16  16  16  16
#     4   9  16  27  46  71  97 126 163 207 252 298
#     4  10  20  33  52  77 104 133 168 209 250 297
#     4   9  18  33  52  74 101 133 170 212 256 302
#     4  10  20  34  53  77 104 135 169 206 253 304
#     4  10  20  33  51  74 103 138 174 210 249 297
#     4  10  19  32  51  74 103 135 165 203 249 299
#
# _framework density 17.973866999999998
#
# number of rings (size 3 to 8) (size 9 to 14) (size 15 to 20)
#    0.000    2.333    1.667    1.500    0.000    5.000 
#    0.000    0.833    0.000    0.500    0.000    0.000 
#    0.000    0.000    0.000    0.000    0.000    0.000 
#
# Total GULP energy -595367.516019 kJ/mol
# GULP energy per Si atom -12403.489917 kJ/mol
# Density = 1.793296 g / cm^3
# Si number density = 17.973867 Si / 1000 Ang^3
#
#
#
# Elastic Constant Matrix: (Units=GPa)
#
#
# Indices 1 2 3 4 5 6 
#
# 1 59.0332 29.1766 40.6376 0.0000 0.0000 0.0000
# 2 29.1766 105.4303 77.5691 0.0000 0.0000 0.0000
# 3 40.6376 77.5691 141.6655 0.0000 0.0000 0.0000
# 4 0.0000 0.0000 0.0000 42.1362 0.0000 0.0000
# 5 0.0000 0.0000 0.0000 0.0000 20.2090 0.0000
# 6 0.0000 0.0000 0.0000 0.0000 0.0000 14.9401
#
#
#
# Elastic Compliance Matrix: (Units=1/GPa)
#
#
# Indices 1 2 3 4 5 6 
#
# 1 0.021453 -0.002360 -0.004862 0.000000 0.000000 0.000000
# 2 -0.002360 0.016143 -0.008162 0.000000 0.000000 0.000000
# 3 -0.004862 -0.008162 0.012923 0.000000 0.000000 0.000000
# 4 0.000000 0.000000 0.000000 0.023733 0.000000 0.000000
# 5 0.000000 0.000000 0.000000 0.000000 0.049483 0.000000
# 6 0.000000 0.000000 0.000000 0.000000 0.000000 0.066934
#
#
# Mechanical properties :
#
#
# Convention : Reuss Voigt Hill
#
# Bulk Modulus (GPa) = 50.63032 66.76621 58.69826
# Shear Modulus (GPa) = 21.92791 26.04009 23.98400
#
# Velocity S-wave (km/s) = 3.49662 3.81041 3.65688
# Velocity P-wave (km/s) = 6.67322 7.52236 7.11047
#
# Compressibility (1/GPa) = 0.01975101
#
# Stress axis : x y z
#
# Youngs Moduli (GPa) = 46.61421 61.94490 77.38251
#
# Poissons Ratio (x) = 0.14618 0.37621
# Poissons Ratio (y) = 0.11000 0.63163
# Poissons Ratio (z) = 0.22662 0.50562
#
# Static dielectric constant tensor:
#      x y z
#    x 3.068700 0.000000 0.000000 
#    y 0.000000 3.347430 0.000000 
#    z 0.000000 0.000000 3.278930 
# 
# 
# High freq. dielectric constant tensor:
#      x y z
#    x 1.661220 0.000000 0.000000 
#    y 0.000000 1.701190 0.000000 
#    z 0.000000 0.000000 1.698080 
# 
# From -- ./inp_files/49069.got.cif
#   From: 2010.03.12/outbox.cif.g09.slc.cpg/sg74_25_cif.got.tgz:49069.got - 2010.04.16 15:46:19.
