data_PCOD8298296
_publ_section_title
;
Structure prediction by ZEFSAII (Michael W. Deem and Ramdas Pophale) SiO2 
 PCOD8298296
Probable space group: I M M A
;
_chemical_formula_sum "Si O2"
_cell_formula_units_Z 88
_cell_length_a 15.766519
_cell_length_b 8.924115
_cell_length_c 34.143541
_cell_angle_alpha 90.000000
_cell_angle_beta 90.000000
_cell_angle_gamma 90.000000
_cell_volume 4804.072315
_symmetry_space_group_name_H-M "I M M A"
_symmetry_group_IT_number 74
_symmetry_cell_setting 'orthorhombic'
loop_
_space_group_symop_operation_xyz
x,y,z
-x,1/2-y,z
x,-y,-z
-x,1/2+y,-z
-x,-y,-z
x,1/2+y,-z
-x,y,z
x,1/2-y,z
1/2+x,1/2+y,1/2+z
1/2-x,-y,1/2+z
1/2+x,1/2-y,1/2-z
1/2-x,y,1/2-z
1/2-x,1/2-y,1/2-z
1/2+x,y,1/2-z
1/2-x,1/2+y,1/2+z
1/2+x,-y,1/2+z
loop_
_atom_site_type_symbol
_atom_site_label
_atom_site_fract_x
_atom_site_fract_y
_atom_site_fract_z
Si Si1 0.250132 0.071553 0.884337
Si Si2 0.315854 0.926635 0.957510
Si Si3 0.593574 0.572072 0.333187
Si Si4 0.093498 0.071877 0.667405
Si Si5 0.500000 0.922182 0.959270
Si Si6 0.845685 0.071524 0.750344
O O1 0.251253 0.250000 0.888070
O O2 0.165282 0.012254 0.862858
O O3 0.332043 0.010684 0.860513
O O4 0.249396 0.999331 0.927493
O O5 0.299745 0.750000 0.961254
O O6 0.410210 0.963544 0.938875
O O7 0.303557 0.000000 0.000000
O O8 0.500000 0.520004 0.347347
O O9 0.599816 0.750000 0.331867
O O10 0.608938 0.509072 0.289372
O O11 0.098278 0.250000 0.667683
O O12 0.107002 0.011270 0.711608
O O13 0.000000 0.017963 0.652823
O O14 0.500000 0.750000 0.969601
O O15 0.500000 0.000000 0.000000
O O16 0.846574 0.250000 0.750572
O O17 0.750000 0.011261 0.750000
#
# Coordination Sequence:
#
# PCOD8298296 Si02
#       6
#    16  16  16  16   8  16
#     4  10  19  30  46  71 100 128 162 203 245 292
#     4  10  20  35  53  73  98 128 161 196 240 292
#     4   9  16  26  42  65  95 132 170 209 251 289
#     4   9  16  24  36  60  95 131 162 195 237 281
#     4   8  16  30  48  70  94 122 156 188 222 278
#     4   9  13  21  36  57  92 132 166 201 241 284
#
# _framework density 18.317792000000001
#
# number of rings (size 3 to 8) (size 9 to 14) (size 15 to 20)
#    0.000    2.727    1.818    1.091    1.273    2.909 
#    0.000    0.000    0.000    1.091    0.000    2.545 
#    0.000    2.909    0.000    0.000    0.000    0.000 
#
# Total GULP energy -545154.703625 kJ/mol
# GULP energy per Si atom -12389.879628 kJ/mol
# Density = 1.827610 g / cm^3
# Si number density = 18.317792 Si / 1000 Ang^3
#
#
#
# Elastic Constant Matrix: (Units=GPa)
#
#
# Indices 1 2 3 4 5 6 
#
# 1 143.8145 17.6227 67.4051 0.0000 0.0000 0.0000
# 2 17.6227 21.5365 24.0215 0.0000 0.0000 0.0000
# 3 67.4051 24.0215 123.3663 0.0000 0.0000 0.0000
# 4 0.0000 0.0000 0.0000 14.6367 0.0000 0.0000
# 5 0.0000 0.0000 0.0000 0.0000 26.3218 0.0000
# 6 0.0000 0.0000 0.0000 0.0000 0.0000 8.5248
#
#
#
# Elastic Compliance Matrix: (Units=1/GPa)
#
#
# Indices 1 2 3 4 5 6 
#
# 1 0.009453 -0.002522 -0.004674 0.000000 0.000000 0.000000
# 2 -0.002522 0.059988 -0.010303 0.000000 0.000000 0.000000
# 3 -0.004674 -0.010303 0.012666 0.000000 0.000000 0.000000
# 4 0.000000 0.000000 0.000000 0.068322 0.000000 0.000000
# 5 0.000000 0.000000 0.000000 0.000000 0.037991 0.000000
# 6 0.000000 0.000000 0.000000 0.000000 0.000000 0.117305
#
#
# Mechanical properties :
#
#
# Convention : Reuss Voigt Hill
#
# Bulk Modulus (GPa) = 21.22704 56.31287 38.76996
# Shear Modulus (GPa) = 14.02817 21.87451 17.95134
#
# Velocity S-wave (km/s) = 2.77035 3.45942 3.13388
# Velocity P-wave (km/s) = 4.67402 6.83855 5.85714
#
# Compressibility (1/GPa) = 0.04710972
#
# Stress axis : x y z
#
# Youngs Moduli (GPa) = 105.78560 16.66998 78.95278
#
# Poissons Ratio (x) = 0.04204 0.36902
# Poissons Ratio (y) = 0.26679 0.81343
# Poissons Ratio (z) = 0.49443 0.17175
#
# Static dielectric constant tensor:
#      x y z
#    x 3.590160 0.000000 0.000000 
#    y 0.000000 2.711810 0.000000 
#    z 0.000000 0.000000 3.310640 
# 
# 
# High freq. dielectric constant tensor:
#      x y z
#    x 1.709550 0.000000 0.000000 
#    y 0.000000 1.645970 0.000000 
#    z 0.000000 0.000000 1.705930 
# 
# From -- ./inp_files/72378.got.cif
#   From: 2010.03.12/outbox.cif.g09.slc.cpg/sg74_37_cif.got.tgz:72378.got - 2010.04.16 15:46:19.
