data_PCOD8298729
_publ_section_title
;
Structure prediction by ZEFSAII (Michael W. Deem and Ramdas Pophale) SiO2 
 PCOD8298729
Probable space group: I M M A
;
_chemical_formula_sum "Si O2"
_cell_formula_units_Z 128
_cell_length_a 16.776692
_cell_length_b 24.376526
_cell_length_c 16.068231
_cell_angle_alpha 90.000000
_cell_angle_beta 90.000000
_cell_angle_gamma 90.000000
_cell_volume 6571.223077
_symmetry_space_group_name_H-M "I M M A"
_symmetry_group_IT_number 74
_symmetry_cell_setting 'orthorhombic'
loop_
_space_group_symop_operation_xyz
x,y,z
-x,1/2-y,z
x,-y,-z
-x,1/2+y,-z
-x,-y,-z
x,1/2+y,-z
-x,y,z
x,1/2-y,z
1/2+x,1/2+y,1/2+z
1/2-x,-y,1/2+z
1/2+x,1/2-y,1/2-z
1/2-x,y,1/2-z
1/2-x,1/2-y,1/2-z
1/2+x,y,1/2-z
1/2-x,1/2+y,1/2+z
1/2+x,-y,1/2+z
loop_
_atom_site_type_symbol
_atom_site_label
_atom_site_fract_x
_atom_site_fract_y
_atom_site_fract_z
Si Si1 0.826081 0.963814 0.835793
Si Si2 0.277731 0.907081 0.499547
Si Si3 0.904809 0.580130 0.671656
Si Si4 0.908218 0.691297 0.595477
Si Si5 0.092835 0.884636 0.305236
Si Si6 0.175902 0.017360 0.609585
Si Si7 0.590581 0.429764 0.628089
Si Si8 0.675276 0.311993 0.933008
O O1 0.853839 0.932054 0.754072
O O2 0.747391 0.002443 0.825747
O O3 0.897655 0.004939 0.859248
O O4 0.803401 0.918353 0.905646
O O5 0.214875 0.955482 0.473403
O O6 0.357894 0.908766 0.447510
O O7 0.242834 0.846970 0.481185
O O8 0.871318 0.639274 0.642897
O O9 0.878538 0.537576 0.598299
O O10 0.000000 0.578079 0.686409
O O11 0.870299 0.750000 0.625226
O O12 0.899410 0.686524 0.495811
O O13 0.000000 0.691322 0.617337
O O14 0.114146 0.941090 0.349766
O O15 0.113124 0.892852 0.208404
O O16 0.147768 0.836667 0.344275
O O17 0.000000 0.871198 0.318866
O O18 0.500000 0.419899 0.603484
O O19 0.706537 0.250000 0.917830
#
# Coordination Sequence:
#
# PCOD8298729 Si02
#       8
#    16  16  16  16  16  16  16  16
#     4  11  21  34  54  83 115 154 193 231 288 352
#     4  10  23  37  55  82 113 151 196 241 290 350
#     4  11  21  33  56  85 115 151 189 237 294 356
#     4   9  19  36  56  80 111 147 188 235 289 347
#     4  10  20  34  55  85 116 147 188 236 292 354
#     4  10  19  32  52  77 113 149 180 229 289 345
#     4  10  20  35  55  81 116 153 189 235 287 349
#     4  10  21  39  61  82 111 150 196 247 298 356
#
# _framework density 19.478871000000002
#
# number of rings (size 3 to 8) (size 9 to 14) (size 15 to 20)
#    0.000    1.875    1.250    3.750    1.750    4.750 
#    0.000    1.875    0.000   11.625    0.000    0.000 
#    0.000    0.000    0.000    0.000    0.000    0.000 
#
# Total GULP energy -792931.256441 kJ/mol
# GULP energy per Si atom -12389.550882 kJ/mol
# Density = 1.943454 g / cm^3
# Si number density = 19.478871 Si / 1000 Ang^3
#
#
#
# Elastic Constant Matrix: (Units=GPa)
#
#
# Indices 1 2 3 4 5 6 
#
# 1 47.1929 28.8903 28.6735 -0.0002 0.0000 0.0000
# 2 28.8903 151.6785 38.5817 -0.0004 0.0000 0.0000
# 3 28.6735 38.5817 79.6769 -0.0007 0.0000 0.0000
# 4 -0.0002 -0.0004 -0.0007 25.5626 0.0000 0.0000
# 5 0.0000 0.0000 0.0000 0.0000 27.2996 0.0000
# 6 0.0000 0.0000 0.0000 0.0000 0.0000 20.3600
#
#
#
# Elastic Compliance Matrix: (Units=1/GPa)
#
#
# Indices 1 2 3 4 5 6 
#
# 1 0.028424 -0.003207 -0.008676 0.000000 0.000000 0.000000
# 2 -0.003207 0.007881 -0.002662 0.000000 0.000000 0.000000
# 3 -0.008676 -0.002662 0.016962 0.000000 0.000000 0.000000
# 4 0.000000 0.000000 0.000000 0.039120 0.000000 0.000000
# 5 0.000000 0.000000 0.000000 0.000000 0.036631 0.000000
# 6 0.000000 0.000000 0.000000 0.000000 0.000000 0.049116
#
#
# Mechanical properties :
#
#
# Convention : Reuss Voigt Hill
#
# Bulk Modulus (GPa) = 41.36205 52.31548 46.83876
# Shear Modulus (GPa) = 23.22526 26.80463 25.01494
#
# Velocity S-wave (km/s) = 3.45676 3.71359 3.58747
# Velocity P-wave (km/s) = 6.10022 6.73079 6.42325
#
# Compressibility (1/GPa) = 0.02417675
#
# Stress axis : x y z
#
# Youngs Moduli (GPa) = 35.18104 126.88961 58.95523
#
# Poissons Ratio (x) = 0.40695 0.51151
# Poissons Ratio (y) = 0.11283 0.15694
# Poissons Ratio (z) = 0.30524 0.33778
#
# Static dielectric constant tensor:
#      x y z
#    x 3.574690 0.000000 0.000000 
#    y 0.000000 3.870300 0.000000 
#    z 0.000000 0.000000 3.534720 
# 
# 
# High freq. dielectric constant tensor:
#      x y z
#    x 1.755120 0.000000 0.000000 
#    y 0.000000 1.748910 0.000000 
#    z 0.000000 0.000000 1.751980 
# 
# From -- ./inp_files/44642.got.cif
#   From: 2010.03.12/outbox.cif.g09.slc.cpg/sg74_23_cif.got.tgz:44642.got - 2010.04.16 15:46:19.
