data_PCOD8298078
_publ_section_title
;
Structure prediction by ZEFSAII (Michael W. Deem and Ramdas Pophale) SiO2 
 PCOD8298078
Probable space group: I M M A
;
_chemical_formula_sum "Si O2"
_cell_formula_units_Z 72
_cell_length_a 14.221892
_cell_length_b 17.720200
_cell_length_c 14.315917
_cell_angle_alpha 90.000000
_cell_angle_beta 90.000000
_cell_angle_gamma 90.000000
_cell_volume 3607.822539
_symmetry_space_group_name_H-M "I M M A"
_symmetry_group_IT_number 74
_symmetry_cell_setting 'orthorhombic'
loop_
_space_group_symop_operation_xyz
x,y,z
-x,1/2-y,z
x,-y,-z
-x,1/2+y,-z
-x,-y,-z
x,1/2+y,-z
-x,y,z
x,1/2-y,z
1/2+x,1/2+y,1/2+z
1/2-x,-y,1/2+z
1/2+x,1/2-y,1/2-z
1/2-x,y,1/2-z
1/2-x,1/2-y,1/2-z
1/2+x,y,1/2-z
1/2-x,1/2+y,1/2+z
1/2+x,-y,1/2+z
loop_
_atom_site_type_symbol
_atom_site_label
_atom_site_fract_x
_atom_site_fract_y
_atom_site_fract_z
Si Si1 0.691492 0.666124 0.015215
Si Si2 0.795368 0.554879 0.148605
Si Si3 0.000000 0.964574 0.105660
Si Si4 0.000000 0.662259 0.579449
Si Si5 0.000000 0.113122 0.213258
Si Si6 0.198343 0.620839 0.846085
O O1 0.688782 0.750000 0.061182
O O2 0.726738 0.603109 0.085031
O O3 0.588944 0.639858 0.982556
O O4 0.757802 0.672557 0.925093
O O5 0.750000 0.567538 0.250000
O O6 0.903710 0.582957 0.127847
O O7 0.794101 0.466570 0.122007
O O8 0.000000 0.025571 0.187836
O O9 0.000000 0.000000 0.000000
O O10 0.000000 0.750000 0.607117
O O11 0.000000 0.615338 0.674899
O O12 0.092013 0.150238 0.167763
O O13 0.250000 0.635287 0.750000
#
# Coordination Sequence:
#
# PCOD8298078 Si02
#       6
#    16  16   8   8   8  16
#     4  11  23  39  58  85 122 160 199 249 307 368
#     4  10  22  39  62  87 117 160 209 251 300 356
#     4  10  20  39  62  87 125 159 194 258 308 347
#     4  10  22  37  56  87 126 158 189 244 315 372
#     4  10  18  34  58  86 118 152 190 243 300 364
#     4  10  19  35  60  85 118 151 194 244 303 365
#
# _framework density 19.956636
#
# number of rings (size 3 to 8) (size 9 to 14) (size 15 to 20)
#    0.000    1.778    2.222    3.333    0.000    2.667 
#    0.000    5.000    0.000    0.000    0.000    0.000 
#    0.000    0.000    0.000    0.000    0.000    0.000 
#
# Total GULP energy -446160.375128 kJ/mol
# GULP energy per Si atom -12393.343754 kJ/mol
# Density = 1.991121 g / cm^3
# Si number density = 19.956636 Si / 1000 Ang^3
#
#
#
# Elastic Constant Matrix: (Units=GPa)
#
#
# Indices 1 2 3 4 5 6 
#
# 1 196.1150 32.0234 66.3717 0.0000 0.0000 0.0000
# 2 32.0234 47.5090 44.6358 0.0000 0.0000 0.0000
# 3 66.3717 44.6358 100.6103 0.0000 0.0000 0.0000
# 4 0.0000 0.0000 0.0000 21.4606 0.0000 0.0000
# 5 0.0000 0.0000 0.0000 0.0000 38.2902 0.0000
# 6 0.0000 0.0000 0.0000 0.0000 0.0000 -4.3014
#
#
#
# Elastic Compliance Matrix: (Units=1/GPa)
#
#
# Indices 1 2 3 4 5 6 
#
# 1 0.006575 -0.000612 -0.004066 0.000000 0.000000 0.000000
# 2 -0.000612 0.036150 -0.015634 0.000000 0.000000 0.000000
# 3 -0.004066 -0.015634 0.019558 0.000000 0.000000 0.000000
# 4 0.000000 0.000000 0.000000 0.046597 0.000000 0.000000
# 5 0.000000 0.000000 0.000000 0.000000 0.026116 0.000000
# 6 0.000000 0.000000 0.000000 0.000000 0.000000 -0.232482
#
#
# Mechanical properties :
#
#
# Convention : Reuss Voigt Hill
#
# Bulk Modulus (GPa) = 46.17139 70.03291 58.10215
# Shear Modulus (GPa) = -100.72104 24.50345 -38.10880
#
# Velocity S-wave (km/s) = -7.11193 3.50785 -4.37462
# Velocity P-wave (km/s) = 6.65231 7.18160 1.91339
#
# Compressibility (1/GPa) = 0.02165843
#
# Stress axis : x y z
#
# Youngs Moduli (GPa) = 152.09046 27.66265 51.13019
#
# Poissons Ratio (x) = 0.01692 0.20790
# Poissons Ratio (y) = 0.09303 0.79939
# Poissons Ratio (z) = 0.61842 0.43249
#
# Static dielectric constant tensor:
#      x y z
#    x 3.915340 0.000000 0.000000 
#    y 0.000000 3.283330 0.000000 
#    z 0.000000 0.000000 3.862940 
# 
# 
# High freq. dielectric constant tensor:
#      x y z
#    x 1.805760 0.000000 0.000000 
#    y 0.000000 1.744790 0.000000 
#    z 0.000000 0.000000 1.774430 
# 
# From -- ./inp_files/31967.got.cif
#   From: 2010.03.12/outbox.cif.g09.slc.cpg/sg74_16_cif.got.tgz:31967.got - 2010.04.16 15:46:19.
