data_PCOD8298271
_publ_section_title
;
Structure prediction by ZEFSAII (Michael W. Deem and Ramdas Pophale) SiO2 
 PCOD8298271
Probable space group: I M M A
;
_chemical_formula_sum "Si O2"
_cell_formula_units_Z 96
_cell_length_a 8.872354
_cell_length_b 22.380205
_cell_length_c 27.452176
_cell_angle_alpha 90.000000
_cell_angle_beta 90.000000
_cell_angle_gamma 90.000000
_cell_volume 5451.044110
_symmetry_space_group_name_H-M "I M M A"
_symmetry_group_IT_number 74
_symmetry_cell_setting 'orthorhombic'
loop_
_space_group_symop_operation_xyz
x,y,z
-x,1/2-y,z
x,-y,-z
-x,1/2+y,-z
-x,-y,-z
x,1/2+y,-z
-x,y,z
x,1/2-y,z
1/2+x,1/2+y,1/2+z
1/2-x,-y,1/2+z
1/2+x,1/2-y,1/2-z
1/2-x,y,1/2-z
1/2-x,1/2-y,1/2-z
1/2+x,y,1/2-z
1/2-x,1/2+y,1/2+z
1/2+x,-y,1/2+z
loop_
_atom_site_type_symbol
_atom_site_label
_atom_site_fract_x
_atom_site_fract_y
_atom_site_fract_z
Si Si1 0.673580 0.554793 0.109194
Si Si2 0.677041 0.493722 0.301217
Si Si3 0.175989 0.121694 0.142668
Si Si4 0.672971 0.434292 0.053016
Si Si5 0.324128 0.250000 0.374473
Si Si6 0.677786 0.627682 0.467643
Si Si7 0.679241 0.250000 0.483967
O O1 0.500000 0.566248 0.122099
O O2 0.759840 0.539372 0.158881
O O3 0.694062 0.501872 0.070377
O O4 0.745604 0.613732 0.084647
O O5 0.500000 0.502757 0.297453
O O6 0.750000 0.509605 0.250000
O O7 0.719369 0.424867 0.314807
O O8 0.273247 0.109969 0.095048
O O9 0.217936 0.190422 0.156726
O O10 0.000000 0.114478 0.129277
O O11 0.500000 0.420726 0.039948
O O12 0.773758 0.423535 0.005637
O O13 0.500000 0.250000 0.384064
O O14 0.252145 0.250000 0.428997
O O15 0.500000 0.626392 0.460630
O O16 0.736576 0.691667 0.486973
O O17 0.500000 0.250000 0.482118
#
# Coordination Sequence:
#
# PCOD8298271 Si02
#       7
#    16  16  16  16   8  16   8
#     4  10  21  35  50  72 101 130 162 207 256 300
#     4  10  20  35  55  77  98 126 163 208 260 310
#     4   9  17  30  50  71  94 130 175 211 247 295
#     4  10  19  30  45  68 101 134 164 204 253 294
#     4   9  14  28  49  69  95 132 177 216 244 281
#     4  11  20  32  49  71 100 135 173 205 240 293
#     4   9  18  30  48  71 100 138 174 209 241 278
#
# _framework density 17.611305000000002
#
# number of rings (size 3 to 8) (size 9 to 14) (size 15 to 20)
#    0.000    2.167    1.667    2.500    0.000    4.667 
#    0.000    3.333    0.000    0.000    0.000    0.583 
#    0.000    0.000    0.000    0.000    0.000    0.000 
#
# Total GULP energy -595036.239299 kJ/mol
# GULP energy per Si atom -12396.588319 kJ/mol
# Density = 1.757122 g / cm^3
# Si number density = 17.611305 Si / 1000 Ang^3
#
#
#
# Elastic Constant Matrix: (Units=GPa)
#
#
# Indices 1 2 3 4 5 6 
#
# 1 64.0299 13.2346 38.6190 0.0000 0.0000 0.0000
# 2 13.2346 34.2623 35.2735 0.0000 0.0000 0.0000
# 3 38.6190 35.2735 97.5336 0.0000 0.0000 0.0000
# 4 0.0000 0.0000 0.0000 -1.6997 0.0000 0.0000
# 5 0.0000 0.0000 0.0000 0.0000 29.2392 0.0000
# 6 0.0000 0.0000 0.0000 0.0000 0.0000 13.6874
#
#
#
# Elastic Compliance Matrix: (Units=1/GPa)
#
#
# Indices 1 2 3 4 5 6 
#
# 1 0.020528 0.000699 -0.008381 0.000000 0.000000 0.000000
# 2 0.000699 0.046524 -0.017102 0.000000 0.000000 0.000000
# 3 -0.008381 -0.017102 0.019757 0.000000 0.000000 0.000000
# 4 0.000000 0.000000 0.000000 -0.588327 0.000000 0.000000
# 5 0.000000 0.000000 0.000000 0.000000 0.034201 0.000000
# 6 0.000000 0.000000 0.000000 0.000000 0.000000 0.073060
#
#
# Mechanical properties :
#
#
# Convention : Reuss Voigt Hill
#
# Bulk Modulus (GPa) = 26.85312 41.12000 33.98656
# Shear Modulus (GPa) = -15.04775 15.49194 0.22209
#
# Velocity S-wave (km/s) = -2.92625 2.96912 0.35550
# Velocity P-wave (km/s) = 1.96559 5.92904 4.41685
#
# Compressibility (1/GPa) = 0.03723962
#
# Stress axis : x y z
#
# Youngs Moduli (GPa) = 48.71354 21.49442 50.61622
#
# Poissons Ratio (x) = -0.01502 0.42421
# Poissons Ratio (y) = -0.03405 0.86565
# Poissons Ratio (z) = 0.40827 0.36760
#
# Static dielectric constant tensor:
#      x y z
#    x 3.210830 0.000000 0.000000 
#    y 0.000000 3.382670 0.000000 
#    z 0.000000 0.000000 3.080430 
# 
# 
# High freq. dielectric constant tensor:
#      x y z
#    x 1.677100 0.000000 0.000000 
#    y 0.000000 1.667330 0.000000 
#    z 0.000000 0.000000 1.656500 
# 
# From -- ./inp_files/64715.got.cif
#   From: 2010.03.12/outbox.cif.g09.slc.cpg/sg74_33_cif.got.tgz:64715.got - 2010.04.16 15:46:19.
