data_PCOD8298053
_publ_section_title
;
Structure prediction by ZEFSAII (Michael W. Deem and Ramdas Pophale) SiO2 
 PCOD8298053
Probable space group: I M M A
;
_chemical_formula_sum "Si O2"
_cell_formula_units_Z 76
_cell_length_a 10.911886
_cell_length_b 14.601804
_cell_length_c 28.930136
_cell_angle_alpha 90.000000
_cell_angle_beta 90.000000
_cell_angle_gamma 90.000000
_cell_volume 4609.531743
_symmetry_space_group_name_H-M "I M M A"
_symmetry_group_IT_number 74
_symmetry_cell_setting 'orthorhombic'
loop_
_space_group_symop_operation_xyz
x,y,z
-x,1/2-y,z
x,-y,-z
-x,1/2+y,-z
-x,-y,-z
x,1/2+y,-z
-x,y,z
x,1/2-y,z
1/2+x,1/2+y,1/2+z
1/2-x,-y,1/2+z
1/2+x,1/2-y,1/2-z
1/2-x,y,1/2-z
1/2-x,1/2-y,1/2-z
1/2+x,y,1/2-z
1/2-x,1/2+y,1/2+z
1/2+x,-y,1/2+z
loop_
_atom_site_type_symbol
_atom_site_label
_atom_site_fract_x
_atom_site_fract_y
_atom_site_fract_z
Si Si1 0.363011 0.909564 0.384236
Si Si2 0.750571 0.750000 0.434667
Si Si3 0.861032 0.250000 0.028786
Si Si4 0.500000 0.434568 0.042461
Si Si5 0.138832 0.143257 0.783729
Si Si6 0.000000 0.750000 0.489268
Si Si7 0.765483 0.948738 0.950190
O O1 0.500000 0.871825 0.393064
O O2 0.262467 0.840074 0.403860
O O3 0.342714 0.918962 0.329308
O O4 0.349361 0.005951 0.410820
O O5 0.645623 0.750000 0.473469
O O6 0.883588 0.750000 0.456503
O O7 0.796925 0.158192 0.047053
O O8 0.000000 0.250000 0.045464
O O9 0.373950 0.454769 0.069607
O O10 0.500000 0.500000 0.000000
O O11 0.500000 0.332841 0.023941
O O12 0.152211 0.250000 0.797263
O O13 0.250000 0.114091 0.750000
O O14 0.000000 0.126404 0.763255
O O15 0.782489 0.000000 0.000000
#
# Coordination Sequence:
#
# PCOD8298053 Si02
#       7
#    16   8   8   8  16   4  16
#     4  11  21  34  51  76 104 135 170 209 255 303
#     4  12  20  32  49  72  98 136 177 206 247 299
#     4  12  22  32  48  71 101 136 175 213 243 297
#     4  10  18  34  46  60  94 132 172 212 246 284
#     4   9  18  35  55  75 104 132 164 208 259 312
#     4  12  20  36  48  62  98 142 178 210 254 284
#     4  11  21  33  49  71 100 138 173 211 251 296
#
# _framework density 16.487575
#
# number of rings (size 3 to 8) (size 9 to 14) (size 15 to 20)
#    0.000    1.263    5.263    2.842    0.000    0.842 
#    3.789    0.000    0.000    0.000    0.000    0.737 
#    0.000    0.000    0.000    0.000    0.000    0.000 
#
# Total GULP energy -470908.903230 kJ/mol
# GULP energy per Si atom -12392.339559 kJ/mol
# Density = 1.645005 g / cm^3
# Si number density = 16.487575 Si / 1000 Ang^3
#
#
#
# Elastic Constant Matrix: (Units=GPa)
#
#
# Indices 1 2 3 4 5 6 
#
# 1 98.6315 8.2943 41.6515 0.0000 0.0000 0.0000
# 2 8.2943 85.2211 26.7487 0.0000 0.0000 0.0000
# 3 41.6515 26.7487 79.3991 0.0000 0.0000 0.0000
# 4 0.0000 0.0000 0.0000 19.2522 0.0000 0.0000
# 5 0.0000 0.0000 0.0000 0.0000 26.0521 0.0000
# 6 0.0000 0.0000 0.0000 0.0000 0.0000 21.3457
#
#
#
# Elastic Compliance Matrix: (Units=1/GPa)
#
#
# Indices 1 2 3 4 5 6 
#
# 1 0.013098 0.000986 -0.007203 0.000000 0.000000 0.000000
# 2 0.000986 0.013196 -0.004963 0.000000 0.000000 0.000000
# 3 -0.007203 -0.004963 0.018045 0.000000 0.000000 0.000000
# 4 0.000000 0.000000 0.000000 0.051942 0.000000 0.000000
# 5 0.000000 0.000000 0.000000 0.000000 0.038385 0.000000
# 6 0.000000 0.000000 0.000000 0.000000 0.000000 0.046848
#
#
# Mechanical properties :
#
#
# Convention : Reuss Voigt Hill
#
# Bulk Modulus (GPa) = 45.49774 46.29342 45.89558
# Shear Modulus (GPa) = 23.67433 25.76713 24.72073
#
# Velocity S-wave (km/s) = 3.79342 3.95754 3.87635
# Velocity P-wave (km/s) = 6.84411 7.00154 6.92327
#
# Compressibility (1/GPa) = 0.02197912
#
# Stress axis : x y z
#
# Youngs Moduli (GPa) = 76.34985 75.78105 55.41675
#
# Poissons Ratio (x) = -0.07473 0.39917
# Poissons Ratio (y) = -0.07529 0.27502
# Poissons Ratio (z) = 0.54995 0.37609
#
# Static dielectric constant tensor:
#      x y z
#    x 3.538590 0.000000 0.000000 
#    y 0.000000 3.064890 0.000000 
#    z 0.000000 0.000000 2.805560 
# 
# 
# High freq. dielectric constant tensor:
#      x y z
#    x 1.657860 0.000000 0.000000 
#    y 0.000000 1.623650 0.000000 
#    z 0.000000 0.000000 1.588980 
# 
# From -- ./inp_files/65881.got.cif
#   From: 2010.03.12/outbox.cif.g09.slc.cpg/sg74_33_cif.got.tgz:65881.got - 2010.04.16 15:46:19.
