data_PCOD8298137
_publ_section_title
;
Structure prediction by ZEFSAII (Michael W. Deem and Ramdas Pophale) SiO2 
 PCOD8298137
Probable space group: I M M A
;
_chemical_formula_sum "Si O2"
_cell_formula_units_Z 80
_cell_length_a 23.518296
_cell_length_b 13.853759
_cell_length_c 13.830853
_cell_angle_alpha 90.000000
_cell_angle_beta 90.000000
_cell_angle_gamma 90.000000
_cell_volume 4506.324333
_symmetry_space_group_name_H-M "I M M A"
_symmetry_group_IT_number 74
_symmetry_cell_setting 'orthorhombic'
loop_
_space_group_symop_operation_xyz
x,y,z
-x,1/2-y,z
x,-y,-z
-x,1/2+y,-z
-x,-y,-z
x,1/2+y,-z
-x,y,z
x,1/2-y,z
1/2+x,1/2+y,1/2+z
1/2-x,-y,1/2+z
1/2+x,1/2-y,1/2-z
1/2-x,y,1/2-z
1/2-x,1/2-y,1/2-z
1/2+x,y,1/2-z
1/2-x,1/2+y,1/2+z
1/2+x,-y,1/2+z
loop_
_atom_site_type_symbol
_atom_site_label
_atom_site_fract_x
_atom_site_fract_y
_atom_site_fract_z
Si Si1 0.117007 0.954549 0.267350
Si Si2 0.500000 0.366053 0.797559
Si Si3 0.710211 0.643084 0.342860
Si Si4 0.181774 0.362516 0.557020
Si Si5 0.500000 0.137428 0.014803
Si Si6 0.887526 0.862076 0.626429
O O1 0.157618 0.928511 0.176635
O O2 0.139141 0.913936 0.369391
O O3 0.055337 0.909749 0.244551
O O4 0.117138 0.071346 0.278081
O O5 0.500000 0.250000 0.790265
O O6 0.500000 0.407275 0.907512
O O7 0.685851 0.750000 0.365506
O O8 0.750000 0.647601 0.250000
O O9 0.751892 0.606407 0.429267
O O10 0.174487 0.250000 0.580886
O O11 0.164802 0.384279 0.446453
O O12 0.500000 0.250000 0.999014
O O13 0.555301 0.105115 0.072733
O O14 0.888536 0.750000 0.658419
#
# Coordination Sequence:
#
# PCOD8298137 Si02
#       6
#    16   8  16  16   8  16
#     4  11  18  25  40  58  80 108 136 164 200 237
#     4  11  19  25  38  60  85 109 134 165 199 238
#     4   8  15  27  41  55  73 100 134 170 205 243
#     4   9  16  27  41  56  74  99 135 172 205 241
#     4   9  17  27  35  50  83 113 133 159 191 227
#     4  10  19  28  38  57  82 111 144 170 193 229
#
# _framework density 17.752828000000001
#
# number of rings (size 3 to 8) (size 9 to 14) (size 15 to 20)
#    0.000    2.400    2.000    4.200    0.000    0.800 
#    0.000    0.000    0.000    5.400    0.000    0.000 
#    0.000    0.000    0.000   34.200    0.000   78.600 
#
# Total GULP energy -495759.002866 kJ/mol
# GULP energy per Si atom -12393.975072 kJ/mol
# Density = 1.771242 g / cm^3
# Si number density = 17.752828 Si / 1000 Ang^3
#
#
#
# Elastic Constant Matrix: (Units=GPa)
#
#
# Indices 1 2 3 4 5 6 
#
# 1 135.2683 55.8252 35.5236 0.0000 0.0000 0.0000
# 2 55.8252 83.4111 25.2216 0.0000 0.0000 0.0000
# 3 35.5236 25.2216 20.2112 0.0000 0.0000 0.0000
# 4 0.0000 0.0000 0.0000 12.5174 0.0000 0.0000
# 5 0.0000 0.0000 0.0000 0.0000 13.9604 0.0000
# 6 0.0000 0.0000 0.0000 0.0000 0.0000 16.5071
#
#
#
# Elastic Compliance Matrix: (Units=1/GPa)
#
#
# Indices 1 2 3 4 5 6 
#
# 1 0.014227 -0.003149 -0.021077 0.000000 0.000000 0.000000
# 2 -0.003149 0.019951 -0.019362 0.000000 0.000000 0.000000
# 3 -0.021077 -0.019362 0.110685 0.000000 0.000000 0.000000
# 4 0.000000 0.000000 0.000000 0.079889 0.000000 0.000000
# 5 0.000000 0.000000 0.000000 0.000000 0.071631 0.000000
# 6 0.000000 0.000000 0.000000 0.000000 0.000000 0.060580
#
#
# Mechanical properties :
#
#
# Convention : Reuss Voigt Hill
#
# Bulk Modulus (GPa) = 17.33488 52.44794 34.89141
# Shear Modulus (GPa) = 10.79056 16.75166 13.77111
#
# Velocity S-wave (km/s) = 2.46808 3.07515 2.78818
# Velocity P-wave (km/s) = 4.23174 6.49741 5.48288
#
# Compressibility (1/GPa) = 0.05768717
#
# Stress axis : x y z
#
# Youngs Moduli (GPa) = 70.28701 50.12270 9.03467
#
# Poissons Ratio (x) = 0.15783 0.19042
# Poissons Ratio (y) = 0.22133 0.17493
# Poissons Ratio (z) = 1.48142 0.97049
#
# Static dielectric constant tensor:
#      x y z
#    x 3.235400 0.000000 0.000000 
#    y 0.000000 3.350770 0.000000 
#    z 0.000000 0.000000 2.867180 
# 
# 
# High freq. dielectric constant tensor:
#      x y z
#    x 1.688720 0.000000 0.000000 
#    y 0.000000 1.694970 0.000000 
#    z 0.000000 0.000000 1.601830 
# 
# From -- ./inp_files/24907.got.cif
#   From: 2010.03.12/outbox.cif.g09.slc.cpg/sg74_13_cif.got.tgz:24907.got - 2010.04.16 15:46:19.
