data_PCOD8298366
_publ_section_title
;
Structure prediction by ZEFSAII (Michael W. Deem and Ramdas Pophale) SiO2 
 PCOD8298366
Probable space group: I M M A
;
_chemical_formula_sum "Si O2"
_cell_formula_units_Z 72
_cell_length_a 9.202616
_cell_length_b 16.483505
_cell_length_c 24.972654
_cell_angle_alpha 90.000000
_cell_angle_beta 90.000000
_cell_angle_gamma 90.000000
_cell_volume 3788.136019
_symmetry_space_group_name_H-M "I M M A"
_symmetry_group_IT_number 74
_symmetry_cell_setting 'orthorhombic'
loop_
_space_group_symop_operation_xyz
x,y,z
-x,1/2-y,z
x,-y,-z
-x,1/2+y,-z
-x,-y,-z
x,1/2+y,-z
-x,y,z
x,1/2-y,z
1/2+x,1/2+y,1/2+z
1/2-x,-y,1/2+z
1/2+x,1/2-y,1/2-z
1/2-x,y,1/2-z
1/2-x,1/2-y,1/2-z
1/2+x,y,1/2-z
1/2-x,1/2+y,1/2+z
1/2+x,-y,1/2+z
loop_
_atom_site_type_symbol
_atom_site_label
_atom_site_fract_x
_atom_site_fract_y
_atom_site_fract_z
Si Si1 0.662267 0.845805 0.800113
Si Si2 0.828027 0.111896 0.888023
Si Si3 0.171545 0.928510 0.891987
Si Si4 0.171961 0.339922 0.003087
Si Si5 0.827103 0.750000 0.192868
O O1 0.500000 0.882978 0.800247
O O2 0.654112 0.750000 0.795053
O O3 0.750000 0.883262 0.750000
O O4 0.745323 0.867108 0.854007
O O5 0.760010 0.138376 0.945169
O O6 0.774411 0.170604 0.840292
O O7 0.000000 0.118292 0.891984
O O8 0.779739 0.019613 0.877161
O O9 0.000000 0.915911 0.884427
O O10 0.219616 0.905849 0.952541
O O11 0.225250 0.250000 0.020087
O O12 0.000000 0.341417 0.997737
O O13 0.750000 0.750000 0.250000
O O14 0.000000 0.750000 0.201394
#
# Coordination Sequence:
#
# PCOD8298366 Si02
#       5
#    16  16  16  16   8
#     4  10  21  37  55  74 102 139 175 212 258 314
#     4   9  17  31  50  75 107 140 174 219 268 313
#     4  10  19  30  51  83 110 134 172 219 268 318
#     4   9  15  26  48  78 109 139 174 216 261 312
#     4  10  20  36  56  74 100 140 185 226 269 316
#
# _framework density 19.006710000000002
#
# number of rings (size 3 to 8) (size 9 to 14) (size 15 to 20)
#    0.000    2.444    1.111    2.000    0.000    5.778 
#    0.000    3.333    0.000    4.000    0.000    0.000 
#    0.000    0.000    0.000    0.000    0.000    0.000 
#
# Total GULP energy -446280.126017 kJ/mol
# GULP energy per Si atom -12396.670167 kJ/mol
# Density = 1.896345 g / cm^3
# Si number density = 19.006710 Si / 1000 Ang^3
#
#
#
# Elastic Constant Matrix: (Units=GPa)
#
#
# Indices 1 2 3 4 5 6 
#
# 1 49.2803 23.1217 43.1464 0.0000 0.0000 0.0000
# 2 23.1217 72.5908 41.6560 0.0000 0.0000 0.0000
# 3 43.1464 41.6560 151.1433 0.0000 0.0000 0.0000
# 4 0.0000 0.0000 0.0000 23.8200 0.0000 0.0000
# 5 0.0000 0.0000 0.0000 0.0000 21.2581 0.0000
# 6 0.0000 0.0000 0.0000 0.0000 0.0000 13.8674
#
#
#
# Elastic Compliance Matrix: (Units=1/GPa)
#
#
# Indices 1 2 3 4 5 6 
#
# 1 0.028654 -0.005266 -0.006728 0.000000 0.000000 0.000000
# 2 -0.005266 0.017332 -0.003273 0.000000 0.000000 0.000000
# 3 -0.006728 -0.003273 0.009439 0.000000 0.000000 0.000000
# 4 0.000000 0.000000 0.000000 0.041981 0.000000 0.000000
# 5 0.000000 0.000000 0.000000 0.000000 0.047041 0.000000
# 6 0.000000 0.000000 0.000000 0.000000 0.000000 0.072112
#
#
# Mechanical properties :
#
#
# Convention : Reuss Voigt Hill
#
# Bulk Modulus (GPa) = 40.17817 54.31805 47.24811
# Shear Modulus (GPa) = 19.57792 22.79514 21.18653
#
# Velocity S-wave (km/s) = 3.21293 3.46688 3.34231
# Velocity P-wave (km/s) = 5.91174 6.68327 6.30931
#
# Compressibility (1/GPa) = 0.02488914
#
# Stress axis : x y z
#
# Youngs Moduli (GPa) = 34.89964 57.69821 105.94156
#
# Poissons Ratio (x) = 0.30382 0.71282
# Poissons Ratio (y) = 0.18377 0.34680
# Poissons Ratio (z) = 0.23482 0.18887
#
# Static dielectric constant tensor:
#      x y z
#    x 3.054320 0.000000 0.000000 
#    y 0.000000 3.595380 0.000000 
#    z 0.000000 0.000000 3.602500 
# 
# 
# High freq. dielectric constant tensor:
#      x y z
#    x 1.682010 0.000000 0.000000 
#    y 0.000000 1.741550 0.000000 
#    z 0.000000 0.000000 1.750020 
# 
# From -- ./inp_files/56685.got.cif
#   From: 2010.03.12/outbox.cif.g09.slc.cpg/sg74_29_cif.got.tgz:56685.got - 2010.04.16 15:46:19.
