data_PCOD8298747
_publ_section_title
;
Structure prediction by ZEFSAII (Michael W. Deem and Ramdas Pophale) SiO2 
 PCOD8298747
Probable space group: I M M A
;
_chemical_formula_sum "Si O2"
_cell_formula_units_Z 88
_cell_length_a 31.637433
_cell_length_b 16.629612
_cell_length_c 9.081795
_cell_angle_alpha 90.000000
_cell_angle_beta 90.000000
_cell_angle_gamma 90.000000
_cell_volume 4778.097960
_symmetry_space_group_name_H-M "I M M A"
_symmetry_group_IT_number 74
_symmetry_cell_setting 'orthorhombic'
loop_
_space_group_symop_operation_xyz
x,y,z
-x,1/2-y,z
x,-y,-z
-x,1/2+y,-z
-x,-y,-z
x,1/2+y,-z
-x,y,z
x,1/2-y,z
1/2+x,1/2+y,1/2+z
1/2-x,-y,1/2+z
1/2+x,1/2-y,1/2-z
1/2-x,y,1/2-z
1/2-x,1/2-y,1/2-z
1/2+x,y,1/2-z
1/2-x,1/2+y,1/2+z
1/2+x,-y,1/2+z
loop_
_atom_site_type_symbol
_atom_site_label
_atom_site_fract_x
_atom_site_fract_y
_atom_site_fract_z
Si Si1 0.548504 0.159366 0.357717
Si Si2 0.600988 0.422299 0.597275
Si Si3 0.766793 0.659303 0.484216
Si Si4 0.250000 0.546172 0.750000
Si Si5 0.693560 0.100227 0.699769
Si Si6 0.950601 0.009304 0.334336
O O1 0.500000 0.145452 0.406461
O O2 0.555895 0.250000 0.300359
O O3 0.577652 0.144897 0.500031
O O4 0.560033 0.098848 0.224800
O O5 0.609172 0.500000 0.500000
O O6 0.645456 0.389876 0.653794
O O7 0.572051 0.442232 0.736689
O O8 0.776079 0.750000 0.536197
O O9 0.769690 0.601202 0.623572
O O10 0.720660 0.656168 0.409242
O O11 0.802037 0.630797 0.367371
O O12 0.288202 0.490930 0.687810
O O13 0.000000 0.990748 0.326644
O O14 0.933458 0.000000 0.500000
#
# Coordination Sequence:
#
# PCOD8298747 Si02
#       6
#    16  16  16   8  16  16
#     4   9  18  33  53  77 105 136 171 213 257 302
#     4  10  19  32  53  76 100 134 175 212 251 306
#     4  10  20  34  52  73  99 129 164 207 254 299
#     4  10  19  34  53  74  98 130 172 208 245 300
#     4  10  19  34  52  73  99 132 167 204 250 300
#     4   9  18  33  53  76 102 135 173 212 256 308
#
# _framework density 18.417369000000001
#
# number of rings (size 3 to 8) (size 9 to 14) (size 15 to 20)
#    0.000    2.545    0.000    5.182    0.000    5.091 
#    0.000    0.909    0.000   10.909    0.000    0.000 
#    0.000    0.000    0.000    0.000    0.000    0.000 
#
# Total GULP energy -545596.676289 kJ/mol
# GULP energy per Si atom -12399.924461 kJ/mol
# Density = 1.837545 g / cm^3
# Si number density = 18.417369 Si / 1000 Ang^3
#
#
#
# Elastic Constant Matrix: (Units=GPa)
#
#
# Indices 1 2 3 4 5 6 
#
# 1 89.1286 27.9415 45.9983 0.0000 0.0000 0.0000
# 2 27.9415 96.7967 36.2438 0.0000 0.0000 0.0000
# 3 45.9983 36.2438 112.0513 0.0000 0.0000 0.0000
# 4 0.0000 0.0000 0.0000 24.1105 0.0000 0.0000
# 5 0.0000 0.0000 0.0000 0.0000 23.3896 0.0000
# 6 0.0000 0.0000 0.0000 0.0000 0.0000 10.8851
#
#
#
# Elastic Compliance Matrix: (Units=1/GPa)
#
#
# Indices 1 2 3 4 5 6 
#
# 1 0.014654 -0.002250 -0.005288 0.000000 0.000000 0.000000
# 2 -0.002250 0.012100 -0.002990 0.000000 0.000000 0.000000
# 3 -0.005288 -0.002990 0.012062 0.000000 0.000000 0.000000
# 4 0.000000 0.000000 0.000000 0.041476 0.000000 0.000000
# 5 0.000000 0.000000 0.000000 0.000000 0.042754 0.000000
# 6 0.000000 0.000000 0.000000 0.000000 0.000000 0.091869
#
#
# Mechanical properties :
#
#
# Convention : Reuss Voigt Hill
#
# Bulk Modulus (GPa) = 56.30532 57.59374 56.94953
# Shear Modulus (GPa) = 20.67040 24.19657 22.43349
#
# Velocity S-wave (km/s) = 3.35376 3.62856 3.49386
# Velocity P-wave (km/s) = 6.75538 6.99246 6.87494
#
# Compressibility (1/GPa) = 0.01776031
#
# Stress axis : x y z
#
# Youngs Moduli (GPa) = 68.24001 82.64421 82.90227
#
# Poissons Ratio (x) = 0.18596 0.43838
# Poissons Ratio (y) = 0.15355 0.24789
# Poissons Ratio (z) = 0.36084 0.24712
#
# Static dielectric constant tensor:
#      x y z
#    x 3.214130 0.000000 0.000000 
#    y 0.000000 3.327830 0.000000 
#    z 0.000000 0.000000 3.483360 
# 
# 
# High freq. dielectric constant tensor:
#      x y z
#    x 1.699050 0.000000 0.000000 
#    y 0.000000 1.709850 0.000000 
#    z 0.000000 0.000000 1.715730 
# 
# From -- ./inp_files/16082.got.cif
#   From: 2010.03.12/outbox.cif.g09.slc.cpg/sg74_9_cif.got.tgz:16082.got - 2010.04.16 15:46:19.
