data_PCOD8298552
_publ_section_title
;
Structure prediction by ZEFSAII (Michael W. Deem and Ramdas Pophale) SiO2 
 PCOD8298552
Probable space group: I M M A
;
_chemical_formula_sum "Si O2"
_cell_formula_units_Z 104
_cell_length_a 8.939285
_cell_length_b 31.283964
_cell_length_c 20.702629
_cell_angle_alpha 90.000000
_cell_angle_beta 90.000000
_cell_angle_gamma 90.000000
_cell_volume 5789.620008
_symmetry_space_group_name_H-M "I M M A"
_symmetry_group_IT_number 74
_symmetry_cell_setting 'orthorhombic'
loop_
_space_group_symop_operation_xyz
x,y,z
-x,1/2-y,z
x,-y,-z
-x,1/2+y,-z
-x,-y,-z
x,1/2+y,-z
-x,y,z
x,1/2-y,z
1/2+x,1/2+y,1/2+z
1/2-x,-y,1/2+z
1/2+x,1/2-y,1/2-z
1/2-x,y,1/2-z
1/2-x,1/2-y,1/2-z
1/2+x,y,1/2-z
1/2-x,1/2+y,1/2+z
1/2+x,-y,1/2+z
loop_
_atom_site_type_symbol
_atom_site_label
_atom_site_fract_x
_atom_site_fract_y
_atom_site_fract_z
Si Si1 0.678033 0.385280 0.070828
Si Si2 0.171794 0.250000 0.684203
Si Si3 0.672150 0.037559 0.683745
Si Si4 0.669786 0.316613 0.916633
Si Si5 0.824667 0.798294 0.953933
Si Si6 0.173426 0.437009 0.184438
Si Si7 0.831031 0.587784 0.428281
O O1 0.500000 0.383416 0.074127
O O2 0.743715 0.415168 0.125362
O O3 0.737009 0.336698 0.082154
O O4 0.728485 0.406302 0.002150
O O5 0.250000 0.250000 0.750000
O O6 0.220949 0.207878 0.646547
O O7 0.000000 0.250000 0.698892
O O8 0.500000 0.050289 0.689780
O O9 0.750000 0.054211 0.750000
O O10 0.733986 0.057019 0.616899
O O11 0.696293 0.987284 0.676876
O O12 0.500000 0.304639 0.938961
O O13 0.784718 0.302314 0.971189
O O14 0.677446 0.365763 0.896538
O O15 0.781215 0.750000 0.929460
O O16 0.000000 0.805866 0.944020
O O17 0.250000 0.420478 0.250000
O O18 0.000000 0.424002 0.185178
O O19 0.000000 0.569727 0.429140
#
# Coordination Sequence:
#
# PCOD8298552 Si02
#       7
#    16   8  16  16  16  16  16
#     4  10  21  36  56  83 112 144 180 219 269 321
#     4  10  20  32  46  64  92 130 175 222 267 318
#     4  10  21  36  55  77 104 143 184 224 272 323
#     4   9  18  33  50  68  95 134 174 217 268 317
#     4  10  19  31  52  80 107 136 172 215 260 310
#     4  10  21  38  59  82 109 141 179 220 265 323
#     4   9  19  34  52  77 107 138 179 226 272 320
#
# _framework density 17.963182
#
# number of rings (size 3 to 8) (size 9 to 14) (size 15 to 20)
#    0.000    2.308    0.769    2.769    0.000    7.692 
#    0.000    4.615    0.000    0.462    0.000    0.000 
#    0.000    0.000    0.000    0.000    0.000    0.000 
#
# Total GULP energy -644499.114493 kJ/mol
# GULP energy per Si atom -12394.213740 kJ/mol
# Density = 1.792230 g / cm^3
# Si number density = 17.963182 Si / 1000 Ang^3
#
#
#
# Elastic Constant Matrix: (Units=GPa)
#
#
# Indices 1 2 3 4 5 6 
#
# 1 88.3759 41.0427 47.7889 -0.0001 0.0000 0.0000
# 2 41.0427 55.4737 46.5322 0.0000 0.0000 0.0000
# 3 47.7889 46.5322 111.8992 0.0002 0.0000 0.0000
# 4 -0.0001 0.0000 0.0002 17.5369 0.0000 0.0000
# 5 0.0000 0.0000 0.0000 0.0000 33.8599 0.0000
# 6 0.0000 0.0000 0.0000 0.0000 0.0000 30.3497
#
#
#
# Elastic Compliance Matrix: (Units=1/GPa)
#
#
# Indices 1 2 3 4 5 6 
#
# 1 0.017999 -0.010548 -0.003300 0.000000 0.000000 0.000000
# 2 -0.010548 0.033864 -0.009577 0.000000 0.000000 0.000000
# 3 -0.003300 -0.009577 0.014329 0.000000 0.000000 0.000000
# 4 0.000000 0.000000 0.000000 0.057023 0.000000 0.000000
# 5 0.000000 0.000000 0.000000 0.000000 0.029533 0.000000
# 6 0.000000 0.000000 0.000000 0.000000 0.000000 0.032949
#
#
# Mechanical properties :
#
#
# Convention : Reuss Voigt Hill
#
# Bulk Modulus (GPa) = 51.70612 58.49738 55.10175
# Shear Modulus (GPa) = 20.92093 24.37496 22.64795
#
# Velocity S-wave (km/s) = 3.41641 3.68766 3.55462
# Velocity P-wave (km/s) = 6.66404 7.12514 6.89845
#
# Compressibility (1/GPa) = 0.01934007
#
# Stress axis : x y z
#
# Youngs Moduli (GPa) = 55.55993 29.52973 69.78963
#
# Poissons Ratio (x) = 0.31148 0.23033
# Poissons Ratio (y) = 0.58604 0.66840
# Poissons Ratio (z) = 0.18337 0.28282
#
# Static dielectric constant tensor:
#      x y z
#    x 3.520660 0.000000 0.000000 
#    y 0.000000 3.119750 0.000000 
#    z 0.000000 0.000000 3.211180 
# 
# 
# High freq. dielectric constant tensor:
#      x y z
#    x 1.701810 0.000000 0.000000 
#    y 0.000000 1.697920 0.000000 
#    z 0.000000 0.000000 1.679900 
# 
# From -- ./inp_files/49238.got.cif
#   From: 2010.03.12/outbox.cif.g09.slc.cpg/sg74_25_cif.got.tgz:49238.got - 2010.04.16 15:46:19.
