data_PCOD8298017
_publ_section_title
;
Structure prediction by ZEFSAII (Michael W. Deem and Ramdas Pophale) SiO2 
 PCOD8298017
Probable space group: I M M A
;
_chemical_formula_sum "Si O2"
_cell_formula_units_Z 72
_cell_length_a 20.878401
_cell_length_b 7.438905
_cell_length_c 26.059988
_cell_angle_alpha 90.000000
_cell_angle_beta 90.000000
_cell_angle_gamma 90.000000
_cell_volume 4047.440364
_symmetry_space_group_name_H-M "I M M A"
_symmetry_group_IT_number 74
_symmetry_cell_setting 'orthorhombic'
loop_
_space_group_symop_operation_xyz
x,y,z
-x,1/2-y,z
x,-y,-z
-x,1/2+y,-z
-x,-y,-z
x,1/2+y,-z
-x,y,z
x,1/2-y,z
1/2+x,1/2+y,1/2+z
1/2-x,-y,1/2+z
1/2+x,1/2-y,1/2-z
1/2-x,y,1/2-z
1/2-x,1/2-y,1/2-z
1/2+x,y,1/2-z
1/2-x,1/2+y,1/2+z
1/2+x,-y,1/2+z
loop_
_atom_site_type_symbol
_atom_site_label
_atom_site_fract_x
_atom_site_fract_y
_atom_site_fract_z
Si Si1 0.635833 0.952576 0.614726
Si Si2 0.600005 0.250000 0.780076
Si Si3 0.500000 0.458109 0.252777
Si Si4 0.689369 0.750000 0.130775
Si Si5 0.818829 0.250000 0.813255
Si Si6 0.500000 0.959460 0.370026
Si Si7 0.760709 0.043776 0.441558
O O1 0.647774 0.750000 0.632546
O O2 0.685775 0.003619 0.569403
O O3 0.647196 0.074250 0.664018
O O4 0.562264 0.981390 0.596829
O O5 0.561324 0.432726 0.768329
O O6 0.621504 0.250000 0.839814
O O7 0.665605 0.250000 0.746860
O O8 0.500000 0.250000 0.232716
O O9 0.500000 0.446813 0.314475
O O10 0.744020 0.750000 0.174397
O O11 0.694166 0.573970 0.095118
O O12 0.500000 0.750000 0.359660
O O13 0.776396 0.250000 0.429519
O O14 0.776119 0.000000 0.500000
#
# Coordination Sequence:
#
# PCOD8298017 Si02
#       7
#    16   8   8   8   8   8  16
#     4  10  19  30  49  75 104 143 188 224 263 316
#     4  11  21  36  52  84 113 145 192 215 267 327
#     4  11  21  34  55  76 109 154 180 220 265 315
#     4  10  22  35  56  81 113 143 178 236 269 325
#     4  10  18  33  50  77 111 149 181 221 268 317
#     4  12  18  31  50  75 103 147 198 221 262 314
#     4  10  20  36  57  78 104 141 181 225 284 324
#
# _framework density 17.789020000000001
#
# number of rings (size 3 to 8) (size 9 to 14) (size 15 to 20)
#    0.000    1.556    5.556    1.333    0.000    0.889 
#    0.000    0.556    0.000    6.667    0.000    3.111 
#    0.000    0.000    0.000    0.000    0.000    0.000 
#
# Total GULP energy -446263.544195 kJ/mol
# GULP energy per Si atom -12396.209561 kJ/mol
# Density = 1.774853 g / cm^3
# Si number density = 17.789020 Si / 1000 Ang^3
#
#
#
# Elastic Constant Matrix: (Units=GPa)
#
#
# Indices 1 2 3 4 5 6 
#
# 1 39.3173 18.9955 32.0589 0.0000 0.0000 0.0000
# 2 18.9955 131.3375 34.4841 0.0000 0.0000 0.0000
# 3 32.0589 34.4841 87.9329 0.0000 0.0000 0.0000
# 4 0.0000 0.0000 0.0000 16.2673 0.0000 0.0000
# 5 0.0000 0.0000 0.0000 0.0000 22.0469 0.0000
# 6 0.0000 0.0000 0.0000 0.0000 0.0000 15.3322
#
#
#
# Elastic Compliance Matrix: (Units=1/GPa)
#
#
# Indices 1 2 3 4 5 6 
#
# 1 0.036658 -0.001999 -0.012581 0.000000 0.000000 0.000000
# 2 -0.001999 0.008597 -0.002643 0.000000 0.000000 0.000000
# 3 -0.012581 -0.002643 0.016996 0.000000 0.000000 0.000000
# 4 0.000000 0.000000 0.000000 0.061473 0.000000 0.000000
# 5 0.000000 0.000000 0.000000 0.000000 0.045358 0.000000
# 6 0.000000 0.000000 0.000000 0.000000 0.000000 0.065222
#
#
# Mechanical properties :
#
#
# Convention : Reuss Voigt Hill
#
# Bulk Modulus (GPa) = 35.96392 47.74053 41.85223
# Shear Modulus (GPa) = 17.98447 22.26589 20.12518
#
# Velocity S-wave (km/s) = 3.18305 3.54173 3.36717
# Velocity P-wave (km/s) = 5.81119 6.60458 6.22054
#
# Compressibility (1/GPa) = 0.02780564
#
# Stress axis : x y z
#
# Youngs Moduli (GPa) = 27.27899 116.32083 58.83864
#
# Poissons Ratio (x) = 0.23248 0.74026
# Poissons Ratio (y) = 0.05452 0.15550
# Poissons Ratio (z) = 0.34320 0.30741
#
# Static dielectric constant tensor:
#      x y z
#    x 3.195240 0.000000 0.000000 
#    y 0.000000 3.488930 0.000000 
#    z 0.000000 0.000000 2.979740 
# 
# 
# High freq. dielectric constant tensor:
#      x y z
#    x 1.666980 0.000000 0.000000 
#    y 0.000000 1.707130 0.000000 
#    z 0.000000 0.000000 1.654490 
# 
# From -- ./inp_files/68025.got.cif
#   From: 2010.03.12/outbox.cif.g09.slc.cpg/sg74_35_cif.got.tgz:68025.got - 2010.04.16 15:46:19.
