data_PCOD8298400
_publ_section_title
;
Structure prediction by ZEFSAII (Michael W. Deem and Ramdas Pophale) SiO2 
 PCOD8298400
Probable space group: I M M A
;
_chemical_formula_sum "Si O2"
_cell_formula_units_Z 80
_cell_length_a 28.846829
_cell_length_b 9.319851
_cell_length_c 15.111083
_cell_angle_alpha 90.000000
_cell_angle_beta 90.000000
_cell_angle_gamma 90.000000
_cell_volume 4062.586680
_symmetry_space_group_name_H-M "I M M A"
_symmetry_group_IT_number 74
_symmetry_cell_setting 'orthorhombic'
loop_
_space_group_symop_operation_xyz
x,y,z
-x,1/2-y,z
x,-y,-z
-x,1/2+y,-z
-x,-y,-z
x,1/2+y,-z
-x,y,z
x,1/2-y,z
1/2+x,1/2+y,1/2+z
1/2-x,-y,1/2+z
1/2+x,1/2-y,1/2-z
1/2-x,y,1/2-z
1/2-x,1/2-y,1/2-z
1/2+x,y,1/2-z
1/2-x,1/2+y,1/2+z
1/2+x,-y,1/2+z
loop_
_atom_site_type_symbol
_atom_site_label
_atom_site_fract_x
_atom_site_fract_y
_atom_site_fract_z
Si Si1 0.730030 0.911253 0.652523
Si Si2 0.449619 0.588615 0.246877
Si Si3 0.650135 0.086835 0.721623
Si Si4 0.053085 0.594921 0.575210
Si Si5 0.186072 0.919089 0.415392
O O1 0.726300 0.750000 0.612606
O O2 0.750000 0.904159 0.750000
O O3 0.679105 0.982529 0.658129
O O4 0.762697 0.011870 0.593739
O O5 0.500000 0.563637 0.295259
O O6 0.448466 0.750000 0.207392
O O7 0.404025 0.567965 0.307837
O O8 0.443812 0.477076 0.169407
O O9 0.667192 0.250000 0.706299
O O10 0.655994 0.049998 0.826668
O O11 0.078308 0.500000 0.500000
O O12 0.078073 0.750000 0.579476
O O13 0.000000 0.617296 0.547152
O O14 0.190527 0.750000 0.433979
O O15 0.162849 0.000000 0.500000
#
# Coordination Sequence:
#
# PCOD8298400 Si02
#       5
#    16  16  16  16  16
#     4   9  17  30  48  68  89 115 147 183 226 276
#     4   9  17  29  43  59  82 113 150 189 223 256
#     4   9  18  31  46  65  90 122 155 187 227 270
#     4   9  16  25  36  49  67  95 133 176 220 260
#     4  10  19  31  47  67  92 119 149 187 228 272
#
# _framework density 19.691887000000001
#
# number of rings (size 3 to 8) (size 9 to 14) (size 15 to 20)
#    0.000    2.800    0.000    1.800    0.000    7.200 
#    0.000    2.000    0.000    0.000    0.000    0.000 
#    0.000    0.800    0.000    2.200    0.000    3.200 
#
# Total GULP energy -495555.299813 kJ/mol
# GULP energy per Si atom -12388.882495 kJ/mol
# Density = 1.964707 g / cm^3
# Si number density = 19.691887 Si / 1000 Ang^3
#
#
#
# Elastic Constant Matrix: (Units=GPa)
#
#
# Indices 1 2 3 4 5 6 
#
# 1 125.9570 41.3049 3.0057 0.0000 0.0000 0.0000
# 2 41.3049 122.2976 5.6044 0.0000 0.0000 0.0000
# 3 3.0057 5.6044 12.4702 0.0000 0.0000 0.0000
# 4 0.0000 0.0000 0.0000 21.1999 0.0000 0.0000
# 5 0.0000 0.0000 0.0000 0.0000 9.0284 0.0000
# 6 0.0000 0.0000 0.0000 0.0000 0.0000 16.9657
#
#
#
# Elastic Compliance Matrix: (Units=1/GPa)
#
#
# Indices 1 2 3 4 5 6 
#
# 1 0.008936 -0.002981 -0.000814 0.000000 0.000000 0.000000
# 2 -0.002981 0.009343 -0.003481 0.000000 0.000000 0.000000
# 3 -0.000814 -0.003481 0.081952 0.000000 0.000000 0.000000
# 4 0.000000 0.000000 0.000000 0.047170 0.000000 0.000000
# 5 0.000000 0.000000 0.000000 0.000000 0.110761 0.000000
# 6 0.000000 0.000000 0.000000 0.000000 0.000000 0.058943
#
#
# Mechanical properties :
#
#
# Convention : Reuss Voigt Hill
#
# Bulk Modulus (GPa) = 11.67135 40.06165 25.86650
# Shear Modulus (GPa) = 13.88057 23.49278 18.68668
#
# Velocity S-wave (km/s) = 2.65785 3.45776 3.08385
# Velocity P-wave (km/s) = 3.91903 6.02742 5.08373
#
# Compressibility (1/GPa) = 0.08567987
#
# Stress axis : x y z
#
# Youngs Moduli (GPa) = 111.90518 107.03188 12.20229
#
# Poissons Ratio (x) = 0.31904 0.00994
# Poissons Ratio (y) = 0.33357 0.04247
# Poissons Ratio (z) = 0.09112 0.37253
#
# Static dielectric constant tensor:
#      x y z
#    x 3.807500 0.000000 0.000000 
#    y 0.000000 3.892860 0.000000 
#    z 0.000000 0.000000 2.982050 
# 
# 
# High freq. dielectric constant tensor:
#      x y z
#    x 1.771090 0.000000 0.000000 
#    y 0.000000 1.782890 0.000000 
#    z 0.000000 0.000000 1.688980 
# 
# From -- ./inp_files/39941.got.cif
#   From: 2010.03.12/outbox.cif.g09.slc.cpg/sg74_20_cif.got.tgz:39941.got - 2010.04.16 15:46:19.
