data_PCOD8298333
_publ_section_title
;
Structure prediction by ZEFSAII (Michael W. Deem and Ramdas Pophale) SiO2 
 PCOD8298333
Probable space group: I M M A
;
_chemical_formula_sum "Si O2"
_cell_formula_units_Z 96
_cell_length_a 21.039569
_cell_length_b 24.351376
_cell_length_c 9.341530
_cell_angle_alpha 90.000000
_cell_angle_beta 90.000000
_cell_angle_gamma 90.000000
_cell_volume 4786.062419
_symmetry_space_group_name_H-M "I M M A"
_symmetry_group_IT_number 74
_symmetry_cell_setting 'orthorhombic'
loop_
_space_group_symop_operation_xyz
x,y,z
-x,1/2-y,z
x,-y,-z
-x,1/2+y,-z
-x,-y,-z
x,1/2+y,-z
-x,y,z
x,1/2-y,z
1/2+x,1/2+y,1/2+z
1/2-x,-y,1/2+z
1/2+x,1/2-y,1/2-z
1/2-x,y,1/2-z
1/2-x,1/2-y,1/2-z
1/2+x,y,1/2-z
1/2-x,1/2+y,1/2+z
1/2+x,-y,1/2+z
loop_
_atom_site_type_symbol
_atom_site_label
_atom_site_fract_x
_atom_site_fract_y
_atom_site_fract_z
Si Si1 0.175794 0.186201 0.235518
Si Si2 0.144401 0.901297 0.988607
Si Si3 0.770419 0.547726 0.399885
Si Si4 0.106603 0.910065 0.296565
Si Si5 0.428555 0.966931 0.734708
Si Si6 0.429183 0.136438 0.075611
O O1 0.173707 0.250000 0.198537
O O2 0.250000 0.167547 0.250000
O O3 0.129521 0.175172 0.373020
O O4 0.144207 0.154014 0.103653
O O5 0.215042 0.919441 0.023522
O O6 0.104966 0.888020 0.133560
O O7 0.114330 0.952315 0.902436
O O8 0.797664 0.500000 0.500000
O O9 0.750000 0.519416 0.250000
O O10 0.823182 0.592969 0.364587
O O11 0.066828 0.870702 0.402338
O O12 0.084881 0.973211 0.296898
O O13 0.500000 0.963245 0.678605
O O14 0.415793 0.923956 0.861602
O O15 0.500000 0.158330 0.122820
#
# Coordination Sequence:
#
# PCOD8298333 Si02
#       6
#    16  16  16  16  16  16
#     4  10  22  42  65  82 100 137 189 241 290 337
#     4  10  21  35  52  79 111 144 185 230 273 322
#     4  10  19  30  47  74 110 149 184 219 262 312
#     4  11  20  31  51  81 117 150 179 218 267 324
#     4  10  20  34  52  78 115 156 190 215 249 312
#     4  10  21  36  57  84 113 147 185 227 274 325
#
# _framework density 20.058242
#
# number of rings (size 3 to 8) (size 9 to 14) (size 15 to 20)
#    0.000    1.833    0.000    5.500    0.000    7.000 
#    0.000    0.833    0.000    6.500    0.000    0.000 
#    0.000    0.000    0.000    0.000    0.000    0.000 
#
# Total GULP energy -594946.002131 kJ/mol
# GULP energy per Si atom -12394.708378 kJ/mol
# Density = 2.001259 g / cm^3
# Si number density = 20.058242 Si / 1000 Ang^3
#
#
#
# Elastic Constant Matrix: (Units=GPa)
#
#
# Indices 1 2 3 4 5 6 
#
# 1 100.1835 17.7588 21.9344 0.0000 0.0000 0.0000
# 2 17.7588 63.5220 24.4577 0.0000 0.0000 0.0000
# 3 21.9344 24.4577 107.6486 0.0000 0.0000 0.0000
# 4 0.0000 0.0000 0.0000 14.9104 0.0000 0.0000
# 5 0.0000 0.0000 0.0000 0.0000 25.2210 0.0000
# 6 0.0000 0.0000 0.0000 0.0000 0.0000 16.1270
#
#
#
# Elastic Compliance Matrix: (Units=1/GPa)
#
#
# Indices 1 2 3 4 5 6 
#
# 1 0.010764 -0.002372 -0.001654 0.000000 0.000000 0.000000
# 2 -0.002372 0.017775 -0.003555 0.000000 0.000000 0.000000
# 3 -0.001654 -0.003555 0.010434 0.000000 0.000000 0.000000
# 4 0.000000 0.000000 0.000000 0.067067 0.000000 0.000000
# 5 0.000000 0.000000 0.000000 0.000000 0.039650 0.000000
# 6 0.000000 0.000000 0.000000 0.000000 0.000000 0.062008
#
#
# Mechanical properties :
#
#
# Convention : Reuss Voigt Hill
#
# Bulk Modulus (GPa) = 41.99954 44.40622 43.20288
# Shear Modulus (GPa) = 21.66396 25.06522 23.36459
#
# Velocity S-wave (km/s) = 3.28998 3.53883 3.41667
# Velocity P-wave (km/s) = 5.95115 6.23574 6.09511
#
# Compressibility (1/GPa) = 0.02380978
#
# Stress axis : x y z
#
# Youngs Moduli (GPa) = 92.89857 56.26007 95.83821
#
# Poissons Ratio (x) = 0.13347 0.15855
# Poissons Ratio (y) = 0.22040 0.34070
# Poissons Ratio (z) = 0.15368 0.20000
#
# Static dielectric constant tensor:
#      x y z
#    x 4.049740 0.000000 0.000000 
#    y 0.000000 3.143470 0.000000 
#    z 0.000000 0.000000 3.895980 
# 
# 
# High freq. dielectric constant tensor:
#      x y z
#    x 1.799350 0.000000 0.000000 
#    y 0.000000 1.729930 0.000000 
#    z 0.000000 0.000000 1.793080 
# 
# From -- ./inp_files/12666.got.cif
#   From: 2010.03.12/outbox.cif.g09.slc.cpg/sg74_7_cif.got.tgz:12666.got - 2010.04.16 15:46:19.
