data_PCOD8298561
_publ_section_title
;
Structure prediction by ZEFSAII (Michael W. Deem and Ramdas Pophale) SiO2 
 PCOD8298561
Probable space group: I M M A
;
_chemical_formula_sum "Si O2"
_cell_formula_units_Z 80
_cell_length_a 18.246769
_cell_length_b 9.717566
_cell_length_c 23.569294
_cell_angle_alpha 90.000000
_cell_angle_beta 90.000000
_cell_angle_gamma 90.000000
_cell_volume 4179.170087
_symmetry_space_group_name_H-M "I M M A"
_symmetry_group_IT_number 74
_symmetry_cell_setting 'orthorhombic'
loop_
_space_group_symop_operation_xyz
x,y,z
-x,1/2-y,z
x,-y,-z
-x,1/2+y,-z
-x,-y,-z
x,1/2+y,-z
-x,y,z
x,1/2-y,z
1/2+x,1/2+y,1/2+z
1/2-x,-y,1/2+z
1/2+x,1/2-y,1/2-z
1/2-x,y,1/2-z
1/2-x,1/2-y,1/2-z
1/2+x,y,1/2-z
1/2-x,1/2+y,1/2+z
1/2+x,-y,1/2+z
loop_
_atom_site_type_symbol
_atom_site_label
_atom_site_fract_x
_atom_site_fract_y
_atom_site_fract_z
Si Si1 0.208701 0.909444 0.055889
Si Si2 0.852405 0.903134 0.372906
Si Si3 0.171071 0.906541 0.244291
Si Si4 0.917926 0.086828 0.861095
Si Si5 0.415669 0.099116 0.046513
O O1 0.207178 0.750000 0.037544
O O2 0.270605 0.935262 0.104161
O O3 0.131697 0.953981 0.084746
O O4 0.222598 0.000000 0.000000
O O5 0.875623 0.750000 0.394088
O O6 0.864460 0.911016 0.305991
O O7 0.907367 0.020991 0.394245
O O8 0.185717 0.750000 0.223744
O O9 0.250000 0.982361 0.250000
O O10 0.118292 0.974976 0.196955
O O11 0.923170 0.250000 0.855607
O O12 0.000000 0.024852 0.868496
O O13 0.500000 0.118907 0.031251
O O14 0.377646 0.250000 0.047079
O O15 0.376548 0.000000 0.000000
#
# Coordination Sequence:
#
# PCOD8298561 Si02
#       5
#    16  16  16  16  16
#     4  10  20  33  50  75 105 138 175 216 260 306
#     4  10  19  31  53  80 106 135 169 213 263 315
#     4   9  15  28  50  75 104 135 167 209 260 309
#     4   9  17  30  49  74 103 135 173 217 262 306
#     4  10  21  36  52  72 103 140 175 215 260 306
#
# _framework density 19.142557
#
# number of rings (size 3 to 8) (size 9 to 14) (size 15 to 20)
#    0.000    2.400    2.000    1.200    0.000    4.800 
#    0.000    2.000    0.000    1.800    0.000    0.000 
#    0.000    0.000    0.000    0.000    0.000    0.000 
#
# Total GULP energy -495669.144652 kJ/mol
# GULP energy per Si atom -12391.728616 kJ/mol
# Density = 1.909899 g / cm^3
# Si number density = 19.142557 Si / 1000 Ang^3
#
#
#
# Elastic Constant Matrix: (Units=GPa)
#
#
# Indices 1 2 3 4 5 6 
#
# 1 54.6013 15.0601 18.4882 0.0000 0.0000 0.0000
# 2 15.0601 88.3785 34.7021 0.0000 0.0000 0.0000
# 3 18.4882 34.7021 86.8134 0.0000 0.0000 0.0000
# 4 0.0000 0.0000 0.0000 17.8476 0.0000 0.0000
# 5 0.0000 0.0000 0.0000 0.0000 29.9595 0.0000
# 6 0.0000 0.0000 0.0000 0.0000 0.0000 14.7628
#
#
#
# Elastic Compliance Matrix: (Units=1/GPa)
#
#
# Indices 1 2 3 4 5 6 
#
# 1 0.020050 -0.002064 -0.003445 0.000000 0.000000 0.000000
# 2 -0.002064 0.013634 -0.005010 0.000000 0.000000 0.000000
# 3 -0.003445 -0.005010 0.014255 0.000000 0.000000 0.000000
# 4 0.000000 0.000000 0.000000 0.056030 0.000000 0.000000
# 5 0.000000 0.000000 0.000000 0.000000 0.033378 0.000000
# 6 0.000000 0.000000 0.000000 0.000000 0.000000 0.067738
#
#
# Mechanical properties :
#
#
# Convention : Reuss Voigt Hill
#
# Bulk Modulus (GPa) = 37.17321 40.69933 38.93627
# Shear Modulus (GPa) = 21.26828 23.28349 22.27589
#
# Velocity S-wave (km/s) = 3.33685 3.49136 3.41498
# Velocity P-wave (km/s) = 5.85725 6.12863 5.99448
#
# Compressibility (1/GPa) = 0.02690109
#
# Stress axis : x y z
#
# Youngs Moduli (GPa) = 49.87439 73.34581 70.14873
#
# Poissons Ratio (x) = 0.15139 0.24166
# Poissons Ratio (y) = 0.10294 0.35147
# Poissons Ratio (z) = 0.17182 0.36749
#
# Static dielectric constant tensor:
#      x y z
#    x 3.603630 0.000000 0.000000 
#    y 0.000000 3.264640 0.000000 
#    z 0.000000 0.000000 3.488570 
# 
# 
# High freq. dielectric constant tensor:
#      x y z
#    x 1.741000 0.000000 0.000000 
#    y 0.000000 1.691110 0.000000 
#    z 0.000000 0.000000 1.747960 
# 
# From -- ./inp_files/67535.got.cif
#   From: 2010.03.12/outbox.cif.g09.slc.cpg/sg74_34_cif.got.tgz:67535.got - 2010.04.16 15:46:19.
