data_PCOD8298515
_publ_section_title
;
Structure prediction by ZEFSAII (Michael W. Deem and Ramdas Pophale) SiO2 
 PCOD8298515
Probable space group: I M M A
;
_chemical_formula_sum "Si O2"
_cell_formula_units_Z 120
_cell_length_a 22.615524
_cell_length_b 23.961486
_cell_length_c 12.436140
_cell_angle_alpha 90.000000
_cell_angle_beta 90.000000
_cell_angle_gamma 90.000000
_cell_volume 6739.163688
_symmetry_space_group_name_H-M "I M M A"
_symmetry_group_IT_number 74
_symmetry_cell_setting 'orthorhombic'
loop_
_space_group_symop_operation_xyz
x,y,z
-x,1/2-y,z
x,-y,-z
-x,1/2+y,-z
-x,-y,-z
x,1/2+y,-z
-x,y,z
x,1/2-y,z
1/2+x,1/2+y,1/2+z
1/2-x,-y,1/2+z
1/2+x,1/2-y,1/2-z
1/2-x,y,1/2-z
1/2-x,1/2-y,1/2-z
1/2+x,y,1/2-z
1/2-x,1/2+y,1/2+z
1/2+x,-y,1/2+z
loop_
_atom_site_type_symbol
_atom_site_label
_atom_site_fract_x
_atom_site_fract_y
_atom_site_fract_z
Si Si1 0.250000 0.966828 0.750000
Si Si2 0.565797 0.312642 0.664611
Si Si3 0.432131 0.120164 0.879721
Si Si4 0.352591 0.315905 0.471063
Si Si5 0.827967 0.038264 0.600647
Si Si6 0.372557 0.684879 0.931350
Si Si7 0.064572 0.684861 0.786818
Si Si8 0.759544 0.887493 0.552958
O O1 0.265719 0.928263 0.646770
O O2 0.195835 0.005728 0.707026
O O3 0.500000 0.314746 0.614677
O O4 0.581285 0.250000 0.701933
O O5 0.571018 0.352587 0.764387
O O6 0.610830 0.333489 0.575180
O O7 0.500000 0.103776 0.908892
O O8 0.390376 0.066337 0.871224
O O9 0.406518 0.164921 0.963091
O O10 0.342622 0.250000 0.462100
O O11 0.387216 0.340620 0.367895
O O12 0.289797 0.344325 0.481600
O O13 0.777507 0.080440 0.556782
O O14 0.843820 0.000000 0.500000
O O15 0.355310 0.750000 0.942287
O O16 0.417215 0.673749 0.834776
O O17 0.314894 0.648318 0.904619
O O18 0.060306 0.750000 0.812059
O O19 0.000000 0.657332 0.805141
#
# Coordination Sequence:
#
# PCOD8298515 Si02
#       8
#     8  16  16  16  16  16  16  16
#     4  10  20  38  57  70  99 134 176 232 272 314
#     4   9  18  32  50  75 109 146 177 205 247 309
#     4  10  20  34  55  80 106 138 178 219 264 318
#     4  10  19  31  50  77 110 142 171 209 255 314
#     4   9  21  37  55  77  98 131 179 225 276 320
#     4  10  19  32  51  79 115 142 167 209 259 324
#     4   9  17  28  44  68 100 141 177 202 238 292
#     4  10  20  34  53  79 103 134 178 214 268 322
#
# _framework density 17.806363999999999
#
# number of rings (size 3 to 8) (size 9 to 14) (size 15 to 20)
#    0.000    2.400    0.000    2.400    1.867    3.200 
#    0.000    2.667    0.000    5.600    0.000    1.867 
#    0.000    0.000    0.000    0.000    0.000    0.000 
#
# Total GULP energy -743738.921280 kJ/mol
# GULP energy per Si atom -12395.648688 kJ/mol
# Density = 1.776584 g / cm^3
# Si number density = 17.806364 Si / 1000 Ang^3
#
#
#
# Elastic Constant Matrix: (Units=GPa)
#
#
# Indices 1 2 3 4 5 6 
#
# 1 119.7756 51.1607 46.5271 0.0000 0.0000 0.0000
# 2 51.1607 69.1249 35.3615 0.0000 0.0000 0.0000
# 3 46.5271 35.3615 72.5382 0.0000 0.0000 0.0000
# 4 0.0000 0.0000 0.0000 17.8304 0.0000 0.0000
# 5 0.0000 0.0000 0.0000 0.0000 16.1399 0.0000
# 6 0.0000 0.0000 0.0000 0.0000 0.0000 28.3843
#
#
#
# Elastic Compliance Matrix: (Units=1/GPa)
#
#
# Indices 1 2 3 4 5 6 
#
# 1 0.013459 -0.007387 -0.005031 0.000000 0.000000 0.000000
# 2 -0.007387 0.023327 -0.006634 0.000000 0.000000 0.000000
# 3 -0.005031 -0.006634 0.020247 0.000000 0.000000 0.000000
# 4 0.000000 0.000000 0.000000 0.056084 0.000000 0.000000
# 5 0.000000 0.000000 0.000000 0.000000 0.061958 0.000000
# 6 0.000000 0.000000 0.000000 0.000000 0.000000 0.035231
#
#
# Mechanical properties :
#
#
# Convention : Reuss Voigt Hill
#
# Bulk Modulus (GPa) = 52.83018 58.61524 55.72271
# Shear Modulus (GPa) = 19.62937 21.03021 20.32979
#
# Velocity S-wave (km/s) = 3.32381 3.44037 3.38259
# Velocity P-wave (km/s) = 6.66813 6.98363 6.82770
#
# Compressibility (1/GPa) = 0.01892857
#
# Stress axis : x y z
#
# Youngs Moduli (GPa) = 74.30087 42.86797 49.39021
#
# Poissons Ratio (x) = 0.31667 0.24851
# Poissons Ratio (y) = 0.54887 0.32763
# Poissons Ratio (z) = 0.37384 0.28437
#
# Static dielectric constant tensor:
#      x y z
#    x 3.398040 0.000000 0.000000 
#    y 0.000000 3.261030 0.000000 
#    z 0.000000 0.000000 3.275510 
# 
# 
# High freq. dielectric constant tensor:
#      x y z
#    x 1.693190 0.000000 0.000000 
#    y 0.000000 1.672280 0.000000 
#    z 0.000000 0.000000 1.693440 
# 
# From -- ./inp_files/24233.got.cif
#   From: 2010.03.12/outbox.cif.g09.slc.cpg/sg74_13_cif.got.tgz:24233.got - 2010.04.16 15:46:19.
