data_PCOD8298930
_publ_section_title
;
Structure prediction by ZEFSAII (Michael W. Deem and Ramdas Pophale) SiO2 
 PCOD8298930
Probable space group: I M M A
;
_chemical_formula_sum "Si O2"
_cell_formula_units_Z 112
_cell_length_a 14.664257
_cell_length_b 13.997903
_cell_length_c 31.761433
_cell_angle_alpha 90.000000
_cell_angle_beta 90.000000
_cell_angle_gamma 90.000000
_cell_volume 6519.632733
_symmetry_space_group_name_H-M "I M M A"
_symmetry_group_IT_number 74
_symmetry_cell_setting 'orthorhombic'
loop_
_space_group_symop_operation_xyz
x,y,z
-x,1/2-y,z
x,-y,-z
-x,1/2+y,-z
-x,-y,-z
x,1/2+y,-z
-x,y,z
x,1/2-y,z
1/2+x,1/2+y,1/2+z
1/2-x,-y,1/2+z
1/2+x,1/2-y,1/2-z
1/2-x,y,1/2-z
1/2-x,1/2-y,1/2-z
1/2+x,y,1/2-z
1/2-x,1/2+y,1/2+z
1/2+x,-y,1/2+z
loop_
_atom_site_type_symbol
_atom_site_label
_atom_site_fract_x
_atom_site_fract_y
_atom_site_fract_z
Si Si1 0.738732 0.638479 0.060121
Si Si2 0.245474 0.857644 0.964630
Si Si3 0.824781 0.452381 0.861624
Si Si4 0.000000 0.362561 0.730491
Si Si5 0.893555 0.858050 0.893589
Si Si6 0.699552 0.638189 0.205786
Si Si7 0.098760 0.504640 0.549267
Si Si8 0.500000 0.137549 0.676588
O O1 0.738702 0.750000 0.069947
O O2 0.805832 0.583602 0.091308
O O3 0.635997 0.597512 0.066089
O O4 0.771662 0.610483 0.012937
O O5 0.282177 0.750000 0.965004
O O6 0.150652 0.867550 0.939862
O O7 0.324560 0.916320 0.940424
O O8 0.845839 0.566206 0.861983
O O9 0.741841 0.428788 0.830236
O O10 0.911730 0.394130 0.847800
O O11 0.906811 0.393246 0.707139
O O12 0.000000 0.409011 0.776914
O O13 0.000000 0.250000 0.735901
O O14 0.878818 0.750000 0.876003
O O15 0.000000 0.882194 0.898102
O O16 0.710493 0.750000 0.193748
O O17 0.750000 0.618463 0.250000
O O18 0.083257 0.500000 0.500000
O O19 0.000000 0.526548 0.570666
O O20 0.500000 0.250000 0.680042
#
# Coordination Sequence:
#
# PCOD8298930 Si02
#       8
#    16  16  16   8  16  16  16   8
#     4  10  20  33  49  73 110 144 174 217 268 317
#     4   9  18  35  54  71 101 141 181 226 268 310
#     4  12  21  34  54  80 106 140 174 218 267 308
#     4   9  18  34  54  79 110 147 179 204 244 309
#     4  10  21  38  57  77 101 135 182 226 266 315
#     4  10  19  33  54  79 111 143 173 208 250 313
#     4   9  17  30  49  70  95 132 178 219 259 308
#     4  11  20  32  53  82 112 138 172 208 251 315
#
# _framework density 17.178882000000002
#
# number of rings (size 3 to 8) (size 9 to 14) (size 15 to 20)
#    0.000    2.000    3.571    1.286    0.000    0.571 
#    2.571    3.571    0.000    0.429    0.000    0.000 
#    0.000    0.000    0.000    0.000    0.000    0.000 
#
# Total GULP energy -694079.418957 kJ/mol
# GULP energy per Si atom -12394.275339 kJ/mol
# Density = 1.713978 g / cm^3
# Si number density = 17.178882 Si / 1000 Ang^3
#
#
#
# Elastic Constant Matrix: (Units=GPa)
#
#
# Indices 1 2 3 4 5 6 
#
# 1 138.0242 52.0260 45.8324 0.0000 0.0000 0.0000
# 2 52.0260 100.7363 42.2237 0.0000 0.0000 0.0000
# 3 45.8324 42.2237 62.6658 0.0000 0.0000 0.0000
# 4 0.0000 0.0000 0.0000 20.0649 0.0000 0.0000
# 5 0.0000 0.0000 0.0000 0.0000 -22.0499 0.0000
# 6 0.0000 0.0000 0.0000 0.0000 0.0000 3.5856
#
#
#
# Elastic Compliance Matrix: (Units=1/GPa)
#
#
# Indices 1 2 3 4 5 6 
#
# 1 0.010171 -0.002975 -0.005434 0.000000 0.000000 0.000000
# 2 -0.002975 0.014704 -0.007732 0.000000 0.000000 0.000000
# 3 -0.005434 -0.007732 0.025142 0.000000 0.000000 0.000000
# 4 0.000000 0.000000 0.000000 0.049838 0.000000 0.000000
# 5 0.000000 0.000000 0.000000 0.000000 -0.045352 0.000000
# 6 0.000000 0.000000 0.000000 0.000000 0.000000 0.278896
#
#
# Mechanical properties :
#
#
# Convention : Reuss Voigt Hill
#
# Bulk Modulus (GPa) = 56.38606 64.62116 60.50361
# Shear Modulus (GPa) = 13.45557 11.07640 12.26598
#
# Velocity S-wave (km/s) = 2.80172 2.54198 2.67501
# Velocity P-wave (km/s) = 6.58485 6.80543 6.69605
#
# Compressibility (1/GPa) = 0.01773488
#
# Stress axis : x y z
#
# Youngs Moduli (GPa) = 98.31827 68.00807 39.77463
#
# Poissons Ratio (x) = 0.20233 0.21615
# Poissons Ratio (y) = 0.29251 0.30752
# Poissons Ratio (z) = 0.53429 0.52581
#
# Static dielectric constant tensor:
#      x y z
#    x 3.460760 0.000000 0.000000 
#    y 0.000000 3.288500 0.000000 
#    z 0.000000 0.000000 3.108490 
# 
# 
# High freq. dielectric constant tensor:
#      x y z
#    x 1.671190 0.000000 0.000000 
#    y 0.000000 1.653890 0.000000 
#    z 0.000000 0.000000 1.639970 
# 
# From -- ./inp_files/67267.got.cif
#   From: 2010.03.12/outbox.cif.g09.slc.cpg/sg74_34_cif.got.tgz:67267.got - 2010.04.16 15:46:19.
