data_PCOD8298962
_publ_section_title
;
Structure prediction by ZEFSAII (Michael W. Deem and Ramdas Pophale) SiO2 
 PCOD8298962
Probable space group: I M M A
;
_chemical_formula_sum "Si O2"
_cell_formula_units_Z 96
_cell_length_a 8.857068
_cell_length_b 23.085676
_cell_length_c 25.569079
_cell_angle_alpha 90.000000
_cell_angle_beta 90.000000
_cell_angle_gamma 90.000000
_cell_volume 5228.145435
_symmetry_space_group_name_H-M "I M M A"
_symmetry_group_IT_number 74
_symmetry_cell_setting 'orthorhombic'
loop_
_space_group_symop_operation_xyz
x,y,z
-x,1/2-y,z
x,-y,-z
-x,1/2+y,-z
-x,-y,-z
x,1/2+y,-z
-x,y,z
x,1/2-y,z
1/2+x,1/2+y,1/2+z
1/2-x,-y,1/2+z
1/2+x,1/2-y,1/2-z
1/2-x,y,1/2-z
1/2-x,1/2-y,1/2-z
1/2+x,y,1/2-z
1/2-x,1/2+y,1/2+z
1/2+x,-y,1/2+z
loop_
_atom_site_type_symbol
_atom_site_label
_atom_site_fract_x
_atom_site_fract_y
_atom_site_fract_z
Si Si1 0.178070 0.683586 0.696088
Si Si2 0.175403 0.509628 0.439478
Si Si3 0.322473 0.884541 0.903426
Si Si4 0.177374 0.316373 0.695192
Si Si5 0.826838 0.316923 0.502985
Si Si6 0.177455 0.874902 0.098043
O O1 0.224087 0.750000 0.684625
O O2 0.250000 0.661473 0.750000
O O3 0.244658 0.643662 0.649419
O O4 0.000000 0.676782 0.701069
O O5 0.215066 0.500000 0.500000
O O6 0.216337 0.452369 0.406264
O O7 0.278031 0.560156 0.417054
O O8 0.000000 0.526263 0.433376
O O9 0.500000 0.873232 0.904009
O O10 0.256403 0.852657 0.954622
O O11 0.217297 0.250000 0.680846
O O12 0.250000 0.334141 0.750000
O O13 0.244237 0.358882 0.652162
O O14 0.000000 0.325970 0.698910
O O15 0.815824 0.250000 0.488358
O O16 0.729937 0.329810 0.554114
O O17 0.000000 0.335518 0.514229
O O18 0.000000 0.870309 0.105127
#
# Coordination Sequence:
#
# PCOD8298962 Si02
#       6
#    16  16  16  16  16  16
#     4   9  17  31  52  78 107 138 172 212 262 319
#     4  10  19  36  59  78 103 143 190 234 277 328
#     4   9  17  32  55  80 103 135 180 227 275 323
#     4  10  21  39  63  88 114 146 185 229 279 333
#     4  10  19  33  55  81 107 137 179 229 278 331
#     4  12  24  36  53  80 116 150 185 225 273 333
#
# _framework density 18.362151000000001
#
# number of rings (size 3 to 8) (size 9 to 14) (size 15 to 20)
#    0.000    2.000    1.667    3.000    0.000    5.667 
#    0.000    2.500    0.000    4.000    0.000    0.000 
#    0.000    0.000    0.000    0.000    0.000    0.000 
#
# Total GULP energy -595330.241671 kJ/mol
# GULP energy per Si atom -12402.713368 kJ/mol
# Density = 1.832036 g / cm^3
# Si number density = 18.362151 Si / 1000 Ang^3
#
#
#
# Elastic Constant Matrix: (Units=GPa)
#
#
# Indices 1 2 3 4 5 6 
#
# 1 56.9941 23.6765 40.6568 0.0000 0.0000 0.0000
# 2 23.6765 79.1162 46.3583 0.0000 0.0000 0.0000
# 3 40.6568 46.3583 133.2609 0.0000 0.0000 0.0000
# 4 0.0000 0.0000 0.0000 26.2279 0.0000 0.0000
# 5 0.0000 0.0000 0.0000 0.0000 29.7415 0.0000
# 6 0.0000 0.0000 0.0000 0.0000 0.0000 19.6090
#
#
#
# Elastic Compliance Matrix: (Units=1/GPa)
#
#
# Indices 1 2 3 4 5 6 
#
# 1 0.023176 -0.003508 -0.005851 0.000000 0.000000 0.000000
# 2 -0.003508 0.016407 -0.004637 0.000000 0.000000 0.000000
# 3 -0.005851 -0.004637 0.010902 0.000000 0.000000 0.000000
# 4 0.000000 0.000000 0.000000 0.038127 0.000000 0.000000
# 5 0.000000 0.000000 0.000000 0.000000 0.033623 0.000000
# 6 0.000000 0.000000 0.000000 0.000000 0.000000 0.050997
#
#
# Mechanical properties :
#
#
# Convention : Reuss Voigt Hill
#
# Bulk Modulus (GPa) = 44.45623 54.52826 49.49224
# Shear Modulus (GPa) = 23.95533 25.69434 24.82483
#
# Velocity S-wave (km/s) = 3.61585 3.74479 3.68089
# Velocity P-wave (km/s) = 6.45723 6.96121 6.71395
#
# Compressibility (1/GPa) = 0.02249404
#
# Stress axis : x y z
#
# Youngs Moduli (GPa) = 43.14728 60.95114 91.72375
#
# Poissons Ratio (x) = 0.21379 0.53665
# Poissons Ratio (y) = 0.15134 0.42535
# Poissons Ratio (z) = 0.25244 0.28265
#
# Static dielectric constant tensor:
#      x y z
#    x 3.166430 0.000000 0.000000 
#    y 0.000000 3.416310 0.000000 
#    z 0.000000 0.000000 3.585050 
# 
# 
# High freq. dielectric constant tensor:
#      x y z
#    x 1.688890 0.000000 0.000000 
#    y 0.000000 1.712840 0.000000 
#    z 0.000000 0.000000 1.718160 
# 
# From -- ./inp_files/57253.got.cif
#   From: 2010.03.12/outbox.cif.g09.slc.cpg/sg74_29_cif.got.tgz:57253.got - 2010.04.16 15:46:19.
