data_PCOD8298222
_publ_section_title
;
Structure prediction by ZEFSAII (Michael W. Deem and Ramdas Pophale) SiO2 
 PCOD8298222
Probable space group: I M M A
;
_chemical_formula_sum "Si O2"
_cell_formula_units_Z 128
_cell_length_a 21.796605
_cell_length_b 17.737512
_cell_length_c 17.899706
_cell_angle_alpha 90.000000
_cell_angle_beta 90.000000
_cell_angle_gamma 90.000000
_cell_volume 6920.340350
_symmetry_space_group_name_H-M "I M M A"
_symmetry_group_IT_number 74
_symmetry_cell_setting 'orthorhombic'
loop_
_space_group_symop_operation_xyz
x,y,z
-x,1/2-y,z
x,-y,-z
-x,1/2+y,-z
-x,-y,-z
x,1/2+y,-z
-x,y,z
x,1/2-y,z
1/2+x,1/2+y,1/2+z
1/2-x,-y,1/2+z
1/2+x,1/2-y,1/2-z
1/2-x,y,1/2-z
1/2-x,1/2-y,1/2-z
1/2+x,y,1/2-z
1/2-x,1/2+y,1/2+z
1/2+x,-y,1/2+z
loop_
_atom_site_type_symbol
_atom_site_label
_atom_site_fract_x
_atom_site_fract_y
_atom_site_fract_z
Si Si1 0.685119 0.491863 0.269864
Si Si2 0.572592 0.665489 0.057189
Si Si3 0.430126 0.619858 0.896054
Si Si4 0.571218 0.539874 0.172079
Si Si5 0.853230 0.832548 0.741196
Si Si6 0.071603 0.667500 0.047023
Si Si7 0.931031 0.869306 0.884295
Si Si8 0.128283 0.017074 0.916669
O O1 0.750000 0.531726 0.250000
O O2 0.622254 0.529187 0.237228
O O3 0.691719 0.404643 0.242554
O O4 0.683150 0.500146 0.359352
O O5 0.500000 0.661663 0.052014
O O6 0.596063 0.750000 0.074201
O O7 0.593507 0.612374 0.125295
O O8 0.599165 0.637964 0.977267
O O9 0.500000 0.648174 0.892514
O O10 0.426097 0.530474 0.883697
O O11 0.394339 0.665260 0.832794
O O12 0.500000 0.548098 0.202723
O O13 0.819957 0.750000 0.741879
O O14 0.893647 0.838108 0.815298
O O15 0.085828 0.750000 0.082005
O O16 0.106991 0.603509 0.093054
O O17 0.000000 0.648152 0.050658
O O18 0.092776 0.668922 0.960596
O O19 0.000000 0.846522 0.867169
O O20 0.926712 0.959930 0.895025
O O21 0.152376 0.000000 0.000000
#
# Coordination Sequence:
#
# PCOD8298222 Si02
#       8
#    16  16  16  16  16  16  16  16
#     4  10  22  39  56  75 100 133 171 207 249 304
#     4   9  16  27  46  73 104 136 172 217 263 301
#     4   9  16  26  43  71 107 141 171 207 252 302
#     4   9  18  33  53  75 101 135 173 211 252 301
#     4  10  19  29  45  71 102 135 168 202 245 302
#     4   9  16  26  44  73 105 134 167 210 257 300
#     4   9  16  26  43  71 107 141 169 200 245 303
#     4   9  18  33  52  71  96 133 173 209 247 296
#
# _framework density 18.496200000000002
#
# number of rings (size 3 to 8) (size 9 to 14) (size 15 to 20)
#    0.000    2.750    0.000    1.875    0.000    8.750 
#    0.000    3.125    0.000    3.000    0.000    0.000 
#    0.000    0.000    0.000    0.000    0.000    0.000 
#
# Total GULP energy -792940.538013 kJ/mol
# GULP energy per Si atom -12389.695906 kJ/mol
# Density = 1.845410 g / cm^3
# Si number density = 18.496200 Si / 1000 Ang^3
#
#
#
# Elastic Constant Matrix: (Units=GPa)
#
#
# Indices 1 2 3 4 5 6 
#
# 1 67.0769 18.7173 35.3081 0.0000 0.0000 0.0000
# 2 18.7173 112.0008 36.1383 0.0000 0.0000 0.0000
# 3 35.3081 36.1383 89.3206 0.0000 0.0000 0.0000
# 4 0.0000 0.0000 0.0000 21.2093 0.0000 0.0000
# 5 0.0000 0.0000 0.0000 0.0000 10.8383 0.0000
# 6 0.0000 0.0000 0.0000 0.0000 0.0000 5.0064
#
#
#
# Elastic Compliance Matrix: (Units=1/GPa)
#
#
# Indices 1 2 3 4 5 6 
#
# 1 0.018897 -0.000860 -0.007122 0.000000 0.000000 0.000000
# 2 -0.000860 0.010308 -0.003831 0.000000 0.000000 0.000000
# 3 -0.007122 -0.003831 0.015561 0.000000 0.000000 0.000000
# 4 0.000000 0.000000 0.000000 0.047149 0.000000 0.000000
# 5 0.000000 0.000000 0.000000 0.000000 0.092266 0.000000
# 6 0.000000 0.000000 0.000000 0.000000 0.000000 0.199743
#
#
# Mechanical properties :
#
#
# Convention : Reuss Voigt Hill
#
# Bulk Modulus (GPa) = 47.30199 49.85841 48.58020
# Shear Modulus (GPa) = 12.05991 19.29309 15.67650
#
# Velocity S-wave (km/s) = 2.55624 3.23319 2.91443
# Velocity P-wave (km/s) = 5.86020 6.39942 6.13573
#
# Compressibility (1/GPa) = 0.02114076
#
# Stress axis : x y z
#
# Youngs Moduli (GPa) = 52.91796 97.00978 64.26415
#
# Poissons Ratio (x) = 0.08343 0.45769
# Poissons Ratio (y) = 0.04551 0.24617
# Poissons Ratio (z) = 0.37688 0.37161
#
# Static dielectric constant tensor:
#      x y z
#    x 2.914910 0.000000 0.000000 
#    y 0.000000 3.629830 0.000000 
#    z 0.000000 0.000000 3.417850 
# 
# 
# High freq. dielectric constant tensor:
#      x y z
#    x 1.662780 0.000000 0.000000 
#    y 0.000000 1.723560 0.000000 
#    z 0.000000 0.000000 1.715840 
# 
# From -- ./inp_files/46286.got.cif
#   From: 2010.03.12/outbox.cif.g09.slc.cpg/sg74_24_cif.got.tgz:46286.got - 2010.04.16 15:46:19.
