data_PCOD8298808
_publ_section_title
;
Structure prediction by ZEFSAII (Michael W. Deem and Ramdas Pophale) SiO2 
 PCOD8298808
Probable space group: I M M A
;
_chemical_formula_sum "Si O2"
_cell_formula_units_Z 72
_cell_length_a 24.887574
_cell_length_b 9.125448
_cell_length_c 16.201865
_cell_angle_alpha 90.000000
_cell_angle_beta 90.000000
_cell_angle_gamma 90.000000
_cell_volume 3679.609811
_symmetry_space_group_name_H-M "I M M A"
_symmetry_group_IT_number 74
_symmetry_cell_setting 'orthorhombic'
loop_
_space_group_symop_operation_xyz
x,y,z
-x,1/2-y,z
x,-y,-z
-x,1/2+y,-z
-x,-y,-z
x,1/2+y,-z
-x,y,z
x,1/2-y,z
1/2+x,1/2+y,1/2+z
1/2-x,-y,1/2+z
1/2+x,1/2-y,1/2-z
1/2-x,y,1/2-z
1/2-x,1/2-y,1/2-z
1/2+x,y,1/2-z
1/2-x,1/2+y,1/2+z
1/2+x,-y,1/2+z
loop_
_atom_site_type_symbol
_atom_site_label
_atom_site_fract_x
_atom_site_fract_y
_atom_site_fract_z
Si Si1 0.178275 0.924067 0.415336
Si Si2 0.634462 0.419703 0.236811
Si Si3 0.060781 0.587329 0.143928
Si Si4 0.867201 0.000000 0.000000
Si Si5 0.217204 0.589825 0.874617
O O1 0.173636 0.750000 0.422695
O O2 0.160349 0.000000 0.500000
O O3 0.138234 0.984306 0.345713
O O4 0.239959 0.964833 0.394953
O O5 0.625507 0.250000 0.215004
O O6 0.584045 0.473774 0.289909
O O7 0.690096 0.444103 0.286484
O O8 0.062564 0.750000 0.182553
O O9 0.000000 0.538864 0.123674
O O10 0.094796 0.594417 0.059559
O O11 0.829222 0.898602 0.943661
O O12 0.245803 0.750000 0.872258
#
# Coordination Sequence:
#
# PCOD8298808 Si02
#       5
#    16  16  16   8  16
#     4  12  24  37  57  82 113 149 190 235 286 343
#     4  10  22  39  58  81 112 148 192 240 289 342
#     4  10  21  37  58  85 117 154 198 243 288 340
#     4  10  19  32  56  84 122 158 199 230 278 330
#     4  10  20  34  53  80 116 154 192 233 278 333
#
# _framework density 19.567292999999999
#
# number of rings (size 3 to 8) (size 9 to 14) (size 15 to 20)
#    0.000    1.556    1.111    4.333    0.000    8.444 
#    0.000    0.000    0.000    0.667    0.000    0.000 
#    0.000    0.000    0.000    0.000    0.000    0.000 
#
# Total GULP energy -446404.973113 kJ/mol
# GULP energy per Si atom -12400.138142 kJ/mol
# Density = 1.952276 g / cm^3
# Si number density = 19.567293 Si / 1000 Ang^3
#
#
#
# Elastic Constant Matrix: (Units=GPa)
#
#
# Indices 1 2 3 4 5 6 
#
# 1 60.9254 25.9326 18.3387 0.0000 0.0000 0.0000
# 2 25.9326 141.6641 53.1867 0.0000 0.0000 0.0000
# 3 18.3387 53.1867 112.2826 0.0000 0.0000 0.0000
# 4 0.0000 0.0000 0.0000 29.4973 0.0000 0.0000
# 5 0.0000 0.0000 0.0000 0.0000 18.5564 0.0000
# 6 0.0000 0.0000 0.0000 0.0000 0.0000 26.0951
#
#
#
# Elastic Compliance Matrix: (Units=1/GPa)
#
#
# Indices 1 2 3 4 5 6 
#
# 1 0.018058 -0.002674 -0.001683 0.000000 0.000000 0.000000
# 2 -0.002674 0.008982 -0.003818 0.000000 0.000000 0.000000
# 3 -0.001683 -0.003818 0.010989 0.000000 0.000000 0.000000
# 4 0.000000 0.000000 0.000000 0.033901 0.000000 0.000000
# 5 0.000000 0.000000 0.000000 0.000000 0.053890 0.000000
# 6 0.000000 0.000000 0.000000 0.000000 0.000000 0.038321
#
#
# Mechanical properties :
#
#
# Convention : Reuss Voigt Hill
#
# Bulk Modulus (GPa) = 46.12473 56.64311 51.38392
# Shear Modulus (GPa) = 26.63572 29.32401 27.97987
#
# Velocity S-wave (km/s) = 3.69350 3.87541 3.78554
# Velocity P-wave (km/s) = 6.46628 7.00255 6.73975
#
# Compressibility (1/GPa) = 0.02168035
#
# Stress axis : x y z
#
# Youngs Moduli (GPa) = 55.37658 111.33622 90.99674
#
# Poissons Ratio (x) = 0.29770 0.15313
# Poissons Ratio (y) = 0.14807 0.34741
# Poissons Ratio (z) = 0.09319 0.42506
#
# Static dielectric constant tensor:
#      x y z
#    x 3.345280 0.000000 0.000000 
#    y 0.000000 3.481270 0.000000 
#    z 0.000000 0.000000 3.702790 
# 
# 
# High freq. dielectric constant tensor:
#      x y z
#    x 1.735190 0.000000 0.000000 
#    y 0.000000 1.766700 0.000000 
#    z 0.000000 0.000000 1.766660 
# 
# From -- ./inp_files/37051.got.cif
#   From: 2010.03.12/outbox.cif.g09.slc.cpg/sg74_19_cif.got.tgz:37051.got - 2010.04.16 15:46:19.
