data_PCOD8298183
_publ_section_title
;
Structure prediction by ZEFSAII (Michael W. Deem and Ramdas Pophale) SiO2 
 PCOD8298183
Probable space group: I M M A
;
_chemical_formula_sum "Si O2"
_cell_formula_units_Z 104
_cell_length_a 24.213886
_cell_length_b 8.909913
_cell_length_c 33.012969
_cell_angle_alpha 90.000000
_cell_angle_beta 90.000000
_cell_angle_gamma 90.000000
_cell_volume 7122.337361
_symmetry_space_group_name_H-M "I M M A"
_symmetry_group_IT_number 74
_symmetry_cell_setting 'orthorhombic'
loop_
_space_group_symop_operation_xyz
x,y,z
-x,1/2-y,z
x,-y,-z
-x,1/2+y,-z
-x,-y,-z
x,1/2+y,-z
-x,y,z
x,1/2-y,z
1/2+x,1/2+y,1/2+z
1/2-x,-y,1/2+z
1/2+x,1/2-y,1/2-z
1/2-x,y,1/2-z
1/2-x,1/2-y,1/2-z
1/2+x,y,1/2-z
1/2-x,1/2+y,1/2+z
1/2+x,-y,1/2+z
loop_
_atom_site_type_symbol
_atom_site_label
_atom_site_fract_x
_atom_site_fract_y
_atom_site_fract_z
Si Si1 0.272170 0.075224 0.313602
Si Si2 0.660951 0.926098 0.381027
Si Si3 0.561918 0.922426 0.661811
Si Si4 0.500000 0.921513 0.542154
Si Si5 0.879438 0.926093 0.956138
Si Si6 0.835845 0.575500 0.731996
Si Si7 0.060685 0.421701 0.753321
O O1 0.273383 0.250000 0.324267
O O2 0.210875 0.025645 0.300008
O O3 0.315013 0.041049 0.277482
O O4 0.288667 0.982549 0.353263
O O5 0.665628 0.750000 0.386169
O O6 0.602520 0.968957 0.361747
O O7 0.664776 0.001641 0.425434
O O8 0.500000 0.936923 0.643436
O O9 0.582614 0.750000 0.658397
O O10 0.561602 0.969362 0.708368
O O11 0.500000 0.750000 0.530527
O O12 0.558885 0.958665 0.563586
O O13 0.500000 0.000000 0.500000
O O14 0.867908 0.750000 0.960053
O O15 0.872798 0.000000 0.000000
O O16 0.849075 0.750000 0.726711
O O17 0.891180 0.479203 0.723144
O O18 0.072269 0.250000 0.766329
O O19 0.000000 0.433975 0.732431
#
# Coordination Sequence:
#
# PCOD8298183 Si02
#       7
#    16  16  16   8  16  16  16
#     4   9  18  32  47  64  83 109 143 179 215 253
#     4  12  23  32  45  66  86 107 138 175 218 265
#     4  10  20  32  44  57  78 109 142 177 218 258
#     4   8  16  30  48  64  78 100 132 166 210 260
#     4  10  20  35  50  64  82 107 137 173 215 261
#     4   9  17  30  48  64  83 111 144 177 213 254
#     4  10  19  29  42  63  89 112 138 174 215 258
#
# _framework density 14.601948
#
# number of rings (size 3 to 8) (size 9 to 14) (size 15 to 20)
#    0.000    2.154    1.538    3.692    1.077    3.077 
#    0.000    1.538    0.000    0.000    0.000    0.000 
#    0.000    0.000    0.000    0.000    0.000    0.769 
#
# Total GULP energy -644489.355054 kJ/mol
# GULP energy per Si atom -12394.026059 kJ/mol
# Density = 1.456871 g / cm^3
# Si number density = 14.601948 Si / 1000 Ang^3
#
#
#
# Elastic Constant Matrix: (Units=GPa)
#
#
# Indices 1 2 3 4 5 6 
#
# 1 82.4627 38.9066 35.2710 0.0000 0.0000 0.0000
# 2 38.9066 81.4921 37.8279 0.0000 0.0000 0.0000
# 3 35.2710 37.8279 66.0260 0.0000 0.0000 0.0000
# 4 0.0000 0.0000 0.0000 20.9761 0.0000 0.0000
# 5 0.0000 0.0000 0.0000 0.0000 20.6400 0.0000
# 6 0.0000 0.0000 0.0000 0.0000 0.0000 22.2162
#
#
#
# Elastic Compliance Matrix: (Units=1/GPa)
#
#
# Indices 1 2 3 4 5 6 
#
# 1 0.017308 -0.005410 -0.006146 0.000000 0.000000 0.000000
# 2 -0.005410 0.018408 -0.007656 0.000000 0.000000 0.000000
# 3 -0.006146 -0.007656 0.022815 0.000000 0.000000 0.000000
# 4 0.000000 0.000000 0.000000 0.047673 0.000000 0.000000
# 5 0.000000 0.000000 0.000000 0.000000 0.048450 0.000000
# 6 0.000000 0.000000 0.000000 0.000000 0.000000 0.045012
#
#
# Mechanical properties :
#
#
# Convention : Reuss Voigt Hill
#
# Bulk Modulus (GPa) = 49.73672 50.44354 50.09013
# Shear Modulus (GPa) = 20.42527 20.63148 20.52837
#
# Velocity S-wave (km/s) = 3.74412 3.76297 3.75355
# Velocity P-wave (km/s) = 7.26821 7.31442 7.29135
#
# Compressibility (1/GPa) = 0.02010587
#
# Stress axis : x y z
#
# Youngs Moduli (GPa) = 57.77582 54.32364 43.83010
#
# Poissons Ratio (x) = 0.29391 0.26939
# Poissons Ratio (y) = 0.31259 0.33558
# Poissons Ratio (z) = 0.35511 0.41592
#
# Static dielectric constant tensor:
#      x y z
#    x 2.910430 0.000000 0.000000 
#    y 0.000000 2.814140 0.000000 
#    z 0.000000 0.000000 2.589700 
# 
# 
# High freq. dielectric constant tensor:
#      x y z
#    x 1.538900 0.000000 0.000000 
#    y 0.000000 1.570000 0.000000 
#    z 0.000000 0.000000 1.518950 
# 
# From -- ./inp_files/73650.got.cif
#   From: 2010.03.12/outbox.cif.g09.slc.cpg/sg74_37_cif.got.tgz:73650.got - 2010.04.16 15:46:19.
