data_PCOD8298540
_publ_section_title
;
Structure prediction by ZEFSAII (Michael W. Deem and Ramdas Pophale) SiO2 
 PCOD8298540
Probable space group: I M M A
;
_chemical_formula_sum "Si O2"
_cell_formula_units_Z 80
_cell_length_a 24.846605
_cell_length_b 17.805012
_cell_length_c 9.999384
_cell_angle_alpha 90.000000
_cell_angle_beta 90.000000
_cell_angle_gamma 90.000000
_cell_volume 4423.668487
_symmetry_space_group_name_H-M "I M M A"
_symmetry_group_IT_number 74
_symmetry_cell_setting 'orthorhombic'
loop_
_space_group_symop_operation_xyz
x,y,z
-x,1/2-y,z
x,-y,-z
-x,1/2+y,-z
-x,-y,-z
x,1/2+y,-z
-x,y,z
x,1/2-y,z
1/2+x,1/2+y,1/2+z
1/2-x,-y,1/2+z
1/2+x,1/2-y,1/2-z
1/2-x,y,1/2-z
1/2-x,1/2-y,1/2-z
1/2+x,y,1/2-z
1/2-x,1/2+y,1/2+z
1/2+x,-y,1/2+z
loop_
_atom_site_type_symbol
_atom_site_label
_atom_site_fract_x
_atom_site_fract_y
_atom_site_fract_z
Si Si1 0.700368 0.515622 0.148607
Si Si2 0.000000 0.008996 0.656953
Si Si3 0.106507 0.617159 0.057836
Si Si4 0.313581 0.169879 0.760044
Si Si5 0.605178 0.539566 0.704150
Si Si6 0.000000 0.165290 0.804778
O O1 0.750000 0.512919 0.250000
O O2 0.671495 0.598187 0.148487
O O3 0.655669 0.455181 0.193635
O O4 0.721752 0.500000 0.000000
O O5 0.000000 0.098147 0.694645
O O6 0.000000 0.000000 0.500000
O O7 0.949523 0.963016 0.713020
O O8 0.158731 0.661477 0.113558
O O9 0.109253 0.534361 0.116245
O O10 0.052164 0.658605 0.101878
O O11 0.107340 0.611309 0.895937
O O12 0.333323 0.250000 0.822074
O O13 0.250000 0.172136 0.750000
O O14 0.000000 0.250000 0.740250
#
# Coordination Sequence:
#
# PCOD8298540 Si02
#       6
#    16   8  16  16  16   8
#     4  10  21  32  53  79 107 138 181 229 274 322
#     4  10  19  33  53  75 109 148 187 224 271 331
#     4   9  17  30  51  75 103 132 170 224 272 321
#     4   9  18  31  50  72 100 138 179 216 268 333
#     4   9  18  31  51  76 104 134 174 220 274 319
#     4  10  19  31  51  79 104 136 183 228 271 327
#
# _framework density 18.084537999999998
#
# number of rings (size 3 to 8) (size 9 to 14) (size 15 to 20)
#    0.000    2.600    0.000    1.800    8.400    2.400 
#    0.000    0.000    0.000    6.600    0.000    0.000 
#    0.000    0.000    0.000    0.000    0.000    0.000 
#
# Total GULP energy -495537.539115 kJ/mol
# GULP energy per Si atom -12388.438478 kJ/mol
# Density = 1.804338 g / cm^3
# Si number density = 18.084538 Si / 1000 Ang^3
#
#
#
# Elastic Constant Matrix: (Units=GPa)
#
#
# Indices 1 2 3 4 5 6 
#
# 1 130.6348 27.9932 58.7728 0.0000 0.0000 0.0000
# 2 27.9932 75.4588 46.0012 0.0000 0.0000 0.0000
# 3 58.7728 46.0012 133.8554 0.0000 0.0000 0.0000
# 4 0.0000 0.0000 0.0000 16.1895 0.0000 0.0000
# 5 0.0000 0.0000 0.0000 0.0000 26.0763 0.0000
# 6 0.0000 0.0000 0.0000 0.0000 0.0000 997.3497
#
#
#
# Elastic Compliance Matrix: (Units=1/GPa)
#
#
# Indices 1 2 3 4 5 6 
#
# 1 0.009633 -0.001259 -0.003797 0.000000 0.000000 0.000000
# 2 -0.001259 0.016929 -0.005265 0.000000 0.000000 0.000000
# 3 -0.003797 -0.005265 0.010947 0.000000 0.000000 0.000000
# 4 0.000000 0.000000 0.000000 0.061769 0.000000 0.000000
# 5 0.000000 0.000000 0.000000 0.000000 0.038349 0.000000
# 6 0.000000 0.000000 0.000000 0.000000 0.000000 0.001003
#
#
# Mechanical properties :
#
#
# Convention : Reuss Voigt Hill
#
# Bulk Modulus (GPa) = 59.28613 67.27591 63.28102
# Shear Modulus (GPa) = 30.32254 221.73522 126.02888
#
# Velocity S-wave (km/s) = 4.09921 11.08497 8.35704
# Velocity P-wave (km/s) = 7.43361 14.18157 11.32200
#
# Compressibility (1/GPa) = 0.01686735
#
# Stress axis : x y z
#
# Youngs Moduli (GPa) = 103.81037 59.07023 91.34629
#
# Poissons Ratio (x) = 0.07436 0.34684
# Poissons Ratio (y) = 0.13068 0.48095
# Poissons Ratio (z) = 0.39417 0.31101
#
# Static dielectric constant tensor:
#      x y z
#    x 3.485330 0.000000 0.000000 
#    y 0.000000 3.746570 0.000000 
#    z 0.000000 0.000000 3.240210 
# 
# 
# High freq. dielectric constant tensor:
#      x y z
#    x 1.716060 0.000000 0.000000 
#    y 0.000000 1.678980 0.000000 
#    z 0.000000 0.000000 1.670680 
# 
# From -- ./inp_files/14971.got.cif
#   From: 2010.03.12/outbox.cif.g09.slc.cpg/sg74_8_cif.got.tgz:14971.got - 2010.04.16 15:46:19.
