data_PCOD8298555
_publ_section_title
;
Structure prediction by ZEFSAII (Michael W. Deem and Ramdas Pophale) SiO2 
 PCOD8298555
Probable space group: I M M A
;
_chemical_formula_sum "Si O2"
_cell_formula_units_Z 112
_cell_length_a 13.770702
_cell_length_b 25.172010
_cell_length_c 16.468704
_cell_angle_alpha 90.000000
_cell_angle_beta 90.000000
_cell_angle_gamma 90.000000
_cell_volume 5708.649771
_symmetry_space_group_name_H-M "I M M A"
_symmetry_group_IT_number 74
_symmetry_cell_setting 'orthorhombic'
loop_
_space_group_symop_operation_xyz
x,y,z
-x,1/2-y,z
x,-y,-z
-x,1/2+y,-z
-x,-y,-z
x,1/2+y,-z
-x,y,z
x,1/2-y,z
1/2+x,1/2+y,1/2+z
1/2-x,-y,1/2+z
1/2+x,1/2-y,1/2-z
1/2-x,y,1/2-z
1/2-x,1/2-y,1/2-z
1/2+x,y,1/2-z
1/2-x,1/2+y,1/2+z
1/2+x,-y,1/2+z
loop_
_atom_site_type_symbol
_atom_site_label
_atom_site_fract_x
_atom_site_fract_y
_atom_site_fract_z
Si Si1 0.107038 0.188732 0.455885
Si Si2 0.612815 0.094736 0.394309
Si Si3 0.726163 0.055582 0.541842
Si Si4 0.886013 0.420580 0.659889
Si Si5 0.113889 0.014039 0.812585
Si Si6 0.224572 0.690365 0.843049
Si Si7 0.386055 0.693078 0.137831
O O1 0.094769 0.250000 0.433445
O O2 0.184472 0.164699 0.392198
O O3 0.151118 0.182280 0.546223
O O4 0.000000 0.161275 0.446645
O O5 0.500000 0.088949 0.417535
O O6 0.676660 0.094171 0.476381
O O7 0.632319 0.151489 0.352989
O O8 0.642031 0.047320 0.331108
O O9 0.831881 0.073251 0.573606
O O10 0.655360 0.052605 0.618887
O O11 0.741062 0.000000 0.500000
O O12 0.847887 0.464578 0.724717
O O13 0.862392 0.359682 0.691272
O O14 0.000000 0.427203 0.642454
O O15 0.000000 0.022532 0.813518
O O16 0.198330 0.750000 0.874461
O O17 0.250000 0.692923 0.750000
O O18 0.500000 0.700890 0.131139
O O19 0.342540 0.750000 0.171339
#
# Coordination Sequence:
#
# PCOD8298555 Si02
#       7
#    16  16  16  16  16  16  16
#     4   8  14  27  47  70 100 137 172 206 248 306
#     4  10  21  37  56  76 102 140 184 224 261 309
#     4  10  20  34  54  76 102 138 178 217 258 313
#     4  10  19  31  52  82 111 136 165 212 271 319
#     4   9  19  36  56  77 101 134 179 224 266 315
#     4  10  21  34  50  75 104 135 176 224 272 318
#     4   8  14  26  46  72 101 133 164 191 232 300
#
# _framework density 19.619350000000001
#
# number of rings (size 3 to 8) (size 9 to 14) (size 15 to 20)
#    0.000    2.714    0.000    2.571    0.000    5.143 
#    0.000    1.429    0.000    8.571    0.000    2.000 
#    0.000    0.000    0.000    0.000    0.000    0.000 
#
# Total GULP energy -693739.267544 kJ/mol
# GULP energy per Si atom -12388.201206 kJ/mol
# Density = 1.957470 g / cm^3
# Si number density = 19.619350 Si / 1000 Ang^3
#
#
#
# Elastic Constant Matrix: (Units=GPa)
#
#
# Indices 1 2 3 4 5 6 
#
# 1 53.7551 38.6601 35.7850 0.0000 0.0000 0.0000
# 2 38.6601 70.7788 52.7491 -0.0001 0.0000 0.0000
# 3 35.7850 52.7491 76.6367 -0.0002 0.0000 0.0000
# 4 0.0000 -0.0001 -0.0002 15.0400 0.0000 0.0000
# 5 0.0000 0.0000 0.0000 0.0000 27.5823 0.0000
# 6 0.0000 0.0000 0.0000 0.0000 0.0000 23.2426
#
#
#
# Elastic Compliance Matrix: (Units=1/GPa)
#
#
# Indices 1 2 3 4 5 6 
#
# 1 0.031912 -0.012988 -0.005962 0.000000 0.000000 0.000000
# 2 -0.012988 0.034295 -0.017541 0.000000 0.000000 0.000000
# 3 -0.005962 -0.017541 0.027906 0.000000 0.000000 0.000000
# 4 0.000000 0.000000 0.000000 0.066490 0.000000 0.000000
# 5 0.000000 0.000000 0.000000 0.000000 0.036255 0.000000
# 6 0.000000 0.000000 0.000000 0.000000 0.000000 0.043024
#
#
# Mechanical properties :
#
#
# Convention : Reuss Voigt Hill
#
# Bulk Modulus (GPa) = 47.32042 50.61768 48.96905
# Shear Modulus (GPa) = 15.62953 18.10474 16.86713
#
# Velocity S-wave (km/s) = 2.82554 3.04106 2.93528
# Velocity P-wave (km/s) = 5.90055 6.17953 6.04165
#
# Compressibility (1/GPa) = 0.02113253
#
# Stress axis : x y z
#
# Youngs Moduli (GPa) = 31.33588 29.15860 35.83482
#
# Poissons Ratio (x) = 0.37870 0.21364
# Poissons Ratio (y) = 0.40698 0.62857
# Poissons Ratio (z) = 0.18682 0.51147
#
# Static dielectric constant tensor:
#      x y z
#    x 3.535360 0.000000 0.000000 
#    y 0.000000 3.805810 0.000000 
#    z 0.000000 0.000000 3.580660 
# 
# 
# High freq. dielectric constant tensor:
#      x y z
#    x 1.753060 0.000000 0.000000 
#    y 0.000000 1.762990 0.000000 
#    z 0.000000 0.000000 1.746090 
# 
# From -- ./inp_files/32920.got.cif
#   From: 2010.03.12/outbox.cif.g09.slc.cpg/sg74_17_cif.got.tgz:32920.got - 2010.04.16 15:46:19.
