data_PCOD8298233
_publ_section_title
;
Structure prediction by ZEFSAII (Michael W. Deem and Ramdas Pophale) SiO2 
 PCOD8298233
Probable space group: I M M A
;
_chemical_formula_sum "Si O2"
_cell_formula_units_Z 96
_cell_length_a 9.289110
_cell_length_b 30.471275
_cell_length_c 26.522745
_cell_angle_alpha 90.000000
_cell_angle_beta 90.000000
_cell_angle_gamma 90.000000
_cell_volume 7507.290166
_symmetry_space_group_name_H-M "I M M A"
_symmetry_group_IT_number 74
_symmetry_cell_setting 'orthorhombic'
loop_
_space_group_symop_operation_xyz
x,y,z
-x,1/2-y,z
x,-y,-z
-x,1/2+y,-z
-x,-y,-z
x,1/2+y,-z
-x,y,z
x,1/2-y,z
1/2+x,1/2+y,1/2+z
1/2-x,-y,1/2+z
1/2+x,1/2-y,1/2-z
1/2-x,y,1/2-z
1/2-x,1/2-y,1/2-z
1/2+x,y,1/2-z
1/2-x,1/2+y,1/2+z
1/2+x,-y,1/2+z
loop_
_atom_site_type_symbol
_atom_site_label
_atom_site_fract_x
_atom_site_fract_y
_atom_site_fract_z
Si Si1 0.161968 0.494024 0.581577
Si Si2 0.838999 0.134623 0.955382
Si Si3 0.833589 0.199766 0.606336
Si Si4 0.338607 0.429645 0.012819
Si Si5 0.162385 0.929581 0.139322
Si Si6 0.330684 0.861654 0.199856
O O1 0.214454 0.541531 0.560841
O O2 0.161598 0.459877 0.536136
O O3 0.269223 0.476868 0.625081
O O4 0.000000 0.497614 0.603450
O O5 0.755065 0.178455 0.939400
O O6 0.764418 0.112087 0.003987
O O7 0.838781 0.101043 0.909328
O O8 0.000000 0.147784 0.970993
O O9 0.785963 0.250000 0.612286
O O10 0.800934 0.176042 0.659041
O O11 0.000000 0.194946 0.592016
O O12 0.500000 0.412300 0.022599
O O13 0.260867 0.907597 0.182214
O O14 0.000000 0.936638 0.159567
O O15 0.500000 0.868595 0.209609
O O16 0.250000 0.845678 0.250000
#
# Coordination Sequence:
#
# PCOD8298233 Si02
#       6
#    16  16  16  16  16  16
#     4   8  13  21  33  49  67  87 108 126 147 179
#     4   9  16  24  35  51  68  84 103 129 160 193
#     4   9  18  31  43  52  63  82 107 135 172 217
#     4   8  13  21  33  48  67  89 108 124 146 182
#     4   9  16  25  36  50  67  85 104 127 158 195
#     4  10  19  30  42  53  65  81 104 136 174 215
#
# _framework density 12.787570000000001
#
# number of rings (size 3 to 8) (size 9 to 14) (size 15 to 20)
#    0.000    3.167    0.000    2.500    0.000    6.000 
#    0.000    3.333    0.000    0.000    0.000    0.000 
#    0.000    0.000    0.000    0.000    0.000    0.000 
#
# Total GULP energy -594939.711449 kJ/mol
# GULP energy per Si atom -12394.577322 kJ/mol
# Density = 1.275847 g / cm^3
# Si number density = 12.787570 Si / 1000 Ang^3
#
#
#
# Elastic Constant Matrix: (Units=GPa)
#
#
# Indices 1 2 3 4 5 6 
#
# 1 94.6543 53.7749 30.6859 0.0000 0.0000 0.0000
# 2 53.7749 72.2892 40.8257 0.0000 0.0000 0.0000
# 3 30.6859 40.8257 24.2402 0.0000 0.0000 0.0000
# 4 0.0000 0.0000 0.0000 13.1364 0.0000 0.0000
# 5 0.0000 0.0000 0.0000 0.0000 17.4262 0.0000
# 6 0.0000 0.0000 0.0000 0.0000 0.0000 15.3414
#
#
#
# Elastic Compliance Matrix: (Units=1/GPa)
#
#
# Indices 1 2 3 4 5 6 
#
# 1 0.018326 -0.010867 -0.004897 0.000000 0.000000 0.000000
# 2 -0.010867 0.289725 -0.474202 0.000001 0.000000 0.000000
# 3 -0.004897 -0.474202 0.846110 -0.000002 0.000000 0.000000
# 4 0.000000 0.000001 -0.000002 0.076124 0.000000 0.000000
# 5 0.000000 0.000000 0.000000 0.000000 0.057385 0.000000
# 6 0.000000 0.000000 0.000000 0.000000 0.000000 0.065183
#
#
# Mechanical properties :
#
#
# Convention : Reuss Voigt Hill
#
# Bulk Modulus (GPa) = 5.73955 49.08410 27.41182
# Shear Modulus (GPa) = 2.09130 13.57395 7.83262
#
# Velocity S-wave (km/s) = 1.28022 3.26159 2.47760
# Velocity P-wave (km/s) = 2.58523 7.25614 5.44679
#
# Compressibility (1/GPa) = 0.17422961
#
# Stress axis : x y z
#
# Youngs Moduli (GPa) = 54.56739 3.45155 1.18188
#
# Poissons Ratio (x) = 0.03751 0.00579
# Poissons Ratio (y) = 0.59299 0.56045
# Poissons Ratio (z) = 0.26720 1.63673
#
# Static dielectric constant tensor:
#      x y z
#    x 2.798230 0.000000 0.000000 
#    y 0.000000 2.529150 0.000000 
#    z 0.000000 0.000000 2.319040 
# 
# 
# High freq. dielectric constant tensor:
#      x y z
#    x 1.499910 0.000000 0.000000 
#    y 0.000000 1.459050 0.000000 
#    z 0.000000 0.000000 1.434800 
# 
# From -- ./inp_files/64902.got.cif
#   From: 2010.03.12/outbox.cif.g09.slc.cpg/sg74_33_cif.got.tgz:64902.got - 2010.04.16 15:46:19.
