data_PCOD8298814
_publ_section_title
;
Structure prediction by ZEFSAII (Michael W. Deem and Ramdas Pophale) SiO2 
 PCOD8298814
Probable space group: I M M A
;
_chemical_formula_sum "Si O2"
_cell_formula_units_Z 96
_cell_length_a 19.103215
_cell_length_b 27.161225
_cell_length_c 9.623531
_cell_angle_alpha 90.000000
_cell_angle_beta 90.000000
_cell_angle_gamma 90.000000
_cell_volume 4993.329973
_symmetry_space_group_name_H-M "I M M A"
_symmetry_group_IT_number 74
_symmetry_cell_setting 'orthorhombic'
loop_
_space_group_symop_operation_xyz
x,y,z
-x,1/2-y,z
x,-y,-z
-x,1/2+y,-z
-x,-y,-z
x,1/2+y,-z
-x,y,z
x,1/2-y,z
1/2+x,1/2+y,1/2+z
1/2-x,-y,1/2+z
1/2+x,1/2-y,1/2-z
1/2-x,y,1/2-z
1/2-x,1/2-y,1/2-z
1/2+x,y,1/2-z
1/2-x,1/2+y,1/2+z
1/2+x,-y,1/2+z
loop_
_atom_site_type_symbol
_atom_site_label
_atom_site_fract_x
_atom_site_fract_y
_atom_site_fract_z
Si Si1 0.190411 0.971888 0.353823
Si Si2 0.578851 0.144608 0.499141
Si Si3 0.792717 0.640709 0.382126
Si Si4 0.582085 0.961546 0.382475
Si Si5 0.578636 0.194221 0.785755
Si Si6 0.793538 0.193818 0.111665
O O1 0.250000 0.993996 0.250000
O O2 0.212694 0.917522 0.399927
O O3 0.118799 0.972475 0.264974
O O4 0.181810 0.000000 0.500000
O O5 0.500000 0.140863 0.436661
O O6 0.603284 0.092274 0.561789
O O7 0.582434 0.184299 0.621672
O O8 0.633042 0.163213 0.381217
O O9 0.750000 0.659405 0.250000
O O10 0.873377 0.657004 0.371910
O O11 0.758328 0.668089 0.507752
O O12 0.500000 0.965564 0.353202
O O13 0.606601 0.000000 0.500000
O O14 0.500000 0.185471 0.840023
O O15 0.603089 0.250000 0.812494
O O16 0.810167 0.250000 0.070543
O O17 0.750000 0.190882 0.250000
#
# Coordination Sequence:
#
# PCOD8298814 Si02
#       6
#    16  16  16  16  16  16
#     4  11  23  38  58  85 117 156 198 247 295 350
#     4  10  19  36  61  86 114 148 196 243 283 344
#     4  11  21  37  59  83 113 150 195 244 291 343
#     4  10  21  39  62  87 118 153 193 245 301 356
#     4  10  19  32  57  89 114 141 185 241 290 334
#     4  11  24  39  56  85 122 156 191 236 296 359
#
# _framework density 19.225646999999999
#
# number of rings (size 3 to 8) (size 9 to 14) (size 15 to 20)
#    0.000    1.500    3.333    2.500    0.000    4.000 
#    0.000    0.833    0.000    1.000    0.000    0.000 
#    0.000    0.000    0.000    0.000    0.000    0.000 
#
# Total GULP energy -595113.424875 kJ/mol
# GULP energy per Si atom -12398.196352 kJ/mol
# Density = 1.918189 g / cm^3
# Si number density = 19.225647 Si / 1000 Ang^3
#
#
#
# Elastic Constant Matrix: (Units=GPa)
#
#
# Indices 1 2 3 4 5 6 
#
# 1 105.7475 46.1104 32.6093 0.0000 0.0000 0.0000
# 2 46.1104 91.0880 52.6636 0.0000 0.0000 0.0000
# 3 32.6093 52.6636 68.1386 0.0000 0.0000 0.0000
# 4 0.0000 0.0000 0.0000 30.2340 0.0000 0.0000
# 5 0.0000 0.0000 0.0000 0.0000 16.1158 0.0000
# 6 0.0000 0.0000 0.0000 0.0000 0.0000 29.2908
#
#
#
# Elastic Compliance Matrix: (Units=1/GPa)
#
#
# Indices 1 2 3 4 5 6 
#
# 1 0.012275 -0.005093 -0.001938 0.000000 0.000000 0.000000
# 2 -0.005093 0.021961 -0.014536 0.000000 0.000000 0.000000
# 3 -0.001938 -0.014536 0.026838 0.000000 0.000000 0.000000
# 4 0.000000 0.000000 0.000000 0.033075 0.000000 0.000000
# 5 0.000000 0.000000 0.000000 0.000000 0.062051 0.000000
# 6 0.000000 0.000000 0.000000 0.000000 0.000000 0.034140
#
#
# Mechanical properties :
#
#
# Convention : Reuss Voigt Hill
#
# Bulk Modulus (GPa) = 55.74220 58.63788 57.19004
# Shear Modulus (GPa) = 20.88086 24.03417 22.45752
#
# Velocity S-wave (km/s) = 3.29917 3.53953 3.42146
# Velocity P-wave (km/s) = 6.60070 6.87534 6.73942
#
# Compressibility (1/GPa) = 0.01793973
#
# Stress axis : x y z
#
# Youngs Moduli (GPa) = 81.46624 45.53579 37.26093
#
# Poissons Ratio (x) = 0.23194 0.07220
# Poissons Ratio (y) = 0.41495 0.54161
# Poissons Ratio (z) = 0.15787 0.66189
#
# Static dielectric constant tensor:
#      x y z
#    x 3.903990 0.000000 0.000000 
#    y 0.000000 3.678270 0.000000 
#    z 0.000000 0.000000 3.148670 
# 
# 
# High freq. dielectric constant tensor:
#      x y z
#    x 1.765300 0.000000 0.000000 
#    y 0.000000 1.757950 0.000000 
#    z 0.000000 0.000000 1.717000 
# 
# From -- ./inp_files/12695.got.cif
#   From: 2010.03.12/outbox.cif.g09.slc.cpg/sg74_7_cif.got.tgz:12695.got - 2010.04.16 15:46:19.
