data_PCOD8298916
_publ_section_title
;
Structure prediction by ZEFSAII (Michael W. Deem and Ramdas Pophale) SiO2 
 PCOD8298916
Probable space group: I M M A
;
_chemical_formula_sum "Si O2"
_cell_formula_units_Z 88
_cell_length_a 30.679952
_cell_length_b 8.600074
_cell_length_c 17.930949
_cell_angle_alpha 90.000000
_cell_angle_beta 90.000000
_cell_angle_gamma 90.000000
_cell_volume 4731.078339
_symmetry_space_group_name_H-M "I M M A"
_symmetry_group_IT_number 74
_symmetry_cell_setting 'orthorhombic'
loop_
_space_group_symop_operation_xyz
x,y,z
-x,1/2-y,z
x,-y,-z
-x,1/2+y,-z
-x,-y,-z
x,1/2+y,-z
-x,y,z
x,1/2-y,z
1/2+x,1/2+y,1/2+z
1/2-x,-y,1/2+z
1/2+x,1/2-y,1/2-z
1/2-x,y,1/2-z
1/2-x,1/2-y,1/2-z
1/2+x,y,1/2-z
1/2-x,1/2+y,1/2+z
1/2+x,-y,1/2+z
loop_
_atom_site_type_symbol
_atom_site_label
_atom_site_fract_x
_atom_site_fract_y
_atom_site_fract_z
Si Si1 0.167524 0.933255 0.575923
Si Si2 0.703206 0.932743 0.768988
Si Si3 0.914510 0.931827 0.359310
Si Si4 0.000000 0.432203 0.418650
Si Si5 0.950112 0.433710 0.917855
Si Si6 0.113047 0.432993 0.206156
O O1 0.170022 0.750000 0.573113
O O2 0.190950 0.001370 0.649700
O O3 0.188902 0.000000 0.500000
O O4 0.117827 0.988968 0.581558
O O5 0.708804 0.750000 0.777946
O O6 0.750000 0.009527 0.750000
O O7 0.665762 0.966275 0.705984
O O8 0.915328 0.750000 0.375082
O O9 0.904080 0.965369 0.273833
O O10 0.960315 0.008711 0.371016
O O11 0.000000 0.500000 0.500000
O O12 0.000000 0.250000 0.424941
O O13 0.942405 0.250000 0.918168
O O14 0.912919 0.513288 0.867149
O O15 0.000000 0.471974 0.891169
O O16 0.942851 0.500000 0.000000
O O17 0.104841 0.250000 0.219610
#
# Coordination Sequence:
#
# PCOD8298916 Si02
#       6
#    16  16  16   8  16  16
#     4  10  19  33  54  78 104 137 178 220 269 323
#     4   8  16  33  56  80 107 141 181 225 275 331
#     4  11  22  36  53  75 105 140 179 220 262 310
#     4  12  24  38  52  72 103 138 177 218 262 308
#     4  10  21  37  57  81 111 147 188 233 282 336
#     4  10  20  35  57  83 110 143 181 224 274 329
#
# _framework density 18.600411000000001
#
# number of rings (size 3 to 8) (size 9 to 14) (size 15 to 20)
#    0.000    2.000    0.000    5.727    1.273    1.091 
#    0.000    0.909    0.000   21.818    0.000    0.000 
#    0.000    0.000    0.000    0.000    0.000    0.000 
#
# Total GULP energy -545307.305887 kJ/mol
# GULP energy per Si atom -12393.347861 kJ/mol
# Density = 1.855808 g / cm^3
# Si number density = 18.600411 Si / 1000 Ang^3
#
#
#
# Elastic Constant Matrix: (Units=GPa)
#
#
# Indices 1 2 3 4 5 6 
#
# 1 143.1558 30.6393 57.6553 0.0000 0.0000 0.0000
# 2 30.6393 66.4472 30.1465 0.0000 0.0000 0.0000
# 3 57.6553 30.1465 95.1135 0.0000 0.0000 0.0000
# 4 0.0000 0.0000 0.0000 35.1396 0.0000 0.0000
# 5 0.0000 0.0000 0.0000 0.0000 20.2247 0.0000
# 6 0.0000 0.0000 0.0000 0.0000 0.0000 14.6980
#
#
#
# Elastic Compliance Matrix: (Units=1/GPa)
#
#
# Indices 1 2 3 4 5 6 
#
# 1 0.009477 -0.002060 -0.005092 0.000000 0.000000 0.000000
# 2 -0.002060 0.018025 -0.004464 0.000000 0.000000 0.000000
# 3 -0.005092 -0.004464 0.015015 0.000000 0.000000 0.000000
# 4 0.000000 0.000000 0.000000 0.028458 0.000000 0.000000
# 5 0.000000 0.000000 0.000000 0.000000 0.049444 0.000000
# 6 0.000000 0.000000 0.000000 0.000000 0.000000 0.068036
#
#
# Mechanical properties :
#
#
# Convention : Reuss Voigt Hill
#
# Bulk Modulus (GPa) = 51.85381 60.17763 56.01572
# Shear Modulus (GPa) = 22.92355 26.43082 24.67718
#
# Velocity S-wave (km/s) = 3.51439 3.77368 3.64634
# Velocity P-wave (km/s) = 6.66380 7.17012 6.92159
#
# Compressibility (1/GPa) = 0.01928499
#
# Stress axis : x y z
#
# Youngs Moduli (GPa) = 105.51908 55.47915 66.59873
#
# Poissons Ratio (x) = 0.11428 0.33911
# Poissons Ratio (y) = 0.21735 0.29732
# Poissons Ratio (z) = 0.53729 0.24768
#
# Static dielectric constant tensor:
#      x y z
#    x 3.753950 0.000000 0.000000 
#    y 0.000000 3.374190 0.000000 
#    z 0.000000 0.000000 3.513020 
# 
# 
# High freq. dielectric constant tensor:
#      x y z
#    x 1.718830 0.000000 0.000000 
#    y 0.000000 1.721790 0.000000 
#    z 0.000000 0.000000 1.719770 
# 
# From -- ./inp_files/47029.got.cif
#   From: 2010.03.12/outbox.cif.g09.slc.cpg/sg74_24_cif.got.tgz:47029.got - 2010.04.16 15:46:19.
