data_PCOD8298960
_publ_section_title
;
Structure prediction by ZEFSAII (Michael W. Deem and Ramdas Pophale) SiO2 
 PCOD8298960
Probable space group: I M M A
;
_chemical_formula_sum "Si O2"
_cell_formula_units_Z 80
_cell_length_a 17.191966
_cell_length_b 27.451416
_cell_length_c 7.969600
_cell_angle_alpha 90.000000
_cell_angle_beta 90.000000
_cell_angle_gamma 90.000000
_cell_volume 3761.203392
_symmetry_space_group_name_H-M "I M M A"
_symmetry_group_IT_number 74
_symmetry_cell_setting 'orthorhombic'
loop_
_space_group_symop_operation_xyz
x,y,z
-x,1/2-y,z
x,-y,-z
-x,1/2+y,-z
-x,-y,-z
x,1/2+y,-z
-x,y,z
x,1/2-y,z
1/2+x,1/2+y,1/2+z
1/2-x,-y,1/2+z
1/2+x,1/2-y,1/2-z
1/2-x,y,1/2-z
1/2-x,1/2-y,1/2-z
1/2+x,y,1/2-z
1/2-x,1/2+y,1/2+z
1/2+x,-y,1/2+z
loop_
_atom_site_type_symbol
_atom_site_label
_atom_site_fract_x
_atom_site_fract_y
_atom_site_fract_z
Si Si1 0.909310 0.130902 0.473750
Si Si2 0.689284 0.039443 0.117204
Si Si3 0.413859 0.471090 0.669476
Si Si4 0.592512 0.804496 0.659547
Si Si5 0.909714 0.635582 0.153095
O O1 0.855526 0.082930 0.475246
O O2 0.880780 0.166800 0.326664
O O3 0.897667 0.156221 0.657012
O O4 0.000000 0.116761 0.446817
O O5 0.750000 0.061680 0.250000
O O6 0.625270 0.004388 0.194216
O O7 0.735936 0.000000 0.000000
O O8 0.418010 0.500000 0.500000
O O9 0.500000 0.459460 0.738823
O O10 0.371920 0.418583 0.640714
O O11 0.500000 0.802112 0.652041
O O12 0.627119 0.750000 0.668433
O O13 0.627696 0.830036 0.491071
O O14 0.000000 0.632198 0.106724
#
# Coordination Sequence:
#
# PCOD8298960 Si02
#       5
#    16  16  16  16  16
#     4  10  20  36  59  84 112 150 191 228 278 341
#     4  12  24  37  53  79 114 151 189 237 285 333
#     4  10  19  33  55  80 109 147 188 228 274 334
#     4   9  18  32  53  85 119 144 175 230 289 335
#     4   9  17  30  51  79 108 142 182 223 270 328
#
# _framework density 21.269788999999999
#
# number of rings (size 3 to 8) (size 9 to 14) (size 15 to 20)
#    0.000    2.000    2.000    2.400    0.000    4.800 
#    0.000    4.000    0.000    0.600    0.000    1.400 
#    0.000    0.000    0.000    0.000    0.000    0.000 
#
# Total GULP energy -495677.380654 kJ/mol
# GULP energy per Si atom -12391.934516 kJ/mol
# Density = 2.122138 g / cm^3
# Si number density = 21.269789 Si / 1000 Ang^3
#
#
#
# Elastic Constant Matrix: (Units=GPa)
#
#
# Indices 1 2 3 4 5 6 
#
# 1 20.1582 8.7453 8.0933 -0.0002 -0.0002 0.0000
# 2 8.7453 129.7178 66.8355 -0.0002 -0.0007 -0.0005
# 3 8.0933 66.8355 149.0258 0.0000 0.0019 0.0020
# 4 -0.0002 -0.0002 0.0000 37.2451 0.0001 0.0002
# 5 -0.0002 -0.0007 0.0019 0.0001 10.7900 0.0005
# 6 0.0000 -0.0005 0.0020 0.0002 0.0005 8.5123
#
#
#
# Elastic Compliance Matrix: (Units=1/GPa)
#
#
# Indices 1 2 3 4 5 6 
#
# 1 0.051397 -0.002636 -0.001609 0.000000 0.000001 0.000000
# 2 -0.002636 0.010161 -0.004414 0.000000 0.000001 0.000002
# 3 -0.001609 -0.004414 0.008777 0.000000 -0.000002 -0.000002
# 4 0.000000 0.000000 0.000000 0.026849 0.000000 -0.000001
# 5 0.000001 0.000001 -0.000002 0.000000 0.092678 -0.000006
# 6 0.000000 0.000002 -0.000002 -0.000001 -0.000006 0.117477
#
#
# Mechanical properties :
#
#
# Convention : Reuss Voigt Hill
#
# Bulk Modulus (GPa) = 18.86174 51.80555 35.33364
# Shear Modulus (GPa) = 14.60580 25.65801 20.13190
#
# Velocity S-wave (km/s) = 2.62332 3.47697 3.07987
# Velocity P-wave (km/s) = 4.25004 6.36619 5.41254
#
# Compressibility (1/GPa) = 0.05301739
#
# Stress axis : x y z
#
# Youngs Moduli (GPa) = 19.45633 98.41610 113.93193
#
# Poissons Ratio (x) = 0.25943 0.18332
# Poissons Ratio (y) = 0.05129 0.50288
# Poissons Ratio (z) = 0.03131 0.43439
#
# Static dielectric constant tensor:
#      x y z
#    x 3.471630 0.000000 0.000000 
#    y 0.000000 3.884590 0.000010 
#    z 0.000000 0.000010 3.762880 
# 
# 
# High freq. dielectric constant tensor:
#      x y z
#    x 1.782170 0.000000 0.000000 
#    y 0.000000 1.821550 0.000000 
#    z 0.000000 0.000000 1.856200 
# 
# From -- ./inp_files/10871.got.cif
#   From: 2010.03.12/outbox.cif.g09.slc.cpg/sg74_6_cif.got.tgz:10871.got - 2010.04.16 15:46:19.
