data_PCOD8298570
_publ_section_title
;
Structure prediction by ZEFSAII (Michael W. Deem and Ramdas Pophale) SiO2 
 PCOD8298570
Probable space group: I M M A
;
_chemical_formula_sum "Si O2"
_cell_formula_units_Z 112
_cell_length_a 31.265267
_cell_length_b 14.899033
_cell_length_c 11.712497
_cell_angle_alpha 90.000000
_cell_angle_beta 90.000000
_cell_angle_gamma 90.000000
_cell_volume 5455.941645
_symmetry_space_group_name_H-M "I M M A"
_symmetry_group_IT_number 74
_symmetry_cell_setting 'orthorhombic'
loop_
_space_group_symop_operation_xyz
x,y,z
-x,1/2-y,z
x,-y,-z
-x,1/2+y,-z
-x,-y,-z
x,1/2+y,-z
-x,y,z
x,1/2-y,z
1/2+x,1/2+y,1/2+z
1/2-x,-y,1/2+z
1/2+x,1/2-y,1/2-z
1/2-x,y,1/2-z
1/2-x,1/2-y,1/2-z
1/2+x,y,1/2-z
1/2-x,1/2+y,1/2+z
1/2+x,-y,1/2+z
loop_
_atom_site_type_symbol
_atom_site_label
_atom_site_fract_x
_atom_site_fract_y
_atom_site_fract_z
Si Si1 0.680170 0.894422 0.494479
Si Si2 0.155914 0.481104 0.622433
Si Si3 0.546071 0.849121 0.702171
Si Si4 0.047604 0.406060 0.958248
Si Si5 0.359185 0.646576 0.735989
Si Si6 0.617673 0.150477 0.705909
Si Si7 0.734494 0.148327 0.878103
O O1 0.660448 0.852925 0.609184
O O2 0.654898 0.856989 0.386639
O O3 0.728995 0.865005 0.473990
O O4 0.675936 0.000000 0.500000
O O5 0.134229 0.500000 0.500000
O O6 0.166680 0.576327 0.685056
O O7 0.123098 0.421993 0.695060
O O8 0.198714 0.425325 0.597491
O O9 0.500000 0.898125 0.735254
O O10 0.543976 0.750000 0.753833
O O11 0.548336 0.839328 0.565085
O O12 0.591323 0.891112 0.742470
O O13 0.000000 0.425216 0.912788
O O14 0.068834 0.500000 0.000000
O O15 0.072207 0.364617 0.852353
O O16 0.356217 0.750000 0.780488
O O17 0.619156 0.250000 0.759447
O O18 0.716503 0.250000 0.888470
O O19 0.750000 0.130133 0.750000
#
# Coordination Sequence:
#
# PCOD8298570 Si02
#       7
#    16  16  16  16  16  16  16
#     4  12  21  38  65  96 131 160 197 251 321 389
#     4  12  27  44  61  83 119 168 221 273 321 368
#     4   9  17  30  53  89 129 161 191 237 307 387
#     4  10  19  31  53  91 134 164 190 240 315 392
#     4  11  22  39  65  96 129 165 207 260 322 388
#     4  12  22  37  63  90 123 166 210 255 312 385
#     4  11  22  40  66  95 124 157 203 256 318 389
#
# _framework density 20.528079000000002
#
# number of rings (size 3 to 8) (size 9 to 14) (size 15 to 20)
#    0.000    1.000    4.286    3.857    0.000    2.000 
#    0.000    0.000    0.000    4.714    0.000    2.000 
#    0.000    0.000    0.000    0.000    0.000    0.000 
#
# Total GULP energy -693982.594005 kJ/mol
# GULP energy per Si atom -12392.546322 kJ/mol
# Density = 2.048136 g / cm^3
# Si number density = 20.528079 Si / 1000 Ang^3
#
#
#
# Elastic Constant Matrix: (Units=GPa)
#
#
# Indices 1 2 3 4 5 6 
#
# 1 103.9000 29.9869 17.0254 0.0000 0.0000 0.0000
# 2 29.9869 137.2340 34.9212 0.0000 0.0000 0.0000
# 3 17.0254 34.9212 78.8113 0.0000 0.0000 0.0000
# 4 0.0000 0.0000 0.0000 9.1717 0.0000 0.0000
# 5 0.0000 0.0000 0.0000 0.0000 14.4602 0.0000
# 6 0.0000 0.0000 0.0000 0.0000 0.0000 26.0539
#
#
#
# Elastic Compliance Matrix: (Units=1/GPa)
#
#
# Indices 1 2 3 4 5 6 
#
# 1 0.010407 -0.001918 -0.001398 0.000000 0.000000 0.000000
# 2 -0.001918 0.008566 -0.003381 0.000000 0.000000 0.000000
# 3 -0.001398 -0.003381 0.014489 0.000000 0.000000 0.000000
# 4 0.000000 0.000000 0.000000 0.109031 0.000000 0.000000
# 5 0.000000 0.000000 0.000000 0.000000 0.069155 0.000000
# 6 0.000000 0.000000 0.000000 0.000000 0.000000 0.038382
#
#
# Mechanical properties :
#
#
# Convention : Reuss Voigt Hill
#
# Bulk Modulus (GPa) = 49.83355 53.75694 51.79525
# Shear Modulus (GPa) = 18.51059 25.80461 22.15760
#
# Velocity S-wave (km/s) = 3.00612 3.54932 3.28896
# Velocity P-wave (km/s) = 6.03138 6.56055 6.30152
#
# Compressibility (1/GPa) = 0.02006680
#
# Stress axis : x y z
#
# Youngs Moduli (GPa) = 96.08530 116.73475 69.01836
#
# Poissons Ratio (x) = 0.22393 0.09651
# Poissons Ratio (y) = 0.18432 0.23338
# Poissons Ratio (z) = 0.13436 0.39472
#
# Static dielectric constant tensor:
#      x y z
#    x 3.906770 0.000000 0.000000 
#    y 0.000000 3.882770 0.000000 
#    z 0.000000 0.000000 3.474580 
# 
# 
# High freq. dielectric constant tensor:
#      x y z
#    x 1.801580 0.000000 0.000000 
#    y 0.000000 1.819060 0.000000 
#    z 0.000000 0.000000 1.758490 
# 
# From -- ./inp_files/27214.got.cif
#   From: 2010.03.12/outbox.cif.g09.slc.cpg/sg74_14_cif.got.tgz:27214.got - 2010.04.16 15:46:19.
