data_PCOD8298063
_publ_section_title
;
Structure prediction by ZEFSAII (Michael W. Deem and Ramdas Pophale) SiO2 
 PCOD8298063
Probable space group: I M M A
;
_chemical_formula_sum "Si O2"
_cell_formula_units_Z 96
_cell_length_a 17.665824
_cell_length_b 20.981420
_cell_length_c 13.982777
_cell_angle_alpha 90.000000
_cell_angle_beta 90.000000
_cell_angle_gamma 90.000000
_cell_volume 5182.773247
_symmetry_space_group_name_H-M "I M M A"
_symmetry_group_IT_number 74
_symmetry_cell_setting 'orthorhombic'
loop_
_space_group_symop_operation_xyz
x,y,z
-x,1/2-y,z
x,-y,-z
-x,1/2+y,-z
-x,-y,-z
x,1/2+y,-z
-x,y,z
x,1/2-y,z
1/2+x,1/2+y,1/2+z
1/2-x,-y,1/2+z
1/2+x,1/2-y,1/2-z
1/2-x,y,1/2-z
1/2-x,1/2-y,1/2-z
1/2+x,y,1/2-z
1/2-x,1/2+y,1/2+z
1/2+x,-y,1/2+z
loop_
_atom_site_type_symbol
_atom_site_label
_atom_site_fract_x
_atom_site_fract_y
_atom_site_fract_z
Si Si1 0.410552 0.178934 0.872342
Si Si2 0.912775 0.138305 0.833731
Si Si3 0.279490 0.108192 0.349004
Si Si4 0.797666 0.964498 0.162070
Si Si5 0.914646 0.322190 0.042771
Si Si6 0.676979 0.929867 0.012801
O O1 0.500000 0.171015 0.882490
O O2 0.386041 0.250000 0.908744
O O3 0.384293 0.175023 0.761294
O O4 0.374526 0.121644 0.933452
O O5 0.878820 0.067949 0.839618
O O6 0.000000 0.126283 0.823335
O O7 0.892623 0.176633 0.930197
O O8 0.250000 0.140426 0.250000
O O9 0.349590 0.145237 0.394935
O O10 0.204161 0.102513 0.414308
O O11 0.312784 0.038875 0.325714
O O12 0.750000 0.936670 0.250000
O O13 0.754697 0.945734 0.066194
O O14 0.916305 0.250000 0.077105
O O15 0.000000 0.351659 0.058063
O O16 0.635620 0.000000 0.000000
#
# Coordination Sequence:
#
# PCOD8298063 Si02
#       6
#    16  16  16  16  16  16
#     4  10  21  37  57  85 119 149 180 224 279 339
#     4  10  19  33  56  86 117 146 173 214 280 347
#     4  10  22  37  56  78 107 145 188 239 277 314
#     4  10  18  34  55  83 113 139 178 226 279 338
#     4  10  21  37  56  80 111 145 183 228 280 337
#     4  10  20  36  57  81 111 148 189 231 277 328
#
# _framework density 18.522901999999998
#
# number of rings (size 3 to 8) (size 9 to 14) (size 15 to 20)
#    0.000    2.000    3.333    0.500    0.000    4.000 
#    0.000    3.333    0.000    2.000    0.000    0.000 
#    0.000    0.000    0.000    0.000    0.000    0.000 
#
# Total GULP energy -594774.658690 kJ/mol
# GULP energy per Si atom -12391.138723 kJ/mol
# Density = 1.848074 g / cm^3
# Si number density = 18.522902 Si / 1000 Ang^3
#
#
#
# Elastic Constant Matrix: (Units=GPa)
#
#
# Indices 1 2 3 4 5 6 
#
# 1 59.4490 55.1758 48.1217 0.0000 0.0000 0.0000
# 2 55.1758 113.6830 44.0050 0.0000 0.0000 0.0000
# 3 48.1217 44.0050 122.4564 0.0000 0.0000 0.0000
# 4 0.0000 0.0000 0.0000 20.3493 0.0000 0.0000
# 5 0.0000 0.0000 0.0000 0.0000 31.5662 0.0000
# 6 0.0000 0.0000 0.0000 0.0000 0.0000 28.8025
#
#
#
# Elastic Compliance Matrix: (Units=1/GPa)
#
#
# Indices 1 2 3 4 5 6 
#
# 1 0.038648 -0.014960 -0.009812 0.000000 0.000000 0.000000
# 2 -0.014960 0.016008 0.000126 0.000000 0.000000 0.000000
# 3 -0.009812 0.000126 0.011977 0.000000 0.000000 0.000000
# 4 0.000000 0.000000 0.000000 0.049142 0.000000 0.000000
# 5 0.000000 0.000000 0.000000 0.000000 0.031679 0.000000
# 6 0.000000 0.000000 0.000000 0.000000 0.000000 0.034719
#
#
# Mechanical properties :
#
#
# Convention : Reuss Voigt Hill
#
# Bulk Modulus (GPa) = 57.66309 65.57703 61.62006
# Shear Modulus (GPa) = 21.07538 26.02932 23.55235
#
# Velocity S-wave (km/s) = 3.37679 3.75273 3.56971
# Velocity P-wave (km/s) = 6.81189 7.36596 7.09434
#
# Compressibility (1/GPa) = 0.01734211
#
# Stress axis : x y z
#
# Youngs Moduli (GPa) = 25.87484 62.46795 83.49673
#
# Poissons Ratio (x) = 0.93450 0.81923
# Poissons Ratio (y) = 0.38708 -0.01053
# Poissons Ratio (z) = 0.25387 -0.00788
#
# Static dielectric constant tensor:
#      x y z
#    x 3.246780 0.000000 0.000000 
#    y 0.000000 3.461800 0.000000 
#    z 0.000000 0.000000 3.660600 
# 
# 
# High freq. dielectric constant tensor:
#      x y z
#    x 1.702260 0.000000 0.000000 
#    y 0.000000 1.715320 0.000000 
#    z 0.000000 0.000000 1.722540 
# 
# From -- ./inp_files/32361.got.cif
#   From: 2010.03.12/outbox.cif.g09.slc.cpg/sg74_17_cif.got.tgz:32361.got - 2010.04.16 15:46:19.
