data_PCOD8298532
_publ_section_title
;
Structure prediction by ZEFSAII (Michael W. Deem and Ramdas Pophale) SiO2 
 PCOD8298532
Probable space group: I M M A
;
_chemical_formula_sum "Si O2"
_cell_formula_units_Z 104
_cell_length_a 28.561990
_cell_length_b 8.985789
_cell_length_c 24.030499
_cell_angle_alpha 90.000000
_cell_angle_beta 90.000000
_cell_angle_gamma 90.000000
_cell_volume 6167.476003
_symmetry_space_group_name_H-M "I M M A"
_symmetry_group_IT_number 74
_symmetry_cell_setting 'orthorhombic'
loop_
_space_group_symop_operation_xyz
x,y,z
-x,1/2-y,z
x,-y,-z
-x,1/2+y,-z
-x,-y,-z
x,1/2+y,-z
-x,y,z
x,1/2-y,z
1/2+x,1/2+y,1/2+z
1/2-x,-y,1/2+z
1/2+x,1/2-y,1/2-z
1/2-x,y,1/2-z
1/2-x,1/2-y,1/2-z
1/2+x,y,1/2-z
1/2-x,1/2+y,1/2+z
1/2+x,-y,1/2+z
loop_
_atom_site_type_symbol
_atom_site_label
_atom_site_fract_x
_atom_site_fract_y
_atom_site_fract_z
Si Si1 0.376527 0.424765 0.440216
Si Si2 0.416025 0.425189 0.125639
Si Si3 0.825665 0.576209 0.559272
Si Si4 0.000000 0.927815 0.439687
Si Si5 0.775186 0.577606 0.941910
Si Si6 0.054139 0.922091 0.142520
Si Si7 0.054740 0.079871 0.730875
O O1 0.383637 0.500000 0.500000
O O2 0.382400 0.250000 0.449018
O O3 0.324952 0.465514 0.413278
O O4 0.415512 0.477781 0.397809
O O5 0.426072 0.250000 0.119063
O O6 0.365379 0.472935 0.102474
O O7 0.454244 0.519464 0.092693
O O8 0.416713 0.470417 0.190474
O O9 0.833769 0.500000 0.500000
O O10 0.829383 0.750000 0.547328
O O11 0.774549 0.535846 0.587526
O O12 0.000000 0.750000 0.444398
O O13 0.000000 0.000000 0.500000
O O14 0.776067 0.750000 0.954621
O O15 0.773747 0.500000 0.000000
O O16 0.065499 0.750000 0.131642
O O17 0.066449 0.965057 0.205910
O O18 0.000000 0.955404 0.130171
O O19 0.069522 0.250000 0.719560
O O20 0.000000 0.059973 0.718848
#
# Coordination Sequence:
#
# PCOD8298532 Si02
#       7
#    16  16  16   8  16  16  16
#     4  10  19  31  51  77 103 131 161 194 238 288
#     4  11  21  32  49  73  97 125 163 206 248 293
#     4   9  18  31  47  69  97 126 159 200 245 291
#     4  12  24  36  48  66  98 134 165 202 251 300
#     4   8  15  29  47  68  95 126 159 195 236 286
#     4   9  19  35  53  73  99 130 163 199 241 286
#     4   9  18  34  53  70  91 126 166 203 246 290
#
# _framework density 16.862651
#
# number of rings (size 3 to 8) (size 9 to 14) (size 15 to 20)
#    0.000    2.462    0.769    3.000    0.000    4.308 
#    0.000    1.538    0.000    0.923    0.000    6.462 
#    0.000    0.000    0.000    0.000    0.000    0.000 
#
# Total GULP energy -644307.177334 kJ/mol
# GULP energy per Si atom -12390.522641 kJ/mol
# Density = 1.682427 g / cm^3
# Si number density = 16.862651 Si / 1000 Ang^3
#
#
#
# Elastic Constant Matrix: (Units=GPa)
#
#
# Indices 1 2 3 4 5 6 
#
# 1 125.9989 52.3910 67.0478 0.0000 0.0000 0.0000
# 2 52.3910 69.2548 44.7385 0.0000 0.0000 0.0000
# 3 67.0478 44.7385 93.5776 0.0000 0.0000 0.0000
# 4 0.0000 0.0000 0.0000 30.4113 0.0000 0.0000
# 5 0.0000 0.0000 0.0000 0.0000 10.2082 0.0000
# 6 0.0000 0.0000 0.0000 0.0000 0.0000 19.2743
#
#
#
# Elastic Compliance Matrix: (Units=1/GPa)
#
#
# Indices 1 2 3 4 5 6 
#
# 1 0.014426 -0.006129 -0.007406 0.000000 0.000000 0.000000
# 2 -0.006129 0.023496 -0.006842 0.000000 0.000000 0.000000
# 3 -0.007406 -0.006842 0.019264 0.000000 0.000000 0.000000
# 4 0.000000 0.000000 0.000000 0.032883 0.000000 0.000000
# 5 0.000000 0.000000 0.000000 0.000000 0.097960 0.000000
# 6 0.000000 0.000000 0.000000 0.000000 0.000000 0.051883
#
#
# Mechanical properties :
#
#
# Convention : Reuss Voigt Hill
#
# Bulk Modulus (GPa) = 60.85663 68.57621 64.71642
# Shear Modulus (GPa) = 17.47391 20.28902 18.88146
#
# Velocity S-wave (km/s) = 3.22257 3.47247 3.34985
# Velocity P-wave (km/s) = 7.07210 7.53878 7.30917
#
# Compressibility (1/GPa) = 0.01643206
#
# Stress axis : x y z
#
# Youngs Moduli (GPa) = 69.31965 42.56098 51.91149
#
# Poissons Ratio (x) = 0.26085 0.38445
# Poissons Ratio (y) = 0.42486 0.35516
# Poissons Ratio (z) = 0.51337 0.29119
#
# Static dielectric constant tensor:
#      x y z
#    x 3.837050 0.000000 0.000000 
#    y 0.000000 3.389380 0.000000 
#    z 0.000000 0.000000 3.014220 
# 
# 
# High freq. dielectric constant tensor:
#      x y z
#    x 1.658370 0.000000 0.000000 
#    y 0.000000 1.656180 0.000000 
#    z 0.000000 0.000000 1.623750 
# 
# From -- ./inp_files/68682.got.cif
#   From: 2010.03.12/outbox.cif.g09.slc.cpg/sg74_35_cif.got.tgz:68682.got - 2010.04.16 15:46:19.
