data_PCOD8298741
_publ_section_title
;
Structure prediction by ZEFSAII (Michael W. Deem and Ramdas Pophale) SiO2 
 PCOD8298741
Probable space group: I M M A
;
_chemical_formula_sum "Si O2"
_cell_formula_units_Z 88
_cell_length_a 9.273746
_cell_length_b 21.135036
_cell_length_c 23.832724
_cell_angle_alpha 90.000000
_cell_angle_beta 90.000000
_cell_angle_gamma 90.000000
_cell_volume 4671.236678
_symmetry_space_group_name_H-M "I M M A"
_symmetry_group_IT_number 74
_symmetry_cell_setting 'orthorhombic'
loop_
_space_group_symop_operation_xyz
x,y,z
-x,1/2-y,z
x,-y,-z
-x,1/2+y,-z
-x,-y,-z
x,1/2+y,-z
-x,y,z
x,1/2-y,z
1/2+x,1/2+y,1/2+z
1/2-x,-y,1/2+z
1/2+x,1/2-y,1/2-z
1/2-x,y,1/2-z
1/2-x,1/2-y,1/2-z
1/2+x,y,1/2-z
1/2-x,1/2+y,1/2+z
1/2+x,-y,1/2+z
loop_
_atom_site_type_symbol
_atom_site_label
_atom_site_fract_x
_atom_site_fract_y
_atom_site_fract_z
Si Si1 0.838349 0.609766 0.399740
Si Si2 0.162837 0.475456 0.440422
Si Si3 0.160048 0.179996 0.982686
Si Si4 0.327600 0.750000 0.689944
Si Si5 0.162943 0.857807 0.895137
Si Si6 0.832842 0.323227 0.804874
O O1 0.837329 0.534212 0.397553
O O2 0.783407 0.632851 0.460792
O O3 0.724973 0.636348 0.355989
O O4 0.000000 0.635728 0.388825
O O5 0.231069 0.500000 0.500000
O O6 0.246810 0.421131 0.407075
O O7 0.000000 0.451675 0.452483
O O8 0.185982 0.250000 0.957662
O O9 0.000000 0.156175 0.964512
O O10 0.169574 0.184938 0.049507
O O11 0.500000 0.750000 0.697468
O O12 0.250000 0.750000 0.750000
O O13 0.279355 0.813590 0.655911
O O14 0.000000 0.879417 0.881837
O O15 0.802307 0.250000 0.817305
O O16 0.750000 0.346370 0.750000
O O17 0.000000 0.337397 0.795992
#
# Coordination Sequence:
#
# PCOD8298741 Si02
#       6
#    16  16  16   8  16  16
#     4  11  22  35  53  80 116 153 189 231 275 331
#     4  10  21  37  54  80 119 155 188 230 283 341
#     4  10  19  32  52  80 113 147 183 232 286 338
#     4  10  22  42  64  90 118 150 195 248 299 350
#     4  10  20  36  59  84 112 146 189 237 288 348
#     4  10  21  38  59  82 110 145 186 232 278 327
#
# _framework density 18.838695000000001
#
# number of rings (size 3 to 8) (size 9 to 14) (size 15 to 20)
#    0.000    1.818    2.727    1.636    0.000    6.182 
#    0.000    0.909    0.000    2.182    0.000    0.000 
#    0.000    0.000    0.000    0.000    0.000    0.000 
#
# Total GULP energy -545452.935828 kJ/mol
# GULP energy per Si atom -12396.657632 kJ/mol
# Density = 1.879582 g / cm^3
# Si number density = 18.838695 Si / 1000 Ang^3
#
#
#
# Elastic Constant Matrix: (Units=GPa)
#
#
# Indices 1 2 3 4 5 6 
#
# 1 93.2060 55.2246 43.9678 0.0000 0.0000 0.0000
# 2 55.2246 102.7786 43.5118 0.0000 0.0000 0.0000
# 3 43.9678 43.5118 102.0689 0.0000 0.0000 0.0000
# 4 0.0000 0.0000 0.0000 8.2627 0.0000 0.0000
# 5 0.0000 0.0000 0.0000 0.0000 35.1075 0.0000
# 6 0.0000 0.0000 0.0000 0.0000 0.0000 29.2758
#
#
#
# Elastic Compliance Matrix: (Units=1/GPa)
#
#
# Indices 1 2 3 4 5 6 
#
# 1 0.017104 -0.007408 -0.004210 0.000000 0.000000 0.000000
# 2 -0.007408 0.015081 -0.003238 0.000000 0.000000 0.000000
# 3 -0.004210 -0.003238 0.012991 0.000000 0.000000 0.000000
# 4 0.000000 0.000000 0.000000 0.121026 0.000000 0.000000
# 5 0.000000 0.000000 0.000000 0.000000 0.028484 0.000000
# 6 0.000000 0.000000 0.000000 0.000000 0.000000 0.034158
#
#
# Mechanical properties :
#
#
# Convention : Reuss Voigt Hill
#
# Bulk Modulus (GPa) = 64.66378 64.82910 64.74644
# Shear Modulus (GPa) = 18.96022 24.88581 21.92302
#
# Velocity S-wave (km/s) = 3.17590 3.63849 3.41504
# Velocity P-wave (km/s) = 6.91722 7.22073 7.07061
#
# Compressibility (1/GPa) = 0.01546461
#
# Stress axis : x y z
#
# Youngs Moduli (GPa) = 58.46559 66.30919 76.97627
#
# Poissons Ratio (x) = 0.49122 0.32406
# Poissons Ratio (y) = 0.43312 0.24923
# Poissons Ratio (z) = 0.24613 0.21470
#
# Static dielectric constant tensor:
#      x y z
#    x 3.496530 0.000000 0.000000 
#    y 0.000000 3.387380 0.000000 
#    z 0.000000 0.000000 3.433800 
# 
# 
# High freq. dielectric constant tensor:
#      x y z
#    x 1.731990 0.000000 0.000000 
#    y 0.000000 1.728200 0.000000 
#    z 0.000000 0.000000 1.718950 
# 
# From -- ./inp_files/56961.got.cif
#   From: 2010.03.12/outbox.cif.g09.slc.cpg/sg74_29_cif.got.tgz:56961.got - 2010.04.16 15:46:19.
