data_PCOD8298887
_publ_section_title
;
Structure prediction by ZEFSAII (Michael W. Deem and Ramdas Pophale) SiO2 
 PCOD8298887
Probable space group: I M M A
;
_chemical_formula_sum "Si O2"
_cell_formula_units_Z 72
_cell_length_a 18.043780
_cell_length_b 8.790630
_cell_length_c 23.892022
_cell_angle_alpha 90.000000
_cell_angle_beta 90.000000
_cell_angle_gamma 90.000000
_cell_volume 3789.661591
_symmetry_space_group_name_H-M "I M M A"
_symmetry_group_IT_number 74
_symmetry_cell_setting 'orthorhombic'
loop_
_space_group_symop_operation_xyz
x,y,z
-x,1/2-y,z
x,-y,-z
-x,1/2+y,-z
-x,-y,-z
x,1/2+y,-z
-x,y,z
x,1/2-y,z
1/2+x,1/2+y,1/2+z
1/2-x,-y,1/2+z
1/2+x,1/2-y,1/2-z
1/2-x,y,1/2-z
1/2-x,1/2-y,1/2-z
1/2+x,y,1/2-z
1/2-x,1/2+y,1/2+z
1/2+x,-y,1/2+z
loop_
_atom_site_type_symbol
_atom_site_label
_atom_site_fract_x
_atom_site_fract_y
_atom_site_fract_z
Si Si1 0.286490 0.570141 0.439218
Si Si2 0.582301 0.429712 0.760997
Si Si3 0.637798 0.570603 0.122900
Si Si4 0.500000 0.429496 0.060737
Si Si5 0.583502 0.931002 0.362101
O O1 0.280463 0.500000 0.500000
O O2 0.290295 0.750000 0.445306
O O3 0.215814 0.520198 0.402802
O O4 0.359369 0.504106 0.408007
O O5 0.500000 0.491904 0.775314
O O6 0.578704 0.250000 0.756353
O O7 0.637659 0.476929 0.811184
O O8 0.607256 0.491848 0.699877
O O9 0.623466 0.750000 0.115762
O O10 0.573259 0.481485 0.092288
O O11 0.500000 0.250000 0.055387
O O12 0.500000 0.500000 0.000000
O O13 0.500000 0.986180 0.376608
O O14 0.587181 0.750000 0.362827
#
# Coordination Sequence:
#
# PCOD8298887 Si02
#       5
#    16  16  16   8  16
#     4  10  21  34  50  74 104 138 175 216 257 303
#     4   8  13  25  49  77 104 129 159 207 260 304
#     4  10  19  33  53  77 105 135 170 212 258 307
#     4  12  24  36  52  74 102 140 181 214 249 300
#     4   8  15  29  50  78 106 131 165 214 265 306
#
# _framework density 18.999058999999999
#
# number of rings (size 3 to 8) (size 9 to 14) (size 15 to 20)
#    0.000    2.667    1.111    3.000    0.000    4.000 
#    0.000    4.444    0.000    1.333    0.000    3.111 
#    0.000    0.000    0.000    0.000    0.000    0.000 
#
# Total GULP energy -446153.099504 kJ/mol
# GULP energy per Si atom -12393.141653 kJ/mol
# Density = 1.895582 g / cm^3
# Si number density = 18.999059 Si / 1000 Ang^3
#
#
#
# Elastic Constant Matrix: (Units=GPa)
#
#
# Indices 1 2 3 4 5 6 
#
# 1 143.6468 29.9394 83.0117 0.0000 0.0000 0.0000
# 2 29.9394 30.2896 20.8424 0.0000 0.0000 0.0000
# 3 83.0117 20.8424 133.2419 0.0000 0.0000 0.0000
# 4 0.0000 0.0000 0.0000 21.7112 0.0000 0.0000
# 5 0.0000 0.0000 0.0000 0.0000 56.4404 0.0000
# 6 0.0000 0.0000 0.0000 0.0000 0.0000 8.9372
#
#
#
# Elastic Compliance Matrix: (Units=1/GPa)
#
#
# Indices 1 2 3 4 5 6 
#
# 1 0.012301 -0.007716 -0.006457 0.000000 0.000000 0.000000
# 2 -0.007716 0.041837 -0.001737 0.000000 0.000000 0.000000
# 3 -0.006457 -0.001737 0.011800 0.000000 0.000000 0.000000
# 4 0.000000 0.000000 0.000000 0.046059 0.000000 0.000000
# 5 0.000000 0.000000 0.000000 0.000000 0.017718 0.000000
# 6 0.000000 0.000000 0.000000 0.000000 0.000000 0.111892
#
#
# Mechanical properties :
#
#
# Convention : Reuss Voigt Hill
#
# Bulk Modulus (GPa) = 29.31039 63.86279 46.58659
# Shear Modulus (GPa) = 17.55626 28.97673 23.26649
#
# Velocity S-wave (km/s) = 3.04313 3.90957 3.50324
# Velocity P-wave (km/s) = 5.27336 7.35298 6.39823
#
# Compressibility (1/GPa) = 0.03411759
#
# Stress axis : x y z
#
# Youngs Moduli (GPa) = 81.29469 23.90247 84.74917
#
# Poissons Ratio (x) = 0.18443 0.54720
# Poissons Ratio (y) = 0.62725 0.14723
# Poissons Ratio (z) = 0.52490 0.04152
#
# Static dielectric constant tensor:
#      x y z
#    x 3.663710 0.000000 0.000000 
#    y 0.000000 2.969390 0.000000 
#    z 0.000000 0.000000 3.806150 
# 
# 
# High freq. dielectric constant tensor:
#      x y z
#    x 1.737350 0.000000 0.000000 
#    y 0.000000 1.680530 0.000000 
#    z 0.000000 0.000000 1.757560 
# 
# From -- ./inp_files/56679.got.cif
#   From: 2010.03.12/outbox.cif.g09.slc.cpg/sg74_29_cif.got.tgz:56679.got - 2010.04.16 15:46:19.
