data_PCOD8298262
_publ_section_title
;
Structure prediction by ZEFSAII (Michael W. Deem and Ramdas Pophale) SiO2 
 PCOD8298262
Probable space group: I M M A
;
_chemical_formula_sum "Si O2"
_cell_formula_units_Z 96
_cell_length_a 9.191488
_cell_length_b 21.974285
_cell_length_c 25.847305
_cell_angle_alpha 90.000000
_cell_angle_beta 90.000000
_cell_angle_gamma 90.000000
_cell_volume 5220.545016
_symmetry_space_group_name_H-M "I M M A"
_symmetry_group_IT_number 74
_symmetry_cell_setting 'orthorhombic'
loop_
_space_group_symop_operation_xyz
x,y,z
-x,1/2-y,z
x,-y,-z
-x,1/2+y,-z
-x,-y,-z
x,1/2+y,-z
-x,y,z
x,1/2-y,z
1/2+x,1/2+y,1/2+z
1/2-x,-y,1/2+z
1/2+x,1/2-y,1/2-z
1/2-x,y,1/2-z
1/2-x,1/2-y,1/2-z
1/2+x,y,1/2-z
1/2-x,1/2+y,1/2+z
1/2+x,-y,1/2+z
loop_
_atom_site_type_symbol
_atom_site_label
_atom_site_fract_x
_atom_site_fract_y
_atom_site_fract_z
Si Si1 0.172882 0.955473 0.897805
Si Si2 0.670875 0.320076 0.696997
Si Si3 0.173196 0.092127 0.894579
Si Si4 0.326359 0.250000 0.447634
Si Si5 0.672030 0.250000 0.332661
Si Si6 0.328252 0.619716 0.700365
Si Si7 0.673515 0.124075 0.492384
O O1 0.228134 0.913962 0.850798
O O2 0.231197 0.927297 0.952005
O O3 0.000000 0.955859 0.899821
O O4 0.231339 0.023421 0.887127
O O5 0.500000 0.329741 0.705517
O O6 0.705641 0.250000 0.682249
O O7 0.750000 0.338889 0.750000
O O8 0.730788 0.363409 0.650910
O O9 0.000000 0.094410 0.894692
O O10 0.234657 0.112808 0.950217
O O11 0.500000 0.250000 0.446706
O O12 0.261180 0.250000 0.390062
O O13 0.267535 0.309839 0.476250
O O14 0.500000 0.250000 0.338518
O O15 0.723318 0.189864 0.302801
O O16 0.500000 0.612675 0.706774
O O17 0.250000 0.590149 0.750000
O O18 0.500000 0.122623 0.492190
#
# Coordination Sequence:
#
# PCOD8298262 Si02
#       7
#    16  16  16   8   8  16  16
#     4   9  16  27  40  59  89 121 146 177 225 271
#     4   9  18  32  48  67  92 119 147 183 224 263
#     4   9  17  26  41  64  90 117 146 181 221 266
#     4   9  14  21  37  60  87 119 145 174 221 272
#     4   9  15  27  42  60  88 119 149 182 223 264
#     4  10  19  30  45  64  88 119 154 188 220 259
#     4   9  15  23  38  61  90 118 144 177 223 271
#
# _framework density 18.388884000000001
#
# number of rings (size 3 to 8) (size 9 to 14) (size 15 to 20)
#    0.000    2.833    1.667    0.750    1.167    2.667 
#    0.000    0.000    0.000    0.000    0.000    1.167 
#    0.000    2.667    0.000    0.000    0.000    0.000 
#
# Total GULP energy -594951.043925 kJ/mol
# GULP energy per Si atom -12394.813415 kJ/mol
# Density = 1.834703 g / cm^3
# Si number density = 18.388884 Si / 1000 Ang^3
#
#
#
# Elastic Constant Matrix: (Units=GPa)
#
#
# Indices 1 2 3 4 5 6 
#
# 1 9.5888 13.8937 22.6562 0.0000 0.0000 0.0000
# 2 13.8937 136.2157 83.8221 0.0000 0.0000 0.0000
# 3 22.6562 83.8221 181.5668 0.0000 0.0000 0.0000
# 4 0.0000 0.0000 0.0000 25.8954 0.0000 0.0000
# 5 0.0000 0.0000 0.0000 0.0000 18.5712 0.0000
# 6 0.0000 0.0000 0.0000 0.0000 0.0000 7.3318
#
#
#
# Elastic Compliance Matrix: (Units=1/GPa)
#
#
# Indices 1 2 3 4 5 6 
#
# 1 0.150585 -0.005303 -0.016342 0.000000 0.000000 0.000000
# 2 -0.005303 0.010441 -0.004159 0.000000 0.000000 0.000000
# 3 -0.016342 -0.004159 0.009467 0.000000 0.000000 0.000000
# 4 0.000000 0.000000 0.000000 0.038617 0.000000 0.000000
# 5 0.000000 0.000000 0.000000 0.000000 0.053847 0.000000
# 6 0.000000 0.000000 0.000000 0.000000 0.000000 0.136391
#
#
# Mechanical properties :
#
#
# Convention : Reuss Voigt Hill
#
# Bulk Modulus (GPa) = 8.41145 63.12393 35.76769
# Shear Modulus (GPa) = 10.19194 24.15966 17.17580
#
# Velocity S-wave (km/s) = 2.35679 3.62860 3.05951
# Velocity P-wave (km/s) = 3.46267 7.20814 5.65453
#
# Compressibility (1/GPa) = 0.11888556
#
# Stress axis : x y z
#
# Youngs Moduli (GPa) = 6.64077 95.77415 105.63402
#
# Poissons Ratio (x) = 0.50790 1.72627
# Poissons Ratio (y) = 0.03522 0.43929
# Poissons Ratio (z) = 0.10852 0.39828
#
# Static dielectric constant tensor:
#      x y z
#    x 2.591800 0.000000 0.000000 
#    y 0.000000 3.659570 0.000000 
#    z 0.000000 0.000000 3.582100 
# 
# 
# High freq. dielectric constant tensor:
#      x y z
#    x 1.625170 0.000000 0.000000 
#    y 0.000000 1.724090 0.000000 
#    z 0.000000 0.000000 1.728900 
# 
# From -- ./inp_files/50936.got.cif
#   From: 2010.03.12/outbox.cif.g09.slc.cpg/sg74_26_cif.got.tgz:50936.got - 2010.04.16 15:46:19.
