data_PCOD8298899
_publ_section_title
;
Structure prediction by ZEFSAII (Michael W. Deem and Ramdas Pophale) SiO2 
 PCOD8298899
Probable space group: I M M A
;
_chemical_formula_sum "Si O2"
_cell_formula_units_Z 72
_cell_length_a 25.198836
_cell_length_b 18.091702
_cell_length_c 8.149831
_cell_angle_alpha 90.000000
_cell_angle_beta 90.000000
_cell_angle_gamma 90.000000
_cell_volume 3715.425083
_symmetry_space_group_name_H-M "I M M A"
_symmetry_group_IT_number 74
_symmetry_cell_setting 'orthorhombic'
loop_
_space_group_symop_operation_xyz
x,y,z
-x,1/2-y,z
x,-y,-z
-x,1/2+y,-z
-x,-y,-z
x,1/2+y,-z
-x,y,z
x,1/2-y,z
1/2+x,1/2+y,1/2+z
1/2-x,-y,1/2+z
1/2+x,1/2-y,1/2-z
1/2-x,y,1/2-z
1/2-x,1/2-y,1/2-z
1/2+x,y,1/2-z
1/2-x,1/2+y,1/2+z
1/2+x,-y,1/2+z
loop_
_atom_site_type_symbol
_atom_site_label
_atom_site_fract_x
_atom_site_fract_y
_atom_site_fract_z
Si Si1 0.500000 0.375382 0.038163
Si Si2 0.939853 0.250000 0.939446
Si Si3 0.500000 0.011467 0.742660
Si Si4 0.325136 0.250000 0.141757
Si Si5 0.856211 0.352537 0.073037
Si Si6 0.924406 0.750000 0.447451
Si Si7 0.775968 0.750000 0.074153
Si Si8 0.406970 0.000000 0.500000
O O1 0.500000 0.431178 0.887943
O O2 0.448396 0.323310 0.032173
O O3 0.500000 0.425286 0.202107
O O4 0.936371 0.250000 0.743728
O O5 0.000000 0.250000 0.997472
O O6 0.913286 0.321564 0.019101
O O7 0.554074 0.028255 0.643485
O O8 0.337825 0.176685 0.248525
O O9 0.361810 0.250000 0.980041
O O10 0.265236 0.250000 0.077147
O O11 0.864911 0.439851 0.068202
O O12 0.812268 0.323437 0.942660
O O13 0.750000 0.750000 0.250000
#
# Coordination Sequence:
#
# PCOD8298899 Si02
#       8
#     8   8   8   8  16   8   8   8
#     4  10  20  34  48  80 114 148 192 230 276 328
#     4  10  19  33  53  81 112 153 191 240 276 333
#     4  10  22  34  50  72 116 162 182 222 274 338
#     4  10  20  39  61  87 109 146 186 248 292 327
#     4  10  22  37  57  83 114 147 191 234 284 345
#     4  11  19  31  57  82 111 142 196 240 277 334
#     4  10  21  42  66  85 107 142 186 245 300 343
#     4  11  22  36  54  78 116 154 192 217 284 342
#
# _framework density 19.378672000000002
#
# number of rings (size 3 to 8) (size 9 to 14) (size 15 to 20)
#    0.000    2.000    1.111    5.333    3.111    0.000 
#    8.000    2.222    0.000    2.667    0.000    0.000 
#    0.000    0.000    0.000    0.000    0.000    0.000 
#
# Total GULP energy -446262.062569 kJ/mol
# GULP energy per Si atom -12396.168405 kJ/mol
# Density = 1.933457 g / cm^3
# Si number density = 19.378672 Si / 1000 Ang^3
#
#
#
# Elastic Constant Matrix: (Units=GPa)
#
#
# Indices 1 2 3 4 5 6 
#
# 1 130.3478 43.2437 36.9575 0.0000 0.0000 0.0000
# 2 43.2437 115.8565 18.4287 0.0000 0.0000 0.0000
# 3 36.9575 18.4287 73.4276 0.0000 0.0000 0.0000
# 4 0.0000 0.0000 0.0000 7.2973 0.0000 0.0000
# 5 0.0000 0.0000 0.0000 0.0000 37.5918 0.0000
# 6 0.0000 0.0000 0.0000 0.0000 0.0000 14.4385
#
#
#
# Elastic Compliance Matrix: (Units=1/GPa)
#
#
# Indices 1 2 3 4 5 6 
#
# 1 0.009865 -0.003012 -0.004209 0.000000 0.000000 0.000000
# 2 -0.003012 0.009910 -0.000971 0.000000 0.000000 0.000000
# 3 -0.004209 -0.000971 0.015981 0.000000 0.000000 0.000000
# 4 0.000000 0.000000 0.000000 0.137036 0.000000 0.000000
# 5 0.000000 0.000000 0.000000 0.000000 0.026602 0.000000
# 6 0.000000 0.000000 0.000000 0.000000 0.000000 0.069259
#
#
# Mechanical properties :
#
#
# Convention : Reuss Voigt Hill
#
# Bulk Modulus (GPa) = 51.62378 57.43240 54.52809
# Shear Modulus (GPa) = 17.15298 26.59900 21.87599
#
# Velocity S-wave (km/s) = 2.97837 3.70887 3.36351
# Velocity P-wave (km/s) = 6.20684 6.93125 6.57902
#
# Compressibility (1/GPa) = 0.01937092
#
# Stress axis : x y z
#
# Youngs Moduli (GPa) = 101.37307 100.90583 62.57426
#
# Poissons Ratio (x) = 0.30398 0.26337
# Poissons Ratio (y) = 0.30538 0.06076
# Poissons Ratio (z) = 0.42667 0.09798
#
# Static dielectric constant tensor:
#      x y z
#    x 3.631320 0.000000 0.000000 
#    y 0.000000 3.538070 0.000000 
#    z 0.000000 0.000000 3.517950 
# 
# 
# High freq. dielectric constant tensor:
#      x y z
#    x 1.756220 0.000000 0.000000 
#    y 0.000000 1.740970 0.000000 
#    z 0.000000 0.000000 1.759850 
# 
# From -- ./inp_files/14882.got.cif
#   From: 2010.03.12/outbox.cif.g09.slc.cpg/sg74_8_cif.got.tgz:14882.got - 2010.04.16 15:46:19.
