data_PCOD8298244
_publ_section_title
;
Structure prediction by ZEFSAII (Michael W. Deem and Ramdas Pophale) SiO2 
 PCOD8298244
Probable space group: I M M A
;
_chemical_formula_sum "Si O2"
_cell_formula_units_Z 72
_cell_length_a 22.506905
_cell_length_b 9.641094
_cell_length_c 19.988681
_cell_angle_alpha 90.000000
_cell_angle_beta 90.000000
_cell_angle_gamma 90.000000
_cell_volume 4337.367612
_symmetry_space_group_name_H-M "I M M A"
_symmetry_group_IT_number 74
_symmetry_cell_setting 'orthorhombic'
loop_
_space_group_symop_operation_xyz
x,y,z
-x,1/2-y,z
x,-y,-z
-x,1/2+y,-z
-x,-y,-z
x,1/2+y,-z
-x,y,z
x,1/2-y,z
1/2+x,1/2+y,1/2+z
1/2-x,-y,1/2+z
1/2+x,1/2-y,1/2-z
1/2-x,y,1/2-z
1/2-x,1/2-y,1/2-z
1/2+x,y,1/2-z
1/2-x,1/2+y,1/2+z
1/2+x,-y,1/2+z
loop_
_atom_site_type_symbol
_atom_site_label
_atom_site_fract_x
_atom_site_fract_y
_atom_site_fract_z
Si Si1 0.567027 0.095827 0.110961
Si Si2 0.234215 0.602074 0.387886
Si Si3 0.197663 0.593985 0.804097
Si Si4 0.153341 0.000000 0.500000
Si Si5 0.128917 0.405754 0.713270
O O1 0.500000 0.071593 0.085145
O O2 0.574361 0.250000 0.142171
O O3 0.611437 0.090243 0.048080
O O4 0.580060 0.981559 0.167365
O O5 0.268673 0.750000 0.389888
O O6 0.279336 0.475338 0.373776
O O7 0.196946 0.593567 0.455972
O O8 0.190015 0.606634 0.325780
O O9 0.175614 0.750000 0.820279
O O10 0.250000 0.601316 0.750000
O O11 0.142334 0.500875 0.778176
O O12 0.106532 0.250000 0.732794
#
# Coordination Sequence:
#
# PCOD8298244 Si02
#       5
#    16  16  16   8  16
#     4  10  20  32  45  61  83 114 152 190 223 254
#     4   9  17  27  40  58  80 107 139 175 214 256
#     4   9  16  26  42  61  79 100 130 170 216 264
#     4  10  19  30  44  60  84 118 155 186 214 250
#     4   9  17  29  44  60  79 103 135 177 221 262
#
# _framework density 16.599930000000001
#
# number of rings (size 3 to 8) (size 9 to 14) (size 15 to 20)
#    0.000    2.667    0.000    2.333    0.000   10.222 
#    0.000    0.000    0.000    0.000    0.000    0.000 
#    0.000    0.000    0.000    1.000    0.000   11.111 
#
# Total GULP energy -446028.763094 kJ/mol
# GULP energy per Si atom -12389.687864 kJ/mol
# Density = 1.656215 g / cm^3
# Si number density = 16.599930 Si / 1000 Ang^3
#
#
#
# Elastic Constant Matrix: (Units=GPa)
#
#
# Indices 1 2 3 4 5 6 
#
# 1 38.5443 41.3347 41.7753 0.0000 0.0000 0.0000
# 2 41.3347 166.7105 46.8477 0.0000 0.0000 0.0000
# 3 41.7753 46.8477 55.4017 0.0000 0.0000 0.0000
# 4 0.0000 0.0000 0.0000 10.7850 0.0000 0.0000
# 5 0.0000 0.0000 0.0000 0.0000 15.5793 0.0000
# 6 0.0000 0.0000 0.0000 0.0000 0.0000 24.9509
#
#
#
# Elastic Compliance Matrix: (Units=1/GPa)
#
#
# Indices 1 2 3 4 5 6 
#
# 1 0.147933 -0.006995 -0.105633 0.000000 0.000000 0.000000
# 2 -0.006995 0.008199 -0.001659 0.000000 0.000000 0.000000
# 3 -0.105633 -0.001659 0.099104 0.000000 0.000000 0.000000
# 4 0.000000 0.000000 0.000000 0.092721 0.000000 0.000000
# 5 0.000000 0.000000 0.000000 0.000000 0.064188 0.000000
# 6 0.000000 0.000000 0.000000 0.000000 0.000000 0.040079
#
#
# Mechanical properties :
#
#
# Convention : Reuss Voigt Hill
#
# Bulk Modulus (GPa) = 37.50467 57.84132 47.67300
# Shear Modulus (GPa) = 7.24970 18.97631 13.11301
#
# Velocity S-wave (km/s) = 2.09208 3.38473 2.81364
# Velocity P-wave (km/s) = 5.33648 7.08485 6.27189
#
# Compressibility (1/GPa) = 0.02666334
#
# Stress axis : x y z
#
# Youngs Moduli (GPa) = 6.75983 121.96913 10.09039
#
# Poissons Ratio (x) = 0.85314 1.06588
# Poissons Ratio (y) = 0.04728 0.01674
# Poissons Ratio (z) = 0.71406 0.20229
#
# Static dielectric constant tensor:
#      x y z
#    x 2.746970 0.000000 0.000000 
#    y 0.000000 3.505070 0.000000 
#    z 0.000000 0.000000 2.925120 
# 
# 
# High freq. dielectric constant tensor:
#      x y z
#    x 1.585370 0.000000 0.000000 
#    y 0.000000 1.664200 0.000000 
#    z 0.000000 0.000000 1.600190 
# 
# From -- ./inp_files/45812.got.cif
#   From: 2010.03.12/outbox.cif.g09.slc.cpg/sg74_23_cif.got.tgz:45812.got - 2010.04.16 15:46:19.
