data_PCOD8298596
_publ_section_title
;
Structure prediction by ZEFSAII (Michael W. Deem and Ramdas Pophale) SiO2 
 PCOD8298596
Probable space group: I M M A
;
_chemical_formula_sum "Si O2"
_cell_formula_units_Z 120
_cell_length_a 8.822081
_cell_length_b 27.253860
_cell_length_c 27.688886
_cell_angle_alpha 90.000000
_cell_angle_beta 90.000000
_cell_angle_gamma 90.000000
_cell_volume 6657.398362
_symmetry_space_group_name_H-M "I M M A"
_symmetry_group_IT_number 74
_symmetry_cell_setting 'orthorhombic'
loop_
_space_group_symop_operation_xyz
x,y,z
-x,1/2-y,z
x,-y,-z
-x,1/2+y,-z
-x,-y,-z
x,1/2+y,-z
-x,y,z
x,1/2-y,z
1/2+x,1/2+y,1/2+z
1/2-x,-y,1/2+z
1/2+x,1/2-y,1/2-z
1/2-x,y,1/2-z
1/2-x,1/2-y,1/2-z
1/2+x,y,1/2-z
1/2-x,1/2+y,1/2+z
1/2+x,-y,1/2+z
loop_
_atom_site_type_symbol
_atom_site_label
_atom_site_fract_x
_atom_site_fract_y
_atom_site_fract_z
Si Si1 0.319371 0.564189 0.698606
Si Si2 0.820553 0.144028 0.032143
Si Si3 0.179553 0.195066 0.935607
Si Si4 0.180194 0.038880 0.698792
Si Si5 0.819239 0.250000 0.197608
Si Si6 0.822804 0.105101 0.610062
Si Si7 0.179535 0.157459 0.138566
Si Si8 0.821563 0.053863 0.512390
O O1 0.500000 0.559736 0.703068
O O2 0.250000 0.579100 0.750000
O O3 0.250414 0.512553 0.681097
O O4 0.267492 0.605578 0.660680
O O5 0.760529 0.163486 0.083720
O O6 0.000000 0.141073 0.031817
O O7 0.762377 0.179306 0.989029
O O8 0.756704 0.089655 0.025623
O O9 0.239476 0.250000 0.924879
O O10 0.242127 0.157804 0.895271
O O11 0.000000 0.193437 0.933646
O O12 0.250000 0.054839 0.750000
O O13 0.226467 0.080472 0.660342
O O14 0.000000 0.033076 0.703211
O O15 0.750000 0.250000 0.250000
O O16 0.755715 0.297714 0.169849
O O17 0.000000 0.250000 0.200928
O O18 0.774259 0.068608 0.566819
O O19 0.000000 0.115213 0.608624
O O20 0.000000 0.160054 0.139139
O O21 0.000000 0.057117 0.504933
O O22 0.759922 0.000000 0.500000
#
# Coordination Sequence:
#
# PCOD8298596 Si02
#       8
#    16  16  16  16   8  16  16  16
#     4  10  19  32  48  70  97 128 167 208 252 298
#     4   9  18  32  48  72 100 128 165 204 245 293
#     4   9  18  32  53  78 102 129 164 206 248 294
#     4  10  20  34  53  77 103 133 168 203 245 294
#     4  10  20  36  54  70  94 130 170 216 267 308
#     4   9  19  34  51  74 102 134 168 200 244 301
#     4   9  19  32  50  73  96 127 167 212 258 302
#     4   9  18  32  49  70 100 134 165 198 241 292
#
# _framework density 18.025058000000001
#
# number of rings (size 3 to 8) (size 9 to 14) (size 15 to 20)
#    0.000    2.667    0.000    2.000    2.800    1.600 
#    0.000    2.000    0.000    0.400    0.000    0.000 
#    0.000    0.000    0.000    0.000    0.000    0.000 
#
# Total GULP energy -743926.878197 kJ/mol
# GULP energy per Si atom -12398.781303 kJ/mol
# Density = 1.798403 g / cm^3
# Si number density = 18.025058 Si / 1000 Ang^3
#
#
#
# Elastic Constant Matrix: (Units=GPa)
#
#
# Indices 1 2 3 4 5 6 
#
# 1 36.8592 33.3487 29.1003 0.0000 0.0000 0.0000
# 2 33.3487 161.3583 86.9585 0.0000 0.0000 0.0000
# 3 29.1003 86.9585 123.3706 0.0000 0.0000 0.0000
# 4 0.0000 0.0000 0.0000 27.1904 0.0000 0.0000
# 5 0.0000 0.0000 0.0000 0.0000 24.4518 0.0000
# 6 0.0000 0.0000 0.0000 0.0000 0.0000 25.5227
#
#
#
# Elastic Compliance Matrix: (Units=1/GPa)
#
#
# Indices 1 2 3 4 5 6 
#
# 1 0.035276 -0.004525 -0.005131 0.000000 0.000000 0.000000
# 2 -0.004525 0.010574 -0.006386 0.000000 0.000000 0.000000
# 3 -0.005131 -0.006386 0.013817 0.000000 0.000000 0.000000
# 4 0.000000 0.000000 0.000000 0.036778 0.000000 0.000000
# 5 0.000000 0.000000 0.000000 0.000000 0.040897 0.000000
# 6 0.000000 0.000000 0.000000 0.000000 0.000000 0.039181
#
#
# Mechanical properties :
#
#
# Convention : Reuss Voigt Hill
#
# Bulk Modulus (GPa) = 36.25506 68.93369 52.59438
# Shear Modulus (GPa) = 22.95684 26.91171 24.93428
#
# Velocity S-wave (km/s) = 3.57264 3.86815 3.72332
# Velocity P-wave (km/s) = 6.09718 7.63390 6.90840
#
# Compressibility (1/GPa) = 0.02758236
#
# Stress axis : x y z
#
# Youngs Moduli (GPa) = 28.34825 94.57105 72.37490
#
# Poissons Ratio (x) = 0.42798 0.37135
# Poissons Ratio (y) = 0.12829 0.46217
# Poissons Ratio (z) = 0.14545 0.60391
#
# Static dielectric constant tensor:
#      x y z
#    x 3.149080 0.000000 0.000000 
#    y 0.000000 3.488850 0.000000 
#    z 0.000000 0.000000 3.440900 
# 
# 
# High freq. dielectric constant tensor:
#      x y z
#    x 1.682130 0.000000 0.000000 
#    y 0.000000 1.699120 0.000000 
#    z 0.000000 0.000000 1.694230 
# 
# From -- ./inp_files/65149.got.cif
#   From: 2010.03.12/outbox.cif.g09.slc.cpg/sg74_33_cif.got.tgz:65149.got - 2010.04.16 15:46:19.
