data_PCOD8298241
_publ_section_title
;
Structure prediction by ZEFSAII (Michael W. Deem and Ramdas Pophale) SiO2 
 PCOD8298241
Probable space group: I M M A
;
_chemical_formula_sum "Si O2"
_cell_formula_units_Z 96
_cell_length_a 15.236799
_cell_length_b 14.801829
_cell_length_c 27.771590
_cell_angle_alpha 90.000000
_cell_angle_beta 90.000000
_cell_angle_gamma 90.000000
_cell_volume 6263.395936
_symmetry_space_group_name_H-M "I M M A"
_symmetry_group_IT_number 74
_symmetry_cell_setting 'orthorhombic'
loop_
_space_group_symop_operation_xyz
x,y,z
-x,1/2-y,z
x,-y,-z
-x,1/2+y,-z
-x,-y,-z
x,1/2+y,-z
-x,y,z
x,1/2-y,z
1/2+x,1/2+y,1/2+z
1/2-x,-y,1/2+z
1/2+x,1/2-y,1/2-z
1/2-x,y,1/2-z
1/2-x,1/2-y,1/2-z
1/2+x,y,1/2-z
1/2-x,1/2+y,1/2+z
1/2+x,-y,1/2+z
loop_
_atom_site_type_symbol
_atom_site_label
_atom_site_fract_x
_atom_site_fract_y
_atom_site_fract_z
Si Si1 0.599346 0.750000 0.987149
Si Si2 0.266220 0.148665 0.369693
Si Si3 0.099661 0.144276 0.209162
Si Si4 0.400383 0.939463 0.116455
Si Si5 0.600718 0.593325 0.815278
Si Si6 0.401723 0.750000 0.100684
Si Si7 0.692225 0.436550 0.043540
O O1 0.500000 0.750000 0.966058
O O2 0.649052 0.658891 0.970775
O O3 0.597010 0.750000 0.043691
O O4 0.294472 0.250000 0.383297
O O5 0.335902 0.106528 0.332061
O O6 0.168780 0.153289 0.345978
O O7 0.269369 0.087565 0.418031
O O8 0.115614 0.250000 0.217937
O O9 0.123310 0.094936 0.258968
O O10 0.000000 0.124222 0.193309
O O11 0.500000 0.914919 0.106070
O O12 0.351100 0.841715 0.118068
O O13 0.386968 0.990101 0.167141
O O14 0.376736 0.001544 0.071286
O O15 0.500000 0.627270 0.824261
O O16 0.500000 0.750000 0.122259
O O17 0.728492 0.500000 0.000000
#
# Coordination Sequence:
#
# PCOD8298241 Si02
#       7
#     8  16  16  16  16   8  16
#     4  11  20  28  42  60  85 125 161 185 211 252
#     4  10  19  30  43  65  90 117 148 184 219 260
#     4   9  17  30  48  66  87 114 145 181 228 276
#     4   9  17  27  39  58  87 120 157 187 209 248
#     4   9  17  27  41  65  94 122 145 173 212 263
#     4   9  16  26  40  56  80 122 160 188 212 236
#     4  11  20  30  41  60  88 119 151 184 222 258
#
# _framework density 15.327149
#
# number of rings (size 3 to 8) (size 9 to 14) (size 15 to 20)
#    0.000    2.333    2.500    1.500    0.000    3.667 
#    0.000    0.000    0.000    0.500    0.000   10.500 
#    0.000    0.000    0.000    0.000    0.000    0.000 
#
# Total GULP energy -594639.355825 kJ/mol
# GULP energy per Si atom -12388.319913 kJ/mol
# Density = 1.529226 g / cm^3
# Si number density = 15.327149 Si / 1000 Ang^3
#
#
#
# Elastic Constant Matrix: (Units=GPa)
#
#
# Indices 1 2 3 4 5 6 
#
# 1 40.5973 16.6327 37.3156 0.0000 0.0000 0.0000
# 2 16.6327 107.1505 46.3583 0.0000 0.0000 0.0000
# 3 37.3156 46.3583 109.3781 0.0000 0.0000 0.0000
# 4 0.0000 0.0000 0.0000 23.2574 0.0000 0.0000
# 5 0.0000 0.0000 0.0000 0.0000 21.8934 0.0000
# 6 0.0000 0.0000 0.0000 0.0000 0.0000 8.4862
#
#
#
# Elastic Compliance Matrix: (Units=1/GPa)
#
#
# Indices 1 2 3 4 5 6 
#
# 1 0.035895 -0.000335 -0.012104 0.000000 0.000000 0.000000
# 2 -0.000335 0.011431 -0.004731 0.000000 0.000000 0.000000
# 3 -0.012104 -0.004731 0.015277 0.000000 0.000000 0.000000
# 4 0.000000 0.000000 0.000000 0.042997 0.000000 0.000000
# 5 0.000000 0.000000 0.000000 0.000000 0.045676 0.000000
# 6 0.000000 0.000000 0.000000 0.000000 0.000000 0.117838
#
#
# Mechanical properties :
#
#
# Convention : Reuss Voigt Hill
#
# Bulk Modulus (GPa) = 35.38088 50.85990 43.12039
# Shear Modulus (GPa) = 15.98081 21.18202 18.58141
#
# Velocity S-wave (km/s) = 3.23251 3.72155 3.48562
# Velocity P-wave (km/s) = 6.08819 7.19177 6.66287
#
# Compressibility (1/GPa) = 0.02826385
#
# Stress axis : x y z
#
# Youngs Moduli (GPa) = 27.85904 87.47827 65.45773
#
# Poissons Ratio (x) = 0.02932 0.79230
# Poissons Ratio (y) = 0.00934 0.30966
# Poissons Ratio (z) = 0.33720 0.41383
#
# Static dielectric constant tensor:
#      x y z
#    x 2.748480 0.000000 0.000000 
#    y 0.000000 3.129200 0.000000 
#    z 0.000000 0.000000 3.019570 
# 
# 
# High freq. dielectric constant tensor:
#      x y z
#    x 1.543940 0.000000 0.000000 
#    y 0.000000 1.585580 0.000000 
#    z 0.000000 0.000000 1.584770 
# 
# From -- ./inp_files/67133.got.cif
#   From: 2010.03.12/outbox.cif.g09.slc.cpg/sg74_34_cif.got.tgz:67133.got - 2010.04.16 15:46:19.
