data_PCOD8298442
_publ_section_title
;
Structure prediction by ZEFSAII (Michael W. Deem and Ramdas Pophale) SiO2 
 PCOD8298442
Probable space group: I M M A
;
_chemical_formula_sum "Si O2"
_cell_formula_units_Z 96
_cell_length_a 26.455781
_cell_length_b 16.273348
_cell_length_c 11.923074
_cell_angle_alpha 90.000000
_cell_angle_beta 90.000000
_cell_angle_gamma 90.000000
_cell_volume 5133.171071
_symmetry_space_group_name_H-M "I M M A"
_symmetry_group_IT_number 74
_symmetry_cell_setting 'orthorhombic'
loop_
_space_group_symop_operation_xyz
x,y,z
-x,1/2-y,z
x,-y,-z
-x,1/2+y,-z
-x,-y,-z
x,1/2+y,-z
-x,y,z
x,1/2-y,z
1/2+x,1/2+y,1/2+z
1/2-x,-y,1/2+z
1/2+x,1/2-y,1/2-z
1/2-x,y,1/2-z
1/2-x,1/2-y,1/2-z
1/2+x,y,1/2-z
1/2-x,1/2+y,1/2+z
1/2+x,-y,1/2+z
loop_
_atom_site_type_symbol
_atom_site_label
_atom_site_fract_x
_atom_site_fract_y
_atom_site_fract_z
Si Si1 0.705545 0.582445 0.433546
Si Si2 0.141844 0.345810 0.749149
Si Si3 0.320740 0.090422 0.972605
Si Si4 0.695781 0.654257 0.785682
Si Si5 0.444009 0.653056 0.415152
Si Si6 0.133578 0.157455 0.089396
O O1 0.688713 0.500000 0.500000
O O2 0.681850 0.593189 0.309700
O O3 0.765295 0.586889 0.418875
O O4 0.682878 0.656861 0.507976
O O5 0.156337 0.250000 0.766630
O O6 0.142005 0.366765 0.616666
O O7 0.086268 0.364671 0.799866
O O8 0.318805 0.142263 0.086184
O O9 0.341368 0.000000 0.000000
O O10 0.698925 0.750000 0.757020
O O11 0.750000 0.613541 0.750000
O O12 0.651036 0.615300 0.707138
O O13 0.500000 0.613421 0.408482
O O14 0.448129 0.750000 0.432496
O O15 0.413315 0.614639 0.522656
O O16 0.117202 0.250000 0.113710
#
# Coordination Sequence:
#
# PCOD8298442 Si02
#       6
#    16  16  16  16  16  16
#     4  10  20  31  48  72 104 139 171 213 255 305
#     4  10  21  35  53  78 105 138 180 222 264 311
#     4  11  23  32  47  71 106 145 181 208 253 306
#     4  10  19  31  49  69  99 138 174 210 251 306
#     4   8  15  31  56  81 101 124 164 222 278 317
#     4   9  17  30  50  75  99 130 170 209 259 310
#
# _framework density 18.701889000000001
#
# number of rings (size 3 to 8) (size 9 to 14) (size 15 to 20)
#    0.000    2.333    1.667    2.500    2.333    2.667 
#    0.000    0.000    0.000    9.500    0.000    4.667 
#    0.000    0.000    0.000    0.000    0.000    0.000 
#
# Total GULP energy -594686.419024 kJ/mol
# GULP energy per Si atom -12389.300396 kJ/mol
# Density = 1.865932 g / cm^3
# Si number density = 18.701889 Si / 1000 Ang^3
#
#
#
# Elastic Constant Matrix: (Units=GPa)
#
#
# Indices 1 2 3 4 5 6 
#
# 1 113.3030 25.1520 73.0449 0.0000 0.0000 0.0000
# 2 25.1520 35.0824 19.2088 0.0000 0.0000 0.0000
# 3 73.0449 19.2088 158.8586 0.0000 0.0000 0.0000
# 4 0.0000 0.0000 0.0000 27.0373 0.0000 0.0000
# 5 0.0000 0.0000 0.0000 0.0000 20.4234 0.0000
# 6 0.0000 0.0000 0.0000 0.0000 0.0000 10.9201
#
#
#
# Elastic Compliance Matrix: (Units=1/GPa)
#
#
# Indices 1 2 3 4 5 6 
#
# 1 0.013969 -0.006959 -0.005582 0.000000 0.000000 0.000000
# 2 -0.006959 0.033992 -0.000910 0.000000 0.000000 0.000000
# 3 -0.005582 -0.000910 0.008972 0.000000 0.000000 0.000000
# 4 0.000000 0.000000 0.000000 0.036986 0.000000 0.000000
# 5 0.000000 0.000000 0.000000 0.000000 0.048964 0.000000
# 6 0.000000 0.000000 0.000000 0.000000 0.000000 0.091575
#
#
# Mechanical properties :
#
#
# Convention : Reuss Voigt Hill
#
# Bulk Modulus (GPa) = 33.29948 60.22838 46.76393
# Shear Modulus (GPa) = 18.42511 24.33204 21.37858
#
# Velocity S-wave (km/s) = 3.14220 3.61092 3.38468
# Velocity P-wave (km/s) = 5.56854 7.04694 6.35090
#
# Compressibility (1/GPa) = 0.03003050
#
# Stress axis : x y z
#
# Youngs Moduli (GPa) = 71.58642 29.41876 111.46378
#
# Poissons Ratio (x) = 0.20472 0.62216
# Poissons Ratio (y) = 0.49816 0.10148
# Poissons Ratio (z) = 0.39957 0.02679
#
# Static dielectric constant tensor:
#      x y z
#    x 3.505840 0.000000 0.000000 
#    y 0.000000 3.232500 0.000000 
#    z 0.000000 0.000000 3.540530 
# 
# 
# High freq. dielectric constant tensor:
#      x y z
#    x 1.685750 0.000000 0.000000 
#    y 0.000000 1.706100 0.000000 
#    z 0.000000 0.000000 1.732010 
# 
# From -- ./inp_files/22651.got.cif
#   From: 2010.03.12/outbox.cif.g09.slc.cpg/sg74_12_cif.got.tgz:22651.got - 2010.04.16 15:46:19.
