data_PCOD8298821
_publ_section_title
;
Structure prediction by ZEFSAII (Michael W. Deem and Ramdas Pophale) SiO2 
 PCOD8298821
Probable space group: I M M A
;
_chemical_formula_sum "Si O2"
_cell_formula_units_Z 80
_cell_length_a 23.364332
_cell_length_b 8.656212
_cell_length_c 26.166675
_cell_angle_alpha 90.000000
_cell_angle_beta 90.000000
_cell_angle_gamma 90.000000
_cell_volume 5292.121341
_symmetry_space_group_name_H-M "I M M A"
_symmetry_group_IT_number 74
_symmetry_cell_setting 'orthorhombic'
loop_
_space_group_symop_operation_xyz
x,y,z
-x,1/2-y,z
x,-y,-z
-x,1/2+y,-z
-x,-y,-z
x,1/2+y,-z
-x,y,z
x,1/2-y,z
1/2+x,1/2+y,1/2+z
1/2-x,-y,1/2+z
1/2+x,1/2-y,1/2-z
1/2-x,y,1/2-z
1/2-x,1/2-y,1/2-z
1/2+x,y,1/2-z
1/2-x,1/2+y,1/2+z
1/2+x,-y,1/2+z
loop_
_atom_site_type_symbol
_atom_site_label
_atom_site_fract_x
_atom_site_fract_y
_atom_site_fract_z
Si Si1 0.000000 0.932018 0.602729
Si Si2 0.316513 0.567509 0.857495
Si Si3 0.500000 0.067482 0.221355
Si Si4 0.882106 0.569663 0.262694
Si Si5 0.613991 0.431953 0.945092
Si Si6 0.709419 0.920650 0.701360
O O1 0.000000 0.750000 0.595436
O O2 0.000000 0.979501 0.661880
O O3 0.944666 0.999466 0.575749
O O4 0.323829 0.750000 0.865479
O O5 0.358531 0.520347 0.811704
O O6 0.333503 0.477477 0.908467
O O7 0.250233 0.523151 0.845184
O O8 0.500000 0.250000 0.229407
O O9 0.445310 0.992561 0.248941
O O10 0.882613 0.750000 0.274655
O O11 0.842939 0.536711 0.212545
O O12 0.607941 0.250000 0.948656
O O13 0.628533 0.500000 0.000000
O O14 0.684357 0.750000 0.689864
O O15 0.750000 0.911376 0.750000
#
# Coordination Sequence:
#
# PCOD8298821 Si02
#       6
#     8  16   8  16  16  16
#     4  11  22  36  51  63  83 117 154 193 233 273
#     4  10  19  33  49  65  86 114 148 184 224 269
#     4  11  21  32  48  63  88 123 153 186 227 270
#     4  11  20  29  45  68  91 113 146 185 223 266
#     4  12  24  36  50  66  87 114 150 194 235 274
#     4   8  16  30  47  64  86 114 143 176 218 268
#
# _framework density 15.116811999999999
#
# number of rings (size 3 to 8) (size 9 to 14) (size 15 to 20)
#    0.000    1.600    2.000    6.300    0.000    5.200 
#    0.000    0.000    0.000    0.000    0.000    0.000 
#    0.000    0.000    0.000    0.900    0.000   12.000 
#
# Total GULP energy -495990.105747 kJ/mol
# GULP energy per Si atom -12399.752644 kJ/mol
# Density = 1.508241 g / cm^3
# Si number density = 15.116812 Si / 1000 Ang^3
#
#
#
# Elastic Constant Matrix: (Units=GPa)
#
#
# Indices 1 2 3 4 5 6 
#
# 1 94.9170 34.1439 47.2919 0.0000 0.0000 0.0000
# 2 34.1439 77.4863 26.2177 0.0000 0.0000 0.0000
# 3 47.2919 26.2177 61.6938 0.0000 0.0000 0.0000
# 4 0.0000 0.0000 0.0000 21.2112 0.0000 0.0000
# 5 0.0000 0.0000 0.0000 0.0000 13.7469 0.0000
# 6 0.0000 0.0000 0.0000 0.0000 0.0000 19.1436
#
#
#
# Elastic Compliance Matrix: (Units=1/GPa)
#
#
# Indices 1 2 3 4 5 6 
#
# 1 0.017956 -0.003802 -0.012149 0.000000 0.000000 0.000000
# 2 -0.003802 0.015878 -0.003833 0.000000 0.000000 0.000000
# 3 -0.012149 -0.003833 0.027151 0.000000 0.000000 0.000000
# 4 0.000000 0.000000 0.000000 0.047145 0.000000 0.000000
# 5 0.000000 0.000000 0.000000 0.000000 0.072744 0.000000
# 6 0.000000 0.000000 0.000000 0.000000 0.000000 0.052237
#
#
# Mechanical properties :
#
#
# Convention : Reuss Voigt Hill
#
# Bulk Modulus (GPa) = 46.69154 49.93378 48.31266
# Shear Modulus (GPa) = 17.86883 19.24991 18.55937
#
# Velocity S-wave (km/s) = 3.44183 3.57236 3.50770
# Velocity P-wave (km/s) = 6.83733 7.07950 6.95947
#
# Compressibility (1/GPa) = 0.02141716
#
# Stress axis : x y z
#
# Youngs Moduli (GPa) = 55.69113 62.98150 36.83121
#
# Poissons Ratio (x) = 0.23944 0.44746
# Poissons Ratio (y) = 0.21172 0.14118
# Poissons Ratio (z) = 0.67658 0.24142
#
# Static dielectric constant tensor:
#      x y z
#    x 2.866380 0.000000 0.000000 
#    y 0.000000 3.017770 0.000000 
#    z 0.000000 0.000000 1.359560 
# 
# 
# High freq. dielectric constant tensor:
#      x y z
#    x 1.571910 0.000000 0.000000 
#    y 0.000000 1.595830 0.000000 
#    z 0.000000 0.000000 1.536620 
# 
# From -- ./inp_files/64184.got.cif
#   From: 2010.03.12/outbox.cif.g09.slc.cpg/sg74_33_cif.got.tgz:64184.got - 2010.04.16 15:46:19.
