data_PCOD8298771
_publ_section_title
;
Structure prediction by ZEFSAII (Michael W. Deem and Ramdas Pophale) SiO2 
 PCOD8298771
Probable space group: I M M A
;
_chemical_formula_sum "Si O2"
_cell_formula_units_Z 64
_cell_length_a 24.403501
_cell_length_b 14.760401
_cell_length_c 8.921253
_cell_angle_alpha 90.000000
_cell_angle_beta 90.000000
_cell_angle_gamma 90.000000
_cell_volume 3213.484046
_symmetry_space_group_name_H-M "I M M A"
_symmetry_group_IT_number 74
_symmetry_cell_setting 'orthorhombic'
loop_
_space_group_symop_operation_xyz
x,y,z
-x,1/2-y,z
x,-y,-z
-x,1/2+y,-z
-x,-y,-z
x,1/2+y,-z
-x,y,z
x,1/2-y,z
1/2+x,1/2+y,1/2+z
1/2-x,-y,1/2+z
1/2+x,1/2-y,1/2-z
1/2-x,y,1/2-z
1/2-x,1/2-y,1/2-z
1/2+x,y,1/2-z
1/2-x,1/2+y,1/2+z
1/2+x,-y,1/2+z
loop_
_atom_site_type_symbol
_atom_site_label
_atom_site_fract_x
_atom_site_fract_y
_atom_site_fract_z
Si Si1 0.105989 0.645640 0.850427
Si Si2 0.308321 0.999682 0.325100
Si Si3 0.500000 0.348393 0.201313
Si Si4 0.103559 0.855613 0.200842
Si Si5 0.000000 0.590547 0.394948
O O1 0.117224 0.750000 0.809461
O O2 0.157870 0.590602 0.789543
O O3 0.054628 0.602169 0.760175
O O4 0.092062 0.632290 0.024789
O O5 0.250000 0.003880 0.250000
O O6 0.297806 0.000000 0.500000
O O7 0.340819 0.911089 0.264240
O O8 0.500000 0.250000 0.280226
O O9 0.500000 0.332752 0.022333
O O10 0.111690 0.750000 0.243461
O O11 0.053402 0.899203 0.291901
O O12 0.000000 0.500000 0.500000
#
# Coordination Sequence:
#
# PCOD8298771 Si02
#       5
#    16  16   8  16   8
#     4   9  19  37  60  84 113 152 192 231 281 343
#     4  10  22  38  56  80 110 146 194 244 285 332
#     4  10  19  32  53  84 115 138 174 228 279 326
#     4  10  21  39  60  81 112 155 193 224 275 349
#     4  12  23  34  54  86 119 146 179 228 285 336
#
# _framework density 19.916077000000001
#
# number of rings (size 3 to 8) (size 9 to 14) (size 15 to 20)
#    0.000    2.000    0.000    3.375    0.000    6.000 
#    0.000    5.000    0.000    0.000    0.000    0.000 
#    0.000    0.000    0.000    0.000    0.000    0.000 
#
# Total GULP energy -396580.896463 kJ/mol
# GULP energy per Si atom -12393.153014 kJ/mol
# Density = 1.987075 g / cm^3
# Si number density = 19.916077 Si / 1000 Ang^3
#
#
#
# Elastic Constant Matrix: (Units=GPa)
#
#
# Indices 1 2 3 4 5 6 
#
# 1 211.9406 82.3382 78.5626 0.0000 0.0000 0.0000
# 2 82.3382 138.1068 42.6081 0.0000 0.0000 0.0000
# 3 78.5626 42.6081 68.4680 0.0000 0.0000 0.0000
# 4 0.0000 0.0000 0.0000 25.7481 0.0000 0.0000
# 5 0.0000 0.0000 0.0000 0.0000 35.7258 0.0000
# 6 0.0000 0.0000 0.0000 0.0000 0.0000 21.9760
#
#
#
# Elastic Compliance Matrix: (Units=1/GPa)
#
#
# Indices 1 2 3 4 5 6 
#
# 1 0.008947 -0.002682 -0.008597 0.000000 0.000000 0.000000
# 2 -0.002682 0.009765 -0.003000 0.000000 0.000000 0.000000
# 3 -0.008597 -0.003000 0.026337 0.000000 0.000000 0.000000
# 4 0.000000 0.000000 0.000000 0.038838 0.000000 0.000000
# 5 0.000000 0.000000 0.000000 0.000000 0.027991 0.000000
# 6 0.000000 0.000000 0.000000 0.000000 0.000000 0.045504
#
#
# Mechanical properties :
#
#
# Convention : Reuss Voigt Hill
#
# Bulk Modulus (GPa) = 60.63721 91.72588 76.18154
# Shear Modulus (GPa) = 26.11834 31.02376 28.57105
#
# Velocity S-wave (km/s) = 3.62528 3.95108 3.79168
# Velocity P-wave (km/s) = 6.93080 8.18358 7.58310
#
# Compressibility (1/GPa) = 0.01649152
#
# Stress axis : x y z
#
# Youngs Moduli (GPa) = 111.76948 102.40577 37.96959
#
# Poissons Ratio (x) = 0.27463 0.32643
# Poissons Ratio (y) = 0.29974 0.11390
# Poissons Ratio (z) = 0.96091 0.30719
#
# Static dielectric constant tensor:
#      x y z
#    x 3.708580 0.000000 0.000000 
#    y 0.000000 4.003460 0.000000 
#    z 0.000000 0.000000 3.763070 
# 
# 
# High freq. dielectric constant tensor:
#      x y z
#    x 1.772200 0.000000 0.000000 
#    y 0.000000 1.793150 0.000000 
#    z 0.000000 0.000000 1.773620 
# 
# From -- ./inp_files/8850.got.cif
#   From: 2010.03.12/outbox.cif.g09.slc.cpg/sg74_5_cif.got.tgz:8850.got - 2010.04.16 15:46:19.
