data_PCOD8298689
_publ_section_title
;
Structure prediction by ZEFSAII (Michael W. Deem and Ramdas Pophale) SiO2 
 PCOD8298689
Probable space group: I M M A
;
_chemical_formula_sum "Si O2"
_cell_formula_units_Z 64
_cell_length_a 10.253265
_cell_length_b 13.894818
_cell_length_c 25.394808
_cell_angle_alpha 90.000000
_cell_angle_beta 90.000000
_cell_angle_gamma 90.000000
_cell_volume 3617.928487
_symmetry_space_group_name_H-M "I M M A"
_symmetry_group_IT_number 74
_symmetry_cell_setting 'orthorhombic'
loop_
_space_group_symop_operation_xyz
x,y,z
-x,1/2-y,z
x,-y,-z
-x,1/2+y,-z
-x,-y,-z
x,1/2+y,-z
-x,y,z
x,1/2-y,z
1/2+x,1/2+y,1/2+z
1/2-x,-y,1/2+z
1/2+x,1/2-y,1/2-z
1/2-x,y,1/2-z
1/2-x,1/2-y,1/2-z
1/2+x,y,1/2-z
1/2-x,1/2+y,1/2+z
1/2+x,-y,1/2+z
loop_
_atom_site_type_symbol
_atom_site_label
_atom_site_fract_x
_atom_site_fract_y
_atom_site_fract_z
Si Si1 0.651250 0.750000 0.908664
Si Si2 0.250000 0.586892 0.750000
Si Si3 0.845720 0.750000 0.299016
Si Si4 0.653268 0.543941 0.946874
Si Si5 0.858027 0.750000 0.816023
Si Si6 0.848874 0.046368 0.658101
O O1 0.500000 0.750000 0.889671
O O2 0.682615 0.657705 0.944474
O O3 0.739212 0.750000 0.856714
O O4 0.146761 0.655098 0.779560
O O5 0.181280 0.518387 0.708217
O O6 0.750000 0.750000 0.250000
O O7 0.808502 0.843161 0.333255
O O8 0.000000 0.750000 0.282412
O O9 0.500000 0.523902 0.948009
O O10 0.718540 0.493382 0.895421
O O11 0.717132 0.500000 0.000000
O O12 0.000000 0.750000 0.844220
O O13 0.000000 0.038646 0.647992
#
# Coordination Sequence:
#
# PCOD8298689 Si02
#       6
#     8   8   8  16   8  16
#     4  10  19  34  56  79 107 142 176 219 267 322
#     4  11  20  33  52  74 110 145 176 215 264 324
#     4  10  20  33  51  76 108 142 178 218 259 308
#     4   9  18  32  52  78 104 134 176 222 266 310
#     4  11  23  33  51  84 113 141 176 218 268 326
#     4  10  19  32  51  77 108 139 175 219 266 314
#
# _framework density 17.689679999999999
#
# number of rings (size 3 to 8) (size 9 to 14) (size 15 to 20)
#    0.000    2.000    3.750    0.750    0.000    3.000 
#    0.000    5.000    0.000    0.750    0.000    1.750 
#    0.000    0.000    0.000    0.000    0.000    0.000 
#
# Total GULP energy -396607.749049 kJ/mol
# GULP energy per Si atom -12393.992158 kJ/mol
# Density = 1.764942 g / cm^3
# Si number density = 17.689680 Si / 1000 Ang^3
#
#
#
# Elastic Constant Matrix: (Units=GPa)
#
#
# Indices 1 2 3 4 5 6 
#
# 1 39.3738 28.5222 19.4136 0.0000 0.0000 0.0000
# 2 28.5222 169.8719 85.2454 0.0000 0.0000 0.0000
# 3 19.4136 85.2454 144.7595 0.0000 0.0000 0.0000
# 4 0.0000 0.0000 0.0000 28.0985 0.0000 0.0000
# 5 0.0000 0.0000 0.0000 0.0000 18.9977 0.0000
# 6 0.0000 0.0000 0.0000 0.0000 0.0000 8.7373
#
#
#
# Elastic Compliance Matrix: (Units=1/GPa)
#
#
# Indices 1 2 3 4 5 6 
#
# 1 0.029129 -0.004160 -0.001457 0.000000 0.000000 0.000000
# 2 -0.004160 0.008950 -0.004713 0.000000 0.000000 0.000000
# 3 -0.001457 -0.004713 0.009879 0.000000 0.000000 0.000000
# 4 0.000000 0.000000 0.000000 0.035589 0.000000 0.000000
# 5 0.000000 0.000000 0.000000 0.000000 0.052638 0.000000
# 6 0.000000 0.000000 0.000000 0.000000 0.000000 0.114451
#
#
# Mechanical properties :
#
#
# Convention : Reuss Voigt Hill
#
# Bulk Modulus (GPa) = 36.63103 68.92974 52.78039
# Shear Modulus (GPa) = 17.83200 25.88832 21.86016
#
# Velocity S-wave (km/s) = 3.17842 3.82968 3.51915
# Velocity P-wave (km/s) = 5.84998 7.65545 6.81279
#
# Compressibility (1/GPa) = 0.02729926
#
# Stress axis : x y z
#
# Youngs Moduli (GPa) = 34.32971 111.72989 101.22926
#
# Poissons Ratio (x) = 0.46478 0.14748
# Poissons Ratio (y) = 0.14281 0.47706
# Poissons Ratio (z) = 0.05001 0.52655
#
# Static dielectric constant tensor:
#      x y z
#    x 2.879570 0.000000 0.000000 
#    y 0.000000 3.550870 0.000000 
#    z 0.000000 0.000000 3.555890 
# 
# 
# High freq. dielectric constant tensor:
#      x y z
#    x 1.633260 0.000000 0.000000 
#    y 0.000000 1.706700 0.000000 
#    z 0.000000 0.000000 1.682520 
# 
# From -- ./inp_files/56488.got.cif
#   From: 2010.03.12/outbox.cif.g09.slc.cpg/sg74_29_cif.got.tgz:56488.got - 2010.04.16 15:46:19.
