data_PCOD8298250
_publ_section_title
;
Structure prediction by ZEFSAII (Michael W. Deem and Ramdas Pophale) SiO2 
 PCOD8298250
Probable space group: I M M A
;
_chemical_formula_sum "Si O2"
_cell_formula_units_Z 128
_cell_length_a 17.422661
_cell_length_b 18.518601
_cell_length_c 22.705962
_cell_angle_alpha 90.000000
_cell_angle_beta 90.000000
_cell_angle_gamma 90.000000
_cell_volume 7325.926678
_symmetry_space_group_name_H-M "I M M A"
_symmetry_group_IT_number 74
_symmetry_cell_setting 'orthorhombic'
loop_
_space_group_symop_operation_xyz
x,y,z
-x,1/2-y,z
x,-y,-z
-x,1/2+y,-z
-x,-y,-z
x,1/2+y,-z
-x,y,z
x,1/2-y,z
1/2+x,1/2+y,1/2+z
1/2-x,-y,1/2+z
1/2+x,1/2-y,1/2-z
1/2-x,y,1/2-z
1/2-x,1/2-y,1/2-z
1/2+x,y,1/2-z
1/2-x,1/2+y,1/2+z
1/2+x,-y,1/2+z
loop_
_atom_site_type_symbol
_atom_site_label
_atom_site_fract_x
_atom_site_fract_y
_atom_site_fract_z
Si Si1 0.613425 0.169854 0.825485
Si Si2 0.318719 0.435019 0.295220
Si Si3 0.793098 0.079688 0.507522
Si Si4 0.331307 0.404854 0.717104
Si Si5 0.411273 0.333992 0.218951
Si Si6 0.773856 0.669920 0.109224
Si Si7 0.583670 0.543363 0.095778
Si Si8 0.313054 0.089300 0.122942
O O1 0.575870 0.250000 0.827493
O O2 0.612526 0.142327 0.757923
O O3 0.697337 0.174088 0.852858
O O4 0.566343 0.111841 0.862758
O O5 0.250000 0.429719 0.250000
O O6 0.359740 0.512908 0.291828
O O7 0.382441 0.375724 0.277629
O O8 0.276111 0.420672 0.357452
O O9 0.737360 0.127369 0.548014
O O10 0.877701 0.070837 0.535640
O O11 0.807648 0.117151 0.444311
O O12 0.755511 0.000000 0.500000
O O13 0.250000 0.405951 0.750000
O O14 0.333477 0.370248 0.651900
O O15 0.500000 0.353657 0.206649
O O16 0.400665 0.250000 0.232010
O O17 0.360363 0.353765 0.161829
O O18 0.803563 0.750000 0.093480
O O19 0.500000 0.508278 0.082499
O O20 0.641877 0.487365 0.127385
#
# Coordination Sequence:
#
# PCOD8298250 Si02
#       8
#    16  16  16  16  16  16  16  16
#     4   9  16  25  38  58  83 115 156 197 239 285
#     4   9  17  30  49  70  92 120 153 195 243 289
#     4   9  18  30  43  63  92 127 167 203 235 276
#     4   9  14  24  42  64  87 113 148 190 237 285
#     4  10  21  35  50  70  96 124 156 198 247 295
#     4   9  16  26  41  62  90 119 150 195 243 279
#     4  10  19  30  44  63  93 132 170 207 243 279
#     4  10  19  31  49  68  91 126 165 199 234 283
#
# _framework density 17.472193000000001
#
# number of rings (size 3 to 8) (size 9 to 14) (size 15 to 20)
#    0.000    2.625    0.000    5.250    0.000    7.250 
#    0.000    0.000    0.000    0.000    0.000    0.000 
#    0.000   13.500    0.000    1.125    0.000    0.000 
#
# Total GULP energy -793052.209489 kJ/mol
# GULP energy per Si atom -12391.440773 kJ/mol
# Density = 1.743243 g / cm^3
# Si number density = 17.472193 Si / 1000 Ang^3
#
#
#
# Elastic Constant Matrix: (Units=GPa)
#
#
# Indices 1 2 3 4 5 6 
#
# 1 25.4540 24.5520 34.5947 0.0000 0.0000 0.0000
# 2 24.5520 121.4245 55.6074 0.0000 0.0000 0.0000
# 3 34.5947 55.6074 117.2674 0.0000 0.0000 0.0000
# 4 0.0000 0.0000 0.0000 23.5794 0.0000 0.0000
# 5 0.0000 0.0000 0.0000 0.0000 9.0365 0.0000
# 6 0.0000 0.0000 0.0000 0.0000 0.0000 14.0938
#
#
#
# Elastic Compliance Matrix: (Units=1/GPa)
#
#
# Indices 1 2 3 4 5 6 
#
# 1 0.068728 -0.005891 -0.017482 0.000000 0.000000 0.000000
# 2 -0.005891 0.011025 -0.003490 0.000000 0.000000 0.000000
# 3 -0.017482 -0.003490 0.015340 0.000000 0.000000 0.000000
# 4 0.000000 0.000000 0.000000 0.042410 0.000000 0.000000
# 5 0.000000 0.000000 0.000000 0.000000 0.110662 0.000000
# 6 0.000000 0.000000 0.000000 0.000000 0.000000 0.070953
#
#
# Mechanical properties :
#
#
# Convention : Reuss Voigt Hill
#
# Bulk Modulus (GPa) = 24.17365 54.85045 39.51205
# Shear Modulus (GPa) = 12.93213 19.30140 16.11676
#
# Velocity S-wave (km/s) = 2.72353 3.32730 3.04044
# Velocity P-wave (km/s) = 4.87398 6.79870 5.91515
#
# Compressibility (1/GPa) = 0.04136735
#
# Stress axis : x y z
#
# Youngs Moduli (GPa) = 14.55001 90.70252 65.18975
#
# Poissons Ratio (x) = 0.53432 1.13965
# Poissons Ratio (y) = 0.08571 0.22752
# Poissons Ratio (z) = 0.25436 0.31657
#
# Static dielectric constant tensor:
#      x y z
#    x 3.034630 0.000000 0.000000 
#    y 0.000000 3.428610 0.000000 
#    z 0.000000 0.000000 3.465400 
# 
# 
# High freq. dielectric constant tensor:
#      x y z
#    x 1.624500 0.000000 0.000000 
#    y 0.000000 1.680310 0.000000 
#    z 0.000000 0.000000 1.667000 
# 
# From -- ./inp_files/61142.got.cif
#   From: 2010.03.12/outbox.cif.g09.slc.cpg/sg74_31_cif.got.tgz:61142.got - 2010.04.16 15:46:19.
