data_PCOD8298529
_publ_section_title
;
Structure prediction by ZEFSAII (Michael W. Deem and Ramdas Pophale) SiO2 
 PCOD8298529
Probable space group: I M M A
;
_chemical_formula_sum "Si O2"
_cell_formula_units_Z 96
_cell_length_a 21.060998
_cell_length_b 9.226980
_cell_length_c 24.801426
_cell_angle_alpha 90.000000
_cell_angle_beta 90.000000
_cell_angle_gamma 90.000000
_cell_volume 4819.646415
_symmetry_space_group_name_H-M "I M M A"
_symmetry_group_IT_number 74
_symmetry_cell_setting 'orthorhombic'
loop_
_space_group_symop_operation_xyz
x,y,z
-x,1/2-y,z
x,-y,-z
-x,1/2+y,-z
-x,-y,-z
x,1/2+y,-z
-x,y,z
x,1/2-y,z
1/2+x,1/2+y,1/2+z
1/2-x,-y,1/2+z
1/2+x,1/2-y,1/2-z
1/2-x,y,1/2-z
1/2-x,1/2-y,1/2-z
1/2+x,y,1/2-z
1/2-x,1/2+y,1/2+z
1/2+x,-y,1/2+z
loop_
_atom_site_type_symbol
_atom_site_label
_atom_site_fract_x
_atom_site_fract_y
_atom_site_fract_z
Si Si1 0.099568 0.584128 0.553224
Si Si2 0.429830 0.915250 0.451505
Si Si3 0.678124 0.580628 0.247157
Si Si4 0.249714 0.086212 0.447748
Si Si5 0.328295 0.584559 0.366611
Si Si6 0.571857 0.080476 0.837664
O O1 0.074516 0.500000 0.500000
O O2 0.074710 0.750000 0.551630
O O3 0.174817 0.581164 0.554512
O O4 0.074009 0.505712 0.606396
O O5 0.500000 0.978504 0.442183
O O6 0.431245 0.750000 0.468816
O O7 0.393543 0.942147 0.396770
O O8 0.395396 0.000000 0.500000
O O9 0.683846 0.750000 0.235181
O O10 0.750000 0.513811 0.250000
O O11 0.651811 0.544128 0.306176
O O12 0.627092 0.518875 0.203267
O O13 0.275262 0.250000 0.452068
O O14 0.275339 0.000000 0.500000
O O15 0.273476 0.014455 0.392111
O O16 0.303576 0.750000 0.370525
O O17 0.500000 0.059494 0.813600
O O18 0.584261 0.250000 0.849138
#
# Coordination Sequence:
#
# PCOD8298529 Si02
#       6
#    16  16  16  16  16  16
#     4  10  21  37  58  83 111 144 179 218 269 328
#     4   9  18  31  46  67  97 132 170 213 261 313
#     4   9  18  33  54  79 107 141 180 221 266 317
#     4  10  20  33  51  78 110 141 176 222 274 327
#     4  10  19  31  51  76 102 138 181 223 269 322
#     4  10  21  37  58  84 113 145 183 228 274 321
#
# _framework density 19.918472999999999
#
# number of rings (size 3 to 8) (size 9 to 14) (size 15 to 20)
#    0.000    2.333    0.000    2.500    0.000    6.667 
#    0.000    4.167    0.000    3.000    0.000    2.333 
#    0.000    0.000    0.000    0.000    0.000    0.000 
#
# Total GULP energy -594848.696931 kJ/mol
# GULP energy per Si atom -12392.681186 kJ/mol
# Density = 1.987314 g / cm^3
# Si number density = 19.918473 Si / 1000 Ang^3
#
#
#
# Elastic Constant Matrix: (Units=GPa)
#
#
# Indices 1 2 3 4 5 6 
#
# 1 94.4763 37.8988 62.1414 0.0000 0.0000 0.0000
# 2 37.8988 80.1770 51.7731 0.0000 0.0000 0.0000
# 3 62.1414 51.7731 152.2775 0.0000 0.0000 0.0000
# 4 0.0000 0.0000 0.0000 28.4009 0.0000 0.0000
# 5 0.0000 0.0000 0.0000 0.0000 25.2702 0.0000
# 6 0.0000 0.0000 0.0000 0.0000 0.0000 17.9303
#
#
#
# Elastic Compliance Matrix: (Units=1/GPa)
#
#
# Indices 1 2 3 4 5 6 
#
# 1 0.015474 -0.004147 -0.004905 0.000000 0.000000 0.000000
# 2 -0.004147 0.017093 -0.004119 0.000000 0.000000 0.000000
# 3 -0.004905 -0.004119 0.009969 0.000000 0.000000 0.000000
# 4 0.000000 0.000000 0.000000 0.035210 0.000000 0.000000
# 5 0.000000 0.000000 0.000000 0.000000 0.039572 0.000000
# 6 0.000000 0.000000 0.000000 0.000000 0.000000 0.055772
#
#
# Mechanical properties :
#
#
# Convention : Reuss Voigt Hill
#
# Bulk Modulus (GPa) = 61.75192 70.06195 65.90693
# Shear Modulus (GPa) = 24.41050 25.99477 25.20263
#
# Velocity S-wave (km/s) = 3.50454 3.61648 3.56095
# Velocity P-wave (km/s) = 6.88806 7.25874 7.07583
#
# Compressibility (1/GPa) = 0.01619383
#
# Stress axis : x y z
#
# Youngs Moduli (GPa) = 64.62264 58.50505 100.31257
#
# Poissons Ratio (x) = 0.24265 0.49200
# Poissons Ratio (y) = 0.26802 0.41317
# Poissons Ratio (z) = 0.31696 0.24097
#
# Static dielectric constant tensor:
#      x y z
#    x 3.859800 0.000000 0.000000 
#    y 0.000000 3.548510 0.000000 
#    z 0.000000 0.000000 5.573480 
# 
# 
# High freq. dielectric constant tensor:
#      x y z
#    x 1.787890 0.000000 0.000000 
#    y 0.000000 1.750290 0.000000 
#    z 0.000000 0.000000 1.777080 
# 
# From -- ./inp_files/68106.got.cif
#   From: 2010.03.12/outbox.cif.g09.slc.cpg/sg74_35_cif.got.tgz:68106.got - 2010.04.16 15:46:19.
