data_PCOD8298393
_publ_section_title
;
Structure prediction by ZEFSAII (Michael W. Deem and Ramdas Pophale) SiO2 
 PCOD8298393
Probable space group: I M M A
;
_chemical_formula_sum "Si O2"
_cell_formula_units_Z 104
_cell_length_a 9.339952
_cell_length_b 28.060597
_cell_length_c 28.102124
_cell_angle_alpha 90.000000
_cell_angle_beta 90.000000
_cell_angle_gamma 90.000000
_cell_volume 7365.134745
_symmetry_space_group_name_H-M "I M M A"
_symmetry_group_IT_number 74
_symmetry_cell_setting 'orthorhombic'
loop_
_space_group_symop_operation_xyz
x,y,z
-x,1/2-y,z
x,-y,-z
-x,1/2+y,-z
-x,-y,-z
x,1/2+y,-z
-x,y,z
x,1/2-y,z
1/2+x,1/2+y,1/2+z
1/2-x,-y,1/2+z
1/2+x,1/2-y,1/2-z
1/2-x,y,1/2-z
1/2-x,1/2-y,1/2-z
1/2+x,y,1/2-z
1/2-x,1/2+y,1/2+z
1/2+x,-y,1/2+z
loop_
_atom_site_type_symbol
_atom_site_label
_atom_site_fract_x
_atom_site_fract_y
_atom_site_fract_z
Si Si1 0.348341 0.750000 0.293229
Si Si2 0.335979 0.154597 0.652343
Si Si3 0.661248 0.602386 0.020497
Si Si4 0.330550 0.927100 0.202299
Si Si5 0.664084 0.028975 0.898035
Si Si6 0.837174 0.804893 0.431277
Si Si7 0.338901 0.538336 0.541631
O O1 0.500000 0.750000 0.267987
O O2 0.250000 0.750000 0.250000
O O3 0.326953 0.793920 0.326488
O O4 0.500000 0.135560 0.647341
O O5 0.242455 0.122248 0.687284
O O6 0.265360 0.163627 0.601633
O O7 0.500000 0.586493 0.007972
O O8 0.762575 0.586077 0.977313
O O9 0.703942 0.576065 0.070738
O O10 0.669140 0.660420 0.022611
O O11 0.500000 0.919729 0.212445
O O12 0.250000 0.946125 0.250000
O O13 0.305583 0.962469 0.157896
O O14 0.500000 0.015132 0.906260
O O15 0.758980 0.983552 0.912748
O O16 0.786569 0.750000 0.441539
O O17 0.000000 0.803865 0.411139
O O18 0.333705 0.500000 0.500000
O O19 0.500000 0.551309 0.556546
#
# Coordination Sequence:
#
# PCOD8298393 Si02
#       7
#     8  16  16  16  16  16  16
#     4  10  22  34  42  54  68  90 126 170 218 260
#     4  11  21  33  45  58  77 102 135 175 219 259
#     4   9  16  29  45  62  83 108 135 166 209 254
#     4  11  22  35  47  63  82 107 141 173 214 257
#     4   9  17  30  46  61  82 108 134 167 208 255
#     4  10  19  31  47  64  82 109 142 175 211 254
#     4   9  17  27  42  66  86 102 129 165 207 250
#
# _framework density 14.120583999999999
#
# number of rings (size 3 to 8) (size 9 to 14) (size 15 to 20)
#    0.000    2.154    2.308    1.846    0.000    6.154 
#    0.000    0.000    0.000    0.000    0.000    0.000 
#    0.000    0.000    0.000    0.000    0.000    0.769 
#
# Total GULP energy -644223.528124 kJ/mol
# GULP energy per Si atom -12388.914002 kJ/mol
# Density = 1.408844 g / cm^3
# Si number density = 14.120584 Si / 1000 Ang^3
#
#
#
# Elastic Constant Matrix: (Units=GPa)
#
#
# Indices 1 2 3 4 5 6 
#
# 1 89.1378 35.0498 45.5083 0.0000 0.0000 0.0000
# 2 35.0498 51.1085 39.2721 0.0000 0.0000 0.0000
# 3 45.5083 39.2721 62.2903 0.0000 0.0000 0.0000
# 4 0.0000 0.0000 0.0000 20.1878 0.0000 0.0000
# 5 0.0000 0.0000 0.0000 0.0000 22.8138 0.0000
# 6 0.0000 0.0000 0.0000 0.0000 0.0000 13.7382
#
#
#
# Elastic Compliance Matrix: (Units=1/GPa)
#
#
# Indices 1 2 3 4 5 6 
#
# 1 0.018397 -0.004440 -0.010642 0.000000 0.000000 0.000000
# 2 -0.004440 0.039024 -0.021360 0.000000 0.000000 0.000000
# 3 -0.010642 -0.021360 0.037295 0.000000 0.000000 0.000000
# 4 0.000000 0.000000 0.000000 0.049535 0.000000 0.000000
# 5 0.000000 0.000000 0.000000 0.000000 0.043833 0.000000
# 6 0.000000 0.000000 0.000000 0.000000 0.000000 0.072790
#
#
# Mechanical properties :
#
#
# Convention : Reuss Voigt Hill
#
# Bulk Modulus (GPa) = 45.79992 49.13302 47.46647
# Shear Modulus (GPa) = 14.66127 16.86172 15.76149
#
# Velocity S-wave (km/s) = 3.22575 3.45936 3.34459
# Velocity P-wave (km/s) = 6.81023 7.12931 6.97159
#
# Compressibility (1/GPa) = 0.02183410
#
# Stress axis : x y z
#
# Youngs Moduli (GPa) = 54.35582 25.62536 26.81303
#
# Poissons Ratio (x) = 0.11376 0.28534
# Poissons Ratio (y) = 0.24131 0.57272
# Poissons Ratio (z) = 0.57844 0.54735
#
# Static dielectric constant tensor:
#      x y z
#    x 3.071470 0.000000 0.000000 
#    y 0.000000 2.656010 0.000000 
#    z 0.000000 0.000000 2.573770 
# 
# 
# High freq. dielectric constant tensor:
#      x y z
#    x 1.555500 0.000000 0.000000 
#    y 0.000000 1.512960 0.000000 
#    z 0.000000 0.000000 1.503570 
# 
# From -- ./inp_files/57822.got.cif
#   From: 2010.03.12/outbox.cif.g09.slc.cpg/sg74_29_cif.got.tgz:57822.got - 2010.04.16 15:46:19.
