data_PCOD8298203
_publ_section_title
;
Structure prediction by ZEFSAII (Michael W. Deem and Ramdas Pophale) SiO2 
 PCOD8298203
Probable space group: I M M A
;
_chemical_formula_sum "Si O2"
_cell_formula_units_Z 88
_cell_length_a 13.172180
_cell_length_b 26.348424
_cell_length_c 14.584438
_cell_angle_alpha 90.000000
_cell_angle_beta 90.000000
_cell_angle_gamma 90.000000
_cell_volume 5061.765237
_symmetry_space_group_name_H-M "I M M A"
_symmetry_group_IT_number 74
_symmetry_cell_setting 'orthorhombic'
loop_
_space_group_symop_operation_xyz
x,y,z
-x,1/2-y,z
x,-y,-z
-x,1/2+y,-z
-x,-y,-z
x,1/2+y,-z
-x,y,z
x,1/2-y,z
1/2+x,1/2+y,1/2+z
1/2-x,-y,1/2+z
1/2+x,1/2-y,1/2-z
1/2-x,y,1/2-z
1/2-x,1/2-y,1/2-z
1/2+x,y,1/2-z
1/2-x,1/2+y,1/2+z
1/2+x,-y,1/2+z
loop_
_atom_site_type_symbol
_atom_site_label
_atom_site_fract_x
_atom_site_fract_y
_atom_site_fract_z
Si Si1 0.000000 0.690551 0.120730
Si Si2 0.000000 0.304681 0.610082
Si Si3 0.000000 0.442488 0.970426
Si Si4 0.500000 0.591804 0.266959
Si Si5 0.668100 0.865682 0.486925
Si Si6 0.500000 0.805944 0.894339
Si Si7 0.822409 0.373273 0.668377
Si Si8 0.717435 0.309710 0.146729
O O1 0.000000 0.750000 0.147639
O O2 0.000000 0.653210 0.209518
O O3 0.898936 0.677691 0.062504
O O4 0.000000 0.303074 0.501989
O O5 0.894476 0.328200 0.639582
O O6 0.000000 0.250000 0.655459
O O7 0.000000 0.440692 0.859240
O O8 0.000000 0.500000 0.000000
O O9 0.901221 0.414342 0.010856
O O10 0.602328 0.581443 0.206529
O O11 0.755897 0.887972 0.420172
O O12 0.710826 0.841761 0.579784
O O13 0.500000 0.750000 0.849686
O O14 0.396547 0.832733 0.860769
O O15 0.750000 0.354958 0.750000
O O16 0.721697 0.250000 0.119239
O O17 0.750000 0.318930 0.250000
#
# Coordination Sequence:
#
# PCOD8298203 Si02
#       8
#     8   8   8   8  16   8  16  16
#     4  10  19  29  43  71 109 142 181 217 249 303
#     4  10  21  29  42  73 113 153 189 217 245 298
#     4  10  21  38  60  81 103 132 178 231 282 340
#     4   9  20  33  50  81 106 141 182 211 265 322
#     4  10  20  35  54  76 105 142 178 223 275 323
#     4   9  17  31  47  72 103 142 192 224 257 312
#     4  11  18  33  49  75 109 145 180 214 261 319
#     4  10  20  34  54  79 110 152 193 226 268 323
#
# _framework density 17.385238999999999
#
# number of rings (size 3 to 8) (size 9 to 14) (size 15 to 20)
#    0.000    2.182    5.455    0.545    0.000    4.000 
#    0.000    2.727    4.000    0.000    0.000    3.182 
#    0.000    0.000    0.000    0.000    0.000    0.000 
#
# Total GULP energy -545130.335932 kJ/mol
# GULP energy per Si atom -12389.325817 kJ/mol
# Density = 1.734567 g / cm^3
# Si number density = 17.385239 Si / 1000 Ang^3
#
#
#
# Elastic Constant Matrix: (Units=GPa)
#
#
# Indices 1 2 3 4 5 6 
#
# 1 149.4750 38.0812 58.2273 0.0000 0.0000 0.0000
# 2 38.0812 81.0668 31.8064 0.0001 0.0002 0.0000
# 3 58.2273 31.8064 98.6298 0.0002 0.0001 0.0001
# 4 0.0000 0.0001 0.0002 14.6877 0.0001 0.0000
# 5 0.0000 0.0002 0.0001 0.0001 -21.1273 0.0000
# 6 0.0000 0.0000 0.0001 0.0000 0.0000 12.8946
#
#
#
# Elastic Compliance Matrix: (Units=1/GPa)
#
#
# Indices 1 2 3 4 5 6 
#
# 1 0.009104 -0.002482 -0.004574 0.000000 0.000000 0.000000
# 2 -0.002482 0.014799 -0.003307 0.000000 0.000000 0.000000
# 3 -0.004574 -0.003307 0.013906 0.000000 0.000000 0.000000
# 4 0.000000 0.000000 0.000000 0.068084 0.000000 0.000000
# 5 0.000000 0.000000 0.000000 0.000000 -0.047332 0.000000
# 6 0.000000 0.000000 0.000000 0.000000 0.000000 0.077552
#
#
# Mechanical properties :
#
#
# Convention : Reuss Voigt Hill
#
# Bulk Modulus (GPa) = 58.54067 65.04461 61.79264
# Shear Modulus (GPa) = 30.76265 14.69476 22.72870
#
# Velocity S-wave (km/s) = 4.21107 2.91046 3.61966
# Velocity P-wave (km/s) = 7.57561 6.98493 7.28626
#
# Compressibility (1/GPa) = 0.01708214
#
# Stress axis : x y z
#
# Youngs Moduli (GPa) = 109.83715 67.57218 71.91129
#
# Poissons Ratio (x) = 0.16771 0.32896
# Poissons Ratio (y) = 0.27262 0.23782
# Poissons Ratio (z) = 0.50245 0.22347
#
# Static dielectric constant tensor:
#      x y z
#    x 3.712880 0.000000 0.000000 
#    y 0.000000 2.714200 0.000000 
#    z 0.000000 0.000000 3.308870 
# 
# 
# High freq. dielectric constant tensor:
#      x y z
#    x 1.701340 0.000000 0.000000 
#    y 0.000000 1.599960 0.000000 
#    z 0.000000 0.000000 1.677410 
# 
# From -- ./inp_files/31018.got.cif
#   From: 2010.03.12/outbox.cif.g09.slc.cpg/sg74_16_cif.got.tgz:31018.got - 2010.04.16 15:46:19.
