data_PCOD8298542
_publ_section_title
;
Structure prediction by ZEFSAII (Michael W. Deem and Ramdas Pophale) SiO2 
 PCOD8298542
Probable space group: I M M A
;
_chemical_formula_sum "Si O2"
_cell_formula_units_Z 112
_cell_length_a 13.703907
_cell_length_b 26.760028
_cell_length_c 16.554922
_cell_angle_alpha 90.000000
_cell_angle_beta 90.000000
_cell_angle_gamma 90.000000
_cell_volume 6070.970255
_symmetry_space_group_name_H-M "I M M A"
_symmetry_group_IT_number 74
_symmetry_cell_setting 'orthorhombic'
loop_
_space_group_symop_operation_xyz
x,y,z
-x,1/2-y,z
x,-y,-z
-x,1/2+y,-z
-x,-y,-z
x,1/2+y,-z
-x,y,z
x,1/2-y,z
1/2+x,1/2+y,1/2+z
1/2-x,-y,1/2+z
1/2+x,1/2-y,1/2-z
1/2-x,y,1/2-z
1/2-x,1/2-y,1/2-z
1/2+x,y,1/2-z
1/2-x,1/2+y,1/2+z
1/2+x,-y,1/2+z
loop_
_atom_site_type_symbol
_atom_site_label
_atom_site_fract_x
_atom_site_fract_y
_atom_site_fract_z
Si Si1 0.887438 0.306378 0.475866
Si Si2 0.108733 0.038562 0.222355
Si Si3 0.249199 0.476000 0.423521
Si Si4 0.387968 0.399323 0.121630
Si Si5 0.197814 0.656529 0.359383
Si Si6 0.388235 0.450422 0.840034
Si Si7 0.609816 0.306632 0.705039
O O1 0.851685 0.250000 0.456721
O O2 0.873067 0.339953 0.394439
O O3 0.826896 0.330416 0.548751
O O4 0.000000 0.306560 0.502156
O O5 0.177195 0.040576 0.145561
O O6 0.140475 0.080923 0.288345
O O7 0.000000 0.050638 0.192866
O O8 0.116307 0.982539 0.257439
O O9 0.306776 0.500000 0.500000
O O10 0.183090 0.427114 0.442283
O O11 0.171784 0.519171 0.405272
O O12 0.500000 0.414852 0.104882
O O13 0.163097 0.602511 0.329223
O O14 0.315198 0.660581 0.348573
O O15 0.143271 0.694571 0.298893
O O16 0.500000 0.443150 0.868294
O O17 0.500000 0.328947 0.696714
O O18 0.611343 0.250000 0.673063
#
# Coordination Sequence:
#
# PCOD8298542 Si02
#       7
#    16  16  16  16  16  16  16
#     4  10  19  31  51  80 109 133 166 222 284 328
#     4   9  20  37  55  74 104 146 183 215 255 318
#     4  11  21  32  52  80 108 139 173 216 266 314
#     4   9  18  34  54  76 104 140 176 213 265 325
#     4  11  20  31  49  73 102 139 176 221 272 315
#     4  10  20  33  51  76 105 140 176 212 258 318
#     4  10  21  34  47  65  95 141 189 225 262 315
#
# _framework density 18.448452
#
# number of rings (size 3 to 8) (size 9 to 14) (size 15 to 20)
#    0.000    2.000    0.000    6.857    4.000    3.714 
#    0.000    0.000    0.000    4.286    0.000    0.000 
#    0.000    0.000    0.000    0.000    0.000    0.143 
#
# Total GULP energy -693874.422124 kJ/mol
# GULP energy per Si atom -12390.614681 kJ/mol
# Density = 1.840646 g / cm^3
# Si number density = 18.448452 Si / 1000 Ang^3
#
#
#
# Elastic Constant Matrix: (Units=GPa)
#
#
# Indices 1 2 3 4 5 6 
#
# 1 116.0723 42.3570 44.6212 0.0000 0.0000 0.0000
# 2 42.3570 102.2409 51.1952 0.0006 0.0000 -0.0001
# 3 44.6212 51.1952 88.8642 0.0002 0.0000 -0.0001
# 4 0.0000 0.0006 0.0002 13.6584 0.0000 -0.0001
# 5 0.0000 0.0000 0.0000 0.0000 16.3132 0.0000
# 6 0.0000 -0.0001 -0.0001 -0.0001 0.0000 18.9354
#
#
#
# Elastic Compliance Matrix: (Units=1/GPa)
#
#
# Indices 1 2 3 4 5 6 
#
# 1 0.011129 -0.002547 -0.004121 0.000000 0.000000 0.000000
# 2 -0.002547 0.014329 -0.006976 0.000000 0.000000 0.000000
# 3 -0.004121 -0.006976 0.017341 0.000000 0.000000 0.000000
# 4 0.000000 0.000000 0.000000 0.073215 0.000000 0.000000
# 5 0.000000 0.000000 0.000000 0.000000 0.061300 0.000000
# 6 0.000000 0.000000 0.000000 0.000000 0.000000 0.052811
#
#
# Mechanical properties :
#
#
# Convention : Reuss Voigt Hill
#
# Bulk Modulus (GPa) = 64.46892 64.83602 64.65247
# Shear Modulus (GPa) = 19.04153 21.04835 20.04494
#
# Velocity S-wave (km/s) = 3.21619 3.38143 3.29984
# Velocity P-wave (km/s) = 6.98664 7.10395 7.04554
#
# Compressibility (1/GPa) = 0.01551135
#
# Stress axis : x y z
#
# Youngs Moduli (GPa) = 89.85582 69.78725 57.66601
#
# Poissons Ratio (x) = 0.17776 0.23762
# Poissons Ratio (y) = 0.22888 0.40229
# Poissons Ratio (z) = 0.37027 0.48685
#
# Static dielectric constant tensor:
#      x y z
#    x 3.502030 0.000000 0.000000 
#    y 0.000000 3.604630 0.000000 
#    z 0.000000 0.000000 3.095790 
# 
# 
# High freq. dielectric constant tensor:
#      x y z
#    x 1.716690 0.000000 0.000000 
#    y 0.000000 1.713680 0.000000 
#    z 0.000000 0.000000 1.682770 
# 
# From -- ./inp_files/32898.got.cif
#   From: 2010.03.12/outbox.cif.g09.slc.cpg/sg74_17_cif.got.tgz:32898.got - 2010.04.16 15:46:19.
