data_PCOD8298518
_publ_section_title
;
Structure prediction by ZEFSAII (Michael W. Deem and Ramdas Pophale) SiO2 
 PCOD8298518
Probable space group: I M M A
;
_chemical_formula_sum "Si O2"
_cell_formula_units_Z 72
_cell_length_a 8.865889
_cell_length_b 12.375350
_cell_length_c 31.968326
_cell_angle_alpha 90.000000
_cell_angle_beta 90.000000
_cell_angle_gamma 90.000000
_cell_volume 3507.516119
_symmetry_space_group_name_H-M "I M M A"
_symmetry_group_IT_number 74
_symmetry_cell_setting 'orthorhombic'
loop_
_space_group_symop_operation_xyz
x,y,z
-x,1/2-y,z
x,-y,-z
-x,1/2+y,-z
-x,-y,-z
x,1/2+y,-z
-x,y,z
x,1/2-y,z
1/2+x,1/2+y,1/2+z
1/2-x,-y,1/2+z
1/2+x,1/2-y,1/2-z
1/2-x,y,1/2-z
1/2-x,1/2-y,1/2-z
1/2+x,y,1/2-z
1/2-x,1/2+y,1/2+z
1/2+x,-y,1/2+z
loop_
_atom_site_type_symbol
_atom_site_label
_atom_site_fract_x
_atom_site_fract_y
_atom_site_fract_z
Si Si1 0.177796 0.871481 0.611124
Si Si2 0.321586 0.069634 0.641006
Si Si3 0.671146 0.378960 0.474121
Si Si4 0.832479 0.373567 0.556261
Si Si5 0.677243 0.750000 0.294958
O O1 0.239933 0.750000 0.617386
O O2 0.227118 0.919341 0.565500
O O3 0.000000 0.873727 0.615467
O O4 0.252688 0.948677 0.646187
O O5 0.500000 0.063646 0.637244
O O6 0.255145 0.123417 0.599692
O O7 0.271020 0.142547 0.680244
O O8 0.500000 0.418390 0.467582
O O9 0.678865 0.250000 0.474839
O O10 0.734354 0.427015 0.518379
O O11 0.853545 0.250000 0.543274
O O12 0.000000 0.426872 0.560083
O O13 0.500000 0.750000 0.289372
O O14 0.750000 0.750000 0.250000
#
# Coordination Sequence:
#
# PCOD8298518 Si02
#       5
#    16  16  16  16   8
#     4  10  21  37  56  82 117 156 201 246 287 338
#     4  11  22  38  60  87 117 150 191 237 291 352
#     4   9  17  30  49  74 109 155 201 247 294 338
#     4  10  19  31  50  78 113 153 197 245 295 346
#     4  10  24  44  68  96 124 150 182 234 296 362
#
# _framework density 20.527346000000001
#
# number of rings (size 3 to 8) (size 9 to 14) (size 15 to 20)
#    0.000    2.000    1.111    2.667    0.000    7.556 
#    0.000    4.444    0.000    0.667    0.000    0.000 
#    0.000    0.000    0.000    0.000    0.000    0.000 
#
# Total GULP energy -446486.175640 kJ/mol
# GULP energy per Si atom -12402.393768 kJ/mol
# Density = 2.048062 g / cm^3
# Si number density = 20.527346 Si / 1000 Ang^3
#
#
#
# Elastic Constant Matrix: (Units=GPa)
#
#
# Indices 1 2 3 4 5 6 
#
# 1 114.7527 42.9856 58.8844 0.0000 0.0000 0.0000
# 2 42.9856 102.9361 71.7128 0.0000 0.0000 0.0000
# 3 58.8844 71.7128 135.0994 0.0000 0.0000 0.0000
# 4 0.0000 0.0000 0.0000 26.5953 0.0000 0.0000
# 5 0.0000 0.0000 0.0000 0.0000 32.0391 0.0000
# 6 0.0000 0.0000 0.0000 0.0000 0.0000 31.2794
#
#
#
# Elastic Compliance Matrix: (Units=1/GPa)
#
#
# Indices 1 2 3 4 5 6 
#
# 1 0.011499 -0.002079 -0.003908 0.000000 0.000000 0.000000
# 2 -0.002079 0.015791 -0.007476 0.000000 0.000000 0.000000
# 3 -0.003908 -0.007476 0.013074 0.000000 0.000000 0.000000
# 4 0.000000 0.000000 0.000000 0.037601 0.000000 0.000000
# 5 0.000000 0.000000 0.000000 0.000000 0.031212 0.000000
# 6 0.000000 0.000000 0.000000 0.000000 0.000000 0.031970
#
#
# Mechanical properties :
#
#
# Convention : Reuss Voigt Hill
#
# Bulk Modulus (GPa) = 74.42083 77.77266 76.09674
# Shear Modulus (GPa) = 28.97675 29.92978 29.45327
#
# Velocity S-wave (km/s) = 3.76123 3.82258 3.79203
# Velocity P-wave (km/s) = 7.42937 7.57974 7.50493
#
# Compressibility (1/GPa) = 0.01343710
#
# Stress axis : x y z
#
# Youngs Moduli (GPa) = 86.96672 63.32565 76.48859
#
# Poissons Ratio (x) = 0.13166 0.29893
# Poissons Ratio (y) = 0.18081 0.57184
# Poissons Ratio (z) = 0.33988 0.47343
#
# Static dielectric constant tensor:
#      x y z
#    x 3.803780 0.000000 0.000000 
#    y 0.000000 4.360280 0.000000 
#    z 0.000000 0.000000 3.584220 
# 
# 
# High freq. dielectric constant tensor:
#      x y z
#    x 1.813450 0.000000 0.000000 
#    y 0.000000 1.848340 0.000000 
#    z 0.000000 0.000000 1.748650 
# 
# From -- ./inp_files/69945.got.cif
#   From: 2010.03.12/outbox.cif.g09.slc.cpg/sg74_35_cif.got.tgz:69945.got - 2010.04.16 15:46:19.
