data_PCOD8298249
_publ_section_title
;
Structure prediction by ZEFSAII (Michael W. Deem and Ramdas Pophale) SiO2 
 PCOD8298249
Probable space group: I M M A
;
_chemical_formula_sum "Si O2"
_cell_formula_units_Z 96
_cell_length_a 8.992929
_cell_length_b 30.648008
_cell_length_c 20.622347
_cell_angle_alpha 90.000000
_cell_angle_beta 90.000000
_cell_angle_gamma 90.000000
_cell_volume 5683.835591
_symmetry_space_group_name_H-M "I M M A"
_symmetry_group_IT_number 74
_symmetry_cell_setting 'orthorhombic'
loop_
_space_group_symop_operation_xyz
x,y,z
-x,1/2-y,z
x,-y,-z
-x,1/2+y,-z
-x,-y,-z
x,1/2+y,-z
-x,y,z
x,1/2-y,z
1/2+x,1/2+y,1/2+z
1/2-x,-y,1/2+z
1/2+x,1/2-y,1/2-z
1/2-x,y,1/2-z
1/2-x,1/2-y,1/2-z
1/2+x,y,1/2-z
1/2-x,1/2+y,1/2+z
1/2+x,-y,1/2+z
loop_
_atom_site_type_symbol
_atom_site_label
_atom_site_fract_x
_atom_site_fract_y
_atom_site_fract_z
Si Si1 0.172785 0.537279 0.950999
Si Si2 0.326857 0.201583 0.545390
Si Si3 0.825366 0.820474 0.188300
Si Si4 0.674562 0.496977 0.687167
Si Si5 0.830013 0.616743 0.491226
Si Si6 0.672140 0.092905 0.843986
O O1 0.203666 0.525221 0.876726
O O2 0.000000 0.543602 0.966375
O O3 0.236446 0.500000 0.000000
O O4 0.251489 0.583729 0.959642
O O5 0.500000 0.189968 0.540629
O O6 0.293117 0.250000 0.517311
O O7 0.276968 0.201813 0.620838
O O8 0.239616 0.165256 0.504434
O O9 0.750000 0.796048 0.250000
O O10 0.767557 0.869808 0.189722
O O11 0.000000 0.818691 0.197837
O O12 0.500000 0.489415 0.698253
O O13 0.750000 0.520423 0.750000
O O14 0.759017 0.451652 0.680164
O O15 0.809089 0.596067 0.420884
O O16 0.000000 0.621372 0.511788
O O17 0.500000 0.096678 0.823433
#
# Coordination Sequence:
#
# PCOD8298249 Si02
#       6
#    16  16  16  16  16  16
#     4  10  20  35  54  74  99 134 173 207 245 298
#     4   9  19  35  52  68  90 123 161 202 250 303
#     4  10  19  30  44  62  87 120 161 205 250 297
#     4  11  22  34  49  70  99 133 168 208 250 291
#     4  10  20  32  51  76  99 125 161 209 255 294
#     4  10  19  31  46  66  93 126 165 206 250 293
#
# _framework density 16.890004000000001
#
# number of rings (size 3 to 8) (size 9 to 14) (size 15 to 20)
#    0.000    2.000    1.667    2.500    0.000    4.333 
#    0.000    0.000    0.000    0.000    0.000    0.000 
#    0.000    0.667    0.000    2.167    0.000    2.667 
#
# Total GULP energy -595135.065796 kJ/mol
# GULP energy per Si atom -12398.647204 kJ/mol
# Density = 1.685156 g / cm^3
# Si number density = 16.890004 Si / 1000 Ang^3
#
#
#
# Elastic Constant Matrix: (Units=GPa)
#
#
# Indices 1 2 3 4 5 6 
#
# 1 61.7333 40.0493 26.0642 0.0000 0.0000 0.0000
# 2 40.0493 101.9816 33.7647 0.0000 0.0000 0.0000
# 3 26.0642 33.7647 58.0429 -0.0001 0.0000 0.0001
# 4 0.0000 0.0000 -0.0001 3.1260 0.0000 0.0000
# 5 0.0000 0.0000 0.0000 0.0000 25.6131 0.0000
# 6 0.0000 0.0000 0.0001 0.0000 0.0000 16.0639
#
#
#
# Elastic Compliance Matrix: (Units=1/GPa)
#
#
# Indices 1 2 3 4 5 6 
#
# 1 0.023526 -0.007111 -0.006428 0.000000 0.000000 0.000000
# 2 -0.007111 0.014294 -0.005122 0.000000 0.000000 0.000000
# 3 -0.006428 -0.005122 0.023095 0.000001 0.000000 0.000000
# 4 0.000000 0.000000 0.000001 0.319895 0.000000 0.000000
# 5 0.000000 0.000000 0.000000 0.000000 0.039043 0.000000
# 6 0.000000 0.000000 0.000000 0.000000 0.000000 0.062251
#
#
# Mechanical properties :
#
#
# Convention : Reuss Voigt Hill
#
# Bulk Modulus (GPa) = 42.38498 46.83490 44.60994
# Shear Modulus (GPa) = 9.48249 17.08592 13.28420
#
# Velocity S-wave (km/s) = 2.37201 3.18402 2.80753
# Velocity P-wave (km/s) = 5.71412 6.42704 6.08103
#
# Compressibility (1/GPa) = 0.02359326
#
# Stress axis : x y z
#
# Youngs Moduli (GPa) = 42.50700 69.95974 43.30014
#
# Poissons Ratio (x) = 0.49746 0.27832
# Poissons Ratio (y) = 0.30225 0.22178
# Poissons Ratio (z) = 0.27323 0.35834
#
# Static dielectric constant tensor:
#      x y z
#    x 3.236060 0.000000 0.000000 
#    y 0.000000 3.044980 0.000000 
#    z 0.000000 0.000000 3.260030 
# 
# 
# High freq. dielectric constant tensor:
#      x y z
#    x 1.661300 0.000000 0.000000 
#    y 0.000000 1.635770 0.000000 
#    z 0.000000 0.000000 1.622310 
# 
# From -- ./inp_files/49083.got.cif
#   From: 2010.03.12/outbox.cif.g09.slc.cpg/sg74_25_cif.got.tgz:49083.got - 2010.04.16 15:46:19.
