data_PCOD8298800
_publ_section_title
;
Structure prediction by ZEFSAII (Michael W. Deem and Ramdas Pophale) SiO2 
 PCOD8298800
Probable space group: I M M A
;
_chemical_formula_sum "Si O2"
_cell_formula_units_Z 96
_cell_length_a 28.944158
_cell_length_b 17.930360
_cell_length_c 10.272585
_cell_angle_alpha 90.000000
_cell_angle_beta 90.000000
_cell_angle_gamma 90.000000
_cell_volume 5331.257666
_symmetry_space_group_name_H-M "I M M A"
_symmetry_group_IT_number 74
_symmetry_cell_setting 'orthorhombic'
loop_
_space_group_symop_operation_xyz
x,y,z
-x,1/2-y,z
x,-y,-z
-x,1/2+y,-z
-x,-y,-z
x,1/2+y,-z
-x,y,z
x,1/2-y,z
1/2+x,1/2+y,1/2+z
1/2-x,-y,1/2+z
1/2+x,1/2-y,1/2-z
1/2-x,y,1/2-z
1/2-x,1/2-y,1/2-z
1/2+x,y,1/2-z
1/2-x,1/2+y,1/2+z
1/2+x,-y,1/2+z
loop_
_atom_site_type_symbol
_atom_site_label
_atom_site_fract_x
_atom_site_fract_y
_atom_site_fract_z
Si Si1 0.447218 0.556358 0.615028
Si Si2 0.219053 0.838404 0.365507
Si Si3 0.729035 0.838953 0.615904
Si Si4 0.946612 0.539055 0.368838
Si Si5 0.871117 0.837256 0.970659
Si Si6 0.380296 0.337153 0.774039
O O1 0.434521 0.500000 0.500000
O O2 0.500000 0.584125 0.601057
O O3 0.438367 0.518328 0.752669
O O4 0.413720 0.626882 0.606149
O O5 0.224203 0.750000 0.360968
O O6 0.250000 0.873172 0.250000
O O7 0.237670 0.869582 0.502291
O O8 0.166100 0.861556 0.348312
O O9 0.728761 0.750000 0.617434
O O10 0.750000 0.871069 0.750000
O O11 0.676993 0.867888 0.589392
O O12 0.927892 0.500000 0.500000
O O13 0.921168 0.616506 0.339600
O O14 0.000000 0.560588 0.384148
O O15 0.875042 0.750000 0.947398
O O16 0.873914 0.856927 0.122782
O O17 0.391571 0.250000 0.792792
#
# Coordination Sequence:
#
# PCOD8298800 Si02
#       6
#    16  16  16  16  16  16
#     4  10  20  36  57  79 106 144 182 217 272 338
#     4   9  15  27  48  74 105 139 175 214 263 321
#     4   9  17  29  47  75 110 144 176 216 267 321
#     4  10  22  40  58  78 109 148 183 219 276 345
#     4  10  19  32  55  86 113 139 182 236 273 306
#     4  10  19  32  57  87 108 137 185 235 272 310
#
# _framework density 18.007009
#
# number of rings (size 3 to 8) (size 9 to 14) (size 15 to 20)
#    0.000    2.333    3.333    0.000    0.000    2.000 
#    0.000    4.167    0.000    9.000    0.000    0.000 
#    0.000    0.000    0.000    0.000    0.000    0.000 
#
# Total GULP energy -595184.218398 kJ/mol
# GULP energy per Si atom -12399.671217 kJ/mol
# Density = 1.796602 g / cm^3
# Si number density = 18.007009 Si / 1000 Ang^3
#
#
#
# Elastic Constant Matrix: (Units=GPa)
#
#
# Indices 1 2 3 4 5 6 
#
# 1 127.3092 55.1305 63.7195 0.0000 0.0000 0.0000
# 2 55.1305 47.3329 38.9010 0.0000 0.0000 0.0000
# 3 63.7195 38.9010 136.4708 0.0000 0.0000 0.0000
# 4 0.0000 0.0000 0.0000 17.6694 0.0000 0.0000
# 5 0.0000 0.0000 0.0000 0.0000 26.3838 0.0000
# 6 0.0000 0.0000 0.0000 0.0000 0.0000 10.8942
#
#
#
# Elastic Compliance Matrix: (Units=1/GPa)
#
#
# Indices 1 2 3 4 5 6 
#
# 1 0.016708 -0.017041 -0.002943 0.000000 0.000000 0.000000
# 2 -0.017041 0.044971 -0.004863 0.000000 0.000000 0.000000
# 3 -0.002943 -0.004863 0.010088 0.000000 0.000000 0.000000
# 4 0.000000 0.000000 0.000000 0.056595 0.000000 0.000000
# 5 0.000000 0.000000 0.000000 0.000000 0.037902 0.000000
# 6 0.000000 0.000000 0.000000 0.000000 0.000000 0.091792
#
#
# Mechanical properties :
#
#
# Convention : Reuss Voigt Hill
#
# Bulk Modulus (GPa) = 45.30365 69.62388 57.46377
# Shear Modulus (GPa) = 15.86760 21.21361 18.54060
#
# Velocity S-wave (km/s) = 2.97171 3.43603 3.21227
# Velocity P-wave (km/s) = 6.08179 7.38177 6.76309
#
# Compressibility (1/GPa) = 0.02207328
#
# Stress axis : x y z
#
# Youngs Moduli (GPa) = 59.85318 22.23632 99.12815
#
# Poissons Ratio (x) = 0.37893 0.29178
# Poissons Ratio (y) = 1.01995 0.48202
# Poissons Ratio (z) = 0.17617 0.10813
#
# Static dielectric constant tensor:
#      x y z
#    x 3.435160 0.000000 0.000000 
#    y 0.000000 2.878500 0.000000 
#    z 0.000000 0.000000 3.565380 
# 
# 
# High freq. dielectric constant tensor:
#      x y z
#    x 1.706710 0.000000 0.000000 
#    y 0.000000 1.655610 0.000000 
#    z 0.000000 0.000000 1.705580 
# 
# From -- ./inp_files/12658.got.cif
#   From: 2010.03.12/outbox.cif.g09.slc.cpg/sg74_7_cif.got.tgz:12658.got - 2010.04.16 15:46:19.
