data_PCOD8298498
_publ_section_title
;
Structure prediction by ZEFSAII (Michael W. Deem and Ramdas Pophale) SiO2 
 PCOD8298498
Probable space group: I M M A
;
_chemical_formula_sum "Si O2"
_cell_formula_units_Z 96
_cell_length_a 8.769585
_cell_length_b 22.708154
_cell_length_c 26.604049
_cell_angle_alpha 90.000000
_cell_angle_beta 90.000000
_cell_angle_gamma 90.000000
_cell_volume 5297.959228
_symmetry_space_group_name_H-M "I M M A"
_symmetry_group_IT_number 74
_symmetry_cell_setting 'orthorhombic'
loop_
_space_group_symop_operation_xyz
x,y,z
-x,1/2-y,z
x,-y,-z
-x,1/2+y,-z
-x,-y,-z
x,1/2+y,-z
-x,y,z
x,1/2-y,z
1/2+x,1/2+y,1/2+z
1/2-x,-y,1/2+z
1/2+x,1/2-y,1/2-z
1/2-x,y,1/2-z
1/2-x,1/2-y,1/2-z
1/2+x,y,1/2-z
1/2-x,1/2+y,1/2+z
1/2+x,-y,1/2+z
loop_
_atom_site_type_symbol
_atom_site_label
_atom_site_fract_x
_atom_site_fract_y
_atom_site_fract_z
Si Si1 0.823387 0.819135 0.467269
Si Si2 0.167919 0.487360 0.054149
Si Si3 0.668518 0.603343 0.384495
Si Si4 0.320374 0.316581 0.427698
Si Si5 0.681429 0.476605 0.804699
Si Si6 0.325068 0.585747 0.869799
O O1 0.795866 0.750000 0.461974
O O2 0.754994 0.846860 0.416340
O O3 0.745404 0.841622 0.519272
O O4 0.000000 0.836005 0.470457
O O5 0.145342 0.548845 0.079984
O O6 0.299689 0.448402 0.078279
O O7 0.000000 0.455353 0.053546
O O8 0.233396 0.500000 0.000000
O O9 0.500000 0.626507 0.367833
O O10 0.762196 0.580305 0.336002
O O11 0.500000 0.319216 0.431203
O O12 0.261815 0.250000 0.419356
O O13 0.266477 0.353204 0.377960
O O14 0.500000 0.475205 0.803687
O O15 0.750000 0.470700 0.750000
O O16 0.736616 0.540593 0.826780
O O17 0.500000 0.601453 0.860637
#
# Coordination Sequence:
#
# PCOD8298498 Si02
#       6
#    16  16  16  16  16  16
#     4  10  20  33  50  74 106 142 176 210 247 290
#     4   9  17  28  43  66  97 130 162 197 239 291
#     4  10  19  31  50  75 102 133 168 207 251 300
#     4  10  20  33  50  73 103 140 177 209 244 293
#     4  10  21  37  56  78 102 129 165 210 261 312
#     4  10  20  32  49  73  99 128 163 206 253 300
#
# _framework density 18.120183999999998
#
# number of rings (size 3 to 8) (size 9 to 14) (size 15 to 20)
#    0.000    2.167    0.000    3.500    0.000    6.333 
#    0.000    0.000    0.000    1.000    0.000    0.000 
#    0.000    0.000    0.000    0.000    0.000    0.000 
#
# Total GULP energy -594725.990057 kJ/mol
# GULP energy per Si atom -12390.124793 kJ/mol
# Density = 1.807894 g / cm^3
# Si number density = 18.120184 Si / 1000 Ang^3
#
#
#
# Elastic Constant Matrix: (Units=GPa)
#
#
# Indices 1 2 3 4 5 6 
#
# 1 79.1580 15.1682 16.5875 0.0000 0.0000 0.0000
# 2 15.1682 41.7427 -2.5626 0.0000 0.0000 0.0000
# 3 16.5875 -2.5626 51.2521 0.0000 0.0000 0.0000
# 4 0.0000 0.0000 0.0000 25.1662 0.0000 0.0000
# 5 0.0000 0.0000 0.0000 0.0000 28.8973 0.0000
# 6 0.0000 0.0000 0.0000 0.0000 0.0000 29.2010
#
#
#
# Elastic Compliance Matrix: (Units=1/GPa)
#
#
# Indices 1 2 3 4 5 6 
#
# 1 0.014784 -0.005683 -0.005069 0.000000 0.000000 0.000000
# 2 -0.005683 0.026215 0.003150 0.000000 0.000000 0.000000
# 3 -0.005069 0.003150 0.021309 0.000000 0.000000 0.000000
# 4 0.000000 0.000000 0.000000 0.039736 0.000000 0.000000
# 5 0.000000 0.000000 0.000000 0.000000 0.034605 0.000000
# 6 0.000000 0.000000 0.000000 0.000000 0.000000 0.034245
#
#
# Mechanical properties :
#
#
# Convention : Reuss Voigt Hill
#
# Bulk Modulus (GPa) = 21.22963 25.61546 23.42254
# Shear Modulus (GPa) = 24.77690 26.18356 25.48023
#
# Velocity S-wave (km/s) = 3.70180 3.80543 3.75397
# Velocity P-wave (km/s) = 5.47837 5.78580 5.63418
#
# Compressibility (1/GPa) = 0.04710399
#
# Stress axis : x y z
#
# Youngs Moduli (GPa) = 67.63975 38.14633 46.92752
#
# Poissons Ratio (x) = 0.21680 0.23788
# Poissons Ratio (y) = 0.38442 -0.14783
# Poissons Ratio (z) = 0.34287 -0.12017
#
# Static dielectric constant tensor:
#      x y z
#    x 3.485300 0.000000 0.000000 
#    y 0.000000 3.394740 0.000000 
#    z 0.000000 0.000000 3.216050 
# 
# 
# High freq. dielectric constant tensor:
#      x y z
#    x 1.712840 0.000000 0.000000 
#    y 0.000000 1.695860 0.000000 
#    z 0.000000 0.000000 1.675570 
# 
# From -- ./inp_files/64313.got.cif
#   From: 2010.03.12/outbox.cif.g09.slc.cpg/sg74_33_cif.got.tgz:64313.got - 2010.04.16 15:46:19.
