data_PCOD8298785
_publ_section_title
;
Structure prediction by ZEFSAII (Michael W. Deem and Ramdas Pophale) SiO2 
 PCOD8298785
Probable space group: I M M A
;
_chemical_formula_sum "Si O2"
_cell_formula_units_Z 104
_cell_length_a 9.072944
_cell_length_b 21.171120
_cell_length_c 28.218126
_cell_angle_alpha 90.000000
_cell_angle_beta 90.000000
_cell_angle_gamma 90.000000
_cell_volume 5420.261412
_symmetry_space_group_name_H-M "I M M A"
_symmetry_group_IT_number 74
_symmetry_cell_setting 'orthorhombic'
loop_
_space_group_symop_operation_xyz
x,y,z
-x,1/2-y,z
x,-y,-z
-x,1/2+y,-z
-x,-y,-z
x,1/2+y,-z
-x,y,z
x,1/2-y,z
1/2+x,1/2+y,1/2+z
1/2-x,-y,1/2+z
1/2+x,1/2-y,1/2-z
1/2-x,y,1/2-z
1/2-x,1/2-y,1/2-z
1/2+x,y,1/2-z
1/2-x,1/2+y,1/2+z
1/2+x,-y,1/2+z
loop_
_atom_site_type_symbol
_atom_site_label
_atom_site_fract_x
_atom_site_fract_y
_atom_site_fract_z
Si Si1 0.334380 0.074378 0.797202
Si Si2 0.826939 0.142276 0.125117
Si Si3 0.825535 0.092339 0.939866
Si Si4 0.826354 0.181475 0.021028
Si Si5 0.831194 0.177806 0.633838
Si Si6 0.674320 0.010062 0.115530
Si Si7 0.826422 0.250000 0.198745
O O1 0.500000 0.056237 0.785482
O O2 0.250000 0.059174 0.750000
O O3 0.316783 0.146997 0.813896
O O4 0.276113 0.030854 0.839548
O O5 0.783552 0.174973 0.075833
O O6 0.734264 0.078768 0.126862
O O7 0.780562 0.187915 0.168584
O O8 0.000000 0.126729 0.127245
O O9 0.781938 0.144277 0.901133
O O10 0.000000 0.080944 0.939428
O O11 0.747578 0.024516 0.930331
O O12 0.767895 0.122346 0.989786
O O13 0.762888 0.250000 0.003836
O O14 0.000000 0.182676 0.014708
O O15 0.785240 0.250000 0.638510
O O16 0.000000 0.168809 0.615582
O O17 0.500000 0.011830 0.107533
O O18 0.750000 0.250000 0.250000
O O19 0.000000 0.250000 0.207270
#
# Coordination Sequence:
#
# PCOD8298785 Si02
#       7
#    16  16  16  16  16  16   8
#     4   9  19  34  51  71  98 135 177 222 271 320
#     4  10  20  38  62  85 109 143 184 224 273 330
#     4  10  19  32  54  83 110 143 188 232 270 316
#     4   9  17  32  56  84 114 144 181 230 276 319
#     4   9  18  33  50  71 107 148 180 218 273 330
#     4  10  22  39  55  76 112 149 180 224 280 337
#     4  10  22  40  64  90 118 150 186 232 287 346
#
# _framework density 19.187266000000001
#
# number of rings (size 3 to 8) (size 9 to 14) (size 15 to 20)
#    0.000    2.462    0.769    2.308    0.000    6.154 
#    0.000    7.692    0.000    1.846    0.000    0.000 
#    0.000    0.000    0.000    0.000    0.000    0.000 
#
# Total GULP energy -644483.682150 kJ/mol
# GULP energy per Si atom -12393.916964 kJ/mol
# Density = 1.914359 g / cm^3
# Si number density = 19.187266 Si / 1000 Ang^3
#
#
#
# Elastic Constant Matrix: (Units=GPa)
#
#
# Indices 1 2 3 4 5 6 
#
# 1 55.1240 45.7445 38.6300 0.0000 0.0000 0.0000
# 2 45.7445 150.3563 52.1316 0.0000 0.0000 0.0000
# 3 38.6300 52.1316 118.6577 0.0000 0.0000 0.0000
# 4 0.0000 0.0000 0.0000 14.6819 0.0000 0.0000
# 5 0.0000 0.0000 0.0000 0.0000 24.1556 0.0000
# 6 0.0000 0.0000 0.0000 0.0000 0.0000 28.6488
#
#
#
# Elastic Compliance Matrix: (Units=1/GPa)
#
#
# Indices 1 2 3 4 5 6 
#
# 1 0.027738 -0.006262 -0.006279 0.000000 0.000000 0.000000
# 2 -0.006262 0.009260 -0.002030 0.000000 0.000000 0.000000
# 3 -0.006279 -0.002030 0.011364 0.000000 0.000000 0.000000
# 4 0.000000 0.000000 0.000000 0.068111 0.000000 0.000000
# 5 0.000000 0.000000 0.000000 0.000000 0.041398 0.000000
# 6 0.000000 0.000000 0.000000 0.000000 0.000000 0.034905
#
#
# Mechanical properties :
#
#
# Convention : Reuss Voigt Hill
#
# Bulk Modulus (GPa) = 52.02986 66.35001 59.18994
# Shear Modulus (GPa) = 21.89878 26.00605 23.95242
#
# Velocity S-wave (km/s) = 3.38201 3.68554 3.53703
# Velocity P-wave (km/s) = 6.51355 7.26404 6.89901
#
# Compressibility (1/GPa) = 0.01921973
#
# Stress axis : x y z
#
# Youngs Moduli (GPa) = 36.05218 107.99524 88.00105
#
# Poissons Ratio (x) = 0.67625 0.55257
# Poissons Ratio (y) = 0.22575 0.17861
# Poissons Ratio (z) = 0.22638 0.21919
#
# Static dielectric constant tensor:
#      x y z
#    x 3.354600 0.000000 0.000000 
#    y 0.000000 3.819690 0.000000 
#    z 0.000000 0.000000 3.438240 
# 
# 
# High freq. dielectric constant tensor:
#      x y z
#    x 1.727510 0.000000 0.000000 
#    y 0.000000 1.756650 0.000000 
#    z 0.000000 0.000000 1.741090 
# 
# From -- ./inp_files/64447.got.cif
#   From: 2010.03.12/outbox.cif.g09.slc.cpg/sg74_33_cif.got.tgz:64447.got - 2010.04.16 15:46:19.
