data_PCOD8298649
_publ_section_title
;
Structure prediction by ZEFSAII (Michael W. Deem and Ramdas Pophale) SiO2 
 PCOD8298649
Probable space group: I M M A
;
_chemical_formula_sum "Si O2"
_cell_formula_units_Z 96
_cell_length_a 8.818009
_cell_length_b 31.063708
_cell_length_c 19.422989
_cell_angle_alpha 90.000000
_cell_angle_beta 90.000000
_cell_angle_gamma 90.000000
_cell_volume 5320.346249
_symmetry_space_group_name_H-M "I M M A"
_symmetry_group_IT_number 74
_symmetry_cell_setting 'orthorhombic'
loop_
_space_group_symop_operation_xyz
x,y,z
-x,1/2-y,z
x,-y,-z
-x,1/2+y,-z
-x,-y,-z
x,1/2+y,-z
-x,y,z
x,1/2-y,z
1/2+x,1/2+y,1/2+z
1/2-x,-y,1/2+z
1/2+x,1/2-y,1/2-z
1/2-x,y,1/2-z
1/2-x,1/2-y,1/2-z
1/2+x,y,1/2-z
1/2-x,1/2+y,1/2+z
1/2+x,-y,1/2+z
loop_
_atom_site_type_symbol
_atom_site_label
_atom_site_fract_x
_atom_site_fract_y
_atom_site_fract_z
Si Si1 0.328882 0.797237 0.919810
Si Si2 0.318833 0.957469 0.323230
Si Si3 0.822588 0.117231 0.080320
Si Si4 0.177379 0.881912 0.077958
Si Si5 0.180026 0.047955 0.323032
Si Si6 0.829185 0.203491 0.583307
O O1 0.500000 0.806874 0.894511
O O2 0.276359 0.750000 0.892230
O O3 0.217256 0.834648 0.892523
O O4 0.323723 0.796697 0.001514
O O5 0.500000 0.960776 0.318315
O O6 0.250000 0.944136 0.250000
O O7 0.262922 0.922223 0.378238
O O8 0.251254 0.002900 0.347806
O O9 0.722235 0.083500 0.121408
O O10 0.000000 0.108374 0.091577
O O11 0.771825 0.112036 0.000975
O O12 0.237287 0.837419 0.111497
O O13 0.000000 0.878906 0.082599
O O14 0.250000 0.061717 0.250000
O O15 0.000000 0.043534 0.316089
O O16 0.763147 0.250000 0.609044
O O17 0.000000 0.198747 0.610082
#
# Coordination Sequence:
#
# PCOD8298649 Si02
#       6
#    16  16  16  16  16  16
#     4   8  14  26  44  68  99 132 164 199 239 284
#     4  10  20  36  54  73  97 128 166 204 246 295
#     4  10  19  32  50  75 104 132 163 201 244 288
#     4   9  19  32  49  74 103 132 162 201 247 291
#     4  11  22  37  55  74  96 127 165 202 244 294
#     4   8  14  25  43  68  98 130 163 200 241 285
#
# _framework density 18.043939000000002
#
# number of rings (size 3 to 8) (size 9 to 14) (size 15 to 20)
#    0.000    2.667    0.000    4.500    0.000    3.333 
#    0.000    6.667    0.000    1.000    0.000    0.000 
#    0.000    0.000    0.000    0.000    0.000    0.000 
#
# Total GULP energy -594935.665459 kJ/mol
# GULP energy per Si atom -12394.493030 kJ/mol
# Density = 1.800287 g / cm^3
# Si number density = 18.043939 Si / 1000 Ang^3
#
#
#
# Elastic Constant Matrix: (Units=GPa)
#
#
# Indices 1 2 3 4 5 6 
#
# 1 68.7863 51.8196 29.7078 0.0000 0.0000 0.0000
# 2 51.8196 163.8931 64.5872 0.0001 0.0000 0.0000
# 3 29.7078 64.5872 50.2273 0.0003 0.0001 0.0000
# 4 0.0000 0.0001 0.0003 0.0789 0.0000 0.0000
# 5 0.0000 0.0000 0.0001 0.0000 21.1746 0.0000
# 6 0.0000 0.0000 0.0000 0.0000 0.0000 36.5743
#
#
#
# Elastic Compliance Matrix: (Units=1/GPa)
#
#
# Indices 1 2 3 4 5 6 
#
# 1 0.020441 -0.003444 -0.007662 0.000029 0.000000 0.000000
# 2 -0.003444 0.012950 -0.014616 0.000044 0.000000 0.000000
# 3 -0.007662 -0.014616 0.043236 -0.000145 0.000000 0.000000
# 4 0.000029 0.000044 -0.000145 12.675155 -0.000020 -0.000001
# 5 0.000000 0.000000 0.000000 -0.000020 0.047226 0.000000
# 6 0.000000 0.000000 0.000000 -0.000001 0.000000 0.027342
#
#
# Mechanical properties :
#
#
# Convention : Reuss Voigt Hill
#
# Bulk Modulus (GPa) = 39.70769 63.90398 51.80583
# Shear Modulus (GPa) = 0.38801 20.68501 10.53651
#
# Velocity S-wave (km/s) = 0.46422 3.38948 2.41910
# Velocity P-wave (km/s) = 4.72665 7.12817 6.04781
#
# Compressibility (1/GPa) = 0.02518404
#
# Stress axis : x y z
#
# Youngs Moduli (GPa) = 48.92090 77.21924 23.12889
#
# Poissons Ratio (x) = 0.26591 0.17722
# Poissons Ratio (y) = 0.16846 0.33805
# Poissons Ratio (z) = 0.37484 1.12862
#
# Static dielectric constant tensor:
#      x y z
#    x 3.350620 0.000000 0.000000 
#    y 0.000000 3.908660 0.000000 
#    z 0.000000 0.000000 3.096740 
# 
# 
# High freq. dielectric constant tensor:
#      x y z
#    x 1.700220 0.000000 0.000000 
#    y 0.000000 1.718730 0.000000 
#    z 0.000000 0.000000 1.652620 
# 
# From -- ./inp_files/49058.got.cif
#   From: 2010.03.12/outbox.cif.g09.slc.cpg/sg74_25_cif.got.tgz:49058.got - 2010.04.16 15:46:19.
