data_PCOD8298210
_publ_section_title
;
Structure prediction by ZEFSAII (Michael W. Deem and Ramdas Pophale) SiO2 
 PCOD8298210
Probable space group: I M M A
;
_chemical_formula_sum "Si O2"
_cell_formula_units_Z 112
_cell_length_a 14.859630
_cell_length_b 14.800457
_cell_length_c 28.722413
_cell_angle_alpha 90.000000
_cell_angle_beta 90.000000
_cell_angle_gamma 90.000000
_cell_volume 6316.900612
_symmetry_space_group_name_H-M "I M M A"
_symmetry_group_IT_number 74
_symmetry_cell_setting 'orthorhombic'
loop_
_space_group_symop_operation_xyz
x,y,z
-x,1/2-y,z
x,-y,-z
-x,1/2+y,-z
-x,-y,-z
x,1/2+y,-z
-x,y,z
x,1/2-y,z
1/2+x,1/2+y,1/2+z
1/2-x,-y,1/2+z
1/2+x,1/2-y,1/2-z
1/2-x,y,1/2-z
1/2-x,1/2-y,1/2-z
1/2+x,y,1/2-z
1/2-x,1/2+y,1/2+z
1/2+x,-y,1/2+z
loop_
_atom_site_type_symbol
_atom_site_label
_atom_site_fract_x
_atom_site_fract_y
_atom_site_fract_z
Si Si1 0.395256 0.352190 0.625373
Si Si2 0.397977 0.646999 0.852170
Si Si3 0.598252 0.649479 0.682113
Si Si4 0.101004 0.509725 0.945275
Si Si5 0.279073 0.353849 0.399975
Si Si6 0.145593 0.032103 0.263811
Si Si7 0.847390 0.651939 0.228639
O O1 0.500000 0.361693 0.637290
O O2 0.372021 0.250000 0.608814
O O3 0.368227 0.420026 0.583360
O O4 0.342880 0.375226 0.673605
O O5 0.500000 0.632705 0.870136
O O6 0.385631 0.750000 0.832720
O O7 0.328709 0.632750 0.895169
O O8 0.373563 0.571402 0.814489
O O9 0.500000 0.647579 0.657737
O O10 0.626467 0.750000 0.696890
O O11 0.673017 0.610824 0.647300
O O12 0.590270 0.592899 0.728657
O O13 0.177018 0.586476 0.940029
O O14 0.000000 0.537657 0.928399
O O15 0.098153 0.500000 0.000000
O O16 0.304064 0.250000 0.409909
O O17 0.250000 0.034651 0.250000
O O18 0.106999 0.929547 0.258132
O O19 0.897880 0.750000 0.233422
O O20 0.750000 0.664662 0.250000
#
# Coordination Sequence:
#
# PCOD8298210 Si02
#       7
#    16  16  16  16  16  16  16
#     4   9  18  33  52  72  99 137 176 212 253 308
#     4  10  21  35  50  71 101 137 176 216 260 312
#     4  10  19  29  44  69 100 134 168 202 247 303
#     4  10  21  35  54  82 111 137 168 209 261 323
#     4  10  20  34  52  73 102 135 170 210 255 309
#     4  11  19  28  46  68  97 137 173 215 260 302
#     4   9  19  32  46  68  96 130 175 219 255 299
#
# _framework density 17.730214
#
# number of rings (size 3 to 8) (size 9 to 14) (size 15 to 20)
#    0.000    2.143    1.429    2.143    2.000    5.429 
#    0.000    1.429    0.000    0.429    0.000    0.000 
#    0.000    0.000    0.000    0.000    0.000    0.000 
#
# Total GULP energy -693791.878618 kJ/mol
# GULP energy per Si atom -12389.140690 kJ/mol
# Density = 1.768986 g / cm^3
# Si number density = 17.730214 Si / 1000 Ang^3
#
#
#
# Elastic Constant Matrix: (Units=GPa)
#
#
# Indices 1 2 3 4 5 6 
#
# 1 95.7084 32.0489 28.4808 0.0000 0.0000 0.0000
# 2 32.0489 107.4793 44.5222 0.0000 0.0000 0.0000
# 3 28.4808 44.5222 67.6650 0.0000 0.0000 0.0000
# 4 0.0000 0.0000 0.0000 20.5593 0.0000 0.0000
# 5 0.0000 0.0000 0.0000 0.0000 22.5035 0.0000
# 6 0.0000 0.0000 0.0000 0.0000 0.0000 -2.7596
#
#
#
# Elastic Compliance Matrix: (Units=1/GPa)
#
#
# Indices 1 2 3 4 5 6 
#
# 1 0.012277 -0.002090 -0.003792 0.000000 0.000000 0.000000
# 2 -0.002090 0.013146 -0.007770 0.000000 0.000000 0.000000
# 3 -0.003792 -0.007770 0.021488 0.000000 0.000000 0.000000
# 4 0.000000 0.000000 0.000000 0.048640 0.000000 0.000000
# 5 0.000000 0.000000 0.000000 0.000000 0.044438 0.000000
# 6 0.000000 0.000000 0.000000 0.000000 0.000000 -0.362375
#
#
# Mechanical properties :
#
#
# Convention : Reuss Voigt Hill
#
# Bulk Modulus (GPa) = 51.00582 53.43961 52.22272
# Shear Modulus (GPa) = -26.51858 19.11401 -3.70228
#
# Velocity S-wave (km/s) = -3.87159 3.28693 -1.44660
# Velocity P-wave (km/s) = 2.97399 6.67915 5.16990
#
# Compressibility (1/GPa) = 0.01960560
#
# Stress axis : x y z
#
# Youngs Moduli (GPa) = 81.45496 76.06879 46.53865
#
# Poissons Ratio (x) = 0.15897 0.17649
# Poissons Ratio (y) = 0.17023 0.36161
# Poissons Ratio (z) = 0.30890 0.59107
#
# Static dielectric constant tensor:
#      x y z
#    x 3.469750 0.000000 0.000000 
#    y 0.000000 3.816180 0.000000 
#    z 0.000000 0.000000 2.951720 
# 
# 
# High freq. dielectric constant tensor:
#      x y z
#    x 1.675620 0.000000 0.000000 
#    y 0.000000 1.699840 0.000000 
#    z 0.000000 0.000000 1.642780 
# 
# From -- ./inp_files/67150.got.cif
#   From: 2010.03.12/outbox.cif.g09.slc.cpg/sg74_34_cif.got.tgz:67150.got - 2010.04.16 15:46:19.
