data_PCOD8298230
_publ_section_title
;
Structure prediction by ZEFSAII (Michael W. Deem and Ramdas Pophale) SiO2 
 PCOD8298230
Probable space group: I M M A
;
_chemical_formula_sum "Si O2"
_cell_formula_units_Z 128
_cell_length_a 23.710796
_cell_length_b 27.151050
_cell_length_c 10.722685
_cell_angle_alpha 90.000000
_cell_angle_beta 90.000000
_cell_angle_gamma 90.000000
_cell_volume 6902.975173
_symmetry_space_group_name_H-M "I M M A"
_symmetry_group_IT_number 74
_symmetry_cell_setting 'orthorhombic'
loop_
_space_group_symop_operation_xyz
x,y,z
-x,1/2-y,z
x,-y,-z
-x,1/2+y,-z
-x,-y,-z
x,1/2+y,-z
-x,y,z
x,1/2-y,z
1/2+x,1/2+y,1/2+z
1/2-x,-y,1/2+z
1/2+x,1/2-y,1/2-z
1/2-x,y,1/2-z
1/2-x,1/2-y,1/2-z
1/2+x,y,1/2-z
1/2-x,1/2+y,1/2+z
1/2+x,-y,1/2+z
loop_
_atom_site_type_symbol
_atom_site_label
_atom_site_fract_x
_atom_site_fract_y
_atom_site_fract_z
Si Si1 0.664234 0.305907 0.997146
Si Si2 0.933007 0.473143 0.121725
Si Si3 0.284042 0.192468 0.521746
Si Si4 0.098973 0.191886 0.871708
Si Si5 0.342808 0.305511 0.278751
Si Si6 0.933710 0.023401 0.627511
Si Si7 0.434916 0.138094 0.876938
Si Si8 0.936374 0.138315 0.117955
O O1 0.649791 0.250000 0.953687
O O2 0.722100 0.327375 0.933225
O O3 0.683101 0.307131 0.141913
O O4 0.609218 0.338817 0.974519
O O5 0.908035 0.496393 0.250014
O O6 0.913618 0.417061 0.106212
O O7 0.000000 0.478940 0.122628
O O8 0.907595 0.500000 0.000000
O O9 0.273757 0.250000 0.504418
O O10 0.333278 0.181923 0.622711
O O11 0.302817 0.170814 0.386069
O O12 0.086005 0.250000 0.867957
O O13 0.072912 0.165876 0.752629
O O14 0.068487 0.167732 0.989050
O O15 0.356988 0.250000 0.320740
O O16 0.401368 0.335027 0.274245
O O17 0.919338 0.080983 0.636811
O O18 0.000000 0.014363 0.626410
O O19 0.907849 0.000000 0.500000
O O20 0.500000 0.144623 0.922141
O O21 0.000000 0.137842 0.165184
#
# Coordination Sequence:
#
# PCOD8298230 Si02
#       8
#    16  16  16  16  16  16  16  16
#     4  10  20  33  51  75 104 139 173 210 256 307
#     4   9  17  30  49  72  98 129 174 229 271 304
#     4   8  16  33  54  74  97 130 179 226 253 288
#     4  10  20  34  52  76 108 145 179 212 255 309
#     4   9  18  31  48  73 104 135 170 213 259 306
#     4   9  19  35  53  71  99 141 182 221 264 313
#     4  11  23  35  50  75 109 142 174 205 256 327
#     4  10  19  29  48  75 105 136 172 213 261 318
#
# _framework density 18.542729000000001
#
# number of rings (size 3 to 8) (size 9 to 14) (size 15 to 20)
#    0.000    2.500    0.000    3.000    1.750    7.000 
#    0.000    3.125    0.000    0.000    0.000   10.500 
#    0.000    0.000    0.000    0.000    0.000    0.000 
#
# Total GULP energy -793069.324937 kJ/mol
# GULP energy per Si atom -12391.708202 kJ/mol
# Density = 1.850053 g / cm^3
# Si number density = 18.542729 Si / 1000 Ang^3
#
#
#
# Elastic Constant Matrix: (Units=GPa)
#
#
# Indices 1 2 3 4 5 6 
#
# 1 90.7586 36.2223 7.8820 0.0000 0.0000 0.0000
# 2 36.2223 111.2143 36.0775 0.0000 0.0000 0.0000
# 3 7.8820 36.0775 71.6137 0.0000 0.0000 0.0000
# 4 0.0000 0.0000 0.0000 21.8555 0.0000 0.0000
# 5 0.0000 0.0000 0.0000 0.0000 16.1829 0.0000
# 6 0.0000 0.0000 0.0000 0.0000 0.0000 2.0400
#
#
#
# Elastic Compliance Matrix: (Units=1/GPa)
#
#
# Indices 1 2 3 4 5 6 
#
# 1 0.012705 -0.004404 0.000820 0.000000 0.000000 0.000000
# 2 -0.004404 0.012275 -0.005699 0.000000 0.000000 0.000000
# 3 0.000820 -0.005699 0.016745 0.000000 0.000000 0.000000
# 4 0.000000 0.000000 0.000000 0.045755 0.000000 0.000000
# 5 0.000000 0.000000 0.000000 0.000000 0.061794 0.000000
# 6 0.000000 0.000000 0.000000 0.000000 0.000000 0.490204
#
#
# Mechanical properties :
#
#
# Convention : Reuss Voigt Hill
#
# Bulk Modulus (GPa) = 43.18055 48.21669 45.69862
# Shear Modulus (GPa) = 7.51019 20.90932 14.20975
#
# Velocity S-wave (km/s) = 2.01470 3.36166 2.77126
# Velocity P-wave (km/s) = 5.36187 6.41305 5.91087
#
# Compressibility (1/GPa) = 0.02315858
#
# Stress axis : x y z
#
# Youngs Moduli (GPa) = 78.71122 81.46787 59.72074
#
# Poissons Ratio (x) = 0.35878 -0.04899
# Poissons Ratio (y) = 0.34664 0.34035
# Poissons Ratio (z) = -0.06457 0.46429
#
# Static dielectric constant tensor:
#      x y z
#    x 3.358440 0.000000 0.000000 
#    y 0.000000 3.348900 0.000000 
#    z 0.000000 0.000000 3.484570 
# 
# 
# High freq. dielectric constant tensor:
#      x y z
#    x 1.695760 0.000000 0.000000 
#    y 0.000000 1.701920 0.000000 
#    z 0.000000 0.000000 1.721950 
# 
# From -- ./inp_files/25572.got.cif
#   From: 2010.03.12/outbox.cif.g09.slc.cpg/sg74_13_cif.got.tgz:25572.got - 2010.04.16 15:46:19.
