data_PCOD8298360
_publ_section_title
;
Structure prediction by ZEFSAII (Michael W. Deem and Ramdas Pophale) SiO2 
 PCOD8298360
Probable space group: I M M A
;
_chemical_formula_sum "Si O2"
_cell_formula_units_Z 72
_cell_length_a 22.438344
_cell_length_b 13.796875
_cell_length_c 13.143815
_cell_angle_alpha 90.000000
_cell_angle_beta 90.000000
_cell_angle_gamma 90.000000
_cell_volume 4069.049464
_symmetry_space_group_name_H-M "I M M A"
_symmetry_group_IT_number 74
_symmetry_cell_setting 'orthorhombic'
loop_
_space_group_symop_operation_xyz
x,y,z
-x,1/2-y,z
x,-y,-z
-x,1/2+y,-z
-x,-y,-z
x,1/2+y,-z
-x,y,z
x,1/2-y,z
1/2+x,1/2+y,1/2+z
1/2-x,-y,1/2+z
1/2+x,1/2-y,1/2-z
1/2-x,y,1/2-z
1/2-x,1/2-y,1/2-z
1/2+x,y,1/2-z
1/2-x,1/2+y,1/2+z
1/2+x,-y,1/2+z
loop_
_atom_site_type_symbol
_atom_site_label
_atom_site_fract_x
_atom_site_fract_y
_atom_site_fract_z
Si Si1 0.930739 0.860417 0.131946
Si Si2 0.934941 0.135690 0.641910
Si Si3 0.353672 0.500000 0.500000
Si Si4 0.814543 0.136861 0.541373
Si Si5 0.752810 0.537215 0.633318
O O1 0.908732 0.750000 0.125689
O O2 0.000000 0.868910 0.104779
O O3 0.894294 0.918274 0.048569
O O4 0.918708 0.903851 0.245177
O O5 0.940539 0.250000 0.653454
O O6 0.883675 0.108519 0.561384
O O7 0.000000 0.094777 0.606418
O O8 0.312619 0.449310 0.414302
O O9 0.802240 0.250000 0.561208
O O10 0.799485 0.107459 0.425267
O O11 0.773221 0.074811 0.618391
O O12 0.750000 0.567566 0.750000
#
# Coordination Sequence:
#
# PCOD8298360 Si02
#       5
#    16  16   8  16  16
#     4   9  17  29  47  73  99 120 151 196 241 286
#     4   8  14  27  50  76  97 119 151 195 244 288
#     4  10  19  30  50  68  91 130 162 192 234 284
#     4   9  18  33  52  72  97 128 161 199 241 286
#     4  10  22  35  47  71 101 128 166 206 237 280
#
# _framework density 17.694551000000001
#
# number of rings (size 3 to 8) (size 9 to 14) (size 15 to 20)
#    0.000    3.111    0.000    3.000    0.000    4.444 
#    0.000    2.222    0.000    2.667    0.000    3.111 
#    0.000    0.000    0.000    0.000    0.000    0.000 
#
# Total GULP energy -446171.603367 kJ/mol
# GULP energy per Si atom -12393.655649 kJ/mol
# Density = 1.765428 g / cm^3
# Si number density = 17.694551 Si / 1000 Ang^3
#
#
#
# Elastic Constant Matrix: (Units=GPa)
#
#
# Indices 1 2 3 4 5 6 
#
# 1 111.1560 44.8038 69.8015 0.0000 0.0000 0.0000
# 2 44.8038 64.6699 24.1932 0.0000 0.0000 0.0000
# 3 69.8015 24.1932 123.4576 0.0000 0.0000 0.0000
# 4 0.0000 0.0000 0.0000 18.3754 0.0000 0.0000
# 5 0.0000 0.0000 0.0000 0.0000 28.3177 0.0000
# 6 0.0000 0.0000 0.0000 0.0000 0.0000 25.5232
#
#
#
# Elastic Compliance Matrix: (Units=1/GPa)
#
#
# Indices 1 2 3 4 5 6 
#
# 1 0.018010 -0.009354 -0.008350 0.000000 0.000000 0.000000
# 2 -0.009354 0.021544 0.001067 0.000000 0.000000 0.000000
# 3 -0.008350 0.001067 0.012612 0.000000 0.000000 0.000000
# 4 0.000000 0.000000 0.000000 0.054421 0.000000 0.000000
# 5 0.000000 0.000000 0.000000 0.000000 0.035314 0.000000
# 6 0.000000 0.000000 0.000000 0.000000 0.000000 0.039180
#
#
# Mechanical properties :
#
#
# Convention : Reuss Voigt Hill
#
# Bulk Modulus (GPa) = 52.93103 64.09786 58.51445
# Shear Modulus (GPa) = 22.66024 25.14227 23.90125
#
# Velocity S-wave (km/s) = 3.58248 3.77358 3.67927
# Velocity P-wave (km/s) = 6.86228 7.43571 7.15474
#
# Compressibility (1/GPa) = 0.01889251
#
# Stress axis : x y z
#
# Youngs Moduli (GPa) = 55.52557 46.41568 79.29167
#
# Poissons Ratio (x) = 0.43416 0.66205
# Poissons Ratio (y) = 0.51937 -0.08457
# Poissons Ratio (z) = 0.46361 -0.04950
#
# Static dielectric constant tensor:
#      x y z
#    x 3.544100 0.000000 0.000000 
#    y 0.000000 3.017590 0.000000 
#    z 0.000000 0.000000 3.183060 
# 
# 
# High freq. dielectric constant tensor:
#      x y z
#    x 1.697100 0.000000 0.000000 
#    y 0.000000 1.656300 0.000000 
#    z 0.000000 0.000000 1.671660 
# 
# From -- ./inp_files/24805.got.cif
#   From: 2010.03.12/outbox.cif.g09.slc.cpg/sg74_13_cif.got.tgz:24805.got - 2010.04.16 15:46:19.
