data_PCOD8298863
_publ_section_title
;
Structure prediction by ZEFSAII (Michael W. Deem and Ramdas Pophale) SiO2 
 PCOD8298863
Probable space group: I M M A
;
_chemical_formula_sum "Si O2"
_cell_formula_units_Z 88
_cell_length_a 14.817845
_cell_length_b 11.180857
_cell_length_c 29.867779
_cell_angle_alpha 90.000000
_cell_angle_beta 90.000000
_cell_angle_gamma 90.000000
_cell_volume 4948.380306
_symmetry_space_group_name_H-M "I M M A"
_symmetry_group_IT_number 74
_symmetry_cell_setting 'orthorhombic'
loop_
_space_group_symop_operation_xyz
x,y,z
-x,1/2-y,z
x,-y,-z
-x,1/2+y,-z
-x,-y,-z
x,1/2+y,-z
-x,y,z
x,1/2-y,z
1/2+x,1/2+y,1/2+z
1/2-x,-y,1/2+z
1/2+x,1/2-y,1/2-z
1/2-x,y,1/2-z
1/2-x,1/2-y,1/2-z
1/2+x,y,1/2-z
1/2-x,1/2+y,1/2+z
1/2+x,-y,1/2+z
loop_
_atom_site_type_symbol
_atom_site_label
_atom_site_fract_x
_atom_site_fract_y
_atom_site_fract_z
Si Si1 0.243874 0.609253 0.364742
Si Si2 0.500000 0.386088 0.967175
Si Si3 0.106654 0.508287 0.295708
Si Si4 0.398991 0.891181 0.299049
Si Si5 0.393686 0.250000 0.179892
Si Si6 0.606588 0.250000 0.080660
Si Si7 0.174839 0.500319 0.550544
O O1 0.246971 0.750000 0.374065
O O2 0.155179 0.577528 0.336092
O O3 0.332620 0.565145 0.338112
O O4 0.247438 0.537512 0.411964
O O5 0.500000 0.250000 0.987814
O O6 0.407197 0.405459 0.940067
O O7 0.500000 0.500000 0.000000
O O8 0.137103 0.560556 0.248255
O O9 0.137259 0.369439 0.294544
O O10 0.000000 0.524162 0.303939
O O11 0.500000 0.939334 0.309238
O O12 0.398516 0.750000 0.295383
O O13 0.500000 0.250000 0.175183
O O14 0.351013 0.250000 0.130323
O O15 0.500000 0.250000 0.082933
O O16 0.640276 0.365327 0.054691
O O17 0.215213 0.500000 0.500000
#
# Coordination Sequence:
#
# PCOD8298863 Si02
#       7
#    16   8  16  16   8   8  16
#     4  11  22  35  52  79 108 136 174 222 267 315
#     4  10  22  34  50  76 106 146 186 218 264 318
#     4  10  19  33  52  79 109 142 172 208 254 317
#     4   9  19  37  59  78 100 133 174 220 273 322
#     4   9  18  32  48  72 106 146 182 201 241 306
#     4  11  20  36  51  71 105 157 187 215 249 314
#     4  11  24  34  53  74 109 142 185 222 266 310
#
# _framework density 17.783597
#
# number of rings (size 3 to 8) (size 9 to 14) (size 15 to 20)
#    0.000    1.818    2.727    1.636    7.636    2.545 
#    0.000    2.727    0.000    0.545    0.000    0.000 
#    0.000    0.000    0.000    0.000    0.000    0.000 
#
# Total GULP energy -545388.570756 kJ/mol
# GULP energy per Si atom -12395.194790 kJ/mol
# Density = 1.774312 g / cm^3
# Si number density = 17.783597 Si / 1000 Ang^3
#
#
#
# Elastic Constant Matrix: (Units=GPa)
#
#
# Indices 1 2 3 4 5 6 
#
# 1 54.0229 21.0146 49.3889 0.0000 0.0000 0.0000
# 2 21.0146 76.7668 32.6221 0.0000 0.0000 0.0000
# 3 49.3889 32.6221 141.1307 0.0000 0.0000 0.0000
# 4 0.0000 0.0000 0.0000 40.3146 0.0000 0.0000
# 5 0.0000 0.0000 0.0000 0.0000 23.0139 0.0000
# 6 0.0000 0.0000 0.0000 0.0000 0.0000 14.9679
#
#
#
# Elastic Compliance Matrix: (Units=1/GPa)
#
#
# Indices 1 2 3 4 5 6 
#
# 1 0.028242 -0.003916 -0.008978 0.000000 0.000000 0.000000
# 2 -0.003916 0.014988 -0.002094 0.000000 0.000000 0.000000
# 3 -0.008978 -0.002094 0.010712 0.000000 0.000000 0.000000
# 4 0.000000 0.000000 0.000000 0.024805 0.000000 0.000000
# 5 0.000000 0.000000 0.000000 0.000000 0.043452 0.000000
# 6 0.000000 0.000000 0.000000 0.000000 0.000000 0.066810
#
#
# Mechanical properties :
#
#
# Convention : Reuss Voigt Hill
#
# Bulk Modulus (GPa) = 41.72657 53.10797 47.41727
# Shear Modulus (GPa) = 22.02900 26.91891 24.47396
#
# Velocity S-wave (km/s) = 3.52337 3.89484 3.71375
# Velocity P-wave (km/s) = 6.32982 7.08200 6.71645
#
# Compressibility (1/GPa) = 0.02396554
#
# Stress axis : x y z
#
# Youngs Moduli (GPa) = 35.40832 66.71861 93.35651
#
# Poissons Ratio (x) = 0.26126 0.83817
# Poissons Ratio (y) = 0.13865 0.19551
# Poissons Ratio (z) = 0.31790 0.13972
#
# Static dielectric constant tensor:
#      x y z
#    x 3.411620 0.000000 0.000000 
#    y 0.000000 3.453830 0.000000 
#    z 0.000000 0.000000 3.362290 
# 
# 
# High freq. dielectric constant tensor:
#      x y z
#    x 1.646360 0.000000 0.000000 
#    y 0.000000 1.697410 0.000000 
#    z 0.000000 0.000000 1.688810 
# 
# From -- ./inp_files/72406.got.cif
#   From: 2010.03.12/outbox.cif.g09.slc.cpg/sg74_37_cif.got.tgz:72406.got - 2010.04.16 15:46:19.
