data_PCOD8298878
_publ_section_title
;
Structure prediction by ZEFSAII (Michael W. Deem and Ramdas Pophale) SiO2 
 PCOD8298878
Probable space group: I M M A
;
_chemical_formula_sum "Si O2"
_cell_formula_units_Z 80
_cell_length_a 9.266542
_cell_length_b 16.697213
_cell_length_c 27.822708
_cell_angle_alpha 90.000000
_cell_angle_beta 90.000000
_cell_angle_gamma 90.000000
_cell_volume 4304.880335
_symmetry_space_group_name_H-M "I M M A"
_symmetry_group_IT_number 74
_symmetry_cell_setting 'orthorhombic'
loop_
_space_group_symop_operation_xyz
x,y,z
-x,1/2-y,z
x,-y,-z
-x,1/2+y,-z
-x,-y,-z
x,1/2+y,-z
-x,y,z
x,1/2-y,z
1/2+x,1/2+y,1/2+z
1/2-x,-y,1/2+z
1/2+x,1/2-y,1/2-z
1/2-x,y,1/2-z
1/2-x,1/2-y,1/2-z
1/2+x,y,1/2-z
1/2-x,1/2+y,1/2+z
1/2+x,-y,1/2+z
loop_
_atom_site_type_symbol
_atom_site_label
_atom_site_fract_x
_atom_site_fract_y
_atom_site_fract_z
Si Si1 0.672390 0.601876 0.967498
Si Si2 0.834377 0.000860 0.895313
Si Si3 0.335532 0.341070 0.559431
Si Si4 0.336919 0.571610 0.705090
Si Si5 0.668170 0.750000 0.908877
Si Si6 0.342516 0.750000 0.681323
O O1 0.500000 0.590937 0.969488
O O2 0.742833 0.524237 0.942710
O O3 0.731508 0.672157 0.933716
O O4 0.728714 0.622913 0.019945
O O5 0.823433 0.098438 0.894650
O O6 0.000000 0.972797 0.902031
O O7 0.772866 0.961634 0.845749
O O8 0.500000 0.341925 0.539945
O O9 0.290743 0.250000 0.573973
O O10 0.500000 0.540579 0.709405
O O11 0.250000 0.534373 0.750000
O O12 0.329332 0.668163 0.711305
O O13 0.500000 0.750000 0.915216
O O14 0.708916 0.750000 0.853937
O O15 0.500000 0.750000 0.655132
#
# Coordination Sequence:
#
# PCOD8298878 Si02
#       6
#    16  16  16  16   8   8
#     4  11  21  34  52  78 110 143 176 211 253 301
#     4  10  21  37  55  77 104 136 176 217 257 307
#     4  10  21  36  55  77 103 138 177 216 258 305
#     4  10  21  35  53  76 102 132 169 212 257 307
#     4  10  20  31  47  74 109 144 173 205 246 295
#     4  10  19  33  53  76 102 138 174 207 249 297
#
# _framework density 18.583559999999999
#
# number of rings (size 3 to 8) (size 9 to 14) (size 15 to 20)
#    0.000    1.800    3.000    1.500    0.000    5.600 
#    0.000    0.000    0.000    0.600    0.000    0.000 
#    0.000    0.000    0.000    0.000    0.000    0.000 
#
# Total GULP energy -495600.261581 kJ/mol
# GULP energy per Si atom -12390.006540 kJ/mol
# Density = 1.854126 g / cm^3
# Si number density = 18.583560 Si / 1000 Ang^3
#
#
#
# Elastic Constant Matrix: (Units=GPa)
#
#
# Indices 1 2 3 4 5 6 
#
# 1 53.6662 31.0413 30.9770 0.0000 0.0000 0.0000
# 2 31.0413 113.7540 39.0638 0.0000 0.0000 0.0000
# 3 30.9770 39.0638 64.6954 0.0000 0.0000 0.0000
# 4 0.0000 0.0000 0.0000 16.9802 0.0000 0.0000
# 5 0.0000 0.0000 0.0000 0.0000 29.3039 0.0000
# 6 0.0000 0.0000 0.0000 0.0000 0.0000 13.4264
#
#
#
# Elastic Compliance Matrix: (Units=1/GPa)
#
#
# Indices 1 2 3 4 5 6 
#
# 1 0.026921 -0.003683 -0.010666 0.000000 0.000000 0.000000
# 2 -0.003683 0.011595 -0.005237 0.000000 0.000000 0.000000
# 3 -0.010666 -0.005237 0.023726 0.000000 0.000000 0.000000
# 4 0.000000 0.000000 0.000000 0.058892 0.000000 0.000000
# 5 0.000000 0.000000 0.000000 0.000000 0.034125 0.000000
# 6 0.000000 0.000000 0.000000 0.000000 0.000000 0.074480
#
#
# Mechanical properties :
#
#
# Convention : Reuss Voigt Hill
#
# Bulk Modulus (GPa) = 43.34920 48.25330 45.80125
# Shear Modulus (GPa) = 18.07654 20.67767 19.37710
#
# Velocity S-wave (km/s) = 3.12222 3.33931 3.23259
# Velocity P-wave (km/s) = 6.03117 6.39453 6.21550
#
# Compressibility (1/GPa) = 0.02306848
#
# Stress axis : x y z
#
# Youngs Moduli (GPa) = 37.14595 86.24755 42.14724
#
# Poissons Ratio (x) = 0.31769 0.44954
# Poissons Ratio (y) = 0.13682 0.22073
# Poissons Ratio (z) = 0.39620 0.45170
#
# Static dielectric constant tensor:
#      x y z
#    x 3.341490 0.000000 0.000000 
#    y 0.000000 2.954490 0.000000 
#    z 0.000000 0.000000 3.146760 
# 
# 
# High freq. dielectric constant tensor:
#      x y z
#    x 1.718170 0.000000 0.000000 
#    y 0.000000 1.722490 0.000000 
#    z 0.000000 0.000000 1.692740 
# 
# From -- ./inp_files/63983.got.cif
#   From: 2010.03.12/outbox.cif.g09.slc.cpg/sg74_32_cif.got.tgz:63983.got - 2010.04.16 15:46:19.
