data_PCOD8298948
_publ_section_title
;
Structure prediction by ZEFSAII (Michael W. Deem and Ramdas Pophale) SiO2 
 PCOD8298948
Probable space group: I M M A
;
_chemical_formula_sum "Si O2"
_cell_formula_units_Z 96
_cell_length_a 23.919024
_cell_length_b 17.650560
_cell_length_c 12.583425
_cell_angle_alpha 90.000000
_cell_angle_beta 90.000000
_cell_angle_gamma 90.000000
_cell_volume 5312.522817
_symmetry_space_group_name_H-M "I M M A"
_symmetry_group_IT_number 74
_symmetry_cell_setting 'orthorhombic'
loop_
_space_group_symop_operation_xyz
x,y,z
-x,1/2-y,z
x,-y,-z
-x,1/2+y,-z
-x,-y,-z
x,1/2+y,-z
-x,y,z
x,1/2-y,z
1/2+x,1/2+y,1/2+z
1/2-x,-y,1/2+z
1/2+x,1/2-y,1/2-z
1/2-x,y,1/2-z
1/2-x,1/2-y,1/2-z
1/2+x,y,1/2-z
1/2-x,1/2+y,1/2+z
1/2+x,-y,1/2+z
loop_
_atom_site_type_symbol
_atom_site_label
_atom_site_fract_x
_atom_site_fract_y
_atom_site_fract_z
Si Si1 0.738381 0.898396 0.132046
Si Si2 0.343665 0.663697 0.962577
Si Si3 0.937333 0.835527 0.184437
Si Si4 0.142513 0.543521 0.102020
Si Si5 0.350985 0.476652 0.173488
Si Si6 0.436542 0.587814 0.089391
O O1 0.750000 0.862022 0.250000
O O2 0.796235 0.923200 0.079825
O O3 0.702087 0.973460 0.143915
O O4 0.704722 0.842842 0.053011
O O5 0.344323 0.750000 0.921885
O O6 0.334650 0.608766 0.860577
O O7 0.404361 0.641255 0.006937
O O8 0.914750 0.750000 0.182885
O O9 0.897595 0.884908 0.111599
O O10 0.935166 0.865334 0.303110
O O11 0.000000 0.840258 0.138889
O O12 0.138481 0.485029 0.200831
O O13 0.120728 0.500000 0.000000
O O14 0.405066 0.506945 0.107038
O O15 0.500000 0.572427 0.051181
#
# Coordination Sequence:
#
# PCOD8298948 Si02
#       6
#    16  16  16  16  16  16
#     4   9  18  33  53  73  96 128 167 207 242 280
#     4  11  21  31  47  74 108 137 158 193 248 301
#     4   9  18  32  49  73 102 124 151 203 261 297
#     4  10  19  33  55  74  90 125 174 212 241 289
#     4   9  19  34  49  70 100 132 164 202 249 293
#     4   9  17  31  52  73  95 129 169 202 236 288
#
# _framework density 18.070512000000001
#
# number of rings (size 3 to 8) (size 9 to 14) (size 15 to 20)
#    0.000    2.500    0.000    4.500    0.000    3.667 
#    0.000    0.833    0.000    9.500    0.000    0.000 
#    0.000    0.000    0.000    0.000    0.000    0.000 
#
# Total GULP energy -595032.273233 kJ/mol
# GULP energy per Si atom -12396.505692 kJ/mol
# Density = 1.802938 g / cm^3
# Si number density = 18.070512 Si / 1000 Ang^3
#
#
#
# Elastic Constant Matrix: (Units=GPa)
#
#
# Indices 1 2 3 4 5 6 
#
# 1 85.9056 30.8908 21.5060 0.0000 0.0000 0.0000
# 2 30.8908 132.5736 47.5062 0.0000 0.0000 0.0000
# 3 21.5060 47.5062 59.3116 0.0000 0.0000 0.0000
# 4 0.0000 0.0000 0.0000 18.0297 0.0000 0.0000
# 5 0.0000 0.0000 0.0000 0.0000 12.4654 0.0000
# 6 0.0000 0.0000 0.0000 0.0000 0.0000 9.6782
#
#
#
# Elastic Compliance Matrix: (Units=1/GPa)
#
#
# Indices 1 2 3 4 5 6 
#
# 1 0.013135 -0.001899 -0.003242 0.000000 0.000000 0.000000
# 2 -0.001899 0.010854 -0.008005 0.000000 0.000000 0.000000
# 3 -0.003242 -0.008005 0.024447 0.000000 0.000000 0.000000
# 4 0.000000 0.000000 0.000000 0.055464 0.000000 0.000000
# 5 0.000000 0.000000 0.000000 0.000000 0.080222 0.000000
# 6 0.000000 0.000000 0.000000 0.000000 0.000000 0.103325
#
#
# Mechanical properties :
#
#
# Convention : Reuss Voigt Hill
#
# Bulk Modulus (GPa) = 45.15716 53.06630 49.11173
# Shear Modulus (GPa) = 15.57050 19.89387 17.73218
#
# Velocity S-wave (km/s) = 2.93858 3.32158 3.13593
# Velocity P-wave (km/s) = 6.04626 6.64384 6.35208
#
# Compressibility (1/GPa) = 0.02214488
#
# Stress axis : x y z
#
# Youngs Moduli (GPa) = 76.13211 92.13215 40.90441
#
# Poissons Ratio (x) = 0.17496 0.13260
# Poissons Ratio (y) = 0.14457 0.32744
# Poissons Ratio (z) = 0.24680 0.73752
#
# Static dielectric constant tensor:
#      x y z
#    x 3.705880 0.000000 0.000000 
#    y 0.000000 3.211720 0.000000 
#    z 0.000000 0.000000 3.334420 
# 
# 
# High freq. dielectric constant tensor:
#      x y z
#    x 1.710300 0.000000 0.000000 
#    y 0.000000 1.682730 0.000000 
#    z 0.000000 0.000000 1.679320 
# 
# From -- ./inp_files/25189.got.cif
#   From: 2010.03.12/outbox.cif.g09.slc.cpg/sg74_13_cif.got.tgz:25189.got - 2010.04.16 15:46:19.
