data_PCOD8298432
_publ_section_title
;
Structure prediction by ZEFSAII (Michael W. Deem and Ramdas Pophale) SiO2 
 PCOD8298432
Probable space group: I M M A
;
_chemical_formula_sum "Si O2"
_cell_formula_units_Z 120
_cell_length_a 8.710344
_cell_length_b 28.387509
_cell_length_c 27.498633
_cell_angle_alpha 90.000000
_cell_angle_beta 90.000000
_cell_angle_gamma 90.000000
_cell_volume 6799.448628
_symmetry_space_group_name_H-M "I M M A"
_symmetry_group_IT_number 74
_symmetry_cell_setting 'orthorhombic'
loop_
_space_group_symop_operation_xyz
x,y,z
-x,1/2-y,z
x,-y,-z
-x,1/2+y,-z
-x,-y,-z
x,1/2+y,-z
-x,y,z
x,1/2-y,z
1/2+x,1/2+y,1/2+z
1/2-x,-y,1/2+z
1/2+x,1/2-y,1/2-z
1/2-x,y,1/2-z
1/2-x,1/2-y,1/2-z
1/2+x,y,1/2-z
1/2-x,1/2+y,1/2+z
1/2+x,-y,1/2+z
loop_
_atom_site_type_symbol
_atom_site_label
_atom_site_fract_x
_atom_site_fract_y
_atom_site_fract_z
Si Si1 0.820890 0.195100 0.547044
Si Si2 0.177217 0.043487 0.942652
Si Si3 0.323017 0.110608 0.020124
Si Si4 0.677053 0.526542 0.800767
Si Si5 0.678649 0.055532 0.400720
Si Si6 0.177231 0.070434 0.654361
Si Si7 0.818036 0.250000 0.697630
Si Si8 0.181028 0.162814 0.855486
O O1 0.771632 0.250000 0.539007
O O2 0.789599 0.163872 0.498667
O O3 0.720483 0.168404 0.587523
O O4 0.000000 0.192578 0.561784
O O5 0.206345 0.065874 0.890430
O O6 0.000000 0.049459 0.957824
O O7 0.221700 0.988298 0.936508
O O8 0.280034 0.070145 0.981615
O O9 0.500000 0.104291 0.032360
O O10 0.231383 0.102391 0.070596
O O11 0.500000 0.539172 0.798008
O O12 0.750000 0.543714 0.750000
O O13 0.742686 0.553125 0.847917
O O14 0.706234 0.470405 0.806274
O O15 0.500000 0.056711 0.390006
O O16 0.230310 0.121048 0.673653
O O17 0.000000 0.069912 0.637177
O O18 0.750000 0.250000 0.750000
O O19 0.751387 0.292917 0.669303
O O20 0.000000 0.250000 0.697935
O O21 0.000000 0.158271 0.847931
#
# Coordination Sequence:
#
# PCOD8298432 Si02
#       8
#    16  16  16  16  16  16   8  16
#     4  10  21  37  56  77 105 142 179 220 271 325
#     4  10  19  31  48  73 104 137 173 215 259 310
#     4  11  21  32  51  77 106 139 177 217 264 319
#     4  10  21  37  57  78 104 138 178 218 261 311
#     4  10  21  35  51  74 107 142 176 215 263 312
#     4  10  20  34  52  75 102 136 174 216 262 310
#     4  12  26  44  60  74  96 124 166 224 281 330
#     4  12  23  36  56  79 102 131 172 219 271 327
#
# _framework density 17.648489999999999
#
# number of rings (size 3 to 8) (size 9 to 14) (size 15 to 20)
#    0.000    1.467    2.000    4.200    0.000    5.867 
#    0.000    1.333    0.000    0.000    0.000    0.000 
#    0.000    0.533    0.000    1.467    0.000    2.133 
#
# Total GULP energy -743734.019540 kJ/mol
# GULP energy per Si atom -12395.566992 kJ/mol
# Density = 1.760832 g / cm^3
# Si number density = 17.648490 Si / 1000 Ang^3
#
#
#
# Elastic Constant Matrix: (Units=GPa)
#
#
# Indices 1 2 3 4 5 6 
#
# 1 75.2717 23.9869 39.1843 0.0001 0.0000 0.0000
# 2 23.9869 38.6859 34.8187 0.0006 0.0000 0.0000
# 3 39.1843 34.8187 67.9006 0.0013 0.0000 0.0000
# 4 0.0001 0.0006 0.0013 833.1923 0.0000 0.0000
# 5 0.0000 0.0000 0.0000 0.0000 31.4483 0.0000
# 6 0.0000 0.0000 0.0000 0.0000 0.0000 20.7747
#
#
#
# Elastic Compliance Matrix: (Units=1/GPa)
#
#
# Indices 1 2 3 4 5 6 
#
# 1 0.019256 -0.003599 -0.009267 0.000000 0.000000 0.000000
# 2 -0.003599 0.048678 -0.022884 0.000000 0.000000 0.000000
# 3 -0.009267 -0.022884 0.031810 0.000000 0.000000 0.000000
# 4 0.000000 0.000000 0.000000 0.001200 0.000000 0.000000
# 5 0.000000 0.000000 0.000000 0.000000 0.031798 0.000000
# 6 0.000000 0.000000 0.000000 0.000000 0.000000 0.048135
#
#
# Mechanical properties :
#
#
# Convention : Reuss Voigt Hill
#
# Bulk Modulus (GPa) = 35.40687 41.98199 38.69443
# Shear Modulus (GPa) = 19.09910 182.67427 100.88668
#
# Velocity S-wave (km/s) = 3.29324 10.18488 7.56892
# Velocity P-wave (km/s) = 5.87932 12.73375 9.91753
#
# Compressibility (1/GPa) = 0.02824310
#
# Stress axis : x y z
#
# Youngs Moduli (GPa) = 51.93127 20.54335 31.43674
#
# Poissons Ratio (x) = 0.07394 0.29132
# Poissons Ratio (y) = 0.18691 0.71941
# Poissons Ratio (z) = 0.48124 0.47012
#
# Static dielectric constant tensor:
#      x y z
#    x 3.335380 0.000000 0.000000 
#    y 0.000000 3.379640 0.000000 
#    z 0.000000 0.000000 3.194680 
# 
# 
# High freq. dielectric constant tensor:
#      x y z
#    x 1.696880 0.000000 0.000000 
#    y 0.000000 1.661890 0.000000 
#    z 0.000000 0.000000 1.663810 
# 
# From -- ./inp_files/65103.got.cif
#   From: 2010.03.12/outbox.cif.g09.slc.cpg/sg74_33_cif.got.tgz:65103.got - 2010.04.16 15:46:19.
