data_PCOD8298288
_publ_section_title
;
Structure prediction by ZEFSAII (Michael W. Deem and Ramdas Pophale) SiO2 
 PCOD8298288
Probable space group: I M M A
;
_chemical_formula_sum "Si O2"
_cell_formula_units_Z 80
_cell_length_a 8.958424
_cell_length_b 18.679800
_cell_length_c 27.276019
_cell_angle_alpha 90.000000
_cell_angle_beta 90.000000
_cell_angle_gamma 90.000000
_cell_volume 4564.411806
_symmetry_space_group_name_H-M "I M M A"
_symmetry_group_IT_number 74
_symmetry_cell_setting 'orthorhombic'
loop_
_space_group_symop_operation_xyz
x,y,z
-x,1/2-y,z
x,-y,-z
-x,1/2+y,-z
-x,-y,-z
x,1/2+y,-z
-x,y,z
x,1/2-y,z
1/2+x,1/2+y,1/2+z
1/2-x,-y,1/2+z
1/2+x,1/2-y,1/2-z
1/2-x,y,1/2-z
1/2-x,1/2-y,1/2-z
1/2+x,y,1/2-z
1/2-x,1/2+y,1/2+z
1/2+x,-y,1/2+z
loop_
_atom_site_type_symbol
_atom_site_label
_atom_site_fract_x
_atom_site_fract_y
_atom_site_fract_z
Si Si1 0.174780 0.467314 0.145123
Si Si2 0.324127 0.828550 0.101610
Si Si3 0.823054 0.907236 0.300493
Si Si4 0.673122 0.829141 0.700576
Si Si5 0.676420 0.528431 0.052983
O O1 0.258254 0.515397 0.185438
O O2 0.208077 0.384566 0.157230
O O3 0.239689 0.478182 0.091186
O O4 0.000000 0.485860 0.146381
O O5 0.500000 0.821978 0.098905
O O6 0.253013 0.750000 0.089975
O O7 0.277499 0.852035 0.156464
O O8 0.272250 0.888771 0.062083
O O9 0.750000 0.879882 0.250000
O O10 0.000000 0.913086 0.294225
O O11 0.500000 0.827210 0.712491
O O12 0.730712 0.750000 0.684827
O O13 0.750000 0.855958 0.750000
O O14 0.500000 0.521081 0.061623
O O15 0.724910 0.500000 0.000000
#
# Coordination Sequence:
#
# PCOD8298288 Si02
#       5
#    16  16  16  16  16
#     4  10  19  31  49  70  93 123 158 196 235 278
#     4   8  15  29  48  68  92 124 158 191 229 273
#     4  10  19  30  46  69  97 127 159 194 230 273
#     4   9  18  31  46  66  93 125 158 191 229 273
#     4   9  18  33  52  72  94 120 153 195 239 281
#
# _framework density 17.526902
#
# number of rings (size 3 to 8) (size 9 to 14) (size 15 to 20)
#    0.000    2.800    0.000    3.000    0.000    4.000 
#    0.000    1.000    0.000   15.600    0.000    0.000 
#    0.000    0.000    0.000    0.000    0.000    0.000 
#
# Total GULP energy -495807.419743 kJ/mol
# GULP energy per Si atom -12395.185494 kJ/mol
# Density = 1.748701 g / cm^3
# Si number density = 17.526902 Si / 1000 Ang^3
#
#
#
# Elastic Constant Matrix: (Units=GPa)
#
#
# Indices 1 2 3 4 5 6 
#
# 1 46.9523 36.4580 33.6879 0.0000 0.0000 0.0000
# 2 36.4580 142.5111 81.2488 0.0000 0.0000 0.0000
# 3 33.6879 81.2488 125.5501 0.0000 0.0000 0.0000
# 4 0.0000 0.0000 0.0000 18.3058 0.0000 0.0000
# 5 0.0000 0.0000 0.0000 0.0000 27.9597 0.0000
# 6 0.0000 0.0000 0.0000 0.0000 0.0000 19.3735
#
#
#
# Elastic Compliance Matrix: (Units=1/GPa)
#
#
# Indices 1 2 3 4 5 6 
#
# 1 0.028150 -0.004588 -0.004584 0.000000 0.000000 0.000000
# 2 -0.004588 0.011867 -0.006449 0.000000 0.000000 0.000000
# 3 -0.004584 -0.006449 0.013368 0.000000 0.000000 0.000000
# 4 0.000000 0.000000 0.000000 0.054628 0.000000 0.000000
# 5 0.000000 0.000000 0.000000 0.000000 0.035766 0.000000
# 6 0.000000 0.000000 0.000000 0.000000 0.000000 0.051617
#
#
# Mechanical properties :
#
#
# Convention : Reuss Voigt Hill
#
# Bulk Modulus (GPa) = 45.15977 68.64477 56.90227
# Shear Modulus (GPa) = 21.36583 24.03573 22.70078
#
# Velocity S-wave (km/s) = 3.49525 3.70721 3.60279
# Velocity P-wave (km/s) = 6.48929 7.58781 7.05995
#
# Compressibility (1/GPa) = 0.02214360
#
# Stress axis : x y z
#
# Youngs Moduli (GPa) = 35.52426 84.26509 74.80390
#
# Poissons Ratio (x) = 0.38660 0.34291
# Poissons Ratio (y) = 0.16298 0.48240
# Poissons Ratio (z) = 0.16285 0.54341
#
# Static dielectric constant tensor:
#      x y z
#    x 3.140720 0.000000 0.000000 
#    y 0.000000 3.684590 0.000000 
#    z 0.000000 0.000000 3.189580 
# 
# 
# High freq. dielectric constant tensor:
#      x y z
#    x 1.664250 0.000000 0.000000 
#    y 0.000000 1.682060 0.000000 
#    z 0.000000 0.000000 1.661680 
# 
# From -- ./inp_files/63922.got.cif
#   From: 2010.03.12/outbox.cif.g09.slc.cpg/sg74_32_cif.got.tgz:63922.got - 2010.04.16 15:46:19.
