data_PCOD8298758
_publ_section_title
;
Structure prediction by ZEFSAII (Michael W. Deem and Ramdas Pophale) SiO2 
 PCOD8298758
Probable space group: I M M A
;
_chemical_formula_sum "Si O2"
_cell_formula_units_Z 64
_cell_length_a 37.303091
_cell_length_b 10.021360
_cell_length_c 9.683903
_cell_angle_alpha 90.000000
_cell_angle_beta 90.000000
_cell_angle_gamma 90.000000
_cell_volume 3620.111224
_symmetry_space_group_name_H-M "I M M A"
_symmetry_group_IT_number 74
_symmetry_cell_setting 'orthorhombic'
loop_
_space_group_symop_operation_xyz
x,y,z
-x,1/2-y,z
x,-y,-z
-x,1/2+y,-z
-x,-y,-z
x,1/2+y,-z
-x,y,z
x,1/2-y,z
1/2+x,1/2+y,1/2+z
1/2-x,-y,1/2+z
1/2+x,1/2-y,1/2-z
1/2-x,y,1/2-z
1/2-x,1/2-y,1/2-z
1/2+x,y,1/2-z
1/2-x,1/2+y,1/2+z
1/2+x,-y,1/2+z
loop_
_atom_site_type_symbol
_atom_site_label
_atom_site_fract_x
_atom_site_fract_y
_atom_site_fract_z
Si Si1 0.274266 0.901616 0.621007
Si Si2 0.039238 0.250000 0.345983
Si Si3 0.142702 0.593279 0.871155
Si Si4 0.459293 0.250000 0.827238
Si Si5 0.085497 0.503935 0.663309
O O1 0.267236 0.750000 0.572252
O O2 0.250000 0.939917 0.750000
O O3 0.315497 0.921865 0.662492
O O4 0.262555 0.000000 0.500000
O O5 0.036426 0.250000 0.509779
O O6 0.059410 0.378446 0.291992
O O7 0.000000 0.250000 0.279206
O O8 0.132847 0.750000 0.896978
O O9 0.123003 0.529977 0.738857
O O10 0.131817 0.500000 0.000000
O O11 0.500000 0.250000 0.763498
O O12 0.435480 0.375208 0.780439
O O13 0.093381 0.500000 0.500000
#
# Coordination Sequence:
#
# PCOD8298758 Si02
#       5
#    16   8  16   8  16
#     4   9  19  36  57  80 108 140 175 215 259 308
#     4   9  16  30  51  75 102 135 172 217 272 313
#     4  10  21  37  55  77 107 144 178 212 260 314
#     4   9  18  30  49  79 108 131 170 223 272 317
#     4  10  19  32  53  79 105 136 176 223 263 311
#
# _framework density 17.679016000000001
#
# number of rings (size 3 to 8) (size 9 to 14) (size 15 to 20)
#    0.000    2.500    1.250    0.750    1.750    4.500 
#    0.000    0.000    0.000    4.500    0.000    0.000 
#    0.000    0.000    0.000    0.000    0.000    0.000 
#
# Total GULP energy -396679.191332 kJ/mol
# GULP energy per Si atom -12396.224729 kJ/mol
# Density = 1.763878 g / cm^3
# Si number density = 17.679016 Si / 1000 Ang^3
#
#
#
# Elastic Constant Matrix: (Units=GPa)
#
#
# Indices 1 2 3 4 5 6 
#
# 1 96.9111 65.4619 65.1308 0.0000 0.0000 0.0000
# 2 65.4619 155.3195 62.1897 0.0000 0.0000 0.0000
# 3 65.1308 62.1897 84.2607 0.0000 0.0000 0.0000
# 4 0.0000 0.0000 0.0000 35.0832 0.0000 0.0000
# 5 0.0000 0.0000 0.0000 0.0000 24.7161 0.0000
# 6 0.0000 0.0000 0.0000 0.0000 0.0000 21.6174
#
#
#
# Elastic Compliance Matrix: (Units=1/GPa)
#
#
# Indices 1 2 3 4 5 6 
#
# 1 0.022830 -0.003629 -0.014968 0.000000 0.000000 0.000000
# 2 -0.003629 0.009716 -0.004366 0.000000 0.000000 0.000000
# 3 -0.014968 -0.004366 0.026661 0.000000 0.000000 0.000000
# 4 0.000000 0.000000 0.000000 0.028504 0.000000 0.000000
# 5 0.000000 0.000000 0.000000 0.000000 0.040459 0.000000
# 6 0.000000 0.000000 0.000000 0.000000 0.000000 0.046259
#
#
# Mechanical properties :
#
#
# Convention : Reuss Voigt Hill
#
# Bulk Modulus (GPa) = 75.30296 80.22848 77.76572
# Shear Modulus (GPa) = 22.24386 25.86392 24.05389
#
# Velocity S-wave (km/s) = 3.55097 3.82903 3.69262
# Velocity P-wave (km/s) = 7.71359 8.06398 7.89073
#
# Compressibility (1/GPa) = 0.01327969
#
# Stress axis : x y z
#
# Youngs Moduli (GPa) = 43.80281 102.92453 37.50861
#
# Poissons Ratio (x) = 0.37347 0.56145
# Poissons Ratio (y) = 0.15894 0.16377
# Poissons Ratio (z) = 0.65566 0.44938
#
# Static dielectric constant tensor:
#      x y z
#    x 3.363860 0.000000 0.000000 
#    y 0.000000 3.571260 0.000000 
#    z 0.000000 0.000000 2.923650 
# 
# 
# High freq. dielectric constant tensor:
#      x y z
#    x 1.691040 0.000000 0.000000 
#    y 0.000000 1.702730 0.000000 
#    z 0.000000 0.000000 1.647750 
# 
# From -- ./inp_files/7346.got.cif
#   From: 2010.03.12/outbox.cif.g09.slc.cpg/sg74_4_cif.got.tgz:7346.got - 2010.04.16 15:46:19.
