data_PCOD8298252
_publ_section_title
;
Structure prediction by ZEFSAII (Michael W. Deem and Ramdas Pophale) SiO2 
 PCOD8298252
Probable space group: I M M A
;
_chemical_formula_sum "Si O2"
_cell_formula_units_Z 96
_cell_length_a 24.657577
_cell_length_b 9.100778
_cell_length_c 22.792554
_cell_angle_alpha 90.000000
_cell_angle_beta 90.000000
_cell_angle_gamma 90.000000
_cell_volume 5114.720556
_symmetry_space_group_name_H-M "I M M A"
_symmetry_group_IT_number 74
_symmetry_cell_setting 'orthorhombic'
loop_
_space_group_symop_operation_xyz
x,y,z
-x,1/2-y,z
x,-y,-z
-x,1/2+y,-z
-x,-y,-z
x,1/2+y,-z
-x,y,z
x,1/2-y,z
1/2+x,1/2+y,1/2+z
1/2-x,-y,1/2+z
1/2+x,1/2-y,1/2-z
1/2-x,y,1/2-z
1/2-x,1/2-y,1/2-z
1/2+x,y,1/2-z
1/2-x,1/2+y,1/2+z
1/2+x,-y,1/2+z
loop_
_atom_site_type_symbol
_atom_site_label
_atom_site_fract_x
_atom_site_fract_y
_atom_site_fract_z
Si Si1 0.000000 0.925093 0.785004
Si Si2 0.385883 0.924613 0.670749
Si Si3 0.584865 0.577494 0.942707
Si Si4 0.316509 0.074835 0.439950
Si Si5 0.000000 0.576316 0.652244
Si Si6 0.808077 0.424852 0.270496
Si Si7 0.199230 0.076730 0.399572
O O1 0.052352 0.980618 0.821627
O O2 0.000000 0.750000 0.780991
O O3 0.000000 0.990342 0.718266
O O4 0.383193 0.750000 0.671887
O O5 0.358654 0.978805 0.610133
O O6 0.352935 0.989376 0.726268
O O7 0.576604 0.750000 0.950432
O O8 0.553246 0.524965 0.884108
O O9 0.648387 0.533871 0.939958
O O10 0.559935 0.500000 0.000000
O O11 0.317006 0.250000 0.446996
O O12 0.256003 0.014589 0.424495
O O13 0.335830 0.000000 0.500000
O O14 0.000000 0.750000 0.658784
O O15 0.811960 0.250000 0.270046
O O16 0.750000 0.480273 0.250000
O O17 0.815626 0.488285 0.335728
O O18 0.206264 0.250000 0.393435
#
# Coordination Sequence:
#
# PCOD8298252 Si02
#       7
#     8  16  16  16   8  16  16
#     4   9  16  27  44  67  93 115 138 185 242 278
#     4   9  16  26  42  66  93 116 144 183 230 274
#     4  10  19  30  44  64  92 125 156 185 216 260
#     4  10  19  31  46  67  93 121 151 184 222 268
#     4   9  17  29  44  65  93 119 146 185 234 272
#     4   9  13  21  39  64  90 112 139 184 232 266
#     4   9  16  26  42  66  94 119 148 186 228 268
#
# _framework density 18.769355000000001
#
# number of rings (size 3 to 8) (size 9 to 14) (size 15 to 20)
#    0.000    2.667    1.667    1.750    0.000    4.000 
#    0.000    0.417    0.000    0.000    0.000    8.167 
#    0.000    0.000    0.000    0.000    0.000    0.000 
#
# Total GULP energy -594844.585904 kJ/mol
# GULP energy per Si atom -12392.595540 kJ/mol
# Density = 1.872664 g / cm^3
# Si number density = 18.769355 Si / 1000 Ang^3
#
#
#
# Elastic Constant Matrix: (Units=GPa)
#
#
# Indices 1 2 3 4 5 6 
#
# 1 146.4980 13.9303 66.1381 0.0000 0.0000 0.0000
# 2 13.9303 9.4316 18.1023 0.0000 0.0000 0.0000
# 3 66.1381 18.1023 148.4325 0.0000 0.0000 0.0000
# 4 0.0000 0.0000 0.0000 21.1149 0.0000 0.0000
# 5 0.0000 0.0000 0.0000 0.0000 23.0524 0.0000
# 6 0.0000 0.0000 0.0000 0.0000 0.0000 5.7519
#
#
#
# Elastic Compliance Matrix: (Units=1/GPa)
#
#
# Indices 1 2 3 4 5 6 
#
# 1 0.008907 -0.007231 -0.003087 0.000000 0.000000 0.000000
# 2 -0.007231 0.144299 -0.014376 0.000000 0.000000 0.000000
# 3 -0.003087 -0.014376 0.009866 0.000000 0.000000 0.000000
# 4 0.000000 0.000000 0.000000 0.047360 0.000000 0.000000
# 5 0.000000 0.000000 0.000000 0.000000 0.043380 0.000000
# 6 0.000000 0.000000 0.000000 0.000000 0.000000 0.173856
#
#
# Mechanical properties :
#
#
# Convention : Reuss Voigt Hill
#
# Bulk Modulus (GPa) = 8.79633 55.63372 32.21503
# Shear Modulus (GPa) = 9.70967 23.72991 16.71979
#
# Velocity S-wave (km/s) = 2.27692 3.55954 2.98787
# Velocity P-wave (km/s) = 3.40723 6.82634 5.39482
#
# Compressibility (1/GPa) = 0.11368373
#
# Stress axis : x y z
#
# Youngs Moduli (GPa) = 112.26769 6.93006 101.35971
#
# Poissons Ratio (x) = 0.05011 0.31290
# Poissons Ratio (y) = 0.81179 1.45717
# Poissons Ratio (z) = 0.34657 0.09963
#
# Static dielectric constant tensor:
#      x y z
#    x 3.673350 0.000000 0.000000 
#    y 0.000000 2.628020 0.000000 
#    z 0.000000 0.000000 3.605330 
# 
# 
# High freq. dielectric constant tensor:
#      x y z
#    x 1.738380 0.000000 0.000000 
#    y 0.000000 1.639600 0.000000 
#    z 0.000000 0.000000 1.740110 
# 
# From -- ./inp_files/46654.got.cif
#   From: 2010.03.12/outbox.cif.g09.slc.cpg/sg74_24_cif.got.tgz:46654.got - 2010.04.16 15:46:19.
