data_PCOD8298871
_publ_section_title
;
Structure prediction by ZEFSAII (Michael W. Deem and Ramdas Pophale) SiO2 
 PCOD8298871
Probable space group: I M M A
;
_chemical_formula_sum "Si O2"
_cell_formula_units_Z 80
_cell_length_a 17.742688
_cell_length_b 8.800229
_cell_length_c 27.940366
_cell_angle_alpha 90.000000
_cell_angle_beta 90.000000
_cell_angle_gamma 90.000000
_cell_volume 4362.600853
_symmetry_space_group_name_H-M "I M M A"
_symmetry_group_IT_number 74
_symmetry_cell_setting 'orthorhombic'
loop_
_space_group_symop_operation_xyz
x,y,z
-x,1/2-y,z
x,-y,-z
-x,1/2+y,-z
-x,-y,-z
x,1/2+y,-z
-x,y,z
x,1/2-y,z
1/2+x,1/2+y,1/2+z
1/2-x,-y,1/2+z
1/2+x,1/2-y,1/2-z
1/2-x,y,1/2-z
1/2-x,1/2-y,1/2-z
1/2+x,y,1/2-z
1/2-x,1/2+y,1/2+z
1/2+x,-y,1/2+z
loop_
_atom_site_type_symbol
_atom_site_label
_atom_site_fract_x
_atom_site_fract_y
_atom_site_fract_z
Si Si1 0.268802 0.429301 0.947732
Si Si2 0.790591 0.928194 0.859703
Si Si3 0.185439 0.080385 0.710826
Si Si4 0.414039 0.572481 0.716177
Si Si5 0.581424 0.072306 0.051690
O O1 0.267315 0.250000 0.952344
O O2 0.204636 0.486107 0.910863
O O3 0.348202 0.486570 0.923987
O O4 0.254883 0.500000 0.000000
O O5 0.789071 0.750000 0.869073
O O6 0.863750 0.978678 0.829199
O O7 0.713726 0.976028 0.832655
O O8 0.168066 0.250000 0.691785
O O9 0.250000 0.084176 0.750000
O O10 0.110613 0.011389 0.735073
O O11 0.500000 0.529668 0.704489
O O12 0.402861 0.750000 0.725579
O O13 0.500000 0.048899 0.078352
O O14 0.600773 0.250000 0.047304
O O15 0.573747 0.000000 0.000000
#
# Coordination Sequence:
#
# PCOD8298871 Si02
#       5
#    16  16  16  16  16
#     4  11  21  33  50  72 100 134 175 218 257 301
#     4  10  19  33  53  75 102 135 170 209 253 301
#     4   9  17  30  49  74 102 130 161 198 242 294
#     4   9  18  33  54  79 105 134 167 204 251 307
#     4   9  16  27  44  65  89 118 154 196 242 290
#
# _framework density 18.337685
#
# number of rings (size 3 to 8) (size 9 to 14) (size 15 to 20)
#    0.000    2.400    0.000    4.800    0.000    4.800 
#    0.000    1.000    0.000    6.600    0.000    0.000 
#    0.000    0.000    0.000    0.000    0.000    0.000 
#
# Total GULP energy -495733.721811 kJ/mol
# GULP energy per Si atom -12393.343045 kJ/mol
# Density = 1.829595 g / cm^3
# Si number density = 18.337685 Si / 1000 Ang^3
#
#
#
# Elastic Constant Matrix: (Units=GPa)
#
#
# Indices 1 2 3 4 5 6 
#
# 1 93.9450 37.7510 44.4273 0.0000 0.0000 0.0000
# 2 37.7510 112.8349 39.1522 0.0000 0.0000 0.0000
# 3 44.4273 39.1522 83.6240 0.0000 0.0000 0.0000
# 4 0.0000 0.0000 0.0000 30.3338 0.0000 0.0000
# 5 0.0000 0.0000 0.0000 0.0000 20.3266 0.0000
# 6 0.0000 0.0000 0.0000 0.0000 0.0000 21.2075
#
#
#
# Elastic Compliance Matrix: (Units=1/GPa)
#
#
# Indices 1 2 3 4 5 6 
#
# 1 0.014858 -0.002665 -0.006646 0.000000 0.000000 0.000000
# 2 -0.002665 0.011060 -0.003762 0.000000 0.000000 0.000000
# 3 -0.006646 -0.003762 0.017251 0.000000 0.000000 0.000000
# 4 0.000000 0.000000 0.000000 0.032966 0.000000 0.000000
# 5 0.000000 0.000000 0.000000 0.000000 0.049197 0.000000
# 6 0.000000 0.000000 0.000000 0.000000 0.000000 0.047153
#
#
# Mechanical properties :
#
#
# Convention : Reuss Voigt Hill
#
# Bulk Modulus (GPa) = 58.74765 59.22944 58.98854
# Shear Modulus (GPa) = 24.47314 25.64515 25.05914
#
# Velocity S-wave (km/s) = 3.65716 3.74370 3.70068
# Velocity P-wave (km/s) = 7.06677 7.14538 7.10618
#
# Compressibility (1/GPa) = 0.01702196
#
# Stress axis : x y z
#
# Youngs Moduli (GPa) = 67.30173 90.41951 57.96895
#
# Poissons Ratio (x) = 0.24097 0.38527
# Poissons Ratio (y) = 0.17936 0.21809
# Poissons Ratio (z) = 0.44730 0.34017
#
# Static dielectric constant tensor:
#      x y z
#    x 3.610910 0.000000 0.000000 
#    y 0.000000 3.500670 0.000000 
#    z 0.000000 0.000000 3.254440 
# 
# 
# High freq. dielectric constant tensor:
#      x y z
#    x 1.689030 0.000000 0.000000 
#    y 0.000000 1.723520 0.000000 
#    z 0.000000 0.000000 1.690940 
# 
# From -- ./inp_files/63942.got.cif
#   From: 2010.03.12/outbox.cif.g09.slc.cpg/sg74_32_cif.got.tgz:63942.got - 2010.04.16 15:46:19.
