data_PCOD8298544
_publ_section_title
;
Structure prediction by ZEFSAII (Michael W. Deem and Ramdas Pophale) SiO2 
 PCOD8298544
Probable space group: I M M A
;
_chemical_formula_sum "Si O2"
_cell_formula_units_Z 88
_cell_length_a 23.683047
_cell_length_b 15.122096
_cell_length_c 13.137131
_cell_angle_alpha 90.000000
_cell_angle_beta 90.000000
_cell_angle_gamma 90.000000
_cell_volume 4704.896761
_symmetry_space_group_name_H-M "I M M A"
_symmetry_group_IT_number 74
_symmetry_cell_setting 'orthorhombic'
loop_
_space_group_symop_operation_xyz
x,y,z
-x,1/2-y,z
x,-y,-z
-x,1/2+y,-z
-x,-y,-z
x,1/2+y,-z
-x,y,z
x,1/2-y,z
1/2+x,1/2+y,1/2+z
1/2-x,-y,1/2+z
1/2+x,1/2-y,1/2-z
1/2-x,y,1/2-z
1/2-x,1/2-y,1/2-z
1/2+x,y,1/2-z
1/2-x,1/2+y,1/2+z
1/2+x,-y,1/2+z
loop_
_atom_site_type_symbol
_atom_site_label
_atom_site_fract_x
_atom_site_fract_y
_atom_site_fract_z
Si Si1 0.064023 0.497562 0.620920
Si Si2 0.682140 0.959027 0.600926
Si Si3 0.788460 0.151983 0.429740
Si Si4 0.124450 0.147663 0.262883
Si Si5 0.350180 0.349404 0.872754
Si Si6 0.750000 0.582465 0.250000
O O1 0.070991 0.500000 0.500000
O O2 0.078741 0.591197 0.673831
O O3 0.104066 0.420352 0.666855
O O4 0.000000 0.474066 0.650437
O O5 0.736130 0.910679 0.553723
O O6 0.635859 0.893529 0.651278
O O7 0.652434 0.000000 0.500000
O O8 0.705199 0.027295 0.683961
O O9 0.765342 0.250000 0.447777
O O10 0.814658 0.141453 0.317634
O O11 0.838967 0.130402 0.508225
O O12 0.103911 0.250000 0.255131
O O13 0.373943 0.250000 0.856659
O O14 0.289288 0.356535 0.819572
#
# Coordination Sequence:
#
# PCOD8298544 Si02
#       6
#    16  16  16  16  16   8
#     4  11  23  39  61  90 121 153 196 246 295 354
#     4  12  21  32  55  83 119 157 200 247 297 358
#     4  10  19  31  51  81 118 157 196 238 287 351
#     4  11  22  38  58  83 117 158 203 250 299 353
#     4  11  22  37  56  85 122 161 198 234 287 355
#     4  12  21  34  57  82 120 158 193 238 297 358
#
# _framework density 18.703917000000001
#
# number of rings (size 3 to 8) (size 9 to 14) (size 15 to 20)
#    0.000    0.909    7.273    0.818    0.000    2.182 
#    0.000    1.818    0.000    0.545    0.000    0.000 
#    0.000    0.000    0.000    0.000    0.000    0.000 
#
# Total GULP energy -545515.920711 kJ/mol
# GULP energy per Si atom -12398.089107 kJ/mol
# Density = 1.866135 g / cm^3
# Si number density = 18.703917 Si / 1000 Ang^3
#
#
#
# Elastic Constant Matrix: (Units=GPa)
#
#
# Indices 1 2 3 4 5 6 
#
# 1 74.8012 46.0265 16.6960 0.0000 0.0000 0.0000
# 2 46.0265 119.8065 43.9590 0.0000 0.0000 0.0000
# 3 16.6960 43.9590 85.8258 0.0000 0.0000 0.0000
# 4 0.0000 0.0000 0.0000 31.1334 0.0000 0.0000
# 5 0.0000 0.0000 0.0000 0.0000 17.1900 0.0000
# 6 0.0000 0.0000 0.0000 0.0000 0.0000 14.5180
#
#
#
# Elastic Compliance Matrix: (Units=1/GPa)
#
#
# Indices 1 2 3 4 5 6 
#
# 1 0.017507 -0.006744 0.000048 0.000000 0.000000 0.000000
# 2 -0.006744 0.012876 -0.005283 0.000000 0.000000 0.000000
# 3 0.000048 -0.005283 0.014348 0.000000 0.000000 0.000000
# 4 0.000000 0.000000 0.000000 0.032120 0.000000 0.000000
# 5 0.000000 0.000000 0.000000 0.000000 0.058173 0.000000
# 6 0.000000 0.000000 0.000000 0.000000 0.000000 0.068880
#
#
# Mechanical properties :
#
#
# Convention : Reuss Voigt Hill
#
# Bulk Modulus (GPa) = 48.13580 54.86628 51.50104
# Shear Modulus (GPa) = 21.29595 24.15175 22.72385
#
# Velocity S-wave (km/s) = 3.37795 3.59732 3.48936
# Velocity P-wave (km/s) = 6.40356 6.83023 6.62033
#
# Compressibility (1/GPa) = 0.02077456
#
# Stress axis : x y z
#
# Youngs Moduli (GPa) = 57.11853 77.66429 69.69586
#
# Poissons Ratio (x) = 0.52373 -0.00336
# Poissons Ratio (y) = 0.38518 0.36821
# Poissons Ratio (z) = -0.00275 0.41030
#
# Static dielectric constant tensor:
#      x y z
#    x 3.080270 0.000000 0.000000 
#    y 0.000000 3.571890 0.000000 
#    z 0.000000 0.000000 3.590090 
# 
# 
# High freq. dielectric constant tensor:
#      x y z
#    x 1.682470 0.000000 0.000000 
#    y 0.000000 1.738650 0.000000 
#    z 0.000000 0.000000 1.718740 
# 
# From -- ./inp_files/24974.got.cif
#   From: 2010.03.12/outbox.cif.g09.slc.cpg/sg74_13_cif.got.tgz:24974.got - 2010.04.16 15:46:19.
