data_PCOD8298546
_publ_section_title
;
Structure prediction by ZEFSAII (Michael W. Deem and Ramdas Pophale) SiO2 
 PCOD8298546
Probable space group: I M M A
;
_chemical_formula_sum "Si O2"
_cell_formula_units_Z 88
_cell_length_a 21.727666
_cell_length_b 8.660382
_cell_length_c 24.316012
_cell_angle_alpha 90.000000
_cell_angle_beta 90.000000
_cell_angle_gamma 90.000000
_cell_volume 4575.541243
_symmetry_space_group_name_H-M "I M M A"
_symmetry_group_IT_number 74
_symmetry_cell_setting 'orthorhombic'
loop_
_space_group_symop_operation_xyz
x,y,z
-x,1/2-y,z
x,-y,-z
-x,1/2+y,-z
-x,-y,-z
x,1/2+y,-z
-x,y,z
x,1/2-y,z
1/2+x,1/2+y,1/2+z
1/2-x,-y,1/2+z
1/2+x,1/2-y,1/2-z
1/2-x,y,1/2-z
1/2-x,1/2-y,1/2-z
1/2+x,y,1/2-z
1/2-x,1/2+y,1/2+z
1/2+x,-y,1/2+z
loop_
_atom_site_type_symbol
_atom_site_label
_atom_site_fract_x
_atom_site_fract_y
_atom_site_fract_z
Si Si1 0.430974 0.932739 0.556057
Si Si2 0.597189 0.930263 0.144567
Si Si3 0.566204 0.924542 0.749017
Si Si4 0.653298 0.566847 0.653405
Si Si5 0.000000 0.933819 0.561924
Si Si6 0.271518 0.568145 0.189924
O O1 0.500000 0.995711 0.565640
O O2 0.430473 0.750000 0.554138
O O3 0.387892 0.995978 0.603992
O O4 0.403446 0.000000 0.500000
O O5 0.599265 0.750000 0.130348
O O6 0.665337 0.996074 0.162074
O O7 0.558049 0.963545 0.199005
O O8 0.562914 0.012383 0.093161
O O9 0.500000 0.926272 0.717771
O O10 0.581141 0.750000 0.768621
O O11 0.619662 0.986130 0.709436
O O12 0.661555 0.750000 0.651439
O O13 0.718446 0.482497 0.647837
O O14 0.000000 0.750000 0.559266
O O15 0.000000 0.000000 0.500000
O O16 0.278042 0.750000 0.195061
O O17 0.250000 0.499786 0.250000
#
# Coordination Sequence:
#
# PCOD8298546 Si02
#       6
#    16  16  16  16   8  16
#     4   9  18  34  54  77 108 145 187 234 280 328
#     4  11  22  38  60  86 118 153 192 237 292 349
#     4  10  19  31  51  82 116 150 190 238 291 345
#     4  10  20  33  53  81 114 151 194 238 283 340
#     4  12  26  46  70  94 120 152 197 248 303 358
#     4  10  21  37  55  81 119 158 191 231 285 345
#
# _framework density 19.232697999999999
#
# number of rings (size 3 to 8) (size 9 to 14) (size 15 to 20)
#    0.000    1.818    2.727    1.909    0.000    4.727 
#    0.000    0.909    0.000    5.455    0.000    0.000 
#    0.000    0.000    0.000    0.000    0.000    0.000 
#
# Total GULP energy -545249.346846 kJ/mol
# GULP energy per Si atom -12392.030610 kJ/mol
# Density = 1.918892 g / cm^3
# Si number density = 19.232698 Si / 1000 Ang^3
#
#
#
# Elastic Constant Matrix: (Units=GPa)
#
#
# Indices 1 2 3 4 5 6 
#
# 1 149.4760 30.6173 65.9782 0.0000 0.0000 0.0000
# 2 30.6173 41.7953 28.3190 0.0000 0.0000 0.0000
# 3 65.9782 28.3190 124.8841 0.0000 0.0000 0.0000
# 4 0.0000 0.0000 0.0000 30.3110 0.0000 0.0000
# 5 0.0000 0.0000 0.0000 0.0000 9.8239 0.0000
# 6 0.0000 0.0000 0.0000 0.0000 0.0000 25.5240
#
#
#
# Elastic Compliance Matrix: (Units=1/GPa)
#
#
# Indices 1 2 3 4 5 6 
#
# 1 0.009286 -0.004110 -0.003974 0.000000 0.000000 0.000000
# 2 -0.004110 0.030089 -0.004652 0.000000 0.000000 0.000000
# 3 -0.003974 -0.004652 0.011162 0.000000 0.000000 0.000000
# 4 0.000000 0.000000 0.000000 0.032991 0.000000 0.000000
# 5 0.000000 0.000000 0.000000 0.000000 0.101793 0.000000
# 6 0.000000 0.000000 0.000000 0.000000 0.000000 0.039179
#
#
# Mechanical properties :
#
#
# Convention : Reuss Voigt Hill
#
# Bulk Modulus (GPa) = 39.89564 62.88714 51.39139
# Shear Modulus (GPa) = 19.35542 25.88116 22.61829
#
# Velocity S-wave (km/s) = 3.17579 3.67234 3.43305
# Velocity P-wave (km/s) = 5.85117 7.12393 6.51869
#
# Compressibility (1/GPa) = 0.02506540
#
# Stress axis : x y z
#
# Youngs Moduli (GPa) = 107.68954 33.23512 89.59167
#
# Poissons Ratio (x) = 0.13659 0.35603
# Poissons Ratio (y) = 0.44259 0.41675
# Poissons Ratio (z) = 0.42795 0.15460
#
# Static dielectric constant tensor:
#      x y z
#    x 3.832620 0.000000 0.000000 
#    y 0.000000 3.290350 0.000000 
#    z 0.000000 0.000000 3.458470 
# 
# 
# High freq. dielectric constant tensor:
#      x y z
#    x 1.761200 0.000000 0.000000 
#    y 0.000000 1.734510 0.000000 
#    z 0.000000 0.000000 1.729520 
# 
# From -- ./inp_files/61432.got.cif
#   From: 2010.03.12/outbox.cif.g09.slc.cpg/sg74_31_cif.got.tgz:61432.got - 2010.04.16 15:46:19.
