data_PCOD8298279
_publ_section_title
;
Structure prediction by ZEFSAII (Michael W. Deem and Ramdas Pophale) SiO2 
 PCOD8298279
Probable space group: I M M A
;
_chemical_formula_sum "Si O2"
_cell_formula_units_Z 80
_cell_length_a 23.583831
_cell_length_b 8.797023
_cell_length_c 25.675393
_cell_angle_alpha 90.000000
_cell_angle_beta 90.000000
_cell_angle_gamma 90.000000
_cell_volume 5326.809693
_symmetry_space_group_name_H-M "I M M A"
_symmetry_group_IT_number 74
_symmetry_cell_setting 'orthorhombic'
loop_
_space_group_symop_operation_xyz
x,y,z
-x,1/2-y,z
x,-y,-z
-x,1/2+y,-z
-x,-y,-z
x,1/2+y,-z
-x,y,z
x,1/2-y,z
1/2+x,1/2+y,1/2+z
1/2-x,-y,1/2+z
1/2+x,1/2-y,1/2-z
1/2-x,y,1/2-z
1/2-x,1/2-y,1/2-z
1/2+x,y,1/2-z
1/2-x,1/2+y,1/2+z
1/2+x,-y,1/2+z
loop_
_atom_site_type_symbol
_atom_site_label
_atom_site_fract_x
_atom_site_fract_y
_atom_site_fract_z
Si Si1 0.718668 0.581924 0.695123
Si Si2 0.680798 0.576753 0.152484
Si Si3 0.500000 0.070797 0.780681
Si Si4 0.613514 0.929258 0.756255
Si Si5 0.891015 0.074085 0.553684
Si Si6 0.000000 0.930287 0.605096
O O1 0.717492 0.750000 0.669975
O O2 0.750000 0.588397 0.750000
O O3 0.752818 0.470687 0.656476
O O4 0.654613 0.525569 0.707718
O O5 0.673960 0.750000 0.171154
O O6 0.641358 0.473130 0.188641
O O7 0.661395 0.555647 0.093214
O O8 0.500000 0.250000 0.787833
O O9 0.554897 0.018216 0.748281
O O10 0.500000 0.996371 0.837201
O O11 0.602277 0.750000 0.757341
O O12 0.907239 0.250000 0.545921
O O13 0.870520 0.000000 0.500000
O O14 0.945418 0.985554 0.574180
O O15 0.000000 0.750000 0.608605
#
# Coordination Sequence:
#
# PCOD8298279 Si02
#       6
#    16  16   8  16  16   8
#     4   8  16  29  45  64  85 109 141 175 212 264
#     4  10  19  30  46  65  86 110 142 184 224 261
#     4  12  22  31  45  66  90 116 148 187 222 261
#     4  10  19  31  46  64  86 115 146 176 216 264
#     4  11  23  36  48  64  86 113 150 192 229 268
#     4  12  23  35  50  62  81 116 150 189 233 269
#
# _framework density 15.018370000000001
#
# number of rings (size 3 to 8) (size 9 to 14) (size 15 to 20)
#    0.000    1.800    2.000    5.100    0.000    6.800 
#    0.000    0.000    0.000    0.000    0.000    0.000 
#    0.000    0.000    0.000    0.900    0.000   11.800 
#
# Total GULP energy -495947.499134 kJ/mol
# GULP energy per Si atom -12398.687478 kJ/mol
# Density = 1.498419 g / cm^3
# Si number density = 15.018370 Si / 1000 Ang^3
#
#
#
# Elastic Constant Matrix: (Units=GPa)
#
#
# Indices 1 2 3 4 5 6 
#
# 1 104.9529 50.7618 48.6719 0.0000 0.0000 0.0000
# 2 50.7618 109.0199 38.0315 0.0000 0.0000 0.0000
# 3 48.6719 38.0315 48.7181 0.0000 0.0000 0.0000
# 4 0.0000 0.0000 0.0000 20.8202 0.0000 0.0000
# 5 0.0000 0.0000 0.0000 0.0000 11.6895 0.0000
# 6 0.0000 0.0000 0.0000 0.0000 0.0000 26.8051
#
#
#
# Elastic Compliance Matrix: (Units=1/GPa)
#
#
# Indices 1 2 3 4 5 6 
#
# 1 0.018425 -0.002965 -0.016093 0.000000 0.000000 0.000000
# 2 -0.002965 0.013083 -0.007251 0.000000 0.000000 0.000000
# 3 -0.016093 -0.007251 0.042264 0.000000 0.000000 0.000000
# 4 0.000000 0.000000 0.000000 0.048030 0.000000 0.000000
# 5 0.000000 0.000000 0.000000 0.000000 0.085547 0.000000
# 6 0.000000 0.000000 0.000000 0.000000 0.000000 0.037306
#
#
# Mechanical properties :
#
#
# Convention : Reuss Voigt Hill
#
# Bulk Modulus (GPa) = 47.27122 59.73570 53.50346
# Shear Modulus (GPa) = 16.42979 20.21134 18.32057
#
# Velocity S-wave (km/s) = 3.31112 3.67246 3.49646
# Velocity P-wave (km/s) = 6.79426 7.60553 7.21131
#
# Compressibility (1/GPa) = 0.02115452
#
# Stress axis : x y z
#
# Youngs Moduli (GPa) = 54.27281 76.43737 23.66062
#
# Poissons Ratio (x) = 0.22665 0.38078
# Poissons Ratio (y) = 0.16093 0.17155
# Poissons Ratio (z) = 0.87343 0.55421
#
# Static dielectric constant tensor:
#      x y z
#    x 3.259440 0.000000 0.000000 
#    y 0.000000 3.075030 0.000000 
#    z 0.000000 0.000000 2.704970 
# 
# 
# High freq. dielectric constant tensor:
#      x y z
#    x 1.571020 0.000000 0.000000 
#    y 0.000000 1.594200 0.000000 
#    z 0.000000 0.000000 1.525650 
# 
# From -- ./inp_files/57200.got.cif
#   From: 2010.03.12/outbox.cif.g09.slc.cpg/sg74_29_cif.got.tgz:57200.got - 2010.04.16 15:46:19.
