data_PCOD8298401
_publ_section_title
;
Structure prediction by ZEFSAII (Michael W. Deem and Ramdas Pophale) SiO2 
 PCOD8298401
Probable space group: I M M A
;
_chemical_formula_sum "Si O2"
_cell_formula_units_Z 88
_cell_length_a 8.945774
_cell_length_b 20.098314
_cell_length_c 27.641833
_cell_angle_alpha 90.000000
_cell_angle_beta 90.000000
_cell_angle_gamma 90.000000
_cell_volume 4969.862668
_symmetry_space_group_name_H-M "I M M A"
_symmetry_group_IT_number 74
_symmetry_cell_setting 'orthorhombic'
loop_
_space_group_symop_operation_xyz
x,y,z
-x,1/2-y,z
x,-y,-z
-x,1/2+y,-z
-x,-y,-z
x,1/2+y,-z
-x,y,z
x,1/2-y,z
1/2+x,1/2+y,1/2+z
1/2-x,-y,1/2+z
1/2+x,1/2-y,1/2-z
1/2-x,y,1/2-z
1/2-x,1/2-y,1/2-z
1/2+x,y,1/2-z
1/2-x,1/2+y,1/2+z
1/2+x,-y,1/2+z
loop_
_atom_site_type_symbol
_atom_site_label
_atom_site_fract_x
_atom_site_fract_y
_atom_site_fract_z
Si Si1 0.163669 0.750000 0.035448
Si Si2 0.672384 0.381492 0.071605
Si Si3 0.826764 0.750000 0.300572
Si Si4 0.824587 0.105899 0.698225
Si Si5 0.833953 0.750000 0.920433
Si Si6 0.320901 0.892049 0.470129
Si Si7 0.171879 0.521849 0.391079
O O1 0.241367 0.819936 0.050151
O O2 0.000000 0.750000 0.059042
O O3 0.154259 0.750000 0.977728
O O4 0.500000 0.365611 0.060111
O O5 0.746868 0.316577 0.096055
O O6 0.688414 0.442096 0.109658
O O7 0.752174 0.405364 0.022594
O O8 0.750000 0.750000 0.250000
O O9 0.782615 0.820799 0.325246
O O10 0.000000 0.750000 0.290252
O O11 0.750000 0.093102 0.750000
O O12 0.769135 0.050661 0.660005
O O13 0.000000 0.099790 0.706950
O O14 0.000000 0.750000 0.897302
O O15 0.500000 0.890321 0.475311
O O16 0.271511 0.949534 0.434294
O O17 0.000000 0.543217 0.399903
#
# Coordination Sequence:
#
# PCOD8298401 Si02
#       7
#     8  16   8  16   8  16  16
#     4   7  14  28  42  60  88 121 156 195 233 265
#     4  10  19  32  49  69  96 129 159 190 236 289
#     4   8  14  27  48  68  88 118 155 193 232 269
#     4   9  18  33  50  69  93 122 158 200 241 282
#     4   9  17  31  50  70  92 119 157 200 233 274
#     4  10  19  31  47  67  95 130 167 204 237 273
#     4  10  21  33  46  69  99 127 158 196 240 292
#
# _framework density 17.706726
#
# number of rings (size 3 to 8) (size 9 to 14) (size 15 to 20)
#    0.000    2.727    0.000    3.000    0.000    5.091 
#    0.000    2.273    0.000    3.273    0.000    0.636 
#    0.000    0.000    0.000    0.000    0.000    0.000 
#
# Total GULP energy -545086.417095 kJ/mol
# GULP energy per Si atom -12388.327661 kJ/mol
# Density = 1.766642 g / cm^3
# Si number density = 17.706726 Si / 1000 Ang^3
#
#
#
# Elastic Constant Matrix: (Units=GPa)
#
#
# Indices 1 2 3 4 5 6 
#
# 1 73.4665 48.0101 26.6811 0.0000 0.0000 0.0000
# 2 48.0101 143.2186 51.5693 0.0000 0.0000 0.0000
# 3 26.6811 51.5693 62.7777 0.0000 0.0000 0.0000
# 4 0.0000 0.0000 0.0000 19.4986 0.0000 0.0000
# 5 0.0000 0.0000 0.0000 0.0000 17.0518 0.0000
# 6 0.0000 0.0000 0.0000 0.0000 0.0000 25.8178
#
#
#
# Elastic Compliance Matrix: (Units=1/GPa)
#
#
# Indices 1 2 3 4 5 6 
#
# 1 0.018058 -0.004672 -0.003837 0.000000 0.000000 0.000000
# 2 -0.004672 0.011124 -0.007152 0.000000 0.000000 0.000000
# 3 -0.003837 -0.007152 0.023435 0.000000 0.000000 0.000000
# 4 0.000000 0.000000 0.000000 0.051286 0.000000 0.000000
# 5 0.000000 0.000000 0.000000 0.000000 0.058645 0.000000
# 6 0.000000 0.000000 0.000000 0.000000 0.000000 0.038733
#
#
# Mechanical properties :
#
#
# Convention : Reuss Voigt Hill
#
# Bulk Modulus (GPa) = 46.95960 59.10932 53.03446
# Shear Modulus (GPa) = 20.85928 22.68711 21.77320
#
# Velocity S-wave (km/s) = 3.43599 3.58337 3.51045
# Velocity P-wave (km/s) = 6.50536 7.11165 6.81525
#
# Compressibility (1/GPa) = 0.02129490
#
# Stress axis : x y z
#
# Youngs Moduli (GPa) = 55.37629 89.89784 42.67079
#
# Poissons Ratio (x) = 0.41999 0.16374
# Poissons Ratio (y) = 0.25871 0.30519
# Poissons Ratio (z) = 0.21249 0.64296
#
# Static dielectric constant tensor:
#      x y z
#    x 3.412420 0.000000 0.000000 
#    y 0.000000 3.962980 0.000000 
#    z 0.000000 0.000000 2.843550 
# 
# 
# High freq. dielectric constant tensor:
#      x y z
#    x 1.684090 0.000000 0.000000 
#    y 0.000000 1.702230 0.000000 
#    z 0.000000 0.000000 1.628080 
# 
# From -- ./inp_files/70323.got.cif
#   From: 2010.03.12/outbox.cif.g09.slc.cpg/sg74_36_cif.got.tgz:70323.got - 2010.04.16 15:46:19.
