data_PCOD8298862
_publ_section_title
;
Structure prediction by ZEFSAII (Michael W. Deem and Ramdas Pophale) SiO2 
 PCOD8298862
Probable space group: I M M A
;
_chemical_formula_sum "Si O2"
_cell_formula_units_Z 64
_cell_length_a 22.168752
_cell_length_b 9.261641
_cell_length_c 17.457481
_cell_angle_alpha 90.000000
_cell_angle_beta 90.000000
_cell_angle_gamma 90.000000
_cell_volume 3584.352933
_symmetry_space_group_name_H-M "I M M A"
_symmetry_group_IT_number 74
_symmetry_cell_setting 'orthorhombic'
loop_
_space_group_symop_operation_xyz
x,y,z
-x,1/2-y,z
x,-y,-z
-x,1/2+y,-z
-x,-y,-z
x,1/2+y,-z
-x,y,z
x,1/2-y,z
1/2+x,1/2+y,1/2+z
1/2-x,-y,1/2+z
1/2+x,1/2-y,1/2-z
1/2-x,y,1/2-z
1/2-x,1/2-y,1/2-z
1/2+x,y,1/2-z
1/2-x,1/2+y,1/2+z
1/2+x,-y,1/2+z
loop_
_atom_site_type_symbol
_atom_site_label
_atom_site_fract_x
_atom_site_fract_y
_atom_site_fract_z
Si Si1 0.697794 0.500000 0.500000
Si Si2 0.315158 0.408779 0.067639
Si Si3 0.614391 0.914033 0.366772
Si Si4 0.000000 0.423437 0.081234
Si Si5 0.679566 0.086821 0.237968
O O1 0.742096 0.402186 0.446930
O O2 0.655195 0.409371 0.556732
O O3 0.341923 0.250000 0.061832
O O4 0.331347 0.470772 0.151239
O O5 0.347048 0.500000 0.000000
O O6 0.592459 0.750000 0.351928
O O7 0.558811 0.023721 0.373912
O O8 0.650875 0.970163 0.293878
O O9 0.000000 0.250000 0.072695
O O10 0.000000 0.500000 0.000000
O O11 0.653504 0.250000 0.249681
O O12 0.750000 0.092320 0.250000
#
# Coordination Sequence:
#
# PCOD8298862 Si02
#       5
#     8  16  16   8  16
#     4  10  20  31  52  76 112 145 182 228 262 322
#     4   9  18  31  49  74 107 144 178 218 267 321
#     4  12  24  37  56  80 110 147 188 231 273 321
#     4  12  26  42  60  78 105 144 189 232 272 324
#     4  10  19  33  52  77 110 146 182 223 276 328
#
# _framework density 17.855384999999998
#
# number of rings (size 3 to 8) (size 9 to 14) (size 15 to 20)
#    0.750    0.750    3.750    2.625    0.000    3.500 
#    0.000    0.000    0.000    0.000    0.000    0.875 
#    0.000    0.000    0.000    0.000    0.000    0.000 
#
# Total GULP energy -396494.298240 kJ/mol
# GULP energy per Si atom -12390.446820 kJ/mol
# Density = 1.781475 g / cm^3
# Si number density = 17.855385 Si / 1000 Ang^3
#
#
#
# Elastic Constant Matrix: (Units=GPa)
#
#
# Indices 1 2 3 4 5 6 
#
# 1 49.4645 26.9663 26.8772 0.0000 0.0000 0.0000
# 2 26.9663 121.5574 57.6135 0.0000 0.0000 0.0000
# 3 26.8772 57.6135 132.8814 0.0000 0.0000 0.0000
# 4 0.0000 0.0000 0.0000 26.6512 0.0000 0.0000
# 5 0.0000 0.0000 0.0000 0.0000 16.8839 0.0000
# 6 0.0000 0.0000 0.0000 0.0000 0.0000 22.0701
#
#
#
# Elastic Compliance Matrix: (Units=1/GPa)
#
#
# Indices 1 2 3 4 5 6 
#
# 1 0.024038 -0.003811 -0.003210 0.000000 0.000000 0.000000
# 2 -0.003811 0.010959 -0.003980 0.000000 0.000000 0.000000
# 3 -0.003210 -0.003980 0.009900 0.000000 0.000000 0.000000
# 4 0.000000 0.000000 0.000000 0.037522 0.000000 0.000000
# 5 0.000000 0.000000 0.000000 0.000000 0.059228 0.000000
# 6 0.000000 0.000000 0.000000 0.000000 0.000000 0.045310
#
#
# Mechanical properties :
#
#
# Convention : Reuss Voigt Hill
#
# Bulk Modulus (GPa) = 43.67844 58.53524 51.10684
# Shear Modulus (GPa) = 23.08490 25.95081 24.51786
#
# Velocity S-wave (km/s) = 3.59957 3.81647 3.70960
# Velocity P-wave (km/s) = 6.46462 7.23013 6.85806
#
# Compressibility (1/GPa) = 0.02289459
#
# Stress axis : x y z
#
# Youngs Moduli (GPa) = 41.60019 91.25192 101.00512
#
# Poissons Ratio (x) = 0.34780 0.32418
# Poissons Ratio (y) = 0.15856 0.40204
# Poissons Ratio (z) = 0.13352 0.36322
#
# Static dielectric constant tensor:
#      x y z
#    x 1.892360 0.000000 0.000000 
#    y 0.000000 3.232430 0.000000 
#    z 0.000000 0.000000 3.607840 
# 
# 
# High freq. dielectric constant tensor:
#      x y z
#    x 1.645110 0.000000 0.000000 
#    y 0.000000 1.690560 0.000000 
#    z 0.000000 0.000000 1.701900 
# 
# From -- ./inp_files/44778.got.cif
#   From: 2010.03.12/outbox.cif.g09.slc.cpg/sg74_23_cif.got.tgz:44778.got - 2010.04.16 15:46:19.
