data_PCOD8298627
_publ_section_title
;
Structure prediction by ZEFSAII (Michael W. Deem and Ramdas Pophale) SiO2 
 PCOD8298627
Probable space group: I M M A
;
_chemical_formula_sum "Si O2"
_cell_formula_units_Z 120
_cell_length_a 9.220875
_cell_length_b 27.180356
_cell_length_c 27.774987
_cell_angle_alpha 90.000000
_cell_angle_beta 90.000000
_cell_angle_gamma 90.000000
_cell_volume 6961.152366
_symmetry_space_group_name_H-M "I M M A"
_symmetry_group_IT_number 74
_symmetry_cell_setting 'orthorhombic'
loop_
_space_group_symop_operation_xyz
x,y,z
-x,1/2-y,z
x,-y,-z
-x,1/2+y,-z
-x,-y,-z
x,1/2+y,-z
-x,y,z
x,1/2-y,z
1/2+x,1/2+y,1/2+z
1/2-x,-y,1/2+z
1/2+x,1/2-y,1/2-z
1/2-x,y,1/2-z
1/2-x,1/2-y,1/2-z
1/2+x,y,1/2-z
1/2-x,1/2+y,1/2+z
1/2+x,-y,1/2+z
loop_
_atom_site_type_symbol
_atom_site_label
_atom_site_fract_x
_atom_site_fract_y
_atom_site_fract_z
Si Si1 0.830938 0.442501 0.199427
Si Si2 0.660333 0.844035 0.552224
Si Si3 0.667933 0.750000 0.798546
Si Si4 0.840963 0.335141 0.160844
Si Si5 0.664977 0.091574 0.931305
Si Si6 0.667036 0.061030 0.039518
Si Si7 0.671846 0.008663 0.610013
Si Si8 0.167260 0.195703 0.530563
O O1 0.750000 0.449869 0.250000
O O2 0.794090 0.390343 0.174830
O O3 0.782064 0.483997 0.160764
O O4 0.000000 0.447405 0.210498
O O5 0.500000 0.859194 0.532247
O O6 0.641094 0.823030 0.604986
O O7 0.768411 0.888962 0.559418
O O8 0.732849 0.804261 0.516860
O O9 0.500000 0.750000 0.790224
O O10 0.750000 0.750000 0.750000
O O11 0.712012 0.700037 0.824256
O O12 0.000000 0.323881 0.184586
O O13 0.500000 0.088511 0.912996
O O14 0.768166 0.064887 0.892061
O O15 0.712333 0.149373 0.935680
O O16 0.681825 0.062432 0.981779
O O17 0.500000 0.055362 0.054987
O O18 0.757651 0.017686 0.063865
O O19 0.500000 0.007553 0.603819
O O20 0.186967 0.250000 0.555248
O O21 0.000000 0.187720 0.515034
#
# Coordination Sequence:
#
# PCOD8298627 Si02
#       8
#    16  16   8  16  16  16  16  16
#     4  10  22  39  56  76  99 128 167 210 258 313
#     4  10  19  32  50  73 100 129 164 209 254 296
#     4  12  26  40  54  72  90 116 160 212 268 320
#     4  10  21  39  56  71  97 127 162 212 263 310
#     4   9  19  33  49  74 104 136 173 208 246 298
#     4  10  19  32  50  72 101 133 168 205 244 296
#     4  11  21  34  51  75 105 134 166 209 258 306
#     4   9  19  35  52  72 104 140 174 212 249 293
#
# _framework density 17.238524999999999
#
# number of rings (size 3 to 8) (size 9 to 14) (size 15 to 20)
#    0.000    2.000    1.333    3.400    0.933    8.267 
#    0.000    0.000    0.000    0.000    0.000    0.000 
#    0.000    0.533    0.000    1.200    0.000    1.867 
#
# Total GULP energy -743496.762510 kJ/mol
# GULP energy per Si atom -12391.612708 kJ/mol
# Density = 1.719929 g / cm^3
# Si number density = 17.238525 Si / 1000 Ang^3
#
#
#
# Elastic Constant Matrix: (Units=GPa)
#
#
# Indices 1 2 3 4 5 6 
#
# 1 99.9593 54.4529 40.1762 0.0000 0.0000 0.0000
# 2 54.4529 122.4391 54.0970 0.0000 0.0000 0.0000
# 3 40.1762 54.0970 50.7405 0.0000 0.0000 0.0000
# 4 0.0000 0.0000 0.0000 13.8699 0.0000 0.0000
# 5 0.0000 0.0000 0.0000 0.0000 24.5073 0.0000
# 6 0.0000 0.0000 0.0000 0.0000 0.0000 25.5809
#
#
#
# Elastic Compliance Matrix: (Units=1/GPa)
#
#
# Indices 1 2 3 4 5 6 
#
# 1 0.015137 -0.002716 -0.009090 0.000000 0.000000 0.000000
# 2 -0.002716 0.015928 -0.014831 0.000000 0.000000 0.000000
# 3 -0.009090 -0.014831 0.042718 0.000000 0.000000 0.000000
# 4 0.000000 0.000000 0.000000 0.072099 0.000000 0.000000
# 5 0.000000 0.000000 0.000000 0.000000 0.040804 0.000000
# 6 0.000000 0.000000 0.000000 0.000000 0.000000 0.039092
#
#
# Mechanical properties :
#
#
# Convention : Reuss Voigt Hill
#
# Bulk Modulus (GPa) = 48.75958 63.39902 56.07930
# Shear Modulus (GPa) = 17.48934 21.08579 19.28757
#
# Velocity S-wave (km/s) = 3.18865 3.50119 3.34857
# Velocity P-wave (km/s) = 6.47328 7.29396 6.89584
#
# Compressibility (1/GPa) = 0.02050879
#
# Stress axis : x y z
#
# Youngs Moduli (GPa) = 66.06330 62.78258 23.40923
#
# Poissons Ratio (x) = 0.17050 0.21279
# Poissons Ratio (y) = 0.17941 0.34719
# Poissons Ratio (z) = 0.60053 0.93115
#
# Static dielectric constant tensor:
#      x y z
#    x 3.180510 0.000000 0.000000 
#    y 0.000000 3.355980 0.000000 
#    z 0.000000 0.000000 2.930830 
# 
# 
# High freq. dielectric constant tensor:
#      x y z
#    x 1.677470 0.000000 0.000000 
#    y 0.000000 1.663780 0.000000 
#    z 0.000000 0.000000 1.621420 
# 
# From -- ./inp_files/65040.got.cif
#   From: 2010.03.12/outbox.cif.g09.slc.cpg/sg74_33_cif.got.tgz:65040.got - 2010.04.16 15:46:19.
