data_PCOD8298169
_publ_section_title
;
Structure prediction by ZEFSAII (Michael W. Deem and Ramdas Pophale) SiO2 
 PCOD8298169
Probable space group: I M M A
;
_chemical_formula_sum "Si O2"
_cell_formula_units_Z 104
_cell_length_a 9.057303
_cell_length_b 23.596134
_cell_length_c 36.314646
_cell_angle_alpha 90.000000
_cell_angle_beta 90.000000
_cell_angle_gamma 90.000000
_cell_volume 7761.069374
_symmetry_space_group_name_H-M "I M M A"
_symmetry_group_IT_number 74
_symmetry_cell_setting 'orthorhombic'
loop_
_space_group_symop_operation_xyz
x,y,z
-x,1/2-y,z
x,-y,-z
-x,1/2+y,-z
-x,-y,-z
x,1/2+y,-z
-x,y,z
x,1/2-y,z
1/2+x,1/2+y,1/2+z
1/2-x,-y,1/2+z
1/2+x,1/2-y,1/2-z
1/2-x,y,1/2-z
1/2-x,1/2-y,1/2-z
1/2+x,y,1/2-z
1/2-x,1/2+y,1/2+z
1/2+x,-y,1/2+z
loop_
_atom_site_type_symbol
_atom_site_label
_atom_site_fract_x
_atom_site_fract_y
_atom_site_fract_z
Si Si1 0.167512 0.250000 0.712614
Si Si2 0.834131 0.879119 0.470333
Si Si3 0.670754 0.814101 0.411475
Si Si4 0.825784 0.915309 0.141722
Si Si5 0.833074 0.985343 0.416387
Si Si6 0.674009 0.126884 0.789687
Si Si7 0.833198 0.553403 0.973030
O O1 0.250000 0.250000 0.750000
O O2 0.203516 0.309762 0.692724
O O3 0.000000 0.250000 0.724749
O O4 0.760818 0.826911 0.448679
O O5 0.833426 0.933590 0.444455
O O6 0.743377 0.892900 0.507351
O O7 0.000000 0.862214 0.481455
O O8 0.500000 0.822400 0.421406
O O9 0.705607 0.750000 0.398452
O O10 0.716080 0.856780 0.378927
O O11 0.760256 0.968660 0.119645
O O12 0.749931 0.915910 0.181789
O O13 0.000000 0.922978 0.146037
O O14 0.000000 0.001536 0.405094
O O15 0.755819 0.039049 0.435764
O O16 0.500000 0.113903 0.786142
O O17 0.750000 0.119737 0.750000
O O18 0.000000 0.570000 0.962516
O O19 0.832026 0.500000 0.000000
#
# Coordination Sequence:
#
# PCOD8298169 Si02
#       7
#     8  16  16  16  16  16  16
#     4   8  16  28  40  52  64  78 100 132 168 206
#     4   9  16  25  37  53  70  89 113 139 167 201
#     4   9  18  30  40  51  69  93 118 144 176 213
#     4  10  19  29  41  55  71  90 113 141 176 218
#     4   9  16  26  38  53  72  90 109 135 167 204
#     4  10  19  31  43  55  68  85 109 140 176 215
#     4   9  15  23  37  54  71  90 110 133 163 200
#
# _framework density 13.400214999999999
#
# number of rings (size 3 to 8) (size 9 to 14) (size 15 to 20)
#    0.000    2.769    0.000    2.308    1.077    7.077 
#    0.000    0.000    0.000    0.000    0.000    0.000 
#    0.000    0.000    0.000    0.000    0.000    0.000 
#
# Total GULP energy -644481.427159 kJ/mol
# GULP energy per Si atom -12393.873599 kJ/mol
# Density = 1.336972 g / cm^3
# Si number density = 13.400215 Si / 1000 Ang^3
#
#
#
# Elastic Constant Matrix: (Units=GPa)
#
#
# Indices 1 2 3 4 5 6 
#
# 1 92.7379 16.6660 45.2792 0.0000 0.0000 0.0000
# 2 16.6660 13.6549 22.8016 0.0000 0.0000 0.0000
# 3 45.2792 22.8016 76.0581 0.0000 0.0000 0.0000
# 4 0.0000 0.0000 0.0000 18.0815 0.0000 0.0000
# 5 0.0000 0.0000 0.0000 0.0000 23.8923 0.0000
# 6 0.0000 0.0000 0.0000 0.0000 0.0000 15.2533
#
#
#
# Elastic Compliance Matrix: (Units=1/GPa)
#
#
# Indices 1 2 3 4 5 6 
#
# 1 0.015533 -0.007042 -0.007136 0.000000 0.000000 0.000000
# 2 -0.007042 0.149839 -0.040728 0.000000 0.000000 0.000000
# 3 -0.007136 -0.040728 0.029606 0.000000 0.000000 0.000000
# 4 0.000000 0.000000 0.000000 0.055305 0.000000 0.000000
# 5 0.000000 0.000000 0.000000 0.000000 0.041854 0.000000
# 6 0.000000 0.000000 0.000000 0.000000 0.000000 0.065559
#
#
# Mechanical properties :
#
#
# Convention : Reuss Voigt Hill
#
# Bulk Modulus (GPa) = 11.74187 39.10496 25.42341
# Shear Modulus (GPa) = 10.08274 17.95903 14.02089
#
# Velocity S-wave (km/s) = 2.74602 3.66485 3.23819
# Velocity P-wave (km/s) = 4.34001 6.86687 5.74411
#
# Compressibility (1/GPa) = 0.08516534
#
# Stress axis : x y z
#
# Youngs Moduli (GPa) = 64.38042 6.67384 33.77711
#
# Poissons Ratio (x) = 0.04700 0.24103
# Poissons Ratio (y) = 0.45338 1.37567
# Poissons Ratio (z) = 0.45940 0.27181
#
# Static dielectric constant tensor:
#      x y z
#    x 2.846050 0.000000 0.000000 
#    y 0.000000 2.359510 0.000000 
#    z 0.000000 0.000000 2.501610 
# 
# 
# High freq. dielectric constant tensor:
#      x y z
#    x 1.532150 0.000000 0.000000 
#    y 0.000000 1.451390 0.000000 
#    z 0.000000 0.000000 1.485830 
# 
# From -- ./inp_files/64981.got.cif
#   From: 2010.03.12/outbox.cif.g09.slc.cpg/sg74_33_cif.got.tgz:64981.got - 2010.04.16 15:46:19.
