data_PCOD8298272
_publ_section_title
;
Structure prediction by ZEFSAII (Michael W. Deem and Ramdas Pophale) SiO2 
 PCOD8298272
Probable space group: I M M A
;
_chemical_formula_sum "Si O2"
_cell_formula_units_Z 60
_cell_length_a 11.605679
_cell_length_b 10.526756
_cell_length_c 29.225408
_cell_angle_alpha 90.000000
_cell_angle_beta 90.000000
_cell_angle_gamma 90.000000
_cell_volume 3570.472510
_symmetry_space_group_name_H-M "I M M A"
_symmetry_group_IT_number 74
_symmetry_cell_setting 'orthorhombic'
loop_
_space_group_symop_operation_xyz
x,y,z
-x,1/2-y,z
x,-y,-z
-x,1/2+y,-z
-x,-y,-z
x,1/2+y,-z
-x,y,z
x,1/2-y,z
1/2+x,1/2+y,1/2+z
1/2-x,-y,1/2+z
1/2+x,1/2-y,1/2-z
1/2-x,y,1/2-z
1/2-x,1/2-y,1/2-z
1/2+x,y,1/2-z
1/2-x,1/2+y,1/2+z
1/2+x,-y,1/2+z
loop_
_atom_site_type_symbol
_atom_site_label
_atom_site_fract_x
_atom_site_fract_y
_atom_site_fract_z
Si Si1 0.792663 0.891307 0.201760
Si Si2 0.253418 0.750000 0.457155
Si Si3 0.500000 0.750000 0.414364
Si Si4 0.863883 0.750000 0.360294
Si Si5 0.192360 0.500000 0.000000
Si Si6 0.000000 0.010829 0.848931
Si Si7 0.500000 0.606969 0.561185
O O1 0.847819 0.750000 0.210146
O O2 0.750000 0.948042 0.250000
O O3 0.687696 0.875481 0.165215
O O4 0.886947 0.989025 0.182712
O O5 0.389205 0.750000 0.446532
O O6 0.172977 0.750000 0.412922
O O7 0.228082 0.621300 0.486250
O O8 0.500000 0.630710 0.381853
O O9 0.000000 0.750000 0.356079
O O10 0.113457 0.535035 0.956508
O O11 0.000000 0.891007 0.883218
O O12 0.500000 0.750000 0.542693
#
# Coordination Sequence:
#
# PCOD8298272 Si02
#       7
#    16   8   4   8   8   8   8
#     4   9  18  27  46  74 101 128 159 198 257 303
#     4  12  20  33  48  74 101 140 161 208 258 301
#     4  12  14  26  48  70  96 120 154 182 256 302
#     4  10  19  30  45  68 101 137 166 208 248 302
#     4  11  20  30  49  72 106 132 169 207 256 306
#     4  12  17  30  50  71 106 129 156 200 256 307
#     4  11  20  29  46  77 103 131 165 207 255 305
#
# _framework density 16.804499
#
# number of rings (size 3 to 8) (size 9 to 14) (size 15 to 20)
#    0.800    0.533    8.000    0.800    1.867    0.000 
#    0.000    0.667    0.000    0.800    0.000    0.000 
#    0.000    0.000    0.000    0.000    0.000    0.000 
#
# Total GULP energy -371831.329058 kJ/mol
# GULP energy per Si atom -12394.377635 kJ/mol
# Density = 1.676625 g / cm^3
# Si number density = 16.804499 Si / 1000 Ang^3
#
#
#
# Elastic Constant Matrix: (Units=GPa)
#
#
# Indices 1 2 3 4 5 6 
#
# 1 95.5494 13.3478 45.5595 0.0000 0.0000 0.0000
# 2 13.3478 75.1884 30.0177 0.0000 0.0000 0.0000
# 3 45.5595 30.0177 119.9048 0.0000 0.0000 0.0000
# 4 0.0000 0.0000 0.0000 19.4897 0.0000 0.0000
# 5 0.0000 0.0000 0.0000 0.0000 20.5522 0.0000
# 6 0.0000 0.0000 0.0000 0.0000 0.0000 4.9101
#
#
#
# Elastic Compliance Matrix: (Units=1/GPa)
#
#
# Indices 1 2 3 4 5 6 
#
# 1 0.012791 -0.000367 -0.004768 0.000000 0.000000 0.000000
# 2 -0.000367 0.014787 -0.003562 0.000000 0.000000 0.000000
# 3 -0.004768 -0.003562 0.011043 0.000000 0.000000 0.000000
# 4 0.000000 0.000000 0.000000 0.051309 0.000000 0.000000
# 5 0.000000 0.000000 0.000000 0.000000 0.048657 0.000000
# 6 0.000000 0.000000 0.000000 0.000000 0.000000 0.203660
#
#
# Mechanical properties :
#
#
# Convention : Reuss Voigt Hill
#
# Bulk Modulus (GPa) = 47.11166 52.05475 49.58320
# Shear Modulus (GPa) = 13.63445 22.43825 18.03635
#
# Velocity S-wave (km/s) = 2.85152 3.65807 3.27969
# Velocity P-wave (km/s) = 6.24000 6.99185 6.62660
#
# Compressibility (1/GPa) = 0.02122617
#
# Stress axis : x y z
#
# Youngs Moduli (GPa) = 78.18273 67.62541 90.55106
#
# Poissons Ratio (x) = 0.02482 0.43175
# Poissons Ratio (y) = 0.02870 0.32259
# Poissons Ratio (z) = 0.37278 0.24091
#
# Static dielectric constant tensor:
#      x y z
#    x 2.882330 0.000000 0.000000 
#    y 0.000000 9.144660 0.000000 
#    z 0.000000 0.000000 3.291540 
# 
# 
# High freq. dielectric constant tensor:
#      x y z
#    x 1.607720 0.000000 0.000000 
#    y 0.000000 1.606790 0.000000 
#    z 0.000000 0.000000 1.659920 
# 
# From -- ./inp_files/65668.got.cif
#   From: 2010.03.12/outbox.cif.g09.slc.cpg/sg74_33_cif.got.tgz:65668.got - 2010.04.16 15:46:19.
