data_PCOD8298610
_publ_section_title
;
Structure prediction by ZEFSAII (Michael W. Deem and Ramdas Pophale) SiO2 
 PCOD8298610
Probable space group: I M M A
;
_chemical_formula_sum "Si O2"
_cell_formula_units_Z 96
_cell_length_a 16.558425
_cell_length_b 18.179990
_cell_length_c 20.398109
_cell_angle_alpha 90.000000
_cell_angle_beta 90.000000
_cell_angle_gamma 90.000000
_cell_volume 6140.483567
_symmetry_space_group_name_H-M "I M M A"
_symmetry_group_IT_number 74
_symmetry_cell_setting 'orthorhombic'
loop_
_space_group_symop_operation_xyz
x,y,z
-x,1/2-y,z
x,-y,-z
-x,1/2+y,-z
-x,-y,-z
x,1/2+y,-z
-x,y,z
x,1/2-y,z
1/2+x,1/2+y,1/2+z
1/2-x,-y,1/2+z
1/2+x,1/2-y,1/2-z
1/2-x,y,1/2-z
1/2-x,1/2-y,1/2-z
1/2+x,y,1/2-z
1/2-x,1/2+y,1/2+z
1/2+x,-y,1/2+z
loop_
_atom_site_type_symbol
_atom_site_label
_atom_site_fract_x
_atom_site_fract_y
_atom_site_fract_z
Si Si1 0.763695 0.903751 0.893237
Si Si2 0.095559 0.404852 0.601495
Si Si3 0.808692 0.000000 0.500000
Si Si4 0.812488 0.750000 0.591460
Si Si5 0.407815 0.896830 0.696538
Si Si6 0.094037 0.750000 0.455511
Si Si7 0.154466 0.750000 0.736535
Si Si8 0.325874 0.499287 0.791381
O O1 0.752673 0.951138 0.958283
O O2 0.745079 0.820026 0.909720
O O3 0.855706 0.908572 0.869138
O O4 0.703361 0.933938 0.837578
O O5 0.130888 0.451465 0.542257
O O6 0.118884 0.320254 0.588046
O O7 0.136124 0.430961 0.669334
O O8 0.000000 0.417234 0.605267
O O9 0.867772 0.750000 0.527462
O O10 0.864743 0.750000 0.658608
O O11 0.500000 0.895266 0.674418
O O12 0.384791 0.821402 0.731889
O O13 0.393725 0.965853 0.744738
O O14 0.000000 0.750000 0.470212
O O15 0.250000 0.750000 0.750000
O O16 0.250000 0.468389 0.750000
#
# Coordination Sequence:
#
# PCOD8298610 Si02
#       8
#    16  16   8   8  16   8   8  16
#     4  10  19  32  50  67  95 129 161 196 237 286
#     4  10  19  32  49  72  98 125 158 202 240 281
#     4  10  19  32  49  70  92 130 168 194 239 290
#     4  12  18  33  48  65 100 137 160 183 236 288
#     4  11  20  31  47  72  98 127 163 200 237 280
#     4  10  22  34  46  71 103 126 157 196 237 281
#     4  12  19  31  46  68 100 134 160 191 234 283
#     4   9  18  33  50  70  97 127 157 195 241 291
#
# _framework density 15.633948
#
# number of rings (size 3 to 8) (size 9 to 14) (size 15 to 20)
#    0.000    1.667    5.000    1.500    0.000    0.667 
#    0.000    0.833    0.000    0.000    0.000    0.000 
#    0.000    0.000    0.000    0.000    0.000    0.000 
#
# Total GULP energy -595196.064882 kJ/mol
# GULP energy per Si atom -12399.918018 kJ/mol
# Density = 1.559836 g / cm^3
# Si number density = 15.633948 Si / 1000 Ang^3
#
#
#
# Elastic Constant Matrix: (Units=GPa)
#
#
# Indices 1 2 3 4 5 6 
#
# 1 96.7916 48.0298 46.8316 0.0000 0.0000 0.0000
# 2 48.0298 110.6076 60.2551 0.0000 0.0000 0.0000
# 3 46.8316 60.2551 94.3690 0.0000 0.0000 0.0000
# 4 0.0000 0.0000 0.0000 18.3448 0.0000 0.0000
# 5 0.0000 0.0000 0.0000 0.0000 25.9800 0.0000
# 6 0.0000 0.0000 0.0000 0.0000 0.0000 19.8872
#
#
#
# Elastic Compliance Matrix: (Units=1/GPa)
#
#
# Indices 1 2 3 4 5 6 
#
# 1 0.014494 -0.003642 -0.004867 0.000000 0.000000 0.000000
# 2 -0.003642 0.014778 -0.007629 0.000000 0.000000 0.000000
# 3 -0.004867 -0.007629 0.017883 0.000000 0.000000 0.000000
# 4 0.000000 0.000000 0.000000 0.054511 0.000000 0.000000
# 5 0.000000 0.000000 0.000000 0.000000 0.038491 0.000000
# 6 0.000000 0.000000 0.000000 0.000000 0.000000 0.050283
#
#
# Mechanical properties :
#
#
# Convention : Reuss Voigt Hill
#
# Bulk Modulus (GPa) = 67.20782 68.00012 67.60397
# Shear Modulus (GPa) = 21.96100 22.61919 22.29010
#
# Velocity S-wave (km/s) = 3.75200 3.80781 3.78001
# Velocity P-wave (km/s) = 7.86459 7.93235 7.89854
#
# Compressibility (1/GPa) = 0.01487922
#
# Stress axis : x y z
#
# Youngs Moduli (GPa) = 68.99535 67.66660 55.91944
#
# Poissons Ratio (x) = 0.24646 0.27216
# Poissons Ratio (y) = 0.25130 0.42658
# Poissons Ratio (z) = 0.33580 0.51620
#
# Static dielectric constant tensor:
#      x y z
#    x 2.885450 0.000000 0.000000 
#    y 0.000000 3.012630 0.000000 
#    z 0.000000 0.000000 3.065790 
# 
# 
# High freq. dielectric constant tensor:
#      x y z
#    x 1.588510 0.000000 0.000000 
#    y 0.000000 1.602400 0.000000 
#    z 0.000000 0.000000 1.594680 
# 
# From -- ./inp_files/53214.got.cif
#   From: 2010.03.12/outbox.cif.g09.slc.cpg/sg74_27_cif.got.tgz:53214.got - 2010.04.16 15:46:19.
