data_PCOD8298846
_publ_section_title
;
Structure prediction by ZEFSAII (Michael W. Deem and Ramdas Pophale) SiO2 
 PCOD8298846
Probable space group: I M M A
;
_chemical_formula_sum "Si O2"
_cell_formula_units_Z 120
_cell_length_a 29.011433
_cell_length_b 9.666832
_cell_length_c 26.576636
_cell_angle_alpha 90.000000
_cell_angle_beta 90.000000
_cell_angle_gamma 90.000000
_cell_volume 7453.381658
_symmetry_space_group_name_H-M "I M M A"
_symmetry_group_IT_number 74
_symmetry_cell_setting 'orthorhombic'
loop_
_space_group_symop_operation_xyz
x,y,z
-x,1/2-y,z
x,-y,-z
-x,1/2+y,-z
-x,-y,-z
x,1/2+y,-z
-x,y,z
x,1/2-y,z
1/2+x,1/2+y,1/2+z
1/2-x,-y,1/2+z
1/2+x,1/2-y,1/2-z
1/2-x,y,1/2-z
1/2-x,1/2-y,1/2-z
1/2+x,y,1/2-z
1/2-x,1/2+y,1/2+z
1/2+x,-y,1/2+z
loop_
_atom_site_type_symbol
_atom_site_label
_atom_site_fract_x
_atom_site_fract_y
_atom_site_fract_z
Si Si1 0.550571 0.915071 0.233112
Si Si2 0.332799 0.100659 0.114423
Si Si3 0.717497 0.506434 0.793338
Si Si4 0.745523 0.412637 0.449660
Si Si5 0.641559 0.909777 0.280032
Si Si6 0.918968 0.588041 0.375784
Si Si7 0.500000 0.910956 0.049550
Si Si8 0.707328 0.407414 0.636239
O O1 0.500000 0.969519 0.250414
O O2 0.551108 0.750000 0.233826
O O3 0.591138 0.977049 0.268806
O O4 0.560057 0.966432 0.176496
O O5 0.356600 0.250000 0.106575
O O6 0.304470 0.113160 0.167040
O O7 0.297943 0.071328 0.068684
O O8 0.370381 0.982010 0.112866
O O9 0.750000 0.577381 0.750000
O O10 0.675101 0.427410 0.767616
O O11 0.748679 0.401375 0.826166
O O12 0.739219 0.500000 0.500000
O O13 0.732478 0.250000 0.456723
O O14 0.711988 0.484252 0.408954
O O15 0.633567 0.750000 0.288295
O O16 0.663736 0.966596 0.331660
O O17 0.909220 0.750000 0.373325
O O18 0.954657 0.549708 0.419269
O O19 0.500000 0.750000 0.035419
O O20 0.500000 0.000000 0.000000
O O21 0.699955 0.250000 0.616486
#
# Coordination Sequence:
#
# PCOD8298846 Si02
#       8
#    16  16  16  16  16  16   8  16
#     4   9  15  25  45  70  94 121 156 197 231 270
#     4  10  21  33  46  68  94 120 153 195 241 282
#     4   9  16  26  42  65  94 126 159 190 226 270
#     4  10  21  36  51  67  91 123 157 193 234 278
#     4   9  15  24  42  69  97 123 155 191 227 269
#     4  10  19  33  52  68  87 118 159 199 240 289
#     4  10  22  38  54  72  88 114 154 204 259 298
#     4   9  17  28  45  70  96 121 154 193 230 272
#
# _framework density 16.100075
#
# number of rings (size 3 to 8) (size 9 to 14) (size 15 to 20)
#    0.000    2.533    2.000    0.800    0.000    5.600 
#    0.000    4.667    0.000    0.000    0.000    0.000 
#    0.000    0.533    0.000    0.933    0.000    1.333 
#
# Total GULP energy -743391.897915 kJ/mol
# GULP energy per Si atom -12389.864965 kJ/mol
# Density = 1.606343 g / cm^3
# Si number density = 16.100075 Si / 1000 Ang^3
#
#
#
# Elastic Constant Matrix: (Units=GPa)
#
#
# Indices 1 2 3 4 5 6 
#
# 1 113.1895 35.0691 61.2115 0.0000 0.0000 0.0000
# 2 35.0691 61.7241 45.0093 0.0000 0.0000 0.0000
# 3 61.2115 45.0093 102.5883 0.0000 0.0000 0.0000
# 4 0.0000 0.0000 0.0000 17.1997 0.0000 0.0000
# 5 0.0000 0.0000 0.0000 0.0000 16.7021 0.0000
# 6 0.0000 0.0000 0.0000 0.0000 0.0000 13.5811
#
#
#
# Elastic Compliance Matrix: (Units=1/GPa)
#
#
# Indices 1 2 3 4 5 6 
#
# 1 0.013323 -0.002607 -0.006806 0.000000 0.000000 0.000000
# 2 -0.002607 0.024333 -0.009120 0.000000 0.000000 0.000000
# 3 -0.006806 -0.009120 0.017810 0.000000 0.000000 0.000000
# 4 0.000000 0.000000 0.000000 0.058140 0.000000 0.000000
# 5 0.000000 0.000000 0.000000 0.000000 0.059873 0.000000
# 6 0.000000 0.000000 0.000000 0.000000 0.000000 0.073632
#
#
# Mechanical properties :
#
#
# Convention : Reuss Voigt Hill
#
# Bulk Modulus (GPa) = 54.34795 62.23128 58.28962
# Shear Modulus (GPa) = 17.22303 18.57738 17.90021
#
# Velocity S-wave (km/s) = 3.27425 3.40055 3.33800
# Velocity P-wave (km/s) = 6.93714 7.35901 7.15119
#
# Compressibility (1/GPa) = 0.01839996
#
# Stress axis : x y z
#
# Youngs Moduli (GPa) = 75.05931 41.09691 56.14876
#
# Poissons Ratio (x) = 0.10713 0.38213
# Poissons Ratio (y) = 0.19566 0.51209
# Poissons Ratio (z) = 0.51083 0.37482
#
# Static dielectric constant tensor:
#      x y z
#    x 3.328560 0.000000 0.000000 
#    y 0.000000 2.788280 0.000000 
#    z 0.000000 0.000000 3.079140 
# 
# 
# High freq. dielectric constant tensor:
#      x y z
#    x 1.608960 0.000000 0.000000 
#    y 0.000000 1.594420 0.000000 
#    z 0.000000 0.000000 1.606120 
# 
# From -- ./inp_files/62507.got.cif
#   From: 2010.03.12/outbox.cif.g09.slc.cpg/sg74_32_cif.got.tgz:62507.got - 2010.04.16 15:46:19.
