data_PCOD8298516
_publ_section_title
;
Structure prediction by ZEFSAII (Michael W. Deem and Ramdas Pophale) SiO2 
 PCOD8298516
Probable space group: I M M A
;
_chemical_formula_sum "Si O2"
_cell_formula_units_Z 80
_cell_length_a 16.480672
_cell_length_b 23.886850
_cell_length_c 11.314096
_cell_angle_alpha 90.000000
_cell_angle_beta 90.000000
_cell_angle_gamma 90.000000
_cell_volume 4454.035333
_symmetry_space_group_name_H-M "I M M A"
_symmetry_group_IT_number 74
_symmetry_cell_setting 'orthorhombic'
loop_
_space_group_symop_operation_xyz
x,y,z
-x,1/2-y,z
x,-y,-z
-x,1/2+y,-z
-x,-y,-z
x,1/2+y,-z
-x,y,z
x,1/2-y,z
1/2+x,1/2+y,1/2+z
1/2-x,-y,1/2+z
1/2+x,1/2-y,1/2-z
1/2-x,y,1/2-z
1/2-x,1/2-y,1/2-z
1/2+x,y,1/2-z
1/2-x,1/2+y,1/2+z
1/2+x,-y,1/2+z
loop_
_atom_site_type_symbol
_atom_site_label
_atom_site_fract_x
_atom_site_fract_y
_atom_site_fract_z
Si Si1 0.802503 0.632968 0.473556
Si Si2 0.821335 0.851276 0.835583
Si Si3 0.595652 0.750000 0.551419
Si Si4 0.789670 0.018445 0.625348
Si Si5 0.594210 0.077208 0.155247
Si Si6 0.248921 0.750000 0.388380
O O1 0.720151 0.623628 0.547756
O O2 0.802934 0.585629 0.371056
O O3 0.880946 0.622995 0.555969
O O4 0.803441 0.695979 0.425686
O O5 0.750000 0.826918 0.750000
O O6 0.886294 0.803548 0.867321
O O7 0.868687 0.903017 0.779279
O O8 0.500000 0.750000 0.511641
O O9 0.659079 0.750000 0.440585
O O10 0.750000 0.000346 0.750000
O O11 0.745021 0.000000 0.500000
O O12 0.874006 0.984338 0.621504
O O13 0.500000 0.073558 0.167320
O O14 0.250000 0.750000 0.250000
#
# Coordination Sequence:
#
# PCOD8298516 Si02
#       6
#    16  16   8  16  16   8
#     4   9  19  33  53  75 100 136 177 215 256 315
#     4   9  17  32  51  76 105 139 174 208 256 319
#     4  10  19  31  52  79 106 135 171 216 266 316
#     4  10  19  33  54  76 100 136 178 217 261 315
#     4  10  19  31  50  78 109 135 166 214 268 315
#     4  10  20  37  56  73  98 137 181 218 259 314
#
# _framework density 17.96124
#
# number of rings (size 3 to 8) (size 9 to 14) (size 15 to 20)
#    0.000    2.400    0.000    4.500    0.000    6.000 
#    0.000    2.500    0.000   15.000    0.000    0.000 
#    0.000    0.000    0.000    0.000    0.000    0.000 
#
# Total GULP energy -495531.217320 kJ/mol
# GULP energy per Si atom -12388.280433 kJ/mol
# Density = 1.792036 g / cm^3
# Si number density = 17.961240 Si / 1000 Ang^3
#
#
#
# Elastic Constant Matrix: (Units=GPa)
#
#
# Indices 1 2 3 4 5 6 
#
# 1 81.1853 42.0902 27.4101 0.0000 0.0000 0.0000
# 2 42.0902 143.0456 47.8701 0.0000 0.0000 0.0000
# 3 27.4101 47.8701 100.9889 0.0000 0.0000 0.0000
# 4 0.0000 0.0000 0.0000 27.3986 0.0000 0.0000
# 5 0.0000 0.0000 0.0000 0.0000 10.8037 0.0000
# 6 0.0000 0.0000 0.0000 0.0000 0.0000 15.8552
#
#
#
# Elastic Compliance Matrix: (Units=1/GPa)
#
#
# Indices 1 2 3 4 5 6 
#
# 1 0.014990 -0.003624 -0.002351 0.000000 0.000000 0.000000
# 2 -0.003624 0.009185 -0.003370 0.000000 0.000000 0.000000
# 3 -0.002351 -0.003370 0.012138 0.000000 0.000000 0.000000
# 4 0.000000 0.000000 0.000000 0.036498 0.000000 0.000000
# 5 0.000000 0.000000 0.000000 0.000000 0.092561 0.000000
# 6 0.000000 0.000000 0.000000 0.000000 0.000000 0.063071
#
#
# Mechanical properties :
#
#
# Convention : Reuss Voigt Hill
#
# Bulk Modulus (GPa) = 56.74483 62.21785 59.48134
# Shear Modulus (GPa) = 19.76231 24.66813 22.21522
#
# Velocity S-wave (km/s) = 3.32064 3.70997 3.52069
# Velocity P-wave (km/s) = 6.80909 7.28472 7.05092
#
# Compressibility (1/GPa) = 0.01762275
#
# Stress axis : x y z
#
# Youngs Moduli (GPa) = 66.71105 108.87372 82.38863
#
# Poissons Ratio (x) = 0.39456 0.19367
# Poissons Ratio (y) = 0.24176 0.27766
# Poissons Ratio (z) = 0.15682 0.36692
#
# Static dielectric constant tensor:
#      x y z
#    x 3.027110 0.000000 0.000000 
#    y 0.000000 5.736780 0.000000 
#    z 0.000000 0.000000 3.525420 
# 
# 
# High freq. dielectric constant tensor:
#      x y z
#    x 1.658820 0.000000 0.000000 
#    y 0.000000 1.707560 0.000000 
#    z 0.000000 0.000000 1.694960 
# 
# From -- ./inp_files/20546.got.cif
#   From: 2010.03.12/outbox.cif.g09.slc.cpg/sg74_11_cif.got.tgz:20546.got - 2010.04.16 15:46:19.
