data_PCOD8298418
_publ_section_title
;
Structure prediction by ZEFSAII (Michael W. Deem and Ramdas Pophale) SiO2 
 PCOD8298418
Probable space group: I M M A
;
_chemical_formula_sum "Si O2"
_cell_formula_units_Z 96
_cell_length_a 21.053278
_cell_length_b 8.914282
_cell_length_c 28.234399
_cell_angle_alpha 90.000000
_cell_angle_beta 90.000000
_cell_angle_gamma 90.000000
_cell_volume 5298.886798
_symmetry_space_group_name_H-M "I M M A"
_symmetry_group_IT_number 74
_symmetry_cell_setting 'orthorhombic'
loop_
_space_group_symop_operation_xyz
x,y,z
-x,1/2-y,z
x,-y,-z
-x,1/2+y,-z
-x,-y,-z
x,1/2+y,-z
-x,y,z
x,1/2-y,z
1/2+x,1/2+y,1/2+z
1/2-x,-y,1/2+z
1/2+x,1/2-y,1/2-z
1/2-x,y,1/2-z
1/2-x,1/2-y,1/2-z
1/2+x,y,1/2-z
1/2-x,1/2+y,1/2+z
1/2+x,-y,1/2+z
loop_
_atom_site_type_symbol
_atom_site_label
_atom_site_fract_x
_atom_site_fract_y
_atom_site_fract_z
Si Si1 0.807076 0.425261 0.719264
Si Si2 0.930899 0.574090 0.051064
Si Si3 0.804432 0.425439 0.609449
Si Si4 0.306831 0.571605 0.551772
Si Si5 0.068645 0.418598 0.279183
Si Si6 0.069864 0.919178 0.608318
O O1 0.808679 0.250000 0.726373
O O2 0.750000 0.496633 0.750000
O O3 0.797949 0.468507 0.664560
O O4 0.873428 0.484212 0.740801
O O5 0.915742 0.750000 0.046275
O O6 0.871612 0.491941 0.076997
O O7 0.000000 0.550009 0.076591
O O8 0.935333 0.500000 0.000000
O O9 0.793613 0.250000 0.600064
O O10 0.752712 0.523323 0.582770
O O11 0.874419 0.471038 0.589905
O O12 0.299585 0.500000 0.500000
O O13 0.309702 0.750000 0.548110
O O14 0.077609 0.250000 0.260723
O O15 0.069250 0.422731 0.335460
O O16 0.000000 0.481370 0.261400
O O17 0.083547 0.750000 0.590533
O O18 0.000000 0.972239 0.589720
#
# Coordination Sequence:
#
# PCOD8298418 Si02
#       6
#    16  16  16  16  16  16
#     4   9  18  31  47  69  96 125 157 193 232 276
#     4   9  16  27  45  69  95 121 152 191 233 275
#     4  10  19  31  48  70  97 126 158 195 234 278
#     4  11  21  33  50  71  97 126 158 194 234 280
#     4   8  14  25  42  65  91 118 151 192 234 274
#     4   8  14  26  44  66  92 120 152 191 233 276
#
# _framework density 18.117013
#
# number of rings (size 3 to 8) (size 9 to 14) (size 15 to 20)
#    0.000    2.833    0.000    4.500    0.000    2.667 
#    0.000    3.333    0.000    1.500    0.000    2.333 
#    0.000    0.000    0.000    0.000    0.000    0.000 
#
# Total GULP energy -594698.972090 kJ/mol
# GULP energy per Si atom -12389.561919 kJ/mol
# Density = 1.807578 g / cm^3
# Si number density = 18.117013 Si / 1000 Ang^3
#
#
#
# Elastic Constant Matrix: (Units=GPa)
#
#
# Indices 1 2 3 4 5 6 
#
# 1 197.1450 70.6871 42.2089 0.0000 0.0000 0.0000
# 2 70.6871 96.3451 29.6618 0.0000 0.0000 0.0000
# 3 42.2089 29.6618 25.0084 0.0000 0.0000 0.0000
# 4 0.0000 0.0000 0.0000 14.5481 0.0000 0.0000
# 5 0.0000 0.0000 0.0000 0.0000 22.2502 0.0000
# 6 0.0000 0.0000 0.0000 0.0000 0.0000 38.9022
#
#
#
# Elastic Compliance Matrix: (Units=1/GPa)
#
#
# Indices 1 2 3 4 5 6 
#
# 1 0.008407 -0.002835 -0.010827 0.000000 0.000000 0.000000
# 2 -0.002835 0.017305 -0.015741 0.000000 0.000000 0.000000
# 3 -0.010827 -0.015741 0.076930 0.000000 0.000000 0.000000
# 4 0.000000 0.000000 0.000000 0.068737 0.000000 0.000000
# 5 0.000000 0.000000 0.000000 0.000000 0.044943 0.000000
# 6 0.000000 0.000000 0.000000 0.000000 0.000000 0.025705
#
#
# Mechanical properties :
#
#
# Convention : Reuss Voigt Hill
#
# Bulk Modulus (GPa) = 22.81171 67.06823 44.93997
# Shear Modulus (GPa) = 15.85058 26.86949 21.36003
#
# Velocity S-wave (km/s) = 2.96108 3.85529 3.43739
# Velocity P-wave (km/s) = 4.93045 7.54437 6.37287
#
# Compressibility (1/GPa) = 0.04383712
#
# Stress axis : x y z
#
# Youngs Moduli (GPa) = 118.95098 57.78555 12.99883
#
# Poissons Ratio (x) = 0.16381 0.14073
# Poissons Ratio (y) = 0.33719 0.20462
# Poissons Ratio (z) = 1.28785 0.90961
#
# Static dielectric constant tensor:
#      x y z
#    x 4.352700 0.000000 0.000000 
#    y 0.000000 3.411450 0.000000 
#    z 0.000000 0.000000 2.822940 
# 
# 
# High freq. dielectric constant tensor:
#      x y z
#    x 1.732830 0.000000 0.000000 
#    y 0.000000 1.704470 0.000000 
#    z 0.000000 0.000000 1.628460 
# 
# From -- ./inp_files/64353.got.cif
#   From: 2010.03.12/outbox.cif.g09.slc.cpg/sg74_33_cif.got.tgz:64353.got - 2010.04.16 15:46:19.
