data_PCOD8298567
_publ_section_title
;
Structure prediction by ZEFSAII (Michael W. Deem and Ramdas Pophale) SiO2 
 PCOD8298567
Probable space group: I M M A
;
_chemical_formula_sum "Si O2"
_cell_formula_units_Z 88
_cell_length_a 27.435623
_cell_length_b 9.016323
_cell_length_c 19.617227
_cell_angle_alpha 90.000000
_cell_angle_beta 90.000000
_cell_angle_gamma 90.000000
_cell_volume 4852.682814
_symmetry_space_group_name_H-M "I M M A"
_symmetry_group_IT_number 74
_symmetry_cell_setting 'orthorhombic'
loop_
_space_group_symop_operation_xyz
x,y,z
-x,1/2-y,z
x,-y,-z
-x,1/2+y,-z
-x,-y,-z
x,1/2+y,-z
-x,y,z
x,1/2-y,z
1/2+x,1/2+y,1/2+z
1/2-x,-y,1/2+z
1/2+x,1/2-y,1/2-z
1/2-x,y,1/2-z
1/2-x,1/2-y,1/2-z
1/2+x,y,1/2-z
1/2-x,1/2+y,1/2+z
1/2+x,-y,1/2+z
loop_
_atom_site_type_symbol
_atom_site_label
_atom_site_fract_x
_atom_site_fract_y
_atom_site_fract_z
Si Si1 0.216927 0.576184 0.336165
Si Si2 0.000000 0.424617 0.072628
Si Si3 0.810660 0.575249 0.802507
Si Si4 0.055202 0.079824 0.683398
Si Si5 0.628869 0.922025 0.071150
Si Si6 0.419791 0.422438 0.322095
O O1 0.223676 0.750000 0.320735
O O2 0.191038 0.499826 0.271653
O O3 0.269234 0.499376 0.349965
O O4 0.183674 0.549590 0.402247
O O5 0.048232 0.476882 0.113756
O O6 0.000000 0.250000 0.061179
O O7 0.000000 0.500000 0.000000
O O8 0.800747 0.750000 0.795154
O O9 0.862999 0.542478 0.836495
O O10 0.069624 0.250000 0.695738
O O11 0.090556 0.011413 0.625777
O O12 0.000000 0.062085 0.657400
O O13 0.061570 0.999514 0.754515
O O14 0.618297 0.750000 0.060078
O O15 0.620942 0.000000 0.000000
O O16 0.428447 0.250000 0.309780
#
# Coordination Sequence:
#
# PCOD8298567 Si02
#       6
#    16   8  16  16  16  16
#     4  10  19  33  52  77 109 142 178 225 272 319
#     4  10  22  40  58  82 113 144 179 218 271 332
#     4  10  19  31  53  83 108 137 177 224 272 319
#     4  10  20  35  56  82 110 141 184 230 272 322
#     4  10  22  37  53  77 110 149 188 228 275 327
#     4  10  20  35  57  83 112 142 178 225 271 322
#
# _framework density 18.134298999999999
#
# number of rings (size 3 to 8) (size 9 to 14) (size 15 to 20)
#    0.000    2.000    2.727    2.182    0.000    4.000 
#    0.000    0.909    0.000    4.364    0.000    0.000 
#    0.000    0.000    0.000    0.000    0.000    0.000 
#
# Total GULP energy -545589.067074 kJ/mol
# GULP energy per Si atom -12399.751524 kJ/mol
# Density = 1.809302 g / cm^3
# Si number density = 18.134299 Si / 1000 Ang^3
#
#
#
# Elastic Constant Matrix: (Units=GPa)
#
#
# Indices 1 2 3 4 5 6 
#
# 1 145.5580 50.8906 71.9080 0.0000 0.0000 0.0000
# 2 50.8906 73.3662 47.7247 0.0000 0.0000 0.0000
# 3 71.9080 47.7247 136.3204 0.0000 0.0000 0.0000
# 4 0.0000 0.0000 0.0000 32.2072 0.0000 0.0000
# 5 0.0000 0.0000 0.0000 0.0000 27.5768 0.0000
# 6 0.0000 0.0000 0.0000 0.0000 0.0000 25.6499
#
#
#
# Elastic Compliance Matrix: (Units=1/GPa)
#
#
# Indices 1 2 3 4 5 6 
#
# 1 0.010422 -0.004730 -0.003841 0.000000 0.000000 0.000000
# 2 -0.004730 0.019797 -0.004436 0.000000 0.000000 0.000000
# 3 -0.003841 -0.004436 0.010915 0.000000 0.000000 0.000000
# 4 0.000000 0.000000 0.000000 0.031049 0.000000 0.000000
# 5 0.000000 0.000000 0.000000 0.000000 0.036262 0.000000
# 6 0.000000 0.000000 0.000000 0.000000 0.000000 0.038986
#
#
# Mechanical properties :
#
#
# Convention : Reuss Voigt Hill
#
# Bulk Modulus (GPa) = 66.14197 77.36567 71.75382
# Shear Modulus (GPa) = 28.01366 29.40155 28.70761
#
# Velocity S-wave (km/s) = 3.93464 4.03093 3.98308
# Velocity P-wave (km/s) = 7.56270 8.02619 7.79789
#
# Compressibility (1/GPa) = 0.01511899
#
# Stress axis : x y z
#
# Youngs Moduli (GPa) = 95.95496 50.51361 91.61904
#
# Poissons Ratio (x) = 0.23894 0.35194
# Poissons Ratio (y) = 0.45388 0.40638
# Poissons Ratio (z) = 0.36859 0.22405
#
# Static dielectric constant tensor:
#      x y z
#    x 3.849630 0.000000 0.000000 
#    y 0.000000 3.362100 0.000000 
#    z 0.000000 0.000000 3.105090 
# 
# 
# High freq. dielectric constant tensor:
#      x y z
#    x 1.722160 0.000000 0.000000 
#    y 0.000000 1.703770 0.000000 
#    z 0.000000 0.000000 1.675700 
# 
# From -- ./inp_files/40066.got.cif
#   From: 2010.03.12/outbox.cif.g09.slc.cpg/sg74_21_cif.got.tgz:40066.got - 2010.04.16 15:46:19.
