data_PCOD8298566
_publ_section_title
;
Structure prediction by ZEFSAII (Michael W. Deem and Ramdas Pophale) SiO2 
 PCOD8298566
Probable space group: I M M A
;
_chemical_formula_sum "Si O2"
_cell_formula_units_Z 96
_cell_length_a 17.964040
_cell_length_b 28.547578
_cell_length_c 10.065325
_cell_angle_alpha 90.000000
_cell_angle_beta 90.000000
_cell_angle_gamma 90.000000
_cell_volume 5161.798940
_symmetry_space_group_name_H-M "I M M A"
_symmetry_group_IT_number 74
_symmetry_cell_setting 'orthorhombic'
loop_
_space_group_symop_operation_xyz
x,y,z
-x,1/2-y,z
x,-y,-z
-x,1/2+y,-z
-x,-y,-z
x,1/2+y,-z
-x,y,z
x,1/2-y,z
1/2+x,1/2+y,1/2+z
1/2-x,-y,1/2+z
1/2+x,1/2-y,1/2-z
1/2-x,y,1/2-z
1/2-x,1/2-y,1/2-z
1/2+x,y,1/2-z
1/2-x,1/2+y,1/2+z
1/2+x,-y,1/2+z
loop_
_atom_site_type_symbol
_atom_site_label
_atom_site_fract_x
_atom_site_fract_y
_atom_site_fract_z
Si Si1 0.911536 0.376919 0.217493
Si Si2 0.411675 0.966144 0.111671
Si Si3 0.088745 0.020919 0.136253
Si Si4 0.166153 0.194740 0.732612
Si Si5 0.088393 0.634630 0.480629
Si Si6 0.587984 0.196685 0.498990
O O1 0.879990 0.427059 0.167499
O O2 0.884226 0.365459 0.366476
O O3 0.000000 0.379013 0.217147
O O4 0.882028 0.336223 0.119617
O O5 0.500000 0.968424 0.103049
O O6 0.385141 0.913427 0.088048
O O7 0.383079 0.984546 0.252928
O O8 0.377198 0.000000 0.000000
O O9 0.000000 0.023193 0.131546
O O10 0.121376 0.000000 0.000000
O O11 0.163619 0.250000 0.717508
O O12 0.250000 0.176323 0.750000
O O13 0.129614 0.175540 0.598097
O O14 0.120598 0.178244 0.862044
O O15 0.000000 0.642121 0.471480
O O16 0.500000 0.193113 0.511002
O O17 0.613458 0.250000 0.468922
#
# Coordination Sequence:
#
# PCOD8298566 Si02
#       6
#    16  16  16  16  16  16
#     4   9  17  29  46  76 112 138 167 209 259 311
#     4   9  15  26  43  71 109 137 162 203 254 302
#     4   9  16  24  38  67 107 142 167 199 243 298
#     4  10  22  39  55  74 101 136 179 222 266 318
#     4  10  19  31  53  82 107 137 174 216 266 314
#     4   9  18  33  53  77 105 134 165 210 264 311
#
# _framework density 18.598165999999999
#
# number of rings (size 3 to 8) (size 9 to 14) (size 15 to 20)
#    0.000    2.667    1.667    0.500    2.333    1.667 
#    0.000    2.500    0.000    3.000    4.333    0.000 
#    0.000    0.000    0.000    0.000    0.000    0.000 
#
# Total GULP energy -595095.235665 kJ/mol
# GULP energy per Si atom -12397.817410 kJ/mol
# Density = 1.855584 g / cm^3
# Si number density = 18.598166 Si / 1000 Ang^3
#
#
#
# Elastic Constant Matrix: (Units=GPa)
#
#
# Indices 1 2 3 4 5 6 
#
# 1 24.8908 22.4400 25.7747 0.0000 -0.0001 0.0000
# 2 22.4400 89.9053 77.3542 0.0007 0.0003 0.0001
# 3 25.7747 77.3542 184.5932 0.0020 0.0002 0.0002
# 4 0.0000 0.0007 0.0020 44.3731 0.0001 0.0000
# 5 -0.0001 0.0003 0.0002 0.0001 4.7239 0.0001
# 6 0.0000 0.0001 0.0002 0.0000 0.0001 9.2250
#
#
#
# Elastic Compliance Matrix: (Units=1/GPa)
#
#
# Indices 1 2 3 4 5 6 
#
# 1 0.052811 -0.010692 -0.002894 0.000000 0.000002 0.000000
# 2 -0.010692 0.019559 -0.006703 0.000000 -0.000001 0.000000
# 3 -0.002894 -0.006703 0.008630 0.000000 0.000000 0.000000
# 4 0.000000 0.000000 0.000000 0.022536 0.000000 0.000000
# 5 0.000002 -0.000001 0.000000 0.000000 0.211688 -0.000002
# 6 0.000000 0.000000 0.000000 0.000000 -0.000002 0.108401
#
#
# Mechanical properties :
#
#
# Convention : Reuss Voigt Hill
#
# Bulk Modulus (GPa) = 24.73849 61.16966 42.95407
# Shear Modulus (GPa) = 10.46732 23.25243 16.85988
#
# Velocity S-wave (km/s) = 2.37495 3.53973 3.01414
# Velocity P-wave (km/s) = 4.56628 7.04754 5.93796
#
# Compressibility (1/GPa) = 0.04042284
#
# Stress axis : x y z
#
# Youngs Moduli (GPa) = 18.93553 51.12739 115.86955
#
# Poissons Ratio (x) = 0.54664 0.33527
# Poissons Ratio (y) = 0.20245 0.77671
# Poissons Ratio (z) = 0.05479 0.34272
#
# Static dielectric constant tensor:
#      x y z
#    x 2.844210 0.000000 0.000000 
#    y 0.000000 3.555240 0.000000 
#    z 0.000000 0.000000 3.668940 
# 
# 
# High freq. dielectric constant tensor:
#      x y z
#    x 1.656430 0.000000 0.000000 
#    y 0.000000 1.729020 0.000000 
#    z 0.000000 0.000000 1.736830 
# 
# From -- ./inp_files/12613.got.cif
#   From: 2010.03.12/outbox.cif.g09.slc.cpg/sg74_7_cif.got.tgz:12613.got - 2010.04.16 15:46:19.
