data_PCOD8298107
_publ_section_title
;
Structure prediction by ZEFSAII (Michael W. Deem and Ramdas Pophale) SiO2 
 PCOD8298107
Probable space group: I M M A
;
_chemical_formula_sum "Si O2"
_cell_formula_units_Z 88
_cell_length_a 18.962638
_cell_length_b 13.242162
_cell_length_c 19.595014
_cell_angle_alpha 90.000000
_cell_angle_beta 90.000000
_cell_angle_gamma 90.000000
_cell_volume 4920.431941
_symmetry_space_group_name_H-M "I M M A"
_symmetry_group_IT_number 74
_symmetry_cell_setting 'orthorhombic'
loop_
_space_group_symop_operation_xyz
x,y,z
-x,1/2-y,z
x,-y,-z
-x,1/2+y,-z
-x,-y,-z
x,1/2+y,-z
-x,y,z
x,1/2-y,z
1/2+x,1/2+y,1/2+z
1/2-x,-y,1/2+z
1/2+x,1/2-y,1/2-z
1/2-x,y,1/2-z
1/2-x,1/2-y,1/2-z
1/2+x,y,1/2-z
1/2-x,1/2+y,1/2+z
1/2+x,-y,1/2+z
loop_
_atom_site_type_symbol
_atom_site_label
_atom_site_fract_x
_atom_site_fract_y
_atom_site_fract_z
Si Si1 0.312108 0.966956 0.305256
Si Si2 0.419958 0.573307 0.889481
Si Si3 0.787214 0.041528 0.575748
Si Si4 0.419561 0.750000 0.980578
Si Si5 0.579768 0.636421 0.736858
Si Si6 0.162066 0.250000 0.606954
Si Si7 0.831871 0.750000 0.238692
O O1 0.250000 0.974385 0.250000
O O2 0.278203 0.995157 0.378203
O O3 0.349881 0.855050 0.301148
O O4 0.370738 0.052133 0.295587
O O5 0.500000 0.534642 0.905581
O O6 0.364295 0.482803 0.891649
O O7 0.388394 0.648455 0.947278
O O8 0.417875 0.630553 0.818277
O O9 0.785976 0.161224 0.583507
O O10 0.775441 0.000000 0.500000
O O11 0.500000 0.750000 0.958750
O O12 0.408673 0.750000 0.061395
O O13 0.500000 0.616896 0.711147
O O14 0.604145 0.750000 0.716144
O O15 0.134883 0.250000 0.685092
O O16 0.750000 0.750000 0.250000
#
# Coordination Sequence:
#
# PCOD8298107 Si02
#       7
#    16  16  16   8  16   8   8
#     4  11  20  37  58  82 109 148 192 237 282 331
#     4  10  19  33  51  76 112 154 186 214 261 327
#     4  12  23  35  53  80 111 145 187 233 283 330
#     4  10  20  32  48  72 114 157 184 211 258 325
#     4  10  20  36  58  83 113 146 181 228 287 339
#     4  12  20  34  52  74 105 148 190 229 268 329
#     4  10  18  36  60  73 105 154 191 233 282 313
#
# _framework density 17.884609000000001
#
# number of rings (size 3 to 8) (size 9 to 14) (size 15 to 20)
#    0.000    1.273    8.182    0.000    0.000    1.455 
#    3.273    1.364    0.000    0.545    0.000    0.000 
#    0.000    0.000    0.000    0.000    0.000    0.000 
#
# Total GULP energy -545243.388826 kJ/mol
# GULP energy per Si atom -12391.895201 kJ/mol
# Density = 1.784390 g / cm^3
# Si number density = 17.884609 Si / 1000 Ang^3
#
#
#
# Elastic Constant Matrix: (Units=GPa)
#
#
# Indices 1 2 3 4 5 6 
#
# 1 81.0472 65.0969 44.9329 0.0000 0.0000 0.0000
# 2 65.0969 134.0973 39.3351 0.0000 0.0000 0.0000
# 3 44.9329 39.3351 88.0384 0.0000 0.0000 0.0000
# 4 0.0000 0.0000 0.0000 22.5100 0.0000 0.0000
# 5 0.0000 0.0000 0.0000 0.0000 30.2743 0.0000
# 6 0.0000 0.0000 0.0000 0.0000 0.0000 19.1226
#
#
#
# Elastic Compliance Matrix: (Units=1/GPa)
#
#
# Indices 1 2 3 4 5 6 
#
# 1 0.024558 -0.009489 -0.008295 0.000000 0.000000 0.000000
# 2 -0.009489 0.012248 -0.000630 0.000000 0.000000 0.000000
# 3 -0.008295 -0.000630 0.015873 0.000000 0.000000 0.000000
# 4 0.000000 0.000000 0.000000 0.044425 0.000000 0.000000
# 5 0.000000 0.000000 0.000000 0.000000 0.033031 0.000000
# 6 0.000000 0.000000 0.000000 0.000000 0.000000 0.052294
#
#
# Mechanical properties :
#
#
# Convention : Reuss Voigt Hill
#
# Bulk Modulus (GPa) = 63.07479 66.87918 64.97699
# Shear Modulus (GPa) = 22.26771 24.63591 23.45181
#
# Velocity S-wave (km/s) = 3.53239 3.71548 3.62509
# Velocity P-wave (km/s) = 7.20980 7.47546 7.34383
#
# Compressibility (1/GPa) = 0.01585419
#
# Stress axis : x y z
#
# Youngs Moduli (GPa) = 40.71944 81.64468 62.99878
#
# Poissons Ratio (x) = 0.77470 0.52254
# Poissons Ratio (y) = 0.38637 0.03967
# Poissons Ratio (z) = 0.33775 0.05141
#
# Static dielectric constant tensor:
#      x y z
#    x 3.024970 0.000000 0.000000 
#    y 0.000000 3.762790 0.000000 
#    z 0.000000 0.000000 3.127020 
# 
# 
# High freq. dielectric constant tensor:
#      x y z
#    x 1.659180 0.000000 0.000000 
#    y 0.000000 1.711060 0.000000 
#    z 0.000000 0.000000 1.674100 
# 
# From -- ./inp_files/52910.got.cif
#   From: 2010.03.12/outbox.cif.g09.slc.cpg/sg74_27_cif.got.tgz:52910.got - 2010.04.16 15:46:19.
