data_PCOD8298042
_publ_section_title
;
Structure prediction by ZEFSAII (Michael W. Deem and Ramdas Pophale) SiO2 
 PCOD8298042
Probable space group: I M M A
;
_chemical_formula_sum "Si O2"
_cell_formula_units_Z 96
_cell_length_a 19.172071
_cell_length_b 17.455222
_cell_length_c 15.022727
_cell_angle_alpha 90.000000
_cell_angle_beta 90.000000
_cell_angle_gamma 90.000000
_cell_volume 5027.396986
_symmetry_space_group_name_H-M "I M M A"
_symmetry_group_IT_number 74
_symmetry_cell_setting 'orthorhombic'
loop_
_space_group_symop_operation_xyz
x,y,z
-x,1/2-y,z
x,-y,-z
-x,1/2+y,-z
-x,-y,-z
x,1/2+y,-z
-x,y,z
x,1/2-y,z
1/2+x,1/2+y,1/2+z
1/2-x,-y,1/2+z
1/2+x,1/2-y,1/2-z
1/2-x,y,1/2-z
1/2-x,1/2-y,1/2-z
1/2+x,y,1/2-z
1/2-x,1/2+y,1/2+z
1/2+x,-y,1/2+z
loop_
_atom_site_type_symbol
_atom_site_label
_atom_site_fract_x
_atom_site_fract_y
_atom_site_fract_z
Si Si1 0.922619 0.658947 0.311191
Si Si2 0.322619 0.338353 0.299888
Si Si3 0.664729 0.840836 0.024738
Si Si4 0.418172 0.161989 0.612577
Si Si5 0.421547 0.340958 0.142786
Si Si6 0.310257 0.088255 0.486997
O O1 0.925783 0.750000 0.315588
O O2 0.869474 0.625979 0.384713
O O3 0.898148 0.634665 0.212448
O O4 0.000000 0.626384 0.331332
O O5 0.331767 0.250000 0.330050
O O6 0.250000 0.348972 0.250000
O O7 0.384590 0.365048 0.234605
O O8 0.325864 0.393130 0.384575
O O9 0.660624 0.750000 0.023546
O O10 0.622239 0.874528 0.940374
O O11 0.744749 0.864171 0.022125
O O12 0.500000 0.151518 0.596019
O O13 0.396204 0.250000 0.597737
O O14 0.378104 0.108958 0.543608
O O15 0.500000 0.374532 0.141354
O O16 0.423162 0.250000 0.135201
O O17 0.292721 0.000000 0.500000
#
# Coordination Sequence:
#
# PCOD8298042 Si02
#       6
#    16  16  16  16  16  16
#     4   8  15  30  55  85 112 138 174 226 280 325
#     4  10  19  37  61  81 108 148 192 239 289 333
#     4  10  18  33  57  84 114 146 183 227 280 339
#     4   9  19  38  61  83 108 142 189 237 278 329
#     4   9  17  30  56  91 114 136 183 243 290 333
#     4  12  25  38  53  81 116 152 187 229 283 343
#
# _framework density 19.095369999999999
#
# number of rings (size 3 to 8) (size 9 to 14) (size 15 to 20)
#    0.000    2.333    1.667    3.000    0.000    3.667 
#    3.000    4.167    0.000    4.000    0.000    0.000 
#    0.000    0.000    0.000    0.000    0.000    0.000 
#
# Total GULP energy -595191.923351 kJ/mol
# GULP energy per Si atom -12399.831736 kJ/mol
# Density = 1.905191 g / cm^3
# Si number density = 19.095370 Si / 1000 Ang^3
#
#
#
# Elastic Constant Matrix: (Units=GPa)
#
#
# Indices 1 2 3 4 5 6 
#
# 1 96.3318 11.6002 53.8139 0.0000 0.0000 0.0000
# 2 11.6002 25.3848 30.9356 0.0000 0.0000 0.0000
# 3 53.8139 30.9356 141.9552 0.0000 0.0000 0.0000
# 4 0.0000 0.0000 0.0000 6.8760 0.0000 0.0000
# 5 0.0000 0.0000 0.0000 0.0000 36.0791 0.0000
# 6 0.0000 0.0000 0.0000 0.0000 0.0000 3.5647
#
#
#
# Elastic Compliance Matrix: (Units=1/GPa)
#
#
# Indices 1 2 3 4 5 6 
#
# 1 0.013170 0.000090 -0.005012 0.000000 0.000000 0.000000
# 2 0.000090 0.053640 -0.011723 0.000000 0.000000 0.000000
# 3 -0.005012 -0.011723 0.011499 0.000000 0.000000 0.000000
# 4 0.000000 0.000000 0.000000 0.145434 0.000000 0.000000
# 5 0.000000 0.000000 0.000000 0.000000 0.027717 0.000000
# 6 0.000000 0.000000 0.000000 0.000000 0.000000 0.280532
#
#
# Mechanical properties :
#
#
# Convention : Reuss Voigt Hill
#
# Bulk Modulus (GPa) = 22.21367 50.70791 36.46079
# Shear Modulus (GPa) = 8.61639 20.45876 14.53757
#
# Velocity S-wave (km/s) = 2.12652 3.27677 2.76219
# Velocity P-wave (km/s) = 4.20568 6.39758 5.41372
#
# Compressibility (1/GPa) = 0.04501733
#
# Stress axis : x y z
#
# Youngs Moduli (GPa) = 75.93066 18.64294 86.96121
#
# Poissons Ratio (x) = -0.00168 0.43586
# Poissons Ratio (y) = -0.00682 1.01949
# Poissons Ratio (z) = 0.38058 0.21856
#
# Static dielectric constant tensor:
#      x y z
#    x 3.602800 0.000000 0.000000 
#    y 0.000000 3.000390 0.000000 
#    z 0.000000 0.000000 3.760290 
# 
# 
# High freq. dielectric constant tensor:
#      x y z
#    x 1.750260 0.000000 0.000000 
#    y 0.000000 1.688660 0.000000 
#    z 0.000000 0.000000 1.756720 
# 
# From -- ./inp_files/32328.got.cif
#   From: 2010.03.12/outbox.cif.g09.slc.cpg/sg74_17_cif.got.tgz:32328.got - 2010.04.16 15:46:19.
