data_PCOD8298922
_publ_section_title
;
Structure prediction by ZEFSAII (Michael W. Deem and Ramdas Pophale) SiO2 
 PCOD8298922
Probable space group: I M M A
;
_chemical_formula_sum "Si O2"
_cell_formula_units_Z 80
_cell_length_a 8.486181
_cell_length_b 18.022064
_cell_length_c 27.533097
_cell_angle_alpha 90.000000
_cell_angle_beta 90.000000
_cell_angle_gamma 90.000000
_cell_volume 4210.870476
_symmetry_space_group_name_H-M "I M M A"
_symmetry_group_IT_number 74
_symmetry_cell_setting 'orthorhombic'
loop_
_space_group_symop_operation_xyz
x,y,z
-x,1/2-y,z
x,-y,-z
-x,1/2+y,-z
-x,-y,-z
x,1/2+y,-z
-x,y,z
x,1/2-y,z
1/2+x,1/2+y,1/2+z
1/2-x,-y,1/2+z
1/2+x,1/2-y,1/2-z
1/2-x,y,1/2-z
1/2-x,1/2-y,1/2-z
1/2+x,y,1/2-z
1/2-x,1/2+y,1/2+z
1/2+x,-y,1/2+z
loop_
_atom_site_type_symbol
_atom_site_label
_atom_site_fract_x
_atom_site_fract_y
_atom_site_fract_z
Si Si1 0.816919 0.166379 0.842571
Si Si2 0.816605 0.036620 0.101575
Si Si3 0.184079 0.977376 0.301643
Si Si4 0.814542 0.664902 0.543422
Si Si5 0.815627 0.107734 0.561232
O O1 0.773271 0.250000 0.827103
O O2 0.716254 0.110115 0.809786
O O3 0.778928 0.155314 0.899242
O O4 0.000000 0.149478 0.833812
O O5 0.774032 0.119649 0.085437
O O6 0.000000 0.020609 0.095139
O O7 0.770387 0.026252 0.157663
O O8 0.720614 0.979419 0.067557
O O9 0.250000 0.003309 0.250000
O O10 0.000000 0.992942 0.304524
O O11 0.763386 0.750000 0.548705
O O12 0.758834 0.634582 0.491281
O O13 0.000000 0.654615 0.549870
O O14 0.000000 0.122380 0.568820
#
# Coordination Sequence:
#
# PCOD8298922 Si02
#       5
#    16  16  16  16  16
#     4  10  20  33  50  76 111 146 180 219 262 309
#     4  11  22  36  55  80 109 140 177 219 264 315
#     4  11  22  38  59  79 102 134 175 221 268 318
#     4  10  21  36  54  78 109 144 181 220 263 312
#     4  10  19  33  54  78 107 146 187 220 256 306
#
# _framework density 18.998448
#
# number of rings (size 3 to 8) (size 9 to 14) (size 15 to 20)
#    0.000    1.600    0.000    8.400    0.000    7.200 
#    0.000    0.000    0.000    0.600    0.000    0.000 
#    0.000    0.000    0.000    0.000    0.000    0.000 
#
# Total GULP energy -496192.720376 kJ/mol
# GULP energy per Si atom -12404.818009 kJ/mol
# Density = 1.895521 g / cm^3
# Si number density = 18.998448 Si / 1000 Ang^3
#
#
#
# Elastic Constant Matrix: (Units=GPa)
#
#
# Indices 1 2 3 4 5 6 
#
# 1 53.9031 13.9267 15.5747 0.0000 0.0000 0.0000
# 2 13.9267 90.1244 49.3227 0.0000 0.0000 0.0000
# 3 15.5747 49.3227 103.5062 0.0000 0.0000 0.0000
# 4 0.0000 0.0000 0.0000 11.3503 0.0000 0.0000
# 5 0.0000 0.0000 0.0000 0.0000 31.4437 0.0000
# 6 0.0000 0.0000 0.0000 0.0000 0.0000 28.1563
#
#
#
# Elastic Compliance Matrix: (Units=1/GPa)
#
#
# Indices 1 2 3 4 5 6 
#
# 1 0.019637 -0.001917 -0.002041 0.000000 0.000000 0.000000
# 2 -0.001917 0.015197 -0.006953 0.000000 0.000000 0.000000
# 3 -0.002041 -0.006953 0.013282 0.000000 0.000000 0.000000
# 4 0.000000 0.000000 0.000000 0.088103 0.000000 0.000000
# 5 0.000000 0.000000 0.000000 0.000000 0.031803 0.000000
# 6 0.000000 0.000000 0.000000 0.000000 0.000000 0.035516
#
#
# Mechanical properties :
#
#
# Convention : Reuss Voigt Hill
#
# Bulk Modulus (GPa) = 38.03375 45.02021 41.52698
# Shear Modulus (GPa) = 21.35598 25.43738 23.39668
#
# Velocity S-wave (km/s) = 3.35638 3.66309 3.51309
# Velocity P-wave (km/s) = 5.92311 6.45285 6.19365
#
# Compressibility (1/GPa) = 0.02629244
#
# Stress axis : x y z
#
# Youngs Moduli (GPa) = 50.92441 65.80049 75.29104
#
# Poissons Ratio (x) = 0.12617 0.15368
# Poissons Ratio (y) = 0.09764 0.52353
# Poissons Ratio (z) = 0.10394 0.45753
#
# Static dielectric constant tensor:
#      x y z
#    x 3.480790 0.000000 0.000000 
#    y 0.000000 3.407340 0.000000 
#    z 0.000000 0.000000 3.486760 
# 
# 
# High freq. dielectric constant tensor:
#      x y z
#    x 1.747830 0.000000 0.000000 
#    y 0.000000 1.723550 0.000000 
#    z 0.000000 0.000000 1.731870 
# 
# From -- ./inp_files/67537.got.cif
#   From: 2010.03.12/outbox.cif.g09.slc.cpg/sg74_34_cif.got.tgz:67537.got - 2010.04.16 15:46:19.
