data_PCOD8298459
_publ_section_title
;
Structure prediction by ZEFSAII (Michael W. Deem and Ramdas Pophale) SiO2 
 PCOD8298459
Probable space group: I M M A
;
_chemical_formula_sum "Si O2"
_cell_formula_units_Z 72
_cell_length_a 32.780569
_cell_length_b 8.703151
_cell_length_c 13.561845
_cell_angle_alpha 90.000000
_cell_angle_beta 90.000000
_cell_angle_gamma 90.000000
_cell_volume 3869.116288
_symmetry_space_group_name_H-M "I M M A"
_symmetry_group_IT_number 74
_symmetry_cell_setting 'orthorhombic'
loop_
_space_group_symop_operation_xyz
x,y,z
-x,1/2-y,z
x,-y,-z
-x,1/2+y,-z
-x,-y,-z
x,1/2+y,-z
-x,y,z
x,1/2-y,z
1/2+x,1/2+y,1/2+z
1/2-x,-y,1/2+z
1/2+x,1/2-y,1/2-z
1/2-x,y,1/2-z
1/2-x,1/2-y,1/2-z
1/2+x,y,1/2-z
1/2-x,1/2+y,1/2+z
1/2+x,-y,1/2+z
loop_
_atom_site_type_symbol
_atom_site_label
_atom_site_fract_x
_atom_site_fract_y
_atom_site_fract_z
Si Si1 0.851886 0.079079 0.403644
Si Si2 0.500000 0.931722 0.110485
Si Si3 0.868815 0.933427 0.892277
Si Si4 0.292980 0.420503 0.272509
Si Si5 0.418718 0.429596 0.779527
O O1 0.869802 0.250000 0.422797
O O2 0.814244 0.090568 0.331748
O O3 0.833893 0.000000 0.500000
O O4 0.886760 0.967234 0.364486
O O5 0.500000 0.750000 0.096443
O O6 0.538235 0.986582 0.176635
O O7 0.500000 0.000000 0.000000
O O8 0.867931 0.750000 0.893839
O O9 0.825046 0.997595 0.850120
O O10 0.906152 0.983542 0.821475
O O11 0.876690 0.000000 0.000000
O O12 0.282416 0.250000 0.312978
O O13 0.250000 0.509809 0.250000
O O14 0.419208 0.250000 0.755714
#
# Coordination Sequence:
#
# PCOD8298459 Si02
#       5
#    16   8  16  16  16
#     4  10  19  31  49  73 101 134 169 204 250 304
#     4  10  22  36  55  82 109 138 169 208 258 314
#     4  10  20  35  56  79 104 139 179 217 261 309
#     4   8  16  31  49  71 101 134 170 213 256 301
#     4  10  20  36  55  77 105 134 170 213 257 307
#
# _framework density 18.608900999999999
#
# number of rings (size 3 to 8) (size 9 to 14) (size 15 to 20)
#    0.000    2.444    0.000    4.000    0.000    4.444 
#    0.000    0.556    0.000   22.667    0.000    0.000 
#    0.000    0.000    0.000    0.000    0.000    0.000 
#
# Total GULP energy -446049.985231 kJ/mol
# GULP energy per Si atom -12390.277368 kJ/mol
# Density = 1.856655 g / cm^3
# Si number density = 18.608901 Si / 1000 Ang^3
#
#
#
# Elastic Constant Matrix: (Units=GPa)
#
#
# Indices 1 2 3 4 5 6 
#
# 1 137.8610 29.4200 56.4876 0.0000 0.0000 0.0000
# 2 29.4200 53.1525 40.5031 0.0000 0.0000 0.0000
# 3 56.4876 40.5031 131.9118 0.0000 0.0000 0.0000
# 4 0.0000 0.0000 0.0000 32.4718 0.0000 0.0000
# 5 0.0000 0.0000 0.0000 0.0000 9.5752 0.0000
# 6 0.0000 0.0000 0.0000 0.0000 0.0000 19.4897
#
#
#
# Elastic Compliance Matrix: (Units=1/GPa)
#
#
# Indices 1 2 3 4 5 6 
#
# 1 0.009083 -0.002694 -0.003063 0.000000 0.000000 0.000000
# 2 -0.002694 0.025359 -0.006633 0.000000 0.000000 0.000000
# 3 -0.003063 -0.006633 0.010929 0.000000 0.000000 0.000000
# 4 0.000000 0.000000 0.000000 0.030796 0.000000 0.000000
# 5 0.000000 0.000000 0.000000 0.000000 0.104436 0.000000
# 6 0.000000 0.000000 0.000000 0.000000 0.000000 0.051309
#
#
# Mechanical properties :
#
#
# Convention : Reuss Voigt Hill
#
# Bulk Modulus (GPa) = 48.56071 63.97188 56.26629
# Shear Modulus (GPa) = 18.97129 25.40832 22.18981
#
# Velocity S-wave (km/s) = 3.19638 3.69912 3.45690
# Velocity P-wave (km/s) = 6.30671 7.25922 6.79967
#
# Compressibility (1/GPa) = 0.02059278
#
# Stress axis : x y z
#
# Youngs Moduli (GPa) = 110.09027 39.43333 91.50071
#
# Poissons Ratio (x) = 0.10623 0.28023
# Poissons Ratio (y) = 0.29658 0.60691
# Poissons Ratio (z) = 0.33716 0.26156
#
# Static dielectric constant tensor:
#      x y z
#    x 3.592800 0.000000 0.000000 
#    y 0.000000 3.342420 0.000000 
#    z 0.000000 0.000000 3.451300 
# 
# 
# High freq. dielectric constant tensor:
#      x y z
#    x 1.720030 0.000000 0.000000 
#    y 0.000000 1.708070 0.000000 
#    z 0.000000 0.000000 1.723470 
# 
# From -- ./inp_files/29425.got.cif
#   From: 2010.03.12/outbox.cif.g09.slc.cpg/sg74_15_cif.got.tgz:29425.got - 2010.04.16 15:46:19.
