data_PCOD8298776
_publ_section_title
;
Structure prediction by ZEFSAII (Michael W. Deem and Ramdas Pophale) SiO2 
 PCOD8298776
Probable space group: I M M A
;
_chemical_formula_sum "Si O2"
_cell_formula_units_Z 64
_cell_length_a 30.681693
_cell_length_b 7.669880
_cell_length_c 14.833265
_cell_angle_alpha 90.000000
_cell_angle_beta 90.000000
_cell_angle_gamma 90.000000
_cell_volume 3490.636655
_symmetry_space_group_name_H-M "I M M A"
_symmetry_group_IT_number 74
_symmetry_cell_setting 'orthorhombic'
loop_
_space_group_symop_operation_xyz
x,y,z
-x,1/2-y,z
x,-y,-z
-x,1/2+y,-z
-x,-y,-z
x,1/2+y,-z
-x,y,z
x,1/2-y,z
1/2+x,1/2+y,1/2+z
1/2-x,-y,1/2+z
1/2+x,1/2-y,1/2-z
1/2-x,y,1/2-z
1/2-x,1/2-y,1/2-z
1/2+x,y,1/2-z
1/2-x,1/2+y,1/2+z
1/2+x,-y,1/2+z
loop_
_atom_site_type_symbol
_atom_site_label
_atom_site_fract_x
_atom_site_fract_y
_atom_site_fract_z
Si Si1 0.049160 0.454139 0.900281
Si Si2 0.627980 0.945442 0.711875
Si Si3 0.311723 0.250000 0.671977
Si Si4 0.718497 0.250000 0.874617
Si Si5 0.155311 0.450827 0.407935
O O1 0.051010 0.250000 0.883959
O O2 0.079014 0.546007 0.825609
O O3 0.000000 0.526345 0.888748
O O4 0.066538 0.500000 0.000000
O O5 0.646402 0.750000 0.698634
O O6 0.626976 0.993769 0.818677
O O7 0.658749 0.078060 0.656807
O O8 0.291142 0.250000 0.769551
O O9 0.270473 0.250000 0.604180
O O10 0.698055 0.426869 0.914640
O O11 0.128371 0.500000 0.500000
O O12 0.170245 0.250000 0.407485
#
# Coordination Sequence:
#
# PCOD8298776 Si02
#       5
#    16  16   8   8  16
#     4  10  20  35  57  81 107 138 172 214 261 317
#     4  10  20  34  55  81 107 138 176 218 264 314
#     4   9  18  34  51  74 103 138 174 217 268 304
#     4   9  18  32  52  72 103 138 175 223 260 303
#     4  10  19  32  54  79 105 140 182 220 257 309
#
# _framework density 18.334765000000001
#
# number of rings (size 3 to 8) (size 9 to 14) (size 15 to 20)
#    0.000    2.250    2.500    0.750    0.000    2.500 
#    0.000    6.250    0.000    0.750    0.000    0.000 
#    0.000    0.000    0.000    0.000    0.000    0.000 
#
# Total GULP energy -396599.430713 kJ/mol
# GULP energy per Si atom -12393.732210 kJ/mol
# Density = 1.829303 g / cm^3
# Si number density = 18.334765 Si / 1000 Ang^3
#
#
#
# Elastic Constant Matrix: (Units=GPa)
#
#
# Indices 1 2 3 4 5 6 
#
# 1 96.3595 38.5413 59.6089 0.0000 0.0000 0.0000
# 2 38.5413 118.1630 35.2070 0.0000 0.0000 0.0000
# 3 59.6089 35.2070 100.5621 0.0000 0.0000 0.0000
# 4 0.0000 0.0000 0.0000 25.3491 0.0000 0.0000
# 5 0.0000 0.0000 0.0000 0.0000 21.1693 0.0000
# 6 0.0000 0.0000 0.0000 0.0000 0.0000 16.1338
#
#
#
# Elastic Compliance Matrix: (Units=1/GPa)
#
#
# Indices 1 2 3 4 5 6 
#
# 1 0.017219 -0.002875 -0.009200 0.000000 0.000000 0.000000
# 2 -0.002875 0.009929 -0.001772 0.000000 0.000000 0.000000
# 3 -0.009200 -0.001772 0.016018 0.000000 0.000000 0.000000
# 4 0.000000 0.000000 0.000000 0.039449 0.000000 0.000000
# 5 0.000000 0.000000 0.000000 0.000000 0.047238 0.000000
# 6 0.000000 0.000000 0.000000 0.000000 0.000000 0.061982
#
#
# Mechanical properties :
#
#
# Convention : Reuss Voigt Hill
#
# Bulk Modulus (GPa) = 64.63529 64.64434 64.63982
# Shear Modulus (GPa) = 22.25330 24.64560 23.44945
#
# Velocity S-wave (km/s) = 3.48763 3.67031 3.58014
# Velocity P-wave (km/s) = 7.17966 7.30041 7.24028
#
# Compressibility (1/GPa) = 0.01547142
#
# Stress axis : x y z
#
# Youngs Moduli (GPa) = 58.07515 100.71943 62.43039
#
# Poissons Ratio (x) = 0.28958 0.57437
# Poissons Ratio (y) = 0.16697 0.11061
# Poissons Ratio (z) = 0.53430 0.17845
#
# Static dielectric constant tensor:
#      x y z
#    x 3.334210 0.000000 0.000000 
#    y 0.000000 3.538010 0.000000 
#    z 0.000000 0.000000 3.504880 
# 
# 
# High freq. dielectric constant tensor:
#      x y z
#    x 1.673930 0.000000 0.000000 
#    y 0.000000 1.732380 0.000000 
#    z 0.000000 0.000000 1.705400 
# 
# From -- ./inp_files/36974.got.cif
#   From: 2010.03.12/outbox.cif.g09.slc.cpg/sg74_19_cif.got.tgz:36974.got - 2010.04.16 15:46:19.
