data_PCOD8298880
_publ_section_title
;
Structure prediction by ZEFSAII (Michael W. Deem and Ramdas Pophale) SiO2 
 PCOD8298880
Probable space group: I M M A
;
_chemical_formula_sum "Si O2"
_cell_formula_units_Z 104
_cell_length_a 27.342617
_cell_length_b 9.094909
_cell_length_c 23.811056
_cell_angle_alpha 90.000000
_cell_angle_beta 90.000000
_cell_angle_gamma 90.000000
_cell_volume 5921.300391
_symmetry_space_group_name_H-M "I M M A"
_symmetry_group_IT_number 74
_symmetry_cell_setting 'orthorhombic'
loop_
_space_group_symop_operation_xyz
x,y,z
-x,1/2-y,z
x,-y,-z
-x,1/2+y,-z
-x,-y,-z
x,1/2+y,-z
-x,y,z
x,1/2-y,z
1/2+x,1/2+y,1/2+z
1/2-x,-y,1/2+z
1/2+x,1/2-y,1/2-z
1/2-x,y,1/2-z
1/2-x,1/2-y,1/2-z
1/2+x,y,1/2-z
1/2-x,1/2+y,1/2+z
1/2+x,-y,1/2+z
loop_
_atom_site_type_symbol
_atom_site_label
_atom_site_fract_x
_atom_site_fract_y
_atom_site_fract_z
Si Si1 0.606526 0.575934 0.060652
Si Si2 0.178324 0.578683 0.646643
Si Si3 0.358369 0.919958 0.728341
Si Si4 0.943936 0.422913 0.824258
Si Si5 0.942166 0.589002 0.051537
Si Si6 0.268976 0.916491 0.313111
Si Si7 0.000000 0.417866 0.557327
O O1 0.616820 0.750000 0.055078
O O2 0.646011 0.503743 0.100968
O O3 0.551906 0.546550 0.088042
O O4 0.610692 0.500000 0.000000
O O5 0.183038 0.750000 0.631264
O O6 0.153908 0.555133 0.706902
O O7 0.232144 0.506211 0.646798
O O8 0.356633 0.750000 0.711994
O O9 0.412141 0.985835 0.719711
O O10 0.321470 0.004441 0.686550
O O11 0.933071 0.250000 0.819093
O O12 0.931089 0.479904 0.887302
O O13 0.000000 0.456006 0.809510
O O14 0.918611 0.750000 0.048575
O O15 0.000000 0.600219 0.043641
O O16 0.918261 0.500000 0.000000
O O17 0.274199 0.750000 0.335657
O O18 0.250000 0.917823 0.250000
O O19 0.000000 0.500000 0.500000
O O20 0.000000 0.250000 0.539875
#
# Coordination Sequence:
#
# PCOD8298880 Si02
#       7
#    16  16  16  16  16  16   8
#     4  10  19  33  53  76 103 135 174 216 261 309
#     4  10  20  34  51  75 103 130 165 209 256 305
#     4  10  20  33  50  73 102 134 168 208 254 303
#     4   9  18  32  48  68  98 134 168 203 244 294
#     4   8  14  25  42  64  88 116 154 196 234 272
#     4   9  17  31  53  76  96 122 159 201 244 294
#     4   8  16  30  48  70  96 128 168 210 249 296
#
# _framework density 17.563708999999999
#
# number of rings (size 3 to 8) (size 9 to 14) (size 15 to 20)
#    0.000    2.769    0.000    2.769    0.000    5.231 
#    1.385    1.538    0.000    0.923    0.000    4.308 
#    0.000    0.000    0.000    0.000    0.000    0.000 
#
# Total GULP energy -644415.388125 kJ/mol
# GULP energy per Si atom -12392.603618 kJ/mol
# Density = 1.752373 g / cm^3
# Si number density = 17.563709 Si / 1000 Ang^3
#
#
#
# Elastic Constant Matrix: (Units=GPa)
#
#
# Indices 1 2 3 4 5 6 
#
# 1 103.6616 62.0773 45.2648 0.0000 0.0000 0.0000
# 2 62.0773 115.2828 46.1527 0.0000 0.0000 0.0000
# 3 45.2648 46.1527 48.3440 0.0000 0.0000 0.0000
# 4 0.0000 0.0000 0.0000 29.7856 0.0000 0.0000
# 5 0.0000 0.0000 0.0000 0.0000 24.9708 0.0000
# 6 0.0000 0.0000 0.0000 0.0000 0.0000 29.7074
#
#
#
# Elastic Compliance Matrix: (Units=1/GPa)
#
#
# Indices 1 2 3 4 5 6 
#
# 1 0.017767 -0.004706 -0.012143 0.000000 0.000000 0.000000
# 2 -0.004706 0.015287 -0.010188 0.000000 0.000000 0.000000
# 3 -0.012143 -0.010188 0.041781 0.000000 0.000000 0.000000
# 4 0.000000 0.000000 0.000000 0.033573 0.000000 0.000000
# 5 0.000000 0.000000 0.000000 0.000000 0.040047 0.000000
# 6 0.000000 0.000000 0.000000 0.000000 0.000000 0.033662
#
#
# Mechanical properties :
#
#
# Convention : Reuss Voigt Hill
#
# Bulk Modulus (GPa) = 48.16631 63.80866 55.98748
# Shear Modulus (GPa) = 20.56677 24.47899 22.52288
#
# Velocity S-wave (km/s) = 3.42567 3.73731 3.58488
# Velocity P-wave (km/s) = 6.56736 7.41836 7.00579
#
# Compressibility (1/GPa) = 0.02076140
#
# Stress axis : x y z
#
# Youngs Moduli (GPa) = 56.28348 65.41506 23.93452
#
# Poissons Ratio (x) = 0.30784 0.29064
# Poissons Ratio (y) = 0.26487 0.24384
# Poissons Ratio (z) = 0.68345 0.66644
#
# Static dielectric constant tensor:
#      x y z
#    x 3.361510 0.000000 0.000000 
#    y 0.000000 3.467090 0.000000 
#    z 0.000000 0.000000 3.015370 
# 
# 
# High freq. dielectric constant tensor:
#      x y z
#    x 1.670190 0.000000 0.000000 
#    y 0.000000 1.690060 0.000000 
#    z 0.000000 0.000000 1.648290 
# 
# From -- ./inp_files/62335.got.cif
#   From: 2010.03.12/outbox.cif.g09.slc.cpg/sg74_32_cif.got.tgz:62335.got - 2010.04.16 15:46:19.
