data_PCOD8298496
_publ_section_title
;
Structure prediction by ZEFSAII (Michael W. Deem and Ramdas Pophale) SiO2 
 PCOD8298496
Probable space group: I M M A
;
_chemical_formula_sum "Si O2"
_cell_formula_units_Z 112
_cell_length_a 21.073494
_cell_length_b 22.287247
_cell_length_c 12.738131
_cell_angle_alpha 90.000000
_cell_angle_beta 90.000000
_cell_angle_gamma 90.000000
_cell_volume 5982.720100
_symmetry_space_group_name_H-M "I M M A"
_symmetry_group_IT_number 74
_symmetry_cell_setting 'orthorhombic'
loop_
_space_group_symop_operation_xyz
x,y,z
-x,1/2-y,z
x,-y,-z
-x,1/2+y,-z
-x,-y,-z
x,1/2+y,-z
-x,y,z
x,1/2-y,z
1/2+x,1/2+y,1/2+z
1/2-x,-y,1/2+z
1/2+x,1/2-y,1/2-z
1/2-x,y,1/2-z
1/2-x,1/2-y,1/2-z
1/2+x,y,1/2-z
1/2-x,1/2+y,1/2+z
1/2+x,-y,1/2+z
loop_
_atom_site_type_symbol
_atom_site_label
_atom_site_fract_x
_atom_site_fract_y
_atom_site_fract_z
Si Si1 0.316477 0.316849 0.807795
Si Si2 0.426650 0.978144 0.700487
Si Si3 0.691394 0.570948 0.812323
Si Si4 0.244295 0.618682 0.491074
Si Si5 0.929253 0.637167 0.935085
Si Si6 0.134764 0.399231 0.865069
Si Si7 0.681813 0.316644 0.327406
O O1 0.346505 0.250000 0.817825
O O2 0.250000 0.311343 0.750000
O O3 0.306938 0.344597 0.923377
O O4 0.361746 0.360765 0.741650
O O5 0.500000 0.980257 0.742193
O O6 0.376571 0.960351 0.792519
O O7 0.420689 0.931157 0.605673
O O8 0.405510 0.041526 0.655597
O O9 0.750000 0.537877 0.750000
O O10 0.692019 0.640302 0.772569
O O11 0.706264 0.570195 0.937115
O O12 0.295290 0.586139 0.413875
O O13 0.280796 0.663189 0.568763
O O14 0.891945 0.681984 0.858846
O O15 0.000000 0.660434 0.931072
O O16 0.904557 0.640865 0.053559
O O17 0.701446 0.250000 0.293045
#
# Coordination Sequence:
#
# PCOD8298496 Si02
#       7
#    16  16  16  16  16  16  16
#     4   9  18  32  49  72 102 134 170 211 254 302
#     4  10  20  36  56  77 105 138 173 214 261 316
#     4   9  19  33  51  79 108 133 168 215 261 307
#     4   9  18  32  50  72 101 136 169 206 256 309
#     4   9  18  31  48  71  99 132 166 204 255 310
#     4  10  19  31  50  75 100 133 173 211 254 305
#     4   9  17  29  47  74 104 130 162 207 258 310
#
# _framework density 18.720582
#
# number of rings (size 3 to 8) (size 9 to 14) (size 15 to 20)
#    0.000    2.714    0.000    2.143    0.000    9.714 
#    0.000    5.000    0.000    3.857    0.000    0.000 
#    0.000    0.000    0.000    0.000    0.000    0.000 
#
# Total GULP energy -693985.077597 kJ/mol
# GULP energy per Si atom -12392.590671 kJ/mol
# Density = 1.867797 g / cm^3
# Si number density = 18.720582 Si / 1000 Ang^3
#
#
#
# Elastic Constant Matrix: (Units=GPa)
#
#
# Indices 1 2 3 4 5 6 
#
# 1 115.7924 24.5131 44.0317 0.0000 0.0000 0.0000
# 2 24.5131 47.0421 13.0934 0.0000 0.0000 0.0000
# 3 44.0317 13.0934 93.5643 0.0000 0.0000 0.0000
# 4 0.0000 0.0000 0.0000 9.8689 0.0000 0.0000
# 5 0.0000 0.0000 0.0000 0.0000 23.3439 0.0000
# 6 0.0000 0.0000 0.0000 0.0000 0.0000 5.5788
#
#
#
# Elastic Compliance Matrix: (Units=1/GPa)
#
#
# Indices 1 2 3 4 5 6 
#
# 1 0.011413 -0.004633 -0.004723 0.000000 0.000000 0.000000
# 2 -0.004633 0.024000 -0.001178 0.000000 0.000000 0.000000
# 3 -0.004723 -0.001178 0.013075 0.000000 0.000000 0.000000
# 4 0.000000 0.000000 0.000000 0.101329 0.000000 0.000000
# 5 0.000000 0.000000 0.000000 0.000000 0.042838 0.000000
# 6 0.000000 0.000000 0.000000 0.000000 0.000000 0.179250
#
#
# Mechanical properties :
#
#
# Convention : Reuss Voigt Hill
#
# Bulk Modulus (GPa) = 36.46927 46.63058 41.54992
# Shear Modulus (GPa) = 12.43437 19.40901 15.92169
#
# Velocity S-wave (km/s) = 2.58002 3.22339 2.91948
# Velocity P-wave (km/s) = 5.32902 6.23029 5.79719
#
# Compressibility (1/GPa) = 0.02742035
#
# Stress axis : x y z
#
# Youngs Moduli (GPa) = 87.62183 41.66748 76.48073
#
# Poissons Ratio (x) = 0.19303 0.36118
# Poissons Ratio (y) = 0.40592 0.09012
# Poissons Ratio (z) = 0.41380 0.04910
#
# Static dielectric constant tensor:
#      x y z
#    x 3.539650 0.000000 0.000000 
#    y 0.000000 3.240150 0.000000 
#    z 0.000000 0.000000 3.416650 
# 
# 
# High freq. dielectric constant tensor:
#      x y z
#    x 1.714500 0.000000 0.000000 
#    y 0.000000 1.711110 0.000000 
#    z 0.000000 0.000000 1.714150 
# 
# From -- ./inp_files/24168.got.cif
#   From: 2010.03.12/outbox.cif.g09.slc.cpg/sg74_13_cif.got.tgz:24168.got - 2010.04.16 15:46:19.
