data_PCOD8298189
_publ_section_title
;
Structure prediction by ZEFSAII (Michael W. Deem and Ramdas Pophale) SiO2 
 PCOD8298189
Probable space group: I M M A
;
_chemical_formula_sum "Si O2"
_cell_formula_units_Z 88
_cell_length_a 14.852871
_cell_length_b 12.964112
_cell_length_c 28.160127
_cell_angle_alpha 90.000000
_cell_angle_beta 90.000000
_cell_angle_gamma 90.000000
_cell_volume 5422.353068
_symmetry_space_group_name_H-M "I M M A"
_symmetry_group_IT_number 74
_symmetry_cell_setting 'orthorhombic'
loop_
_space_group_symop_operation_xyz
x,y,z
-x,1/2-y,z
x,-y,-z
-x,1/2+y,-z
-x,-y,-z
x,1/2+y,-z
-x,y,z
x,1/2-y,z
1/2+x,1/2+y,1/2+z
1/2-x,-y,1/2+z
1/2+x,1/2-y,1/2-z
1/2-x,y,1/2-z
1/2-x,1/2-y,1/2-z
1/2+x,y,1/2-z
1/2-x,1/2+y,1/2+z
1/2+x,-y,1/2+z
loop_
_atom_site_type_symbol
_atom_site_label
_atom_site_fract_x
_atom_site_fract_y
_atom_site_fract_z
Si Si1 0.603436 0.366217 0.931479
Si Si2 0.600649 0.372775 0.334879
Si Si3 0.896604 0.548499 0.633977
Si Si4 0.732296 0.631553 0.583549
Si Si5 0.220152 0.000000 0.500000
Si Si6 0.393660 0.864369 0.768237
O O1 0.500000 0.367487 0.947481
O O2 0.637271 0.250000 0.921919
O O3 0.616640 0.430283 0.882570
O O4 0.658743 0.415466 0.974278
O O5 0.500000 0.417422 0.343453
O O6 0.597643 0.250000 0.335634
O O7 0.666023 0.413985 0.376083
O O8 0.640890 0.406462 0.283040
O O9 0.835480 0.622150 0.601182
O O10 0.866687 0.558766 0.689072
O O11 0.000000 0.585062 0.627375
O O12 0.710596 0.750000 0.571422
O O13 0.716828 0.561635 0.536960
O O14 0.500000 0.855108 0.762960
O O15 0.353933 0.750000 0.779530
#
# Coordination Sequence:
#
# PCOD8298189 Si02
#       6
#    16  16  16  16   8  16
#     4   9  17  29  43  58  81 114 145 171 201 238
#     4   8  15  28  44  62  85 110 135 167 208 251
#     4   9  17  27  40  63  91 114 138 164 193 238
#     4  10  19  29  43  62  83 110 141 171 207 248
#     4  10  19  30  41  60  82 104 138 180 214 246
#     4   8  13  23  40  62  89 115 133 157 198 243
#
# _framework density 16.229116999999999
#
# number of rings (size 3 to 8) (size 9 to 14) (size 15 to 20)
#    0.000    3.091    0.000    2.455    0.000    2.545 
#    0.000    3.182    0.000    0.000    0.000   11.455 
#    0.000   13.818    0.000    0.000    0.000    0.000 
#
# Total GULP energy -545313.075235 kJ/mol
# GULP energy per Si atom -12393.478983 kJ/mol
# Density = 1.619218 g / cm^3
# Si number density = 16.229117 Si / 1000 Ang^3
#
#
#
# Elastic Constant Matrix: (Units=GPa)
#
#
# Indices 1 2 3 4 5 6 
#
# 1 34.3653 16.7153 34.9093 0.0000 0.0000 0.0000
# 2 16.7153 74.0857 54.5788 0.0000 0.0000 0.0000
# 3 34.9093 54.5788 145.9164 0.0000 0.0000 0.0000
# 4 0.0000 0.0000 0.0000 28.0709 0.0000 0.0000
# 5 0.0000 0.0000 0.0000 0.0000 26.1539 0.0000
# 6 0.0000 0.0000 0.0000 0.0000 0.0000 10.8220
#
#
#
# Elastic Compliance Matrix: (Units=1/GPa)
#
#
# Indices 1 2 3 4 5 6 
#
# 1 0.038813 -0.002645 -0.008296 0.000000 0.000000 0.000000
# 2 -0.002645 0.018812 -0.006404 0.000000 0.000000 0.000000
# 3 -0.008296 -0.006404 0.011233 0.000000 0.000000 0.000000
# 4 0.000000 0.000000 0.000000 0.035624 0.000000 0.000000
# 5 0.000000 0.000000 0.000000 0.000000 0.038235 0.000000
# 6 0.000000 0.000000 0.000000 0.000000 0.000000 0.092404
#
#
# Mechanical properties :
#
#
# Convention : Reuss Voigt Hill
#
# Bulk Modulus (GPa) = 29.26679 51.86381 40.56530
# Shear Modulus (GPa) = 17.78078 22.88696 20.33387
#
# Velocity S-wave (km/s) = 3.31359 3.75939 3.54351
# Velocity P-wave (km/s) = 5.71948 7.13237 6.46464
#
# Compressibility (1/GPa) = 0.03416842
#
# Stress axis : x y z
#
# Youngs Moduli (GPa) = 25.76433 53.15661 89.02076
#
# Poissons Ratio (x) = 0.14061 0.73855
# Poissons Ratio (y) = 0.06815 0.57007
# Poissons Ratio (z) = 0.21375 0.34040
#
# Static dielectric constant tensor:
#      x y z
#    x 3.005460 0.000000 0.000000 
#    y 0.000000 2.863540 0.000000 
#    z 0.000000 0.000000 3.356080 
# 
# 
# High freq. dielectric constant tensor:
#      x y z
#    x 1.605640 0.000000 0.000000 
#    y 0.000000 1.582530 0.000000 
#    z 0.000000 0.000000 1.632800 
# 
# From -- ./inp_files/67081.got.cif
#   From: 2010.03.12/outbox.cif.g09.slc.cpg/sg74_34_cif.got.tgz:67081.got - 2010.04.16 15:46:19.
