data_PCOD8298713
_publ_section_title
;
Structure prediction by ZEFSAII (Michael W. Deem and Ramdas Pophale) SiO2 
 PCOD8298713
Probable space group: I M M A
;
_chemical_formula_sum "Si O2"
_cell_formula_units_Z 96
_cell_length_a 23.673334
_cell_length_b 9.392854
_cell_length_c 21.347292
_cell_angle_alpha 90.000000
_cell_angle_beta 90.000000
_cell_angle_gamma 90.000000
_cell_volume 4746.787477
_symmetry_space_group_name_H-M "I M M A"
_symmetry_group_IT_number 74
_symmetry_cell_setting 'orthorhombic'
loop_
_space_group_symop_operation_xyz
x,y,z
-x,1/2-y,z
x,-y,-z
-x,1/2+y,-z
-x,-y,-z
x,1/2+y,-z
-x,y,z
x,1/2-y,z
1/2+x,1/2+y,1/2+z
1/2-x,-y,1/2+z
1/2+x,1/2-y,1/2-z
1/2-x,y,1/2-z
1/2-x,1/2-y,1/2-z
1/2+x,y,1/2-z
1/2-x,1/2+y,1/2+z
1/2+x,-y,1/2+z
loop_
_atom_site_type_symbol
_atom_site_label
_atom_site_fract_x
_atom_site_fract_y
_atom_site_fract_z
Si Si1 0.566692 0.590212 0.556364
Si Si2 0.562210 0.090555 0.766060
Si Si3 0.936176 0.089493 0.586406
Si Si4 0.753711 0.587855 0.679897
Si Si5 0.373115 0.411694 0.324214
Si Si6 0.673212 0.578498 0.938742
O O1 0.592783 0.500000 0.500000
O O2 0.500000 0.585676 0.555264
O O3 0.590128 0.750000 0.549676
O O4 0.588238 0.523002 0.621001
O O5 0.500000 0.032379 0.746166
O O6 0.569567 0.250000 0.740481
O O7 0.567632 0.087608 0.839603
O O8 0.613054 0.996507 0.738871
O O9 0.920943 0.250000 0.562719
O O10 0.000000 0.048669 0.564928
O O11 0.892189 0.972381 0.561267
O O12 0.773359 0.750000 0.690885
O O13 0.750000 0.514786 0.750000
O O14 0.690969 0.574676 0.652573
O O15 0.795515 0.524823 0.625915
O O16 0.389509 0.250000 0.309619
O O17 0.677309 0.750000 0.945444
O O18 0.700952 0.500000 0.000000
#
# Coordination Sequence:
#
# PCOD8298713 Si02
#       6
#    16  16  16  16  16  16
#     4   9  18  31  46  67  96 130 169 214 263 314
#     4   9  18  32  51  79 114 145 174 218 277 333
#     4   9  19  37  59  83 113 146 180 222 272 328
#     4   9  19  36  57  81 109 143 184 229 275 322
#     4  10  19  32  52  76 102 136 181 227 269 323
#     4  11  23  39  60  85 115 150 187 231 282 335
#
# _framework density 20.224205000000001
#
# number of rings (size 3 to 8) (size 9 to 14) (size 15 to 20)
#    0.000    2.500    0.000    3.000    0.000    5.000 
#    0.000    5.000    0.000    4.500    0.000    0.000 
#    0.000    0.000    0.000    0.000    0.000    0.000 
#
# Total GULP energy -594748.674314 kJ/mol
# GULP energy per Si atom -12390.597382 kJ/mol
# Density = 2.017817 g / cm^3
# Si number density = 20.224205 Si / 1000 Ang^3
#
#
#
# Elastic Constant Matrix: (Units=GPa)
#
#
# Indices 1 2 3 4 5 6 
#
# 1 57.1932 31.4278 31.7457 0.0000 0.0000 0.0000
# 2 31.4278 64.1897 40.6452 0.0000 0.0000 0.0000
# 3 31.7457 40.6452 112.3247 0.0000 0.0000 0.0000
# 4 0.0000 0.0000 0.0000 32.5055 0.0000 0.0000
# 5 0.0000 0.0000 0.0000 0.0000 16.2884 0.0000
# 6 0.0000 0.0000 0.0000 0.0000 0.0000 20.3443
#
#
#
# Elastic Compliance Matrix: (Units=1/GPa)
#
#
# Indices 1 2 3 4 5 6 
#
# 1 0.024885 -0.010028 -0.003404 0.000000 0.000000 0.000000
# 2 -0.010028 0.024251 -0.005941 0.000000 0.000000 0.000000
# 3 -0.003404 -0.005941 0.012015 0.000000 0.000000 0.000000
# 4 0.000000 0.000000 0.000000 0.030764 0.000000 0.000000
# 5 0.000000 0.000000 0.000000 0.000000 0.061394 0.000000
# 6 0.000000 0.000000 0.000000 0.000000 0.000000 0.049154
#
#
# Mechanical properties :
#
#
# Convention : Reuss Voigt Hill
#
# Bulk Modulus (GPa) = 44.63670 49.03832 46.83751
# Shear Modulus (GPa) = 20.10651 22.48690 21.29671
#
# Velocity S-wave (km/s) = 3.15648 3.33810 3.24856
# Velocity P-wave (km/s) = 5.95007 6.25757 6.10576
#
# Compressibility (1/GPa) = 0.02240309
#
# Stress axis : x y z
#
# Youngs Moduli (GPa) = 40.18538 41.23623 83.23157
#
# Poissons Ratio (x) = 0.41352 0.28334
# Poissons Ratio (y) = 0.40298 0.49448
# Poissons Ratio (z) = 0.13680 0.24498
#
# Static dielectric constant tensor:
#      x y z
#    x 3.703150 0.000000 0.000000 
#    y 0.000000 3.925270 0.000000 
#    z 0.000000 0.000000 3.887950 
# 
# 
# High freq. dielectric constant tensor:
#      x y z
#    x 1.783830 0.000000 0.000000 
#    y 0.000000 1.760110 0.000000 
#    z 0.000000 0.000000 1.801700 
# 
# From -- ./inp_files/53867.got.cif
#   From: 2010.03.12/outbox.cif.g09.slc.cpg/sg74_27_cif.got.tgz:53867.got - 2010.04.16 15:46:19.
