data_PCOD8298492
_publ_section_title
;
Structure prediction by ZEFSAII (Michael W. Deem and Ramdas Pophale) SiO2 
 PCOD8298492
Probable space group: I M M A
;
_chemical_formula_sum "Si O2"
_cell_formula_units_Z 112
_cell_length_a 24.436562
_cell_length_b 15.421705
_cell_length_c 15.760322
_cell_angle_alpha 90.000000
_cell_angle_beta 90.000000
_cell_angle_gamma 90.000000
_cell_volume 5939.331725
_symmetry_space_group_name_H-M "I M M A"
_symmetry_group_IT_number 74
_symmetry_cell_setting 'orthorhombic'
loop_
_space_group_symop_operation_xyz
x,y,z
-x,1/2-y,z
x,-y,-z
-x,1/2+y,-z
-x,-y,-z
x,1/2+y,-z
-x,y,z
x,1/2-y,z
1/2+x,1/2+y,1/2+z
1/2-x,-y,1/2+z
1/2+x,1/2-y,1/2-z
1/2-x,y,1/2-z
1/2-x,1/2-y,1/2-z
1/2+x,y,1/2-z
1/2-x,1/2+y,1/2+z
1/2+x,-y,1/2+z
loop_
_atom_site_type_symbol
_atom_site_label
_atom_site_fract_x
_atom_site_fract_y
_atom_site_fract_z
Si Si1 0.614991 0.470763 0.308553
Si Si2 0.293000 0.006308 0.812292
Si Si3 0.062075 0.348761 0.325579
Si Si4 0.939791 0.417807 0.940618
Si Si5 0.156629 0.150791 0.043322
Si Si6 0.261224 0.152182 0.932880
Si Si7 0.851827 0.586150 0.546143
O O1 0.652842 0.523430 0.242959
O O2 0.576946 0.405623 0.255904
O O3 0.578850 0.546755 0.349208
O O4 0.649115 0.415119 0.378090
O O5 0.250000 0.960145 0.750000
O O6 0.265818 0.094010 0.848679
O O7 0.305330 0.939351 0.886546
O O8 0.070367 0.250000 0.296982
O O9 0.098098 0.365813 0.409314
O O10 0.000000 0.368207 0.352190
O O11 0.000000 0.373194 0.932795
O O12 0.944585 0.500000 0.000000
O O13 0.895672 0.351899 0.980137
O O14 0.163104 0.250000 0.075743
O O15 0.210689 0.120594 0.991761
O O16 0.250619 0.250000 0.903189
O O17 0.319740 0.147754 0.981017
O O18 0.874735 0.500000 0.500000
#
# Coordination Sequence:
#
# PCOD8298492 Si02
#       7
#    16  16  16  16  16  16  16
#     4  10  19  33  51  73 102 133 167 205 250 301
#     4  10  19  31  50  74  99 129 163 203 249 299
#     4  10  20  33  51  76 103 130 163 207 256 300
#     4   9  18  32  50  72 100 136 174 208 244 294
#     4  10  20  33  52  77 103 134 169 207 251 297
#     4  10  20  34  51  72 100 131 166 208 250 296
#     4   9  19  34  52  73  97 130 168 205 248 298
#
# _framework density 18.857341000000002
#
# number of rings (size 3 to 8) (size 9 to 14) (size 15 to 20)
#    0.000    2.286    0.000    3.000    0.000    5.429 
#    0.000    0.714    0.000    6.857    0.000    0.000 
#    0.000    0.000    0.000    0.000    0.000    0.000 
#
# Total GULP energy -694209.510175 kJ/mol
# GULP energy per Si atom -12396.598396 kJ/mol
# Density = 1.881442 g / cm^3
# Si number density = 18.857341 Si / 1000 Ang^3
#
#
#
# Elastic Constant Matrix: (Units=GPa)
#
#
# Indices 1 2 3 4 5 6 
#
# 1 95.0165 24.6226 28.1012 0.0000 0.0000 0.0000
# 2 24.6226 51.4638 18.7922 0.0000 0.0000 0.0000
# 3 28.1012 18.7922 73.2828 0.0000 0.0000 0.0000
# 4 0.0000 0.0000 0.0000 20.5597 0.0000 0.0000
# 5 0.0000 0.0000 0.0000 0.0000 23.8127 0.0000
# 6 0.0000 0.0000 0.0000 0.0000 0.0000 19.2091
#
#
#
# Elastic Compliance Matrix: (Units=1/GPa)
#
#
# Indices 1 2 3 4 5 6 
#
# 1 0.012864 -0.004803 -0.003701 0.000000 0.000000 0.000000
# 2 -0.004803 0.023232 -0.004116 0.000000 0.000000 0.000000
# 3 -0.003701 -0.004116 0.016120 0.000000 0.000000 0.000000
# 4 0.000000 0.000000 0.000000 0.048639 0.000000 0.000000
# 5 0.000000 0.000000 0.000000 0.000000 0.041994 0.000000
# 6 0.000000 0.000000 0.000000 0.000000 0.000000 0.052059
#
#
# Mechanical properties :
#
#
# Convention : Reuss Voigt Hill
#
# Bulk Modulus (GPa) = 37.06943 40.31057 38.69000
# Shear Modulus (GPa) = 21.82072 22.59944 22.21008
#
# Velocity S-wave (km/s) = 3.40538 3.46561 3.43562
# Velocity P-wave (km/s) = 5.92981 6.11857 6.02493
#
# Compressibility (1/GPa) = 0.02697640
#
# Stress axis : x y z
#
# Youngs Moduli (GPa) = 77.73764 43.04407 62.03329
#
# Poissons Ratio (x) = 0.20675 0.22959
# Poissons Ratio (y) = 0.37339 0.25531
# Poissons Ratio (z) = 0.28771 0.17715
#
# Static dielectric constant tensor:
#      x y z
#    x 3.670460 0.000000 0.000000 
#    y 0.000000 3.196220 0.000000 
#    z 0.000000 0.000000 3.585960 
# 
# 
# High freq. dielectric constant tensor:
#      x y z
#    x 1.738820 0.000000 0.000000 
#    y 0.000000 1.710830 0.000000 
#    z 0.000000 0.000000 1.732130 
# 
# From -- ./inp_files/32886.got.cif
#   From: 2010.03.12/outbox.cif.g09.slc.cpg/sg74_17_cif.got.tgz:32886.got - 2010.04.16 15:46:19.
