data_PCOD8298936
_publ_section_title
;
Structure prediction by ZEFSAII (Michael W. Deem and Ramdas Pophale) SiO2 
 PCOD8298936
Probable space group: I M M A
;
_chemical_formula_sum "Si O2"
_cell_formula_units_Z 104
_cell_length_a 9.006028
_cell_length_b 26.438375
_cell_length_c 22.138710
_cell_angle_alpha 90.000000
_cell_angle_beta 90.000000
_cell_angle_gamma 90.000000
_cell_volume 5271.331911
_symmetry_space_group_name_H-M "I M M A"
_symmetry_group_IT_number 74
_symmetry_cell_setting 'orthorhombic'
loop_
_space_group_symop_operation_xyz
x,y,z
-x,1/2-y,z
x,-y,-z
-x,1/2+y,-z
-x,-y,-z
x,1/2+y,-z
-x,y,z
x,1/2-y,z
1/2+x,1/2+y,1/2+z
1/2-x,-y,1/2+z
1/2+x,1/2-y,1/2-z
1/2-x,y,1/2-z
1/2-x,1/2-y,1/2-z
1/2+x,y,1/2-z
1/2-x,1/2+y,1/2+z
1/2+x,-y,1/2+z
loop_
_atom_site_type_symbol
_atom_site_label
_atom_site_fract_x
_atom_site_fract_y
_atom_site_fract_z
Si Si1 0.836750 0.691117 0.468342
Si Si2 0.172405 0.308586 0.851446
Si Si3 0.827744 0.566207 0.942281
Si Si4 0.324952 0.099057 0.808610
Si Si5 0.322905 0.250000 0.184920
Si Si6 0.824980 0.159916 0.400517
Si Si7 0.673617 0.549902 0.422521
O O1 0.859553 0.750000 0.461177
O O2 0.716345 0.673320 0.419194
O O3 0.773431 0.680180 0.534463
O O4 0.000000 0.665468 0.457744
O O5 0.209019 0.250000 0.839172
O O6 0.271731 0.342307 0.806881
O O7 0.000000 0.320675 0.841806
O O8 0.744557 0.603884 0.895643
O O9 0.792605 0.509619 0.921846
O O10 0.000000 0.578050 0.937148
O O11 0.777128 0.573293 0.012511
O O12 0.500000 0.095203 0.802913
O O13 0.250000 0.072378 0.750000
O O14 0.271669 0.073378 0.870017
O O15 0.500000 0.250000 0.190210
O O16 0.250000 0.250000 0.250000
O O17 0.267431 0.300561 0.149944
O O18 0.000000 0.155466 0.395342
O O19 0.500000 0.560165 0.410744
#
# Coordination Sequence:
#
# PCOD8298936 Si02
#       7
#    16  16  16  16   8  16  16
#     4   9  16  29  50  77 109 145 181 222 273 324
#     4  10  21  36  54  80 114 148 184 228 273 322
#     4   9  19  35  60  90 118 147 180 227 289 342
#     4  12  25  40  59  81 108 148 192 232 276 328
#     4  10  22  40  56  76 110 154 197 240 291 344
#     4  10  19  33  54  80 112 148 187 233 283 337
#     4   9  19  39  61  85 119 151 182 230 284 338
#
# _framework density 19.72936
#
# number of rings (size 3 to 8) (size 9 to 14) (size 15 to 20)
#    0.000    2.154    0.769    3.692    0.000    6.154 
#    0.000    2.308    0.000    1.846    0.000    0.000 
#    0.000    0.000    0.000    0.000    0.000    0.000 
#
# Total GULP energy -644605.112570 kJ/mol
# GULP energy per Si atom -12396.252165 kJ/mol
# Density = 1.968446 g / cm^3
# Si number density = 19.729360 Si / 1000 Ang^3
#
#
#
# Elastic Constant Matrix: (Units=GPa)
#
#
# Indices 1 2 3 4 5 6 
#
# 1 87.9342 44.9861 45.8027 0.0000 0.0000 0.0000
# 2 44.9861 90.8943 58.1030 0.0000 0.0000 0.0000
# 3 45.8027 58.1030 97.9399 0.0000 0.0000 0.0000
# 4 0.0000 0.0000 0.0000 22.5867 0.0000 0.0000
# 5 0.0000 0.0000 0.0000 0.0000 30.3823 0.0000
# 6 0.0000 0.0000 0.0000 0.0000 0.0000 33.8145
#
#
#
# Elastic Compliance Matrix: (Units=1/GPa)
#
#
# Indices 1 2 3 4 5 6 
#
# 1 0.016423 -0.005185 -0.004604 0.000000 0.000000 0.000000
# 2 -0.005185 0.019360 -0.009060 0.000000 0.000000 0.000000
# 3 -0.004604 -0.009060 0.017739 0.000000 0.000000 0.000000
# 4 0.000000 0.000000 0.000000 0.044274 0.000000 0.000000
# 5 0.000000 0.000000 0.000000 0.000000 0.032914 0.000000
# 6 0.000000 0.000000 0.000000 0.000000 0.000000 0.029573
#
#
# Mechanical properties :
#
#
# Convention : Reuss Voigt Hill
#
# Bulk Modulus (GPa) = 63.20317 63.83909 63.52113
# Shear Modulus (GPa) = 24.59958 25.88183 25.24071
#
# Velocity S-wave (km/s) = 3.53491 3.62587 3.58068
# Velocity P-wave (km/s) = 6.98322 7.06802 7.02575
#
# Compressibility (1/GPa) = 0.01582199
#
# Stress axis : x y z
#
# Youngs Moduli (GPa) = 60.89023 51.65383 56.37373
#
# Poissons Ratio (x) = 0.26782 0.25957
# Poissons Ratio (y) = 0.31571 0.51077
# Poissons Ratio (z) = 0.28037 0.46800
#
# Static dielectric constant tensor:
#      x y z
#    x 3.522360 0.000000 0.000000 
#    y 0.000000 3.742700 0.000000 
#    z 0.000000 0.000000 3.585850 
# 
# 
# High freq. dielectric constant tensor:
#      x y z
#    x 1.761080 0.000000 0.000000 
#    y 0.000000 1.770770 0.000000 
#    z 0.000000 0.000000 1.757570 
# 
# From -- ./inp_files/49332.got.cif
#   From: 2010.03.12/outbox.cif.g09.slc.cpg/sg74_25_cif.got.tgz:49332.got - 2010.04.16 15:46:19.
