data_PCOD8298972
_publ_section_title
;
Structure prediction by ZEFSAII (Michael W. Deem and Ramdas Pophale) SiO2 
 PCOD8298972
Probable space group: I M M A
;
_chemical_formula_sum "Si O2"
_cell_formula_units_Z 76
_cell_length_a 12.211148
_cell_length_b 13.814372
_cell_length_c 23.911902
_cell_angle_alpha 90.000000
_cell_angle_beta 90.000000
_cell_angle_gamma 90.000000
_cell_volume 4033.682991
_symmetry_space_group_name_H-M "I M M A"
_symmetry_group_IT_number 74
_symmetry_cell_setting 'orthorhombic'
loop_
_space_group_symop_operation_xyz
x,y,z
-x,1/2-y,z
x,-y,-z
-x,1/2+y,-z
-x,-y,-z
x,1/2+y,-z
-x,y,z
x,1/2-y,z
1/2+x,1/2+y,1/2+z
1/2-x,-y,1/2+z
1/2+x,1/2-y,1/2-z
1/2-x,y,1/2-z
1/2-x,1/2-y,1/2-z
1/2+x,y,1/2-z
1/2-x,1/2+y,1/2+z
1/2+x,-y,1/2+z
loop_
_atom_site_type_symbol
_atom_site_label
_atom_site_fract_x
_atom_site_fract_y
_atom_site_fract_z
Si Si1 0.000000 0.750000 0.987056
Si Si2 0.000000 0.957499 0.938068
Si Si3 0.246092 0.250000 0.975279
Si Si4 0.116084 0.750000 0.705255
Si Si5 0.750000 0.921602 0.750000
Si Si6 0.372029 0.438800 0.943856
Si Si7 0.733047 0.750000 0.897344
Si Si8 0.791825 0.542070 0.869325
O O1 0.112115 0.750000 0.024763
O O2 0.000000 0.841618 0.945710
O O3 0.104500 0.998970 0.903875
O O4 0.000000 0.000000 0.000000
O O5 0.296679 0.343330 0.945263
O O6 0.293624 0.250000 0.037763
O O7 0.159040 0.648609 0.726528
O O8 0.119730 0.750000 0.637484
O O9 0.000000 0.750000 0.731633
O O10 0.795361 0.985048 0.802742
O O11 0.500000 0.414143 0.932470
O O12 0.323119 0.502595 0.893557
O O13 0.358488 0.500000 0.000000
O O14 0.802245 0.657357 0.877718
#
# Coordination Sequence:
#
# PCOD8298972 Si02
#       8
#     4   8   8   8   8  16   8  16
#     4  12  20  32  60  82 116 160 174 232 296 352
#     4  12  22  34  58  88 120 154 189 249 300 360
#     4  12  21  38  56  89 119 148 194 231 303 356
#     4   9  19  33  52  77 115 155 197 233 281 339
#     4   9  22  36  52  79 112 158 202 243 280 349
#     4  11  23  38  58  83 115 154 192 240 288 348
#     4  10  19  33  55  82 119 154 188 233 278 357
#     4  11  21  39  54  85 120 153 203 238 293 350
#
# _framework density 18.841341
#
# number of rings (size 3 to 8) (size 9 to 14) (size 15 to 20)
#    0.000    1.263    4.211    2.842    1.474    4.211 
#    0.000    0.000    0.000    0.632    0.000    0.000 
#    0.000    0.000    0.000    0.000    0.000    0.000 
#
# Total GULP energy -470762.392363 kJ/mol
# GULP energy per Si atom -12388.484010 kJ/mol
# Density = 1.879846 g / cm^3
# Si number density = 18.841341 Si / 1000 Ang^3
#
#
#
# Elastic Constant Matrix: (Units=GPa)
#
#
# Indices 1 2 3 4 5 6 
#
# 1 144.9025 33.5570 46.9822 0.0000 0.0000 0.0000
# 2 33.5570 63.2644 26.5499 0.0000 0.0000 0.0000
# 3 46.9822 26.5499 146.5204 0.0000 0.0000 0.0000
# 4 0.0000 0.0000 0.0000 21.1676 0.0000 0.0000
# 5 0.0000 0.0000 0.0000 0.0000 -22.1665 0.0000
# 6 0.0000 0.0000 0.0000 0.0000 0.0000 22.6445
#
#
#
# Elastic Compliance Matrix: (Units=1/GPa)
#
#
# Indices 1 2 3 4 5 6 
#
# 1 0.008396 -0.003597 -0.002040 0.000000 0.000000 0.000000
# 2 -0.003597 0.018649 -0.002226 0.000000 0.000000 0.000000
# 3 -0.002040 -0.002226 0.007883 0.000000 0.000000 0.000000
# 4 0.000000 0.000000 0.000000 0.047242 0.000000 0.000000
# 5 0.000000 0.000000 0.000000 0.000000 -0.045113 0.000000
# 6 0.000000 0.000000 0.000000 0.000000 0.000000 0.044161
#
#
# Mechanical properties :
#
#
# Convention : Reuss Voigt Hill
#
# Bulk Modulus (GPa) = 52.08150 63.20729 57.64439
# Shear Modulus (GPa) = 48.38239 20.83566 34.60902
#
# Velocity S-wave (km/s) = 5.07293 3.32904 4.29052
# Velocity P-wave (km/s) = 7.87496 6.95677 7.43006
#
# Compressibility (1/GPa) = 0.01920068
#
# Stress axis : x y z
#
# Youngs Moduli (GPa) = 119.10792 53.62292 126.86260
#
# Poissons Ratio (x) = 0.19288 0.25884
# Poissons Ratio (y) = 0.42844 0.28237
# Poissons Ratio (z) = 0.24302 0.11935
#
# Static dielectric constant tensor:
#      x y z
#    x 3.601020 0.000000 0.000000 
#    y 0.000000 3.354860 0.000000 
#    z 0.000000 0.000000 3.612470 
# 
# 
# High freq. dielectric constant tensor:
#      x y z
#    x 1.736650 0.000000 0.000000 
#    y 0.000000 1.705720 0.000000 
#    z 0.000000 0.000000 1.720830 
# 
# From -- ./inp_files/58604.got.cif
#   From: 2010.03.12/outbox.cif.g09.slc.cpg/sg74_30_cif.got.tgz:58604.got - 2010.04.16 15:46:19.
