data_PCOD8298623
_publ_section_title
;
Structure prediction by ZEFSAII (Michael W. Deem and Ramdas Pophale) SiO2 
 PCOD8298623
Probable space group: I M M A
;
_chemical_formula_sum "Si O2"
_cell_formula_units_Z 112
_cell_length_a 10.082748
_cell_length_b 15.032676
_cell_length_c 40.562253
_cell_angle_alpha 90.000000
_cell_angle_beta 90.000000
_cell_angle_gamma 90.000000
_cell_volume 6148.048427
_symmetry_space_group_name_H-M "I M M A"
_symmetry_group_IT_number 74
_symmetry_cell_setting 'orthorhombic'
loop_
_space_group_symop_operation_xyz
x,y,z
-x,1/2-y,z
x,-y,-z
-x,1/2+y,-z
-x,-y,-z
x,1/2+y,-z
-x,y,z
x,1/2-y,z
1/2+x,1/2+y,1/2+z
1/2-x,-y,1/2+z
1/2+x,1/2-y,1/2-z
1/2-x,y,1/2-z
1/2-x,1/2-y,1/2-z
1/2+x,y,1/2-z
1/2-x,1/2+y,1/2+z
1/2+x,-y,1/2+z
loop_
_atom_site_type_symbol
_atom_site_label
_atom_site_fract_x
_atom_site_fract_y
_atom_site_fract_z
Si Si1 0.764872 0.649831 0.580413
Si Si2 0.156661 0.003132 0.834559
Si Si3 0.646440 0.100268 0.010418
Si Si4 0.149069 0.350922 0.346432
Si Si5 0.352466 0.474078 0.593330
Si Si6 0.850556 0.847737 0.039193
Si Si7 0.152200 0.148459 0.779749
O O1 0.708904 0.750000 0.575858
O O2 0.853273 0.619388 0.549481
O O3 0.850076 0.642142 0.613808
O O4 0.646171 0.578485 0.583568
O O5 0.244701 0.914808 0.827894
O O6 0.205481 0.040277 0.870055
O O7 0.000000 0.977372 0.834909
O O8 0.188262 0.080426 0.808737
O O9 0.500000 0.126991 0.997640
O O10 0.760472 0.158256 0.993387
O O11 0.678474 0.000000 0.000000
O O12 0.184308 0.250000 0.335784
O O13 0.000000 0.376016 0.334887
O O14 0.500000 0.436614 0.593611
O O15 0.279876 0.413891 0.565728
O O16 0.855464 0.750000 0.055120
O O17 0.000000 0.878900 0.029239
O O18 0.174313 0.250000 0.792020
O O19 0.250000 0.125580 0.750000
O O20 0.000000 0.135196 0.768193
#
# Coordination Sequence:
#
# PCOD8298623 Si02
#       7
#    16  16  16  16  16  16  16
#     4  10  19  32  50  71  94 126 165 207 258 310
#     4   9  18  32  52  78 105 136 170 206 250 295
#     4  11  22  35  52  71  92 124 164 208 257 307
#     4   9  18  32  51  75 102 133 169 211 259 309
#     4   9  18  33  50  72 101 128 160 205 248 295
#     4  10  21  36  52  69  92 126 163 201 251 305
#     4   9  18  33  54  81 112 143 175 209 244 286
#
# _framework density 18.217162999999999
#
# number of rings (size 3 to 8) (size 9 to 14) (size 15 to 20)
#    0.000    2.429    1.429    0.857    0.000    4.286 
#    0.000    5.714    0.000    0.429    0.000    2.000 
#    0.000    0.000    0.000    0.000    0.000    0.000 
#
# Total GULP energy -693879.811255 kJ/mol
# GULP energy per Si atom -12390.710915 kJ/mol
# Density = 1.817570 g / cm^3
# Si number density = 18.217163 Si / 1000 Ang^3
#
#
#
# Elastic Constant Matrix: (Units=GPa)
#
#
# Indices 1 2 3 4 5 6 
#
# 1 85.0678 49.3550 44.8027 0.0000 0.0000 0.0000
# 2 49.3550 121.7354 61.2027 0.0000 0.0000 0.0000
# 3 44.8027 61.2027 84.3962 0.0000 0.0000 0.0000
# 4 0.0000 0.0000 0.0000 31.5190 0.0000 0.0000
# 5 0.0000 0.0000 0.0000 0.0000 19.9799 0.0000
# 6 0.0000 0.0000 0.0000 0.0000 0.0000 21.8702
#
#
#
# Elastic Compliance Matrix: (Units=1/GPa)
#
#
# Indices 1 2 3 4 5 6 
#
# 1 0.017359 -0.003785 -0.006471 0.000000 0.000000 0.000000
# 2 -0.003785 0.013753 -0.007964 0.000000 0.000000 0.000000
# 3 -0.006471 -0.007964 0.021059 0.000000 0.000000 0.000000
# 4 0.000000 0.000000 0.000000 0.031727 0.000000 0.000000
# 5 0.000000 0.000000 0.000000 0.000000 0.050050 0.000000
# 6 0.000000 0.000000 0.000000 0.000000 0.000000 0.045724
#
#
# Mechanical properties :
#
#
# Convention : Reuss Voigt Hill
#
# Bulk Modulus (GPa) = 63.56380 66.88002 65.22191
# Shear Modulus (GPa) = 22.58800 23.72975 23.15887
#
# Velocity S-wave (km/s) = 3.52508 3.61308 3.56935
# Velocity P-wave (km/s) = 7.17888 7.36194 7.27098
#
# Compressibility (1/GPa) = 0.01573223
#
# Stress axis : x y z
#
# Youngs Moduli (GPa) = 57.60685 72.71114 47.48464
#
# Poissons Ratio (x) = 0.27519 0.30725
# Poissons Ratio (y) = 0.21803 0.37818
# Poissons Ratio (z) = 0.37275 0.57909
#
# Static dielectric constant tensor:
#      x y z
#    x 3.236320 0.000000 0.000000 
#    y 0.000000 3.492390 0.000000 
#    z 0.000000 0.000000 3.173480 
# 
# 
# High freq. dielectric constant tensor:
#      x y z
#    x 1.693020 0.000000 0.000000 
#    y 0.000000 1.712910 0.000000 
#    z 0.000000 0.000000 1.680500 
# 
# From -- ./inp_files/71876.got.cif
#   From: 2010.03.12/outbox.cif.g09.slc.cpg/sg74_36_cif.got.tgz:71876.got - 2010.04.16 15:46:19.
