data_PCOD8298719
_publ_section_title
;
Structure prediction by ZEFSAII (Michael W. Deem and Ramdas Pophale) SiO2 
 PCOD8298719
Probable space group: I M M A
;
_chemical_formula_sum "Si O2"
_cell_formula_units_Z 112
_cell_length_a 19.694453
_cell_length_b 9.370780
_cell_length_c 34.125059
_cell_angle_alpha 90.000000
_cell_angle_beta 90.000000
_cell_angle_gamma 90.000000
_cell_volume 6297.861071
_symmetry_space_group_name_H-M "I M M A"
_symmetry_group_IT_number 74
_symmetry_cell_setting 'orthorhombic'
loop_
_space_group_symop_operation_xyz
x,y,z
-x,1/2-y,z
x,-y,-z
-x,1/2+y,-z
-x,-y,-z
x,1/2+y,-z
-x,y,z
x,1/2-y,z
1/2+x,1/2+y,1/2+z
1/2-x,-y,1/2+z
1/2+x,1/2-y,1/2-z
1/2-x,y,1/2-z
1/2-x,1/2-y,1/2-z
1/2+x,y,1/2-z
1/2-x,1/2+y,1/2+z
1/2+x,-y,1/2+z
loop_
_atom_site_type_symbol
_atom_site_label
_atom_site_fract_x
_atom_site_fract_y
_atom_site_fract_z
Si Si1 0.422848 0.419310 0.108915
Si Si2 0.814219 0.083965 0.082409
Si Si3 0.170706 0.089664 0.760009
Si Si4 0.421962 0.086048 0.539072
Si Si5 0.295710 0.092193 0.329186
Si Si6 0.675220 0.417859 0.040055
Si Si7 0.361128 0.090128 0.189520
O O1 0.500000 0.469861 0.101983
O O2 0.415893 0.250000 0.110339
O O3 0.376942 0.476200 0.073083
O O4 0.396467 0.477828 0.150887
O O5 0.834120 0.250000 0.078937
O O6 0.877862 0.984729 0.072872
O O7 0.795308 0.039748 0.126281
O O8 0.751343 0.048318 0.054101
O O9 0.142912 0.250000 0.763398
O O10 0.250000 0.088710 0.750000
O O11 0.160301 0.012478 0.801843
O O12 0.125336 0.010064 0.727067
O O13 0.500000 0.072713 0.551674
O O14 0.400857 0.250000 0.532420
O O15 0.406107 0.000000 0.500000
O O16 0.327899 0.250000 0.325480
O O17 0.218694 0.097712 0.315919
O O18 0.664797 0.250000 0.032909
O O19 0.659838 0.500000 0.000000
O O20 0.389466 0.250000 0.197716
#
# Coordination Sequence:
#
# PCOD8298719 Si02
#       7
#    16  16  16  16  16  16  16
#     4   9  17  31  52  74  97 131 175 219 260 303
#     4  10  19  32  52  76 104 133 168 210 253 299
#     4   9  17  27  42  69 101 128 154 193 244 295
#     4  10  21  36  53  74 100 130 165 203 245 297
#     4   9  16  28  47  72  99 129 162 200 243 291
#     4  10  20  34  50  73 102 132 169 215 263 308
#     4   9  15  28  49  70  94 126 165 206 246 292
#
# _framework density 17.783816999999999
#
# number of rings (size 3 to 8) (size 9 to 14) (size 15 to 20)
#    0.000    2.571    1.429    1.286    0.000    5.143 
#    0.000    0.714    0.000    2.143    0.000    2.000 
#    0.000    0.000    0.000    0.000    0.000    0.000 
#
# Total GULP energy -694284.198870 kJ/mol
# GULP energy per Si atom -12397.932123 kJ/mol
# Density = 1.774334 g / cm^3
# Si number density = 17.783817 Si / 1000 Ang^3
#
#
#
# Elastic Constant Matrix: (Units=GPa)
#
#
# Indices 1 2 3 4 5 6 
#
# 1 51.6974 30.8663 31.2683 0.0000 0.0000 0.0000
# 2 30.8663 84.9752 52.2858 0.0000 0.0000 0.0000
# 3 31.2683 52.2858 109.0623 0.0000 0.0000 0.0000
# 4 0.0000 0.0000 0.0000 29.7573 0.0000 0.0000
# 5 0.0000 0.0000 0.0000 0.0000 17.1746 0.0000
# 6 0.0000 0.0000 0.0000 0.0000 0.0000 14.0948
#
#
#
# Elastic Compliance Matrix: (Units=1/GPa)
#
#
# Indices 1 2 3 4 5 6 
#
# 1 0.025957 -0.006879 -0.004144 0.000000 0.000000 0.000000
# 2 -0.006879 0.018515 -0.006904 0.000000 0.000000 0.000000
# 3 -0.004144 -0.006904 0.013667 0.000000 0.000000 0.000000
# 4 0.000000 0.000000 0.000000 0.033605 0.000000 0.000000
# 5 0.000000 0.000000 0.000000 0.000000 0.058225 0.000000
# 6 0.000000 0.000000 0.000000 0.000000 0.000000 0.070948
#
#
# Mechanical properties :
#
#
# Convention : Reuss Voigt Hill
#
# Bulk Modulus (GPa) = 44.87324 52.73063 48.80194
# Shear Modulus (GPa) = 18.92508 20.95964 19.94236
#
# Velocity S-wave (km/s) = 3.26571 3.43677 3.35233
# Velocity P-wave (km/s) = 6.28548 6.74268 6.51809
#
# Compressibility (1/GPa) = 0.02228500
#
# Stress axis : x y z
#
# Youngs Moduli (GPa) = 38.52560 54.01070 73.16817
#
# Poissons Ratio (x) = 0.37152 0.30322
# Poissons Ratio (y) = 0.26500 0.50516
# Poissons Ratio (z) = 0.15966 0.37290
#
# Static dielectric constant tensor:
#      x y z
#    x 3.040640 0.000000 0.000000 
#    y 0.000000 3.279610 0.000000 
#    z 0.000000 0.000000 3.424310 
# 
# 
# High freq. dielectric constant tensor:
#      x y z
#    x 1.655650 0.000000 0.000000 
#    y 0.000000 1.672200 0.000000 
#    z 0.000000 0.000000 1.696520 
# 
# From -- ./inp_files/68393.got.cif
#   From: 2010.03.12/outbox.cif.g09.slc.cpg/sg74_35_cif.got.tgz:68393.got - 2010.04.16 15:46:19.
