data_PCOD8298398
_publ_section_title
;
Structure prediction by ZEFSAII (Michael W. Deem and Ramdas Pophale) SiO2 
 PCOD8298398
Probable space group: I M M A
;
_chemical_formula_sum "Si O2"
_cell_formula_units_Z 112
_cell_length_a 14.464899
_cell_length_b 27.953480
_cell_length_c 16.383365
_cell_angle_alpha 90.000000
_cell_angle_beta 90.000000
_cell_angle_gamma 90.000000
_cell_volume 6624.519677
_symmetry_space_group_name_H-M "I M M A"
_symmetry_group_IT_number 74
_symmetry_cell_setting 'orthorhombic'
loop_
_space_group_symop_operation_xyz
x,y,z
-x,1/2-y,z
x,-y,-z
-x,1/2+y,-z
-x,-y,-z
x,1/2+y,-z
-x,y,z
x,1/2-y,z
1/2+x,1/2+y,1/2+z
1/2-x,-y,1/2+z
1/2+x,1/2-y,1/2-z
1/2-x,y,1/2-z
1/2-x,1/2-y,1/2-z
1/2+x,y,1/2-z
1/2-x,1/2+y,1/2+z
1/2+x,-y,1/2+z
loop_
_atom_site_type_symbol
_atom_site_label
_atom_site_fract_x
_atom_site_fract_y
_atom_site_fract_z
Si Si1 0.104048 0.977107 0.188981
Si Si2 0.899414 0.874106 0.118340
Si Si3 0.641666 0.195969 0.760037
Si Si4 0.740341 0.527749 0.577629
Si Si5 0.394923 0.303399 0.945216
Si Si6 0.775638 0.614832 0.478369
Si Si7 0.608504 0.460915 0.876743
O O1 0.117429 0.929575 0.137044
O O2 0.125873 0.961499 0.280624
O O3 0.000000 0.997743 0.181900
O O4 0.175065 0.017511 0.155846
O O5 0.904196 0.841330 0.198668
O O6 0.815888 0.860271 0.059157
O O7 0.000000 0.868405 0.075415
O O8 0.605948 0.250000 0.742146
O O9 0.750000 0.193072 0.750000
O O10 0.613135 0.180332 0.850929
O O11 0.695961 0.500000 0.500000
O O12 0.747120 0.584343 0.558341
O O13 0.846071 0.509910 0.589997
O O14 0.500000 0.305056 0.974061
O O15 0.354031 0.250000 0.955563
O O16 0.338905 0.339998 0.002871
O O17 0.833367 0.582936 0.413862
O O18 0.500000 0.458051 0.900204
#
# Coordination Sequence:
#
# PCOD8298398 Si02
#       7
#    16  16  16  16  16  16  16
#     4  10  20  33  49  68  93 125 162 204 241 286
#     4  11  21  30  45  65  89 124 164 201 240 280
#     4  10  19  31  47  66  92 124 162 210 245 272
#     4  10  20  32  47  67  93 127 157 199 239 288
#     4  10  20  33  49  68  93 126 161 198 243 287
#     4  11  21  33  48  70  95 126 164 203 241 284
#     4  10  20  32  49  70  92 123 159 199 244 286
#
# _framework density 16.906886
#
# number of rings (size 3 to 8) (size 9 to 14) (size 15 to 20)
#    0.000    1.714    4.286    2.143    0.000    6.000 
#    0.000    0.000    0.000    0.000    0.000    0.000 
#    0.000    2.286    0.000    3.143    0.000    0.000 
#
# Total GULP energy -694145.720665 kJ/mol
# GULP energy per Si atom -12395.459298 kJ/mol
# Density = 1.686841 g / cm^3
# Si number density = 16.906886 Si / 1000 Ang^3
#
#
#
# Elastic Constant Matrix: (Units=GPa)
#
#
# Indices 1 2 3 4 5 6 
#
# 1 97.7754 36.2147 20.1857 -0.0001 0.0000 0.0000
# 2 36.2147 87.7285 14.0295 0.0000 -0.0001 0.0000
# 3 20.1857 14.0295 21.7377 -0.0003 -0.0001 0.0000
# 4 -0.0001 0.0000 -0.0003 30.1378 -0.0001 0.0000
# 5 0.0000 -0.0001 -0.0001 -0.0001 18.7031 0.0000
# 6 0.0000 0.0000 0.0000 0.0000 0.0000 19.9548
#
#
#
# Elastic Compliance Matrix: (Units=1/GPa)
#
#
# Indices 1 2 3 4 5 6 
#
# 1 0.013851 -0.004082 -0.010227 0.000000 0.000000 0.000000
# 2 -0.004082 0.013914 -0.005189 0.000000 0.000000 0.000000
# 3 -0.010227 -0.005189 0.058849 0.000001 0.000000 0.000000
# 4 0.000000 0.000000 0.000001 0.033181 0.000000 0.000000
# 5 0.000000 0.000000 0.000000 0.000000 0.053467 0.000000
# 6 0.000000 0.000000 0.000000 0.000000 0.000000 0.050113
#
#
# Mechanical properties :
#
#
# Convention : Reuss Voigt Hill
#
# Bulk Modulus (GPa) = 21.00111 38.67792 29.83951
# Shear Modulus (GPa) = 17.96975 22.87990 20.42483
#
# Velocity S-wave (km/s) = 3.26370 3.68270 3.47951
# Velocity P-wave (km/s) = 5.16245 6.40388 5.81638
#
# Compressibility (1/GPa) = 0.04761653
#
# Stress axis : x y z
#
# Youngs Moduli (GPa) = 72.19725 71.87112 16.99253
#
# Poissons Ratio (x) = 0.29339 0.17379
# Poissons Ratio (y) = 0.29472 0.08818
# Poissons Ratio (z) = 0.73839 0.37296
#
# Static dielectric constant tensor:
#      x y z
#    x 3.408660 0.000000 0.000000 
#    y 0.000000 3.198810 0.000000 
#    z 0.000000 0.000000 2.861350 
# 
# 
# High freq. dielectric constant tensor:
#      x y z
#    x 1.672820 0.000000 0.000000 
#    y 0.000000 1.636290 0.000000 
#    z 0.000000 0.000000 1.596480 
# 
# From -- ./inp_files/33176.got.cif
#   From: 2010.03.12/outbox.cif.g09.slc.cpg/sg74_17_cif.got.tgz:33176.got - 2010.04.16 15:46:19.
