data_PCOD8298294
_publ_section_title
;
Structure prediction by ZEFSAII (Michael W. Deem and Ramdas Pophale) SiO2 
 PCOD8298294
Probable space group: I M M A
;
_chemical_formula_sum "Si O2"
_cell_formula_units_Z 80
_cell_length_a 15.508293
_cell_length_b 19.038892
_cell_length_c 16.581409
_cell_angle_alpha 90.000000
_cell_angle_beta 90.000000
_cell_angle_gamma 90.000000
_cell_volume 4895.838686
_symmetry_space_group_name_H-M "I M M A"
_symmetry_group_IT_number 74
_symmetry_cell_setting 'orthorhombic'
loop_
_space_group_symop_operation_xyz
x,y,z
-x,1/2-y,z
x,-y,-z
-x,1/2+y,-z
-x,-y,-z
x,1/2+y,-z
-x,y,z
x,1/2-y,z
1/2+x,1/2+y,1/2+z
1/2-x,-y,1/2+z
1/2+x,1/2-y,1/2-z
1/2-x,y,1/2-z
1/2-x,1/2-y,1/2-z
1/2+x,y,1/2-z
1/2-x,1/2+y,1/2+z
1/2+x,-y,1/2+z
loop_
_atom_site_type_symbol
_atom_site_label
_atom_site_fract_x
_atom_site_fract_y
_atom_site_fract_z
Si Si1 0.598814 0.495323 0.091234
Si Si2 0.820704 0.867174 0.683535
Si Si3 0.097220 0.349933 0.646006
Si Si4 0.760003 0.750000 0.409988
Si Si5 0.765231 0.250000 0.089071
Si Si6 0.905992 0.750000 0.780112
Si Si7 0.903527 0.250000 0.791214
O O1 0.500000 0.472473 0.083486
O O2 0.645381 0.438035 0.145151
O O3 0.610300 0.567000 0.141248
O O4 0.637411 0.500000 0.000000
O O5 0.750000 0.887372 0.750000
O O6 0.785667 0.820640 0.610243
O O7 0.892553 0.820072 0.727423
O O8 0.175750 0.316469 0.595802
O O9 0.104562 0.320323 0.736946
O O10 0.000000 0.330987 0.612889
O O11 0.713139 0.750000 0.495391
O O12 0.678895 0.750000 0.349506
O O13 0.851325 0.250000 0.139733
O O14 0.000000 0.750000 0.815235
O O15 0.000000 0.250000 0.832611
#
# Coordination Sequence:
#
# PCOD8298294 Si02
#       7
#    16  16  16   8   8   8   8
#     4  10  19  30  46  70  96 118 145 184 226 268
#     4   9  18  32  47  65  91 120 150 183 221 269
#     4   9  18  31  46  68  96 121 153 190 221 271
#     4  11  18  30  51  67  91 127 153 183 238 276
#     4   9  19  31  45  70  94 113 150 198 225 260
#     4   9  17  32  51  66  86 119 155 187 226 271
#     4   9  19  33  47  67  92 121 159 194 222 267
#
# _framework density 16.340408
#
# number of rings (size 3 to 8) (size 9 to 14) (size 15 to 20)
#    0.000    2.600    0.000    5.100    0.000    2.000 
#    0.000    5.000    0.000    0.000    0.000    0.000 
#    0.000   20.800    0.000    0.000    0.000    0.000 
#
# Total GULP energy -495550.519756 kJ/mol
# GULP energy per Si atom -12388.762994 kJ/mol
# Density = 1.630322 g / cm^3
# Si number density = 16.340408 Si / 1000 Ang^3
#
#
#
# Elastic Constant Matrix: (Units=GPa)
#
#
# Indices 1 2 3 4 5 6 
#
# 1 100.4005 52.5685 49.6209 0.0000 0.0000 0.0000
# 2 52.5685 130.3152 54.9053 0.0000 0.0000 0.0000
# 3 49.6209 54.9053 105.4927 0.0000 0.0000 0.0000
# 4 0.0000 0.0000 0.0000 16.3082 0.0000 0.0000
# 5 0.0000 0.0000 0.0000 0.0000 9.2093 0.0000
# 6 0.0000 0.0000 0.0000 0.0000 0.0000 15.3430
#
#
#
# Elastic Compliance Matrix: (Units=1/GPa)
#
#
# Indices 1 2 3 4 5 6 
#
# 1 0.014279 -0.003753 -0.004763 0.000000 0.000000 0.000000
# 2 -0.003753 0.010816 -0.003864 0.000000 0.000000 0.000000
# 3 -0.004763 -0.003864 0.013731 0.000000 0.000000 0.000000
# 4 0.000000 0.000000 0.000000 0.061319 0.000000 0.000000
# 5 0.000000 0.000000 0.000000 0.000000 0.108586 0.000000
# 6 0.000000 0.000000 0.000000 0.000000 0.000000 0.065176
#
#
# Mechanical properties :
#
#
# Convention : Reuss Voigt Hill
#
# Bulk Modulus (GPa) = 71.09674 72.26642 71.68158
# Shear Modulus (GPa) = 16.48228 20.11300 18.29764
#
# Velocity S-wave (km/s) = 3.17942 3.51219 3.34994
# Velocity P-wave (km/s) = 7.55530 7.79544 7.67631
#
# Compressibility (1/GPa) = 0.01406534
#
# Stress axis : x y z
#
# Youngs Moduli (GPa) = 70.03070 92.45832 72.82950
#
# Poissons Ratio (x) = 0.34704 0.34690
# Poissons Ratio (y) = 0.26285 0.28139
# Poissons Ratio (z) = 0.33357 0.35723
#
# Static dielectric constant tensor:
#      x y z
#    x 3.143880 0.000000 0.000000 
#    y 0.000000 2.824610 0.000000 
#    z 0.000000 0.000000 2.935140 
# 
# 
# High freq. dielectric constant tensor:
#      x y z
#    x 1.626930 0.000000 0.000000 
#    y 0.000000 1.630070 0.000000 
#    z 0.000000 0.000000 1.616430 
# 
# From -- ./inp_files/42739.got.cif
#   From: 2010.03.12/outbox.cif.g09.slc.cpg/sg74_22_cif.got.tgz:42739.got - 2010.04.16 15:46:19.
