data_PCOD8298664
_publ_section_title
;
Structure prediction by ZEFSAII (Michael W. Deem and Ramdas Pophale) SiO2 
 PCOD8298664
Probable space group: I M M A
;
_chemical_formula_sum "Si O2"
_cell_formula_units_Z 80
_cell_length_a 8.752514
_cell_length_b 18.558695
_cell_length_c 27.238516
_cell_angle_alpha 90.000000
_cell_angle_beta 90.000000
_cell_angle_gamma 90.000000
_cell_volume 4424.494824
_symmetry_space_group_name_H-M "I M M A"
_symmetry_group_IT_number 74
_symmetry_cell_setting 'orthorhombic'
loop_
_space_group_symop_operation_xyz
x,y,z
-x,1/2-y,z
x,-y,-z
-x,1/2+y,-z
-x,-y,-z
x,1/2+y,-z
-x,y,z
x,1/2-y,z
1/2+x,1/2+y,1/2+z
1/2-x,-y,1/2+z
1/2+x,1/2-y,1/2-z
1/2-x,y,1/2-z
1/2-x,1/2-y,1/2-z
1/2+x,y,1/2-z
1/2-x,1/2+y,1/2+z
1/2+x,-y,1/2+z
loop_
_atom_site_type_symbol
_atom_site_label
_atom_site_fract_x
_atom_site_fract_y
_atom_site_fract_z
Si Si1 0.178763 0.167798 0.801894
Si Si2 0.322491 0.039110 0.850379
Si Si3 0.822908 0.466273 0.451266
Si Si4 0.180763 0.596550 0.801881
Si Si5 0.320517 0.831523 0.893605
O O1 0.216665 0.250000 0.815598
O O2 0.250000 0.146332 0.750000
O O3 0.256284 0.118829 0.843230
O O4 0.000000 0.153119 0.799586
O O5 0.500000 0.035838 0.836850
O O6 0.293077 0.021267 0.907095
O O7 0.235841 0.983682 0.815046
O O8 0.742208 0.500000 0.500000
O O9 0.759145 0.387028 0.435551
O O10 0.000000 0.456312 0.462985
O O11 0.250000 0.620741 0.750000
O O12 0.235799 0.653643 0.842525
O O13 0.000000 0.597720 0.798546
O O14 0.500000 0.845420 0.884419
O O15 0.287284 0.750000 0.910986
#
# Coordination Sequence:
#
# PCOD8298664 Si02
#       5
#    16  16  16  16  16
#     4  10  20  33  49  70  99 134 169 205 247 295
#     4  10  19  32  51  74 100 129 165 208 249 293
#     4   8  15  30  52  76  99 125 161 206 251 292
#     4  11  21  33  50  72 100 133 168 203 242 292
#     4   9  18  33  52  74 101 132 166 205 248 292
#
# _framework density 18.081161000000002
#
# number of rings (size 3 to 8) (size 9 to 14) (size 15 to 20)
#    0.000    2.400    0.000    4.800    0.000    2.000 
#    0.000    1.000    0.000   18.600    0.000    0.000 
#    0.000    0.000    0.000    0.000    0.000    0.000 
#
# Total GULP energy -495954.330963 kJ/mol
# GULP energy per Si atom -12398.858274 kJ/mol
# Density = 1.804001 g / cm^3
# Si number density = 18.081161 Si / 1000 Ang^3
#
#
#
# Elastic Constant Matrix: (Units=GPa)
#
#
# Indices 1 2 3 4 5 6 
#
# 1 86.0878 43.6571 39.8042 0.0000 0.0000 0.0000
# 2 43.6571 133.1618 67.8710 0.0000 0.0000 0.0000
# 3 39.8042 67.8710 117.4558 0.0000 0.0000 0.0000
# 4 0.0000 0.0000 0.0000 20.3429 0.0000 0.0000
# 5 0.0000 0.0000 0.0000 0.0000 18.3437 0.0000
# 6 0.0000 0.0000 0.0000 0.0000 0.0000 28.0403
#
#
#
# Elastic Compliance Matrix: (Units=1/GPa)
#
#
# Indices 1 2 3 4 5 6 
#
# 1 0.014694 -0.003231 -0.003113 0.000000 0.000000 0.000000
# 2 -0.003231 0.011355 -0.005467 0.000000 0.000000 0.000000
# 3 -0.003113 -0.005467 0.012727 0.000000 0.000000 0.000000
# 4 0.000000 0.000000 0.000000 0.049157 0.000000 0.000000
# 5 0.000000 0.000000 0.000000 0.000000 0.054515 0.000000
# 6 0.000000 0.000000 0.000000 0.000000 0.000000 0.035663
#
#
# Mechanical properties :
#
#
# Convention : Reuss Voigt Hill
#
# Bulk Modulus (GPa) = 65.97943 71.04112 68.51028
# Shear Modulus (GPa) = 24.17990 25.70357 24.94173
#
# Velocity S-wave (km/s) = 3.66088 3.77446 3.71810
# Velocity P-wave (km/s) = 7.37830 7.64008 7.51033
#
# Compressibility (1/GPa) = 0.01515624
#
# Stress axis : x y z
#
# Youngs Moduli (GPa) = 68.05667 88.06562 78.57013
#
# Poissons Ratio (x) = 0.28453 0.24455
# Poissons Ratio (y) = 0.21988 0.42951
# Poissons Ratio (z) = 0.21183 0.48142
#
# Static dielectric constant tensor:
#      x y z
#    x 3.220560 0.000000 0.000000 
#    y 0.000000 3.470550 0.000000 
#    z 0.000000 0.000000 3.362460 
# 
# 
# High freq. dielectric constant tensor:
#      x y z
#    x 1.689170 0.000000 0.000000 
#    y 0.000000 1.704870 0.000000 
#    z 0.000000 0.000000 1.685850 
# 
# From -- ./inp_files/63923.got.cif
#   From: 2010.03.12/outbox.cif.g09.slc.cpg/sg74_32_cif.got.tgz:63923.got - 2010.04.16 15:46:19.
