data_PCOD8298172
_publ_section_title
;
Structure prediction by ZEFSAII (Michael W. Deem and Ramdas Pophale) SiO2 
 PCOD8298172
Probable space group: I M M A
;
_chemical_formula_sum "Si O2"
_cell_formula_units_Z 80
_cell_length_a 14.599320
_cell_length_b 22.137322
_cell_length_c 16.845770
_cell_angle_alpha 90.000000
_cell_angle_beta 90.000000
_cell_angle_gamma 90.000000
_cell_volume 5444.381843
_symmetry_space_group_name_H-M "I M M A"
_symmetry_group_IT_number 74
_symmetry_cell_setting 'orthorhombic'
loop_
_space_group_symop_operation_xyz
x,y,z
-x,1/2-y,z
x,-y,-z
-x,1/2+y,-z
-x,-y,-z
x,1/2+y,-z
-x,y,z
x,1/2-y,z
1/2+x,1/2+y,1/2+z
1/2-x,-y,1/2+z
1/2+x,1/2-y,1/2-z
1/2-x,y,1/2-z
1/2-x,1/2-y,1/2-z
1/2+x,y,1/2-z
1/2-x,1/2+y,1/2+z
1/2+x,-y,1/2+z
loop_
_atom_site_type_symbol
_atom_site_label
_atom_site_fract_x
_atom_site_fract_y
_atom_site_fract_z
Si Si1 0.601900 0.438654 0.549511
Si Si2 0.104274 0.820647 0.620665
Si Si3 0.103709 0.369822 0.209222
Si Si4 0.314080 0.009069 0.319292
Si Si5 0.771025 0.112051 0.074525
O O1 0.596690 0.500000 0.500000
O O2 0.500000 0.409511 0.551999
O O3 0.634099 0.453122 0.639350
O O4 0.673855 0.392851 0.508444
O O5 0.113844 0.750000 0.605974
O O6 0.134220 0.836807 0.710336
O O7 0.173138 0.855523 0.560937
O O8 0.000000 0.842170 0.604593
O O9 0.114471 0.442697 0.219037
O O10 0.168026 0.347852 0.136477
O O11 0.000000 0.353286 0.187617
O O12 0.250000 0.982537 0.250000
O O13 0.255358 0.045362 0.386744
#
# Coordination Sequence:
#
# PCOD8298172 Si02
#       5
#    16  16  16  16  16
#     4   9  16  25  43  62  81 108 144 179 213 255
#     4  10  19  29  41  57  80 117 156 184 210 245
#     4   9  15  24  38  57  81 110 145 180 209 243
#     4   9  15  25  38  62  84 112 138 170 209 247
#     4   9  16  27  39  60  80 111 144 183 213 250
#
# _framework density 14.694046999999999
#
# number of rings (size 3 to 8) (size 9 to 14) (size 15 to 20)
#    1.200    1.600    2.000    1.800    0.000    1.600 
#    0.000    0.000    0.000    9.600    0.000    0.000 
#    0.000    0.800    0.000    0.200    0.000    0.200 
#
# Total GULP energy -495522.861975 kJ/mol
# GULP energy per Si atom -12388.071549 kJ/mol
# Density = 1.466060 g / cm^3
# Si number density = 14.694047 Si / 1000 Ang^3
#
#
#
# Elastic Constant Matrix: (Units=GPa)
#
#
# Indices 1 2 3 4 5 6 
#
# 1 100.6896 34.8539 40.5791 0.0000 0.0000 0.0000
# 2 34.8539 31.5369 18.0055 0.0000 0.0000 0.0000
# 3 40.5791 18.0055 50.9475 0.0000 0.0000 0.0000
# 4 0.0000 0.0000 0.0000 14.6976 0.0000 0.0000
# 5 0.0000 0.0000 0.0000 0.0000 22.0626 0.0000
# 6 0.0000 0.0000 0.0000 0.0000 0.0000 20.2025
#
#
#
# Elastic Compliance Matrix: (Units=1/GPa)
#
#
# Indices 1 2 3 4 5 6 
#
# 1 0.019360 -0.015775 -0.009845 0.000000 0.000000 0.000000
# 2 -0.015775 0.052579 -0.006017 0.000000 0.000000 0.000000
# 3 -0.009845 -0.006017 0.029596 0.000000 0.000000 0.000000
# 4 0.000000 0.000000 0.000000 0.068038 0.000000 0.000000
# 5 0.000000 0.000000 0.000000 0.000000 0.045326 0.000000
# 6 0.000000 0.000000 0.000000 0.000000 0.000000 0.049499
#
#
# Mechanical properties :
#
#
# Convention : Reuss Voigt Hill
#
# Bulk Modulus (GPa) = 26.13692 41.11677 33.62684
# Shear Modulus (GPa) = 14.68759 17.37492 16.03125
#
# Velocity S-wave (km/s) = 3.16501 3.44240 3.30662
# Velocity P-wave (km/s) = 5.58412 6.62139 6.12476
#
# Compressibility (1/GPa) = 0.03826006
#
# Stress axis : x y z
#
# Youngs Moduli (GPa) = 51.65395 19.01914 33.78876
#
# Poissons Ratio (x) = 0.30003 0.33264
# Poissons Ratio (y) = 0.81485 0.20331
# Poissons Ratio (z) = 0.50851 0.11444
#
# Static dielectric constant tensor:
#      x y z
#    x 2.941710 0.000000 0.000000 
#    y 0.000000 2.431610 0.000000 
#    z 0.000000 0.000000 2.643590 
# 
# 
# High freq. dielectric constant tensor:
#      x y z
#    x 1.569830 0.000000 0.000000 
#    y 0.000000 1.505040 0.000000 
#    z 0.000000 0.000000 1.525210 
# 
# From -- ./inp_files/42882.got.cif
#   From: 2010.03.12/outbox.cif.g09.slc.cpg/sg74_22_cif.got.tgz:42882.got - 2010.04.16 15:46:19.
