data_PCOD8298657
_publ_section_title
;
Structure prediction by ZEFSAII (Michael W. Deem and Ramdas Pophale) SiO2 
 PCOD8298657
Probable space group: I M M A
;
_chemical_formula_sum "Si O2"
_cell_formula_units_Z 88
_cell_length_a 19.349296
_cell_length_b 9.137727
_cell_length_c 27.568162
_cell_angle_alpha 90.000000
_cell_angle_beta 90.000000
_cell_angle_gamma 90.000000
_cell_volume 4874.287700
_symmetry_space_group_name_H-M "I M M A"
_symmetry_group_IT_number 74
_symmetry_cell_setting 'orthorhombic'
loop_
_space_group_symop_operation_xyz
x,y,z
-x,1/2-y,z
x,-y,-z
-x,1/2+y,-z
-x,-y,-z
x,1/2+y,-z
-x,y,z
x,1/2-y,z
1/2+x,1/2+y,1/2+z
1/2-x,-y,1/2+z
1/2+x,1/2-y,1/2-z
1/2-x,y,1/2-z
1/2-x,1/2-y,1/2-z
1/2+x,y,1/2-z
1/2-x,1/2+y,1/2+z
1/2+x,-y,1/2+z
loop_
_atom_site_type_symbol
_atom_site_label
_atom_site_fract_x
_atom_site_fract_y
_atom_site_fract_z
Si Si1 0.639789 0.583460 0.598300
Si Si2 0.678966 0.078664 0.690468
Si Si3 0.320342 0.421338 0.853065
Si Si4 0.500000 0.916834 0.548411
Si Si5 0.280978 0.419723 0.049954
Si Si6 0.922209 0.922381 0.272266
O O1 0.641938 0.750000 0.618294
O O2 0.645437 0.466389 0.640311
O O3 0.567008 0.538602 0.577474
O O4 0.698895 0.562352 0.557764
O O5 0.676370 0.250000 0.698375
O O6 0.759745 0.030160 0.685524
O O7 0.632406 0.007603 0.733541
O O8 0.311437 0.250000 0.865736
O O9 0.319395 0.510798 0.903315
O O10 0.392783 0.454439 0.826240
O O11 0.500000 0.750000 0.534270
O O12 0.500000 0.000000 0.500000
O O13 0.302650 0.250000 0.045946
O O14 0.302483 0.500000 0.000000
O O15 0.926899 0.750000 0.263604
O O16 0.000000 0.989865 0.267382
#
# Coordination Sequence:
#
# PCOD8298657 Si02
#       6
#    16  16  16   8  16  16
#     4   9  19  32  45  65  95 127 159 198 241 285
#     4   9  17  29  48  72  96 126 164 200 234 278
#     4   9  17  31  50  72  99 130 161 197 241 285
#     4  10  20  32  44  60  88 126 164 200 241 284
#     4  10  19  32  51  73  96 122 158 201 243 289
#     4   9  17  29  48  74 101 128 162 202 240 281
#
# _framework density 18.053920000000002
#
# number of rings (size 3 to 8) (size 9 to 14) (size 15 to 20)
#    0.000    2.727    0.000    1.636    1.273    3.636 
#    0.000    0.909    0.000    6.545    0.000    0.000 
#    0.000    0.000    0.000    0.000    0.000    0.000 
#
# Total GULP energy -545162.524224 kJ/mol
# GULP energy per Si atom -12390.057369 kJ/mol
# Density = 1.801283 g / cm^3
# Si number density = 18.053920 Si / 1000 Ang^3
#
#
#
# Elastic Constant Matrix: (Units=GPa)
#
#
# Indices 1 2 3 4 5 6 
#
# 1 84.3726 21.3604 53.5782 0.0000 0.0000 0.0000
# 2 21.3604 24.4783 29.7908 0.0000 0.0000 0.0000
# 3 53.5782 29.7908 92.6411 0.0000 0.0000 0.0000
# 4 0.0000 0.0000 0.0000 24.1922 0.0000 0.0000
# 5 0.0000 0.0000 0.0000 0.0000 12.9192 0.0000
# 6 0.0000 0.0000 0.0000 0.0000 0.0000 13.5974
#
#
#
# Elastic Compliance Matrix: (Units=1/GPa)
#
#
# Indices 1 2 3 4 5 6 
#
# 1 0.019142 -0.005308 -0.009364 0.000000 0.000000 0.000000
# 2 -0.005308 0.068593 -0.018988 0.000000 0.000000 0.000000
# 3 -0.009364 -0.018988 0.022316 0.000000 0.000000 0.000000
# 4 0.000000 0.000000 0.000000 0.041336 0.000000 0.000000
# 5 0.000000 0.000000 0.000000 0.000000 0.077404 0.000000
# 6 0.000000 0.000000 0.000000 0.000000 0.000000 0.073544
#
#
# Mechanical properties :
#
#
# Convention : Reuss Voigt Hill
#
# Bulk Modulus (GPa) = 23.40175 45.66119 34.53147
# Shear Modulus (GPa) = 13.02431 16.59259 14.80845
#
# Velocity S-wave (km/s) = 2.68882 3.03489 2.86708
# Velocity P-wave (km/s) = 4.75710 6.13410 5.48895
#
# Compressibility (1/GPa) = 0.04273184
#
# Stress axis : x y z
#
# Youngs Moduli (GPa) = 52.24066 14.57876 44.81128
#
# Poissons Ratio (x) = 0.07738 0.41961
# Poissons Ratio (y) = 0.27729 0.85087
# Poissons Ratio (z) = 0.48917 0.27682
#
# Static dielectric constant tensor:
#      x y z
#    x 2.914970 0.000000 0.000000 
#    y 0.000000 3.082070 0.000000 
#    z 0.000000 0.000000 3.265230 
# 
# 
# High freq. dielectric constant tensor:
#      x y z
#    x 1.689410 0.000000 0.000000 
#    y 0.000000 1.673000 0.000000 
#    z 0.000000 0.000000 1.698270 
# 
# From -- ./inp_files/64303.got.cif
#   From: 2010.03.12/outbox.cif.g09.slc.cpg/sg74_33_cif.got.tgz:64303.got - 2010.04.16 15:46:19.
