data_PCOD8298325
_publ_section_title
;
Structure prediction by ZEFSAII (Michael W. Deem and Ramdas Pophale) SiO2 
 PCOD8298325
Probable space group: I M M A
;
_chemical_formula_sum "Si O2"
_cell_formula_units_Z 64
_cell_length_a 14.534143
_cell_length_b 9.223046
_cell_length_c 27.618831
_cell_angle_alpha 90.000000
_cell_angle_beta 90.000000
_cell_angle_gamma 90.000000
_cell_volume 3702.278595
_symmetry_space_group_name_H-M "I M M A"
_symmetry_group_IT_number 74
_symmetry_cell_setting 'orthorhombic'
loop_
_space_group_symop_operation_xyz
x,y,z
-x,1/2-y,z
x,-y,-z
-x,1/2+y,-z
-x,-y,-z
x,1/2+y,-z
-x,y,z
x,1/2-y,z
1/2+x,1/2+y,1/2+z
1/2-x,-y,1/2+z
1/2+x,1/2-y,1/2-z
1/2-x,y,1/2-z
1/2-x,1/2-y,1/2-z
1/2+x,y,1/2-z
1/2-x,1/2+y,1/2+z
1/2+x,-y,1/2+z
loop_
_atom_site_type_symbol
_atom_site_label
_atom_site_fract_x
_atom_site_fract_y
_atom_site_fract_z
Si Si1 0.650124 0.408048 0.271772
Si Si2 0.399358 0.080369 0.169359
Si Si3 0.281374 0.421043 0.641537
Si Si4 0.895158 0.580710 0.047928
O O1 0.615051 0.250000 0.290404
O O2 0.750000 0.389409 0.250000
O O3 0.590285 0.464033 0.226234
O O4 0.651711 0.521037 0.315910
O O5 0.500000 0.049743 0.145646
O O6 0.372992 0.250000 0.165371
O O7 0.320728 0.989139 0.142320
O O8 0.272547 0.250000 0.647783
O O9 0.328678 0.466172 0.591429
O O10 0.887916 0.750000 0.037738
O O11 0.000000 0.536192 0.060746
O O12 0.860365 0.500000 0.000000
#
# Coordination Sequence:
#
# PCOD8298325 Si02
#       4
#    16  16  16  16
#     4   8  15  28  44  63  90 124 160 193 223 262
#     4   9  18  32  48  67  95 131 167 198 226 265
#     4  10  19  30  47  72  99 124 153 194 240 282
#     4   9  19  35  52  71  95 121 151 190 237 287
#
# _framework density 17.286652
#
# number of rings (size 3 to 8) (size 9 to 14) (size 15 to 20)
#    0.000    3.000    0.000    2.250    0.000    8.000 
#    0.000    0.000    0.000    0.750    0.000    0.000 
#    0.000    0.000    0.000    0.000    0.000    0.000 
#
# Total GULP energy -396534.736099 kJ/mol
# GULP energy per Si atom -12391.710503 kJ/mol
# Density = 1.724731 g / cm^3
# Si number density = 17.286652 Si / 1000 Ang^3
#
#
#
# Elastic Constant Matrix: (Units=GPa)
#
#
# Indices 1 2 3 4 5 6 
#
# 1 93.3682 44.6331 59.8916 0.0000 0.0000 0.0000
# 2 44.6331 74.6286 62.3895 0.0000 0.0000 0.0000
# 3 59.8916 62.3895 121.9395 0.0000 0.0000 0.0000
# 4 0.0000 0.0000 0.0000 30.5974 0.0000 0.0000
# 5 0.0000 0.0000 0.0000 0.0000 23.5512 0.0000
# 6 0.0000 0.0000 0.0000 0.0000 0.0000 18.7281
#
#
#
# Elastic Compliance Matrix: (Units=1/GPa)
#
#
# Indices 1 2 3 4 5 6 
#
# 1 0.016844 -0.005518 -0.005450 0.000000 0.000000 0.000000
# 2 -0.005518 0.025223 -0.010195 0.000000 0.000000 0.000000
# 3 -0.005450 -0.010195 0.016094 0.000000 0.000000 0.000000
# 4 0.000000 0.000000 0.000000 0.032682 0.000000 0.000000
# 5 0.000000 0.000000 0.000000 0.000000 0.042461 0.000000
# 6 0.000000 0.000000 0.000000 0.000000 0.000000 0.053396
#
#
# Mechanical properties :
#
#
# Convention : Reuss Voigt Hill
#
# Bulk Modulus (GPa) = 63.15064 69.30717 66.22891
# Shear Modulus (GPa) = 21.33995 22.77681 22.05838
#
# Velocity S-wave (km/s) = 3.51732 3.63381 3.57604
# Velocity P-wave (km/s) = 7.28740 7.60171 7.44621
#
# Compressibility (1/GPa) = 0.01583515
#
# Stress axis : x y z
#
# Youngs Moduli (GPa) = 59.36917 39.64700 62.13606
#
# Poissons Ratio (x) = 0.21876 0.33863
# Poissons Ratio (y) = 0.32758 0.63347
# Poissons Ratio (z) = 0.32356 0.40420
#
# Static dielectric constant tensor:
#      x y z
#    x 1.612970 0.000000 0.000000 
#    y 0.000000 3.169100 0.000000 
#    z 0.000000 0.000000 3.256280 
# 
# 
# High freq. dielectric constant tensor:
#      x y z
#    x 1.664640 0.000000 0.000000 
#    y 0.000000 1.663660 0.000000 
#    z 0.000000 0.000000 1.642630 
# 
# From -- ./inp_files/56397.got.cif
#   From: 2010.03.12/outbox.cif.g09.slc.cpg/sg74_29_cif.got.tgz:56397.got - 2010.04.16 15:46:19.
