data_PCOD8298346
_publ_section_title
;
Structure prediction by ZEFSAII (Michael W. Deem and Ramdas Pophale) SiO2 
 PCOD8298346
Probable space group: I M M A
;
_chemical_formula_sum "Si O2"
_cell_formula_units_Z 112
_cell_length_a 17.156582
_cell_length_b 14.861938
_cell_length_c 26.088848
_cell_angle_alpha 90.000000
_cell_angle_beta 90.000000
_cell_angle_gamma 90.000000
_cell_volume 6652.135976
_symmetry_space_group_name_H-M "I M M A"
_symmetry_group_IT_number 74
_symmetry_cell_setting 'orthorhombic'
loop_
_space_group_symop_operation_xyz
x,y,z
-x,1/2-y,z
x,-y,-z
-x,1/2+y,-z
-x,-y,-z
x,1/2+y,-z
-x,y,z
x,1/2-y,z
1/2+x,1/2+y,1/2+z
1/2-x,-y,1/2+z
1/2+x,1/2-y,1/2-z
1/2-x,y,1/2-z
1/2-x,1/2-y,1/2-z
1/2+x,y,1/2-z
1/2-x,1/2+y,1/2+z
1/2+x,-y,1/2+z
loop_
_atom_site_type_symbol
_atom_site_label
_atom_site_fract_x
_atom_site_fract_y
_atom_site_fract_z
Si Si1 0.715222 0.471060 0.849652
Si Si2 0.590724 0.353114 0.810191
Si Si3 0.908983 0.145842 0.121803
Si Si4 0.321415 0.000193 0.557439
Si Si5 0.159801 0.854100 0.201164
Si Si6 0.411124 0.845872 0.404364
Si Si7 0.265760 0.649999 0.690178
O O1 0.631822 0.421654 0.850077
O O2 0.751417 0.466897 0.906169
O O3 0.764809 0.416941 0.806494
O O4 0.709098 0.576351 0.835213
O O5 0.500000 0.368549 0.816979
O O6 0.613705 0.250000 0.822540
O O7 0.614516 0.379802 0.752547
O O8 0.907693 0.250000 0.105173
O O9 0.865678 0.089969 0.076693
O O10 0.856855 0.130914 0.173803
O O11 0.000000 0.115318 0.130446
O O12 0.287714 0.000000 0.500000
O O13 0.384052 0.079658 0.556018
O O14 0.186982 0.750000 0.202112
O O15 0.101841 0.875993 0.154399
O O16 0.500000 0.831189 0.414759
O O17 0.367861 0.750000 0.414138
O O18 0.242723 0.750000 0.670381
O O19 0.250000 0.643921 0.750000
#
# Coordination Sequence:
#
# PCOD8298346 Si02
#       7
#    16  16  16  16  16  16  16
#     4  10  19  32  48  66  92 124 159 193 229 273
#     4  10  19  30  48  75 103 126 148 180 224 276
#     4   9  18  32  49  69  94 123 155 194 238 278
#     4  10  21  34  47  64  88 120 161 201 237 275
#     4   9  16  27  45  70 101 133 156 172 204 267
#     4   9  17  28  42  64  96 129 156 183 217 261
#     4   9  17  30  47  66  90 122 160 197 232 272
#
# _framework density 16.836697000000001
#
# number of rings (size 3 to 8) (size 9 to 14) (size 15 to 20)
#    0.000    2.571    0.000    2.571    0.000    5.143 
#    0.000    7.143    0.000    1.714    0.000    0.000 
#    0.000    0.000    0.000    0.000    0.000    0.000 
#
# Total GULP energy -693874.978759 kJ/mol
# GULP energy per Si atom -12390.624621 kJ/mol
# Density = 1.679838 g / cm^3
# Si number density = 16.836697 Si / 1000 Ang^3
#
#
#
# Elastic Constant Matrix: (Units=GPa)
#
#
# Indices 1 2 3 4 5 6 
#
# 1 78.4833 44.3848 43.2448 0.0000 0.0000 0.0000
# 2 44.3848 94.0694 37.4578 0.0000 0.0000 0.0000
# 3 43.2448 37.4578 83.1635 0.0000 0.0000 0.0000
# 4 0.0000 0.0000 0.0000 7.1251 0.0000 0.0000
# 5 0.0000 0.0000 0.0000 0.0000 11.4644 0.0000
# 6 0.0000 0.0000 0.0000 0.0000 0.0000 25.7676
#
#
#
# Elastic Compliance Matrix: (Units=1/GPa)
#
#
# Indices 1 2 3 4 5 6 
#
# 1 0.020851 -0.006727 -0.007812 0.000000 0.000000 0.000000
# 2 -0.006727 0.015124 -0.003314 0.000000 0.000000 0.000000
# 3 -0.007812 -0.003314 0.017580 0.000000 0.000000 0.000000
# 4 0.000000 0.000000 0.000000 0.140349 0.000000 0.000000
# 5 0.000000 0.000000 0.000000 0.000000 0.087226 0.000000
# 6 0.000000 0.000000 0.000000 0.000000 0.000000 0.038808
#
#
# Mechanical properties :
#
#
# Convention : Reuss Voigt Hill
#
# Bulk Modulus (GPa) = 56.03044 56.21011 56.12027
# Shear Modulus (GPa) = 13.82767 17.58003 15.70385
#
# Velocity S-wave (km/s) = 2.86891 3.23484 3.05735
# Velocity P-wave (km/s) = 6.65772 6.88550 6.77257
#
# Compressibility (1/GPa) = 0.01784744
#
# Stress axis : x y z
#
# Youngs Moduli (GPa) = 47.96029 66.11957 56.88442
#
# Poissons Ratio (x) = 0.44480 0.44440
# Poissons Ratio (y) = 0.32264 0.18851
# Poissons Ratio (z) = 0.37468 0.21912
#
# Static dielectric constant tensor:
#      x y z
#    x 3.098310 0.000000 0.000000 
#    y 0.000000 -1.983330 0.000000 
#    z 0.000000 0.000000 2.955290 
# 
# 
# High freq. dielectric constant tensor:
#      x y z
#    x 1.622570 0.000000 0.000000 
#    y 0.000000 1.667210 0.000000 
#    z 0.000000 0.000000 1.620330 
# 
# From -- ./inp_files/72667.got.cif
#   From: 2010.03.12/outbox.cif.g09.slc.cpg/sg74_37_cif.got.tgz:72667.got - 2010.04.16 15:46:19.
