data_PCOD8298906
_publ_section_title
;
Structure prediction by ZEFSAII (Michael W. Deem and Ramdas Pophale) SiO2 
 PCOD8298906
Probable space group: I M M A
;
_chemical_formula_sum "Si O2"
_cell_formula_units_Z 96
_cell_length_a 16.636241
_cell_length_b 18.038792
_cell_length_c 18.110053
_cell_angle_alpha 90.000000
_cell_angle_beta 90.000000
_cell_angle_gamma 90.000000
_cell_volume 5434.785090
_symmetry_space_group_name_H-M "I M M A"
_symmetry_group_IT_number 74
_symmetry_cell_setting 'orthorhombic'
loop_
_space_group_symop_operation_xyz
x,y,z
-x,1/2-y,z
x,-y,-z
-x,1/2+y,-z
-x,-y,-z
x,1/2+y,-z
-x,y,z
x,1/2-y,z
1/2+x,1/2+y,1/2+z
1/2-x,-y,1/2+z
1/2+x,1/2-y,1/2-z
1/2-x,y,1/2-z
1/2-x,1/2-y,1/2-z
1/2+x,y,1/2-z
1/2-x,1/2+y,1/2+z
1/2+x,-y,1/2+z
loop_
_atom_site_type_symbol
_atom_site_label
_atom_site_fract_x
_atom_site_fract_y
_atom_site_fract_z
Si Si1 0.846927 0.330894 0.067845
Si Si2 0.280384 0.664770 0.049328
Si Si3 0.783525 0.115443 0.331761
Si Si4 0.762259 0.045980 0.836012
Si Si5 0.089090 0.337067 0.429800
Si Si6 0.591112 0.513419 0.582959
O O1 0.890491 0.250000 0.071839
O O2 0.770566 0.328505 0.121535
O O3 0.905499 0.397090 0.093573
O O4 0.808445 0.342823 0.986725
O O5 0.296598 0.750000 0.072625
O O6 0.279818 0.613542 0.121617
O O7 0.351028 0.635347 0.994867
O O8 0.750000 0.122362 0.250000
O O9 0.875258 0.139954 0.348774
O O10 0.779855 0.030596 0.359143
O O11 0.750000 0.063281 0.750000
O O12 0.856139 0.033012 0.858241
O O13 0.081434 0.250000 0.433435
O O14 0.000000 0.372508 0.439103
O O15 0.622617 0.500000 0.500000
O O16 0.500000 0.486135 0.593709
#
# Coordination Sequence:
#
# PCOD8298906 Si02
#       6
#    16  16  16  16  16  16
#     4   9  17  29  49  75  99 128 170 210 243 301
#     4   9  17  32  53  75 100 131 171 212 250 304
#     4   9  18  31  48  70 100 137 172 207 248 296
#     4  10  20  35  53  76 102 134 172 210 250 305
#     4   9  18  32  51  76 104 133 168 211 255 298
#     4  10  19  33  54  76 101 135 169 209 259 302
#
# _framework density 17.663992
#
# number of rings (size 3 to 8) (size 9 to 14) (size 15 to 20)
#    0.000    2.667    1.667    1.500    0.000    2.000 
#    0.000   10.000    0.000    0.500    0.000    0.000 
#    0.000    0.000    0.000    0.000    0.000    0.000 
#
# Total GULP energy -594681.323435 kJ/mol
# GULP energy per Si atom -12389.194238 kJ/mol
# Density = 1.762379 g / cm^3
# Si number density = 17.663992 Si / 1000 Ang^3
#
#
#
# Elastic Constant Matrix: (Units=GPa)
#
#
# Indices 1 2 3 4 5 6 
#
# 1 86.8150 20.0882 47.8628 0.0000 0.0000 0.0000
# 2 20.0882 64.2584 43.2653 0.0000 0.0000 0.0000
# 3 47.8628 43.2653 102.2661 0.0000 0.0000 0.0000
# 4 0.0000 0.0000 0.0000 25.3550 0.0000 0.0000
# 5 0.0000 0.0000 0.0000 0.0000 17.4329 0.0000
# 6 0.0000 0.0000 0.0000 0.0000 0.0000 15.4790
#
#
#
# Elastic Compliance Matrix: (Units=1/GPa)
#
#
# Indices 1 2 3 4 5 6 
#
# 1 0.015525 0.000054 -0.007289 0.000000 0.000000 0.000000
# 2 0.000054 0.021761 -0.009232 0.000000 0.000000 0.000000
# 3 -0.007289 -0.009232 0.017095 0.000000 0.000000 0.000000
# 4 0.000000 0.000000 0.000000 0.039440 0.000000 0.000000
# 5 0.000000 0.000000 0.000000 0.000000 0.057363 0.000000
# 6 0.000000 0.000000 0.000000 0.000000 0.000000 0.064603
#
#
# Mechanical properties :
#
#
# Convention : Reuss Voigt Hill
#
# Bulk Modulus (GPa) = 46.62341 52.86357 49.74349
# Shear Modulus (GPa) = 19.54123 21.12826 20.33474
#
# Velocity S-wave (km/s) = 3.32968 3.46225 3.39661
# Velocity P-wave (km/s) = 6.42139 6.78050 6.60339
#
# Compressibility (1/GPa) = 0.02144845
#
# Stress axis : x y z
#
# Youngs Moduli (GPa) = 64.41362 45.95395 58.49531
#
# Poissons Ratio (x) = -0.00250 0.42636
# Poissons Ratio (y) = -0.00350 0.54001
# Poissons Ratio (z) = 0.46950 0.42423
#
# Static dielectric constant tensor:
#      x y z
#    x 3.299020 0.000000 0.000000 
#    y 0.000000 3.269450 0.000000 
#    z 0.000000 0.000000 3.156630 
# 
# 
# High freq. dielectric constant tensor:
#      x y z
#    x 1.662700 0.000000 0.000000 
#    y 0.000000 1.683040 0.000000 
#    z 0.000000 0.000000 1.664120 
# 
# From -- ./inp_files/44109.got.cif
#   From: 2010.03.12/outbox.cif.g09.slc.cpg/sg74_23_cif.got.tgz:44109.got - 2010.04.16 15:46:19.
