data_PCOD8298010
_publ_section_title
;
Structure prediction by ZEFSAII (Michael W. Deem and Ramdas Pophale) SiO2 
 PCOD8298010
Probable space group: I M M A
;
_chemical_formula_sum "Si O2"
_cell_formula_units_Z 80
_cell_length_a 14.727622
_cell_length_b 22.495098
_cell_length_c 12.406508
_cell_angle_alpha 90.000000
_cell_angle_beta 90.000000
_cell_angle_gamma 90.000000
_cell_volume 4110.267418
_symmetry_space_group_name_H-M "I M M A"
_symmetry_group_IT_number 74
_symmetry_cell_setting 'orthorhombic'
loop_
_space_group_symop_operation_xyz
x,y,z
-x,1/2-y,z
x,-y,-z
-x,1/2+y,-z
-x,-y,-z
x,1/2+y,-z
-x,y,z
x,1/2-y,z
1/2+x,1/2+y,1/2+z
1/2-x,-y,1/2+z
1/2+x,1/2-y,1/2-z
1/2-x,y,1/2-z
1/2-x,1/2-y,1/2-z
1/2+x,y,1/2-z
1/2-x,1/2+y,1/2+z
1/2+x,-y,1/2+z
loop_
_atom_site_type_symbol
_atom_site_label
_atom_site_fract_x
_atom_site_fract_y
_atom_site_fract_z
Si Si1 0.687254 0.866982 0.342300
Si Si2 0.500000 0.319201 0.566665
Si Si3 0.100785 0.529481 0.269129
Si Si4 0.000000 0.678799 0.820472
Si Si5 0.311694 0.564356 0.017879
Si Si6 0.649211 0.601001 0.785703
O O1 0.750000 0.833405 0.250000
O O2 0.592168 0.834966 0.368060
O O3 0.670837 0.933049 0.299455
O O4 0.745091 0.881123 0.449110
O O5 0.500000 0.250000 0.554033
O O6 0.500000 0.345051 0.444765
O O7 0.111818 0.547893 0.394184
O O8 0.118797 0.461612 0.235622
O O9 0.000000 0.546634 0.233573
O O10 0.087631 0.654224 0.758157
O O11 0.000000 0.750000 0.813803
O O12 0.261136 0.500000 0.000000
O O13 0.360665 0.592047 0.913803
O O14 0.750000 0.617229 0.750000
#
# Coordination Sequence:
#
# PCOD8298010 Si02
#       6
#    16   8  16   8  16  16
#     4  10  20  38  60  88 118 147 183 234 289 348
#     4  11  24  41  60  81 110 151 197 239 286 333
#     4  10  18  32  58  92 120 146 179 228 291 353
#     4  11  26  43  59  81 111 153 204 245 278 323
#     4   9  19  32  56  85 122 151 180 223 288 348
#     4  11  21  37  59  84 117 155 192 231 282 342
#
# _framework density 19.463455
#
# number of rings (size 3 to 8) (size 9 to 14) (size 15 to 20)
#    0.000    1.800    2.000    4.200    1.400    2.000 
#    0.000    2.500    0.000    6.000    0.000    0.000 
#    0.000    0.000    0.000    0.000    0.000    0.000 
#
# Total GULP energy -495576.239588 kJ/mol
# GULP energy per Si atom -12389.405990 kJ/mol
# Density = 1.941915 g / cm^3
# Si number density = 19.463455 Si / 1000 Ang^3
#
#
#
# Elastic Constant Matrix: (Units=GPa)
#
#
# Indices 1 2 3 4 5 6 
#
# 1 126.7730 29.9174 33.7794 0.0000 0.0000 0.0000
# 2 29.9174 63.4973 34.2296 0.0000 -0.0001 -0.0004
# 3 33.7794 34.2296 94.6204 -0.0002 -0.0001 -0.0011
# 4 0.0000 0.0000 -0.0002 21.1663 -0.0001 -0.0007
# 5 0.0000 -0.0001 -0.0001 -0.0001 20.8606 0.0004
# 6 0.0000 -0.0004 -0.0011 -0.0007 0.0004 36.7516
#
#
#
# Elastic Compliance Matrix: (Units=1/GPa)
#
#
# Indices 1 2 3 4 5 6 
#
# 1 0.009209 -0.003189 -0.002134 0.000000 0.000000 0.000000
# 2 -0.003189 0.020668 -0.006338 0.000000 0.000000 0.000000
# 3 -0.002134 -0.006338 0.013623 0.000000 0.000000 0.000000
# 4 0.000000 0.000000 0.000000 0.047245 0.000000 0.000001
# 5 0.000000 0.000000 0.000000 0.000000 0.047937 -0.000001
# 6 0.000000 0.000000 0.000000 0.000001 -0.000001 0.027210
#
#
# Mechanical properties :
#
#
# Convention : Reuss Voigt Hill
#
# Bulk Modulus (GPa) = 49.55851 53.41593 51.48722
# Shear Modulus (GPa) = 25.51788 28.21997 26.86893
#
# Velocity S-wave (km/s) = 3.62479 3.81188 3.71951
# Velocity P-wave (km/s) = 6.56022 6.84673 6.70500
#
# Compressibility (1/GPa) = 0.02017817
#
# Stress axis : x y z
#
# Youngs Moduli (GPa) = 108.58636 48.38426 73.40286
#
# Poissons Ratio (x) = 0.15427 0.15666
# Poissons Ratio (y) = 0.34623 0.46526
# Poissons Ratio (z) = 0.23175 0.30668
#
# Static dielectric constant tensor:
#      x y z
#    x 3.679270 0.000000 0.000000 
#    y 0.000000 3.242150 0.000000 
#    z 0.000000 0.000000 3.872890 
# 
# 
# High freq. dielectric constant tensor:
#      x y z
#    x 1.763830 0.000000 0.000000 
#    y 0.000000 1.727540 0.000000 
#    z 0.000000 0.000000 1.764670 
# 
# From -- ./inp_files/20568.got.cif
#   From: 2010.03.12/outbox.cif.g09.slc.cpg/sg74_11_cif.got.tgz:20568.got - 2010.04.16 15:46:19.
