data_PCOD8298780
_publ_section_title
;
Structure prediction by ZEFSAII (Michael W. Deem and Ramdas Pophale) SiO2 
 PCOD8298780
Probable space group: I M M A
;
_chemical_formula_sum "Si O2"
_cell_formula_units_Z 96
_cell_length_a 19.103488
_cell_length_b 22.237500
_cell_length_c 12.573185
_cell_angle_alpha 90.000000
_cell_angle_beta 90.000000
_cell_angle_gamma 90.000000
_cell_volume 5341.262679
_symmetry_space_group_name_H-M "I M M A"
_symmetry_group_IT_number 74
_symmetry_cell_setting 'orthorhombic'
loop_
_space_group_symop_operation_xyz
x,y,z
-x,1/2-y,z
x,-y,-z
-x,1/2+y,-z
-x,-y,-z
x,1/2+y,-z
-x,y,z
x,1/2-y,z
1/2+x,1/2+y,1/2+z
1/2-x,-y,1/2+z
1/2+x,1/2-y,1/2-z
1/2-x,y,1/2-z
1/2-x,1/2-y,1/2-z
1/2+x,y,1/2-z
1/2-x,1/2+y,1/2+z
1/2+x,-y,1/2+z
loop_
_atom_site_type_symbol
_atom_site_label
_atom_site_fract_x
_atom_site_fract_y
_atom_site_fract_z
Si Si1 0.421970 0.820803 0.643903
Si Si2 0.330102 0.109328 0.762457
Si Si3 0.327001 0.181705 0.966100
Si Si4 0.920235 0.624986 0.642116
Si Si5 0.166148 0.179999 0.947518
Si Si6 0.579578 0.490275 0.879690
O O1 0.500000 0.847691 0.636635
O O2 0.422016 0.750000 0.638218
O O3 0.388699 0.840024 0.756512
O O4 0.379029 0.845809 0.544620
O O5 0.250000 0.087765 0.750000
O O6 0.339208 0.164212 0.844045
O O7 0.354912 0.136850 0.650314
O O8 0.374890 0.053217 0.805051
O O9 0.351435 0.250000 0.984419
O O10 0.245198 0.173096 0.988641
O O11 0.372287 0.138270 0.040474
O O12 0.918154 0.555283 0.674468
O O13 0.000000 0.645337 0.615999
O O14 0.150765 0.250000 0.918516
O O15 0.500000 0.464783 0.885767
O O16 0.608806 0.500000 0.000000
#
# Coordination Sequence:
#
# PCOD8298780 Si02
#       6
#    16  16  16  16  16  16
#     4   9  18  34  54  76 106 141 176 218 267 318
#     4  10  20  36  54  80 109 140 178 224 270 323
#     4  10  19  32  54  80 107 137 173 221 275 328
#     4  10  20  35  54  77 106 140 180 224 272 319
#     4   9  19  35  54  78 109 144 176 214 271 328
#     4  10  20  37  57  76 105 144 180 222 273 318
#
# _framework density 17.973278000000001
#
# number of rings (size 3 to 8) (size 9 to 14) (size 15 to 20)
#    0.000    2.333    1.667    1.000    0.000    4.333 
#    3.000    3.333    0.000    6.000    0.000    0.000 
#    0.000    0.000    0.000    0.000    0.000    0.000 
#
# Total GULP energy -595043.266546 kJ/mol
# GULP energy per Si atom -12396.734720 kJ/mol
# Density = 1.793237 g / cm^3
# Si number density = 17.973278 Si / 1000 Ang^3
#
#
#
# Elastic Constant Matrix: (Units=GPa)
#
#
# Indices 1 2 3 4 5 6 
#
# 1 67.9484 37.7199 59.0618 0.0000 0.0000 0.0000
# 2 37.7199 62.3861 30.6248 0.0000 0.0000 0.0000
# 3 59.0618 30.6248 122.5097 0.0000 0.0000 0.0000
# 4 0.0000 0.0000 0.0000 35.2418 0.0000 0.0000
# 5 0.0000 0.0000 0.0000 0.0000 33.9724 0.0000
# 6 0.0000 0.0000 0.0000 0.0000 0.0000 25.4943
#
#
#
# Elastic Compliance Matrix: (Units=1/GPa)
#
#
# Indices 1 2 3 4 5 6 
#
# 1 0.033505 -0.014053 -0.012640 0.000000 0.000000 0.000000
# 2 -0.014053 0.024166 0.000734 0.000000 0.000000 0.000000
# 3 -0.012640 0.000734 0.014073 0.000000 0.000000 0.000000
# 4 0.000000 0.000000 0.000000 0.028375 0.000000 0.000000
# 5 0.000000 0.000000 0.000000 0.000000 0.029436 0.000000
# 6 0.000000 0.000000 0.000000 0.000000 0.000000 0.039224
#
#
# Mechanical properties :
#
#
# Convention : Reuss Voigt Hill
#
# Bulk Modulus (GPa) = 50.43917 56.40635 53.42276
# Shear Modulus (GPa) = 21.99692 27.30423 24.65057
#
# Velocity S-wave (km/s) = 3.50218 3.90186 3.70741
# Velocity P-wave (km/s) = 6.66918 7.19382 6.93646
#
# Compressibility (1/GPa) = 0.01982586
#
# Stress axis : x y z
#
# Youngs Moduli (GPa) = 29.84641 41.38116 71.05956
#
# Poissons Ratio (x) = 0.58153 0.89817
# Poissons Ratio (y) = 0.41943 -0.05216
# Poissons Ratio (z) = 0.37725 -0.03038
#
# Static dielectric constant tensor:
#      x y z
#    x 3.384010 0.000000 0.000000 
#    y 0.000000 3.218310 0.000000 
#    z 0.000000 0.000000 3.353410 
# 
# 
# High freq. dielectric constant tensor:
#      x y z
#    x 1.686320 0.000000 0.000000 
#    y 0.000000 1.687970 0.000000 
#    z 0.000000 0.000000 1.700660 
# 
# From -- ./inp_files/22443.got.cif
#   From: 2010.03.12/outbox.cif.g09.slc.cpg/sg74_12_cif.got.tgz:22443.got - 2010.04.16 15:46:19.
