data_PCOD8298389
_publ_section_title
;
Structure prediction by ZEFSAII (Michael W. Deem and Ramdas Pophale) SiO2 
 PCOD8298389
Probable space group: I M M A
;
_chemical_formula_sum "Si O2"
_cell_formula_units_Z 96
_cell_length_a 9.261605
_cell_length_b 26.010146
_cell_length_c 21.049212
_cell_angle_alpha 90.000000
_cell_angle_beta 90.000000
_cell_angle_gamma 90.000000
_cell_volume 5070.664622
_symmetry_space_group_name_H-M "I M M A"
_symmetry_group_IT_number 74
_symmetry_cell_setting 'orthorhombic'
loop_
_space_group_symop_operation_xyz
x,y,z
-x,1/2-y,z
x,-y,-z
-x,1/2+y,-z
-x,-y,-z
x,1/2+y,-z
-x,y,z
x,1/2-y,z
1/2+x,1/2+y,1/2+z
1/2-x,-y,1/2+z
1/2+x,1/2-y,1/2-z
1/2-x,y,1/2-z
1/2-x,1/2-y,1/2-z
1/2+x,y,1/2-z
1/2-x,1/2+y,1/2+z
1/2+x,-y,1/2+z
loop_
_atom_site_type_symbol
_atom_site_label
_atom_site_fract_x
_atom_site_fract_y
_atom_site_fract_z
Si Si1 0.341468 0.844751 0.884967
Si Si2 0.162397 0.750000 0.882820
Si Si3 0.327931 0.954301 0.451120
Si Si4 0.658048 0.027454 0.691856
Si Si5 0.164443 0.250000 0.965162
Si Si6 0.159026 0.407899 0.192793
Si Si7 0.661427 0.348499 0.968857
O O1 0.500000 0.847852 0.853001
O O2 0.247391 0.798860 0.855116
O O3 0.250454 0.896798 0.871242
O O4 0.361350 0.834839 0.958489
O O5 0.000000 0.750000 0.856241
O O6 0.159791 0.750000 0.959092
O O7 0.500000 0.946830 0.455845
O O8 0.276861 0.966177 0.378871
O O9 0.248363 0.901592 0.467092
O O10 0.280526 0.000000 0.500000
O O11 0.500000 0.053565 0.694704
O O12 0.750000 0.052418 0.750000
O O13 0.643054 0.967661 0.704964
O O14 0.247312 0.198880 0.938594
O O15 0.000000 0.250000 0.938494
O O16 0.250000 0.382126 0.250000
O O17 0.000000 0.383088 0.187498
O O18 0.500000 0.352943 0.937523
#
# Coordination Sequence:
#
# PCOD8298389 Si02
#       7
#    16   8  16  16   8  16  16
#     4  10  19  31  46  66  93 123 156 197 246 297
#     4   9  17  29  46  66  87 118 158 197 243 296
#     4  10  20  34  52  77 109 142 178 219 263 312
#     4   9  19  34  52  73  99 134 172 210 251 302
#     4   9  17  31  51  72  97 132 171 207 248 306
#     4  10  19  32  49  67  88 119 161 204 246 293
#     4  10  20  32  49  75 105 134 166 209 258 305
#
# _framework density 18.932428000000002
#
# number of rings (size 3 to 8) (size 9 to 14) (size 15 to 20)
#    0.000    2.333    0.000    3.000    0.000    7.000 
#    0.000    0.417    0.000    0.000    0.000    0.583 
#    0.000    0.000    0.000    0.000    0.000    0.000 
#
# Total GULP energy -594690.136241 kJ/mol
# GULP energy per Si atom -12389.377838 kJ/mol
# Density = 1.888934 g / cm^3
# Si number density = 18.932428 Si / 1000 Ang^3
#
#
#
# Elastic Constant Matrix: (Units=GPa)
#
#
# Indices 1 2 3 4 5 6 
#
# 1 146.6685 55.8762 31.3085 0.0000 0.0000 0.0000
# 2 55.8762 96.0094 17.9006 0.0000 0.0000 0.0000
# 3 31.3085 17.9006 62.2282 0.0000 0.0000 0.0000
# 4 0.0000 0.0000 0.0000 15.4493 0.0000 0.0000
# 5 0.0000 0.0000 0.0000 0.0000 24.0715 0.0000
# 6 0.0000 0.0000 0.0000 0.0000 0.0000 25.6996
#
#
#
# Elastic Compliance Matrix: (Units=1/GPa)
#
#
# Indices 1 2 3 4 5 6 
#
# 1 0.009369 -0.004833 -0.003323 0.000000 0.000000 0.000000
# 2 -0.004833 0.013499 -0.001452 0.000000 0.000000 0.000000
# 3 -0.003323 -0.001452 0.018160 0.000000 0.000000 0.000000
# 4 0.000000 0.000000 0.000000 0.064728 0.000000 0.000000
# 5 0.000000 0.000000 0.000000 0.000000 0.041543 0.000000
# 6 0.000000 0.000000 0.000000 0.000000 0.000000 0.038911
#
#
# Mechanical properties :
#
#
# Convention : Reuss Voigt Hill
#
# Bulk Modulus (GPa) = 45.84734 57.23073 51.53903
# Shear Modulus (GPa) = 23.50785 26.36549 24.93667
#
# Velocity S-wave (km/s) = 3.52756 3.73582 3.63318
# Velocity P-wave (km/s) = 6.39222 6.99307 6.69938
#
# Compressibility (1/GPa) = 0.02181152
#
# Stress axis : x y z
#
# Youngs Moduli (GPa) = 106.73873 74.07994 55.06755
#
# Poissons Ratio (x) = 0.35801 0.18301
# Poissons Ratio (y) = 0.51585 0.07994
# Poissons Ratio (z) = 0.35473 0.10753
#
# Static dielectric constant tensor:
#      x y z
#    x 4.083960 0.000000 0.000000 
#    y 0.000000 3.278940 0.000000 
#    z 0.000000 0.000000 3.221370 
# 
# 
# High freq. dielectric constant tensor:
#      x y z
#    x 1.755060 0.000000 0.000000 
#    y 0.000000 1.716110 0.000000 
#    z 0.000000 0.000000 1.691420 
# 
# From -- ./inp_files/57365.got.cif
#   From: 2010.03.12/outbox.cif.g09.slc.cpg/sg74_29_cif.got.tgz:57365.got - 2010.04.16 15:46:19.
