data_PCOD8298611
_publ_section_title
;
Structure prediction by ZEFSAII (Michael W. Deem and Ramdas Pophale) SiO2 
 PCOD8298611
Probable space group: I M M A
;
_chemical_formula_sum "Si O2"
_cell_formula_units_Z 88
_cell_length_a 9.105505
_cell_length_b 18.164371
_cell_length_c 29.710657
_cell_angle_alpha 90.000000
_cell_angle_beta 90.000000
_cell_angle_gamma 90.000000
_cell_volume 4914.017020
_symmetry_space_group_name_H-M "I M M A"
_symmetry_group_IT_number 74
_symmetry_cell_setting 'orthorhombic'
loop_
_space_group_symop_operation_xyz
x,y,z
-x,1/2-y,z
x,-y,-z
-x,1/2+y,-z
-x,-y,-z
x,1/2+y,-z
-x,y,z
x,1/2-y,z
1/2+x,1/2+y,1/2+z
1/2-x,-y,1/2+z
1/2+x,1/2-y,1/2-z
1/2-x,y,1/2-z
1/2-x,1/2-y,1/2-z
1/2+x,y,1/2-z
1/2-x,1/2+y,1/2+z
1/2+x,-y,1/2+z
loop_
_atom_site_type_symbol
_atom_site_label
_atom_site_fract_x
_atom_site_fract_y
_atom_site_fract_z
Si Si1 0.333555 0.037040 0.548263
Si Si2 0.169802 0.668753 0.992523
Si Si3 0.331272 0.750000 0.296277
Si Si4 0.170684 0.667464 0.597090
Si Si5 0.170711 0.016512 0.366566
Si Si6 0.173057 0.589382 0.201872
O O1 0.500000 0.024803 0.566557
O O2 0.301159 0.122735 0.537853
O O3 0.215231 0.010942 0.584054
O O4 0.312917 0.000000 0.500000
O O5 0.225858 0.750000 0.004046
O O6 0.251588 0.638998 0.948235
O O7 0.000000 0.665871 0.979179
O O8 0.500000 0.750000 0.283409
O O9 0.250000 0.750000 0.250000
O O10 0.294822 0.671233 0.320541
O O11 0.225508 0.750000 0.611830
O O12 0.201263 0.605301 0.635436
O O13 0.000000 0.670280 0.586054
O O14 0.265420 0.974928 0.329424
O O15 0.000000 0.999116 0.358517
O O16 0.250000 0.582986 0.250000
O O17 0.000000 0.576595 0.207860
#
# Coordination Sequence:
#
# PCOD8298611 Si02
#       6
#    16  16   8  16  16  16
#     4  10  19  32  49  71 102 137 173 215 261 306
#     4   9  17  30  48  68  93 131 176 217 256 301
#     4   8  16  32  56  82 104 134 168 204 248 298
#     4   9  18  32  50  72  99 133 173 216 258 304
#     4  11  22  34  52  78 106 137 174 213 260 311
#     4  10  20  37  60  83 108 135 169 210 254 303
#
# _framework density 17.907955999999999
#
# number of rings (size 3 to 8) (size 9 to 14) (size 15 to 20)
#    0.000    2.364    1.818    1.091    0.000    2.545 
#    1.636    0.000    0.000    0.545    0.000    0.000 
#    0.000    0.000    0.000    0.000    0.000    0.000 
#
# Total GULP energy -545083.016267 kJ/mol
# GULP energy per Si atom -12388.250370 kJ/mol
# Density = 1.786720 g / cm^3
# Si number density = 17.907956 Si / 1000 Ang^3
#
#
#
# Elastic Constant Matrix: (Units=GPa)
#
#
# Indices 1 2 3 4 5 6 
#
# 1 67.6349 45.5616 32.3016 0.0000 0.0000 0.0000
# 2 45.5616 114.6352 50.1142 0.0000 0.0000 0.0000
# 3 32.3016 50.1142 60.0467 0.0000 0.0000 0.0000
# 4 0.0000 0.0000 0.0000 23.1482 0.0000 0.0000
# 5 0.0000 0.0000 0.0000 0.0000 27.9918 0.0000
# 6 0.0000 0.0000 0.0000 0.0000 0.0000 24.6305
#
#
#
# Elastic Compliance Matrix: (Units=1/GPa)
#
#
# Indices 1 2 3 4 5 6 
#
# 1 0.021975 -0.005615 -0.007136 0.000000 0.000000 0.000000
# 2 -0.005615 0.015169 -0.009639 0.000000 0.000000 0.000000
# 3 -0.007136 -0.009639 0.028537 0.000000 0.000000 0.000000
# 4 0.000000 0.000000 0.000000 0.043200 0.000000 0.000000
# 5 0.000000 0.000000 0.000000 0.000000 0.035725 0.000000
# 6 0.000000 0.000000 0.000000 0.000000 0.000000 0.040600
#
#
# Mechanical properties :
#
#
# Convention : Reuss Voigt Hill
#
# Bulk Modulus (GPa) = 47.84191 55.36350 51.60271
# Shear Modulus (GPa) = 21.10127 22.77671 21.93899
#
# Velocity S-wave (km/s) = 3.43639 3.57021 3.50394
# Velocity P-wave (km/s) = 6.52062 6.92661 6.72668
#
# Compressibility (1/GPa) = 0.02090218
#
# Stress axis : x y z
#
# Youngs Moduli (GPa) = 45.50539 65.92477 35.04221
#
# Poissons Ratio (x) = 0.37015 0.25005
# Poissons Ratio (y) = 0.25550 0.33778
# Poissons Ratio (z) = 0.32471 0.63547
#
# Static dielectric constant tensor:
#      x y z
#    x 3.806190 0.000000 0.000000 
#    y 0.000000 4.208490 0.000000 
#    z 0.000000 0.000000 2.928130 
# 
# 
# High freq. dielectric constant tensor:
#      x y z
#    x 1.695730 0.000000 0.000000 
#    y 0.000000 1.719560 0.000000 
#    z 0.000000 0.000000 1.643860 
# 
# From -- ./inp_files/70226.got.cif
#   From: 2010.03.12/outbox.cif.g09.slc.cpg/sg74_36_cif.got.tgz:70226.got - 2010.04.16 15:46:19.
