data_PCOD8298076
_publ_section_title
;
Structure prediction by ZEFSAII (Michael W. Deem and Ramdas Pophale) SiO2 
 PCOD8298076
Probable space group: I M M A
;
_chemical_formula_sum "Si O2"
_cell_formula_units_Z 104
_cell_length_a 22.786687
_cell_length_b 9.957582
_cell_length_c 24.317485
_cell_angle_alpha 90.000000
_cell_angle_beta 90.000000
_cell_angle_gamma 90.000000
_cell_volume 5517.644747
_symmetry_space_group_name_H-M "I M M A"
_symmetry_group_IT_number 74
_symmetry_cell_setting 'orthorhombic'
loop_
_space_group_symop_operation_xyz
x,y,z
-x,1/2-y,z
x,-y,-z
-x,1/2+y,-z
-x,-y,-z
x,1/2+y,-z
-x,y,z
x,1/2-y,z
1/2+x,1/2+y,1/2+z
1/2-x,-y,1/2+z
1/2+x,1/2-y,1/2-z
1/2-x,y,1/2-z
1/2-x,1/2-y,1/2-z
1/2+x,y,1/2-z
1/2-x,1/2+y,1/2+z
1/2+x,-y,1/2+z
loop_
_atom_site_type_symbol
_atom_site_label
_atom_site_fract_x
_atom_site_fract_y
_atom_site_fract_z
Si Si1 0.270632 0.600388 0.632349
Si Si2 0.432427 0.106177 0.539665
Si Si3 0.374255 0.596007 0.353410
Si Si4 0.875478 0.902924 0.267226
Si Si5 0.250000 0.990234 0.750000
Si Si6 0.662792 0.594486 0.946849
Si Si7 0.068361 0.905279 0.642179
O O1 0.291886 0.750000 0.616042
O O2 0.321066 0.492157 0.623067
O O3 0.255197 0.604232 0.696920
O O4 0.214993 0.558590 0.595367
O O5 0.500000 0.113957 0.523957
O O6 0.402117 0.250000 0.528081
O O7 0.426815 0.070642 0.603885
O O8 0.400167 0.000000 0.500000
O O9 0.352352 0.750000 0.351734
O O10 0.399480 0.556687 0.293513
O O11 0.891818 0.750000 0.283612
O O12 0.805395 0.914055 0.261476
O O13 0.904626 0.003242 0.310118
O O14 0.666165 0.750000 0.965636
O O15 0.601663 0.565980 0.915116
O O16 0.666625 0.500000 0.000000
O O17 0.077380 0.750000 0.659588
O O18 0.000000 0.940027 0.633671
#
# Coordination Sequence:
#
# PCOD8298076 Si02
#       7
#    16  16  16  16   8  16  16
#     4  10  20  34  56  83 111 145 185 225 273 332
#     4   9  18  34  54  73  99 140 185 227 272 322
#     4   9  20  35  52  80 115 148 181 224 281 336
#     4  10  20  34  56  86 116 146 184 228 277 336
#     4  10  18  34  58  84 114 146 180 224 278 326
#     4  10  22  40  58  83 112 148 191 235 285 335
#     4  10  22  41  61  82 114 152 191 238 289 338
#
# _framework density 18.848621999999999
#
# number of rings (size 3 to 8) (size 9 to 14) (size 15 to 20)
#    0.000    2.308    1.538    0.462    0.000    6.769 
#    0.000    4.615    0.000    1.846    0.000    0.000 
#    0.000    0.000    0.000    0.000    0.000    0.000 
#
# Total GULP energy -644458.219306 kJ/mol
# GULP energy per Si atom -12393.427294 kJ/mol
# Density = 1.880572 g / cm^3
# Si number density = 18.848622 Si / 1000 Ang^3
#
#
#
# Elastic Constant Matrix: (Units=GPa)
#
#
# Indices 1 2 3 4 5 6 
#
# 1 58.1490 41.4955 43.3724 0.0000 0.0000 0.0000
# 2 41.4955 96.3953 67.5985 0.0000 0.0000 0.0000
# 3 43.3724 67.5985 119.6748 0.0000 0.0000 0.0000
# 4 0.0000 0.0000 0.0000 34.3379 0.0000 0.0000
# 5 0.0000 0.0000 0.0000 0.0000 29.0910 0.0000
# 6 0.0000 0.0000 0.0000 0.0000 0.0000 18.7447
#
#
#
# Elastic Compliance Matrix: (Units=1/GPa)
#
#
# Indices 1 2 3 4 5 6 
#
# 1 0.026690 -0.007793 -0.005271 0.000000 0.000000 0.000000
# 2 -0.007793 0.019454 -0.008164 0.000000 0.000000 0.000000
# 3 -0.005271 -0.008164 0.014878 0.000000 0.000000 0.000000
# 4 0.000000 0.000000 0.000000 0.029122 0.000000 0.000000
# 5 0.000000 0.000000 0.000000 0.000000 0.034375 0.000000
# 6 0.000000 0.000000 0.000000 0.000000 0.000000 0.053348
#
#
# Mechanical properties :
#
#
# Convention : Reuss Voigt Hill
#
# Bulk Modulus (GPa) = 53.86416 64.35021 59.10719
# Shear Modulus (GPa) = 22.07389 24.55157 23.31273
#
# Velocity S-wave (km/s) = 3.42587 3.61302 3.52069
# Velocity P-wave (km/s) = 6.65493 7.18470 6.92488
#
# Compressibility (1/GPa) = 0.01856522
#
# Stress axis : x y z
#
# Youngs Moduli (GPa) = 37.46746 51.40373 67.21366
#
# Poissons Ratio (x) = 0.40058 0.35429
# Poissons Ratio (y) = 0.29198 0.54875
# Poissons Ratio (z) = 0.19749 0.41967
#
# Static dielectric constant tensor:
#      x y z
#    x 3.342340 0.000000 0.000000 
#    y 0.000000 3.655520 0.000000 
#    z 0.000000 0.000000 3.574170 
# 
# 
# High freq. dielectric constant tensor:
#      x y z
#    x 1.716200 0.000000 0.000000 
#    y 0.000000 1.736910 0.000000 
#    z 0.000000 0.000000 1.735540 
# 
# From -- ./inp_files/68674.got.cif
#   From: 2010.03.12/outbox.cif.g09.slc.cpg/sg74_35_cif.got.tgz:68674.got - 2010.04.16 15:46:19.
