data_PCOD8298326
_publ_section_title
;
Structure prediction by ZEFSAII (Michael W. Deem and Ramdas Pophale) SiO2 
 PCOD8298326
Probable space group: I M M A
;
_chemical_formula_sum "Si O2"
_cell_formula_units_Z 96
_cell_length_a 9.251932
_cell_length_b 18.724888
_cell_length_c 31.129841
_cell_angle_alpha 90.000000
_cell_angle_beta 90.000000
_cell_angle_gamma 90.000000
_cell_volume 5392.976940
_symmetry_space_group_name_H-M "I M M A"
_symmetry_group_IT_number 74
_symmetry_cell_setting 'orthorhombic'
loop_
_space_group_symop_operation_xyz
x,y,z
-x,1/2-y,z
x,-y,-z
-x,1/2+y,-z
-x,-y,-z
x,1/2+y,-z
-x,y,z
x,1/2-y,z
1/2+x,1/2+y,1/2+z
1/2-x,-y,1/2+z
1/2+x,1/2-y,1/2-z
1/2-x,y,1/2-z
1/2-x,1/2-y,1/2-z
1/2+x,y,1/2-z
1/2-x,1/2+y,1/2+z
1/2+x,-y,1/2+z
loop_
_atom_site_type_symbol
_atom_site_label
_atom_site_fract_x
_atom_site_fract_y
_atom_site_fract_z
Si Si1 0.336743 0.913982 0.952012
Si Si2 0.833028 0.920355 0.127399
Si Si3 0.161754 0.916321 0.453673
Si Si4 0.331145 0.912236 0.630422
Si Si5 0.168657 0.832341 0.207792
Si Si6 0.168293 0.333778 0.293322
O O1 0.500000 0.887162 0.942354
O O2 0.228719 0.884228 0.915564
O O3 0.334083 0.998784 0.952644
O O4 0.285450 0.887823 0.999479
O O5 0.761178 0.887533 0.084618
O O6 0.770327 0.878443 0.168286
O O7 0.000000 0.903973 0.121844
O O8 0.802450 0.003675 0.134483
O O9 0.000000 0.888678 0.445512
O O10 0.500000 0.892906 0.633963
O O11 0.242252 0.874296 0.667568
O O12 0.203549 0.750000 0.198282
O O13 0.250000 0.859572 0.250000
O O14 0.000000 0.845887 0.215085
O O15 0.186383 0.250000 0.301502
O O16 0.250000 0.357189 0.250000
O O17 0.000000 0.355387 0.289700
#
# Coordination Sequence:
#
# PCOD8298326 Si02
#       6
#    16  16  16  16  16  16
#     4   8  14  26  43  65  94 125 158 193 230 274
#     4   9  18  30  45  70  99 123 153 195 240 281
#     4   8  14  25  43  66  92 124 158 192 231 275
#     4  10  19  30  47  73 101 125 153 192 236 280
#     4   9  18  33  50  66  88 121 158 193 230 275
#     4  10  21  37  55  72  92 122 158 193 231 279
#
# _framework density 17.800930000000001
#
# number of rings (size 3 to 8) (size 9 to 14) (size 15 to 20)
#    0.000    3.000    0.000    2.000    0.000    3.667 
#    0.000    5.000    0.000    1.000    0.000    4.667 
#    0.000    0.000    0.000    0.000    0.000    0.000 
#
# Total GULP energy -595002.296656 kJ/mol
# GULP energy per Si atom -12395.881180 kJ/mol
# Density = 1.776041 g / cm^3
# Si number density = 17.800930 Si / 1000 Ang^3
#
#
#
# Elastic Constant Matrix: (Units=GPa)
#
#
# Indices 1 2 3 4 5 6 
#
# 1 103.7423 31.9514 93.1125 0.0000 0.0000 0.0000
# 2 31.9514 27.4861 48.5237 0.0000 0.0000 0.0000
# 3 93.1125 48.5237 200.7385 0.0000 0.0000 0.0000
# 4 0.0000 0.0000 0.0000 -3.3825 0.0000 0.0000
# 5 0.0000 0.0000 0.0000 0.0000 42.0054 0.0000
# 6 0.0000 0.0000 0.0000 0.0000 0.0000 16.7317
#
#
#
# Elastic Compliance Matrix: (Units=1/GPa)
#
#
# Indices 1 2 3 4 5 6 
#
# 1 0.018218 -0.010919 -0.005811 0.000000 0.000000 0.000000
# 2 -0.010919 0.070010 -0.011858 0.000000 0.000000 0.000000
# 3 -0.005811 -0.011858 0.010543 0.000000 0.000000 0.000000
# 4 0.000000 0.000000 0.000000 -0.295640 0.000000 0.000000
# 5 0.000000 0.000000 0.000000 0.000000 0.023806 0.000000
# 6 0.000000 0.000000 0.000000 0.000000 0.000000 0.059767
#
#
# Mechanical properties :
#
#
# Convention : Reuss Voigt Hill
#
# Bulk Modulus (GPa) = 24.04167 75.46024 49.75095
# Shear Modulus (GPa) = -118.32985 21.62953 -48.35016
#
# Velocity S-wave (km/s) = -8.16200 3.48958 -5.21733
# Velocity P-wave (km/s) = 8.67694 7.66286 2.87835
#
# Compressibility (1/GPa) = 0.04159445
#
# Stress axis : x y z
#
# Youngs Moduli (GPa) = 54.89204 14.28377 94.84531
#
# Poissons Ratio (x) = 0.15596 0.55114
# Poissons Ratio (y) = 0.59935 1.12472
# Poissons Ratio (z) = 0.31897 0.16938
#
# Static dielectric constant tensor:
#      x y z
#    x 3.394580 0.000000 0.000000 
#    y 0.000000 2.941480 0.000000 
#    z 0.000000 0.000000 3.754230 
# 
# 
# High freq. dielectric constant tensor:
#      x y z
#    x 1.689250 0.000000 0.000000 
#    y 0.000000 1.642800 0.000000 
#    z 0.000000 0.000000 1.707510 
# 
# From -- ./inp_files/64674.got.cif
#   From: 2010.03.12/outbox.cif.g09.slc.cpg/sg74_33_cif.got.tgz:64674.got - 2010.04.16 15:46:19.
