data_PCOD8298364
_publ_section_title
;
Structure prediction by ZEFSAII (Michael W. Deem and Ramdas Pophale) SiO2 
 PCOD8298364
Probable space group: I M M A
;
_chemical_formula_sum "Si O2"
_cell_formula_units_Z 80
_cell_length_a 28.122978
_cell_length_b 7.762027
_cell_length_c 20.568608
_cell_angle_alpha 90.000000
_cell_angle_beta 90.000000
_cell_angle_gamma 90.000000
_cell_volume 4489.948479
_symmetry_space_group_name_H-M "I M M A"
_symmetry_group_IT_number 74
_symmetry_cell_setting 'orthorhombic'
loop_
_space_group_symop_operation_xyz
x,y,z
-x,1/2-y,z
x,-y,-z
-x,1/2+y,-z
-x,-y,-z
x,1/2+y,-z
-x,y,z
x,1/2-y,z
1/2+x,1/2+y,1/2+z
1/2-x,-y,1/2+z
1/2+x,1/2-y,1/2-z
1/2-x,y,1/2-z
1/2-x,1/2-y,1/2-z
1/2+x,y,1/2-z
1/2-x,1/2+y,1/2+z
1/2+x,-y,1/2+z
loop_
_atom_site_type_symbol
_atom_site_label
_atom_site_fract_x
_atom_site_fract_y
_atom_site_fract_z
Si Si1 0.783315 0.951143 0.929339
Si Si2 0.553078 0.750000 0.772468
Si Si3 0.280944 0.953434 0.810815
Si Si4 0.881045 0.556885 0.270564
Si Si5 0.053026 0.250000 0.117917
Si Si6 0.618451 0.557643 0.379468
O O1 0.792962 0.750000 0.920977
O O2 0.744752 0.013247 0.876813
O O3 0.832998 0.048431 0.919714
O O4 0.762932 0.000000 0.000000
O O5 0.500000 0.750000 0.802358
O O6 0.580224 0.578717 0.797291
O O7 0.549978 0.750000 0.695198
O O8 0.288322 0.750000 0.806782
O O9 0.250000 0.019652 0.750000
O O10 0.332350 0.041675 0.810497
O O11 0.901648 0.750000 0.278969
O O12 0.869574 0.514899 0.195404
O O13 0.080289 0.420970 0.093105
O O14 0.000000 0.250000 0.088015
O O15 0.597059 0.750000 0.387122
#
# Coordination Sequence:
#
# PCOD8298364 Si02
#       6
#    16   8  16  16   8  16
#     4  11  22  35  52  76 107 143 175 215 262 314
#     4   9  18  32  48  72 110 140 170 220 267 309
#     4  10  19  32  54  76 105 142 178 215 258 313
#     4  10  19  30  51  78 104 138 177 215 261 310
#     4   9  18  32  51  73  99 133 173 224 276 309
#     4  10  19  32  51  75 100 133 179 216 259 316
#
# _framework density 17.817577
#
# number of rings (size 3 to 8) (size 9 to 14) (size 15 to 20)
#    0.000    2.000    4.000    0.600    0.000    2.800 
#    0.000    4.000    0.000    0.600    0.000    0.000 
#    0.000    0.800    0.400    0.000    0.000    0.000 
#
# Total GULP energy -496079.354033 kJ/mol
# GULP energy per Si atom -12401.983851 kJ/mol
# Density = 1.777702 g / cm^3
# Si number density = 17.817577 Si / 1000 Ang^3
#
#
#
# Elastic Constant Matrix: (Units=GPa)
#
#
# Indices 1 2 3 4 5 6 
#
# 1 124.3220 55.2096 38.1369 0.0000 0.0000 0.0000
# 2 55.2096 113.0919 24.6399 0.0000 0.0000 0.0000
# 3 38.1369 24.6399 73.6967 0.0000 0.0000 0.0000
# 4 0.0000 0.0000 0.0000 16.8768 0.0000 0.0000
# 5 0.0000 0.0000 0.0000 0.0000 12.5263 0.0000
# 6 0.0000 0.0000 0.0000 0.0000 0.0000 12.6464
#
#
#
# Elastic Compliance Matrix: (Units=1/GPa)
#
#
# Indices 1 2 3 4 5 6 
#
# 1 0.011442 -0.004633 -0.004372 0.000000 0.000000 0.000000
# 2 -0.004633 0.011413 -0.001418 0.000000 0.000000 0.000000
# 3 -0.004372 -0.001418 0.016306 0.000000 0.000000 0.000000
# 4 0.000000 0.000000 0.000000 0.059253 0.000000 0.000000
# 5 0.000000 0.000000 0.000000 0.000000 0.079832 0.000000
# 6 0.000000 0.000000 0.000000 0.000000 0.000000 0.079074
#
#
# Mechanical properties :
#
#
# Convention : Reuss Voigt Hill
#
# Bulk Modulus (GPa) = 54.60303 60.78704 57.69504
# Shear Modulus (GPa) = 17.58874 21.28484 19.43679
#
# Velocity S-wave (km/s) = 3.14531 3.46005 3.30643
# Velocity P-wave (km/s) = 6.62592 7.08187 6.85769
#
# Compressibility (1/GPa) = 0.01831400
#
# Stress axis : x y z
#
# Youngs Moduli (GPa) = 87.39379 87.61682 61.32776
#
# Poissons Ratio (x) = 0.40597 0.26813
# Poissons Ratio (y) = 0.40493 0.08698
# Poissons Ratio (z) = 0.38210 0.12426
#
# Static dielectric constant tensor:
#      x y z
#    x 3.279000 0.000000 0.000000 
#    y 0.000000 3.392140 0.000000 
#    z 0.000000 0.000000 2.972720 
# 
# 
# High freq. dielectric constant tensor:
#      x y z
#    x 1.675560 0.000000 0.000000 
#    y 0.000000 1.704810 0.000000 
#    z 0.000000 0.000000 1.639070 
# 
# From -- ./inp_files/48975.got.cif
#   From: 2010.03.12/outbox.cif.g09.slc.cpg/sg74_25_cif.got.tgz:48975.got - 2010.04.16 15:46:19.
