data_PCOD8298387
_publ_section_title
;
Structure prediction by ZEFSAII (Michael W. Deem and Ramdas Pophale) SiO2 
 PCOD8298387
Probable space group: I M M A
;
_chemical_formula_sum "Si O2"
_cell_formula_units_Z 96
_cell_length_a 8.703607
_cell_length_b 30.601497
_cell_length_c 20.904372
_cell_angle_alpha 90.000000
_cell_angle_beta 90.000000
_cell_angle_gamma 90.000000
_cell_volume 5567.741587
_symmetry_space_group_name_H-M "I M M A"
_symmetry_group_IT_number 74
_symmetry_cell_setting 'orthorhombic'
loop_
_space_group_symop_operation_xyz
x,y,z
-x,1/2-y,z
x,-y,-z
-x,1/2+y,-z
-x,-y,-z
x,1/2+y,-z
-x,y,z
x,1/2-y,z
1/2+x,1/2+y,1/2+z
1/2-x,-y,1/2+z
1/2+x,1/2-y,1/2-z
1/2-x,y,1/2-z
1/2-x,1/2-y,1/2-z
1/2+x,y,1/2-z
1/2-x,1/2+y,1/2+z
1/2+x,-y,1/2+z
loop_
_atom_site_type_symbol
_atom_site_label
_atom_site_fract_x
_atom_site_fract_y
_atom_site_fract_z
Si Si1 0.676545 0.409983 0.150101
Si Si2 0.317260 0.884476 0.987699
Si Si3 0.822171 0.201252 0.051276
Si Si4 0.182282 0.497019 0.684816
Si Si5 0.677645 0.315540 0.186265
Si Si6 0.818244 0.964830 0.053726
O O1 0.500000 0.420319 0.137709
O O2 0.748217 0.400875 0.080503
O O3 0.748207 0.453079 0.182113
O O4 0.700262 0.367694 0.193845
O O5 0.500000 0.887208 0.994870
O O6 0.266771 0.833581 0.993758
O O7 0.235882 0.915638 0.038662
O O8 0.797661 0.250000 0.022651
O O9 0.761120 0.202081 0.123775
O O10 0.000000 0.188327 0.052659
O O11 0.250000 0.475911 0.750000
O O12 0.242895 0.473296 0.622055
O O13 0.000000 0.493416 0.687224
O O14 0.500000 0.302508 0.180819
O O15 0.750000 0.294032 0.250000
O O16 0.000000 0.966906 0.059955
O O17 0.760934 0.000000 0.000000
#
# Coordination Sequence:
#
# PCOD8298387 Si02
#       6
#    16  16  16  16  16  16
#     4   8  16  29  46  68  94 128 168 212 258 303
#     4  10  19  34  55  77 100 131 171 215 262 309
#     4  10  21  36  52  71  96 126 162 210 264 314
#     4  11  21  34  50  72 105 141 179 220 264 310
#     4  10  19  31  46  66  91 126 169 213 261 311
#     4  11  22  35  53  79 107 140 180 218 260 313
#
# _framework density 17.242180000000001
#
# number of rings (size 3 to 8) (size 9 to 14) (size 15 to 20)
#    0.000    2.000    1.667    4.000    0.000    2.333 
#    0.000    1.667    0.000    0.000    0.000    0.000 
#    0.000    0.667    0.000    2.500    0.000    3.833 
#
# Total GULP energy -594951.247517 kJ/mol
# GULP energy per Si atom -12394.817657 kJ/mol
# Density = 1.720294 g / cm^3
# Si number density = 17.242180 Si / 1000 Ang^3
#
#
#
# Elastic Constant Matrix: (Units=GPa)
#
#
# Indices 1 2 3 4 5 6 
#
# 1 75.4160 28.9684 34.0454 0.0000 0.0000 0.0000
# 2 28.9684 95.2187 40.9849 0.0000 0.0000 0.0000
# 3 34.0454 40.9849 90.6775 0.0000 0.0000 0.0000
# 4 0.0000 0.0000 0.0000 5.2242 0.0000 0.0000
# 5 0.0000 0.0000 0.0000 0.0000 26.8221 0.0000
# 6 0.0000 0.0000 0.0000 0.0000 0.0000 21.9370
#
#
#
# Elastic Compliance Matrix: (Units=1/GPa)
#
#
# Indices 1 2 3 4 5 6 
#
# 1 0.016603 -0.002940 -0.004905 0.000000 0.000000 0.000000
# 2 -0.002940 0.013559 -0.005025 0.000000 0.000000 0.000000
# 3 -0.004905 -0.005025 0.015141 0.000000 0.000000 0.000000
# 4 0.000000 0.000000 0.000000 0.191416 0.000000 0.000000
# 5 0.000000 0.000000 0.000000 0.000000 0.037283 0.000000
# 6 0.000000 0.000000 0.000000 0.000000 0.000000 0.045585
#
#
# Mechanical properties :
#
#
# Convention : Reuss Voigt Hill
#
# Bulk Modulus (GPa) = 51.11428 52.14551 51.62989
# Shear Modulus (GPa) = 14.21067 21.28422 17.74745
#
# Velocity S-wave (km/s) = 2.87397 3.51725 3.21176
# Velocity P-wave (km/s) = 6.38139 6.84130 6.61535
#
# Compressibility (1/GPa) = 0.01956400
#
# Stress axis : x y z
#
# Youngs Moduli (GPa) = 60.22878 73.74960 66.04657
#
# Poissons Ratio (x) = 0.21682 0.32396
# Poissons Ratio (y) = 0.17707 0.33187
# Poissons Ratio (z) = 0.29542 0.37058
#
# Static dielectric constant tensor:
#      x y z
#    x 3.167560 0.000000 0.000000 
#    y 0.000000 3.312340 0.000000 
#    z 0.000000 0.000000 2.962720 
# 
# 
# High freq. dielectric constant tensor:
#      x y z
#    x 1.671310 0.000000 0.000000 
#    y 0.000000 1.658580 0.000000 
#    z 0.000000 0.000000 1.629170 
# 
# From -- ./inp_files/55048.got.cif
#   From: 2010.03.12/outbox.cif.g09.slc.cpg/sg74_28_cif.got.tgz:55048.got - 2010.04.16 15:46:19.
