data_PCOD8298983
_publ_section_title
;
Structure prediction by ZEFSAII (Michael W. Deem and Ramdas Pophale) SiO2 
 PCOD8298983
Probable space group: I M M A
;
_chemical_formula_sum "Si O2"
_cell_formula_units_Z 104
_cell_length_a 20.076831
_cell_length_b 8.952223
_cell_length_c 32.204473
_cell_angle_alpha 90.000000
_cell_angle_beta 90.000000
_cell_angle_gamma 90.000000
_cell_volume 5788.182980
_symmetry_space_group_name_H-M "I M M A"
_symmetry_group_IT_number 74
_symmetry_cell_setting 'orthorhombic'
loop_
_space_group_symop_operation_xyz
x,y,z
-x,1/2-y,z
x,-y,-z
-x,1/2+y,-z
-x,-y,-z
x,1/2+y,-z
-x,y,z
x,1/2-y,z
1/2+x,1/2+y,1/2+z
1/2-x,-y,1/2+z
1/2+x,1/2-y,1/2-z
1/2-x,y,1/2-z
1/2-x,1/2-y,1/2-z
1/2+x,y,1/2-z
1/2-x,1/2+y,1/2+z
1/2+x,-y,1/2+z
loop_
_atom_site_type_symbol
_atom_site_label
_atom_site_fract_x
_atom_site_fract_y
_atom_site_fract_z
Si Si1 0.177628 0.918460 0.665105
Si Si2 0.076174 0.074582 0.726404
Si Si3 0.302214 0.072047 0.627483
Si Si4 0.621241 0.914408 0.925027
Si Si5 0.763981 0.925762 0.957099
Si Si6 0.072918 0.072997 0.820433
Si Si7 0.000000 0.578567 0.456670
O O1 0.198265 0.750000 0.677895
O O2 0.136511 0.914724 0.623102
O O3 0.130298 0.987404 0.699732
O O4 0.243597 0.016505 0.657882
O O5 0.089256 0.250000 0.721194
O O6 0.087993 0.020409 0.773559
O O7 0.000000 0.036606 0.712843
O O8 0.297326 0.250000 0.623468
O O9 0.371029 0.015545 0.647969
O O10 0.301272 0.000239 0.581794
O O11 0.595556 0.750000 0.938540
O O12 0.685500 0.956872 0.952254
O O13 0.565427 0.037545 0.931239
O O14 0.779885 0.750000 0.957311
O O15 0.788902 0.000000 0.000000
O O16 0.071772 0.250000 0.820349
O O17 0.000000 0.012505 0.834530
O O18 0.000000 0.500000 0.500000
O O19 0.000000 0.750000 0.465515
#
# Coordination Sequence:
#
# PCOD8298983 Si02
#       7
#    16  16  16  16  16  16   8
#     4  10  21  35  50  72 105 141 175 217 264 310
#     4   9  18  33  53  76 103 137 180 224 261 308
#     4  10  19  33  56  81 105 136 174 215 259 311
#     4   9  20  36  50  66  94 132 168 208 256 302
#     4  10  20  35  55  78 104 134 168 210 257 309
#     4   8  16  33  56  81 107 136 171 212 261 315
#     4  12  24  34  48  68  92 124 166 214 260 306
#
# _framework density 17.967642000000001
#
# number of rings (size 3 to 8) (size 9 to 14) (size 15 to 20)
#    0.000    2.462    0.000    4.385    1.077    5.846 
#    0.000    4.615    0.000    4.154    0.000    0.000 
#    0.000    0.000    0.000    0.000    0.000    0.000 
#
# Total GULP energy -644658.064319 kJ/mol
# GULP energy per Si atom -12397.270468 kJ/mol
# Density = 1.792675 g / cm^3
# Si number density = 17.967642 Si / 1000 Ang^3
#
#
#
# Elastic Constant Matrix: (Units=GPa)
#
#
# Indices 1 2 3 4 5 6 
#
# 1 116.5819 53.2731 76.3369 0.0000 0.0000 0.0000
# 2 53.2731 97.7486 49.9789 0.0000 0.0000 0.0000
# 3 76.3369 49.9789 109.1404 0.0000 0.0000 0.0000
# 4 0.0000 0.0000 0.0000 25.2271 0.0000 0.0000
# 5 0.0000 0.0000 0.0000 0.0000 14.0426 0.0000
# 6 0.0000 0.0000 0.0000 0.0000 0.0000 13.9467
#
#
#
# Elastic Compliance Matrix: (Units=1/GPa)
#
#
# Indices 1 2 3 4 5 6 
#
# 1 0.017034 -0.004167 -0.010005 0.000000 0.000000 0.000000
# 2 -0.004167 0.014378 -0.003669 0.000000 0.000000 0.000000
# 3 -0.010005 -0.003669 0.017841 0.000000 0.000000 0.000000
# 4 0.000000 0.000000 0.000000 0.039640 0.000000 0.000000
# 5 0.000000 0.000000 0.000000 0.000000 0.071212 0.000000
# 6 0.000000 0.000000 0.000000 0.000000 0.000000 0.071702
#
#
# Mechanical properties :
#
#
# Convention : Reuss Voigt Hill
#
# Bulk Modulus (GPa) = 73.70292 75.84984 74.77638
# Shear Modulus (GPa) = 18.38153 20.23540 19.30846
#
# Velocity S-wave (km/s) = 3.20196 3.35955 3.28170
# Velocity P-wave (km/s) = 7.40128 7.57332 7.48779
#
# Compressibility (1/GPa) = 0.01356798
#
# Stress axis : x y z
#
# Youngs Moduli (GPa) = 58.70776 69.55253 56.05104
#
# Poissons Ratio (x) = 0.28986 0.56082
# Poissons Ratio (y) = 0.24466 0.20566
# Poissons Ratio (z) = 0.58740 0.25519
#
# Static dielectric constant tensor:
#      x y z
#    x 3.450900 0.000000 0.000000 
#    y 0.000000 3.523720 0.000000 
#    z 0.000000 0.000000 3.353810 
# 
# 
# High freq. dielectric constant tensor:
#      x y z
#    x 1.684210 0.000000 0.000000 
#    y 0.000000 1.692070 0.000000 
#    z 0.000000 0.000000 1.696000 
# 
# From -- ./inp_files/64472.got.cif
#   From: 2010.03.12/outbox.cif.g09.slc.cpg/sg74_33_cif.got.tgz:64472.got - 2010.04.16 15:46:19.
