data_PCOD8298761
_publ_section_title
;
Structure prediction by ZEFSAII (Michael W. Deem and Ramdas Pophale) SiO2 
 PCOD8298761
Probable space group: I M M A
;
_chemical_formula_sum "Si O2"
_cell_formula_units_Z 104
_cell_length_a 18.937455
_cell_length_b 9.250715
_cell_length_c 30.579914
_cell_angle_alpha 90.000000
_cell_angle_beta 90.000000
_cell_angle_gamma 90.000000
_cell_volume 5357.142204
_symmetry_space_group_name_H-M "I M M A"
_symmetry_group_IT_number 74
_symmetry_cell_setting 'orthorhombic'
loop_
_space_group_symop_operation_xyz
x,y,z
-x,1/2-y,z
x,-y,-z
-x,1/2+y,-z
-x,-y,-z
x,1/2+y,-z
-x,y,z
x,1/2-y,z
1/2+x,1/2+y,1/2+z
1/2-x,-y,1/2+z
1/2+x,1/2-y,1/2-z
1/2-x,y,1/2-z
1/2-x,1/2-y,1/2-z
1/2+x,y,1/2-z
1/2-x,1/2+y,1/2+z
1/2+x,-y,1/2+z
loop_
_atom_site_type_symbol
_atom_site_label
_atom_site_fract_x
_atom_site_fract_y
_atom_site_fract_z
Si Si1 0.827300 0.583668 0.230575
Si Si2 0.582003 0.414062 0.200358
Si Si3 0.687109 0.000000 0.500000
Si Si4 0.275908 0.410665 0.919918
Si Si5 0.176815 0.077212 0.139596
Si Si6 0.576335 0.911236 0.566685
Si Si7 0.078160 0.084828 0.612809
O O1 0.848651 0.750000 0.222500
O O2 0.750000 0.571235 0.250000
O O3 0.881165 0.511614 0.263668
O O4 0.831045 0.495569 0.185999
O O5 0.500000 0.414352 0.211841
O O6 0.611899 0.250000 0.201036
O O7 0.596257 0.481111 0.153020
O O8 0.738817 0.084664 0.532699
O O9 0.632720 0.098140 0.472735
O O10 0.262339 0.250000 0.900969
O O11 0.247719 0.526529 0.885045
O O12 0.360772 0.438300 0.923887
O O13 0.178765 0.250000 0.144296
O O14 0.112088 0.017793 0.109504
O O15 0.500000 0.987762 0.555543
O O16 0.558601 0.750000 0.579855
O O17 0.079163 0.250000 0.629870
O O18 0.000000 0.048114 0.593361
#
# Coordination Sequence:
#
# PCOD8298761 Si02
#       7
#    16  16   8  16  16  16  16
#     4  11  23  37  54  78 109 145 184 224 267 319
#     4  10  21  36  55  80 108 139 179 226 272 319
#     4  10  19  32  53  80 106 136 174 214 259 314
#     4  10  20  35  55  78 106 138 174 218 266 321
#     4  10  21  35  53  78 107 140 178 221 270 319
#     4   9  18  33  52  74 102 136 173 213 257 306
#     4   9  18  34  55  77 103 138 177 216 263 319
#
# _framework density 19.413336000000001
#
# number of rings (size 3 to 8) (size 9 to 14) (size 15 to 20)
#    0.000    2.154    0.000    3.000    0.000    7.692 
#    0.000    1.923    0.000    8.769    0.000    0.000 
#    0.000    0.000    0.000    0.000    0.000    0.000 
#
# Total GULP energy -644287.966017 kJ/mol
# GULP energy per Si atom -12390.153193 kJ/mol
# Density = 1.936915 g / cm^3
# Si number density = 19.413336 Si / 1000 Ang^3
#
#
#
# Elastic Constant Matrix: (Units=GPa)
#
#
# Indices 1 2 3 4 5 6 
#
# 1 150.1379 48.0783 75.2541 0.0000 0.0000 0.0000
# 2 48.0783 100.3660 38.4280 0.0000 0.0000 0.0000
# 3 75.2541 38.4280 89.7845 0.0000 0.0000 0.0000
# 4 0.0000 0.0000 0.0000 26.6310 0.0000 0.0000
# 5 0.0000 0.0000 0.0000 0.0000 27.7102 0.0000
# 6 0.0000 0.0000 0.0000 0.0000 0.0000 26.8082
#
#
#
# Elastic Compliance Matrix: (Units=1/GPa)
#
#
# Indices 1 2 3 4 5 6 
#
# 1 0.011896 -0.002250 -0.009008 0.000000 0.000000 0.000000
# 2 -0.002250 0.012342 -0.003397 0.000000 0.000000 0.000000
# 3 -0.009008 -0.003397 0.020142 0.000000 0.000000 0.000000
# 4 0.000000 0.000000 0.000000 0.037550 0.000000 0.000000
# 5 0.000000 0.000000 0.000000 0.000000 0.036088 0.000000
# 6 0.000000 0.000000 0.000000 0.000000 0.000000 0.037302
#
#
# Mechanical properties :
#
#
# Convention : Reuss Voigt Hill
#
# Bulk Modulus (GPa) = 66.35334 73.75656 70.05495
# Shear Modulus (GPa) = 26.36412 28.13176 27.24794
#
# Velocity S-wave (km/s) = 3.68916 3.81083 3.75049
# Velocity P-wave (km/s) = 7.23878 7.57881 7.41075
#
# Compressibility (1/GPa) = 0.01507083
#
# Stress axis : x y z
#
# Youngs Moduli (GPa) = 84.06174 81.02608 49.64807
#
# Poissons Ratio (x) = 0.18227 0.44723
# Poissons Ratio (y) = 0.18910 0.16864
# Poissons Ratio (z) = 0.75723 0.27523
#
# Static dielectric constant tensor:
#      x y z
#    x 4.045370 0.000000 0.000000 
#    y 0.000000 3.578360 0.000000 
#    z 0.000000 0.000000 3.313180 
# 
# 
# High freq. dielectric constant tensor:
#      x y z
#    x 1.772150 0.000000 0.000000 
#    y 0.000000 1.752120 0.000000 
#    z 0.000000 0.000000 1.740030 
# 
# From -- ./inp_files/73381.got.cif
#   From: 2010.03.12/outbox.cif.g09.slc.cpg/sg74_37_cif.got.tgz:73381.got - 2010.04.16 15:46:19.
