data_PCOD8298327
_publ_section_title
;
Structure prediction by ZEFSAII (Michael W. Deem and Ramdas Pophale) SiO2 
 PCOD8298327
Probable space group: I M M A
;
_chemical_formula_sum "Si O2"
_cell_formula_units_Z 88
_cell_length_a 9.522535
_cell_length_b 21.480013
_cell_length_c 23.076707
_cell_angle_alpha 90.000000
_cell_angle_beta 90.000000
_cell_angle_gamma 90.000000
_cell_volume 4720.206009
_symmetry_space_group_name_H-M "I M M A"
_symmetry_group_IT_number 74
_symmetry_cell_setting 'orthorhombic'
loop_
_space_group_symop_operation_xyz
x,y,z
-x,1/2-y,z
x,-y,-z
-x,1/2+y,-z
-x,-y,-z
x,1/2+y,-z
-x,y,z
x,1/2-y,z
1/2+x,1/2+y,1/2+z
1/2-x,-y,1/2+z
1/2+x,1/2-y,1/2-z
1/2-x,y,1/2-z
1/2-x,1/2-y,1/2-z
1/2+x,y,1/2-z
1/2-x,1/2+y,1/2+z
1/2+x,-y,1/2+z
loop_
_atom_site_type_symbol
_atom_site_label
_atom_site_fract_x
_atom_site_fract_y
_atom_site_fract_z
Si Si1 0.843765 0.676829 0.698181
Si Si2 0.838895 0.002339 0.804698
Si Si3 0.666074 0.623233 0.370110
Si Si4 0.331725 0.750000 0.310509
Si Si5 0.158857 0.611184 0.886812
Si Si6 0.163438 0.067888 0.988209
O O1 0.855052 0.750000 0.704736
O O2 0.750000 0.647973 0.750000
O O3 0.768606 0.660854 0.637997
O O4 0.000000 0.647367 0.700931
O O5 0.750000 0.979365 0.750000
O O6 0.787429 0.070666 0.824183
O O7 0.000000 0.003490 0.785381
O O8 0.814925 0.956507 0.858923
O O9 0.500000 0.625319 0.375675
O O10 0.719089 0.690112 0.347589
O O11 0.730387 0.604643 0.433272
O O12 0.500000 0.750000 0.299458
O O13 0.250000 0.750000 0.250000
O O14 0.000000 0.633564 0.873490
O O15 0.186112 0.609859 0.955203
O O16 0.000000 0.056526 0.974684
O O17 0.233286 0.000000 0.000000
#
# Coordination Sequence:
#
# PCOD8298327 Si02
#       6
#    16  16  16   8  16  16
#     4  10  21  37  55  74 102 138 172 210 258 311
#     4  10  19  30  47  73 103 133 165 208 261 311
#     4   9  17  31  50  74 104 135 173 219 263 305
#     4  10  20  34  54  78 106 140 179 224 267 312
#     4  10  19  31  52  79 104 133 170 213 263 315
#     4   9  15  29  52  76 104 136 170 213 262 310
#
# _framework density 18.643255
#
# number of rings (size 3 to 8) (size 9 to 14) (size 15 to 20)
#    0.000    2.364    1.818    1.636    0.000    3.273 
#    1.636    0.000    0.000    2.727    0.000    0.000 
#    0.000    0.000    0.000    0.000    0.000    0.000 
#
# Total GULP energy -545493.636583 kJ/mol
# GULP energy per Si atom -12397.582650 kJ/mol
# Density = 1.860082 g / cm^3
# Si number density = 18.643255 Si / 1000 Ang^3
#
#
#
# Elastic Constant Matrix: (Units=GPa)
#
#
# Indices 1 2 3 4 5 6 
#
# 1 72.7283 22.5063 43.3407 0.0000 0.0000 0.0000
# 2 22.5063 59.1992 43.0542 0.0000 0.0000 0.0000
# 3 43.3407 43.0542 130.8851 0.0000 0.0000 0.0000
# 4 0.0000 0.0000 0.0000 27.1204 0.0000 0.0000
# 5 0.0000 0.0000 0.0000 0.0000 21.6947 0.0000
# 6 0.0000 0.0000 0.0000 0.0000 0.0000 17.3630
#
#
#
# Elastic Compliance Matrix: (Units=1/GPa)
#
#
# Indices 1 2 3 4 5 6 
#
# 1 0.017585 -0.003221 -0.004764 0.000000 0.000000 0.000000
# 2 -0.003221 0.022794 -0.006431 0.000000 0.000000 0.000000
# 3 -0.004764 -0.006431 0.011333 0.000000 0.000000 0.000000
# 4 0.000000 0.000000 0.000000 0.036873 0.000000 0.000000
# 5 0.000000 0.000000 0.000000 0.000000 0.046094 0.000000
# 6 0.000000 0.000000 0.000000 0.000000 0.000000 0.057594
#
#
# Mechanical properties :
#
#
# Convention : Reuss Voigt Hill
#
# Bulk Modulus (GPa) = 43.70533 53.40167 48.55350
# Shear Modulus (GPa) = 21.85961 23.49638 22.67799
#
# Velocity S-wave (km/s) = 3.42792 3.55394 3.49150
# Velocity P-wave (km/s) = 6.25791 6.74884 6.50800
#
# Compressibility (1/GPa) = 0.02288050
#
# Stress axis : x y z
#
# Youngs Moduli (GPa) = 56.86559 43.87087 88.23587
#
# Poissons Ratio (x) = 0.14132 0.42031
# Poissons Ratio (y) = 0.18317 0.56748
# Poissons Ratio (z) = 0.27088 0.28215
#
# Static dielectric constant tensor:
#      x y z
#    x 3.135090 0.000000 0.000000 
#    y 0.000000 3.485770 0.000000 
#    z 0.000000 0.000000 3.539830 
# 
# 
# High freq. dielectric constant tensor:
#      x y z
#    x 1.677320 0.000000 0.000000 
#    y 0.000000 1.722410 0.000000 
#    z 0.000000 0.000000 1.730110 
# 
# From -- ./inp_files/48694.got.cif
#   From: 2010.03.12/outbox.cif.g09.slc.cpg/sg74_25_cif.got.tgz:48694.got - 2010.04.16 15:46:19.
