data_PCOD8298243
_publ_section_title
;
Structure prediction by ZEFSAII (Michael W. Deem and Ramdas Pophale) SiO2 
 PCOD8298243
Probable space group: I M M A
;
_chemical_formula_sum "Si O2"
_cell_formula_units_Z 96
_cell_length_a 8.928891
_cell_length_b 28.426193
_cell_length_c 26.425984
_cell_angle_alpha 90.000000
_cell_angle_beta 90.000000
_cell_angle_gamma 90.000000
_cell_volume 6707.294714
_symmetry_space_group_name_H-M "I M M A"
_symmetry_group_IT_number 74
_symmetry_cell_setting 'orthorhombic'
loop_
_space_group_symop_operation_xyz
x,y,z
-x,1/2-y,z
x,-y,-z
-x,1/2+y,-z
-x,-y,-z
x,1/2+y,-z
-x,y,z
x,1/2-y,z
1/2+x,1/2+y,1/2+z
1/2-x,-y,1/2+z
1/2+x,1/2-y,1/2-z
1/2-x,y,1/2-z
1/2-x,1/2-y,1/2-z
1/2+x,y,1/2-z
1/2-x,1/2+y,1/2+z
1/2+x,-y,1/2+z
loop_
_atom_site_type_symbol
_atom_site_label
_atom_site_fract_x
_atom_site_fract_y
_atom_site_fract_z
Si Si1 0.826535 0.303652 0.354420
Si Si2 0.675927 0.386681 0.301006
Si Si3 0.675796 0.609268 0.994259
Si Si4 0.174913 0.558822 0.901143
Si Si5 0.334477 0.532215 0.450647
Si Si6 0.825015 0.196926 0.038068
O O1 0.806919 0.250000 0.336377
O O2 0.748927 0.336183 0.312702
O O3 0.746214 0.312254 0.407471
O O4 0.000000 0.317197 0.360533
O O5 0.500000 0.379900 0.293485
O O6 0.750000 0.406804 0.250000
O O7 0.713276 0.424095 0.344949
O O8 0.500000 0.615064 0.994606
O O9 0.728336 0.588413 0.940752
O O10 0.750826 0.660650 0.001549
O O11 0.722603 0.575897 0.041371
O O12 0.215107 0.502921 0.905069
O O13 0.000000 0.566603 0.914610
O O14 0.335501 0.500000 0.500000
O O15 0.500000 0.552920 0.440488
O O16 0.792976 0.250000 0.019216
O O17 0.000000 0.186702 0.042764
#
# Coordination Sequence:
#
# PCOD8298243 Si02
#       6
#    16  16  16  16  16  16
#     4  10  20  33  47  62  78  98 130 173 218 257
#     4  11  22  34  48  62  79 104 136 171 213 255
#     4  11  19  26  42  65  86 105 129 164 204 242
#     4   9  18  32  46  59  78 106 134 165 203 247
#     4   8  15  28  44  60  80 104 131 160 196 241
#     4  10  19  30  44  60  80 109 140 167 201 245
#
# _framework density 14.312775
#
# number of rings (size 3 to 8) (size 9 to 14) (size 15 to 20)
#    0.000    2.167    1.667    4.000    0.000    6.000 
#    0.000    0.000    0.000    0.000    0.000    0.000 
#    0.000    0.000    0.000    0.000    0.000    0.833 
#
# Total GULP energy -595089.673616 kJ/mol
# GULP energy per Si atom -12397.701534 kJ/mol
# Density = 1.428020 g / cm^3
# Si number density = 14.312775 Si / 1000 Ang^3
#
#
#
# Elastic Constant Matrix: (Units=GPa)
#
#
# Indices 1 2 3 4 5 6 
#
# 1 100.4832 53.7102 31.2042 0.0000 0.0000 0.0000
# 2 53.7102 95.5173 48.5829 0.0000 0.0000 0.0000
# 3 31.2042 48.5829 47.7434 0.0000 0.0000 0.0000
# 4 0.0000 0.0000 0.0000 17.7564 0.0000 0.0000
# 5 0.0000 0.0000 0.0000 0.0000 16.6689 0.0000
# 6 0.0000 0.0000 0.0000 0.0000 0.0000 19.6412
#
#
#
# Elastic Compliance Matrix: (Units=1/GPa)
#
#
# Indices 1 2 3 4 5 6 
#
# 1 0.014362 -0.006844 -0.002423 0.000000 0.000000 0.000000
# 2 -0.006844 0.024962 -0.020928 0.000000 0.000000 0.000000
# 3 -0.002423 -0.020928 0.043825 0.000000 0.000000 0.000000
# 4 0.000000 0.000000 0.000000 0.056318 0.000000 0.000000
# 5 0.000000 0.000000 0.000000 0.000000 0.059992 0.000000
# 6 0.000000 0.000000 0.000000 0.000000 0.000000 0.050914
#
#
# Mechanical properties :
#
#
# Convention : Reuss Voigt Hill
#
# Bulk Modulus (GPa) = 43.93680 56.74873 50.34276
# Shear Modulus (GPa) = 15.70599 18.16307 16.93453
#
# Velocity S-wave (km/s) = 3.31621 3.56618 3.44346
# Velocity P-wave (km/s) = 6.73997 7.52941 7.14560
#
# Compressibility (1/GPa) = 0.02275997
#
# Stress axis : x y z
#
# Youngs Moduli (GPa) = 69.62602 40.06033 22.81792
#
# Poissons Ratio (x) = 0.27416 0.05529
# Poissons Ratio (y) = 0.47650 0.47754
# Poissons Ratio (z) = 0.16870 0.83840
#
# Static dielectric constant tensor:
#      x y z
#    x 2.874620 0.000000 0.000000 
#    y 0.000000 3.087880 0.000000 
#    z 0.000000 0.000000 2.573430 
# 
# 
# High freq. dielectric constant tensor:
#      x y z
#    x 1.560760 0.000000 0.000000 
#    y 0.000000 1.544890 0.000000 
#    z 0.000000 0.000000 1.491110 
# 
# From -- ./inp_files/64905.got.cif
#   From: 2010.03.12/outbox.cif.g09.slc.cpg/sg74_33_cif.got.tgz:64905.got - 2010.04.16 15:46:19.
