data_PCOD8298082
_publ_section_title
;
Structure prediction by ZEFSAII (Michael W. Deem and Ramdas Pophale) SiO2 
 PCOD8298082
Probable space group: I M M A
;
_chemical_formula_sum "Si O2"
_cell_formula_units_Z 88
_cell_length_a 8.545175
_cell_length_b 18.066727
_cell_length_c 29.080279
_cell_angle_alpha 90.000000
_cell_angle_beta 90.000000
_cell_angle_gamma 90.000000
_cell_volume 4489.510713
_symmetry_space_group_name_H-M "I M M A"
_symmetry_group_IT_number 74
_symmetry_cell_setting 'orthorhombic'
loop_
_space_group_symop_operation_xyz
x,y,z
-x,1/2-y,z
x,-y,-z
-x,1/2+y,-z
-x,-y,-z
x,1/2+y,-z
-x,y,z
x,1/2-y,z
1/2+x,1/2+y,1/2+z
1/2-x,-y,1/2+z
1/2+x,1/2-y,1/2-z
1/2-x,y,1/2-z
1/2-x,1/2-y,1/2-z
1/2+x,y,1/2-z
1/2-x,1/2+y,1/2+z
1/2+x,-y,1/2+z
loop_
_atom_site_type_symbol
_atom_site_label
_atom_site_fract_x
_atom_site_fract_y
_atom_site_fract_z
Si Si1 0.685926 0.750000 0.199568
Si Si2 0.814733 0.454295 0.300521
Si Si3 0.182164 0.334240 0.374165
Si Si4 0.813883 0.397207 0.651655
Si Si5 0.317053 0.572504 0.050732
Si Si6 0.318337 0.586805 0.542353
O O1 0.500000 0.750000 0.199403
O O2 0.750000 0.750000 0.250000
O O3 0.752186 0.676941 0.174833
O O4 0.750000 0.440194 0.250000
O O5 0.757934 0.387360 0.333288
O O6 0.747396 0.531182 0.321257
O O7 0.000000 0.456535 0.297782
O O8 0.215502 0.250000 0.359190
O O9 0.276181 0.350124 0.421030
O O10 0.000000 0.348054 0.384101
O O11 0.756293 0.395114 0.599030
O O12 0.000000 0.400734 0.653051
O O13 0.500000 0.586922 0.043611
O O14 0.286265 0.484934 0.052363
O O15 0.223444 0.613198 0.009529
O O16 0.500000 0.566311 0.545418
#
# Coordination Sequence:
#
# PCOD8298082 Si02
#       6
#     8  16  16  16  16  16
#     4  10  20  36  56  82 112 146 182 226 279 330
#     4  10  20  36  56  82 109 140 183 232 279 331
#     4  10  21  39  60  79 107 151 197 233 272 336
#     4   9  18  34  57  81 110 143 186 230 268 324
#     4  10  18  34  59  82 109 150 192 230 269 330
#     4  11  21  34  54  85 117 144 179 233 289 336
#
# _framework density 19.601244999999999
#
# number of rings (size 3 to 8) (size 9 to 14) (size 15 to 20)
#    0.000    2.000    1.818    3.818    0.000    1.455 
#    1.636    1.818    0.000    0.000    0.000    0.000 
#    0.000    0.000    0.000    0.000    0.000    0.000 
#
# Total GULP energy -545633.591813 kJ/mol
# GULP energy per Si atom -12400.763450 kJ/mol
# Density = 1.955663 g / cm^3
# Si number density = 19.601245 Si / 1000 Ang^3
#
#
#
# Elastic Constant Matrix: (Units=GPa)
#
#
# Indices 1 2 3 4 5 6 
#
# 1 36.2415 19.6865 28.6559 0.0000 0.0000 0.0000
# 2 19.6865 140.8709 87.8315 0.0000 0.0000 0.0000
# 3 28.6559 87.8315 190.6242 0.0000 0.0000 0.0000
# 4 0.0000 0.0000 0.0000 30.2854 0.0000 0.0000
# 5 0.0000 0.0000 0.0000 0.0000 32.9738 0.0000
# 6 0.0000 0.0000 0.0000 0.0000 0.0000 10.3502
#
#
#
# Elastic Compliance Matrix: (Units=1/GPa)
#
#
# Indices 1 2 3 4 5 6 
#
# 1 0.031731 -0.002049 -0.003826 0.000000 0.000000 0.000000
# 2 -0.002049 0.010092 -0.004342 0.000000 0.000000 0.000000
# 3 -0.003826 -0.004342 0.007822 0.000000 0.000000 0.000000
# 4 0.000000 0.000000 0.000000 0.033019 0.000000 0.000000
# 5 0.000000 0.000000 0.000000 0.000000 0.030327 0.000000
# 6 0.000000 0.000000 0.000000 0.000000 0.000000 0.096617
#
#
# Mechanical properties :
#
#
# Convention : Reuss Voigt Hill
#
# Bulk Modulus (GPa) = 34.23377 71.12051 52.67714
# Shear Modulus (GPa) = 20.85258 30.15940 25.50599
#
# Velocity S-wave (km/s) = 3.26519 3.92681 3.61119
# Velocity P-wave (km/s) = 5.63190 7.54468 6.65735
#
# Compressibility (1/GPa) = 0.02921093
#
# Stress axis : x y z
#
# Youngs Moduli (GPa) = 31.51512 99.08574 127.84922
#
# Poissons Ratio (x) = 0.20302 0.48914
# Poissons Ratio (y) = 0.06457 0.55513
# Poissons Ratio (z) = 0.12058 0.43024
#
# Static dielectric constant tensor:
#      x y z
#    x 3.258750 0.000000 0.000000 
#    y 0.000000 3.766460 0.000000 
#    z 0.000000 0.000000 3.897910 
# 
# 
# High freq. dielectric constant tensor:
#      x y z
#    x 1.738860 0.000000 0.000000 
#    y 0.000000 1.749950 0.000000 
#    z 0.000000 0.000000 1.780840 
# 
# From -- ./inp_files/70241.got.cif
#   From: 2010.03.12/outbox.cif.g09.slc.cpg/sg74_36_cif.got.tgz:70241.got - 2010.04.16 15:46:19.
