data_PCOD8298751
_publ_section_title
;
Structure prediction by ZEFSAII (Michael W. Deem and Ramdas Pophale) SiO2 
 PCOD8298751
Probable space group: I M M A
;
_chemical_formula_sum "Si O2"
_cell_formula_units_Z 96
_cell_length_a 9.001545
_cell_length_b 27.617967
_cell_length_c 20.715591
_cell_angle_alpha 90.000000
_cell_angle_beta 90.000000
_cell_angle_gamma 90.000000
_cell_volume 5149.986507
_symmetry_space_group_name_H-M "I M M A"
_symmetry_group_IT_number 74
_symmetry_cell_setting 'orthorhombic'
loop_
_space_group_symop_operation_xyz
x,y,z
-x,1/2-y,z
x,-y,-z
-x,1/2+y,-z
-x,-y,-z
x,1/2+y,-z
-x,y,z
x,1/2-y,z
1/2+x,1/2+y,1/2+z
1/2-x,-y,1/2+z
1/2+x,1/2-y,1/2-z
1/2-x,y,1/2-z
1/2-x,1/2-y,1/2-z
1/2+x,y,1/2-z
1/2-x,1/2+y,1/2+z
1/2+x,-y,1/2+z
loop_
_atom_site_type_symbol
_atom_site_label
_atom_site_fract_x
_atom_site_fract_y
_atom_site_fract_z
Si Si1 0.676278 0.029380 0.060713
Si Si2 0.674233 0.194097 0.316787
Si Si3 0.676221 0.359746 0.065858
Si Si4 0.674529 0.026257 0.814939
Si Si5 0.823315 0.195443 0.561308
Si Si6 0.325287 0.637560 0.184709
O O1 0.500000 0.024930 0.059668
O O2 0.726248 0.084887 0.056992
O O3 0.738110 0.005388 0.126167
O O4 0.743252 0.000000 0.000000
O O5 0.500000 0.184273 0.311122
O O6 0.709090 0.250000 0.332629
O O7 0.750000 0.178531 0.250000
O O8 0.742759 0.161474 0.372352
O O9 0.500000 0.354709 0.075360
O O10 0.733310 0.331326 0.002842
O O11 0.500000 0.019760 0.806997
O O12 0.750000 0.006738 0.750000
O O13 0.717518 0.081906 0.828056
O O14 0.761130 0.250000 0.561063
O O15 0.761997 0.168202 0.624612
O O16 0.000000 0.194695 0.562422
O O17 0.500000 0.644464 0.192299
O O18 0.250000 0.657034 0.250000
#
# Coordination Sequence:
#
# PCOD8298751 Si02
#       6
#    16  16  16  16  16  16
#     4   9  17  30  50  75 100 129 168 208 244 289
#     4  10  21  37  56  77 103 135 169 207 253 307
#     4  10  19  32  53  78 102 131 168 210 253 298
#     4   9  17  30  48  69  94 124 157 194 235 281
#     4   9  17  29  47  71  97 125 159 199 242 290
#     4   9  17  30  48  69  94 126 162 199 240 286
#
# _framework density 18.640825
#
# number of rings (size 3 to 8) (size 9 to 14) (size 15 to 20)
#    0.000    2.667    0.000    2.000    0.000    6.667 
#    0.000    3.333    0.000    5.000    0.000    0.000 
#    0.000    0.000    0.000    0.000    0.000    0.000 
#
# Total GULP energy -595256.371032 kJ/mol
# GULP energy per Si atom -12401.174396 kJ/mol
# Density = 1.859840 g / cm^3
# Si number density = 18.640825 Si / 1000 Ang^3
#
#
#
# Elastic Constant Matrix: (Units=GPa)
#
#
# Indices 1 2 3 4 5 6 
#
# 1 31.9211 30.8260 38.7558 0.0000 0.0000 0.0000
# 2 30.8260 131.6646 102.5423 0.0001 0.0000 0.0000
# 3 38.7558 102.5423 195.5241 0.0002 0.0000 0.0000
# 4 0.0000 0.0001 0.0002 42.7798 0.0000 0.0000
# 5 0.0000 0.0000 0.0000 0.0000 30.7980 0.0000
# 6 0.0000 0.0000 0.0000 0.0000 0.0000 16.6052
#
#
#
# Elastic Compliance Matrix: (Units=1/GPa)
#
#
# Indices 1 2 3 4 5 6 
#
# 1 0.043815 -0.005907 -0.005587 0.000000 0.000000 0.000000
# 2 -0.005907 0.013636 -0.005980 0.000000 0.000000 0.000000
# 3 -0.005587 -0.005980 0.009358 0.000000 0.000000 0.000000
# 4 0.000000 0.000000 0.000000 0.023376 0.000000 0.000000
# 5 0.000000 0.000000 0.000000 0.000000 0.032470 0.000000
# 6 0.000000 0.000000 0.000000 0.000000 0.000000 0.060222
#
#
# Mechanical properties :
#
#
# Convention : Reuss Voigt Hill
#
# Bulk Modulus (GPa) = 31.38713 78.15091 54.76902
# Shear Modulus (GPa) = 21.88718 30.50229 26.19473
#
# Velocity S-wave (km/s) = 3.43031 4.04953 3.75271
# Velocity P-wave (km/s) = 5.70647 7.99253 6.94422
#
# Compressibility (1/GPa) = 0.03186020
#
# Stress axis : x y z
#
# Youngs Moduli (GPa) = 22.82339 73.33744 106.85818
#
# Poissons Ratio (x) = 0.43321 0.59699
# Poissons Ratio (y) = 0.13482 0.63904
# Poissons Ratio (z) = 0.12751 0.43858
#
# Static dielectric constant tensor:
#      x y z
#    x 3.014770 0.000000 0.000000 
#    y 0.000000 3.552580 0.000000 
#    z 0.000000 0.000000 3.673010 
# 
# 
# High freq. dielectric constant tensor:
#      x y z
#    x 1.679960 0.000000 0.000000 
#    y 0.000000 1.726980 0.000000 
#    z 0.000000 0.000000 1.741570 
# 
# From -- ./inp_files/49037.got.cif
#   From: 2010.03.12/outbox.cif.g09.slc.cpg/sg74_25_cif.got.tgz:49037.got - 2010.04.16 15:46:19.
