data_PCOD8298380
_publ_section_title
;
Structure prediction by ZEFSAII (Michael W. Deem and Ramdas Pophale) SiO2 
 PCOD8298380
Probable space group: I M M A
;
_chemical_formula_sum "Si O2"
_cell_formula_units_Z 112
_cell_length_a 9.422408
_cell_length_b 19.348391
_cell_length_c 34.199680
_cell_angle_alpha 90.000000
_cell_angle_beta 90.000000
_cell_angle_gamma 90.000000
_cell_volume 6234.890109
_symmetry_space_group_name_H-M "I M M A"
_symmetry_group_IT_number 74
_symmetry_cell_setting 'orthorhombic'
loop_
_space_group_symop_operation_xyz
x,y,z
-x,1/2-y,z
x,-y,-z
-x,1/2+y,-z
-x,-y,-z
x,1/2+y,-z
-x,y,z
x,1/2-y,z
1/2+x,1/2+y,1/2+z
1/2-x,-y,1/2+z
1/2+x,1/2-y,1/2-z
1/2-x,y,1/2-z
1/2-x,1/2-y,1/2-z
1/2+x,y,1/2-z
1/2-x,1/2+y,1/2+z
1/2+x,-y,1/2+z
loop_
_atom_site_type_symbol
_atom_site_label
_atom_site_fract_x
_atom_site_fract_y
_atom_site_fract_z
Si Si1 0.830717 0.827978 0.517056
Si Si2 0.831172 0.551114 0.572558
Si Si3 0.834555 0.051303 0.340749
Si Si4 0.668150 0.576055 0.209668
Si Si5 0.668057 0.827257 0.139302
Si Si6 0.668419 0.398345 0.938872
Si Si7 0.663542 0.172339 0.213514
O O1 0.775796 0.750000 0.526169
O O2 0.769913 0.883144 0.548615
O O3 0.774528 0.851228 0.474374
O O4 0.000000 0.829150 0.517600
O O5 0.765537 0.550295 0.616294
O O6 0.785790 0.478001 0.553321
O O7 0.000000 0.558239 0.573994
O O8 0.802854 0.127151 0.324280
O O9 0.000000 0.034846 0.345255
O O10 0.774258 0.993862 0.311061
O O11 0.500000 0.573175 0.218155
O O12 0.750000 0.587691 0.250000
O O13 0.709725 0.637940 0.180353
O O14 0.500000 0.825094 0.135244
O O15 0.731805 0.750000 0.138686
O O16 0.730521 0.870142 0.102334
O O17 0.500000 0.394546 0.937213
O O18 0.500000 0.168042 0.225392
O O19 0.711088 0.250000 0.203258
O O20 0.750000 0.142573 0.250000
#
# Coordination Sequence:
#
# PCOD8298380 Si02
#       7
#    16  16  16  16  16  16  16
#     4   9  16  22  30  49  76 106 140 175 210 249
#     4   9  15  23  35  50  72 103 139 175 209 248
#     4   9  16  27  41  57  78 107 142 178 215 257
#     4  10  19  31  46  64  86 113 146 182 220 261
#     4   9  16  26  41  59  79 106 141 177 212 254
#     4   9  14  23  36  51  73 105 142 176 207 248
#     4   9  17  28  42  60  81 107 141 179 217 258
#
# _framework density 17.963428
#
# number of rings (size 3 to 8) (size 9 to 14) (size 15 to 20)
#    0.000    2.857    1.429    1.286    0.000    4.286 
#    0.000    2.857    0.000    0.000    0.000    0.000 
#    0.000    0.000    0.000    3.857    0.000   13.000 
#
# Total GULP energy -694031.044727 kJ/mol
# GULP energy per Si atom -12393.411513 kJ/mol
# Density = 1.792254 g / cm^3
# Si number density = 17.963428 Si / 1000 Ang^3
#
#
#
# Elastic Constant Matrix: (Units=GPa)
#
#
# Indices 1 2 3 4 5 6 
#
# 1 8.8621 13.9066 15.7254 0.0000 0.0000 0.0000
# 2 13.9066 149.3062 79.2509 0.0000 0.0000 0.0000
# 3 15.7254 79.2509 141.5274 0.0000 0.0000 0.0000
# 4 0.0000 0.0000 0.0000 26.9827 0.0000 0.0000
# 5 0.0000 0.0000 0.0000 0.0000 14.1590 0.0000
# 6 0.0000 0.0000 0.0000 0.0000 0.0000 6.9643
#
#
#
# Elastic Compliance Matrix: (Units=1/GPa)
#
#
# Indices 1 2 3 4 5 6 
#
# 1 0.145626 -0.007079 -0.012217 0.000000 0.000000 0.000000
# 2 -0.007079 0.009874 -0.004743 0.000000 0.000000 0.000000
# 3 -0.012217 -0.004743 0.011079 0.000000 0.000000 0.000000
# 4 0.000000 0.000000 0.000000 0.037061 0.000000 0.000000
# 5 0.000000 0.000000 0.000000 0.000000 0.070627 0.000000
# 6 0.000000 0.000000 0.000000 0.000000 0.000000 0.143589
#
#
# Mechanical properties :
#
#
# Convention : Reuss Voigt Hill
#
# Bulk Modulus (GPa) = 8.43865 57.49573 32.96719
# Shear Modulus (GPa) = 9.89249 22.34207 16.11728
#
# Velocity S-wave (km/s) = 2.34925 3.53051 2.99862
# Velocity P-wave (km/s) = 3.47369 6.97825 5.51192
#
# Compressibility (1/GPa) = 0.11850231
#
# Stress axis : x y z
#
# Youngs Moduli (GPa) = 6.86689 101.27121 90.26079
#
# Poissons Ratio (x) = 0.71693 1.10268
# Poissons Ratio (y) = 0.04861 0.42809
# Poissons Ratio (z) = 0.08389 0.48031
#
# Static dielectric constant tensor:
#      x y z
#    x 2.529750 0.000000 0.000000 
#    y 0.000000 3.636540 0.000000 
#    z 0.000000 0.000000 3.517510 
# 
# 
# High freq. dielectric constant tensor:
#      x y z
#    x 1.596900 0.000000 0.000000 
#    y 0.000000 1.714430 0.000000 
#    z 0.000000 0.000000 1.706120 
# 
# From -- ./inp_files/66346.got.cif
#   From: 2010.03.12/outbox.cif.g09.slc.cpg/sg74_34_cif.got.tgz:66346.got - 2010.04.16 15:46:19.
