data_PCOD8298466
_publ_section_title
;
Structure prediction by ZEFSAII (Michael W. Deem and Ramdas Pophale) SiO2 
 PCOD8298466
Probable space group: I M M A
;
_chemical_formula_sum "Si O2"
_cell_formula_units_Z 80
_cell_length_a 17.832933
_cell_length_b 7.996852
_cell_length_c 30.818068
_cell_angle_alpha 90.000000
_cell_angle_beta 90.000000
_cell_angle_gamma 90.000000
_cell_volume 4394.882268
_symmetry_space_group_name_H-M "I M M A"
_symmetry_group_IT_number 74
_symmetry_cell_setting 'orthorhombic'
loop_
_space_group_symop_operation_xyz
x,y,z
-x,1/2-y,z
x,-y,-z
-x,1/2+y,-z
-x,-y,-z
x,1/2+y,-z
-x,y,z
x,1/2-y,z
1/2+x,1/2+y,1/2+z
1/2-x,-y,1/2+z
1/2+x,1/2-y,1/2-z
1/2-x,y,1/2-z
1/2-x,1/2-y,1/2-z
1/2+x,y,1/2-z
1/2-x,1/2+y,1/2+z
1/2+x,-y,1/2+z
loop_
_atom_site_type_symbol
_atom_site_label
_atom_site_fract_x
_atom_site_fract_y
_atom_site_fract_z
Si Si1 0.729644 0.438880 0.546677
Si Si2 0.785022 0.437166 0.635325
Si Si3 0.851161 0.940391 0.820314
Si Si4 0.916244 0.555121 0.913916
Si Si5 0.084888 0.250000 0.667595
Si Si6 0.585305 0.750000 0.270319
O O1 0.756721 0.500000 0.500000
O O2 0.753092 0.250000 0.546908
O O3 0.775168 0.521924 0.587368
O O4 0.640547 0.463640 0.553430
O O5 0.748011 0.250000 0.634565
O O6 0.738133 0.545411 0.670153
O O7 0.872329 0.417171 0.649515
O O8 0.868178 0.750000 0.804073
O O9 0.896362 0.981978 0.864065
O O10 0.874683 0.078598 0.785177
O O11 0.910039 0.750000 0.923803
O O12 0.000000 0.487867 0.923005
O O13 0.088730 0.250000 0.718877
O O14 0.000000 0.250000 0.650199
O O15 0.500000 0.750000 0.287069
#
# Coordination Sequence:
#
# PCOD8298466 Si02
#       6
#    16  16  16  16   8   8
#     4  10  19  31  49  73  97 129 174 221 265 317
#     4   8  17  35  56  76 101 138 180 217 273 332
#     4  10  19  33  53  79 112 150 192 233 264 308
#     4   9  18  31  46  68 103 145 183 220 259 302
#     4   9  19  37  61  81 105 139 175 223 287 348
#     4  11  21  33  53  81 113 151 193 233 267 317
#
# _framework density 18.202991999999998
#
# number of rings (size 3 to 8) (size 9 to 14) (size 15 to 20)
#    0.600    2.000    1.000    1.200    1.400    4.400 
#    0.000    2.000    0.000    2.400    0.000    0.000 
#    0.000    0.000    0.000    0.000    0.000    0.000 
#
# Total GULP energy -495557.113065 kJ/mol
# GULP energy per Si atom -12388.927827 kJ/mol
# Density = 1.816156 g / cm^3
# Si number density = 18.202992 Si / 1000 Ang^3
#
#
#
# Elastic Constant Matrix: (Units=GPa)
#
#
# Indices 1 2 3 4 5 6 
#
# 1 117.6123 23.9545 49.2650 0.0000 0.0000 0.0000
# 2 23.9545 62.2955 23.2775 0.0000 0.0000 0.0000
# 3 49.2650 23.2775 80.0289 0.0000 0.0000 0.0000
# 4 0.0000 0.0000 0.0000 22.2073 0.0000 0.0000
# 5 0.0000 0.0000 0.0000 0.0000 14.1315 0.0000
# 6 0.0000 0.0000 0.0000 0.0000 0.0000 20.2509
#
#
#
# Elastic Compliance Matrix: (Units=1/GPa)
#
#
# Indices 1 2 3 4 5 6 
#
# 1 0.011680 -0.002025 -0.006601 0.000000 0.000000 0.000000
# 2 -0.002025 0.018361 -0.004094 0.000000 0.000000 0.000000
# 3 -0.006601 -0.004094 0.017750 0.000000 0.000000 0.000000
# 4 0.000000 0.000000 0.000000 0.045030 0.000000 0.000000
# 5 0.000000 0.000000 0.000000 0.000000 0.070764 0.000000
# 6 0.000000 0.000000 0.000000 0.000000 0.000000 0.049381
#
#
# Mechanical properties :
#
#
# Convention : Reuss Voigt Hill
#
# Bulk Modulus (GPa) = 44.74109 50.32562 47.53335
# Shear Modulus (GPa) = 20.33714 22.21394 21.27554
#
# Velocity S-wave (km/s) = 3.34614 3.49713 3.42247
# Velocity P-wave (km/s) = 6.28977 6.63427 6.46432
#
# Compressibility (1/GPa) = 0.02235082
#
# Stress axis : x y z
#
# Youngs Moduli (GPa) = 85.61685 54.46357 56.33832
#
# Poissons Ratio (x) = 0.11027 0.37190
# Poissons Ratio (y) = 0.17335 0.23066
# Poissons Ratio (z) = 0.56517 0.22298
#
# Static dielectric constant tensor:
#      x y z
#    x 3.237900 0.000000 0.000000 
#    y 0.000000 3.248950 0.000000 
#    z 0.000000 0.000000 3.631990 
# 
# 
# High freq. dielectric constant tensor:
#      x y z
#    x 1.675360 0.000000 0.000000 
#    y 0.000000 1.691260 0.000000 
#    z 0.000000 0.000000 1.697570 
# 
# From -- ./inp_files/72910.got.cif
#   From: 2010.03.12/outbox.cif.g09.slc.cpg/sg74_37_cif.got.tgz:72910.got - 2010.04.16 15:46:19.
