data_PCOD8298772
_publ_section_title
;
Structure prediction by ZEFSAII (Michael W. Deem and Ramdas Pophale) SiO2 
 PCOD8298772
Probable space group: I M M A
;
_chemical_formula_sum "Si O2"
_cell_formula_units_Z 104
_cell_length_a 26.043916
_cell_length_b 8.621166
_cell_length_c 22.919921
_cell_angle_alpha 90.000000
_cell_angle_beta 90.000000
_cell_angle_gamma 90.000000
_cell_volume 5146.185180
_symmetry_space_group_name_H-M "I M M A"
_symmetry_group_IT_number 74
_symmetry_cell_setting 'orthorhombic'
loop_
_space_group_symop_operation_xyz
x,y,z
-x,1/2-y,z
x,-y,-z
-x,1/2+y,-z
-x,-y,-z
x,1/2+y,-z
-x,y,z
x,1/2-y,z
1/2+x,1/2+y,1/2+z
1/2-x,-y,1/2+z
1/2+x,1/2-y,1/2-z
1/2-x,y,1/2-z
1/2-x,1/2-y,1/2-z
1/2+x,y,1/2-z
1/2-x,1/2+y,1/2+z
1/2+x,-y,1/2+z
loop_
_atom_site_type_symbol
_atom_site_label
_atom_site_fract_x
_atom_site_fract_y
_atom_site_fract_z
Si Si1 0.906492 0.429064 0.371000
Si Si2 0.500000 0.929250 0.063090
Si Si3 0.694372 0.065938 0.563649
Si Si4 0.440510 0.432169 0.753357
Si Si5 0.194615 0.417156 0.269383
Si Si6 0.873702 0.567400 0.837172
Si Si7 0.196843 0.928386 0.385962
O O1 0.919651 0.250000 0.378662
O O2 0.950260 0.527385 0.400818
O O3 0.905277 0.478051 0.301946
O O4 0.853071 0.470580 0.404369
O O5 0.500000 0.750000 0.053308
O O6 0.500000 0.000000 0.000000
O O7 0.693484 0.250000 0.563322
O O8 0.750508 0.006345 0.585410
O O9 0.684020 0.000000 0.500000
O O10 0.647214 0.006587 0.603239
O O11 0.500000 0.471433 0.765167
O O12 0.430024 0.250000 0.758617
O O13 0.426575 0.492129 0.687745
O O14 0.170509 0.250000 0.293370
O O15 0.250000 0.369461 0.250000
O O16 0.166190 0.479930 0.212679
O O17 0.198968 0.553439 0.316417
O O18 0.880638 0.750000 0.846747
O O19 0.188462 0.750000 0.403144
#
# Coordination Sequence:
#
# PCOD8298772 Si02
#       7
#    16   8  16  16  16  16  16
#     4  12  24  39  62  91 125 165 208 259 313 367
#     4  12  26  46  66  86 116 160 213 262 309 366
#     4  11  25  43  63  88 122 166 212 257 307 370
#     4  11  23  39  62  93 129 164 202 257 316 374
#     4  10  19  32  53  84 120 155 192 238 296 360
#     4  11  22  37  62  93 125 161 203 253 311 378
#     4  11  23  37  58  88 123 161 204 255 306 360
#
# _framework density 20.209144999999999
#
# number of rings (size 3 to 8) (size 9 to 14) (size 15 to 20)
#    0.000    0.923    3.846    3.923    0.000    4.308 
#    0.000    1.538    0.000    0.462    0.000    0.000 
#    0.000    0.000    0.000    0.000    0.000    0.000 
#
# Total GULP energy -644601.016965 kJ/mol
# GULP energy per Si atom -12396.173403 kJ/mol
# Density = 2.016315 g / cm^3
# Si number density = 20.209145 Si / 1000 Ang^3
#
#
#
# Elastic Constant Matrix: (Units=GPa)
#
#
# Indices 1 2 3 4 5 6 
#
# 1 59.3510 27.7333 21.1805 0.0000 0.0000 0.0000
# 2 27.7333 112.6904 31.7137 0.0000 0.0000 0.0000
# 3 21.1805 31.7137 106.0159 0.0000 0.0000 0.0000
# 4 0.0000 0.0000 0.0000 34.8816 0.0000 0.0000
# 5 0.0000 0.0000 0.0000 0.0000 20.3010 0.0000
# 6 0.0000 0.0000 0.0000 0.0000 0.0000 27.2247
#
#
#
# Elastic Compliance Matrix: (Units=1/GPa)
#
#
# Indices 1 2 3 4 5 6 
#
# 1 0.019730 -0.004091 -0.002718 0.000000 0.000000 0.000000
# 2 -0.004091 0.010538 -0.002335 0.000000 0.000000 0.000000
# 3 -0.002718 -0.002335 0.010674 0.000000 0.000000 0.000000
# 4 0.000000 0.000000 0.000000 0.028668 0.000000 0.000000
# 5 0.000000 0.000000 0.000000 0.000000 0.049259 0.000000
# 6 0.000000 0.000000 0.000000 0.000000 0.000000 0.036731
#
#
# Mechanical properties :
#
#
# Convention : Reuss Voigt Hill
#
# Bulk Modulus (GPa) = 44.14139 48.81247 46.47693
# Shear Modulus (GPa) = 27.55734 29.64346 28.60040
#
# Velocity S-wave (km/s) = 3.69671 3.83408 3.76602
# Velocity P-wave (km/s) = 6.33329 6.61864 6.47754
#
# Compressibility (1/GPa) = 0.02265448
#
# Stress axis : x y z
#
# Youngs Moduli (GPa) = 50.68314 94.89714 93.68483
#
# Poissons Ratio (x) = 0.38820 0.25465
# Poissons Ratio (y) = 0.20733 0.21875
# Poissons Ratio (z) = 0.13776 0.22158
#
# Static dielectric constant tensor:
#      x y z
#    x 3.845590 0.000000 0.000000 
#    y 0.000000 3.660690 0.000000 
#    z 0.000000 0.000000 3.500910 
# 
# 
# High freq. dielectric constant tensor:
#      x y z
#    x 1.795920 0.000000 0.000000 
#    y 0.000000 1.800890 0.000000 
#    z 0.000000 0.000000 1.767030 
# 
# From -- ./inp_files/55211.got.cif
#   From: 2010.03.12/outbox.cif.g09.slc.cpg/sg74_28_cif.got.tgz:55211.got - 2010.04.16 15:46:19.
