data_PCOD8298341
_publ_section_title
;
Structure prediction by ZEFSAII (Michael W. Deem and Ramdas Pophale) SiO2 
 PCOD8298341
Probable space group: I M M A
;
_chemical_formula_sum "Si O2"
_cell_formula_units_Z 112
_cell_length_a 28.680370
_cell_length_b 16.628657
_cell_length_c 13.311372
_cell_angle_alpha 90.000000
_cell_angle_beta 90.000000
_cell_angle_gamma 90.000000
_cell_volume 6348.406759
_symmetry_space_group_name_H-M "I M M A"
_symmetry_group_IT_number 74
_symmetry_cell_setting 'orthorhombic'
loop_
_space_group_symop_operation_xyz
x,y,z
-x,1/2-y,z
x,-y,-z
-x,1/2+y,-z
-x,-y,-z
x,1/2+y,-z
-x,y,z
x,1/2-y,z
1/2+x,1/2+y,1/2+z
1/2-x,-y,1/2+z
1/2+x,1/2-y,1/2-z
1/2-x,y,1/2-z
1/2-x,1/2-y,1/2-z
1/2+x,y,1/2-z
1/2-x,1/2+y,1/2+z
1/2+x,-y,1/2+z
loop_
_atom_site_type_symbol
_atom_site_label
_atom_site_fract_x
_atom_site_fract_y
_atom_site_fract_z
Si Si1 0.117356 0.159357 0.547959
Si Si2 0.306777 0.923363 0.931020
Si Si3 0.553840 0.901906 0.883146
Si Si4 0.446952 0.158770 0.334910
Si Si5 0.221344 0.343594 0.146947
Si Si6 0.872624 0.981577 0.308400
Si Si7 0.132382 0.452133 0.102790
O O1 0.115821 0.250000 0.586436
O O2 0.158776 0.146100 0.468713
O O3 0.069883 0.140239 0.486872
O O4 0.129240 0.108121 0.647865
O O5 0.256304 0.882986 0.932643
O O6 0.327499 0.960597 0.827814
O O7 0.305618 0.000000 0.000000
O O8 0.500000 0.924113 0.895166
O O9 0.563205 0.846914 0.784716
O O10 0.582397 0.983625 0.866519
O O11 0.500000 0.132643 0.357364
O O12 0.437838 0.250000 0.368207
O O13 0.414152 0.101948 0.402636
O O14 0.210645 0.250000 0.125004
O O15 0.250000 0.353364 0.250000
O O16 0.173779 0.392730 0.136561
O O17 0.876570 0.979731 0.187913
O O18 0.142185 0.500000 0.000000
#
# Coordination Sequence:
#
# PCOD8298341 Si02
#       7
#    16  16  16  16  16  16  16
#     4  10  19  30  48  73 103 138 171 203 249 317
#     4   9  17  33  53  72 102 135 165 200 252 322
#     4   9  17  30  51  78 106 135 167 209 266 324
#     4   9  18  34  56  82 110 136 169 223 279 318
#     4  11  21  33  54  82 106 129 163 221 281 314
#     4   9  19  34  49  71 100 136 176 212 254 311
#     4  11  22  37  55  77 104 142 186 223 262 314
#
# _framework density 17.642222
#
# number of rings (size 3 to 8) (size 9 to 14) (size 15 to 20)
#    0.000    2.286    1.429    3.000    0.000    2.286 
#    0.000    1.429    0.000    0.000    0.000    5.000 
#    0.000    0.000    0.000    0.000    0.000    0.000 
#
# Total GULP energy -693893.278609 kJ/mol
# GULP energy per Si atom -12390.951404 kJ/mol
# Density = 1.760207 g / cm^3
# Si number density = 17.642222 Si / 1000 Ang^3
#
#
#
# Elastic Constant Matrix: (Units=GPa)
#
#
# Indices 1 2 3 4 5 6 
#
# 1 93.8714 36.3603 17.8197 0.0000 0.0000 0.0000
# 2 36.3603 97.4631 35.5293 0.0000 0.0000 0.0000
# 3 17.8197 35.5293 62.6064 0.0000 0.0000 0.0000
# 4 0.0000 0.0000 0.0000 -0.7963 0.0000 0.0000
# 5 0.0000 0.0000 0.0000 0.0000 -180.1099 0.0000
# 6 0.0000 0.0000 0.0000 0.0000 0.0000 21.7714
#
#
#
# Elastic Compliance Matrix: (Units=1/GPa)
#
#
# Indices 1 2 3 4 5 6 
#
# 1 0.012518 -0.004250 -0.001151 0.000000 0.000000 0.000000
# 2 -0.004250 0.014380 -0.006951 0.000000 0.000000 0.000000
# 3 -0.001151 -0.006951 0.020245 0.000000 0.000000 0.000000
# 4 0.000000 0.000000 0.000000 -1.255782 0.000000 0.000000
# 5 0.000000 0.000000 0.000000 0.000000 -0.005552 0.000000
# 6 0.000000 0.000000 0.000000 0.000000 0.000000 0.045932
#
#
# Mechanical properties :
#
#
# Convention : Reuss Voigt Hill
#
# Bulk Modulus (GPa) = 44.56633 48.15105 46.35869
# Shear Modulus (GPa) = -4.40111 -20.87819 -12.63965
#
# Velocity S-wave (km/s) = -1.58116 -3.44382 -2.67955
# Velocity P-wave (km/s) = 4.68856 3.39693 4.09400
#
# Compressibility (1/GPa) = 0.02243846
#
# Stress axis : x y z
#
# Youngs Moduli (GPa) = 79.88698 69.54181 49.39500
#
# Poissons Ratio (x) = 0.29558 0.05684
# Poissons Ratio (y) = 0.33955 0.34334
# Poissons Ratio (z) = 0.09193 0.48337
#
# Static dielectric constant tensor:
#      x y z
#    x 2.269890 0.000000 0.000000 
#    y 0.000000 3.127010 0.000000 
#    z 0.000000 0.000000 3.100760 
# 
# 
# High freq. dielectric constant tensor:
#      x y z
#    x 1.690070 0.000000 0.000000 
#    y 0.000000 1.674410 0.000000 
#    z 0.000000 0.000000 1.654350 
# 
# From -- ./inp_files/37922.got.cif
#   From: 2010.03.12/outbox.cif.g09.slc.cpg/sg74_19_cif.got.tgz:37922.got - 2010.04.16 15:46:19.
