data_PCOD8298553
_publ_section_title
;
Structure prediction by ZEFSAII (Michael W. Deem and Ramdas Pophale) SiO2 
 PCOD8298553
Probable space group: I M M A
;
_chemical_formula_sum "Si O2"
_cell_formula_units_Z 128
_cell_length_a 21.468497
_cell_length_b 17.435400
_cell_length_c 19.182478
_cell_angle_alpha 90.000000
_cell_angle_beta 90.000000
_cell_angle_gamma 90.000000
_cell_volume 7180.228494
_symmetry_space_group_name_H-M "I M M A"
_symmetry_group_IT_number 74
_symmetry_cell_setting 'orthorhombic'
loop_
_space_group_symop_operation_xyz
x,y,z
-x,1/2-y,z
x,-y,-z
-x,1/2+y,-z
-x,-y,-z
x,1/2+y,-z
-x,y,z
x,1/2-y,z
1/2+x,1/2+y,1/2+z
1/2-x,-y,1/2+z
1/2+x,1/2-y,1/2-z
1/2-x,y,1/2-z
1/2-x,1/2-y,1/2-z
1/2+x,y,1/2-z
1/2-x,1/2+y,1/2+z
1/2+x,-y,1/2+z
loop_
_atom_site_type_symbol
_atom_site_label
_atom_site_fract_x
_atom_site_fract_y
_atom_site_fract_z
Si Si1 0.816572 0.417182 0.280998
Si Si2 0.742127 0.158622 0.932981
Si Si3 0.810626 0.095125 0.704052
Si Si4 0.640929 0.162112 0.348813
Si Si5 0.721505 0.163768 0.089661
Si Si6 0.431052 0.840412 0.269430
Si Si7 0.570478 0.424282 0.464531
Si Si8 0.882008 0.839275 0.086981
O O1 0.750000 0.395811 0.250000
O O2 0.827540 0.507541 0.280482
O O3 0.863254 0.371213 0.229999
O O4 0.822369 0.387743 0.360694
O O5 0.736597 0.250000 0.920842
O O6 0.702386 0.111584 0.876805
O O7 0.812635 0.128633 0.924846
O O8 0.717977 0.135087 0.009790
O O9 0.750000 0.121562 0.750000
O O10 0.874166 0.140912 0.718280
O O11 0.615639 0.250000 0.349201
O O12 0.708282 0.160081 0.383582
O O13 0.600353 0.102731 0.392815
O O14 0.696118 0.250000 0.094269
O O15 0.500000 0.872315 0.246458
O O16 0.436342 0.750000 0.275109
O O17 0.413373 0.876855 0.344718
O O18 0.602143 0.500000 0.500000
O O19 0.500000 0.443870 0.446244
O O20 0.575602 0.355854 0.520220
O O21 0.877192 0.750000 0.098291
#
# Coordination Sequence:
#
# PCOD8298553 Si02
#       8
#    16  16  16  16  16  16  16  16
#     4   9  20  33  50  77 102 134 174 222 276 323
#     4  10  19  31  52  80 107 142 178 218 275 331
#     4  11  21  33  51  78 113 144 176 223 277 332
#     4  10  19  35  55  73  98 139 185 227 270 318
#     4   9  17  33  53  76 103 131 171 223 278 330
#     4  10  21  35  53  75 103 146 190 223 259 314
#     4  11  24  35  48  74 109 147 184 226 270 317
#     4  10  19  34  53  73 102 143 186 220 256 316
#
# _framework density 17.826730999999999
#
# number of rings (size 3 to 8) (size 9 to 14) (size 15 to 20)
#    0.000    2.000    2.500    1.500    1.750    5.000 
#    0.000    0.000    0.000    0.000    0.000    2.625 
#    0.000    2.000    0.000    0.000    0.000    0.000 
#
# Total GULP energy -793209.595398 kJ/mol
# GULP energy per Si atom -12393.899928 kJ/mol
# Density = 1.778616 g / cm^3
# Si number density = 17.826731 Si / 1000 Ang^3
#
#
#
# Elastic Constant Matrix: (Units=GPa)
#
#
# Indices 1 2 3 4 5 6 
#
# 1 71.5686 29.5632 42.3791 0.0000 0.0000 0.0000
# 2 29.5632 57.7756 42.7258 0.0000 0.0000 0.0000
# 3 42.3791 42.7258 130.8924 0.0000 0.0000 0.0000
# 4 0.0000 0.0000 0.0000 30.9892 0.0000 0.0000
# 5 0.0000 0.0000 0.0000 0.0000 12.0349 0.0000
# 6 0.0000 0.0000 0.0000 0.0000 0.0000 17.7878
#
#
#
# Elastic Compliance Matrix: (Units=1/GPa)
#
#
# Indices 1 2 3 4 5 6 
#
# 1 0.019156 -0.006875 -0.003958 0.000000 0.000000 0.000000
# 2 -0.006875 0.025283 -0.006027 0.000000 0.000000 0.000000
# 3 -0.003958 -0.006027 0.010889 0.000000 0.000000 0.000000
# 4 0.000000 0.000000 0.000000 0.032269 0.000000 0.000000
# 5 0.000000 0.000000 0.000000 0.000000 0.083092 0.000000
# 6 0.000000 0.000000 0.000000 0.000000 0.000000 0.056218
#
#
# Mechanical properties :
#
#
# Convention : Reuss Voigt Hill
#
# Bulk Modulus (GPa) = 46.27915 54.39698 50.33807
# Shear Modulus (GPa) = 18.66850 21.86694 20.26772
#
# Velocity S-wave (km/s) = 3.23959 3.50614 3.37550
# Velocity P-wave (km/s) = 6.32536 6.85355 6.59475
#
# Compressibility (1/GPa) = 0.02160800
#
# Stress axis : x y z
#
# Youngs Moduli (GPa) = 52.20217 39.55178 91.83824
#
# Poissons Ratio (x) = 0.27192 0.36350
# Poissons Ratio (y) = 0.35889 0.55351
# Poissons Ratio (z) = 0.20662 0.23838
#
# Static dielectric constant tensor:
#      x y z
#    x 3.101810 0.000000 0.000000 
#    y 0.000000 3.250850 0.000000 
#    z 0.000000 0.000000 3.443110 
# 
# 
# High freq. dielectric constant tensor:
#      x y z
#    x 1.647960 0.000000 0.000000 
#    y 0.000000 1.687320 0.000000 
#    z 0.000000 0.000000 1.691620 
# 
# From -- ./inp_files/46283.got.cif
#   From: 2010.03.12/outbox.cif.g09.slc.cpg/sg74_24_cif.got.tgz:46283.got - 2010.04.16 15:46:19.
