data_PCOD8298497
_publ_section_title
;
Structure prediction by ZEFSAII (Michael W. Deem and Ramdas Pophale) SiO2 
 PCOD8298497
Probable space group: I M M A
;
_chemical_formula_sum "Si O2"
_cell_formula_units_Z 112
_cell_length_a 15.260553
_cell_length_b 17.767142
_cell_length_c 21.271497
_cell_angle_alpha 90.000000
_cell_angle_beta 90.000000
_cell_angle_gamma 90.000000
_cell_volume 5767.477378
_symmetry_space_group_name_H-M "I M M A"
_symmetry_group_IT_number 74
_symmetry_cell_setting 'orthorhombic'
loop_
_space_group_symop_operation_xyz
x,y,z
-x,1/2-y,z
x,-y,-z
-x,1/2+y,-z
-x,-y,-z
x,1/2+y,-z
-x,y,z
x,1/2-y,z
1/2+x,1/2+y,1/2+z
1/2-x,-y,1/2+z
1/2+x,1/2-y,1/2-z
1/2-x,y,1/2-z
1/2-x,1/2-y,1/2-z
1/2+x,y,1/2-z
1/2-x,1/2+y,1/2+z
1/2+x,-y,1/2+z
loop_
_atom_site_type_symbol
_atom_site_label
_atom_site_fract_x
_atom_site_fract_y
_atom_site_fract_z
Si Si1 0.736703 0.660649 0.603356
Si Si2 0.102312 0.661673 0.360000
Si Si3 0.598634 0.567653 0.681067
Si Si4 0.843666 0.331867 0.283436
Si Si5 0.601255 0.587910 0.267167
Si Si6 0.260628 0.339312 0.962217
Si Si7 0.404779 0.336968 0.608631
O O1 0.711595 0.750000 0.606289
O O2 0.654930 0.611182 0.628287
O O3 0.823549 0.643814 0.644767
O O4 0.764361 0.633350 0.534044
O O5 0.117801 0.750000 0.346786
O O6 0.140547 0.615186 0.299770
O O7 0.155409 0.633794 0.421676
O O8 0.000000 0.645378 0.371946
O O9 0.500000 0.558158 0.654249
O O10 0.592301 0.612717 0.746882
O O11 0.642294 0.487691 0.701335
O O12 0.888281 0.250000 0.282095
O O13 0.750000 0.329919 0.250000
O O14 0.500000 0.570950 0.254704
O O15 0.615847 0.654306 0.317409
O O16 0.256750 0.250000 0.959463
O O17 0.171773 0.374656 0.932678
O O18 0.500000 0.374367 0.592792
O O19 0.409603 0.250000 0.592459
#
# Coordination Sequence:
#
# PCOD8298497 Si02
#       7
#    16  16  16  16  16  16  16
#     4   9  18  34  52  70 101 135 163 208 259 305
#     4   9  17  32  54  77 104 138 175 218 265 306
#     4  10  19  31  50  75 102 130 166 211 257 308
#     4   8  15  30  49  67  91 123 160 207 255 294
#     4   9  18  32  49  72 103 134 166 213 264 300
#     4   9  18  32  51  77 104 134 176 214 250 308
#     4   9  17  31  50  72 103 139 172 210 255 301
#
# _framework density 19.419235
#
# number of rings (size 3 to 8) (size 9 to 14) (size 15 to 20)
#    0.000    3.000    0.000    1.714    0.000    4.000 
#    7.714    5.000    0.000    5.143    0.000    3.000 
#    0.000    0.000    0.000    0.000    0.000    0.000 
#
# Total GULP energy -693775.563847 kJ/mol
# GULP energy per Si atom -12388.849354 kJ/mol
# Density = 1.937504 g / cm^3
# Si number density = 19.419235 Si / 1000 Ang^3
#
#
#
# Elastic Constant Matrix: (Units=GPa)
#
#
# Indices 1 2 3 4 5 6 
#
# 1 53.9583 13.7930 39.3560 0.0000 0.0000 0.0000
# 2 13.7930 45.0267 21.2502 0.0000 0.0000 0.0000
# 3 39.3560 21.2502 147.6454 0.0000 0.0000 0.0000
# 4 0.0000 0.0000 0.0000 15.9784 0.0000 0.0000
# 5 0.0000 0.0000 0.0000 0.0000 28.4153 0.0000
# 6 0.0000 0.0000 0.0000 0.0000 0.0000 13.0892
#
#
#
# Elastic Compliance Matrix: (Units=1/GPa)
#
#
# Indices 1 2 3 4 5 6 
#
# 1 0.023870 -0.004623 -0.005697 0.000000 0.000000 0.000000
# 2 -0.004623 0.024723 -0.002326 0.000000 0.000000 0.000000
# 3 -0.005697 -0.002326 0.008626 0.000000 0.000000 0.000000
# 4 0.000000 0.000000 0.000000 0.062585 0.000000 0.000000
# 5 0.000000 0.000000 0.000000 0.000000 0.035192 0.000000
# 6 0.000000 0.000000 0.000000 0.000000 0.000000 0.076399
#
#
# Mechanical properties :
#
#
# Convention : Reuss Voigt Hill
#
# Bulk Modulus (GPa) = 31.32200 43.93654 37.62927
# Shear Modulus (GPa) = 18.70343 22.97865 20.84104
#
# Velocity S-wave (km/s) = 3.10682 3.44364 3.27955
# Velocity P-wave (km/s) = 5.38833 6.20370 5.81034
#
# Compressibility (1/GPa) = 0.03192644
#
# Stress axis : x y z
#
# Youngs Moduli (GPa) = 41.89326 40.44812 115.92283
#
# Poissons Ratio (x) = 0.18700 0.66045
# Poissons Ratio (y) = 0.19368 0.26963
# Poissons Ratio (z) = 0.23868 0.09408
#
# Static dielectric constant tensor:
#      x y z
#    x 3.484240 0.000000 0.000000 
#    y 0.000000 3.424120 0.000000 
#    z 0.000000 0.000000 3.811900 
# 
# 
# High freq. dielectric constant tensor:
#      x y z
#    x 1.736890 0.000000 0.000000 
#    y 0.000000 1.731580 0.000000 
#    z 0.000000 0.000000 1.751460 
# 
# From -- ./inp_files/53258.got.cif
#   From: 2010.03.12/outbox.cif.g09.slc.cpg/sg74_27_cif.got.tgz:53258.got - 2010.04.16 15:46:19.
