data_PCOD8298316
_publ_section_title
;
Structure prediction by ZEFSAII (Michael W. Deem and Ramdas Pophale) SiO2 
 PCOD8298316
Probable space group: I M M A
;
_chemical_formula_sum "Si O2"
_cell_formula_units_Z 80
_cell_length_a 8.569553
_cell_length_b 24.106899
_cell_length_c 23.530574
_cell_angle_alpha 90.000000
_cell_angle_beta 90.000000
_cell_angle_gamma 90.000000
_cell_volume 4861.071834
_symmetry_space_group_name_H-M "I M M A"
_symmetry_group_IT_number 74
_symmetry_cell_setting 'orthorhombic'
loop_
_space_group_symop_operation_xyz
x,y,z
-x,1/2-y,z
x,-y,-z
-x,1/2+y,-z
-x,-y,-z
x,1/2+y,-z
-x,y,z
x,1/2-y,z
1/2+x,1/2+y,1/2+z
1/2-x,-y,1/2+z
1/2+x,1/2-y,1/2-z
1/2-x,y,1/2-z
1/2-x,1/2-y,1/2-z
1/2+x,y,1/2-z
1/2-x,1/2+y,1/2+z
1/2+x,-y,1/2+z
loop_
_atom_site_type_symbol
_atom_site_label
_atom_site_fract_x
_atom_site_fract_y
_atom_site_fract_z
Si Si1 0.681228 0.688022 0.003622
Si Si2 0.182723 0.579738 0.188473
Si Si3 0.818810 0.921396 0.974256
Si Si4 0.821611 0.311765 0.876101
Si Si5 0.317604 0.022462 0.917630
O O1 0.500000 0.679606 0.991632
O O2 0.736083 0.750000 0.986032
O O3 0.710705 0.678390 0.070306
O O4 0.775411 0.643272 0.966189
O O5 0.250000 0.567478 0.250000
O O6 0.220691 0.643507 0.172019
O O7 0.267487 0.537709 0.145775
O O8 0.000000 0.567477 0.187491
O O9 0.000000 0.930809 0.962857
O O10 0.722391 0.958040 0.929176
O O11 0.777474 0.939247 0.038490
O O12 0.795508 0.250000 0.850578
O O13 0.000000 0.319401 0.896930
O O14 0.500000 0.032800 0.926909
#
# Coordination Sequence:
#
# PCOD8298316 Si02
#       5
#    16  16  16  16  16
#     4  10  19  30  47  72 100 129 162 199 241 288
#     4  11  22  35  50  69  95 128 167 210 250 294
#     4  11  20  32  51  73  98 127 159 198 244 299
#     4   9  18  32  48  65  90 126 166 207 248 288
#     4  11  21  34  51  71  95 124 162 205 248 294
#
# _framework density 16.457274999999999
#
# number of rings (size 3 to 8) (size 9 to 14) (size 15 to 20)
#    0.000    1.600    2.000    6.000    0.000    2.400 
#    0.000    0.000    0.000    0.000    0.000    0.000 
#    0.000    0.800    0.000    3.000    0.000    4.600 
#
# Total GULP energy -496075.908546 kJ/mol
# GULP energy per Si atom -12401.897714 kJ/mol
# Density = 1.641982 g / cm^3
# Si number density = 16.457275 Si / 1000 Ang^3
#
#
#
# Elastic Constant Matrix: (Units=GPa)
#
#
# Indices 1 2 3 4 5 6 
#
# 1 71.7653 27.4458 15.4061 0.0000 0.0000 0.0000
# 2 27.4458 109.9582 46.8343 0.0000 0.0000 0.0000
# 3 15.4061 46.8343 67.8635 0.0000 0.0000 0.0000
# 4 0.0000 0.0000 0.0000 22.6740 0.0000 0.0000
# 5 0.0000 0.0000 0.0000 0.0000 23.5626 0.0000
# 6 0.0000 0.0000 0.0000 0.0000 0.0000 26.0957
#
#
#
# Elastic Compliance Matrix: (Units=1/GPa)
#
#
# Indices 1 2 3 4 5 6 
#
# 1 0.015474 -0.003351 -0.001200 0.000000 0.000000 0.000000
# 2 -0.003351 0.013606 -0.008629 0.000000 0.000000 0.000000
# 3 -0.001200 -0.008629 0.020963 0.000000 0.000000 0.000000
# 4 0.000000 0.000000 0.000000 0.044103 0.000000 0.000000
# 5 0.000000 0.000000 0.000000 0.000000 0.042440 0.000000
# 6 0.000000 0.000000 0.000000 0.000000 0.000000 0.038320
#
#
# Mechanical properties :
#
#
# Convention : Reuss Voigt Hill
#
# Bulk Modulus (GPa) = 42.22600 47.66217 44.94408
# Shear Modulus (GPa) = 23.90495 25.12653 24.51574
#
# Velocity S-wave (km/s) = 3.81536 3.91163 3.86380
# Velocity P-wave (km/s) = 6.71736 7.03031 6.87562
#
# Compressibility (1/GPa) = 0.02368209
#
# Stress axis : x y z
#
# Youngs Moduli (GPa) = 64.62661 73.49564 47.70271
#
# Poissons Ratio (x) = 0.24629 0.05725
# Poissons Ratio (y) = 0.21657 0.41164
# Poissons Ratio (z) = 0.07756 0.63421
#
# Static dielectric constant tensor:
#      x y z
#    x 3.194140 0.000000 0.000000 
#    y 0.000000 3.398920 0.000000 
#    z 0.000000 0.000000 2.798100 
# 
# 
# High freq. dielectric constant tensor:
#      x y z
#    x 1.649980 0.000000 0.000000 
#    y 0.000000 1.640600 0.000000 
#    z 0.000000 0.000000 1.579140 
# 
# From -- ./inp_files/49407.got.cif
#   From: 2010.03.12/outbox.cif.g09.slc.cpg/sg74_25_cif.got.tgz:49407.got - 2010.04.16 15:46:19.
