data_PCOD8298368
_publ_section_title
;
Structure prediction by ZEFSAII (Michael W. Deem and Ramdas Pophale) SiO2 
 PCOD8298368
Probable space group: I M M A
;
_chemical_formula_sum "Si O2"
_cell_formula_units_Z 88
_cell_length_a 26.055304
_cell_length_b 15.054489
_cell_length_c 10.984594
_cell_angle_alpha 90.000000
_cell_angle_beta 90.000000
_cell_angle_gamma 90.000000
_cell_volume 4308.699170
_symmetry_space_group_name_H-M "I M M A"
_symmetry_group_IT_number 74
_symmetry_cell_setting 'orthorhombic'
loop_
_space_group_symop_operation_xyz
x,y,z
-x,1/2-y,z
x,-y,-z
-x,1/2+y,-z
-x,-y,-z
x,1/2+y,-z
-x,y,z
x,1/2-y,z
1/2+x,1/2+y,1/2+z
1/2-x,-y,1/2+z
1/2+x,1/2-y,1/2-z
1/2-x,y,1/2-z
1/2-x,1/2-y,1/2-z
1/2+x,y,1/2-z
1/2-x,1/2+y,1/2+z
1/2+x,-y,1/2+z
loop_
_atom_site_type_symbol
_atom_site_label
_atom_site_fract_x
_atom_site_fract_y
_atom_site_fract_z
Si Si1 0.777659 0.854214 0.373675
Si Si2 0.876921 0.091976 0.720155
Si Si3 0.439891 0.250000 0.184413
Si Si4 0.676599 0.099176 0.528508
Si Si5 0.439699 0.750000 0.292867
Si Si6 0.559504 0.555170 0.876063
Si Si7 0.111247 0.250000 0.056843
O O1 0.786950 0.750000 0.378461
O O2 0.750000 0.884636 0.250000
O O3 0.833761 0.900890 0.387301
O O4 0.738204 0.884275 0.480256
O O5 0.844881 0.119539 0.838489
O O6 0.921576 0.165291 0.713888
O O7 0.904276 0.995574 0.721709
O O8 0.500000 0.250000 0.180823
O O9 0.421578 0.158490 0.116726
O O10 0.424191 0.250000 0.325167
O O11 0.647890 0.163946 0.434970
O O12 0.661396 0.000000 0.500000
O O13 0.500000 0.750000 0.291693
O O14 0.422536 0.750000 0.434169
O O15 0.500000 0.551160 0.834792
O O16 0.567709 0.500000 0.000000
#
# Coordination Sequence:
#
# PCOD8298368 Si02
#       7
#    16  16   8  16   8  16   8
#     4   9  16  31  51  74 104 140 179 217 262 312
#     4  10  19  33  54  80 111 144 183 230 275 321
#     4  10  21  39  59  79 112 149 180 224 278 332
#     4  10  19  31  53  82 112 146 182 223 269 327
#     4  10  19  30  51  85 117 146 184 228 269 320
#     4  10  22  39  58  79 104 142 188 230 275 325
#     4  10  19  33  54  82 117 151 181 214 271 340
#
# _framework density 20.423797
#
# number of rings (size 3 to 8) (size 9 to 14) (size 15 to 20)
#    0.000    2.182    1.818    1.909    0.000    1.455 
#    0.000    1.818    0.000    8.727    0.000    6.364 
#    0.000    0.000    0.000    0.000    0.000    0.000 
#
# Total GULP energy -545170.005162 kJ/mol
# GULP energy per Si atom -12390.227390 kJ/mol
# Density = 2.037731 g / cm^3
# Si number density = 20.423797 Si / 1000 Ang^3
#
#
#
# Elastic Constant Matrix: (Units=GPa)
#
#
# Indices 1 2 3 4 5 6 
#
# 1 103.7587 56.4137 0.8139 0.0000 0.0000 0.0000
# 2 56.4137 168.9317 17.7397 0.0000 0.0000 0.0000
# 3 0.8139 17.7397 22.7448 0.0000 0.0000 0.0000
# 4 0.0000 0.0000 0.0000 14.6093 0.0000 0.0000
# 5 0.0000 0.0000 0.0000 0.0000 18.1556 0.0000
# 6 0.0000 0.0000 0.0000 0.0000 0.0000 25.2915
#
#
#
# Elastic Compliance Matrix: (Units=1/GPa)
#
#
# Indices 1 2 3 4 5 6 
#
# 1 0.011952 -0.004298 0.002925 0.000000 0.000000 0.000000
# 2 -0.004298 0.007994 -0.006081 0.000000 0.000000 0.000000
# 3 0.002925 -0.006081 0.048604 0.000000 0.000000 0.000000
# 4 0.000000 0.000000 0.000000 0.068450 0.000000 0.000000
# 5 0.000000 0.000000 0.000000 0.000000 0.055079 0.000000
# 6 0.000000 0.000000 0.000000 0.000000 0.000000 0.039539
#
#
# Mechanical properties :
#
#
# Convention : Reuss Voigt Hill
#
# Bulk Modulus (GPa) = 18.64249 49.48554 34.06401
# Shear Modulus (GPa) = 18.91029 26.30914 22.60972
#
# Velocity S-wave (km/s) = 3.04615 3.59299 3.33081
# Velocity P-wave (km/s) = 4.63893 6.44164 5.61313
#
# Compressibility (1/GPa) = 0.05364090
#
# Stress axis : x y z
#
# Youngs Moduli (GPa) = 83.66914 125.10138 20.57442
#
# Poissons Ratio (x) = 0.53773 -0.06018
# Poissons Ratio (y) = 0.35964 0.12511
# Poissons Ratio (z) = -0.24472 0.76070
#
# Static dielectric constant tensor:
#      x y z
#    x 3.941460 0.000000 0.000000 
#    y 0.000000 2.991850 0.000000 
#    z 0.000000 0.000000 3.337990 
# 
# 
# High freq. dielectric constant tensor:
#      x y z
#    x 1.811670 0.000000 0.000000 
#    y 0.000000 1.807420 0.000000 
#    z 0.000000 0.000000 1.750790 
# 
# From -- ./inp_files/26189.got.cif
#   From: 2010.03.12/outbox.cif.g09.slc.cpg/sg74_14_cif.got.tgz:26189.got - 2010.04.16 15:46:19.
