data_PCOD8298686
_publ_section_title
;
Structure prediction by ZEFSAII (Michael W. Deem and Ramdas Pophale) SiO2 
 PCOD8298686
Probable space group: I M M A
;
_chemical_formula_sum "Si O2"
_cell_formula_units_Z 96
_cell_length_a 9.677622
_cell_length_b 20.115506
_cell_length_c 28.384909
_cell_angle_alpha 90.000000
_cell_angle_beta 90.000000
_cell_angle_gamma 90.000000
_cell_volume 5525.697712
_symmetry_space_group_name_H-M "I M M A"
_symmetry_group_IT_number 74
_symmetry_cell_setting 'orthorhombic'
loop_
_space_group_symop_operation_xyz
x,y,z
-x,1/2-y,z
x,-y,-z
-x,1/2+y,-z
-x,-y,-z
x,1/2+y,-z
-x,y,z
x,1/2-y,z
1/2+x,1/2+y,1/2+z
1/2-x,-y,1/2+z
1/2+x,1/2-y,1/2-z
1/2-x,y,1/2-z
1/2-x,1/2-y,1/2-z
1/2+x,y,1/2-z
1/2-x,1/2+y,1/2+z
1/2+x,-y,1/2+z
loop_
_atom_site_type_symbol
_atom_site_label
_atom_site_fract_x
_atom_site_fract_y
_atom_site_fract_z
Si Si1 0.155602 0.178097 0.794527
Si Si2 0.153733 0.399360 0.461977
Si Si3 0.838283 0.052059 0.850782
Si Si4 0.161202 0.827308 0.885251
Si Si5 0.163142 0.580923 0.797465
Si Si6 0.653527 0.946642 0.060762
O O1 0.162589 0.250000 0.820729
O O2 0.250000 0.180745 0.750000
O O3 0.210480 0.119686 0.826837
O O4 0.000000 0.162266 0.778073
O O5 0.259413 0.359124 0.429401
O O6 0.193635 0.396947 0.517539
O O7 0.152415 0.476713 0.452111
O O8 0.000000 0.369608 0.453558
O O9 0.769737 0.059124 0.900754
O O10 0.000000 0.046151 0.859531
O O11 0.788887 0.989428 0.819586
O O12 0.200492 0.750000 0.880535
O O13 0.200409 0.862601 0.835902
O O14 0.000000 0.837652 0.895775
O O15 0.250000 0.594636 0.750000
O O16 0.000000 0.581338 0.785159
O O17 0.500000 0.927103 0.079110
#
# Coordination Sequence:
#
# PCOD8298686 Si02
#       6
#    16  16  16  16  16  16
#     4   9  18  32  49  70  98 132 169 207 249 302
#     4   9  18  34  54  78 104 132 168 210 255 306
#     4  10  19  32  51  77 105 136 171 210 257 307
#     4  10  21  37  55  76 106 141 177 220 266 312
#     4  10  21  35  51  75 104 135 176 222 264 309
#     4   9  18  32  53  79 105 130 164 210 256 303
#
# _framework density 17.373372
#
# number of rings (size 3 to 8) (size 9 to 14) (size 15 to 20)
#    0.000    2.500    1.667    1.500    0.000    3.333 
#    0.000    2.500    0.000    3.000    0.000    0.000 
#    0.000    0.000    0.000    0.000    0.000    0.000 
#
# Total GULP energy -594797.699703 kJ/mol
# GULP energy per Si atom -12391.618744 kJ/mol
# Density = 1.733383 g / cm^3
# Si number density = 17.373372 Si / 1000 Ang^3
#
#
#
# Elastic Constant Matrix: (Units=GPa)
#
#
# Indices 1 2 3 4 5 6 
#
# 1 50.4782 38.4084 50.0285 0.0000 0.0000 0.0000
# 2 38.4084 100.3404 51.3742 0.0000 0.0000 0.0000
# 3 50.0285 51.3742 105.3173 0.0000 0.0000 0.0000
# 4 0.0000 0.0000 0.0000 -22.4377 0.0000 0.0000
# 5 0.0000 0.0000 0.0000 0.0000 17.3818 0.0000
# 6 0.0000 0.0000 0.0000 0.0000 0.0000 20.0537
#
#
#
# Elastic Compliance Matrix: (Units=1/GPa)
#
#
# Indices 1 2 3 4 5 6 
#
# 1 0.041480 -0.007717 -0.015940 0.000000 0.000000 0.000000
# 2 -0.007717 0.014719 -0.003515 0.000000 0.000000 0.000000
# 3 -0.015940 -0.003515 0.018781 0.000000 0.000000 0.000000
# 4 0.000000 0.000000 0.000000 -0.044568 0.000000 0.000000
# 5 0.000000 0.000000 0.000000 0.000000 0.057531 0.000000
# 6 0.000000 0.000000 0.000000 0.000000 0.000000 0.049866
#
#
# Mechanical properties :
#
#
# Convention : Reuss Voigt Hill
#
# Bulk Modulus (GPa) = 48.45289 59.52870 53.99080
# Shear Modulus (GPa) = 25.12162 10.75455 17.93809
#
# Velocity S-wave (km/s) = 3.80674 2.49072 3.21675
# Velocity P-wave (km/s) = 6.87542 6.52766 6.70379
#
# Compressibility (1/GPa) = 0.02063860
#
# Stress axis : x y z
#
# Youngs Moduli (GPa) = 24.10804 67.93814 53.24406
#
# Poissons Ratio (x) = 0.52425 0.84871
# Poissons Ratio (y) = 0.18603 0.18713
# Poissons Ratio (z) = 0.38428 0.23877
#
# Static dielectric constant tensor:
#      x y z
#    x 3.180900 0.000000 0.000000 
#    y 0.000000 4.088050 0.000000 
#    z 0.000000 0.000000 2.951720 
# 
# 
# High freq. dielectric constant tensor:
#      x y z
#    x 1.671570 0.000000 0.000000 
#    y 0.000000 1.668790 0.000000 
#    z 0.000000 0.000000 1.665930 
# 
# From -- ./inp_files/64259.got.cif
#   From: 2010.03.12/outbox.cif.g09.slc.cpg/sg74_33_cif.got.tgz:64259.got - 2010.04.16 15:46:19.
