data_PCOD8298890
_publ_section_title
;
Structure prediction by ZEFSAII (Michael W. Deem and Ramdas Pophale) SiO2 
 PCOD8298890
Probable space group: I M M A
;
_chemical_formula_sum "Si O2"
_cell_formula_units_Z 72
_cell_length_a 16.846599
_cell_length_b 10.630833
_cell_length_c 22.902739
_cell_angle_alpha 90.000000
_cell_angle_beta 90.000000
_cell_angle_gamma 90.000000
_cell_volume 4101.728952
_symmetry_space_group_name_H-M "I M M A"
_symmetry_group_IT_number 74
_symmetry_cell_setting 'orthorhombic'
loop_
_space_group_symop_operation_xyz
x,y,z
-x,1/2-y,z
x,-y,-z
-x,1/2+y,-z
-x,-y,-z
x,1/2+y,-z
-x,y,z
x,1/2-y,z
1/2+x,1/2+y,1/2+z
1/2-x,-y,1/2+z
1/2+x,1/2-y,1/2-z
1/2-x,y,1/2-z
1/2-x,1/2-y,1/2-z
1/2+x,y,1/2-z
1/2-x,1/2+y,1/2+z
1/2+x,-y,1/2+z
loop_
_atom_site_type_symbol
_atom_site_label
_atom_site_fract_x
_atom_site_fract_y
_atom_site_fract_z
Si Si1 0.589174 0.250000 0.023430
Si Si2 0.261739 0.604402 0.389492
Si Si3 0.815003 0.500000 0.500000
Si Si4 0.674315 0.013177 0.213310
Si Si5 0.089141 0.750000 0.661131
Si Si6 0.911600 0.602302 0.181432
O O1 0.500000 0.250000 0.997695
O O2 0.631708 0.375404 0.000827
O O3 0.586967 0.250000 0.092249
O O4 0.260091 0.750000 0.409179
O O5 0.240358 0.512360 0.442963
O O6 0.200909 0.587809 0.335542
O O7 0.349639 0.561025 0.368726
O O8 0.750000 0.059849 0.250000
O O9 0.609110 0.953709 0.255586
O O10 0.635910 0.129345 0.181393
O O11 0.000000 0.750000 0.686806
O O12 0.906852 0.750000 0.189312
O O13 0.000000 0.557788 0.163115
#
# Coordination Sequence:
#
# PCOD8298890 Si02
#       6
#     8  16   8  16   8  16
#     4  11  24  39  57  79 108 143 183 226 265 314
#     4  10  20  34  56  80 103 141 181 221 264 318
#     4  12  21  40  59  78 110 144 186 224 267 318
#     4  10  19  33  53  77 105 138 176 214 260 322
#     4  11  21  33  49  75 108 137 169 212 267 322
#     4   9  18  34  55  80 108 136 174 221 268 314
#
# _framework density 17.553574000000001
#
# number of rings (size 3 to 8) (size 9 to 14) (size 15 to 20)
#    0.000    1.778    3.333    2.000    0.000    2.667 
#    0.000    0.556    0.000    0.000    0.000    0.000 
#    0.000    0.000    0.000    0.000    0.000    0.000 
#
# Total GULP energy -446393.655836 kJ/mol
# GULP energy per Si atom -12399.823773 kJ/mol
# Density = 1.751362 g / cm^3
# Si number density = 17.553574 Si / 1000 Ang^3
#
#
#
# Elastic Constant Matrix: (Units=GPa)
#
#
# Indices 1 2 3 4 5 6 
#
# 1 122.7864 49.4786 47.0621 0.0000 0.0000 0.0000
# 2 49.4786 69.4120 32.1302 0.0000 0.0000 0.0000
# 3 47.0621 32.1302 76.5530 0.0000 0.0000 0.0000
# 4 0.0000 0.0000 0.0000 215.9554 0.0000 0.0000
# 5 0.0000 0.0000 0.0000 0.0000 22.4712 0.0000
# 6 0.0000 0.0000 0.0000 0.0000 0.0000 24.3472
#
#
#
# Elastic Compliance Matrix: (Units=1/GPa)
#
#
# Indices 1 2 3 4 5 6 
#
# 1 0.012812 -0.006810 -0.005018 0.000000 0.000000 0.000000
# 2 -0.006810 0.021500 -0.004837 0.000000 0.000000 0.000000
# 3 -0.005018 -0.004837 0.018178 0.000000 0.000000 0.000000
# 4 0.000000 0.000000 0.000000 0.004631 0.000000 0.000000
# 5 0.000000 0.000000 0.000000 0.000000 0.044501 0.000000
# 6 0.000000 0.000000 0.000000 0.000000 0.000000 0.041072
#
#
# Mechanical properties :
#
#
# Convention : Reuss Voigt Hill
#
# Bulk Modulus (GPa) = 52.19363 58.45479 55.32421
# Shear Modulus (GPa) = 27.41066 61.89348 44.65207
#
# Velocity S-wave (km/s) = 3.95592 5.94443 5.04904
# Velocity P-wave (km/s) = 7.11788 8.97152 8.09791
#
# Compressibility (1/GPa) = 0.01915943
#
# Stress axis : x y z
#
# Youngs Moduli (GPa) = 78.05430 46.51166 55.01116
#
# Poissons Ratio (x) = 0.31673 0.27605
# Poissons Ratio (y) = 0.53152 0.26612
# Poissons Ratio (z) = 0.39168 0.22500
#
# Static dielectric constant tensor:
#      x y z
#    x 3.639260 0.000000 0.000000 
#    y 0.000000 3.168050 0.000000 
#    z 0.000000 0.000000 3.234700 
# 
# 
# High freq. dielectric constant tensor:
#      x y z
#    x 1.685340 0.000000 0.000000 
#    y 0.000000 1.673820 0.000000 
#    z 0.000000 0.000000 1.675950 
# 
# From -- ./inp_files/50376.got.cif
#   From: 2010.03.12/outbox.cif.g09.slc.cpg/sg74_26_cif.got.tgz:50376.got - 2010.04.16 15:46:19.
