data_PCOD8298328
_publ_section_title
;
Structure prediction by ZEFSAII (Michael W. Deem and Ramdas Pophale) SiO2 
 PCOD8298328
Probable space group: I M M A
;
_chemical_formula_sum "Si O2"
_cell_formula_units_Z 104
_cell_length_a 9.022155
_cell_length_b 21.978124
_cell_length_c 29.758190
_cell_angle_alpha 90.000000
_cell_angle_beta 90.000000
_cell_angle_gamma 90.000000
_cell_volume 5900.752725
_symmetry_space_group_name_H-M "I M M A"
_symmetry_group_IT_number 74
_symmetry_cell_setting 'orthorhombic'
loop_
_space_group_symop_operation_xyz
x,y,z
-x,1/2-y,z
x,-y,-z
-x,1/2+y,-z
-x,-y,-z
x,1/2+y,-z
-x,y,z
x,1/2-y,z
1/2+x,1/2+y,1/2+z
1/2-x,-y,1/2+z
1/2+x,1/2-y,1/2-z
1/2-x,y,1/2-z
1/2-x,1/2-y,1/2-z
1/2+x,y,1/2-z
1/2-x,1/2+y,1/2+z
1/2+x,-y,1/2+z
loop_
_atom_site_type_symbol
_atom_site_label
_atom_site_fract_x
_atom_site_fract_y
_atom_site_fract_z
Si Si1 0.675393 0.634004 0.144425
Si Si2 0.172167 0.602628 0.795400
Si Si3 0.670441 0.821771 0.442156
Si Si4 0.673571 0.179783 0.129222
Si Si5 0.336158 0.677852 0.970762
Si Si6 0.326605 0.461301 0.704192
Si Si7 0.325893 0.750000 0.202163
O O1 0.500000 0.625077 0.144643
O O2 0.729193 0.643792 0.093813
O O3 0.754152 0.573830 0.162723
O O4 0.725774 0.691002 0.174646
O O5 0.250000 0.625469 0.750000
O O6 0.231975 0.639654 0.837265
O O7 0.205843 0.531976 0.804060
O O8 0.000000 0.615570 0.789659
O O9 0.500000 0.839536 0.435161
O O10 0.696430 0.750000 0.437088
O O11 0.720986 0.844678 0.491495
O O12 0.500000 0.170208 0.138267
O O13 0.717578 0.250000 0.136106
O O14 0.715249 0.157058 0.078893
O O15 0.500000 0.651599 0.981662
O O16 0.345726 0.750000 0.970299
O O17 0.500000 0.446611 0.707483
O O18 0.250000 0.438577 0.750000
O O19 0.500000 0.750000 0.209715
O O20 0.250000 0.750000 0.250000
#
# Coordination Sequence:
#
# PCOD8298328 Si02
#       7
#    16  16  16  16  16  16   8
#     4  11  21  34  51  72  99 134 172 213 260 307
#     4  10  21  36  55  77 104 137 172 211 251 298
#     4  10  19  30  47  73 103 135 170 211 256 302
#     4   9  18  33  54  81 110 138 169 205 250 302
#     4   8  15  29  49  72 101 136 168 203 247 300
#     4  10  21  37  54  74  98 130 174 215 254 303
#     4  10  22  34  46  68  98 130 164 206 257 308
#
# _framework density 17.624870999999999
#
# number of rings (size 3 to 8) (size 9 to 14) (size 15 to 20)
#    0.000    2.308    0.769    3.231    0.000    6.154 
#    0.000    1.538    0.000    0.923    0.000    6.462 
#    0.000    0.000    0.000    0.000    0.000    0.000 
#
# Total GULP energy -644877.027768 kJ/mol
# GULP energy per Si atom -12401.481303 kJ/mol
# Density = 1.758476 g / cm^3
# Si number density = 17.624871 Si / 1000 Ang^3
#
#
#
# Elastic Constant Matrix: (Units=GPa)
#
#
# Indices 1 2 3 4 5 6 
#
# 1 91.2731 40.7472 62.0394 0.0000 0.0000 0.0000
# 2 40.7472 50.5096 47.6917 0.0000 0.0000 0.0000
# 3 62.0394 47.6917 140.3904 0.0000 0.0000 0.0000
# 4 0.0000 0.0000 0.0000 19.6965 0.0000 0.0000
# 5 0.0000 0.0000 0.0000 0.0000 37.8577 0.0000
# 6 0.0000 0.0000 0.0000 0.0000 0.0000 25.9181
#
#
#
# Elastic Compliance Matrix: (Units=1/GPa)
#
#
# Indices 1 2 3 4 5 6 
#
# 1 0.019019 -0.010905 -0.004700 0.000000 0.000000 0.000000
# 2 -0.010905 0.035400 -0.007207 0.000000 0.000000 0.000000
# 3 -0.004700 -0.007207 0.011648 0.000000 0.000000 0.000000
# 4 0.000000 0.000000 0.000000 0.050770 0.000000 0.000000
# 5 0.000000 0.000000 0.000000 0.000000 0.026415 0.000000
# 6 0.000000 0.000000 0.000000 0.000000 0.000000 0.038583
#
#
# Mechanical properties :
#
#
# Convention : Reuss Voigt Hill
#
# Bulk Modulus (GPa) = 48.91507 64.79218 56.85362
# Shear Modulus (GPa) = 21.34245 25.47414 23.40829
#
# Velocity S-wave (km/s) = 3.48361 3.80590 3.64832
# Velocity P-wave (km/s) = 6.63283 7.49365 7.07634
#
# Compressibility (1/GPa) = 0.02044360
#
# Stress axis : x y z
#
# Youngs Moduli (GPa) = 52.57800 28.24829 85.85053
#
# Poissons Ratio (x) = 0.30806 0.40351
# Poissons Ratio (y) = 0.57338 0.61869
# Poissons Ratio (z) = 0.24712 0.20357
#
# Static dielectric constant tensor:
#      x y z
#    x 3.319550 0.000000 0.000000 
#    y 0.000000 3.025500 0.000000 
#    z 0.000000 0.000000 3.424790 
# 
# 
# High freq. dielectric constant tensor:
#      x y z
#    x 1.690000 0.000000 0.000000 
#    y 0.000000 1.648090 0.000000 
#    z 0.000000 0.000000 1.691570 
# 
# From -- ./inp_files/70543.got.cif
#   From: 2010.03.12/outbox.cif.g09.slc.cpg/sg74_36_cif.got.tgz:70543.got - 2010.04.16 15:46:19.
