data_PCOD8298281
_publ_section_title
;
Structure prediction by ZEFSAII (Michael W. Deem and Ramdas Pophale) SiO2 
 PCOD8298281
Probable space group: I M M A
;
_chemical_formula_sum "Si O2"
_cell_formula_units_Z 72
_cell_length_a 9.044418
_cell_length_b 17.144513
_cell_length_c 28.056003
_cell_angle_alpha 90.000000
_cell_angle_beta 90.000000
_cell_angle_gamma 90.000000
_cell_volume 4350.423921
_symmetry_space_group_name_H-M "I M M A"
_symmetry_group_IT_number 74
_symmetry_cell_setting 'orthorhombic'
loop_
_space_group_symop_operation_xyz
x,y,z
-x,1/2-y,z
x,-y,-z
-x,1/2+y,-z
-x,-y,-z
x,1/2+y,-z
-x,y,z
x,1/2-y,z
1/2+x,1/2+y,1/2+z
1/2-x,-y,1/2+z
1/2+x,1/2-y,1/2-z
1/2-x,y,1/2-z
1/2-x,1/2-y,1/2-z
1/2+x,y,1/2-z
1/2-x,1/2+y,1/2+z
1/2+x,-y,1/2+z
loop_
_atom_site_type_symbol
_atom_site_label
_atom_site_fract_x
_atom_site_fract_y
_atom_site_fract_z
Si Si1 0.832013 0.750000 0.798509
Si Si2 0.325830 0.080590 0.301383
Si Si3 0.329058 0.161844 0.040969
Si Si4 0.333459 0.427140 0.534987
Si Si5 0.674169 0.522352 0.890141
O O1 0.750000 0.750000 0.750000
O O2 0.795479 0.667722 0.824153
O O3 0.000000 0.750000 0.783121
O O4 0.500000 0.063098 0.296651
O O5 0.250000 0.070464 0.250000
O O6 0.251127 0.021487 0.338434
O O7 0.500000 0.149899 0.027984
O O8 0.295801 0.250000 0.058365
O O9 0.283128 0.102509 0.082761
O O10 0.237530 0.145912 0.992683
O O11 0.331109 0.500000 0.500000
O O12 0.500000 0.406007 0.550582
O O13 0.237154 0.447858 0.581476
O O14 0.500000 0.512858 0.883819
#
# Coordination Sequence:
#
# PCOD8298281 Si02
#       5
#     8  16  16  16  16
#     4   8  16  28  40  54  76 108 142 180 222 256
#     4  10  19  31  44  61  85 115 151 190 227 264
#     4   9  18  31  46  66  91 118 149 185 224 269
#     4   9  17  30  46  64  87 115 147 184 225 268
#     4  10  19  30  46  65  88 120 153 186 225 269
#
# _framework density 16.550111000000001
#
# number of rings (size 3 to 8) (size 9 to 14) (size 15 to 20)
#    0.000    2.667    0.000    2.000    1.556    4.889 
#    0.000    0.000    0.000    0.000    0.000    0.000 
#    0.000    0.889    0.000    3.333    0.000    5.111 
#
# Total GULP energy -446133.036678 kJ/mol
# GULP energy per Si atom -12392.584352 kJ/mol
# Density = 1.651244 g / cm^3
# Si number density = 16.550111 Si / 1000 Ang^3
#
#
#
# Elastic Constant Matrix: (Units=GPa)
#
#
# Indices 1 2 3 4 5 6 
#
# 1 87.2527 13.4628 48.4645 0.0000 0.0000 0.0000
# 2 13.4628 23.1578 15.7836 0.0000 0.0000 0.0000
# 3 48.4645 15.7836 90.1528 0.0000 0.0000 0.0000
# 4 0.0000 0.0000 0.0000 21.2850 0.0000 0.0000
# 5 0.0000 0.0000 0.0000 0.0000 30.6554 0.0000
# 6 0.0000 0.0000 0.0000 0.0000 0.0000 19.5442
#
#
#
# Elastic Compliance Matrix: (Units=1/GPa)
#
#
# Indices 1 2 3 4 5 6 
#
# 1 0.016671 -0.004069 -0.008250 0.000000 0.000000 0.000000
# 2 -0.004069 0.050026 -0.006571 0.000000 0.000000 0.000000
# 3 -0.008250 -0.006571 0.016678 0.000000 0.000000 0.000000
# 4 0.000000 0.000000 0.000000 0.046981 0.000000 0.000000
# 5 0.000000 0.000000 0.000000 0.000000 0.032621 0.000000
# 6 0.000000 0.000000 0.000000 0.000000 0.000000 0.051166
#
#
# Mechanical properties :
#
#
# Convention : Reuss Voigt Hill
#
# Bulk Modulus (GPa) = 21.93205 39.55392 30.74298
# Shear Modulus (GPa) = 18.71815 22.48709 20.60262
#
# Velocity S-wave (km/s) = 3.36668 3.69009 3.53209
# Velocity P-wave (km/s) = 5.32854 6.48900 5.93719
#
# Compressibility (1/GPa) = 0.04559537
#
# Stress axis : x y z
#
# Youngs Moduli (GPa) = 59.98411 19.98962 59.96077
#
# Poissons Ratio (x) = 0.08134 0.49466
# Poissons Ratio (y) = 0.24408 0.39400
# Poissons Ratio (z) = 0.49485 0.13135
#
# Static dielectric constant tensor:
#      x y z
#    x 3.217350 0.000000 0.000000 
#    y 0.000000 2.905050 0.000000 
#    z 0.000000 0.000000 2.911520 
# 
# 
# High freq. dielectric constant tensor:
#      x y z
#    x 1.653840 0.000000 0.000000 
#    y 0.000000 1.592750 0.000000 
#    z 0.000000 0.000000 1.618370 
# 
# From -- ./inp_files/56794.got.cif
#   From: 2010.03.12/outbox.cif.g09.slc.cpg/sg74_29_cif.got.tgz:56794.got - 2010.04.16 15:46:19.
