data_PCOD8298414
_publ_section_title
;
Structure prediction by ZEFSAII (Michael W. Deem and Ramdas Pophale) SiO2 
 PCOD8298414
Probable space group: I M M A
;
_chemical_formula_sum "Si O2"
_cell_formula_units_Z 96
_cell_length_a 25.650347
_cell_length_b 22.836170
_cell_length_c 9.679287
_cell_angle_alpha 90.000000
_cell_angle_beta 90.000000
_cell_angle_gamma 90.000000
_cell_volume 5669.697384
_symmetry_space_group_name_H-M "I M M A"
_symmetry_group_IT_number 74
_symmetry_cell_setting 'orthorhombic'
loop_
_space_group_symop_operation_xyz
x,y,z
-x,1/2-y,z
x,-y,-z
-x,1/2+y,-z
-x,-y,-z
x,1/2+y,-z
-x,y,z
x,1/2-y,z
1/2+x,1/2+y,1/2+z
1/2-x,-y,1/2+z
1/2+x,1/2-y,1/2-z
1/2-x,y,1/2-z
1/2-x,1/2-y,1/2-z
1/2+x,y,1/2-z
1/2-x,1/2+y,1/2+z
1/2+x,-y,1/2+z
loop_
_atom_site_type_symbol
_atom_site_label
_atom_site_fract_x
_atom_site_fract_y
_atom_site_fract_z
Si Si1 0.676209 0.750000 0.385178
Si Si2 0.858087 0.564854 0.279503
Si Si3 0.442269 0.569189 0.003276
Si Si4 0.834694 0.373339 0.994775
Si Si5 0.711440 0.876553 0.001731
Si Si6 0.139815 0.426215 0.280704
Si Si7 0.798794 0.250000 0.586102
O O1 0.652743 0.694475 0.465086
O O2 0.738152 0.750000 0.379380
O O3 0.663263 0.750000 0.221075
O O4 0.909741 0.586610 0.360458
O O5 0.860390 0.589072 0.125978
O O6 0.807929 0.589570 0.361351
O O7 0.855075 0.495442 0.265963
O O8 0.500000 0.597824 0.008066
O O9 0.447047 0.500000 0.000000
O O10 0.412093 0.591167 0.866262
O O11 0.773171 0.383213 0.001237
O O12 0.862708 0.393507 0.134749
O O13 0.690836 0.905786 0.862778
O O14 0.690744 0.809330 0.000526
#
# Coordination Sequence:
#
# PCOD8298414 Si02
#       7
#     8  16  16  16  16  16   8
#     4   9  18  31  47  65  92 132 175 204 231 263
#     4  10  19  31  49  73  99 130 164 194 238 297
#     4   8  16  34  54  69  92 124 159 201 241 285
#     4  11  20  31  47  71 103 133 162 200 236 280
#     4  10  19  31  48  68  99 138 169 197 229 274
#     4  10  21  31  45  76 104 126 159 194 246 302
#     4   9  16  31  49  65  86 132 185 206 217 263
#
# _framework density 16.932120999999999
#
# number of rings (size 3 to 8) (size 9 to 14) (size 15 to 20)
#    0.000    2.333    1.667    3.000    0.000    4.667 
#    0.000    3.333    0.000    4.000    0.000   22.167 
#    0.000    0.000    0.000    0.000    0.000    0.000 
#
# Total GULP energy -595038.912174 kJ/mol
# GULP energy per Si atom -12396.644004 kJ/mol
# Density = 1.689358 g / cm^3
# Si number density = 16.932121 Si / 1000 Ang^3
#
#
#
# Elastic Constant Matrix: (Units=GPa)
#
#
# Indices 1 2 3 4 5 6 
#
# 1 91.8281 32.0395 49.4637 0.0000 0.0000 0.0000
# 2 32.0395 106.3657 54.1209 0.0000 0.0000 0.0000
# 3 49.4637 54.1209 147.2794 0.0000 0.0000 0.0000
# 4 0.0000 0.0000 0.0000 15.4211 0.0000 0.0000
# 5 0.0000 0.0000 0.0000 0.0000 5.0082 0.0000
# 6 0.0000 0.0000 0.0000 0.0000 0.0000 3.0052
#
#
#
# Elastic Compliance Matrix: (Units=1/GPa)
#
#
# Indices 1 2 3 4 5 6 
#
# 1 0.013700 -0.002196 -0.003794 0.000000 0.000000 0.000000
# 2 -0.002196 0.011916 -0.003641 0.000000 0.000000 0.000000
# 3 -0.003794 -0.003641 0.009402 0.000000 0.000000 0.000000
# 4 0.000000 0.000000 0.000000 0.064846 0.000000 0.000000
# 5 0.000000 0.000000 0.000000 0.000000 0.199671 0.000000
# 6 0.000000 0.000000 0.000000 0.000000 0.000000 0.332762
#
#
# Mechanical properties :
#
#
# Convention : Reuss Voigt Hill
#
# Bulk Modulus (GPa) = 63.47207 68.52458 65.99833
# Shear Modulus (GPa) = 7.61254 18.67683 13.14468
#
# Velocity S-wave (km/s) = 2.12266 3.32481 2.78927
# Velocity P-wave (km/s) = 6.60115 7.43621 7.03109
#
# Compressibility (1/GPa) = 0.01575496
#
# Stress axis : x y z
#
# Youngs Moduli (GPa) = 72.99341 83.92275 106.35984
#
# Poissons Ratio (x) = 0.18431 0.40354
# Poissons Ratio (y) = 0.16031 0.38727
# Poissons Ratio (z) = 0.27694 0.30557
#
# Static dielectric constant tensor:
#      x y z
#    x 3.125370 0.000000 0.000000 
#    y 0.000000 3.354000 0.000000 
#    z 0.000000 0.000000 3.249230 
# 
# 
# High freq. dielectric constant tensor:
#      x y z
#    x 1.617140 0.000000 0.000000 
#    y 0.000000 1.650880 0.000000 
#    z 0.000000 0.000000 1.657390 
# 
# From -- ./inp_files/14095.got.cif
#   From: 2010.03.12/outbox.cif.g09.slc.cpg/sg74_8_cif.got.tgz:14095.got - 2010.04.16 15:46:19.
