data_PCOD8298708
_publ_section_title
;
Structure prediction by ZEFSAII (Michael W. Deem and Ramdas Pophale) SiO2 
 PCOD8298708
Probable space group: I M M A
;
_chemical_formula_sum "Si O2"
_cell_formula_units_Z 88
_cell_length_a 19.417256
_cell_length_b 9.119169
_cell_length_c 26.748056
_cell_angle_alpha 90.000000
_cell_angle_beta 90.000000
_cell_angle_gamma 90.000000
_cell_volume 4736.257920
_symmetry_space_group_name_H-M "I M M A"
_symmetry_group_IT_number 74
_symmetry_cell_setting 'orthorhombic'
loop_
_space_group_symop_operation_xyz
x,y,z
-x,1/2-y,z
x,-y,-z
-x,1/2+y,-z
-x,-y,-z
x,1/2+y,-z
-x,y,z
x,1/2-y,z
1/2+x,1/2+y,1/2+z
1/2-x,-y,1/2+z
1/2+x,1/2-y,1/2-z
1/2-x,y,1/2-z
1/2-x,1/2-y,1/2-z
1/2+x,y,1/2-z
1/2-x,1/2+y,1/2+z
1/2+x,-y,1/2+z
loop_
_atom_site_type_symbol
_atom_site_label
_atom_site_fract_x
_atom_site_fract_y
_atom_site_fract_z
Si Si1 0.646086 0.414341 0.583190
Si Si2 0.685360 0.085116 0.697265
Si Si3 0.309677 0.581644 0.841087
Si Si4 0.500000 0.921135 0.448452
Si Si5 0.272347 0.422607 0.048885
Si Si6 0.921672 0.080881 0.265318
O O1 0.654860 0.250000 0.560745
O O2 0.666136 0.415134 0.640055
O O3 0.567652 0.469904 0.581571
O O4 0.692993 0.525843 0.551607
O O5 0.693523 0.250000 0.718222
O O6 0.759982 0.004680 0.698333
O O7 0.623538 0.005999 0.725568
O O8 0.284707 0.750000 0.840100
O O9 0.308768 0.526352 0.898903
O O10 0.387225 0.563197 0.820314
O O11 0.500000 0.750000 0.458208
O O12 0.500000 0.000000 0.500000
O O13 0.277599 0.250000 0.041169
O O14 0.306875 0.500000 0.000000
O O15 0.921758 0.250000 0.249013
O O16 0.000000 0.019736 0.267417
#
# Coordination Sequence:
#
# PCOD8298708 Si02
#       6
#    16  16  16   8  16  16
#     4   9  19  33  48  67  96 131 167 205 247 297
#     4  10  20  33  53  78 104 135 171 212 258 305
#     4   9  19  36  55  75 103 137 172 211 254 303
#     4  10  20  32  44  60  88 128 166 202 245 288
#     4  10  19  32  52  75  98 125 162 207 255 302
#     4  10  21  36  54  76 103 137 175 213 254 305
#
# _framework density 18.580068000000001
#
# number of rings (size 3 to 8) (size 9 to 14) (size 15 to 20)
#    0.000    2.364    0.000    2.182    1.273    6.909 
#    0.000    0.000    0.000    0.545    0.000    0.000 
#    0.000    0.000    0.000    0.000    0.000    0.545 
#
# Total GULP energy -545374.640515 kJ/mol
# GULP energy per Si atom -12394.878194 kJ/mol
# Density = 1.853778 g / cm^3
# Si number density = 18.580068 Si / 1000 Ang^3
#
#
#
# Elastic Constant Matrix: (Units=GPa)
#
#
# Indices 1 2 3 4 5 6 
#
# 1 103.7542 34.2073 36.2133 0.0000 0.0000 0.0000
# 2 34.2073 69.9124 34.2992 0.0000 0.0000 0.0000
# 3 36.2133 34.2992 67.2013 0.0000 0.0000 0.0000
# 4 0.0000 0.0000 0.0000 30.1585 0.0000 0.0000
# 5 0.0000 0.0000 0.0000 0.0000 12.3015 0.0000
# 6 0.0000 0.0000 0.0000 0.0000 0.0000 15.7816
#
#
#
# Elastic Compliance Matrix: (Units=1/GPa)
#
#
# Indices 1 2 3 4 5 6 
#
# 1 0.012575 -0.003773 -0.004851 0.000000 0.000000 0.000000
# 2 -0.003773 0.020214 -0.008284 0.000000 0.000000 0.000000
# 3 -0.004851 -0.008284 0.021723 0.000000 0.000000 0.000000
# 4 0.000000 0.000000 0.000000 0.033158 0.000000 0.000000
# 5 0.000000 0.000000 0.000000 0.000000 0.081291 0.000000
# 6 0.000000 0.000000 0.000000 0.000000 0.000000 0.063365
#
#
# Mechanical properties :
#
#
# Convention : Reuss Voigt Hill
#
# Bulk Modulus (GPa) = 48.31760 50.03416 49.17588
# Shear Modulus (GPa) = 18.31239 20.72488 19.51863
#
# Velocity S-wave (km/s) = 3.14282 3.34344 3.24468
# Velocity P-wave (km/s) = 6.26349 6.47242 6.36881
#
# Compressibility (1/GPa) = 0.02069639
#
# Stress axis : x y z
#
# Youngs Moduli (GPa) = 79.52173 49.47120 46.03503
#
# Poissons Ratio (x) = 0.18666 0.22330
# Poissons Ratio (y) = 0.30005 0.38134
# Poissons Ratio (z) = 0.38574 0.40981
#
# Static dielectric constant tensor:
#      x y z
#    x 3.408290 0.000000 0.000000 
#    y 0.000000 3.577330 0.000000 
#    z 0.000000 0.000000 3.542300 
# 
# 
# High freq. dielectric constant tensor:
#      x y z
#    x 1.699480 0.000000 0.000000 
#    y 0.000000 1.720090 0.000000 
#    z 0.000000 0.000000 1.730530 
# 
# From -- ./inp_files/72938.got.cif
#   From: 2010.03.12/outbox.cif.g09.slc.cpg/sg74_37_cif.got.tgz:72938.got - 2010.04.16 15:46:19.
