data_PCOD8298830
_publ_section_title
;
Structure prediction by ZEFSAII (Michael W. Deem and Ramdas Pophale) SiO2 
 PCOD8298830
Probable space group: I M M A
;
_chemical_formula_sum "Si O2"
_cell_formula_units_Z 80
_cell_length_a 14.797426
_cell_length_b 9.703339
_cell_length_c 32.071229
_cell_angle_alpha 90.000000
_cell_angle_beta 90.000000
_cell_angle_gamma 90.000000
_cell_volume 4604.929482
_symmetry_space_group_name_H-M "I M M A"
_symmetry_group_IT_number 74
_symmetry_cell_setting 'orthorhombic'
loop_
_space_group_symop_operation_xyz
x,y,z
-x,1/2-y,z
x,-y,-z
-x,1/2+y,-z
-x,-y,-z
x,1/2+y,-z
-x,y,z
x,1/2-y,z
1/2+x,1/2+y,1/2+z
1/2-x,-y,1/2+z
1/2+x,1/2-y,1/2-z
1/2-x,y,1/2-z
1/2-x,1/2-y,1/2-z
1/2+x,y,1/2-z
1/2-x,1/2+y,1/2+z
1/2+x,-y,1/2+z
loop_
_atom_site_type_symbol
_atom_site_label
_atom_site_fract_x
_atom_site_fract_y
_atom_site_fract_z
Si Si1 0.396260 0.090318 0.460077
Si Si2 0.399527 0.592098 0.842458
Si Si3 0.901099 0.405111 0.824602
Si Si4 0.784250 0.590500 0.880627
Si Si5 0.847734 0.592771 0.265153
O O1 0.500000 0.064919 0.445856
O O2 0.380706 0.250000 0.471359
O O3 0.327396 0.040097 0.424114
O O4 0.371828 0.000000 0.500000
O O5 0.500000 0.563086 0.861038
O O6 0.390825 0.750000 0.827807
O O7 0.323926 0.562360 0.878249
O O8 0.385370 0.499882 0.802007
O O9 0.868728 0.250000 0.835379
O O10 0.828374 0.509751 0.842467
O O11 0.911785 0.422084 0.774915
O O12 0.000000 0.433839 0.844156
O O13 0.808031 0.750000 0.874356
O O14 0.843808 0.750000 0.281587
O O15 0.750000 0.542127 0.250000
#
# Coordination Sequence:
#
# PCOD8298830 Si02
#       5
#    16  16  16  16  16
#     4   9  18  33  53  77 102 127 155 189 237 298
#     4  10  21  35  51  72  98 132 174 214 251 291
#     4  10  20  32  47  70  99 130 165 205 249 295
#     4  10  20  34  52  73 100 130 163 203 246 293
#     4  10  19  33  51  69  95 132 172 212 253 294
#
# _framework density 17.372688
#
# number of rings (size 3 to 8) (size 9 to 14) (size 15 to 20)
#    0.000    2.200    2.000    1.200    0.000    4.400 
#    0.000    2.000    0.000    0.600    0.000    0.000 
#    0.000    0.000    0.000    0.000    0.000    0.000 
#
# Total GULP energy -495854.578136 kJ/mol
# GULP energy per Si atom -12396.364453 kJ/mol
# Density = 1.733315 g / cm^3
# Si number density = 17.372688 Si / 1000 Ang^3
#
#
#
# Elastic Constant Matrix: (Units=GPa)
#
#
# Indices 1 2 3 4 5 6 
#
# 1 133.4706 44.3779 59.4445 0.0000 0.0000 0.0000
# 2 44.3779 53.4228 39.8187 0.0000 0.0000 0.0000
# 3 59.4445 39.8187 86.7216 0.0000 0.0000 0.0000
# 4 0.0000 0.0000 0.0000 27.1068 0.0000 0.0000
# 5 0.0000 0.0000 0.0000 0.0000 25.4082 0.0000
# 6 0.0000 0.0000 0.0000 0.0000 0.0000 11.6770
#
#
#
# Elastic Compliance Matrix: (Units=1/GPa)
#
#
# Indices 1 2 3 4 5 6 
#
# 1 0.011846 -0.005759 -0.005476 0.000000 0.000000 0.000000
# 2 -0.005759 0.031258 -0.010405 0.000000 0.000000 0.000000
# 3 -0.005476 -0.010405 0.020062 0.000000 0.000000 0.000000
# 4 0.000000 0.000000 0.000000 0.036891 0.000000 0.000000
# 5 0.000000 0.000000 0.000000 0.000000 0.039357 0.000000
# 6 0.000000 0.000000 0.000000 0.000000 0.000000 0.085638
#
#
# Mechanical properties :
#
#
# Convention : Reuss Voigt Hill
#
# Bulk Modulus (GPa) = 50.28426 62.32193 56.30309
# Shear Modulus (GPa) = 18.18451 21.50331 19.84391
#
# Velocity S-wave (km/s) = 3.23883 3.52201 3.38338
# Velocity P-wave (km/s) = 6.55698 7.24505 6.90958
#
# Compressibility (1/GPa) = 0.01988694
#
# Stress axis : x y z
#
# Youngs Moduli (GPa) = 84.41814 31.99225 49.84603
#
# Poissons Ratio (x) = 0.18424 0.27294
# Poissons Ratio (y) = 0.48616 0.51862
# Poissons Ratio (z) = 0.46224 0.33286
#
# Static dielectric constant tensor:
#      x y z
#    x 3.563560 0.000000 0.000000 
#    y 0.000000 3.227450 0.000000 
#    z 0.000000 0.000000 2.995260 
# 
# 
# High freq. dielectric constant tensor:
#      x y z
#    x 1.680750 0.000000 0.000000 
#    y 0.000000 1.671610 0.000000 
#    z 0.000000 0.000000 1.637920 
# 
# From -- ./inp_files/59724.got.cif
#   From: 2010.03.12/outbox.cif.g09.slc.cpg/sg74_30_cif.got.tgz:59724.got - 2010.04.16 15:46:19.
