data_PCOD8298499
_publ_section_title
;
Structure prediction by ZEFSAII (Michael W. Deem and Ramdas Pophale) SiO2 
 PCOD8298499
Probable space group: I M M A
;
_chemical_formula_sum "Si O2"
_cell_formula_units_Z 80
_cell_length_a 14.108168
_cell_length_b 19.073656
_cell_length_c 16.382596
_cell_angle_alpha 90.000000
_cell_angle_beta 90.000000
_cell_angle_gamma 90.000000
_cell_volume 4408.463911
_symmetry_space_group_name_H-M "I M M A"
_symmetry_group_IT_number 74
_symmetry_cell_setting 'orthorhombic'
loop_
_space_group_symop_operation_xyz
x,y,z
-x,1/2-y,z
x,-y,-z
-x,1/2+y,-z
-x,-y,-z
x,1/2+y,-z
-x,y,z
x,1/2-y,z
1/2+x,1/2+y,1/2+z
1/2-x,-y,1/2+z
1/2+x,1/2-y,1/2-z
1/2-x,y,1/2-z
1/2-x,1/2-y,1/2-z
1/2+x,y,1/2-z
1/2-x,1/2+y,1/2+z
1/2+x,-y,1/2+z
loop_
_atom_site_type_symbol
_atom_site_label
_atom_site_fract_x
_atom_site_fract_y
_atom_site_fract_z
Si Si1 0.896719 0.884433 0.372885
Si Si2 0.103802 0.250000 0.912001
Si Si3 0.208857 0.892594 0.041360
Si Si4 0.359626 0.750000 0.231418
Si Si5 0.107258 0.971580 0.706915
Si Si6 0.798563 0.462268 0.125144
O O1 0.822248 0.885299 0.447365
O O2 0.888890 0.815420 0.321036
O O3 0.000000 0.890076 0.414922
O O4 0.884351 0.945066 0.305148
O O5 0.159723 0.179988 0.935903
O O6 0.084927 0.250000 0.815903
O O7 0.000000 0.250000 0.954339
O O8 0.181049 0.957116 0.100165
O O9 0.178204 0.910323 0.949183
O O10 0.250000 0.750000 0.250000
O O11 0.131345 0.948575 0.799345
O O12 0.189325 0.942426 0.647275
O O13 0.000000 0.944848 0.685805
#
# Coordination Sequence:
#
# PCOD8298499 Si02
#       6
#    16   8  16   8  16  16
#     4  10  19  31  50  75 102 134 170 207 246 294
#     4  12  24  35  50  74 106 141 171 201 244 300
#     4  10  20  35  50  75 106 136 167 208 251 303
#     4  12  20  31  49  70 103 141 171 195 233 295
#     4   9  18  32  52  76  99 128 171 214 253 300
#     4   9  19  33  54  75 102 134 167 208 259 297
#
# _framework density 18.146909999999998
#
# number of rings (size 3 to 8) (size 9 to 14) (size 15 to 20)
#    0.000    2.000    2.000    2.100    2.800    4.000 
#    0.000    6.000    0.000    2.400    0.000    1.400 
#    0.000    0.000    0.000    0.000    0.000    0.000 
#
# Total GULP energy -495593.519151 kJ/mol
# GULP energy per Si atom -12389.837979 kJ/mol
# Density = 1.810561 g / cm^3
# Si number density = 18.146910 Si / 1000 Ang^3
#
#
#
# Elastic Constant Matrix: (Units=GPa)
#
#
# Indices 1 2 3 4 5 6 
#
# 1 103.3654 12.4670 8.0249 0.0000 0.0000 0.0000
# 2 12.4670 58.2639 20.7419 0.0001 0.0000 0.0001
# 3 8.0249 20.7419 66.1285 0.0004 0.0001 0.0004
# 4 0.0000 0.0001 0.0004 10.4035 0.0000 0.0002
# 5 0.0000 0.0000 0.0001 0.0000 16.3279 0.0000
# 6 0.0000 0.0001 0.0004 0.0002 0.0000 -119.7239
#
#
#
# Elastic Compliance Matrix: (Units=1/GPa)
#
#
# Indices 1 2 3 4 5 6 
#
# 1 0.009952 -0.001913 -0.000608 0.000000 0.000000 0.000000
# 2 -0.001913 0.019688 -0.005943 0.000000 0.000000 0.000000
# 3 -0.000608 -0.005943 0.017060 -0.000001 0.000000 0.000000
# 4 0.000000 0.000000 -0.000001 0.096121 0.000000 0.000000
# 5 0.000000 0.000000 0.000000 0.000000 0.061245 0.000000
# 6 0.000000 0.000000 0.000000 0.000000 0.000000 -0.008353
#
#
# Mechanical properties :
#
#
# Convention : Reuss Voigt Hill
#
# Bulk Modulus (GPa) = 33.58812 34.46950 34.02881
# Shear Modulus (GPa) = 22.46516 -6.16356 8.15080
#
# Velocity S-wave (km/s) = 3.52228 -1.84495 2.12163
# Velocity P-wave (km/s) = 5.92378 3.80755 4.97939
#
# Compressibility (1/GPa) = 0.02977244
#
# Stress axis : x y z
#
# Youngs Moduli (GPa) = 100.47880 50.79116 58.61664
#
# Poissons Ratio (x) = 0.09718 0.03562
# Poissons Ratio (y) = 0.19224 0.34838
# Poissons Ratio (z) = 0.06106 0.30187
#
# Static dielectric constant tensor:
#      x y z
#    x 3.535400 0.000000 0.000000 
#    y 0.000000 3.119470 0.000000 
#    z 0.000000 0.000000 3.056740 
# 
# 
# High freq. dielectric constant tensor:
#      x y z
#    x 1.717700 0.000000 0.000000 
#    y 0.000000 1.674610 0.000000 
#    z 0.000000 0.000000 1.687650 
# 
# From -- ./inp_files/42734.got.cif
#   From: 2010.03.12/outbox.cif.g09.slc.cpg/sg74_22_cif.got.tgz:42734.got - 2010.04.16 15:46:19.
