data_PCOD8298961
_publ_section_title
;
Structure prediction by ZEFSAII (Michael W. Deem and Ramdas Pophale) SiO2 
 PCOD8298961
Probable space group: I M M A
;
_chemical_formula_sum "Si O2"
_cell_formula_units_Z 56
_cell_length_a 7.968503
_cell_length_b 9.523150
_cell_length_c 39.069338
_cell_angle_alpha 90.000000
_cell_angle_beta 90.000000
_cell_angle_gamma 90.000000
_cell_volume 2964.786456
_symmetry_space_group_name_H-M "I M M A"
_symmetry_group_IT_number 74
_symmetry_cell_setting 'orthorhombic'
loop_
_space_group_symop_operation_xyz
x,y,z
-x,1/2-y,z
x,-y,-z
-x,1/2+y,-z
-x,-y,-z
x,1/2+y,-z
-x,y,z
x,1/2-y,z
1/2+x,1/2+y,1/2+z
1/2-x,-y,1/2+z
1/2+x,1/2-y,1/2-z
1/2-x,y,1/2-z
1/2-x,1/2-y,1/2-z
1/2+x,y,1/2-z
1/2-x,1/2+y,1/2+z
1/2+x,-y,1/2+z
loop_
_atom_site_type_symbol
_atom_site_label
_atom_site_fract_x
_atom_site_fract_y
_atom_site_fract_z
Si Si1 0.692158 0.406722 0.348835
Si Si2 0.000000 0.581922 0.964806
Si Si3 0.696205 0.089073 0.786986
Si Si4 0.314384 0.916379 0.920210
O O1 0.500000 0.399854 0.360198
O O2 0.758461 0.250000 0.339996
O O3 0.709401 0.502691 0.315805
O O4 0.790773 0.472194 0.381332
O O5 0.832716 0.528856 0.945015
O O6 0.000000 0.750000 0.970477
O O7 0.000000 0.500000 0.000000
O O8 0.500000 0.071233 0.792297
O O9 0.754459 0.250000 0.790155
O O10 0.750000 0.029574 0.750000
O O11 0.500000 0.964108 0.933325
O O12 0.300173 0.750000 0.918678
#
# Coordination Sequence:
#
# PCOD8298961 Si02
#       4
#    16   8  16  16
#     4  10  19  33  55  81 105 133 176 226 270 317
#     4  10  20  36  56  80 110 142 178 216 264 322
#     4  10  21  36  52  72 102 141 181 219 268 327
#     4   9  17  32  55  80 107 140 176 217 266 318
#
# _framework density 18.888375
#
# number of rings (size 3 to 8) (size 9 to 14) (size 15 to 20)
#    0.000    2.286    1.429    1.714    0.000    4.571 
#    0.000    1.429    0.000    1.714    0.000    0.000 
#    0.000    0.000    0.000    0.000    0.000    0.000 
#
# Total GULP energy -347138.262568 kJ/mol
# GULP energy per Si atom -12397.795092 kJ/mol
# Density = 1.884538 g / cm^3
# Si number density = 18.888375 Si / 1000 Ang^3
#
#
#
# Elastic Constant Matrix: (Units=GPa)
#
#
# Indices 1 2 3 4 5 6 
#
# 1 121.4657 22.6858 60.7242 0.0000 0.0000 0.0000
# 2 22.6858 39.9858 40.9337 0.0000 0.0000 0.0000
# 3 60.7242 40.9337 145.7443 0.0000 0.0000 0.0000
# 4 0.0000 0.0000 0.0000 29.5704 0.0000 0.0000
# 5 0.0000 0.0000 0.0000 0.0000 30.7311 0.0000
# 6 0.0000 0.0000 0.0000 0.0000 0.0000 17.8971
#
#
#
# Elastic Compliance Matrix: (Units=1/GPa)
#
#
# Indices 1 2 3 4 5 6 
#
# 1 0.010521 -0.002079 -0.003799 0.000000 0.000000 0.000000
# 2 -0.002079 0.035512 -0.009108 0.000000 0.000000 0.000000
# 3 -0.003799 -0.009108 0.011002 0.000000 0.000000 0.000000
# 4 0.000000 0.000000 0.000000 0.033818 0.000000 0.000000
# 5 0.000000 0.000000 0.000000 0.000000 0.032540 0.000000
# 6 0.000000 0.000000 0.000000 0.000000 0.000000 0.055875
#
#
# Mechanical properties :
#
#
# Convention : Reuss Voigt Hill
#
# Bulk Modulus (GPa) = 36.95171 61.76481 49.35826
# Shear Modulus (GPa) = 22.90832 27.82984 25.36908
#
# Velocity S-wave (km/s) = 3.48634 3.84263 3.66882
# Velocity P-wave (km/s) = 5.98430 7.24284 6.64344
#
# Compressibility (1/GPa) = 0.02706235
#
# Stress axis : x y z
#
# Youngs Moduli (GPa) = 95.05206 28.15941 90.89025
#
# Poissons Ratio (x) = 0.05855 0.34533
# Poissons Ratio (y) = 0.19765 0.82779
# Poissons Ratio (z) = 0.36114 0.25646
#
# Static dielectric constant tensor:
#      x y z
#    x 3.693180 0.000000 0.000000 
#    y 0.000000 3.092520 0.000000 
#    z 0.000000 0.000000 3.411590 
# 
# 
# High freq. dielectric constant tensor:
#      x y z
#    x 1.752350 0.000000 0.000000 
#    y 0.000000 1.689400 0.000000 
#    z 0.000000 0.000000 1.735620 
# 
# From -- ./inp_files/63248.got.cif
#   From: 2010.03.12/outbox.cif.g09.slc.cpg/sg74_32_cif.got.tgz:63248.got - 2010.04.16 15:46:19.
