data_PCOD8298399
_publ_section_title
;
Structure prediction by ZEFSAII (Michael W. Deem and Ramdas Pophale) SiO2 
 PCOD8298399
Probable space group: I M M A
;
_chemical_formula_sum "Si O2"
_cell_formula_units_Z 96
_cell_length_a 9.737003
_cell_length_b 20.856816
_cell_length_c 30.136222
_cell_angle_alpha 90.000000
_cell_angle_beta 90.000000
_cell_angle_gamma 90.000000
_cell_volume 6120.150755
_symmetry_space_group_name_H-M "I M M A"
_symmetry_group_IT_number 74
_symmetry_cell_setting 'orthorhombic'
loop_
_space_group_symop_operation_xyz
x,y,z
-x,1/2-y,z
x,-y,-z
-x,1/2+y,-z
-x,-y,-z
x,1/2+y,-z
-x,y,z
x,1/2-y,z
1/2+x,1/2+y,1/2+z
1/2-x,-y,1/2+z
1/2+x,1/2-y,1/2-z
1/2-x,y,1/2-z
1/2-x,1/2-y,1/2-z
1/2+x,y,1/2-z
1/2-x,1/2+y,1/2+z
1/2+x,-y,1/2+z
loop_
_atom_site_type_symbol
_atom_site_label
_atom_site_fract_x
_atom_site_fract_y
_atom_site_fract_z
Si Si1 0.345433 0.992909 0.111546
Si Si2 0.662386 0.318937 0.817636
Si Si3 0.844239 0.320598 0.994400
Si Si4 0.160323 0.048721 0.039220
Si Si5 0.338398 0.455045 0.789649
Si Si6 0.344429 0.848023 0.086342
O O1 0.500000 0.020300 0.107295
O O2 0.240790 0.037810 0.085079
O O3 0.304990 0.989439 0.163641
O O4 0.337332 0.924338 0.088420
O O5 0.500000 0.327065 0.820195
O O6 0.705198 0.250000 0.795805
O O7 0.716243 0.380956 0.791383
O O8 0.715825 0.319342 0.868088
O O9 0.830267 0.250000 0.017396
O O10 0.749032 0.320463 0.951872
O O11 0.000000 0.332563 0.978390
O O12 0.802419 0.377915 0.027269
O O13 0.000000 0.038722 0.048918
O O14 0.207490 0.000000 0.000000
O O15 0.500000 0.459746 0.778819
O O16 0.250000 0.487701 0.750000
O O17 0.500000 0.825177 0.077558
#
# Coordination Sequence:
#
# PCOD8298399 Si02
#       6
#    16  16  16  16  16  16
#     4   9  18  31  47  67  89 115 150 191 228 263
#     4   8  14  25  40  57  80 111 146 184 223 261
#     4  10  20  31  42  61  92 122 147 184 228 262
#     4  10  19  31  47  67  90 120 156 186 218 268
#     4   9  18  31  45  63  85 110 143 184 229 270
#     4   9  16  27  44  63  83 113 154 191 222 259
#
# _framework density 15.685886999999999
#
# number of rings (size 3 to 8) (size 9 to 14) (size 15 to 20)
#    0.000    2.833    1.667    2.500    0.000    3.000 
#    0.000    2.500    0.000    1.000    0.000    0.000 
#    0.000    0.667    0.000    1.500    0.000    2.333 
#
# Total GULP energy -594749.647288 kJ/mol
# GULP energy per Si atom -12390.617652 kJ/mol
# Density = 1.565019 g / cm^3
# Si number density = 15.685887 Si / 1000 Ang^3
#
#
#
# Elastic Constant Matrix: (Units=GPa)
#
#
# Indices 1 2 3 4 5 6 
#
# 1 53.7975 28.0242 50.8325 0.0000 0.0000 0.0000
# 2 28.0242 70.9415 40.2836 0.0000 0.0000 0.0000
# 3 50.8325 40.2836 97.4021 0.0000 0.0000 0.0000
# 4 0.0000 0.0000 0.0000 6.1446 0.0000 0.0000
# 5 0.0000 0.0000 0.0000 0.0000 29.3293 0.0000
# 6 0.0000 0.0000 0.0000 0.0000 0.0000 10.9465
#
#
#
# Elastic Compliance Matrix: (Units=1/GPa)
#
#
# Indices 1 2 3 4 5 6 
#
# 1 0.037928 -0.004892 -0.017771 0.000000 0.000000 0.000000
# 2 -0.004892 0.019054 -0.005327 0.000000 0.000000 0.000000
# 3 -0.017771 -0.005327 0.021744 0.000000 0.000000 0.000000
# 4 0.000000 0.000000 0.000000 0.162744 0.000000 0.000000
# 5 0.000000 0.000000 0.000000 0.000000 0.034096 0.000000
# 6 0.000000 0.000000 0.000000 0.000000 0.000000 0.091354
#
#
# Mechanical properties :
#
#
# Convention : Reuss Voigt Hill
#
# Bulk Modulus (GPa) = 43.96363 51.15795 47.56079
# Shear Modulus (GPa) = 11.61494 16.15080 13.88287
#
# Velocity S-wave (km/s) = 2.72411 3.21228 2.97821
# Velocity P-wave (km/s) = 6.16301 6.81492 6.49715
#
# Compressibility (1/GPa) = 0.02274608
#
# Stress axis : x y z
#
# Youngs Moduli (GPa) = 26.36600 52.48364 45.98931
#
# Poissons Ratio (x) = 0.25673 0.81726
# Poissons Ratio (y) = 0.12897 0.24500
# Poissons Ratio (z) = 0.46854 0.27960
#
# Static dielectric constant tensor:
#      x y z
#    x 2.880470 0.000000 0.000000 
#    y 0.000000 2.943810 0.000000 
#    z 0.000000 0.000000 2.816190 
# 
# 
# High freq. dielectric constant tensor:
#      x y z
#    x 1.592230 0.000000 0.000000 
#    y 0.000000 1.578650 0.000000 
#    z 0.000000 0.000000 1.583680 
# 
# From -- ./inp_files/64657.got.cif
#   From: 2010.03.12/outbox.cif.g09.slc.cpg/sg74_33_cif.got.tgz:64657.got - 2010.04.16 15:46:19.
