data_PCOD8298318
_publ_section_title
;
Structure prediction by ZEFSAII (Michael W. Deem and Ramdas Pophale) SiO2 
 PCOD8298318
Probable space group: I M M A
;
_chemical_formula_sum "Si O2"
_cell_formula_units_Z 104
_cell_length_a 28.037715
_cell_length_b 8.889948
_cell_length_c 24.209752
_cell_angle_alpha 90.000000
_cell_angle_beta 90.000000
_cell_angle_gamma 90.000000
_cell_volume 6034.373370
_symmetry_space_group_name_H-M "I M M A"
_symmetry_group_IT_number 74
_symmetry_cell_setting 'orthorhombic'
loop_
_space_group_symop_operation_xyz
x,y,z
-x,1/2-y,z
x,-y,-z
-x,1/2+y,-z
-x,-y,-z
x,1/2+y,-z
-x,y,z
x,1/2-y,z
1/2+x,1/2+y,1/2+z
1/2-x,-y,1/2+z
1/2+x,1/2-y,1/2-z
1/2-x,y,1/2-z
1/2-x,1/2-y,1/2-z
1/2+x,y,1/2-z
1/2-x,1/2+y,1/2+z
1/2+x,-y,1/2+z
loop_
_atom_site_type_symbol
_atom_site_label
_atom_site_fract_x
_atom_site_fract_y
_atom_site_fract_z
Si Si1 0.590062 0.073248 0.870289
Si Si2 0.055767 0.424206 0.849928
Si Si3 0.000000 0.427081 0.559229
Si Si4 0.445218 0.426882 0.236375
Si Si5 0.774480 0.075172 0.059121
Si Si6 0.818018 0.572476 0.439920
Si Si7 0.879772 0.925388 0.940350
O O1 0.586636 0.250000 0.858766
O O2 0.546505 0.017577 0.908123
O O3 0.638628 0.026977 0.900427
O O4 0.588204 0.987696 0.812229
O O5 0.069193 0.250000 0.847806
O O6 0.072734 0.499116 0.793013
O O7 0.082226 0.500913 0.900456
O O8 0.000000 0.450955 0.859429
O O9 0.000000 0.500000 0.500000
O O10 0.000000 0.250000 0.551280
O O11 0.500000 0.473194 0.224345
O O12 0.439200 0.250000 0.241958
O O13 0.762000 0.250000 0.053557
O O14 0.826656 0.051033 0.086239
O O15 0.730275 0.991965 0.089595
O O16 0.777213 0.000000 0.000000
O O17 0.826203 0.500000 0.500000
O O18 0.814217 0.750000 0.447112
O O19 0.891046 0.750000 0.947180
O O20 0.884288 0.000000 0.000000
#
# Coordination Sequence:
#
# PCOD8298318 Si02
#       7
#    16  16   8  16  16  16  16
#     4  10  20  33  49  69  97 134 171 211 257 304
#     4  10  21  36  55  78 105 137 168 202 246 296
#     4  10  20  32  46  66  98 134 167 208 257 306
#     4  10  20  34  53  75  97 128 172 215 252 296
#     4   9  17  30  49  72  99 132 167 205 248 295
#     4  10  19  30  47  72 100 132 170 211 256 304
#     4  10  20  34  54  80 108 137 169 203 245 297
#
# _framework density 17.234597999999998
#
# number of rings (size 3 to 8) (size 9 to 14) (size 15 to 20)
#    0.000    2.154    0.769    3.692    0.000    5.538 
#    0.000    0.000    0.000    0.923    0.000    6.462 
#    0.000    0.000    0.000    0.000    0.000    0.000 
#
# Total GULP energy -644716.850642 kJ/mol
# GULP energy per Si atom -12398.400974 kJ/mol
# Density = 1.719537 g / cm^3
# Si number density = 17.234598 Si / 1000 Ang^3
#
#
#
# Elastic Constant Matrix: (Units=GPa)
#
#
# Indices 1 2 3 4 5 6 
#
# 1 93.8707 53.7775 61.4610 0.0000 0.0000 0.0000
# 2 53.7775 96.0885 55.7403 0.0000 0.0000 0.0000
# 3 61.4610 55.7403 112.7623 0.0000 0.0000 0.0000
# 4 0.0000 0.0000 0.0000 32.9009 0.0000 0.0000
# 5 0.0000 0.0000 0.0000 0.0000 10.1935 0.0000
# 6 0.0000 0.0000 0.0000 0.0000 0.0000 29.7522
#
#
#
# Elastic Compliance Matrix: (Units=1/GPa)
#
#
# Indices 1 2 3 4 5 6 
#
# 1 0.019090 -0.006517 -0.007183 0.000000 0.000000 0.000000
# 2 -0.006517 0.016816 -0.004760 0.000000 0.000000 0.000000
# 3 -0.007183 -0.004760 0.015137 0.000000 0.000000 0.000000
# 4 0.000000 0.000000 0.000000 0.030394 0.000000 0.000000
# 5 0.000000 0.000000 0.000000 0.000000 0.098102 0.000000
# 6 0.000000 0.000000 0.000000 0.000000 0.000000 0.033611
#
#
# Mechanical properties :
#
#
# Convention : Reuss Voigt Hill
#
# Bulk Modulus (GPa) = 70.81690 71.63103 71.22397
# Shear Modulus (GPa) = 19.62499 23.35216 21.48857
#
# Velocity S-wave (km/s) = 3.37812 3.68497 3.53488
# Velocity P-wave (km/s) = 7.50964 7.73032 7.62078
#
# Compressibility (1/GPa) = 0.01412092
#
# Stress axis : x y z
#
# Youngs Moduli (GPa) = 52.38448 59.46817 66.06482
#
# Poissons Ratio (x) = 0.38754 0.47457
# Poissons Ratio (y) = 0.34138 0.31449
# Poissons Ratio (z) = 0.37630 0.28309
#
# Static dielectric constant tensor:
#      x y z
#    x 3.695240 0.000000 0.000000 
#    y 0.000000 3.317450 0.000000 
#    z 0.000000 0.000000 2.994580 
# 
# 
# High freq. dielectric constant tensor:
#      x y z
#    x 1.668010 0.000000 0.000000 
#    y 0.000000 1.680900 0.000000 
#    z 0.000000 0.000000 1.640890 
# 
# From -- ./inp_files/55652.got.cif
#   From: 2010.03.12/outbox.cif.g09.slc.cpg/sg74_28_cif.got.tgz:55652.got - 2010.04.16 15:46:19.
