data_PCOD8298265
_publ_section_title
;
Structure prediction by ZEFSAII (Michael W. Deem and Ramdas Pophale) SiO2 
 PCOD8298265
Probable space group: I M M A
;
_chemical_formula_sum "Si O2"
_cell_formula_units_Z 80
_cell_length_a 25.115936
_cell_length_b 10.404255
_cell_length_c 19.539875
_cell_angle_alpha 90.000000
_cell_angle_beta 90.000000
_cell_angle_gamma 90.000000
_cell_volume 5106.015593
_symmetry_space_group_name_H-M "I M M A"
_symmetry_group_IT_number 74
_symmetry_cell_setting 'orthorhombic'
loop_
_space_group_symop_operation_xyz
x,y,z
-x,1/2-y,z
x,-y,-z
-x,1/2+y,-z
-x,-y,-z
x,1/2+y,-z
-x,y,z
x,1/2-y,z
1/2+x,1/2+y,1/2+z
1/2-x,-y,1/2+z
1/2+x,1/2-y,1/2-z
1/2-x,y,1/2-z
1/2-x,1/2-y,1/2-z
1/2+x,y,1/2-z
1/2-x,1/2+y,1/2+z
1/2+x,-y,1/2+z
loop_
_atom_site_type_symbol
_atom_site_label
_atom_site_fract_x
_atom_site_fract_y
_atom_site_fract_z
Si Si1 0.440471 0.013443 0.785347
Si Si2 0.940998 0.250000 0.362565
Si Si3 0.243225 0.901793 0.360766
Si Si4 0.206670 0.000000 0.500000
Si Si5 0.165529 0.401148 0.759664
Si Si6 0.940822 0.250000 0.614153
Si Si7 0.363329 0.250000 0.011833
O O1 0.500000 0.026839 0.752394
O O2 0.392494 0.032531 0.731097
O O3 0.432259 0.121879 0.842376
O O4 0.432566 0.873870 0.816259
O O5 0.900254 0.250000 0.423212
O O6 0.000000 0.250000 0.394630
O O7 0.241440 0.750000 0.374859
O O8 0.242390 0.976850 0.432614
O O9 0.193525 0.941155 0.312150
O O10 0.297774 0.943038 0.323245
O O11 0.171433 0.876561 0.514219
O O12 0.157653 0.250000 0.760524
O O13 0.897224 0.250000 0.556400
O O14 0.000000 0.250000 0.582025
#
# Coordination Sequence:
#
# PCOD8298265 Si02
#       7
#    16   8  16   8  16   8   8
#     4  10  19  31  48  70  94 121 156 201 240 279
#     4  10  21  32  41  62  99 134 158 185 234 282
#     4   9  18  32  48  71  93 126 159 198 241 285
#     4  12  22  32  47  70  97 122 168 200 238 282
#     4   9  16  30  53  70  92 120 163 202 239 278
#     4  10  19  30  45  66  91 122 168 205 226 260
#     4  12  21  30  46  62  92 134 165 196 224 274
#
# _framework density 15.667795
#
# number of rings (size 3 to 8) (size 9 to 14) (size 15 to 20)
#    0.000    2.000    2.000    5.100    0.000    0.000 
#    0.000    5.000    0.000    3.600    0.000    0.700 
#    0.000    0.000    0.000    0.000    0.000    0.000 
#
# Total GULP energy -495833.433151 kJ/mol
# GULP energy per Si atom -12395.835829 kJ/mol
# Density = 1.563213 g / cm^3
# Si number density = 15.667795 Si / 1000 Ang^3
#
#
#
# Elastic Constant Matrix: (Units=GPa)
#
#
# Indices 1 2 3 4 5 6 
#
# 1 137.0064 45.1191 61.7987 0.0000 0.0000 0.0000
# 2 45.1191 91.5970 34.9065 0.0000 0.0000 0.0000
# 3 61.7987 34.9065 88.7543 0.0000 0.0000 0.0000
# 4 0.0000 0.0000 0.0000 12.2477 0.0000 0.0000
# 5 0.0000 0.0000 0.0000 0.0000 33.0837 0.0000
# 6 0.0000 0.0000 0.0000 0.0000 0.0000 10.9320
#
#
#
# Elastic Compliance Matrix: (Units=1/GPa)
#
#
# Indices 1 2 3 4 5 6 
#
# 1 0.011311 -0.003023 -0.006686 0.000000 0.000000 0.000000
# 2 -0.003023 0.013650 -0.003263 0.000000 0.000000 0.000000
# 3 -0.006686 -0.003263 0.017206 0.000000 0.000000 0.000000
# 4 0.000000 0.000000 0.000000 0.081648 0.000000 0.000000
# 5 0.000000 0.000000 0.000000 0.000000 0.030226 0.000000
# 6 0.000000 0.000000 0.000000 0.000000 0.000000 0.091475
#
#
# Mechanical properties :
#
#
# Convention : Reuss Voigt Hill
#
# Bulk Modulus (GPa) = 61.64941 66.77848 64.21395
# Shear Modulus (GPa) = 18.05903 22.95490 20.50697
#
# Velocity S-wave (km/s) = 3.39871 3.83182 3.62174
# Velocity P-wave (km/s) = 7.40506 7.89247 7.65265
#
# Compressibility (1/GPa) = 0.01622075
#
# Stress axis : x y z
#
# Youngs Moduli (GPa) = 88.41312 73.25854 58.11854
#
# Poissons Ratio (x) = 0.22148 0.38860
# Poissons Ratio (y) = 0.26730 0.18967
# Poissons Ratio (z) = 0.59116 0.23908
#
# Static dielectric constant tensor:
#      x y z
#    x 3.317590 0.000000 0.000000 
#    y 0.000000 2.969610 0.000000 
#    z 0.000000 0.000000 2.806450 
# 
# 
# High freq. dielectric constant tensor:
#      x y z
#    x 1.608690 0.000000 0.000000 
#    y 0.000000 1.603770 0.000000 
#    z 0.000000 0.000000 1.563760 
# 
# From -- ./inp_files/45946.got.cif
#   From: 2010.03.12/outbox.cif.g09.slc.cpg/sg74_23_cif.got.tgz:45946.got - 2010.04.16 15:46:19.
