data_PCOD8298143
_publ_section_title
;
Structure prediction by ZEFSAII (Michael W. Deem and Ramdas Pophale) SiO2 
 PCOD8298143
Probable space group: I M M A
;
_chemical_formula_sum "Si O2"
_cell_formula_units_Z 88
_cell_length_a 12.602180
_cell_length_b 13.865153
_cell_length_c 33.583334
_cell_angle_alpha 90.000000
_cell_angle_beta 90.000000
_cell_angle_gamma 90.000000
_cell_volume 5868.054699
_symmetry_space_group_name_H-M "I M M A"
_symmetry_group_IT_number 74
_symmetry_cell_setting 'orthorhombic'
loop_
_space_group_symop_operation_xyz
x,y,z
-x,1/2-y,z
x,-y,-z
-x,1/2+y,-z
-x,-y,-z
x,1/2+y,-z
-x,y,z
x,1/2-y,z
1/2+x,1/2+y,1/2+z
1/2-x,-y,1/2+z
1/2+x,1/2-y,1/2-z
1/2-x,y,1/2-z
1/2-x,1/2-y,1/2-z
1/2+x,y,1/2-z
1/2-x,1/2+y,1/2+z
1/2+x,-y,1/2+z
loop_
_atom_site_type_symbol
_atom_site_label
_atom_site_fract_x
_atom_site_fract_y
_atom_site_fract_z
Si Si1 0.500000 0.362270 0.830550
Si Si2 0.000000 0.361609 0.459824
Si Si3 0.838208 0.362989 0.527305
Si Si4 0.118464 0.363560 0.857555
Si Si5 0.721436 0.863617 0.206972
Si Si6 0.615656 0.864544 0.446526
Si Si7 0.500000 0.545437 0.084791
O O1 0.500000 0.250000 0.843857
O O2 0.399375 0.387961 0.803556
O O3 0.500000 0.430084 0.868989
O O4 0.104236 0.388832 0.485894
O O5 0.000000 0.428932 0.420945
O O6 0.000000 0.250000 0.446683
O O7 0.847893 0.250000 0.535395
O O8 0.714457 0.396708 0.525506
O O9 0.894667 0.412427 0.564627
O O10 0.136778 0.250000 0.859257
O O11 0.201879 0.410241 0.826643
O O12 0.136259 0.405435 0.901979
O O13 0.000000 0.388235 0.842574
O O14 0.741448 0.750000 0.208482
O O15 0.750000 0.908904 0.250000
O O16 0.500000 0.902449 0.462319
O O17 0.610516 0.750000 0.444535
#
# Coordination Sequence:
#
# PCOD8298143 Si02
#       7
#     8   8  16  16  16  16   8
#     4  10  19  28  39  60  83 106 136 160 185 223
#     4   9  19  31  42  58  76 102 134 170 214 256
#     4   9  15  24  40  61  85 109 135 165 201 241
#     4   8  13  20  30  43  63  96 135 165 185 206
#     4   9  17  25  34  49  75 106 133 158 181 214
#     4   8  13  21  34  54  79 107 138 167 189 220
#     4  11  18  27  43  58  80 106 136 172 206 239
#
# _framework density 14.996451
#
# number of rings (size 3 to 8) (size 9 to 14) (size 15 to 20)
#    0.000    3.091    0.000    4.636    1.273    2.909 
#    0.000    0.000    0.000    2.182    0.000    0.000 
#    0.000    0.727    0.000    0.000    0.000    0.000 
#
# Total GULP energy -545210.784878 kJ/mol
# GULP energy per Si atom -12391.154202 kJ/mol
# Density = 1.496232 g / cm^3
# Si number density = 14.996451 Si / 1000 Ang^3
#
#
#
# Elastic Constant Matrix: (Units=GPa)
#
#
# Indices 1 2 3 4 5 6 
#
# 1 131.0757 19.7667 42.9200 0.0000 0.0000 0.0000
# 2 19.7667 25.3736 28.3791 0.0000 0.0000 0.0000
# 3 42.9200 28.3791 71.2410 0.0000 0.0000 0.0000
# 4 0.0000 0.0000 0.0000 11.9188 0.0000 0.0000
# 5 0.0000 0.0000 0.0000 0.0000 12.5417 0.0000
# 6 0.0000 0.0000 0.0000 0.0000 0.0000 0.8887
#
#
#
# Elastic Compliance Matrix: (Units=1/GPa)
#
#
# Indices 1 2 3 4 5 6 
#
# 1 0.009550 -0.001812 -0.005032 0.000000 0.000000 0.000000
# 2 -0.001812 0.071424 -0.027360 0.000000 0.000000 0.000000
# 3 -0.005032 -0.027360 0.027967 0.000000 0.000000 0.000000
# 4 0.000000 0.000000 0.000000 0.083901 0.000000 0.000000
# 5 0.000000 0.000000 0.000000 0.000000 0.079734 0.000000
# 6 0.000000 0.000000 0.000000 0.000000 0.000000 1.125259
#
#
# Mechanical properties :
#
#
# Convention : Reuss Voigt Hill
#
# Bulk Modulus (GPa) = 24.67116 45.53577 35.10347
# Shear Modulus (GPa) = 3.37894 14.17812 8.77853
#
# Velocity S-wave (km/s) = 1.50268 3.07812 2.42207
# Velocity P-wave (km/s) = 4.41563 6.56227 5.59291
#
# Compressibility (1/GPa) = 0.04053315
#
# Stress axis : x y z
#
# Youngs Moduli (GPa) = 104.71152 14.00096 35.75598
#
# Poissons Ratio (x) = 0.02537 0.17991
# Poissons Ratio (y) = 0.18974 0.97829
# Poissons Ratio (z) = 0.52688 0.38307
#
# Static dielectric constant tensor:
#      x y z
#    x 3.395770 0.000000 0.000000 
#    y 0.000000 2.330280 0.000000 
#    z 0.000000 0.000000 2.862360 
# 
# 
# High freq. dielectric constant tensor:
#      x y z
#    x 1.596720 0.000000 0.000000 
#    y 0.000000 1.496620 0.000000 
#    z 0.000000 0.000000 1.554610 
# 
# From -- ./inp_files/71775.got.cif
#   From: 2010.03.12/outbox.cif.g09.slc.cpg/sg74_36_cif.got.tgz:71775.got - 2010.04.16 15:46:19.
