data_PCOD8298406
_publ_section_title
;
Structure prediction by ZEFSAII (Michael W. Deem and Ramdas Pophale) SiO2 
 PCOD8298406
Probable space group: I M M A
;
_chemical_formula_sum "Si O2"
_cell_formula_units_Z 96
_cell_length_a 9.119641
_cell_length_b 22.540809
_cell_length_c 27.236211
_cell_angle_alpha 90.000000
_cell_angle_beta 90.000000
_cell_angle_gamma 90.000000
_cell_volume 5598.786818
_symmetry_space_group_name_H-M "I M M A"
_symmetry_group_IT_number 74
_symmetry_cell_setting 'orthorhombic'
loop_
_space_group_symop_operation_xyz
x,y,z
-x,1/2-y,z
x,-y,-z
-x,1/2+y,-z
-x,-y,-z
x,1/2+y,-z
-x,y,z
x,1/2-y,z
1/2+x,1/2+y,1/2+z
1/2-x,-y,1/2+z
1/2+x,1/2-y,1/2-z
1/2-x,y,1/2-z
1/2-x,1/2-y,1/2-z
1/2+x,y,1/2-z
1/2-x,1/2+y,1/2+z
1/2+x,-y,1/2+z
loop_
_atom_site_type_symbol
_atom_site_label
_atom_site_fract_x
_atom_site_fract_y
_atom_site_fract_z
Si Si1 0.325739 0.250000 0.623767
Si Si2 0.325538 0.008330 0.699365
Si Si3 0.332714 0.360483 0.032656
Si Si4 0.335774 0.568674 0.061100
Si Si5 0.831487 0.050457 0.387595
Si Si6 0.173656 0.750000 0.011623
Si Si7 0.172446 0.623787 0.145683
O O1 0.500000 0.250000 0.619491
O O2 0.263935 0.250000 0.567643
O O3 0.273010 0.308247 0.654556
O O4 0.500000 0.005262 0.704554
O O5 0.250000 0.990766 0.750000
O O6 0.268212 0.074831 0.684403
O O7 0.274018 0.960728 0.658769
O O8 0.500000 0.337230 0.032046
O O9 0.292726 0.386676 0.086596
O O10 0.314126 0.416029 0.995743
O O11 0.227132 0.307217 0.018237
O O12 0.500000 0.585277 0.078680
O O13 0.305293 0.499679 0.071039
O O14 0.222157 0.608476 0.091057
O O15 0.000000 0.050022 0.369417
O O16 0.000000 0.750000 0.011533
O O17 0.000000 0.620489 0.147046
#
# Coordination Sequence:
#
# PCOD8298406 Si02
#       7
#     8  16  16  16  16   8  16
#     4   9  16  29  46  64  92 131 172 205 237 276
#     4  10  20  34  53  73  95 122 158 206 257 305
#     4  10  19  31  47  70 101 133 165 199 238 286
#     4   9  16  27  45  69  97 128 161 197 239 285
#     4   9  18  32  50  72  98 127 159 199 247 295
#     4  11  21  31  47  68  99 141 175 204 234 275
#     4   9  17  30  47  67  92 128 168 204 245 287
#
# _framework density 17.146571999999999
#
# number of rings (size 3 to 8) (size 9 to 14) (size 15 to 20)
#    0.000    2.500    1.667    1.250    0.000    3.333 
#    0.000    0.833    0.000    5.000    0.000    0.583 
#    0.000    0.000    0.000    0.000    0.000    0.000 
#
# Total GULP energy -594818.507387 kJ/mol
# GULP energy per Si atom -12392.052237 kJ/mol
# Density = 1.710755 g / cm^3
# Si number density = 17.146572 Si / 1000 Ang^3
#
#
#
# Elastic Constant Matrix: (Units=GPa)
#
#
# Indices 1 2 3 4 5 6 
#
# 1 42.3616 23.2008 32.7321 0.0000 0.0000 0.0000
# 2 23.2008 51.4762 31.2662 0.0000 0.0000 0.0000
# 3 32.7321 31.2662 85.9189 0.0000 0.0000 0.0000
# 4 0.0000 0.0000 0.0000 13.9766 0.0000 0.0000
# 5 0.0000 0.0000 0.0000 0.0000 22.8974 0.0000
# 6 0.0000 0.0000 0.0000 0.0000 0.0000 23.8177
#
#
#
# Elastic Compliance Matrix: (Units=1/GPa)
#
#
# Indices 1 2 3 4 5 6 
#
# 1 0.037435 -0.010539 -0.010426 0.000000 0.000000 0.000000
# 2 -0.010539 0.027906 -0.006140 0.000000 0.000000 0.000000
# 3 -0.010426 -0.006140 0.017845 0.000000 0.000000 0.000000
# 4 0.000000 0.000000 0.000000 0.071548 0.000000 0.000000
# 5 0.000000 0.000000 0.000000 0.000000 0.043673 0.000000
# 6 0.000000 0.000000 0.000000 0.000000 0.000000 0.041986
#
#
# Mechanical properties :
#
#
# Convention : Reuss Voigt Hill
#
# Bulk Modulus (GPa) = 34.51241 39.35055 36.93148
# Shear Modulus (GPa) = 16.43324 18.30885 17.37104
#
# Velocity S-wave (km/s) = 3.09916 3.27124 3.18636
# Velocity P-wave (km/s) = 5.74264 6.10470 5.92644
#
# Compressibility (1/GPa) = 0.02897508
#
# Stress axis : x y z
#
# Youngs Moduli (GPa) = 26.71330 35.83454 56.03763
#
# Poissons Ratio (x) = 0.37768 0.58424
# Poissons Ratio (y) = 0.28154 0.34407
# Poissons Ratio (z) = 0.27851 0.22002
#
# Static dielectric constant tensor:
#      x y z
#    x 3.105670 0.000000 0.000000 
#    y 0.000000 3.355930 0.000000 
#    z 0.000000 0.000000 2.991580 
# 
# 
# High freq. dielectric constant tensor:
#      x y z
#    x 1.652730 0.000000 0.000000 
#    y 0.000000 1.650180 0.000000 
#    z 0.000000 0.000000 1.635240 
# 
# From -- ./inp_files/61932.got.cif
#   From: 2010.03.12/outbox.cif.g09.slc.cpg/sg74_31_cif.got.tgz:61932.got - 2010.04.16 15:46:19.
