data_PCOD8298755
_publ_section_title
;
Structure prediction by ZEFSAII (Michael W. Deem and Ramdas Pophale) SiO2 
 PCOD8298755
Probable space group: I M M A
;
_chemical_formula_sum "Si O2"
_cell_formula_units_Z 80
_cell_length_a 27.058791
_cell_length_b 8.671393
_cell_length_c 18.538974
_cell_angle_alpha 90.000000
_cell_angle_beta 90.000000
_cell_angle_gamma 90.000000
_cell_volume 4349.936859
_symmetry_space_group_name_H-M "I M M A"
_symmetry_group_IT_number 74
_symmetry_cell_setting 'orthorhombic'
loop_
_space_group_symop_operation_xyz
x,y,z
-x,1/2-y,z
x,-y,-z
-x,1/2+y,-z
-x,-y,-z
x,1/2+y,-z
-x,y,z
x,1/2-y,z
1/2+x,1/2+y,1/2+z
1/2-x,-y,1/2+z
1/2+x,1/2-y,1/2-z
1/2-x,y,1/2-z
1/2-x,1/2-y,1/2-z
1/2+x,y,1/2-z
1/2-x,1/2+y,1/2+z
1/2+x,-y,1/2+z
loop_
_atom_site_type_symbol
_atom_site_label
_atom_site_fract_x
_atom_site_fract_y
_atom_site_fract_z
Si Si1 0.557648 0.070928 0.424099
Si Si2 0.446040 0.431360 0.855056
Si Si3 0.801159 0.430844 0.285203
Si Si4 0.892646 0.569905 0.212205
Si Si5 0.153479 0.432773 0.576150
O O1 0.500000 0.044288 0.410078
O O2 0.571773 0.250000 0.421673
O O3 0.573795 0.000000 0.500000
O O4 0.587771 0.977616 0.365133
O O5 0.500000 0.504611 0.874321
O O6 0.448916 0.250000 0.865844
O O7 0.433916 0.471016 0.772004
O O8 0.402002 0.496406 0.905679
O O9 0.801593 0.250000 0.300032
O O10 0.750000 0.485898 0.250000
O O11 0.843347 0.475065 0.228489
O O12 0.808692 0.514887 0.361892
O O13 0.879658 0.750000 0.214101
O O14 0.171028 0.500000 0.500000
O O15 0.153863 0.250000 0.572992
#
# Coordination Sequence:
#
# PCOD8298755 Si02
#       5
#    16  16  16  16  16
#     4  10  20  33  50  74 106 143 180 218 262 313
#     4   8  15  28  47  73 104 138 173 205 242 292
#     4  10  21  38  59  80 103 133 172 219 268 318
#     4  10  19  32  53  78 105 137 173 217 264 314
#     4  10  20  34  54  79 108 141 174 212 257 305
#
# _framework density 18.391072000000001
#
# number of rings (size 3 to 8) (size 9 to 14) (size 15 to 20)
#    0.000    2.400    0.000    4.200    0.000    4.000 
#    0.000    1.000    0.000   16.200    0.000    0.000 
#    0.000    0.000    0.000    0.000    0.000    0.000 
#
# Total GULP energy -495962.810317 kJ/mol
# GULP energy per Si atom -12399.070258 kJ/mol
# Density = 1.834921 g / cm^3
# Si number density = 18.391072 Si / 1000 Ang^3
#
#
#
# Elastic Constant Matrix: (Units=GPa)
#
#
# Indices 1 2 3 4 5 6 
#
# 1 98.0719 27.8638 47.8690 0.0000 0.0000 0.0000
# 2 27.8638 53.4405 31.3069 0.0000 0.0000 0.0000
# 3 47.8690 31.3069 131.7598 0.0000 0.0000 0.0000
# 4 0.0000 0.0000 0.0000 31.3128 0.0000 0.0000
# 5 0.0000 0.0000 0.0000 0.0000 13.4239 0.0000
# 6 0.0000 0.0000 0.0000 0.0000 0.0000 24.8615
#
#
#
# Elastic Compliance Matrix: (Units=1/GPa)
#
#
# Indices 1 2 3 4 5 6 
#
# 1 0.013374 -0.004794 -0.003720 0.000000 0.000000 0.000000
# 2 -0.004794 0.023457 -0.003832 0.000000 0.000000 0.000000
# 3 -0.003720 -0.003832 0.009851 0.000000 0.000000 0.000000
# 4 0.000000 0.000000 0.000000 0.031936 0.000000 0.000000
# 5 0.000000 0.000000 0.000000 0.000000 0.074494 0.000000
# 6 0.000000 0.000000 0.000000 0.000000 0.000000 0.040223
#
#
# Mechanical properties :
#
#
# Convention : Reuss Voigt Hill
#
# Bulk Modulus (GPa) = 45.47295 55.26131 50.36713
# Shear Modulus (GPa) = 22.18700 25.66847 23.92774
#
# Velocity S-wave (km/s) = 3.47710 3.73996 3.61092
# Velocity P-wave (km/s) = 6.39527 6.98304 6.69561
#
# Compressibility (1/GPa) = 0.02199110
#
# Stress axis : x y z
#
# Youngs Moduli (GPa) = 74.76987 42.63157 101.50788
#
# Poissons Ratio (x) = 0.20438 0.37759
# Poissons Ratio (y) = 0.35846 0.38895
# Poissons Ratio (z) = 0.27813 0.16335
#
# Static dielectric constant tensor:
#      x y z
#    x 3.490900 0.000000 0.000000 
#    y 0.000000 3.285290 0.000000 
#    z 0.000000 0.000000 3.433030 
# 
# 
# High freq. dielectric constant tensor:
#      x y z
#    x 1.701310 0.000000 0.000000 
#    y 0.000000 1.709360 0.000000 
#    z 0.000000 0.000000 1.715600 
# 
# From -- ./inp_files/39681.got.cif
#   From: 2010.03.12/outbox.cif.g09.slc.cpg/sg74_20_cif.got.tgz:39681.got - 2010.04.16 15:46:19.
