data_PCOD8298756
_publ_section_title
;
Structure prediction by ZEFSAII (Michael W. Deem and Ramdas Pophale) SiO2 
 PCOD8298756
Probable space group: I M M A
;
_chemical_formula_sum "Si O2"
_cell_formula_units_Z 88
_cell_length_a 8.988661
_cell_length_b 23.356637
_cell_length_c 23.259060
_cell_angle_alpha 90.000000
_cell_angle_beta 90.000000
_cell_angle_gamma 90.000000
_cell_volume 4883.120842
_symmetry_space_group_name_H-M "I M M A"
_symmetry_group_IT_number 74
_symmetry_cell_setting 'orthorhombic'
loop_
_space_group_symop_operation_xyz
x,y,z
-x,1/2-y,z
x,-y,-z
-x,1/2+y,-z
-x,-y,-z
x,1/2+y,-z
-x,y,z
x,1/2-y,z
1/2+x,1/2+y,1/2+z
1/2-x,-y,1/2+z
1/2+x,1/2-y,1/2-z
1/2-x,y,1/2-z
1/2-x,1/2-y,1/2-z
1/2+x,y,1/2-z
1/2-x,1/2+y,1/2+z
1/2+x,-y,1/2+z
loop_
_atom_site_type_symbol
_atom_site_label
_atom_site_fract_x
_atom_site_fract_y
_atom_site_fract_z
Si Si1 0.165272 0.097781 0.916632
Si Si2 0.175761 0.437703 0.194438
Si Si3 0.669692 0.815702 0.007244
Si Si4 0.162074 0.905280 0.586619
Si Si5 0.752984 0.000000 0.000000
Si Si6 0.176784 0.938954 0.306247
O O1 0.217046 0.154250 0.949568
O O2 0.280612 0.093307 0.864362
O O3 0.000000 0.107754 0.892222
O O4 0.154636 0.041893 0.957993
O O5 0.250000 0.406258 0.250000
O O6 0.210377 0.405522 0.134972
O O7 0.253428 0.498630 0.188737
O O8 0.000000 0.443586 0.202648
O O9 0.500000 0.822097 0.029621
O O10 0.716776 0.750000 0.000753
O O11 0.686298 0.845451 0.945470
O O12 0.000000 0.906648 0.616633
O O13 0.159539 0.958375 0.541626
O O14 0.250000 0.908576 0.250000
O O15 0.000000 0.941675 0.299612
#
# Coordination Sequence:
#
# PCOD8298756 Si02
#       6
#    16  16  16  16   8  16
#     4  11  21  33  52  79 110 141 175 218 262 311
#     4  11  21  33  50  74 107 142 176 214 259 313
#     4   9  20  38  57  78 105 140 180 220 265 314
#     4  10  19  32  53  78 106 139 175 216 263 315
#     4  10  20  30  50  74 112 138 174 208 264 312
#     4  11  21  34  52  75 107 143 178 214 258 314
#
# _framework density 18.021262
#
# number of rings (size 3 to 8) (size 9 to 14) (size 15 to 20)
#    0.000    1.636    1.818    5.455    0.000    4.727 
#    0.000    0.000    0.000    1.091    0.000    0.000 
#    0.000    0.000    0.000    0.000    0.000    0.000 
#
# Total GULP energy -545320.814926 kJ/mol
# GULP energy per Si atom -12393.654885 kJ/mol
# Density = 1.798024 g / cm^3
# Si number density = 18.021262 Si / 1000 Ang^3
#
#
#
# Elastic Constant Matrix: (Units=GPa)
#
#
# Indices 1 2 3 4 5 6 
#
# 1 151.9753 32.5775 54.3471 0.0000 0.0000 0.0000
# 2 32.5775 99.2634 36.1834 0.0000 0.0000 0.0000
# 3 54.3471 36.1834 112.6224 0.0000 0.0000 0.0000
# 4 0.0000 0.0000 0.0000 14.3001 0.0000 0.0000
# 5 0.0000 0.0000 0.0000 0.0000 32.1745 0.0000
# 6 0.0000 0.0000 0.0000 0.0000 0.0000 16.3675
#
#
#
# Elastic Compliance Matrix: (Units=1/GPa)
#
#
# Indices 1 2 3 4 5 6 
#
# 1 0.008121 -0.001401 -0.003469 0.000000 0.000000 0.000000
# 2 -0.001401 0.011652 -0.003068 0.000000 0.000000 0.000000
# 3 -0.003469 -0.003068 0.011539 0.000000 0.000000 0.000000
# 4 0.000000 0.000000 0.000000 0.069930 0.000000 0.000000
# 5 0.000000 0.000000 0.000000 0.000000 0.031081 0.000000
# 6 0.000000 0.000000 0.000000 0.000000 0.000000 0.061097
#
#
# Mechanical properties :
#
#
# Convention : Reuss Voigt Hill
#
# Bulk Modulus (GPa) = 64.77818 67.78634 66.28226
# Shear Modulus (GPa) = 23.31671 28.61861 25.96766
#
# Velocity S-wave (km/s) = 3.60091 3.98935 3.80010
# Velocity P-wave (km/s) = 7.30152 7.67569 7.49094
#
# Compressibility (1/GPa) = 0.01543730
#
# Stress axis : x y z
#
# Youngs Moduli (GPa) = 123.14206 85.82113 86.66514
#
# Poissons Ratio (x) = 0.12021 0.30061
# Poissons Ratio (y) = 0.17249 0.26586
# Poissons Ratio (z) = 0.42714 0.26327
#
# Static dielectric constant tensor:
#      x y z
#    x 3.330460 0.000000 0.000000 
#    y 0.000000 3.019860 0.000000 
#    z 0.000000 0.000000 3.896760 
# 
# 
# High freq. dielectric constant tensor:
#      x y z
#    x 1.707580 0.000000 0.000000 
#    y 0.000000 1.652220 0.000000 
#    z 0.000000 0.000000 1.707030 
# 
# From -- ./inp_files/56953.got.cif
#   From: 2010.03.12/outbox.cif.g09.slc.cpg/sg74_29_cif.got.tgz:56953.got - 2010.04.16 15:46:19.
