data_PCOD8298449
_publ_section_title
;
Structure prediction by ZEFSAII (Michael W. Deem and Ramdas Pophale) SiO2 
 PCOD8298449
Probable space group: I M M A
;
_chemical_formula_sum "Si O2"
_cell_formula_units_Z 80
_cell_length_a 8.968164
_cell_length_b 25.457467
_cell_length_c 19.971493
_cell_angle_alpha 90.000000
_cell_angle_beta 90.000000
_cell_angle_gamma 90.000000
_cell_volume 4559.626441
_symmetry_space_group_name_H-M "I M M A"
_symmetry_group_IT_number 74
_symmetry_cell_setting 'orthorhombic'
loop_
_space_group_symop_operation_xyz
x,y,z
-x,1/2-y,z
x,-y,-z
-x,1/2+y,-z
-x,-y,-z
x,1/2+y,-z
-x,y,z
x,1/2-y,z
1/2+x,1/2+y,1/2+z
1/2-x,-y,1/2+z
1/2+x,1/2-y,1/2-z
1/2-x,y,1/2-z
1/2-x,1/2-y,1/2-z
1/2+x,y,1/2-z
1/2-x,1/2+y,1/2+z
1/2+x,-y,1/2+z
loop_
_atom_site_type_symbol
_atom_site_label
_atom_site_fract_x
_atom_site_fract_y
_atom_site_fract_z
Si Si1 0.174246 0.003903 0.678487
Si Si2 0.674217 0.690399 0.429795
Si Si3 0.173676 0.887920 0.678750
Si Si4 0.324129 0.690170 0.933852
Si Si5 0.176645 0.105196 0.822427
O O1 0.250000 0.001538 0.750000
O O2 0.200713 0.946191 0.646701
O O3 0.000000 0.016991 0.684538
O O4 0.257191 0.052377 0.641335
O O5 0.500000 0.685889 0.443600
O O6 0.721637 0.750000 0.412336
O O7 0.755487 0.670468 0.496555
O O8 0.723323 0.654426 0.367850
O O9 0.250000 0.879666 0.750000
O O10 0.238720 0.845986 0.626062
O O11 0.000000 0.878584 0.691313
O O12 0.500000 0.684212 0.939820
O O13 0.275966 0.750000 0.918650
O O14 0.250000 0.113872 0.750000
O O15 0.000000 0.099980 0.814842
#
# Coordination Sequence:
#
# PCOD8298449 Si02
#       5
#    16  16  16  16  16
#     4   9  16  28  46  67  94 125 154 187 229 275
#     4   9  19  35  51  68  93 124 156 191 233 279
#     4   9  18  31  48  72  98 124 156 193 232 274
#     4   9  18  33  51  70  94 124 158 195 233 275
#     4  10  19  31  49  72  96 121 153 193 232 275
#
# _framework density 17.545297000000001
#
# number of rings (size 3 to 8) (size 9 to 14) (size 15 to 20)
#    0.000    2.800    0.000    2.400    0.000    4.000 
#    0.000    1.000    0.000    6.000    0.000    0.000 
#    0.000    0.000    0.000    0.000    0.000    0.000 
#
# Total GULP energy -495740.286897 kJ/mol
# GULP energy per Si atom -12393.507172 kJ/mol
# Density = 1.750536 g / cm^3
# Si number density = 17.545297 Si / 1000 Ang^3
#
#
#
# Elastic Constant Matrix: (Units=GPa)
#
#
# Indices 1 2 3 4 5 6 
#
# 1 60.5388 47.3066 41.1422 0.0000 0.0000 0.0000
# 2 47.3066 134.3936 83.2256 0.0000 0.0000 0.0000
# 3 41.1422 83.2256 105.0438 0.0004 0.0000 0.0000
# 4 0.0000 0.0000 0.0004 14.0035 0.0000 0.0000
# 5 0.0000 0.0000 0.0000 0.0000 25.9741 0.0000
# 6 0.0000 0.0000 0.0000 0.0000 0.0000 24.4827
#
#
#
# Elastic Compliance Matrix: (Units=1/GPa)
#
#
# Indices 1 2 3 4 5 6 
#
# 1 0.024234 -0.005208 -0.005366 0.000000 0.000000 0.000000
# 2 -0.005208 0.015727 -0.010421 0.000000 0.000000 0.000000
# 3 -0.005366 -0.010421 0.019878 -0.000001 0.000000 0.000000
# 4 0.000000 0.000000 -0.000001 0.071411 0.000000 0.000000
# 5 0.000000 0.000000 0.000000 0.000000 0.038500 0.000000
# 6 0.000000 0.000000 0.000000 0.000000 0.000000 0.040845
#
#
# Mechanical properties :
#
#
# Convention : Reuss Voigt Hill
#
# Bulk Modulus (GPa) = 56.02020 71.48057 63.75039
# Shear Modulus (GPa) = 19.33976 21.44551 20.39264
#
# Velocity S-wave (km/s) = 3.32366 3.49992 3.41293
# Velocity P-wave (km/s) = 6.83573 7.56053 7.20725
#
# Compressibility (1/GPa) = 0.01785070
#
# Stress axis : x y z
#
# Youngs Moduli (GPa) = 41.26378 63.58365 50.30692
#
# Poissons Ratio (x) = 0.33112 0.26994
# Poissons Ratio (y) = 0.21489 0.52425
# Poissons Ratio (z) = 0.22141 0.66261
#
# Static dielectric constant tensor:
#      x y z
#    x 3.274920 0.000000 0.000000 
#    y 0.000000 4.109590 0.000000 
#    z 0.000000 0.000000 3.063090 
# 
# 
# High freq. dielectric constant tensor:
#      x y z
#    x 1.680790 0.000000 0.000000 
#    y 0.000000 1.694120 0.000000 
#    z 0.000000 0.000000 1.647830 
# 
# From -- ./inp_files/39720.got.cif
#   From: 2010.03.12/outbox.cif.g09.slc.cpg/sg74_20_cif.got.tgz:39720.got - 2010.04.16 15:46:19.
