data_PCOD8298462
_publ_section_title
;
Structure prediction by ZEFSAII (Michael W. Deem and Ramdas Pophale) SiO2 
 PCOD8298462
Probable space group: I M M A
;
_chemical_formula_sum "Si O2"
_cell_formula_units_Z 80
_cell_length_a 31.069830
_cell_length_b 7.817874
_cell_length_c 18.465837
_cell_angle_alpha 90.000000
_cell_angle_beta 90.000000
_cell_angle_gamma 90.000000
_cell_volume 4485.352105
_symmetry_space_group_name_H-M "I M M A"
_symmetry_group_IT_number 74
_symmetry_cell_setting 'orthorhombic'
loop_
_space_group_symop_operation_xyz
x,y,z
-x,1/2-y,z
x,-y,-z
-x,1/2+y,-z
-x,-y,-z
x,1/2+y,-z
-x,y,z
x,1/2-y,z
1/2+x,1/2+y,1/2+z
1/2-x,-y,1/2+z
1/2+x,1/2-y,1/2-z
1/2-x,y,1/2-z
1/2-x,1/2-y,1/2-z
1/2+x,y,1/2-z
1/2-x,1/2+y,1/2+z
1/2+x,-y,1/2+z
loop_
_atom_site_type_symbol
_atom_site_label
_atom_site_fract_x
_atom_site_fract_y
_atom_site_fract_z
Si Si1 0.048159 0.556488 0.729012
Si Si2 0.261716 0.750000 0.634292
Si Si3 0.182193 0.250000 0.276923
Si Si4 0.314048 0.552107 0.422278
Si Si5 0.866353 0.940845 0.218656
Si Si6 0.050682 0.437883 0.575503
O O1 0.048537 0.750000 0.756405
O O2 0.081739 0.451016 0.778013
O O3 0.062409 0.554662 0.644366
O O4 0.000000 0.477358 0.737915
O O5 0.210413 0.750000 0.649525
O O6 0.286329 0.750000 0.709482
O O7 0.273764 0.575582 0.591614
O O8 0.153083 0.420958 0.274644
O O9 0.333899 0.500000 0.500000
O O10 0.298353 0.750000 0.420738
O O11 0.351318 0.519500 0.363207
O O12 0.851198 0.750000 0.241138
O O13 0.072206 0.500000 0.500000
O O14 0.068681 0.250000 0.593202
O O15 0.000000 0.434468 0.563822
#
# Coordination Sequence:
#
# PCOD8298462 Si02
#       6
#    16   8   8  16  16  16
#     4  10  19  31  49  73 101 137 180 224 267 313
#     4   9  18  32  54  78 106 133 164 211 260 307
#     4   9  18  34  51  76 106 134 165 209 260 315
#     4  10  19  32  54  83 108 136 176 218 261 310
#     4  10  20  33  52  78 107 140 177 217 265 313
#     4   9  16  26  41  63  88 116 157 207 253 296
#
# _framework density 17.835833999999998
#
# number of rings (size 3 to 8) (size 9 to 14) (size 15 to 20)
#    0.000    2.400    2.000    1.200    0.000    4.400 
#    0.000    4.000    0.000    1.800    0.000    0.000 
#    0.000    0.000    0.000    0.000    0.000    0.000 
#
# Total GULP energy -495710.567977 kJ/mol
# GULP energy per Si atom -12392.764199 kJ/mol
# Density = 1.779524 g / cm^3
# Si number density = 17.835834 Si / 1000 Ang^3
#
#
#
# Elastic Constant Matrix: (Units=GPa)
#
#
# Indices 1 2 3 4 5 6 
#
# 1 88.4780 42.8315 48.2093 0.0000 0.0000 0.0000
# 2 42.8315 126.2197 37.3044 0.0000 0.0000 0.0000
# 3 48.2093 37.3044 79.5237 0.0000 0.0000 0.0000
# 4 0.0000 0.0000 0.0000 25.1020 0.0000 0.0000
# 5 0.0000 0.0000 0.0000 0.0000 19.2113 0.0000
# 6 0.0000 0.0000 0.0000 0.0000 0.0000 17.3160
#
#
#
# Elastic Compliance Matrix: (Units=1/GPa)
#
#
# Indices 1 2 3 4 5 6 
#
# 1 0.018020 -0.003351 -0.009352 0.000000 0.000000 0.000000
# 2 -0.003351 0.009821 -0.002576 0.000000 0.000000 0.000000
# 3 -0.009352 -0.002576 0.019453 0.000000 0.000000 0.000000
# 4 0.000000 0.000000 0.000000 0.039838 0.000000 0.000000
# 5 0.000000 0.000000 0.000000 0.000000 0.052053 0.000000
# 6 0.000000 0.000000 0.000000 0.000000 0.000000 0.057750
#
#
# Mechanical properties :
#
#
# Convention : Reuss Voigt Hill
#
# Bulk Modulus (GPa) = 59.75092 61.21241 60.48167
# Shear Modulus (GPa) = 21.45267 23.38426 22.41847
#
# Velocity S-wave (km/s) = 3.47188 3.62482 3.54917
# Velocity P-wave (km/s) = 7.04593 7.20510 7.12596
#
# Compressibility (1/GPa) = 0.01673614
#
# Stress axis : x y z
#
# Youngs Moduli (GPa) = 55.49299 101.82247 51.40649
#
# Poissons Ratio (x) = 0.34120 0.48078
# Poissons Ratio (y) = 0.18595 0.13240
# Poissons Ratio (z) = 0.51900 0.26226
#
# Static dielectric constant tensor:
#      x y z
#    x 3.158870 0.000000 0.000000 
#    y 0.000000 3.511910 0.000000 
#    z 0.000000 0.000000 3.250240 
# 
# 
# High freq. dielectric constant tensor:
#      x y z
#    x 1.650350 0.000000 0.000000 
#    y 0.000000 1.708180 0.000000 
#    z 0.000000 0.000000 1.669950 
# 
# From -- ./inp_files/46976.got.cif
#   From: 2010.03.12/outbox.cif.g09.slc.cpg/sg74_24_cif.got.tgz:46976.got - 2010.04.16 15:46:19.
