data_PCOD8298923
_publ_section_title
;
Structure prediction by ZEFSAII (Michael W. Deem and Ramdas Pophale) SiO2 
 PCOD8298923
Probable space group: I M M A
;
_chemical_formula_sum "Si O2"
_cell_formula_units_Z 80
_cell_length_a 9.058800
_cell_length_b 26.137234
_cell_length_c 18.269537
_cell_angle_alpha 90.000000
_cell_angle_beta 90.000000
_cell_angle_gamma 90.000000
_cell_volume 4325.714364
_symmetry_space_group_name_H-M "I M M A"
_symmetry_group_IT_number 74
_symmetry_cell_setting 'orthorhombic'
loop_
_space_group_symop_operation_xyz
x,y,z
-x,1/2-y,z
x,-y,-z
-x,1/2+y,-z
-x,-y,-z
x,1/2+y,-z
-x,y,z
x,1/2-y,z
1/2+x,1/2+y,1/2+z
1/2-x,-y,1/2+z
1/2+x,1/2-y,1/2-z
1/2-x,y,1/2-z
1/2-x,1/2-y,1/2-z
1/2+x,y,1/2-z
1/2-x,1/2+y,1/2+z
1/2+x,-y,1/2+z
loop_
_atom_site_type_symbol
_atom_site_label
_atom_site_fract_x
_atom_site_fract_y
_atom_site_fract_z
Si Si1 0.824320 0.750000 0.827862
Si Si2 0.165511 0.054414 0.413583
Si Si3 0.667258 0.442513 0.912537
Si Si4 0.327867 0.846845 0.582127
Si Si5 0.677138 0.750000 0.170938
Si Si6 0.826329 0.342333 0.912361
O O1 0.750000 0.750000 0.750000
O O2 0.766745 0.700683 0.871853
O O3 0.000000 0.750000 0.820308
O O4 0.171302 0.055997 0.500550
O O5 0.262465 0.101083 0.383354
O O6 0.000000 0.062830 0.385381
O O7 0.221732 0.998706 0.384833
O O8 0.500000 0.431590 0.885675
O O9 0.776092 0.398283 0.882818
O O10 0.500000 0.852196 0.590712
O O11 0.285749 0.837575 0.497711
O O12 0.500000 0.750000 0.176529
O O13 0.750000 0.750000 0.250000
O O14 0.731808 0.699939 0.128882
O O15 0.000000 0.334586 0.897439
#
# Coordination Sequence:
#
# PCOD8298923 Si02
#       6
#     8  16  16  16   8  16
#     4  10  21  36  50  68  96 132 169 210 256 300
#     4   8  14  25  44  71 103 133 164 201 244 293
#     4   8  14  26  44  71 105 135 161 199 247 293
#     4   9  18  32  51  74 103 133 165 208 256 301
#     4  12  25  40  56  74 100 134 169 208 252 300
#     4  10  19  33  54  79 104 132 166 205 248 299
#
# _framework density 18.494053999999998
#
# number of rings (size 3 to 8) (size 9 to 14) (size 15 to 20)
#    0.000    2.800    0.000    3.300    0.000    4.000 
#    0.000    5.000    0.000    1.200    0.000    2.800 
#    0.000    0.000    0.000    0.000    0.000    0.000 
#
# Total GULP energy -495750.874105 kJ/mol
# GULP energy per Si atom -12393.771853 kJ/mol
# Density = 1.845196 g / cm^3
# Si number density = 18.494054 Si / 1000 Ang^3
#
#
#
# Elastic Constant Matrix: (Units=GPa)
#
#
# Indices 1 2 3 4 5 6 
#
# 1 81.6404 72.1566 39.6516 0.0000 0.0000 0.0000
# 2 72.1566 201.4344 58.9784 0.0000 0.0000 0.0000
# 3 39.6516 58.9784 52.5670 0.0003 0.0000 0.0000
# 4 0.0000 0.0000 0.0003 -1.3285 0.0000 0.0000
# 5 0.0000 0.0000 0.0000 0.0000 21.2800 0.0001
# 6 0.0000 0.0000 0.0000 0.0000 0.0001 40.0756
#
#
#
# Elastic Compliance Matrix: (Units=1/GPa)
#
#
# Indices 1 2 3 4 5 6 
#
# 1 0.021706 -0.004440 -0.011391 -0.000003 0.000000 0.000000
# 2 -0.004440 0.008301 -0.005965 -0.000001 0.000000 0.000000
# 3 -0.011391 -0.005965 0.034308 0.000009 0.000000 0.000000
# 4 -0.000003 -0.000001 0.000009 -0.752746 0.000000 0.000000
# 5 0.000000 0.000000 0.000000 0.000000 0.046992 0.000000
# 6 0.000000 0.000000 0.000000 0.000000 0.000000 0.024953
#
#
# Mechanical properties :
#
#
# Convention : Reuss Voigt Hill
#
# Bulk Modulus (GPa) = 48.25508 75.24611 61.75060
# Shear Modulus (GPa) = -8.83412 22.99578 7.08083
#
# Velocity S-wave (km/s) = -2.18795 3.53003 1.95883
# Velocity P-wave (km/s) = 4.44590 7.57561 6.21111
#
# Compressibility (1/GPa) = 0.02072321
#
# Stress axis : x y z
#
# Youngs Moduli (GPa) = 46.07121 120.46368 29.14791
#
# Poissons Ratio (x) = 0.53486 0.33203
# Poissons Ratio (y) = 0.20456 0.17386
# Poissons Ratio (z) = 0.52480 0.71852
#
# Static dielectric constant tensor:
#      x y z
#    x 3.419340 0.000000 0.000000 
#    y 0.000000 4.086370 0.000000 
#    z 0.000000 0.000000 3.076660 
# 
# 
# High freq. dielectric constant tensor:
#      x y z
#    x 1.712360 0.000000 0.000000 
#    y 0.000000 1.743390 0.000000 
#    z 0.000000 0.000000 1.664470 
# 
# From -- ./inp_files/48603.got.cif
#   From: 2010.03.12/outbox.cif.g09.slc.cpg/sg74_25_cif.got.tgz:48603.got - 2010.04.16 15:46:19.
