data_PCOD8298259
_publ_section_title
;
Structure prediction by ZEFSAII (Michael W. Deem and Ramdas Pophale) SiO2 
 PCOD8298259
Probable space group: I M M A
;
_chemical_formula_sum "Si O2"
_cell_formula_units_Z 96
_cell_length_a 9.029528
_cell_length_b 25.496927
_cell_length_c 25.413996
_cell_angle_alpha 90.000000
_cell_angle_beta 90.000000
_cell_angle_gamma 90.000000
_cell_volume 5850.942725
_symmetry_space_group_name_H-M "I M M A"
_symmetry_group_IT_number 74
_symmetry_cell_setting 'orthorhombic'
loop_
_space_group_symop_operation_xyz
x,y,z
-x,1/2-y,z
x,-y,-z
-x,1/2+y,-z
-x,-y,-z
x,1/2+y,-z
-x,y,z
x,1/2-y,z
1/2+x,1/2+y,1/2+z
1/2-x,-y,1/2+z
1/2+x,1/2-y,1/2-z
1/2-x,y,1/2-z
1/2-x,1/2-y,1/2-z
1/2+x,y,1/2-z
1/2-x,1/2+y,1/2+z
1/2+x,-y,1/2+z
loop_
_atom_site_type_symbol
_atom_site_label
_atom_site_fract_x
_atom_site_fract_y
_atom_site_fract_z
Si Si1 0.326919 0.494410 0.305931
Si Si2 0.663861 0.687695 0.506208
Si Si3 0.176157 0.606285 0.693170
Si Si4 0.823077 0.308743 0.891278
Si Si5 0.673850 0.309168 0.108638
Si Si6 0.327409 0.610224 0.305785
O O1 0.500000 0.480858 0.300610
O O2 0.250000 0.497345 0.250000
O O3 0.242788 0.446375 0.335137
O O4 0.302874 0.552059 0.331144
O O5 0.500000 0.663628 0.513272
O O6 0.655712 0.750000 0.507377
O O7 0.731508 0.671750 0.449105
O O8 0.762602 0.666898 0.554356
O O9 0.250000 0.614840 0.750000
O O10 0.224013 0.655358 0.657491
O O11 0.000000 0.601376 0.698733
O O12 0.764595 0.250000 0.878768
O O13 0.760410 0.348114 0.847087
O O14 0.000000 0.308845 0.891980
O O15 0.500000 0.309635 0.102110
O O16 0.732262 0.250000 0.119056
O O17 0.500000 0.620282 0.296046
O O18 0.250000 0.617932 0.250000
#
# Coordination Sequence:
#
# PCOD8298259 Si02
#       6
#    16  16  16  16  16  16
#     4   9  16  27  43  61  82 110 145 179 208 242
#     4   8  14  26  45  65  82 107 145 179 205 242
#     4  10  19  30  45  64  86 112 140 170 208 252
#     4   8  14  26  44  65  89 115 142 175 214 251
#     4   9  18  31  45  63  88 113 135 167 213 256
#     4   9  17  28  43  64  89 116 144 175 212 252
#
# _framework density 16.407612
#
# number of rings (size 3 to 8) (size 9 to 14) (size 15 to 20)
#    0.000    3.167    0.000    3.000    0.000    2.667 
#    0.000    0.833    0.000    2.000    0.000    7.000 
#    0.000    0.000    0.000    0.000    0.000    0.000 
#
# Total GULP energy -594667.542454 kJ/mol
# GULP energy per Si atom -12388.907134 kJ/mol
# Density = 1.637027 g / cm^3
# Si number density = 16.407612 Si / 1000 Ang^3
#
#
#
# Elastic Constant Matrix: (Units=GPa)
#
#
# Indices 1 2 3 4 5 6 
#
# 1 46.1513 36.2964 35.3306 0.0000 0.0000 0.0000
# 2 36.2964 111.0603 71.8585 0.0000 0.0000 0.0000
# 3 35.3306 71.8585 112.7003 0.0000 0.0000 0.0000
# 4 0.0000 0.0000 0.0000 5.3625 0.0000 0.0000
# 5 0.0000 0.0000 0.0000 0.0000 21.5493 0.0000
# 6 0.0000 0.0000 0.0000 0.0000 0.0000 16.9989
#
#
#
# Elastic Compliance Matrix: (Units=1/GPa)
#
#
# Indices 1 2 3 4 5 6 
#
# 1 0.031085 -0.006560 -0.005562 0.000000 0.000000 0.000000
# 2 -0.006560 0.016712 -0.008599 0.000000 0.000000 0.000000
# 3 -0.005562 -0.008599 0.016100 0.000000 0.000000 0.000000
# 4 0.000000 0.000000 0.000000 0.186481 0.000000 0.000000
# 5 0.000000 0.000000 0.000000 0.000000 0.046405 0.000000
# 6 0.000000 0.000000 0.000000 0.000000 0.000000 0.058827
#
#
# Mechanical properties :
#
#
# Convention : Reuss Voigt Hill
#
# Bulk Modulus (GPa) = 44.53571 61.87587 53.20579
# Shear Modulus (GPa) = 12.35978 17.21055 14.78517
#
# Velocity S-wave (km/s) = 2.74760 3.24224 3.00512
# Velocity P-wave (km/s) = 6.10475 7.19790 6.67374
#
# Compressibility (1/GPa) = 0.02245389
#
# Stress axis : x y z
#
# Youngs Moduli (GPa) = 32.16942 59.83754 62.11372
#
# Poissons Ratio (x) = 0.39256 0.34548
# Poissons Ratio (y) = 0.21105 0.53411
# Poissons Ratio (z) = 0.17893 0.51454
#
# Static dielectric constant tensor:
#      x y z
#    x 3.072160 0.000000 0.000000 
#    y 0.000000 3.718250 0.000000 
#    z 0.000000 0.000000 3.139550 
# 
# 
# High freq. dielectric constant tensor:
#      x y z
#    x 1.619740 0.000000 0.000000 
#    y 0.000000 1.623230 0.000000 
#    z 0.000000 0.000000 1.612740 
# 
# From -- ./inp_files/57472.got.cif
#   From: 2010.03.12/outbox.cif.g09.slc.cpg/sg74_29_cif.got.tgz:57472.got - 2010.04.16 15:46:19.
