data_PCOD8298760
_publ_section_title
;
Structure prediction by ZEFSAII (Michael W. Deem and Ramdas Pophale) SiO2 
 PCOD8298760
Probable space group: I M M A
;
_chemical_formula_sum "Si O2"
_cell_formula_units_Z 48
_cell_length_a 13.611865
_cell_length_b 13.655118
_cell_length_c 11.433998
_cell_angle_alpha 90.000000
_cell_angle_beta 90.000000
_cell_angle_gamma 90.000000
_cell_volume 2125.255763
_symmetry_space_group_name_H-M "I M M A"
_symmetry_group_IT_number 74
_symmetry_cell_setting 'orthorhombic'
loop_
_space_group_symop_operation_xyz
x,y,z
-x,1/2-y,z
x,-y,-z
-x,1/2+y,-z
-x,-y,-z
x,1/2+y,-z
-x,y,z
x,1/2-y,z
1/2+x,1/2+y,1/2+z
1/2-x,-y,1/2+z
1/2+x,1/2-y,1/2-z
1/2-x,y,1/2-z
1/2-x,1/2-y,1/2-z
1/2+x,y,1/2-z
1/2-x,1/2+y,1/2+z
1/2+x,-y,1/2+z
loop_
_atom_site_type_symbol
_atom_site_label
_atom_site_fract_x
_atom_site_fract_y
_atom_site_fract_z
Si Si1 0.115352 0.966526 0.172212
Si Si2 0.389477 0.862634 0.092916
Si Si3 0.202490 0.862014 0.956253
O O1 0.149008 0.925947 0.297679
O O2 0.140432 0.887965 0.071894
O O3 0.000000 0.985588 0.170124
O O4 0.170489 0.069587 0.151025
O O5 0.500000 0.891860 0.054952
O O6 0.384954 0.750000 0.132877
O O7 0.317973 0.881505 0.983184
O O8 0.182732 0.750000 0.920773
#
# Coordination Sequence:
#
# PCOD8298760 Si02
#       3
#    16  16  16
#     4  10  20  32  50  79 111 141 178 224 271 319
#     4   9  18  34  57  82 106 137 180 227 271 317
#     4  10  19  32  53  79 106 138 179 226 271 317
#
# _framework density 22.585515999999998
#
# number of rings (size 3 to 8) (size 9 to 14) (size 15 to 20)
#    0.000    2.333    0.000    4.000    0.000    6.667 
#    0.000    3.333    0.000   22.000    0.000    0.000 
#    0.000    0.000    0.000    0.000    0.000    0.000 
#
# Total GULP energy -297660.812659 kJ/mol
# GULP energy per Si atom -12402.533861 kJ/mol
# Density = 2.253411 g / cm^3
# Si number density = 22.585516 Si / 1000 Ang^3
#
#
#
# Elastic Constant Matrix: (Units=GPa)
#
#
# Indices 1 2 3 4 5 6 
#
# 1 103.5603 51.6079 34.9895 0.0000 0.0000 0.0000
# 2 51.6079 133.8165 34.1277 0.0000 0.0000 0.0000
# 3 34.9895 34.1277 43.2505 0.0000 0.0000 0.0000
# 4 0.0000 0.0000 0.0000 33.5859 0.0000 0.0000
# 5 0.0000 0.0000 0.0000 0.0000 27.6362 0.0000
# 6 0.0000 0.0000 0.0000 0.0000 0.0000 34.4757
#
#
#
# Elastic Compliance Matrix: (Units=1/GPa)
#
#
# Indices 1 2 3 4 5 6 
#
# 1 0.014313 -0.003214 -0.009044 0.000000 0.000000 0.000000
# 2 -0.003214 0.010077 -0.005352 0.000000 0.000000 0.000000
# 3 -0.009044 -0.005352 0.034660 0.000000 0.000000 0.000000
# 4 0.000000 0.000000 0.000000 0.029774 0.000000 0.000000
# 5 0.000000 0.000000 0.000000 0.000000 0.036184 0.000000
# 6 0.000000 0.000000 0.000000 0.000000 0.000000 0.029006
#
#
# Mechanical properties :
#
#
# Convention : Reuss Voigt Hill
#
# Bulk Modulus (GPa) = 41.95913 58.00859 49.98386
# Shear Modulus (GPa) = 25.35787 29.79971 27.57879
#
# Velocity S-wave (km/s) = 3.35438 3.63632 3.49819
# Velocity P-wave (km/s) = 5.79834 6.58560 6.20447
#
# Compressibility (1/GPa) = 0.02383271
#
# Stress axis : x y z
#
# Youngs Moduli (GPa) = 69.86564 99.23405 28.85152
#
# Poissons Ratio (x) = 0.31890 0.26092
# Poissons Ratio (y) = 0.22452 0.15441
# Poissons Ratio (z) = 0.63183 0.53108
#
# Static dielectric constant tensor:
#      x y z
#    x 4.381010 0.000000 0.000000 
#    y 0.000000 4.123760 0.000000 
#    z 0.000000 0.000000 3.618870 
# 
# 
# High freq. dielectric constant tensor:
#      x y z
#    x 1.911450 0.000000 0.000000 
#    y 0.000000 1.894700 0.000000 
#    z 0.000000 0.000000 1.857390 
# 
# From -- ./inp_files/19412.got.cif
#   From: 2010.03.12/outbox.cif.g09.slc.cpg/sg74_10_cif.got.tgz:19412.got - 2010.04.16 15:46:19.
