data_PCOD8298644
_publ_section_title
;
Structure prediction by ZEFSAII (Michael W. Deem and Ramdas Pophale) SiO2 
 PCOD8298644
Probable space group: I M M A
;
_chemical_formula_sum "Si O2"
_cell_formula_units_Z 120
_cell_length_a 27.525375
_cell_length_b 8.547689
_cell_length_c 28.157477
_cell_angle_alpha 90.000000
_cell_angle_beta 90.000000
_cell_angle_gamma 90.000000
_cell_volume 6624.844591
_symmetry_space_group_name_H-M "I M M A"
_symmetry_group_IT_number 74
_symmetry_cell_setting 'orthorhombic'
loop_
_space_group_symop_operation_xyz
x,y,z
-x,1/2-y,z
x,-y,-z
-x,1/2+y,-z
-x,-y,-z
x,1/2+y,-z
-x,y,z
x,1/2-y,z
1/2+x,1/2+y,1/2+z
1/2-x,-y,1/2+z
1/2+x,1/2-y,1/2-z
1/2-x,y,1/2-z
1/2-x,1/2-y,1/2-z
1/2+x,y,1/2-z
1/2-x,1/2+y,1/2+z
1/2+x,-y,1/2+z
loop_
_atom_site_type_symbol
_atom_site_label
_atom_site_fract_x
_atom_site_fract_y
_atom_site_fract_z
Si Si1 0.242285 0.067377 0.636892
Si Si2 0.910659 0.933148 0.898891
Si Si3 0.000000 0.562541 0.050737
Si Si4 0.053716 0.067117 0.704108
Si Si5 0.592852 0.070934 0.695452
Si Si6 0.189382 0.429755 0.214927
Si Si7 0.313784 0.935969 0.446548
Si Si8 0.344996 0.566339 0.817138
O O1 0.234442 0.250000 0.637240
O O2 0.268610 0.016021 0.587909
O O3 0.270690 0.022189 0.685075
O O4 0.188654 0.988684 0.639031
O O5 0.907026 0.750000 0.887549
O O6 0.951766 0.974318 0.934753
O O7 0.932063 0.033376 0.854145
O O8 0.860162 0.990918 0.921160
O O9 0.000000 0.750000 0.058629
O O10 0.000000 0.500000 0.000000
O O11 0.055404 0.250000 0.694274
O O12 0.058638 0.029596 0.760211
O O13 0.000000 0.002490 0.688342
O O14 0.099439 0.993410 0.676281
O O15 0.610761 0.250000 0.699011
O O16 0.638058 0.952518 0.689848
O O17 0.205852 0.250000 0.215606
O O18 0.180765 0.496065 0.268514
O O19 0.319881 0.750000 0.449105
O O20 0.305372 0.000000 0.500000
O O21 0.348555 0.750000 0.815142
#
# Coordination Sequence:
#
# PCOD8298644 Si02
#       8
#    16  16   8  16  16  16  16  16
#     4  11  22  35  54  78 107 141 179 220 268 327
#     4  12  24  39  58  79 103 134 174 223 279 331
#     4  12  26  44  60  74  96 124 166 224 280 334
#     4   9  19  35  54  76 106 145 184 222 266 316
#     4  10  19  32  51  76 103 137 178 219 263 313
#     4  10  19  32  50  74 105 139 174 216 262 312
#     4  11  24  41  60  82 106 139 180 224 277 333
#     4  10  21  34  51  78 110 143 180 221 267 317
#
# _framework density 18.113631999999999
#
# number of rings (size 3 to 8) (size 9 to 14) (size 15 to 20)
#    0.000    1.467    1.333    4.600    0.933    5.600 
#    0.000    0.000    0.000    0.000    0.000    0.000 
#    0.000    0.533    0.000    1.733    0.000    2.133 
#
# Total GULP energy -743322.602083 kJ/mol
# GULP energy per Si atom -12388.710035 kJ/mol
# Density = 1.807240 g / cm^3
# Si number density = 18.113632 Si / 1000 Ang^3
#
#
#
# Elastic Constant Matrix: (Units=GPa)
#
#
# Indices 1 2 3 4 5 6 
#
# 1 121.7957 42.6022 46.7353 0.0000 0.0000 0.0000
# 2 42.6022 64.3916 25.8942 0.0000 0.0000 0.0000
# 3 46.7353 25.8942 38.9799 0.0000 0.0000 0.0000
# 4 0.0000 0.0000 0.0000 23.6915 0.0000 0.0000
# 5 0.0000 0.0000 0.0000 0.0000 18.4650 0.0000
# 6 0.0000 0.0000 0.0000 0.0000 0.0000 27.3820
#
#
#
# Elastic Compliance Matrix: (Units=1/GPa)
#
#
# Indices 1 2 3 4 5 6 
#
# 1 0.015890 -0.003891 -0.016467 0.000000 0.000000 0.000000
# 2 -0.003891 0.022144 -0.010045 0.000000 0.000000 0.000000
# 3 -0.016467 -0.010045 0.052070 0.000000 0.000000 0.000000
# 4 0.000000 0.000000 0.000000 0.042209 0.000000 0.000000
# 5 0.000000 0.000000 0.000000 0.000000 0.054157 0.000000
# 6 0.000000 0.000000 0.000000 0.000000 0.000000 0.036520
#
#
# Mechanical properties :
#
#
# Convention : Reuss Voigt Hill
#
# Bulk Modulus (GPa) = 34.13130 50.62562 42.37846
# Shear Modulus (GPa) = 17.03223 21.23674 19.13448
#
# Velocity S-wave (km/s) = 3.06976 3.42777 3.25369
# Velocity P-wave (km/s) = 5.60788 6.60876 6.12879
#
# Compressibility (1/GPa) = 0.02929862
#
# Stress axis : x y z
#
# Youngs Moduli (GPa) = 62.93205 45.15940 19.20501
#
# Poissons Ratio (x) = 0.17573 0.31624
# Poissons Ratio (y) = 0.24489 0.19291
# Poissons Ratio (z) = 1.03628 0.45361
#
# Static dielectric constant tensor:
#      x y z
#    x -12.647630 0.000000 0.000000 
#    y 0.000000 6.343730 0.000000 
#    z 0.000000 0.000000 3.351130 
# 
# 
# High freq. dielectric constant tensor:
#      x y z
#    x 1.702270 0.000000 0.000000 
#    y 0.000000 1.710870 0.000000 
#    z 0.000000 0.000000 1.668720 
# 
# From -- ./inp_files/69008.got.cif
#   From: 2010.03.12/outbox.cif.g09.slc.cpg/sg74_35_cif.got.tgz:69008.got - 2010.04.16 15:46:19.
