data_PCOD8298062
_publ_section_title
;
Structure prediction by ZEFSAII (Michael W. Deem and Ramdas Pophale) SiO2 
 PCOD8298062
Probable space group: I M M A
;
_chemical_formula_sum "Si O2"
_cell_formula_units_Z 80
_cell_length_a 17.274607
_cell_length_b 14.511714
_cell_length_c 15.923451
_cell_angle_alpha 90.000000
_cell_angle_beta 90.000000
_cell_angle_gamma 90.000000
_cell_volume 3991.756878
_symmetry_space_group_name_H-M "I M M A"
_symmetry_group_IT_number 74
_symmetry_cell_setting 'orthorhombic'
loop_
_space_group_symop_operation_xyz
x,y,z
-x,1/2-y,z
x,-y,-z
-x,1/2+y,-z
-x,-y,-z
x,1/2+y,-z
-x,y,z
x,1/2-y,z
1/2+x,1/2+y,1/2+z
1/2-x,-y,1/2+z
1/2+x,1/2-y,1/2-z
1/2-x,y,1/2-z
1/2-x,1/2-y,1/2-z
1/2+x,y,1/2-z
1/2-x,1/2+y,1/2+z
1/2+x,-y,1/2+z
loop_
_atom_site_type_symbol
_atom_site_label
_atom_site_fract_x
_atom_site_fract_y
_atom_site_fract_z
Si Si1 0.315426 0.901076 0.042293
Si Si2 0.586123 0.651517 0.897583
Si Si3 0.912454 0.999342 0.122074
Si Si4 0.591280 0.468981 0.808667
Si Si5 0.145559 0.857301 0.999948
O O1 0.355779 0.901245 0.134453
O O2 0.228433 0.863475 0.045779
O O3 0.363174 0.835855 0.980893
O O4 0.318276 0.000000 0.000000
O O5 0.500000 0.627764 0.929010
O O6 0.589552 0.750000 0.849623
O O7 0.613205 0.573264 0.833906
O O8 0.882390 0.962800 0.211954
O O9 0.913692 0.910008 0.061431
O O10 0.000000 0.037021 0.130651
O O11 0.858571 0.083894 0.087540
O O12 0.500000 0.445742 0.820503
O O13 0.122737 0.750000 0.985666
#
# Coordination Sequence:
#
# PCOD8298062 Si02
#       5
#    16  16  16  16  16
#     4  10  18  34  55  79 115 149 182 223 277 342
#     4   9  17  30  51  82 115 148 188 228 272 334
#     4  10  22  41  60  84 111 144 197 245 286 339
#     4   9  19  35  58  82 112 153 190 234 288 334
#     4  11  22  38  59  84 113 150 190 232 291 345
#
# _framework density 20.0413
#
# number of rings (size 3 to 8) (size 9 to 14) (size 15 to 20)
#    0.000    2.200    2.000    2.400    0.000    5.600 
#    0.000    5.000    0.000    6.000    0.000    0.000 
#    0.000    0.000    0.000    0.000    0.000    0.000 
#
# Total GULP energy -495643.024821 kJ/mol
# GULP energy per Si atom -12391.075621 kJ/mol
# Density = 1.999568 g / cm^3
# Si number density = 20.041300 Si / 1000 Ang^3
#
#
#
# Elastic Constant Matrix: (Units=GPa)
#
#
# Indices 1 2 3 4 5 6 
#
# 1 71.9295 8.8996 22.4976 0.0000 0.0000 0.0000
# 2 8.8996 79.7930 11.1906 0.0000 0.0000 0.0000
# 3 22.4976 11.1906 100.7279 0.0000 0.0000 0.0000
# 4 0.0000 0.0000 0.0000 16.6124 0.0000 0.0000
# 5 0.0000 0.0000 0.0000 0.0000 25.6375 0.0000
# 6 0.0000 0.0000 0.0000 0.0000 0.0000 20.0979
#
#
#
# Elastic Compliance Matrix: (Units=1/GPa)
#
#
# Indices 1 2 3 4 5 6 
#
# 1 0.015064 -0.001227 -0.003228 0.000000 0.000000 0.000000
# 2 -0.001227 0.012831 -0.001151 0.000000 0.000000 0.000000
# 3 -0.003228 -0.001151 0.010777 0.000000 0.000000 0.000000
# 4 0.000000 0.000000 0.000000 0.060196 0.000000 0.000000
# 5 0.000000 0.000000 0.000000 0.000000 0.039005 0.000000
# 6 0.000000 0.000000 0.000000 0.000000 0.000000 0.049757
#
#
# Mechanical properties :
#
#
# Convention : Reuss Voigt Hill
#
# Bulk Modulus (GPa) = 36.41972 37.51400 36.96686
# Shear Modulus (GPa) = 24.03892 26.46037 25.24964
#
# Velocity S-wave (km/s) = 3.46709 3.63752 3.55333
# Velocity P-wave (km/s) = 5.85145 6.03333 5.94309
#
# Compressibility (1/GPa) = 0.02745765
#
# Stress axis : x y z
#
# Youngs Moduli (GPa) = 66.38314 77.93750 92.79311
#
# Poissons Ratio (x) = 0.09566 0.29956
# Poissons Ratio (y) = 0.08148 0.10684
# Poissons Ratio (z) = 0.21430 0.08973
#
# Static dielectric constant tensor:
#      x y z
#    x 3.664490 0.000000 0.000000 
#    y 0.000000 3.567260 0.000000 
#    z 0.000000 0.000000 3.620660 
# 
# 
# High freq. dielectric constant tensor:
#      x y z
#    x 1.778410 0.000000 0.000000 
#    y 0.000000 1.769440 0.000000 
#    z 0.000000 0.000000 1.766670 
# 
# From -- ./inp_files/43855.got.cif
#   From: 2010.03.12/outbox.cif.g09.slc.cpg/sg74_22_cif.got.tgz:43855.got - 2010.04.16 15:46:19.
