data_PCOD8298410
_publ_section_title
;
Structure prediction by ZEFSAII (Michael W. Deem and Ramdas Pophale) SiO2 
 PCOD8298410
Probable space group: I M M A
;
_chemical_formula_sum "Si O2"
_cell_formula_units_Z 112
_cell_length_a 28.626935
_cell_length_b 15.016464
_cell_length_c 13.677208
_cell_angle_alpha 90.000000
_cell_angle_beta 90.000000
_cell_angle_gamma 90.000000
_cell_volume 5879.494424
_symmetry_space_group_name_H-M "I M M A"
_symmetry_group_IT_number 74
_symmetry_cell_setting 'orthorhombic'
loop_
_space_group_symop_operation_xyz
x,y,z
-x,1/2-y,z
x,-y,-z
-x,1/2+y,-z
-x,-y,-z
x,1/2+y,-z
-x,y,z
x,1/2-y,z
1/2+x,1/2+y,1/2+z
1/2-x,-y,1/2+z
1/2+x,1/2-y,1/2-z
1/2-x,y,1/2-z
1/2-x,1/2-y,1/2-z
1/2+x,y,1/2-z
1/2-x,1/2+y,1/2+z
1/2+x,-y,1/2+z
loop_
_atom_site_type_symbol
_atom_site_label
_atom_site_fract_x
_atom_site_fract_y
_atom_site_fract_z
Si Si1 0.949151 0.600117 0.032667
Si Si2 0.449291 0.849927 0.679541
Si Si3 0.779226 0.534680 0.650129
Si Si4 0.702602 0.152476 0.807651
Si Si5 0.646926 0.646610 0.750328
Si Si6 0.356877 0.146524 0.624337
Si Si7 0.204419 0.353415 0.053441
O O1 0.909416 0.609559 0.114879
O O2 0.000000 0.630175 0.075043
O O3 0.952073 0.500000 0.000000
O O4 0.936763 0.655765 0.935587
O O5 0.500000 0.899044 0.696150
O O6 0.453997 0.750000 0.717687
O O7 0.406031 0.892485 0.739520
O O8 0.750000 0.531066 0.750000
O O9 0.791950 0.431882 0.618508
O O10 0.826878 0.589602 0.667464
O O11 0.750409 0.585708 0.566679
O O12 0.691138 0.250000 0.857426
O O13 0.750000 0.167279 0.750000
O O14 0.661781 0.124061 0.731923
O O15 0.647606 0.750000 0.781771
O O16 0.670919 0.635543 0.645508
O O17 0.358755 0.250000 0.603864
O O18 0.321732 0.107167 0.542210
O O19 0.219733 0.250000 0.039990
#
# Coordination Sequence:
#
# PCOD8298410 Si02
#       7
#    16  16  16  16  16  16  16
#     4  10  20  28  38  59  86 114 148 188 221 252
#     4   9  16  26  38  52  76 110 144 175 210 257
#     4   9  17  27  41  59  81 108 135 173 221 261
#     4   9  19  33  45  59  80 110 150 185 219 262
#     4   9  15  24  38  58  82 108 136 170 213 259
#     4  10  19  31  48  64  83 115 152 191 225 260
#     4   9  16  27  43  66  86 104 139 179 221 267
#
# _framework density 19.049257999999998
#
# number of rings (size 3 to 8) (size 9 to 14) (size 15 to 20)
#    0.000    2.714    1.429    0.857    2.000    3.714 
#    0.000    0.000    0.000    0.000    0.000    1.000 
#    0.000    0.000    0.000    1.286    0.000   42.571 
#
# Total GULP energy -693752.953104 kJ/mol
# GULP energy per Si atom -12388.445591 kJ/mol
# Density = 1.900590 g / cm^3
# Si number density = 19.049258 Si / 1000 Ang^3
#
#
#
# Elastic Constant Matrix: (Units=GPa)
#
#
# Indices 1 2 3 4 5 6 
#
# 1 146.6119 41.7668 25.4403 0.0000 0.0000 0.0000
# 2 41.7668 87.4869 16.1793 0.0000 0.0000 0.0000
# 3 25.4403 16.1793 17.3040 0.0000 0.0000 0.0000
# 4 0.0000 0.0000 0.0000 6.5906 0.0000 0.0000
# 5 0.0000 0.0000 0.0000 0.0000 32.6810 0.0000
# 6 0.0000 0.0000 0.0000 0.0000 0.0000 -264.5208
#
#
#
# Elastic Compliance Matrix: (Units=1/GPa)
#
#
# Indices 1 2 3 4 5 6 
#
# 1 0.009547 -0.002372 -0.011818 0.000000 0.000000 0.000000
# 2 -0.002372 0.014409 -0.009985 0.000000 0.000000 0.000000
# 3 -0.011818 -0.009985 0.084501 0.000000 0.000000 0.000000
# 4 0.000000 0.000000 0.000000 0.151732 0.000000 0.000000
# 5 0.000000 0.000000 0.000000 0.000000 0.030599 0.000000
# 6 0.000000 0.000000 0.000000 0.000000 0.000000 -0.003780
#
#
# Mechanical properties :
#
#
# Convention : Reuss Voigt Hill
#
# Bulk Modulus (GPa) = 16.63705 46.46395 31.55050
# Shear Modulus (GPa) = 14.06886 -33.84875 -9.88994
#
# Velocity S-wave (km/s) = 2.72058 -4.21991 -2.28102
# Velocity P-wave (km/s) = 4.31525 0.83720 3.10824
#
# Compressibility (1/GPa) = 0.06010681
#
# Stress axis : x y z
#
# Youngs Moduli (GPa) = 104.74177 69.39906 11.83413
#
# Poissons Ratio (x) = 0.16464 0.13986
# Poissons Ratio (y) = 0.24848 0.11816
# Poissons Ratio (z) = 1.23787 0.69295
#
# Static dielectric constant tensor:
#      x y z
#    x 4.173250 0.000000 0.000000 
#    y 0.000000 3.735770 0.000000 
#    z 0.000000 0.000000 2.648060 
# 
# 
# High freq. dielectric constant tensor:
#      x y z
#    x 1.739690 0.000000 0.000000 
#    y 0.000000 1.751000 0.000000 
#    z 0.000000 0.000000 1.664430 
# 
# From -- ./inp_files/33157.got.cif
#   From: 2010.03.12/outbox.cif.g09.slc.cpg/sg74_17_cif.got.tgz:33157.got - 2010.04.16 15:46:19.
