data_PCOD8298072
_publ_section_title
;
Structure prediction by ZEFSAII (Michael W. Deem and Ramdas Pophale) SiO2 
 PCOD8298072
Probable space group: I M M A
;
_chemical_formula_sum "Si O2"
_cell_formula_units_Z 104
_cell_length_a 8.566694
_cell_length_b 26.394420
_cell_length_c 23.974715
_cell_angle_alpha 90.000000
_cell_angle_beta 90.000000
_cell_angle_gamma 90.000000
_cell_volume 5420.992802
_symmetry_space_group_name_H-M "I M M A"
_symmetry_group_IT_number 74
_symmetry_cell_setting 'orthorhombic'
loop_
_space_group_symop_operation_xyz
x,y,z
-x,1/2-y,z
x,-y,-z
-x,1/2+y,-z
-x,-y,-z
x,1/2+y,-z
-x,y,z
x,1/2-y,z
1/2+x,1/2+y,1/2+z
1/2-x,-y,1/2+z
1/2+x,1/2-y,1/2-z
1/2-x,y,1/2-z
1/2-x,1/2-y,1/2-z
1/2+x,y,1/2-z
1/2-x,1/2+y,1/2+z
1/2+x,-y,1/2+z
loop_
_atom_site_type_symbol
_atom_site_label
_atom_site_fract_x
_atom_site_fract_y
_atom_site_fract_z
Si Si1 0.685661 0.385828 0.188687
Si Si2 0.683732 0.250000 0.812044
Si Si3 0.819105 0.075158 0.603369
Si Si4 0.818651 0.351840 0.810746
Si Si5 0.317012 0.805934 0.901813
Si Si6 0.317755 0.465479 0.392231
Si Si7 0.818344 0.393070 0.480568
O O1 0.500000 0.391142 0.188944
O O2 0.750000 0.376784 0.250000
O O3 0.742475 0.338113 0.151403
O O4 0.758288 0.436944 0.163161
O O5 0.500000 0.250000 0.812961
O O6 0.750000 0.250000 0.750000
O O7 0.745012 0.301720 0.840402
O O8 0.715159 0.099974 0.651208
O O9 0.778188 0.103008 0.545420
O O10 0.000000 0.082072 0.618212
O O11 0.778770 0.016527 0.600199
O O12 0.750000 0.362478 0.750000
O O13 0.000000 0.342821 0.803838
O O14 0.500000 0.798800 0.896147
O O15 0.237316 0.750000 0.903216
O O16 0.277388 0.836466 0.958736
O O17 0.500000 0.477471 0.386368
O O18 0.287249 0.432793 0.447397
O O19 0.000000 0.405752 0.468383
#
# Coordination Sequence:
#
# PCOD8298072 Si02
#       7
#    16   8  16  16  16  16  16
#     4  10  20  35  55  81 112 148 187 231 278 333
#     4  10  18  34  58  80 104 140 180 216 263 318
#     4  11  22  37  56  83 113 145 186 231 278 335
#     4  11  22  38  58  82 112 145 182 227 277 330
#     4   8  15  31  55  81 111 146 184 225 272 323
#     4  11  22  36  56  80 108 146 186 230 281 334
#     4   9  19  36  57  81 110 146 185 228 276 329
#
# _framework density 19.184678000000002
#
# number of rings (size 3 to 8) (size 9 to 14) (size 15 to 20)
#    0.000    2.000    0.000    6.692    0.000    4.000 
#    1.385    3.077    0.000   11.077    0.000    0.000 
#    0.000    0.000    0.000    0.000    0.000    0.000 
#
# Total GULP energy -644803.752640 kJ/mol
# GULP energy per Si atom -12400.072166 kJ/mol
# Density = 1.914101 g / cm^3
# Si number density = 19.184678 Si / 1000 Ang^3
#
#
#
# Elastic Constant Matrix: (Units=GPa)
#
#
# Indices 1 2 3 4 5 6 
#
# 1 87.3246 28.2116 31.3910 0.0000 0.0000 0.0000
# 2 28.2116 107.7197 64.1709 0.0000 0.0000 0.0000
# 3 31.3910 64.1709 114.2738 -0.0001 0.0000 0.0000
# 4 0.0000 0.0000 -0.0001 14.9915 0.0000 0.0000
# 5 0.0000 0.0000 0.0000 0.0000 27.7784 0.0000
# 6 0.0000 0.0000 0.0000 0.0000 0.0000 25.5728
#
#
#
# Elastic Compliance Matrix: (Units=1/GPa)
#
#
# Indices 1 2 3 4 5 6 
#
# 1 0.012964 -0.001914 -0.002486 0.000000 0.000000 0.000000
# 2 -0.001914 0.014233 -0.007467 0.000000 0.000000 0.000000
# 3 -0.002486 -0.007467 0.013627 0.000000 0.000000 0.000000
# 4 0.000000 0.000000 0.000000 0.066705 0.000000 0.000000
# 5 0.000000 0.000000 0.000000 0.000000 0.035999 0.000000
# 6 0.000000 0.000000 0.000000 0.000000 0.000000 0.039104
#
#
# Mechanical properties :
#
#
# Convention : Reuss Voigt Hill
#
# Bulk Modulus (GPa) = 58.51633 61.87389 60.19511
# Shear Modulus (GPa) = 23.57808 26.03816 24.80812
#
# Velocity S-wave (km/s) = 3.50952 3.68807 3.59990
# Velocity P-wave (km/s) = 6.85493 7.10335 6.98025
#
# Compressibility (1/GPa) = 0.01708925
#
# Stress axis : x y z
#
# Youngs Moduli (GPa) = 77.13885 70.26090 73.38480
#
# Poissons Ratio (x) = 0.13448 0.18245
# Poissons Ratio (y) = 0.14765 0.54794
# Poissons Ratio (z) = 0.19179 0.52461
#
# Static dielectric constant tensor:
#      x y z
#    x 3.389100 0.000000 0.000000 
#    y 0.000000 3.922670 0.000000 
#    z 0.000000 0.000000 3.470400 
# 
# 
# High freq. dielectric constant tensor:
#      x y z
#    x 1.741470 0.000000 0.000000 
#    y 0.000000 1.754860 0.000000 
#    z 0.000000 0.000000 1.736040 
# 
# From -- ./inp_files/49239.got.cif
#   From: 2010.03.12/outbox.cif.g09.slc.cpg/sg74_25_cif.got.tgz:49239.got - 2010.04.16 15:46:19.
