data_PCOD8298136
_publ_section_title
;
Structure prediction by ZEFSAII (Michael W. Deem and Ramdas Pophale) SiO2 
 PCOD8298136
Probable space group: I M M A
;
_chemical_formula_sum "Si O2"
_cell_formula_units_Z 96
_cell_length_a 7.621815
_cell_length_b 31.903338
_cell_length_c 28.523093
_cell_angle_alpha 90.000000
_cell_angle_beta 90.000000
_cell_angle_gamma 90.000000
_cell_volume 6935.713518
_symmetry_space_group_name_H-M "I M M A"
_symmetry_group_IT_number 74
_symmetry_cell_setting 'orthorhombic'
loop_
_space_group_symop_operation_xyz
x,y,z
-x,1/2-y,z
x,-y,-z
-x,1/2+y,-z
-x,-y,-z
x,1/2+y,-z
-x,y,z
x,1/2-y,z
1/2+x,1/2+y,1/2+z
1/2-x,-y,1/2+z
1/2+x,1/2-y,1/2-z
1/2-x,y,1/2-z
1/2-x,1/2-y,1/2-z
1/2+x,y,1/2-z
1/2-x,1/2+y,1/2+z
1/2+x,-y,1/2+z
loop_
_atom_site_type_symbol
_atom_site_label
_atom_site_fract_x
_atom_site_fract_y
_atom_site_fract_z
Si Si1 0.292325 0.295592 0.054970
Si Si2 0.708924 0.795488 0.839740
Si Si3 0.799466 0.382213 0.481095
Si Si4 0.704850 0.880799 0.801610
Si Si5 0.500000 0.987445 0.574988
Si Si6 0.200981 0.435173 0.387565
Si Si7 0.500000 0.065966 0.518706
O O1 0.500000 0.297811 0.057983
O O2 0.232228 0.250000 0.034518
O O3 0.230005 0.334118 0.022386
O O4 0.218021 0.300784 0.107491
O O5 0.500000 0.796772 0.840228
O O6 0.772169 0.750000 0.819773
O O7 0.785989 0.833996 0.808916
O O8 0.783359 0.401894 0.429460
O O9 0.675425 0.405694 0.518311
O O10 0.000000 0.385214 0.499241
O O11 0.500000 0.877892 0.809669
O O12 0.750000 0.897622 0.750000
O O13 0.775562 0.913160 0.840472
O O14 0.676065 0.975403 0.603359
O O15 0.500000 0.963344 0.526253
O O16 0.500000 0.037405 0.565458
O O17 0.000000 0.450779 0.382212
#
# Coordination Sequence:
#
# PCOD8298136 Si02
#       7
#    16  16  16  16   8  16   8
#     4   8  12  20  37  56  71  96 131 158 187 226
#     4   8  13  23  38  52  67  90 124 160 193 235
#     4   9  15  26  42  57  77  99 121 153 188 225
#     4  10  19  28  38  55  71  92 126 158 197 242
#     4   9  18  30  44  56  78  94 114 146 194 241
#     4   9  17  29  43  56  72  96 123 150 190 239
#     4   9  18  28  39  64  76  92 117 148 188 245
#
# _framework density 13.841402
#
# number of rings (size 3 to 8) (size 9 to 14) (size 15 to 20)
#    0.000    3.167    1.667    1.000    1.167    1.000 
#    0.000    3.750    0.000    0.000    0.000    0.000 
#    0.000    0.000    0.000    0.000    0.000    0.000 
#
# Total GULP energy -594712.901171 kJ/mol
# GULP energy per Si atom -12389.852108 kJ/mol
# Density = 1.380990 g / cm^3
# Si number density = 13.841402 Si / 1000 Ang^3
#
#
#
# Elastic Constant Matrix: (Units=GPa)
#
#
# Indices 1 2 3 4 5 6 
#
# 1 53.6183 34.8562 21.4385 0.0000 0.0000 0.0000
# 2 34.8562 91.8194 46.4694 0.0000 0.0000 0.0000
# 3 21.4385 46.4694 42.4124 0.0000 0.0000 0.0000
# 4 0.0000 0.0000 0.0000 16.4534 0.0000 0.0000
# 5 0.0000 0.0000 0.0000 0.0000 11.1268 0.0000
# 6 0.0000 0.0000 0.0000 0.0000 0.0000 8.9817
#
#
#
# Elastic Compliance Matrix: (Units=1/GPa)
#
#
# Indices 1 2 3 4 5 6 
#
# 1 0.025238 -0.007013 -0.005073 0.000000 0.000000 0.000000
# 2 -0.007013 0.026396 -0.025376 0.000000 0.000000 0.000000
# 3 -0.005073 -0.025376 0.053945 0.000000 0.000000 0.000000
# 4 0.000000 0.000000 0.000000 0.060778 0.000000 0.000000
# 5 0.000000 0.000000 0.000000 0.000000 0.089873 0.000000
# 6 0.000000 0.000000 0.000000 0.000000 0.000000 0.111338
#
#
# Mechanical properties :
#
#
# Convention : Reuss Voigt Hill
#
# Bulk Modulus (GPa) = 32.62100 43.70867 38.16483
# Shear Modulus (GPa) = 11.04458 12.98476 12.01467
#
# Velocity S-wave (km/s) = 2.82784 3.06618 2.94942
# Velocity P-wave (km/s) = 5.85501 6.64696 6.26351
#
# Compressibility (1/GPa) = 0.03065510
#
# Stress axis : x y z
#
# Youngs Moduli (GPa) = 39.62290 37.88468 18.53726
#
# Poissons Ratio (x) = 0.26570 0.09404
# Poissons Ratio (y) = 0.27789 0.47040
# Poissons Ratio (z) = 0.20101 0.96135
#
# Static dielectric constant tensor:
#      x y z
#    x 2.682000 0.000000 0.000000 
#    y 0.000000 2.952430 0.000000 
#    z 0.000000 0.000000 2.561760 
# 
# 
# High freq. dielectric constant tensor:
#      x y z
#    x 1.528380 0.000000 0.000000 
#    y 0.000000 1.512910 0.000000 
#    z 0.000000 0.000000 1.462790 
# 
# From -- ./inp_files/57519.got.cif
#   From: 2010.03.12/outbox.cif.g09.slc.cpg/sg74_29_cif.got.tgz:57519.got - 2010.04.16 15:46:19.
