data_PCOD8298957
_publ_section_title
;
Structure prediction by ZEFSAII (Michael W. Deem and Ramdas Pophale) SiO2 
 PCOD8298957
Probable space group: I M M A
;
_chemical_formula_sum "Si O2"
_cell_formula_units_Z 112
_cell_length_a 21.623437
_cell_length_b 23.788777
_cell_length_c 11.668852
_cell_angle_alpha 90.000000
_cell_angle_beta 90.000000
_cell_angle_gamma 90.000000
_cell_volume 6002.400534
_symmetry_space_group_name_H-M "I M M A"
_symmetry_group_IT_number 74
_symmetry_cell_setting 'orthorhombic'
loop_
_space_group_symop_operation_xyz
x,y,z
-x,1/2-y,z
x,-y,-z
-x,1/2+y,-z
-x,-y,-z
x,1/2+y,-z
-x,y,z
x,1/2-y,z
1/2+x,1/2+y,1/2+z
1/2-x,-y,1/2+z
1/2+x,1/2-y,1/2-z
1/2-x,y,1/2-z
1/2-x,1/2-y,1/2-z
1/2+x,y,1/2-z
1/2-x,1/2+y,1/2+z
1/2+x,-y,1/2+z
loop_
_atom_site_type_symbol
_atom_site_label
_atom_site_fract_x
_atom_site_fract_y
_atom_site_fract_z
Si Si1 0.069608 0.477737 0.197508
Si Si2 0.170568 0.512745 0.624105
Si Si3 0.667594 0.684785 0.699919
Si Si4 0.781935 0.628989 0.587531
Si Si5 0.070723 0.628265 0.939784
Si Si6 0.071137 0.107501 0.808682
Si Si7 0.693613 0.610994 0.171602
O O1 0.113776 0.464216 0.303034
O O2 0.088332 0.436008 0.094088
O O3 0.076734 0.541989 0.158935
O O4 0.000000 0.465573 0.238789
O O5 0.141727 0.500000 0.500000
O O6 0.221379 0.562273 0.615548
O O7 0.202127 0.456437 0.672201
O O8 0.683813 0.750000 0.705989
O O9 0.715128 0.653806 0.614581
O O10 0.669088 0.659885 0.828770
O O11 0.602033 0.674165 0.642095
O O12 0.800547 0.638323 0.454691
O O13 0.000000 0.639438 0.917339
O O14 0.086425 0.639432 0.073011
O O15 0.124242 0.126012 0.718077
O O16 0.000000 0.120646 0.765840
O O17 0.750000 0.634893 0.250000
#
# Coordination Sequence:
#
# PCOD8298957 Si02
#       7
#    16  16  16  16  16  16  16
#     4   9  16  28  47  76 112 147 180 209 252 321
#     4   9  18  30  46  75 110 145 175 207 259 321
#     4  11  23  38  59  78  98 138 182 229 283 314
#     4  10  20  36  53  74 107 136 175 223 262 320
#     4  10  19  33  55  80 108 140 178 226 268 310
#     4   9  18  32  52  81 116 149 178 209 259 327
#     4  10  20  32  52  81 112 145 177 211 259 324
#
# _framework density 18.659200999999999
#
# number of rings (size 3 to 8) (size 9 to 14) (size 15 to 20)
#    0.000    2.286    1.429    2.143    2.000    2.286 
#    0.000    5.714    0.000    7.714    0.000    0.000 
#    0.000    0.000    0.000    0.000    0.000    0.000 
#
# Total GULP energy -693994.689115 kJ/mol
# GULP energy per Si atom -12392.762306 kJ/mol
# Density = 1.861673 g / cm^3
# Si number density = 18.659201 Si / 1000 Ang^3
#
#
#
# Elastic Constant Matrix: (Units=GPa)
#
#
# Indices 1 2 3 4 5 6 
#
# 1 89.5314 27.7229 74.3646 0.0000 0.0000 0.0000
# 2 27.7229 54.2436 35.1841 0.0000 0.0000 0.0000
# 3 74.3646 35.1841 142.5091 0.0000 0.0000 0.0000
# 4 0.0000 0.0000 0.0000 15.1247 0.0000 0.0000
# 5 0.0000 0.0000 0.0000 0.0000 30.5776 0.0000
# 6 0.0000 0.0000 0.0000 0.0000 0.0000 3.4788
#
#
#
# Elastic Compliance Matrix: (Units=1/GPa)
#
#
# Indices 1 2 3 4 5 6 
#
# 1 0.020491 -0.004211 -0.009653 0.000000 0.000000 0.000000
# 2 -0.004211 0.022816 -0.003435 0.000000 0.000000 0.000000
# 3 -0.009653 -0.003435 0.012902 0.000000 0.000000 0.000000
# 4 0.000000 0.000000 0.000000 0.066117 0.000000 0.000000
# 5 0.000000 0.000000 0.000000 0.000000 0.032704 0.000000
# 6 0.000000 0.000000 0.000000 0.000000 0.000000 0.287453
#
#
# Mechanical properties :
#
#
# Convention : Reuss Voigt Hill
#
# Bulk Modulus (GPa) = 46.27507 62.31414 54.29461
# Shear Modulus (GPa) = 10.32447 19.77040 15.04744
#
# Velocity S-wave (km/s) = 2.35482 3.25861 2.84286
# Velocity P-wave (km/s) = 5.67869 6.90119 6.31957
#
# Compressibility (1/GPa) = 0.02160991
#
# Stress axis : x y z
#
# Youngs Moduli (GPa) = 48.80179 43.82878 77.50481
#
# Poissons Ratio (x) = 0.18458 0.74815
# Poissons Ratio (y) = 0.20552 0.26626
# Poissons Ratio (z) = 0.47108 0.15057
#
# Static dielectric constant tensor:
#      x y z
#    x 3.417240 0.000000 0.000000 
#    y 0.000000 3.132070 0.000000 
#    z 0.000000 0.000000 3.529120 
# 
# 
# High freq. dielectric constant tensor:
#      x y z
#    x 1.721930 0.000000 0.000000 
#    y 0.000000 1.688050 0.000000 
#    z 0.000000 0.000000 1.726870 
# 
# From -- ./inp_files/25417.got.cif
#   From: 2010.03.12/outbox.cif.g09.slc.cpg/sg74_13_cif.got.tgz:25417.got - 2010.04.16 15:46:19.
