data_PCOD8298104
_publ_section_title
;
Structure prediction by ZEFSAII (Michael W. Deem and Ramdas Pophale) SiO2 
 PCOD8298104
Probable space group: I M M A
;
_chemical_formula_sum "Si O2"
_cell_formula_units_Z 56
_cell_length_a 10.728545
_cell_length_b 13.911807
_cell_length_c 19.310154
_cell_angle_alpha 90.000000
_cell_angle_beta 90.000000
_cell_angle_gamma 90.000000
_cell_volume 2882.107055
_symmetry_space_group_name_H-M "I M M A"
_symmetry_group_IT_number 74
_symmetry_cell_setting 'orthorhombic'
loop_
_space_group_symop_operation_xyz
x,y,z
-x,1/2-y,z
x,-y,-z
-x,1/2+y,-z
-x,-y,-z
x,1/2+y,-z
-x,y,z
x,1/2-y,z
1/2+x,1/2+y,1/2+z
1/2-x,-y,1/2+z
1/2+x,1/2-y,1/2-z
1/2-x,y,1/2-z
1/2-x,1/2-y,1/2-z
1/2+x,y,1/2-z
1/2-x,1/2+y,1/2+z
1/2+x,-y,1/2+z
loop_
_atom_site_type_symbol
_atom_site_label
_atom_site_fract_x
_atom_site_fract_y
_atom_site_fract_z
Si Si1 0.265684 0.531314 0.105149
Si Si2 0.500000 0.362575 0.305829
Si Si3 0.357199 0.359073 0.017749
Si Si4 0.000000 0.010717 0.919683
Si Si5 0.750000 0.544182 0.750000
O O1 0.349752 0.607027 0.062898
O O2 0.123272 0.568767 0.101958
O O3 0.297875 0.522331 0.186143
O O4 0.275319 0.426353 0.067798
O O5 0.500000 0.250000 0.312658
O O6 0.500000 0.407289 0.382148
O O7 0.628119 0.392991 0.267444
O O8 0.500000 0.367102 0.041578
O O9 0.308870 0.250000 0.024596
O O10 0.000000 0.000000 0.000000
#
# Coordination Sequence:
#
# PCOD8298104 Si02
#       5
#    16   8  16   8   8
#     4  10  20  38  56  79 113 146 179 228 277 325
#     4  10  22  36  54  83 113 144 184 230 273 334
#     4  10  21  35  57  84 107 140 189 232 271 321
#     4  10  18  36  52  76 109 145 183 212 271 335
#     4  10  23  36  57  80 114 150 182 218 288 336
#
# _framework density 19.430230000000002
#
# number of rings (size 3 to 8) (size 9 to 14) (size 15 to 20)
#    0.000    2.000    2.857    2.143    4.000    5.714 
#    0.000    1.429    0.000    0.000    0.000    0.000 
#    0.000    0.000    0.000    0.000    0.000    0.000 
#
# Total GULP energy -346956.202585 kJ/mol
# GULP energy per Si atom -12391.292949 kJ/mol
# Density = 1.938601 g / cm^3
# Si number density = 19.430230 Si / 1000 Ang^3
#
#
#
# Elastic Constant Matrix: (Units=GPa)
#
#
# Indices 1 2 3 4 5 6 
#
# 1 100.9203 14.5382 16.4995 0.0000 0.0000 0.0000
# 2 14.5382 60.5443 18.0178 0.0000 0.0000 0.0000
# 3 16.4995 18.0178 133.7530 0.0000 0.0000 0.0000
# 4 0.0000 0.0000 0.0000 16.3059 0.0000 0.0000
# 5 0.0000 0.0000 0.0000 0.0000 27.8226 0.0000
# 6 0.0000 0.0000 0.0000 0.0000 0.0000 18.8863
#
#
#
# Elastic Compliance Matrix: (Units=1/GPa)
#
#
# Indices 1 2 3 4 5 6 
#
# 1 0.010387 -0.002201 -0.000985 0.000000 0.000000 0.000000
# 2 -0.002201 0.017673 -0.002109 0.000000 0.000000 0.000000
# 3 -0.000985 -0.002109 0.007882 0.000000 0.000000 0.000000
# 4 0.000000 0.000000 0.000000 0.061327 0.000000 0.000000
# 5 0.000000 0.000000 0.000000 0.000000 0.035942 0.000000
# 6 0.000000 0.000000 0.000000 0.000000 0.000000 0.052948
#
#
# Mechanical properties :
#
#
# Convention : Reuss Voigt Hill
#
# Bulk Modulus (GPa) = 39.44483 43.70317 41.57400
# Shear Modulus (GPa) = 24.36641 29.01378 26.69010
#
# Velocity S-wave (km/s) = 3.54509 3.86842 3.71028
# Velocity P-wave (km/s) = 6.09112 6.51875 6.30856
#
# Compressibility (1/GPa) = 0.02535186
#
# Stress axis : x y z
#
# Youngs Moduli (GPa) = 96.27514 56.58332 126.87011
#
# Poissons Ratio (x) = 0.12454 0.12494
# Poissons Ratio (y) = 0.21191 0.26759
# Poissons Ratio (z) = 0.09481 0.11935
#
# Static dielectric constant tensor:
#      x y z
#    x 3.712960 0.000000 0.000000 
#    y 0.000000 3.292870 0.000000 
#    z 0.000000 0.000000 3.699500 
# 
# 
# High freq. dielectric constant tensor:
#      x y z
#    x 1.778300 0.000000 0.000000 
#    y 0.000000 1.712730 0.000000 
#    z 0.000000 0.000000 1.759850 
# 
# From -- ./inp_files/40629.got.cif
#   From: 2010.03.12/outbox.cif.g09.slc.cpg/sg74_21_cif.got.tgz:40629.got - 2010.04.16 15:46:19.
