data_PCOD8298307
_publ_section_title
;
Structure prediction by ZEFSAII (Michael W. Deem and Ramdas Pophale) SiO2 
 PCOD8298307
Probable space group: I M M A
;
_chemical_formula_sum "Si O2"
_cell_formula_units_Z 128
_cell_length_a 17.936978
_cell_length_b 19.745726
_cell_length_c 22.035887
_cell_angle_alpha 90.000000
_cell_angle_beta 90.000000
_cell_angle_gamma 90.000000
_cell_volume 7804.640772
_symmetry_space_group_name_H-M "I M M A"
_symmetry_group_IT_number 74
_symmetry_cell_setting 'orthorhombic'
loop_
_space_group_symop_operation_xyz
x,y,z
-x,1/2-y,z
x,-y,-z
-x,1/2+y,-z
-x,-y,-z
x,1/2+y,-z
-x,y,z
x,1/2-y,z
1/2+x,1/2+y,1/2+z
1/2-x,-y,1/2+z
1/2+x,1/2-y,1/2-z
1/2-x,y,1/2-z
1/2-x,1/2-y,1/2-z
1/2+x,y,1/2-z
1/2-x,1/2+y,1/2+z
1/2+x,-y,1/2+z
loop_
_atom_site_type_symbol
_atom_site_label
_atom_site_fract_x
_atom_site_fract_y
_atom_site_fract_z
Si Si1 0.913426 0.999869 0.816945
Si Si2 0.680909 0.564804 0.214665
Si Si3 0.286167 0.826728 0.916946
Si Si4 0.308795 0.324759 0.536994
Si Si5 0.418215 0.830463 0.995717
Si Si6 0.333534 0.828963 0.113841
Si Si7 0.735291 0.928091 0.684926
Si Si8 0.415248 0.054013 0.547953
O O1 0.886675 0.047311 0.760979
O O2 0.906916 0.035624 0.881836
O O3 0.000000 0.976834 0.805893
O O4 0.854195 0.938484 0.820935
O O5 0.750000 0.599239 0.250000
O O6 0.649205 0.620884 0.169176
O O7 0.716173 0.497979 0.181490
O O8 0.292877 0.750000 0.891787
O O9 0.365254 0.855306 0.941306
O O10 0.260533 0.876225 0.865063
O O11 0.229063 0.829072 0.971854
O O12 0.341544 0.250000 0.547204
O O13 0.250084 0.341015 0.590166
O O14 0.376788 0.374879 0.538609
O O15 0.500000 0.860909 0.984245
O O16 0.417122 0.750000 0.995088
O O17 0.390084 0.853241 0.061619
O O18 0.346005 0.750000 0.132046
O O19 0.750000 0.893789 0.750000
O O20 0.500000 0.064761 0.528838
O O21 0.379884 0.000000 0.500000
#
# Coordination Sequence:
#
# PCOD8298307 Si02
#       8
#    16  16  16  16  16  16  16  16
#     4   9  18  32  48  66  91 121 153 191 232 274
#     4   9  18  31  46  65  92 126 160 193 231 275
#     4   9  17  30  49  71  92 118 153 190 231 277
#     4   9  17  29  45  66  93 120 147 187 236 278
#     4   8  15  29  48  70  97 125 152 188 235 283
#     4   9  17  29  47  70  93 123 161 194 227 272
#     4   9  18  32  49  68  91 122 155 187 231 281
#     4  10  19  30  47  68  86 112 153 194 231 276
#
# _framework density 16.400497999999999
#
# number of rings (size 3 to 8) (size 9 to 14) (size 15 to 20)
#    0.000    3.250    0.000    3.750    0.000    1.250 
#    0.000    5.000    0.000    2.625    0.000    0.000 
#    0.000    0.000    0.000    0.000    0.000    0.000 
#
# Total GULP energy -792976.806535 kJ/mol
# GULP energy per Si atom -12390.262602 kJ/mol
# Density = 1.636317 g / cm^3
# Si number density = 16.400498 Si / 1000 Ang^3
#
#
#
# Elastic Constant Matrix: (Units=GPa)
#
#
# Indices 1 2 3 4 5 6 
#
# 1 115.6893 49.5113 50.9157 0.0000 0.0000 0.0000
# 2 49.5113 73.6537 64.3512 0.0000 0.0000 0.0000
# 3 50.9157 64.3512 99.0029 0.0000 0.0000 0.0000
# 4 0.0000 0.0000 0.0000 28.0270 0.0000 0.0000
# 5 0.0000 0.0000 0.0000 0.0000 9.2134 0.0000
# 6 0.0000 0.0000 0.0000 0.0000 0.0000 14.5086
#
#
#
# Elastic Compliance Matrix: (Units=1/GPa)
#
#
# Indices 1 2 3 4 5 6 
#
# 1 0.012340 -0.006365 -0.002209 0.000000 0.000000 0.000000
# 2 -0.006365 0.034704 -0.019284 0.000000 0.000000 0.000000
# 3 -0.002209 -0.019284 0.023771 0.000000 0.000000 0.000000
# 4 0.000000 0.000000 0.000000 0.035680 0.000000 0.000000
# 5 0.000000 0.000000 0.000000 0.000000 0.108538 0.000000
# 6 0.000000 0.000000 0.000000 0.000000 0.000000 0.068925
#
#
# Mechanical properties :
#
#
# Convention : Reuss Voigt Hill
#
# Bulk Modulus (GPa) = 66.22872 68.65582 67.44227
# Shear Modulus (GPa) = 14.50505 18.58764 16.54635
#
# Velocity S-wave (km/s) = 2.97716 3.37019 3.17975
# Velocity P-wave (km/s) = 7.23103 7.55627 7.39544
#
# Compressibility (1/GPa) = 0.01509919
#
# Stress axis : x y z
#
# Youngs Moduli (GPa) = 81.03610 28.81488 42.06773
#
# Poissons Ratio (x) = 0.18342 0.09293
# Poissons Ratio (y) = 0.51582 0.81123
# Poissons Ratio (z) = 0.17901 0.55566
#
# Static dielectric constant tensor:
#      x y z
#    x 3.315360 0.000000 0.000000 
#    y 0.000000 2.915480 0.000000 
#    z 0.000000 0.000000 3.143660 
# 
# 
# High freq. dielectric constant tensor:
#      x y z
#    x 1.629950 0.000000 0.000000 
#    y 0.000000 1.606610 0.000000 
#    z 0.000000 0.000000 1.634670 
# 
# From -- ./inp_files/53412.got.cif
#   From: 2010.03.12/outbox.cif.g09.slc.cpg/sg74_27_cif.got.tgz:53412.got - 2010.04.16 15:46:19.
