data_PCOD8298435
_publ_section_title
;
Structure prediction by ZEFSAII (Michael W. Deem and Ramdas Pophale) SiO2 
 PCOD8298435
Probable space group: I M M A
;
_chemical_formula_sum "Si O2"
_cell_formula_units_Z 104
_cell_length_a 21.941976
_cell_length_b 8.852584
_cell_length_c 29.899943
_cell_angle_alpha 90.000000
_cell_angle_beta 90.000000
_cell_angle_gamma 90.000000
_cell_volume 5807.860180
_symmetry_space_group_name_H-M "I M M A"
_symmetry_group_IT_number 74
_symmetry_cell_setting 'orthorhombic'
loop_
_space_group_symop_operation_xyz
x,y,z
-x,1/2-y,z
x,-y,-z
-x,1/2+y,-z
-x,-y,-z
x,1/2+y,-z
-x,y,z
x,1/2-y,z
1/2+x,1/2+y,1/2+z
1/2-x,-y,1/2+z
1/2+x,1/2-y,1/2-z
1/2-x,y,1/2-z
1/2-x,1/2-y,1/2-z
1/2+x,y,1/2-z
1/2-x,1/2+y,1/2+z
1/2+x,-y,1/2+z
loop_
_atom_site_type_symbol
_atom_site_label
_atom_site_fract_x
_atom_site_fract_y
_atom_site_fract_z
Si Si1 0.428108 0.574932 0.806574
Si Si2 0.000000 0.429243 0.451250
Si Si3 0.356508 0.928659 0.453489
Si Si4 0.219174 0.425103 0.545136
Si Si5 0.427568 0.079693 0.716026
Si Si6 0.892840 0.926948 0.395603
Si Si7 0.072253 0.422984 0.126095
O O1 0.500000 0.550078 0.812505
O O2 0.410697 0.750000 0.809867
O O3 0.404486 0.511167 0.759331
O O4 0.393588 0.481832 0.844694
O O5 0.000000 0.500000 0.500000
O O6 0.059401 0.480475 0.424753
O O7 0.000000 0.250000 0.455255
O O8 0.362459 0.750000 0.456734
O O9 0.287232 0.981870 0.443053
O O10 0.378927 0.000000 0.500000
O O11 0.399931 0.986907 0.414865
O O12 0.193837 0.500000 0.500000
O O13 0.220523 0.250000 0.534645
O O14 0.174568 0.463085 0.586083
O O15 0.500000 0.081224 0.715531
O O16 0.401660 0.250000 0.717231
O O17 0.402856 0.995868 0.671989
O O18 0.908790 0.750000 0.398286
O O19 0.093507 0.250000 0.124598
O O20 0.000000 0.437501 0.123084
#
# Coordination Sequence:
#
# PCOD8298435 Si02
#       7
#    16   8  16  16  16  16  16
#     4  10  19  31  48  73 105 137 172 214 260 309
#     4  12  24  36  48  70 102 136 172 216 269 318
#     4  10  20  36  56  78 105 136 173 212 253 303
#     4   9  20  36  54  75  98 131 174 217 257 305
#     4   9  17  30  50  75 103 137 173 208 252 306
#     4  11  21  34  52  74 101 134 173 217 264 312
#     4  10  20  34  53  80 111 139 169 206 252 304
#
# _framework density 17.906766999999999
#
# number of rings (size 3 to 8) (size 9 to 14) (size 15 to 20)
#    0.000    2.000    0.769    3.462    0.000    6.769 
#    0.000    0.000    0.000    0.923    0.000    6.462 
#    0.000    0.000    0.000    0.000    0.000    0.000 
#
# Total GULP energy -644935.097450 kJ/mol
# GULP energy per Si atom -12402.598028 kJ/mol
# Density = 1.786601 g / cm^3
# Si number density = 17.906767 Si / 1000 Ang^3
#
#
#
# Elastic Constant Matrix: (Units=GPa)
#
#
# Indices 1 2 3 4 5 6 
#
# 1 30.6128 26.8644 33.7245 0.0000 0.0000 0.0000
# 2 26.8644 112.1990 59.5362 0.0000 0.0000 0.0000
# 3 33.7245 59.5362 153.5789 0.0000 0.0000 0.0000
# 4 0.0000 0.0000 0.0000 40.2741 0.0000 0.0000
# 5 0.0000 0.0000 0.0000 0.0000 13.0089 0.0000
# 6 0.0000 0.0000 0.0000 0.0000 0.0000 16.2226
#
#
#
# Elastic Compliance Matrix: (Units=1/GPa)
#
#
# Indices 1 2 3 4 5 6 
#
# 1 0.047454 -0.007343 -0.007574 0.000000 0.000000 0.000000
# 2 -0.007343 0.012357 -0.003178 0.000000 0.000000 0.000000
# 3 -0.007574 -0.003178 0.009406 0.000000 0.000000 0.000000
# 4 0.000000 0.000000 0.000000 0.024830 0.000000 0.000000
# 5 0.000000 0.000000 0.000000 0.000000 0.076870 0.000000
# 6 0.000000 0.000000 0.000000 0.000000 0.000000 0.061642
#
#
# Mechanical properties :
#
#
# Convention : Reuss Voigt Hill
#
# Bulk Modulus (GPa) = 30.27770 59.62675 44.95223
# Shear Modulus (GPa) = 17.87257 25.65218 21.76238
#
# Velocity S-wave (km/s) = 3.16268 3.78900 3.48992
# Velocity P-wave (km/s) = 5.50291 7.24657 6.43408
#
# Compressibility (1/GPa) = 0.03302760
#
# Stress axis : x y z
#
# Youngs Moduli (GPa) = 21.07321 80.92421 106.31103
#
# Poissons Ratio (x) = 0.59424 0.80517
# Poissons Ratio (y) = 0.15475 0.33785
# Poissons Ratio (z) = 0.15960 0.25717
#
# Static dielectric constant tensor:
#      x y z
#    x 3.100760 0.000000 0.000000 
#    y 0.000000 3.503120 0.000000 
#    z 0.000000 0.000000 3.531230 
# 
# 
# High freq. dielectric constant tensor:
#      x y z
#    x 1.656160 0.000000 0.000000 
#    y 0.000000 1.711060 0.000000 
#    z 0.000000 0.000000 1.704460 
# 
# From -- ./inp_files/68640.got.cif
#   From: 2010.03.12/outbox.cif.g09.slc.cpg/sg74_35_cif.got.tgz:68640.got - 2010.04.16 15:46:19.
