data_PCOD8298493
_publ_section_title
;
Structure prediction by ZEFSAII (Michael W. Deem and Ramdas Pophale) SiO2 
 PCOD8298493
Probable space group: I M M A
;
_chemical_formula_sum "Si O2"
_cell_formula_units_Z 64
_cell_length_a 9.072514
_cell_length_b 27.301322
_cell_length_c 14.579734
_cell_angle_alpha 90.000000
_cell_angle_beta 90.000000
_cell_angle_gamma 90.000000
_cell_volume 3611.278022
_symmetry_space_group_name_H-M "I M M A"
_symmetry_group_IT_number 74
_symmetry_cell_setting 'orthorhombic'
loop_
_space_group_symop_operation_xyz
x,y,z
-x,1/2-y,z
x,-y,-z
-x,1/2+y,-z
-x,-y,-z
x,1/2+y,-z
-x,y,z
x,1/2-y,z
1/2+x,1/2+y,1/2+z
1/2-x,-y,1/2+z
1/2+x,1/2-y,1/2-z
1/2-x,y,1/2-z
1/2-x,1/2-y,1/2-z
1/2+x,y,1/2-z
1/2-x,1/2+y,1/2+z
1/2+x,-y,1/2+z
loop_
_atom_site_type_symbol
_atom_site_label
_atom_site_fract_x
_atom_site_fract_y
_atom_site_fract_z
Si Si1 0.327524 0.609137 0.025356
Si Si2 0.674602 0.419221 0.340495
Si Si3 0.328339 0.194748 0.841683
Si Si4 0.660696 0.977407 0.400690
O O1 0.500000 0.602829 0.005673
O O2 0.288160 0.660842 0.071880
O O3 0.278229 0.566564 0.096810
O O4 0.240270 0.607128 0.930028
O O5 0.500000 0.410229 0.339429
O O6 0.750000 0.395974 0.250000
O O7 0.714204 0.477292 0.338169
O O8 0.500000 0.192322 0.820773
O O9 0.277019 0.250000 0.865684
O O10 0.250000 0.175372 0.750000
O O11 0.500000 0.957544 0.367918
O O12 0.641013 0.000000 0.500000
#
# Coordination Sequence:
#
# PCOD8298493 Si02
#       4
#    16  16  16  16
#     4  10  19  31  50  74  99 129 164 202 243 288
#     4  10  20  33  49  70  99 134 168 202 240 284
#     4   9  19  35  53  74  99 126 158 198 245 294
#     4   8  16  30  45  64  93 127 160 195 234 276
#
# _framework density 17.722258
#
# number of rings (size 3 to 8) (size 9 to 14) (size 15 to 20)
#    0.000    2.750    0.000    3.000    0.000    8.500 
#    0.000    5.000    0.000    0.750    0.000    0.000 
#    0.000    0.000    0.000    0.000    0.000    0.000 
#
# Total GULP energy -396622.431142 kJ/mol
# GULP energy per Si atom -12394.450973 kJ/mol
# Density = 1.768192 g / cm^3
# Si number density = 17.722258 Si / 1000 Ang^3
#
#
#
# Elastic Constant Matrix: (Units=GPa)
#
#
# Indices 1 2 3 4 5 6 
#
# 1 93.3439 50.7292 63.7247 0.0000 0.0000 0.0000
# 2 50.7292 80.8486 52.0825 0.0002 0.0000 0.0000
# 3 63.7247 52.0825 109.0305 0.0003 0.0001 0.0000
# 4 0.0000 0.0002 0.0003 20.7034 0.0000 0.0000
# 5 0.0000 0.0000 0.0001 0.0000 25.9671 0.0000
# 6 0.0000 0.0000 0.0000 0.0000 0.0000 23.4183
#
#
#
# Elastic Compliance Matrix: (Units=1/GPa)
#
#
# Indices 1 2 3 4 5 6 
#
# 1 0.020515 -0.007437 -0.008438 0.000000 0.000000 0.000000
# 2 -0.007437 0.020563 -0.005476 0.000000 0.000000 0.000000
# 3 -0.008438 -0.005476 0.016719 0.000000 0.000000 0.000000
# 4 0.000000 0.000000 0.000000 0.048301 0.000000 0.000000
# 5 0.000000 0.000000 0.000000 0.000000 0.038510 0.000000
# 6 0.000000 0.000000 0.000000 0.000000 0.000000 0.042702
#
#
# Mechanical properties :
#
#
# Convention : Reuss Voigt Hill
#
# Bulk Modulus (GPa) = 66.24413 68.47734 67.36073
# Shear Modulus (GPa) = 21.27261 21.79685 21.53473
#
# Velocity S-wave (km/s) = 3.46834 3.51082 3.48964
# Velocity P-wave (km/s) = 7.31433 7.42681 7.37078
#
# Compressibility (1/GPa) = 0.01509568
#
# Stress axis : x y z
#
# Youngs Moduli (GPa) = 48.74427 48.63175 59.81094
#
# Poissons Ratio (x) = 0.36166 0.50469
# Poissons Ratio (y) = 0.36250 0.32753
# Poissons Ratio (z) = 0.41131 0.26631
#
# Static dielectric constant tensor:
#      x y z
#    x 3.347620 0.000000 0.000000 
#    y 0.000000 3.378170 0.000000 
#    z 0.000000 0.000000 3.294820 
# 
# 
# High freq. dielectric constant tensor:
#      x y z
#    x 1.694230 0.000000 0.000000 
#    y 0.000000 1.658860 0.000000 
#    z 0.000000 0.000000 1.677510 
# 
# From -- ./inp_files/28797.got.cif
#   From: 2010.03.12/outbox.cif.g09.slc.cpg/sg74_15_cif.got.tgz:28797.got - 2010.04.16 15:46:19.
