data_PCOD8298208
_publ_section_title
;
Structure prediction by ZEFSAII (Michael W. Deem and Ramdas Pophale) SiO2 
 PCOD8298208
Probable space group: I M M A
;
_chemical_formula_sum "Si O2"
_cell_formula_units_Z 104
_cell_length_a 13.323819
_cell_length_b 25.748064
_cell_length_c 18.779239
_cell_angle_alpha 90.000000
_cell_angle_beta 90.000000
_cell_angle_gamma 90.000000
_cell_volume 6442.453512
_symmetry_space_group_name_H-M "I M M A"
_symmetry_group_IT_number 74
_symmetry_cell_setting 'orthorhombic'
loop_
_space_group_symop_operation_xyz
x,y,z
-x,1/2-y,z
x,-y,-z
-x,1/2+y,-z
-x,-y,-z
x,1/2+y,-z
-x,y,z
x,1/2-y,z
1/2+x,1/2+y,1/2+z
1/2-x,-y,1/2+z
1/2+x,1/2-y,1/2-z
1/2-x,y,1/2-z
1/2-x,1/2-y,1/2-z
1/2+x,y,1/2-z
1/2-x,1/2+y,1/2+z
1/2+x,-y,1/2+z
loop_
_atom_site_type_symbol
_atom_site_label
_atom_site_fract_x
_atom_site_fract_y
_atom_site_fract_z
Si Si1 0.111412 0.934439 0.717930
Si Si2 0.385020 0.551166 0.183167
Si Si3 0.250000 0.134845 0.750000
Si Si4 0.615168 0.688944 0.366374
Si Si5 0.301652 0.080859 0.364155
Si Si6 0.768629 0.475574 0.929249
Si Si7 0.615455 0.615903 0.493612
O O1 0.185328 0.911204 0.658052
O O2 0.130253 0.908114 0.794827
O O3 0.000000 0.920942 0.692001
O O4 0.128245 0.996624 0.724826
O O5 0.500000 0.562681 0.165127
O O6 0.342793 0.598412 0.228969
O O7 0.324150 0.550957 0.109866
O O8 0.298654 0.169807 0.687999
O O9 0.500000 0.674220 0.342995
O O10 0.626927 0.750000 0.372739
O O11 0.636918 0.666263 0.445312
O O12 0.325563 0.118804 0.430658
O O13 0.322574 0.021016 0.384843
O O14 0.720615 0.500000 0.000000
O O15 0.853553 0.433657 0.946696
O O16 0.500000 0.610168 0.513931
#
# Coordination Sequence:
#
# PCOD8298208 Si02
#       7
#    16  16   8  16  16  16  16
#     4   9  17  28  43  67 102 135 160 189 221 262
#     4  10  19  29  44  67  94 128 162 191 226 271
#     4  12  19  34  52  68  92 120 156 200 239 280
#     4  10  22  37  53  72  91 116 153 200 250 289
#     4   9  17  28  44  68  97 126 159 191 220 279
#     4   9  17  29  42  64  96 126 160 193 226 270
#     4  10  19  31  48  68  91 120 154 196 240 281
#
# _framework density 16.142918999999999
#
# number of rings (size 3 to 8) (size 9 to 14) (size 15 to 20)
#    0.000    2.308    1.538    3.000    0.000    3.692 
#    0.000    2.308    0.000    0.000    0.000    2.154 
#    0.000    1.231    0.000    0.000    0.000    0.000 
#
# Total GULP energy -644500.737716 kJ/mol
# GULP energy per Si atom -12394.244956 kJ/mol
# Density = 1.610618 g / cm^3
# Si number density = 16.142919 Si / 1000 Ang^3
#
#
#
# Elastic Constant Matrix: (Units=GPa)
#
#
# Indices 1 2 3 4 5 6 
#
# 1 106.3508 31.6873 53.4108 0.0000 0.0000 0.0000
# 2 31.6873 48.2755 34.4692 0.0000 0.0000 0.0000
# 3 53.4108 34.4692 103.2233 0.0000 0.0000 0.0000
# 4 0.0000 0.0000 0.0000 21.8871 0.0000 0.0000
# 5 0.0000 0.0000 0.0000 0.0000 24.9382 0.0000
# 6 0.0000 0.0000 0.0000 0.0000 0.0000 16.3314
#
#
#
# Elastic Compliance Matrix: (Units=1/GPa)
#
#
# Indices 1 2 3 4 5 6 
#
# 1 0.013606 -0.005126 -0.005328 0.000000 0.000000 0.000000
# 2 -0.005126 0.029131 -0.007075 0.000000 0.000000 0.000000
# 3 -0.005328 -0.007075 0.014807 0.000000 0.000000 0.000000
# 4 0.000000 0.000000 0.000000 0.045689 0.000000 0.000000
# 5 0.000000 0.000000 0.000000 0.000000 0.040099 0.000000
# 6 0.000000 0.000000 0.000000 0.000000 0.000000 0.061232
#
#
# Mechanical properties :
#
#
# Convention : Reuss Voigt Hill
#
# Bulk Modulus (GPa) = 44.47447 55.22046 49.84747
# Shear Modulus (GPa) = 20.23313 21.85017 21.04165
#
# Velocity S-wave (km/s) = 3.54414 3.68305 3.61426
# Velocity P-wave (km/s) = 6.66020 7.23657 6.95436
#
# Compressibility (1/GPa) = 0.02248481
#
# Stress axis : x y z
#
# Youngs Moduli (GPa) = 73.49552 34.32762 67.53370
#
# Poissons Ratio (x) = 0.17598 0.35985
# Poissons Ratio (y) = 0.37677 0.47781
# Poissons Ratio (z) = 0.39162 0.24287
#
# Static dielectric constant tensor:
#      x y z
#    x 3.128540 0.000000 0.000000 
#    y 0.000000 2.754220 0.000000 
#    z 0.000000 0.000000 3.309320 
# 
# 
# High freq. dielectric constant tensor:
#      x y z
#    x 1.624730 0.000000 0.000000 
#    y 0.000000 1.575840 0.000000 
#    z 0.000000 0.000000 1.627400 
# 
# From -- ./inp_files/43144.got.cif
#   From: 2010.03.12/outbox.cif.g09.slc.cpg/sg74_22_cif.got.tgz:43144.got - 2010.04.16 15:46:19.
