data_PCOD8298089
_publ_section_title
;
Structure prediction by ZEFSAII (Michael W. Deem and Ramdas Pophale) SiO2 
 PCOD8298089
Probable space group: I M M A
;
_chemical_formula_sum "Si O2"
_cell_formula_units_Z 72
_cell_length_a 8.597491
_cell_length_b 13.027168
_cell_length_c 31.880380
_cell_angle_alpha 90.000000
_cell_angle_beta 90.000000
_cell_angle_gamma 90.000000
_cell_volume 3570.633154
_symmetry_space_group_name_H-M "I M M A"
_symmetry_group_IT_number 74
_symmetry_cell_setting 'orthorhombic'
loop_
_space_group_symop_operation_xyz
x,y,z
-x,1/2-y,z
x,-y,-z
-x,1/2+y,-z
-x,-y,-z
x,1/2+y,-z
-x,y,z
x,1/2-y,z
1/2+x,1/2+y,1/2+z
1/2-x,-y,1/2+z
1/2+x,1/2-y,1/2-z
1/2-x,y,1/2-z
1/2-x,1/2-y,1/2-z
1/2+x,y,1/2-z
1/2-x,1/2+y,1/2+z
1/2+x,-y,1/2+z
loop_
_atom_site_type_symbol
_atom_site_label
_atom_site_fract_x
_atom_site_fract_y
_atom_site_fract_z
Si Si1 0.182101 0.458810 0.704072
Si Si2 0.315961 0.250000 0.703331
Si Si3 0.815696 0.430122 0.437239
Si Si4 0.679492 0.866826 0.648424
Si Si5 0.684050 0.139289 0.972037
O O1 0.250000 0.479124 0.750000
O O2 0.253726 0.355648 0.682368
O O3 0.215774 0.557121 0.675606
O O4 0.000000 0.442473 0.708099
O O5 0.500000 0.250000 0.702729
O O6 0.250000 0.250000 0.750000
O O7 0.722844 0.376544 0.400210
O O8 0.758452 0.378820 0.480459
O O9 0.764482 0.550354 0.439899
O O10 0.000000 0.417377 0.429723
O O11 0.500000 0.895505 0.655078
O O12 0.712191 0.750000 0.662836
O O13 0.500000 0.137250 0.974395
O O14 0.746654 0.250000 0.956087
#
# Coordination Sequence:
#
# PCOD8298089 Si02
#       5
#    16   8  16  16  16
#     4  11  22  39  63  89 116 149 190 233 282 337
#     4  10  18  34  60  88 118 148 182 224 272 330
#     4   9  17  31  53  79 106 142 187 233 282 339
#     4  11  24  40  56  78 112 152 193 239 292 345
#     4   8  14  27  50  79 109 141 180 229 283 338
#
# _framework density 20.164491999999999
#
# number of rings (size 3 to 8) (size 9 to 14) (size 15 to 20)
#    0.000    2.222    0.000    7.000    0.000    3.111 
#    2.000    2.222    0.000    1.333    0.000    0.000 
#    0.000    0.000    0.000    0.000    0.000    0.000 
#
# Total GULP energy -446238.844065 kJ/mol
# GULP energy per Si atom -12395.523446 kJ/mol
# Density = 2.011860 g / cm^3
# Si number density = 20.164492 Si / 1000 Ang^3
#
#
#
# Elastic Constant Matrix: (Units=GPa)
#
#
# Indices 1 2 3 4 5 6 
#
# 1 105.4386 40.0709 20.1918 0.0000 0.0000 0.0000
# 2 40.0709 136.8065 19.2206 0.0000 0.0000 0.0000
# 3 20.1918 19.2206 45.9982 0.0000 0.0000 0.0000
# 4 0.0000 0.0000 0.0000 29.1462 0.0000 0.0000
# 5 0.0000 0.0000 0.0000 0.0000 24.6391 0.0000
# 6 0.0000 0.0000 0.0000 0.0000 0.0000 25.6857
#
#
#
# Elastic Compliance Matrix: (Units=1/GPa)
#
#
# Indices 1 2 3 4 5 6 
#
# 1 0.011261 -0.002766 -0.003787 0.000000 0.000000 0.000000
# 2 -0.002766 0.008445 -0.002315 0.000000 0.000000 0.000000
# 3 -0.003787 -0.002315 0.024370 0.000000 0.000000 0.000000
# 4 0.000000 0.000000 0.000000 0.034310 0.000000 0.000000
# 5 0.000000 0.000000 0.000000 0.000000 0.040586 0.000000
# 6 0.000000 0.000000 0.000000 0.000000 0.000000 0.038932
#
#
# Mechanical properties :
#
#
# Convention : Reuss Voigt Hill
#
# Bulk Modulus (GPa) = 37.96592 49.68999 43.82796
# Shear Modulus (GPa) = 27.11219 29.81153 28.46186
#
# Velocity S-wave (km/s) = 3.67079 3.84919 3.76105
# Velocity P-wave (km/s) = 6.06920 6.66715 6.37519
#
# Compressibility (1/GPa) = 0.02633941
#
# Stress axis : x y z
#
# Youngs Moduli (GPa) = 88.80421 118.41325 41.03469
#
# Poissons Ratio (x) = 0.32755 0.15541
# Poissons Ratio (y) = 0.24565 0.09498
# Poissons Ratio (z) = 0.33632 0.27407
#
# Static dielectric constant tensor:
#      x y z
#    x 3.405420 0.000000 0.000000 
#    y 0.000000 4.454260 0.000000 
#    z 0.000000 0.000000 3.352120 
# 
# 
# High freq. dielectric constant tensor:
#      x y z
#    x 1.767270 0.000000 0.000000 
#    y 0.000000 1.812310 0.000000 
#    z 0.000000 0.000000 1.758970 
# 
# From -- ./inp_files/69986.got.cif
#   From: 2010.03.12/outbox.cif.g09.slc.cpg/sg74_35_cif.got.tgz:69986.got - 2010.04.16 15:46:19.
