data_PCOD8298647
_publ_section_title
;
Structure prediction by ZEFSAII (Michael W. Deem and Ramdas Pophale) SiO2 
 PCOD8298647
Probable space group: I M M A
;
_chemical_formula_sum "Si O2"
_cell_formula_units_Z 112
_cell_length_a 15.396458
_cell_length_b 27.249959
_cell_length_c 14.940132
_cell_angle_alpha 90.000000
_cell_angle_beta 90.000000
_cell_angle_gamma 90.000000
_cell_volume 6268.174949
_symmetry_space_group_name_H-M "I M M A"
_symmetry_group_IT_number 74
_symmetry_cell_setting 'orthorhombic'
loop_
_space_group_symop_operation_xyz
x,y,z
-x,1/2-y,z
x,-y,-z
-x,1/2+y,-z
-x,-y,-z
x,1/2+y,-z
-x,y,z
x,1/2-y,z
1/2+x,1/2+y,1/2+z
1/2-x,-y,1/2+z
1/2+x,1/2-y,1/2-z
1/2-x,y,1/2-z
1/2-x,1/2-y,1/2-z
1/2+x,y,1/2-z
1/2-x,1/2+y,1/2+z
1/2+x,-y,1/2+z
loop_
_atom_site_type_symbol
_atom_site_label
_atom_site_fract_x
_atom_site_fract_y
_atom_site_fract_z
Si Si1 0.158380 0.474119 0.913715
Si Si2 0.901611 0.379195 0.625556
Si Si3 0.348997 0.693957 0.263770
Si Si4 0.399910 0.693349 0.468034
Si Si5 0.754694 0.380572 0.997414
Si Si6 0.095930 0.525044 0.280749
Si Si7 0.213760 0.445257 0.342033
O O1 0.194346 0.421323 0.941035
O O2 0.097745 0.468734 0.827067
O O3 0.235281 0.509346 0.883708
O O4 0.111226 0.500000 0.000000
O O5 0.910708 0.338413 0.702020
O O6 0.830518 0.360365 0.553612
O O7 0.859390 0.428987 0.668449
O O8 0.000000 0.385589 0.585411
O O9 0.359811 0.750000 0.233876
O O10 0.250000 0.676486 0.250000
O O11 0.380358 0.685855 0.364177
O O12 0.500000 0.676698 0.488798
O O13 0.387948 0.750000 0.496291
O O14 0.326809 0.661300 0.520347
O O15 0.711674 0.400974 0.088621
O O16 0.123781 0.471287 0.315154
O O17 0.000000 0.530355 0.314249
O O18 0.250000 0.423223 0.250000
#
# Coordination Sequence:
#
# PCOD8298647 Si02
#       7
#    16  16  16  16  16  16  16
#     4   9  18  31  49  72  99 137 177 214 262 311
#     4  11  22  31  47  77 106 142 186 218 255 305
#     4  10  19  32  50  74 109 148 179 211 256 312
#     4  10  21  36  55  80 109 140 174 216 269 325
#     4  11  20  34  56  76 104 141 179 225 265 314
#     4  10  20  32  48  72 105 140 178 222 262 315
#     4   9  19  36  53  72  99 138 177 214 272 321
#
# _framework density 17.868040000000001
#
# number of rings (size 3 to 8) (size 9 to 14) (size 15 to 20)
#    0.000    2.000    2.857    1.286    0.000    3.429 
#    0.000    7.143    0.000    0.429    0.000    0.000 
#    0.000    0.000    0.000    0.000    0.000    0.000 
#
# Total GULP energy -693751.032430 kJ/mol
# GULP energy per Si atom -12388.411293 kJ/mol
# Density = 1.782737 g / cm^3
# Si number density = 17.868040 Si / 1000 Ang^3
#
#
#
# Elastic Constant Matrix: (Units=GPa)
#
#
# Indices 1 2 3 4 5 6 
#
# 1 77.7138 28.8142 21.2006 0.0000 0.0000 0.0000
# 2 28.8142 65.8676 29.3123 0.0002 0.0000 -0.0003
# 3 21.2006 29.3123 62.5805 -0.0001 -0.0001 -0.0003
# 4 0.0000 0.0002 -0.0001 28.0157 0.0000 -0.0002
# 5 0.0000 0.0000 -0.0001 0.0000 11.3436 0.0000
# 6 0.0000 -0.0003 -0.0003 -0.0002 0.0000 54.1734
#
#
#
# Elastic Compliance Matrix: (Units=1/GPa)
#
#
# Indices 1 2 3 4 5 6 
#
# 1 0.015701 -0.005687 -0.002655 0.000000 0.000000 0.000000
# 2 -0.005687 0.021240 -0.008022 0.000000 0.000000 0.000000
# 3 -0.002655 -0.008022 0.020636 0.000000 0.000000 0.000000
# 4 0.000000 0.000000 0.000000 0.035694 0.000000 0.000000
# 5 0.000000 0.000000 0.000000 0.000000 0.088155 0.000000
# 6 0.000000 0.000000 0.000000 0.000000 0.000000 0.018459
#
#
# Mechanical properties :
#
#
# Convention : Reuss Voigt Hill
#
# Bulk Modulus (GPa) = 40.24370 40.53512 40.38941
# Shear Modulus (GPa) = 20.75584 27.16221 23.95902
#
# Velocity S-wave (km/s) = 3.41195 3.90315 3.66578
# Velocity P-wave (km/s) = 6.17199 6.56108 6.36951
#
# Compressibility (1/GPa) = 0.02484861
#
# Stress axis : x y z
#
# Youngs Moduli (GPa) = 63.69202 47.08200 48.45801
#
# Poissons Ratio (x) = 0.26774 0.12867
# Poissons Ratio (y) = 0.36219 0.38873
# Poissons Ratio (z) = 0.16912 0.37769
#
# Static dielectric constant tensor:
#      x y z
#    x 3.279380 0.000000 0.000000 
#    y 0.000000 3.323500 0.000000 
#    z 0.000000 0.000000 2.391940 
# 
# 
# High freq. dielectric constant tensor:
#      x y z
#    x 1.689380 0.000000 0.000000 
#    y 0.000000 1.679180 0.000000 
#    z 0.000000 0.000000 1.665450 
# 
# From -- ./inp_files/32918.got.cif
#   From: 2010.03.12/outbox.cif.g09.slc.cpg/sg74_17_cif.got.tgz:32918.got - 2010.04.16 15:46:19.
