data_PCOD8298902
_publ_section_title
;
Structure prediction by ZEFSAII (Michael W. Deem and Ramdas Pophale) SiO2 
 PCOD8298902
Probable space group: I M M A
;
_chemical_formula_sum "Si O2"
_cell_formula_units_Z 96
_cell_length_a 14.497657
_cell_length_b 24.960628
_cell_length_c 14.364017
_cell_angle_alpha 90.000000
_cell_angle_beta 90.000000
_cell_angle_gamma 90.000000
_cell_volume 5197.915784
_symmetry_space_group_name_H-M "I M M A"
_symmetry_group_IT_number 74
_symmetry_cell_setting 'orthorhombic'
loop_
_space_group_symop_operation_xyz
x,y,z
-x,1/2-y,z
x,-y,-z
-x,1/2+y,-z
-x,-y,-z
x,1/2+y,-z
-x,y,z
x,1/2-y,z
1/2+x,1/2+y,1/2+z
1/2-x,-y,1/2+z
1/2+x,1/2-y,1/2-z
1/2-x,y,1/2-z
1/2-x,1/2-y,1/2-z
1/2+x,y,1/2-z
1/2-x,1/2+y,1/2+z
1/2+x,-y,1/2+z
loop_
_atom_site_type_symbol
_atom_site_label
_atom_site_fract_x
_atom_site_fract_y
_atom_site_fract_z
Si Si1 0.205257 0.099720 0.512685
Si Si2 0.500000 0.147369 0.845226
Si Si3 0.500000 0.539878 0.265401
Si Si4 0.000000 0.895387 0.535934
Si Si5 0.000000 0.085074 0.253538
Si Si6 0.188807 0.311500 0.664295
Si Si7 0.696501 0.532975 0.338613
Si Si8 0.691634 0.092093 0.333079
O O1 0.204876 0.152982 0.573895
O O2 0.258729 0.053294 0.566662
O O3 0.268993 0.118245 0.426630
O O4 0.101534 0.077655 0.485235
O O5 0.500000 0.083498 0.818305
O O6 0.584981 0.178758 0.800993
O O7 0.500000 0.152883 0.959400
O O8 0.500000 0.479111 0.223198
O O9 0.588727 0.548370 0.331118
O O10 0.000000 0.883291 0.647034
O O11 0.084772 0.102842 0.188767
O O12 0.208127 0.250000 0.638476
O O13 0.250000 0.331035 0.750000
O O14 0.750000 0.557943 0.250000
O O15 0.712504 0.470304 0.341369
O O16 0.750000 0.117896 0.250000
#
# Coordination Sequence:
#
# PCOD8298902 Si02
#       8
#    16   8   8   8   8  16  16  16
#     4  11  20  35  54  79 103 141 184 222 268 324
#     4  10  19  33  53  84 104 139 172 221 270 318
#     4  10  20  33  50  73 115 147 179 213 259 321
#     4  10  20  32  51  78 102 137 181 224 261 310
#     4  10  20  36  50  75 109 149 185 218 260 307
#     4  10  21  37  57  81 109 137 172 220 276 331
#     4  10  20  33  49  76 112 146 178 221 258 317
#     4  10  20  34  51  74 109 145 179 218 261 309
#
# _framework density 18.468941000000001
#
# number of rings (size 3 to 8) (size 9 to 14) (size 15 to 20)
#    0.000    1.833    1.667    4.250    0.000    1.000 
#    6.000    3.333    0.000    0.500    0.000    0.000 
#    0.000    0.000    0.000    0.000    0.000    0.000 
#
# Total GULP energy -594633.042582 kJ/mol
# GULP energy per Si atom -12388.188387 kJ/mol
# Density = 1.842691 g / cm^3
# Si number density = 18.468941 Si / 1000 Ang^3
#
#
#
# Elastic Constant Matrix: (Units=GPa)
#
#
# Indices 1 2 3 4 5 6 
#
# 1 172.6326 20.9539 77.6390 0.0000 0.0000 0.0000
# 2 20.9539 36.4874 20.4409 0.0004 0.0000 -0.0002
# 3 77.6390 20.4409 126.5616 0.0004 0.0001 -0.0002
# 4 0.0000 0.0004 0.0004 17.1932 0.0000 -0.0001
# 5 0.0000 0.0000 0.0001 0.0000 37.0872 0.0000
# 6 0.0000 -0.0002 -0.0002 -0.0001 0.0000 10.6687
#
#
#
# Elastic Compliance Matrix: (Units=1/GPa)
#
#
# Indices 1 2 3 4 5 6 
#
# 1 0.008139 -0.002064 -0.004659 0.000000 0.000000 0.000000
# 2 -0.002064 0.030656 -0.003685 -0.000001 0.000000 0.000001
# 3 -0.004659 -0.003685 0.011355 0.000000 0.000000 0.000000
# 4 0.000000 -0.000001 0.000000 0.058163 0.000000 0.000001
# 5 0.000000 0.000000 0.000000 0.000000 0.026964 0.000000
# 6 0.000000 0.000001 0.000000 0.000001 0.000000 0.093732
#
#
# Mechanical properties :
#
#
# Convention : Reuss Voigt Hill
#
# Bulk Modulus (GPa) = 34.09106 63.74992 48.92049
# Shear Modulus (GPa) = 19.26020 27.43298 23.34659
#
# Velocity S-wave (km/s) = 3.23281 3.85822 3.55928
# Velocity P-wave (km/s) = 5.69503 7.37835 6.59066
#
# Compressibility (1/GPa) = 0.02933320
#
# Stress axis : x y z
#
# Youngs Moduli (GPa) = 122.87150 32.61957 88.06876
#
# Poissons Ratio (x) = 0.06731 0.41034
# Poissons Ratio (y) = 0.25356 0.32457
# Poissons Ratio (z) = 0.57250 0.12022
#
# Static dielectric constant tensor:
#      x y z
#    x 3.826290 0.000000 0.000000 
#    y 0.000000 2.939380 0.000000 
#    z 0.000000 0.000000 3.519760 
# 
# 
# High freq. dielectric constant tensor:
#      x y z
#    x 1.743280 0.000000 0.000000 
#    y 0.000000 1.660920 0.000000 
#    z 0.000000 0.000000 1.716460 
# 
# From -- ./inp_files/21093.got.cif
#   From: 2010.03.12/outbox.cif.g09.slc.cpg/sg74_11_cif.got.tgz:21093.got - 2010.04.16 15:46:19.
