data_PCOD8298125
_publ_section_title
;
Structure prediction by ZEFSAII (Michael W. Deem and Ramdas Pophale) SiO2 
 PCOD8298125
Probable space group: I M M A
;
_chemical_formula_sum "Si O2"
_cell_formula_units_Z 80
_cell_length_a 9.215992
_cell_length_b 28.389372
_cell_length_c 22.294077
_cell_angle_alpha 90.000000
_cell_angle_beta 90.000000
_cell_angle_gamma 90.000000
_cell_volume 5832.938151
_symmetry_space_group_name_H-M "I M M A"
_symmetry_group_IT_number 74
_symmetry_cell_setting 'orthorhombic'
loop_
_space_group_symop_operation_xyz
x,y,z
-x,1/2-y,z
x,-y,-z
-x,1/2+y,-z
-x,-y,-z
x,1/2+y,-z
-x,y,z
x,1/2-y,z
1/2+x,1/2+y,1/2+z
1/2-x,-y,1/2+z
1/2+x,1/2-y,1/2-z
1/2-x,y,1/2-z
1/2-x,1/2-y,1/2-z
1/2+x,y,1/2-z
1/2-x,1/2+y,1/2+z
1/2+x,-y,1/2+z
loop_
_atom_site_type_symbol
_atom_site_label
_atom_site_fract_x
_atom_site_fract_y
_atom_site_fract_z
Si Si1 0.666409 0.373929 0.608472
Si Si2 0.837216 0.516855 0.594749
Si Si3 0.163147 0.924471 0.485716
Si Si4 0.665935 0.966166 0.311342
Si Si5 0.832636 0.305238 0.689818
O O1 0.500000 0.358269 0.602112
O O2 0.727322 0.386207 0.542221
O O3 0.683834 0.418060 0.652326
O O4 0.759917 0.330796 0.633581
O O5 0.786947 0.560976 0.553164
O O6 0.835028 0.470452 0.554922
O O7 0.730484 0.510189 0.651100
O O8 0.000000 0.525764 0.618835
O O9 0.000000 0.903592 0.487190
O O10 0.500000 0.977825 0.297334
O O11 0.750000 0.959614 0.250000
O O12 0.817493 0.250000 0.678323
O O13 0.750000 0.320738 0.750000
O O14 0.000000 0.320670 0.696226
#
# Coordination Sequence:
#
# PCOD8298125 Si02
#       5
#    16  16  16  16  16
#     4  10  19  28  40  57  74  94 121 154 189 223
#     4   8  14  25  39  53  70  93 119 147 181 217
#     4   8  14  25  40  55  71  92 117 147 182 218
#     4  10  19  27  36  52  73  97 124 154 186 219
#     4  10  20  32  44  56  71  93 121 154 192 231
#
# _framework density 13.715214
#
# number of rings (size 3 to 8) (size 9 to 14) (size 15 to 20)
#    0.000    2.800    0.000    3.600    0.000    6.000 
#    0.000    4.000    0.000    0.000    0.000    0.000 
#    0.000    0.000    0.000    0.000    0.000    1.000 
#
# Total GULP energy -495850.911891 kJ/mol
# GULP energy per Si atom -12396.272797 kJ/mol
# Density = 1.368400 g / cm^3
# Si number density = 13.715214 Si / 1000 Ang^3
#
#
#
# Elastic Constant Matrix: (Units=GPa)
#
#
# Indices 1 2 3 4 5 6 
#
# 1 105.7052 29.2465 32.2782 0.0000 0.0000 0.0000
# 2 29.2465 30.9436 15.4060 0.0000 0.0000 0.0000
# 3 32.2782 15.4060 29.1874 0.0001 0.0000 0.0000
# 4 0.0000 0.0000 0.0001 23.2521 0.0000 0.0000
# 5 0.0000 0.0000 0.0000 0.0000 26.0039 0.0000
# 6 0.0000 0.0000 0.0000 0.0000 0.0000 16.4503
#
#
#
# Elastic Compliance Matrix: (Units=1/GPa)
#
#
# Indices 1 2 3 4 5 6 
#
# 1 0.015754 -0.008432 -0.012972 0.000000 0.000000 0.000000
# 2 -0.008432 0.048350 -0.016196 0.000000 0.000000 0.000000
# 3 -0.012972 -0.016196 0.057156 0.000000 0.000000 0.000000
# 4 0.000000 0.000000 0.000000 0.043007 0.000000 0.000000
# 5 0.000000 0.000000 0.000000 0.000000 0.038456 0.000000
# 6 0.000000 0.000000 0.000000 0.000000 0.000000 0.060789
#
#
# Mechanical properties :
#
#
# Convention : Reuss Voigt Hill
#
# Bulk Modulus (GPa) = 21.71060 35.52197 28.61629
# Shear Modulus (GPa) = 14.12171 19.06828 16.59500
#
# Velocity S-wave (km/s) = 3.21228 3.73272 3.48224
# Velocity P-wave (km/s) = 5.44263 6.67334 6.08916
#
# Compressibility (1/GPa) = 0.04606044
#
# Stress axis : x y z
#
# Youngs Moduli (GPa) = 63.47451 20.68259 17.49605
#
# Poissons Ratio (x) = 0.17439 0.22696
# Poissons Ratio (y) = 0.53521 0.28336
# Poissons Ratio (z) = 0.82339 0.33497
#
# Static dielectric constant tensor:
#      x y z
#    x 2.923250 0.000000 0.000000 
#    y 0.000000 2.467780 0.000000 
#    z 0.000000 0.000000 2.775250 
# 
# 
# High freq. dielectric constant tensor:
#      x y z
#    x 1.537840 0.000000 0.000000 
#    y 0.000000 1.475060 0.000000 
#    z 0.000000 0.000000 1.505310 
# 
# From -- ./inp_files/39960.got.cif
#   From: 2010.03.12/outbox.cif.g09.slc.cpg/sg74_20_cif.got.tgz:39960.got - 2010.04.16 15:46:19.
