data_PCOD8298009
_publ_section_title
;
Structure prediction by ZEFSAII (Michael W. Deem and Ramdas Pophale) SiO2 
 PCOD8298009
Probable space group: I M M A
;
_chemical_formula_sum "Si O2"
_cell_formula_units_Z 96
_cell_length_a 18.715924
_cell_length_b 23.782632
_cell_length_c 11.256568
_cell_angle_alpha 90.000000
_cell_angle_beta 90.000000
_cell_angle_gamma 90.000000
_cell_volume 5010.455255
_symmetry_space_group_name_H-M "I M M A"
_symmetry_group_IT_number 74
_symmetry_cell_setting 'orthorhombic'
loop_
_space_group_symop_operation_xyz
x,y,z
-x,1/2-y,z
x,-y,-z
-x,1/2+y,-z
-x,-y,-z
x,1/2+y,-z
-x,y,z
x,1/2-y,z
1/2+x,1/2+y,1/2+z
1/2-x,-y,1/2+z
1/2+x,1/2-y,1/2-z
1/2-x,y,1/2-z
1/2-x,1/2-y,1/2-z
1/2+x,y,1/2-z
1/2-x,1/2+y,1/2+z
1/2+x,-y,1/2+z
loop_
_atom_site_type_symbol
_atom_site_label
_atom_site_fract_x
_atom_site_fract_y
_atom_site_fract_z
Si Si1 0.913685 0.250000 0.937646
Si Si2 0.165556 0.954012 0.851758
Si Si3 0.681474 0.446706 0.072999
Si Si4 0.578351 0.862633 0.533016
Si Si5 0.914877 0.872105 0.420726
Si Si6 0.078798 0.439591 0.812648
Si Si7 0.415891 0.750000 0.171441
O O1 0.883329 0.197094 0.011642
O O2 0.882274 0.250000 0.803626
O O3 0.000000 0.250000 0.931923
O O4 0.232509 0.942750 0.940487
O O5 0.176503 0.956477 0.712025
O O6 0.129092 0.014350 0.876883
O O7 0.115993 0.900666 0.870474
O O8 0.651608 0.500000 0.000000
O O9 0.635374 0.392843 0.029920
O O10 0.500000 0.852500 0.585806
O O11 0.573523 0.888847 0.402915
O O12 0.893453 0.912474 0.310309
O O13 0.892855 0.807113 0.397229
O O14 0.000000 0.877216 0.449305
O O15 0.000000 0.466491 0.792359
O O16 0.500000 0.750000 0.184873
#
# Coordination Sequence:
#
# PCOD8298009 Si02
#       7
#     8  16  16  16  16  16   8
#     4   9  16  30  56  85 114 148 185 235 293 338
#     4  11  23  37  55  80 115 156 189 230 290 355
#     4  11  23  40  56  78 113 156 193 233 288 348
#     4  10  19  33  55  85 115 144 187 236 285 341
#     4  10  20  35  61  91 116 148 193 244 295 346
#     4  10  18  32  58  88 115 144 183 238 294 345
#     4   9  16  34  60  87 118 148 187 244 300 338
#
# _framework density 19.159935000000001
#
# number of rings (size 3 to 8) (size 9 to 14) (size 15 to 20)
#    0.000    1.833    3.333    2.000    0.000    3.000 
#    0.000    1.667    0.000    6.000    0.000    0.000 
#    0.000    0.000    0.000    0.000    0.000    0.000 
#
# Total GULP energy -594705.495600 kJ/mol
# GULP energy per Si atom -12389.697825 kJ/mol
# Density = 1.911633 g / cm^3
# Si number density = 19.159935 Si / 1000 Ang^3
#
#
#
# Elastic Constant Matrix: (Units=GPa)
#
#
# Indices 1 2 3 4 5 6 
#
# 1 69.4966 49.3254 19.3849 0.0000 0.0000 0.0000
# 2 49.3254 152.3553 28.8482 0.0000 0.0000 0.0000
# 3 19.3849 28.8482 44.6497 0.0000 0.0000 0.0000
# 4 0.0000 0.0000 0.0000 33.4716 0.0000 0.0000
# 5 0.0000 0.0000 0.0000 0.0000 24.8676 0.0000
# 6 0.0000 0.0000 0.0000 0.0000 0.0000 7.0777
#
#
#
# Elastic Compliance Matrix: (Units=1/GPa)
#
#
# Indices 1 2 3 4 5 6 
#
# 1 0.019626 -0.005401 -0.005031 0.000000 0.000000 0.000000
# 2 -0.005401 0.008965 -0.003447 0.000000 0.000000 0.000000
# 3 -0.005031 -0.003447 0.026808 0.000000 0.000000 0.000000
# 4 0.000000 0.000000 0.000000 0.029876 0.000000 0.000000
# 5 0.000000 0.000000 0.000000 0.000000 0.040213 0.000000
# 6 0.000000 0.000000 0.000000 0.000000 0.000000 0.141288
#
#
# Mechanical properties :
#
#
# Convention : Reuss Voigt Hill
#
# Bulk Modulus (GPa) = 36.17946 51.29097 43.73521
# Shear Modulus (GPa) = 16.46096 24.34627 20.40362
#
# Velocity S-wave (km/s) = 2.93428 3.56854 3.26684
# Velocity P-wave (km/s) = 5.51397 6.61871 6.09143
#
# Compressibility (1/GPa) = 0.02764000
#
# Stress axis : x y z
#
# Youngs Moduli (GPa) = 50.95247 111.54419 37.30223
#
# Poissons Ratio (x) = 0.60250 0.18767
# Poissons Ratio (y) = 0.27521 0.12859
# Poissons Ratio (z) = 0.25634 0.38452
#
# Static dielectric constant tensor:
#      x y z
#    x 3.694430 0.000000 0.000000 
#    y 0.000000 3.612260 0.000000 
#    z 0.000000 0.000000 3.316660 
# 
# 
# High freq. dielectric constant tensor:
#      x y z
#    x 1.721220 0.000000 0.000000 
#    y 0.000000 1.747500 0.000000 
#    z 0.000000 0.000000 1.737250 
# 
# From -- ./inp_files/22527.got.cif
#   From: 2010.03.12/outbox.cif.g09.slc.cpg/sg74_12_cif.got.tgz:22527.got - 2010.04.16 15:46:19.
