data_PCOD8298286
_publ_section_title
;
Structure prediction by ZEFSAII (Michael W. Deem and Ramdas Pophale) SiO2 
 PCOD8298286
Probable space group: I M M A
;
_chemical_formula_sum "Si O2"
_cell_formula_units_Z 80
_cell_length_a 9.209234
_cell_length_b 18.648413
_cell_length_c 26.683298
_cell_angle_alpha 90.000000
_cell_angle_beta 90.000000
_cell_angle_gamma 90.000000
_cell_volume 4582.525533
_symmetry_space_group_name_H-M "I M M A"
_symmetry_group_IT_number 74
_symmetry_cell_setting 'orthorhombic'
loop_
_space_group_symop_operation_xyz
x,y,z
-x,1/2-y,z
x,-y,-z
-x,1/2+y,-z
-x,-y,-z
x,1/2+y,-z
-x,y,z
x,1/2-y,z
1/2+x,1/2+y,1/2+z
1/2-x,-y,1/2+z
1/2+x,1/2-y,1/2-z
1/2-x,y,1/2-z
1/2-x,1/2-y,1/2-z
1/2+x,y,1/2-z
1/2-x,1/2+y,1/2+z
1/2+x,-y,1/2+z
loop_
_atom_site_type_symbol
_atom_site_label
_atom_site_fract_x
_atom_site_fract_y
_atom_site_fract_z
Si Si1 0.330925 0.042465 0.951842
Si Si2 0.330111 0.668248 0.403527
Si Si3 0.168011 0.171095 0.300102
Si Si4 0.171142 0.597070 0.200440
Si Si5 0.167148 0.027329 0.348021
O O1 0.500000 0.059739 0.958645
O O2 0.251123 0.118332 0.943837
O O3 0.298410 0.990912 0.905220
O O4 0.269534 0.000000 0.000000
O O5 0.500000 0.657283 0.411952
O O6 0.282189 0.750000 0.413027
O O7 0.288412 0.647914 0.346431
O O8 0.216750 0.250000 0.319787
O O9 0.250000 0.149368 0.250000
O O10 0.202640 0.111632 0.342082
O O11 0.000000 0.171383 0.286212
O O12 0.250000 0.628047 0.250000
O O13 0.230926 0.517537 0.189277
O O14 0.000000 0.593795 0.210064
O O15 0.000000 0.009679 0.334523
#
# Coordination Sequence:
#
# PCOD8298286 Si02
#       5
#    16  16  16  16  16
#     4   9  18  33  52  74  97 121 154 196 240 285
#     4   9  19  35  52  71  97 128 161 196 235 282
#     4   9  17  28  42  61  86 117 150 183 222 267
#     4  10  19  30  46  69  96 126 159 194 232 277
#     4   9  17  30  47  66  91 122 155 192 232 278
#
# _framework density 17.457622000000001
#
# number of rings (size 3 to 8) (size 9 to 14) (size 15 to 20)
#    0.000    2.800    0.000    1.200    0.000    4.400 
#    0.000    1.000    0.000    3.600    0.000    2.800 
#    0.000    0.000    0.000    0.000    0.000    0.000 
#
# Total GULP energy -495946.493560 kJ/mol
# GULP energy per Si atom -12398.662339 kJ/mol
# Density = 1.741789 g / cm^3
# Si number density = 17.457622 Si / 1000 Ang^3
#
#
#
# Elastic Constant Matrix: (Units=GPa)
#
#
# Indices 1 2 3 4 5 6 
#
# 1 54.2577 44.8497 39.0767 0.0000 0.0000 0.0000
# 2 44.8497 146.9962 63.4389 0.0000 0.0000 0.0000
# 3 39.0767 63.4389 94.7485 0.0000 0.0000 0.0000
# 4 0.0000 0.0000 0.0000 20.9025 0.0000 0.0000
# 5 0.0000 0.0000 0.0000 0.0000 24.3549 0.0000
# 6 0.0000 0.0000 0.0000 0.0000 0.0000 26.5509
#
#
#
# Elastic Compliance Matrix: (Units=1/GPa)
#
#
# Indices 1 2 3 4 5 6 
#
# 1 0.028735 -0.005137 -0.008411 0.000000 0.000000 0.000000
# 2 -0.005137 0.010486 -0.004902 0.000000 0.000000 0.000000
# 3 -0.008411 -0.004902 0.017306 0.000000 0.000000 0.000000
# 4 0.000000 0.000000 0.000000 0.047841 0.000000 0.000000
# 5 0.000000 0.000000 0.000000 0.000000 0.041059 0.000000
# 6 0.000000 0.000000 0.000000 0.000000 0.000000 0.037663
#
#
# Mechanical properties :
#
#
# Convention : Reuss Voigt Hill
#
# Bulk Modulus (GPa) = 50.95558 65.63700 58.29629
# Shear Modulus (GPa) = 22.07177 24.27080 23.17129
#
# Velocity S-wave (km/s) = 3.55957 3.73268 3.64715
# Velocity P-wave (km/s) = 6.79305 7.50045 7.15550
#
# Compressibility (1/GPa) = 0.01962494
#
# Stress axis : x y z
#
# Youngs Moduli (GPa) = 34.80084 95.36634 57.78475
#
# Poissons Ratio (x) = 0.48991 0.48605
# Poissons Ratio (y) = 0.17878 0.28327
# Poissons Ratio (z) = 0.29273 0.46750
#
# Static dielectric constant tensor:
#      x y z
#    x 3.232490 0.000000 0.000000 
#    y 0.000000 3.398140 0.000000 
#    z 0.000000 0.000000 3.189690 
# 
# 
# High freq. dielectric constant tensor:
#      x y z
#    x 1.671920 0.000000 0.000000 
#    y 0.000000 1.676060 0.000000 
#    z 0.000000 0.000000 1.656710 
# 
# From -- ./inp_files/63913.got.cif
#   From: 2010.03.12/outbox.cif.g09.slc.cpg/sg74_32_cif.got.tgz:63913.got - 2010.04.16 15:46:19.
