data_PCOD8298991
_publ_section_title
;
Structure prediction by ZEFSAII (Michael W. Deem and Ramdas Pophale) SiO2 
 PCOD8298991
Probable space group: I M M A
;
_chemical_formula_sum "Si O2"
_cell_formula_units_Z 96
_cell_length_a 23.865942
_cell_length_b 9.046560
_cell_length_c 21.360242
_cell_angle_alpha 90.000000
_cell_angle_beta 90.000000
_cell_angle_gamma 90.000000
_cell_volume 4611.776134
_symmetry_space_group_name_H-M "I M M A"
_symmetry_group_IT_number 74
_symmetry_cell_setting 'orthorhombic'
loop_
_space_group_symop_operation_xyz
x,y,z
-x,1/2-y,z
x,-y,-z
-x,1/2+y,-z
-x,-y,-z
x,1/2+y,-z
-x,y,z
x,1/2-y,z
1/2+x,1/2+y,1/2+z
1/2-x,-y,1/2+z
1/2+x,1/2-y,1/2-z
1/2-x,y,1/2-z
1/2-x,1/2-y,1/2-z
1/2+x,y,1/2-z
1/2-x,1/2+y,1/2+z
1/2+x,-y,1/2+z
loop_
_atom_site_type_symbol
_atom_site_label
_atom_site_fract_x
_atom_site_fract_y
_atom_site_fract_z
Si Si1 0.254582 0.417809 0.819543
Si Si2 0.371920 0.085612 0.659813
Si Si3 0.936896 0.078603 0.060175
Si Si4 0.061809 0.415002 0.719701
Si Si5 0.936692 0.421731 0.405002
Si Si6 0.173650 0.573788 0.437628
O O1 0.274350 0.250000 0.807506
O O2 0.250000 0.495698 0.750000
O O3 0.193924 0.427144 0.850653
O O4 0.297152 0.484620 0.872374
O O5 0.392681 0.250000 0.640190
O O6 0.388658 0.055570 0.731446
O O7 0.400619 0.959326 0.619992
O O8 0.934863 0.250000 0.047565
O O9 0.000000 0.021565 0.071317
O O10 0.910109 0.000000 0.000000
O O11 0.069579 0.250000 0.690227
O O12 0.067017 0.540912 0.668176
O O13 0.000000 0.425341 0.751652
O O14 0.921752 0.250000 0.414862
O O15 0.891444 0.524061 0.439680
O O16 0.000000 0.456636 0.429401
O O17 0.201800 0.500000 0.500000
O O18 0.179084 0.750000 0.442880
#
# Coordination Sequence:
#
# PCOD8298991 Si02
#       6
#    16  16  16  16  16  16
#     4   9  19  37  61  87 114 149 194 240 285 335
#     4  10  19  33  56  83 110 143 186 233 280 335
#     4  10  21  36  53  75 107 146 187 233 285 340
#     4   9  17  30  52  83 116 150 187 227 275 333
#     4  10  21  37  58  85 116 148 184 229 280 334
#     4  11  23  40  62  86 116 152 190 236 288 345
#
# _framework density 20.816276999999999
#
# number of rings (size 3 to 8) (size 9 to 14) (size 15 to 20)
#    0.000    2.167    0.000    3.000    0.000    7.000 
#    0.000    5.000    0.000    3.500    0.000    0.000 
#    0.000    0.000    0.000    0.000    0.000    0.000 
#
# Total GULP energy -594899.971527 kJ/mol
# GULP energy per Si atom -12393.749407 kJ/mol
# Density = 2.076890 g / cm^3
# Si number density = 20.816277 Si / 1000 Ang^3
#
#
#
# Elastic Constant Matrix: (Units=GPa)
#
#
# Indices 1 2 3 4 5 6 
#
# 1 78.5015 22.5743 35.9114 0.0000 0.0000 0.0000
# 2 22.5743 62.8207 35.4646 0.0000 0.0000 0.0000
# 3 35.9114 35.4646 117.3329 0.0000 0.0000 0.0000
# 4 0.0000 0.0000 0.0000 35.8885 0.0000 0.0000
# 5 0.0000 0.0000 0.0000 0.0000 20.6298 0.0000
# 6 0.0000 0.0000 0.0000 0.0000 0.0000 6.8237
#
#
#
# Elastic Compliance Matrix: (Units=1/GPa)
#
#
# Indices 1 2 3 4 5 6 
#
# 1 0.015414 -0.003467 -0.003670 0.000000 0.000000 0.000000
# 2 -0.003467 0.019973 -0.004976 0.000000 0.000000 0.000000
# 3 -0.003670 -0.004976 0.011150 0.000000 0.000000 0.000000
# 4 0.000000 0.000000 0.000000 0.027864 0.000000 0.000000
# 5 0.000000 0.000000 0.000000 0.000000 0.048474 0.000000
# 6 0.000000 0.000000 0.000000 0.000000 0.000000 0.146549
#
#
# Mechanical properties :
#
#
# Convention : Reuss Voigt Hill
#
# Bulk Modulus (GPa) = 44.81939 49.61728 47.21834
# Shear Modulus (GPa) = 16.60645 23.64871 20.12758
#
# Velocity S-wave (km/s) = 2.82753 3.37422 3.11290
# Velocity P-wave (km/s) = 5.67782 6.25044 5.97100
#
# Compressibility (1/GPa) = 0.02231177
#
# Stress axis : x y z
#
# Youngs Moduli (GPa) = 64.87399 50.06673 89.68677
#
# Poissons Ratio (x) = 0.17360 0.32913
# Poissons Ratio (y) = 0.22494 0.44626
# Poissons Ratio (z) = 0.23807 0.24912
#
# Static dielectric constant tensor:
#      x y z
#    x 3.847400 0.000000 0.000000 
#    y 0.000000 3.516190 0.000000 
#    z 0.000000 0.000000 3.827900 
# 
# 
# High freq. dielectric constant tensor:
#      x y z
#    x 1.816280 0.000000 0.000000 
#    y 0.000000 1.786000 0.000000 
#    z 0.000000 0.000000 1.815480 
# 
# From -- ./inp_files/49133.got.cif
#   From: 2010.03.12/outbox.cif.g09.slc.cpg/sg74_25_cif.got.tgz:49133.got - 2010.04.16 15:46:19.
