data_PCOD8298255
_publ_section_title
;
Structure prediction by ZEFSAII (Michael W. Deem and Ramdas Pophale) SiO2 
 PCOD8298255
Probable space group: I M M A
;
_chemical_formula_sum "Si O2"
_cell_formula_units_Z 80
_cell_length_a 8.780366
_cell_length_b 23.411175
_cell_length_c 26.075602
_cell_angle_alpha 90.000000
_cell_angle_beta 90.000000
_cell_angle_gamma 90.000000
_cell_volume 5360.066457
_symmetry_space_group_name_H-M "I M M A"
_symmetry_group_IT_number 74
_symmetry_cell_setting 'orthorhombic'
loop_
_space_group_symop_operation_xyz
x,y,z
-x,1/2-y,z
x,-y,-z
-x,1/2+y,-z
-x,-y,-z
x,1/2+y,-z
-x,y,z
x,1/2-y,z
1/2+x,1/2+y,1/2+z
1/2-x,-y,1/2+z
1/2+x,1/2-y,1/2-z
1/2-x,y,1/2-z
1/2-x,1/2-y,1/2-z
1/2+x,y,1/2-z
1/2-x,1/2+y,1/2+z
1/2+x,-y,1/2+z
loop_
_atom_site_type_symbol
_atom_site_label
_atom_site_fract_x
_atom_site_fract_y
_atom_site_fract_z
Si Si1 0.178503 0.562938 0.106432
Si Si2 0.680798 0.750000 0.031132
Si Si3 0.819505 0.867437 0.304688
Si Si4 0.178808 0.633530 0.005263
Si Si5 0.671767 0.964024 0.948357
Si Si6 0.180860 0.750000 0.352756
O O1 0.266593 0.583975 0.156357
O O2 0.219852 0.605000 0.059685
O O3 0.235840 0.498934 0.094651
O O4 0.000000 0.561540 0.117311
O O5 0.500000 0.750000 0.029975
O O6 0.742635 0.805132 0.001715
O O7 0.744481 0.750000 0.089343
O O8 0.750000 0.882087 0.250000
O O9 0.757147 0.805825 0.323465
O O10 0.000000 0.867466 0.301165
O O11 0.000000 0.639784 0.997767
O O12 0.244561 0.595917 0.958594
O O13 0.500000 0.952785 0.929238
O O14 0.671987 0.000000 0.000000
O O15 0.000000 0.750000 0.354206
#
# Coordination Sequence:
#
# PCOD8298255 Si02
#       6
#    16   8  16  16  16   8
#     4  10  19  31  46  64  85 111 143 184 227 268
#     4  11  19  30  46  64  87 118 153 187 223 266
#     4  11  21  34  47  63  84 113 151 193 234 273
#     4  10  19  30  44  65  89 113 144 182 222 265
#     4   9  17  29  46  65  84 110 141 176 218 267
#     4   9  19  32  46  60  81 113 151 192 232 268
#
# _framework density 14.925189
#
# number of rings (size 3 to 8) (size 9 to 14) (size 15 to 20)
#    0.000    2.000    2.000    3.000    0.000    4.000 
#    0.000    1.500    0.000    0.000    0.000    0.000 
#    0.000    0.000    0.000    0.900    0.000   12.600 
#
# Total GULP energy -496117.009415 kJ/mol
# GULP energy per Si atom -12402.925235 kJ/mol
# Density = 1.489122 g / cm^3
# Si number density = 14.925189 Si / 1000 Ang^3
#
#
#
# Elastic Constant Matrix: (Units=GPa)
#
#
# Indices 1 2 3 4 5 6 
#
# 1 78.8189 47.2535 28.5668 0.0000 0.0000 0.0000
# 2 47.2535 111.9490 54.3622 0.0000 0.0000 0.0000
# 3 28.5668 54.3622 61.5625 0.0000 0.0000 0.0000
# 4 0.0000 0.0000 0.0000 -20.1668 0.0000 0.0000
# 5 0.0000 0.0000 0.0000 0.0000 21.3551 0.0000
# 6 0.0000 0.0000 0.0000 0.0000 0.0000 27.2933
#
#
#
# Elastic Compliance Matrix: (Units=1/GPa)
#
#
# Indices 1 2 3 4 5 6 
#
# 1 0.017249 -0.005942 -0.002757 0.000000 0.000000 0.000000
# 2 -0.005942 0.017685 -0.012860 0.000000 0.000000 0.000000
# 3 -0.002757 -0.012860 0.028879 0.000000 0.000000 0.000000
# 4 0.000000 0.000000 0.000000 -0.049587 0.000000 0.000000
# 5 0.000000 0.000000 0.000000 0.000000 0.046827 0.000000
# 6 0.000000 0.000000 0.000000 0.000000 0.000000 0.036639
#
#
# Mechanical properties :
#
#
# Convention : Reuss Voigt Hill
#
# Bulk Modulus (GPa) = 48.31944 56.96615 52.64279
# Shear Modulus (GPa) = 33.85052 13.83951 23.84501
#
# Velocity S-wave (km/s) = 4.76753 3.04840 4.00138
# Velocity P-wave (km/s) = 7.92152 7.11624 7.52966
#
# Compressibility (1/GPa) = 0.02069560
#
# Stress axis : x y z
#
# Youngs Moduli (GPa) = 57.97486 56.54408 34.62775
#
# Poissons Ratio (x) = 0.33598 0.09547
# Poissons Ratio (y) = 0.34448 0.44530
# Poissons Ratio (z) = 0.15984 0.72714
#
# Static dielectric constant tensor:
#      x y z
#    x 2.926680 0.000000 0.000000 
#    y 0.000000 2.930350 0.000000 
#    z 0.000000 0.000000 2.630040 
# 
# 
# High freq. dielectric constant tensor:
#      x y z
#    x 1.585430 0.000000 0.000000 
#    y 0.000000 1.562960 0.000000 
#    z 0.000000 0.000000 1.528690 
# 
# From -- ./inp_files/48624.got.cif
#   From: 2010.03.12/outbox.cif.g09.slc.cpg/sg74_25_cif.got.tgz:48624.got - 2010.04.16 15:46:19.
