data_PCOD8298105
_publ_section_title
;
Structure prediction by ZEFSAII (Michael W. Deem and Ramdas Pophale) SiO2 
 PCOD8298105
Probable space group: I M M A
;
_chemical_formula_sum "Si O2"
_cell_formula_units_Z 76
_cell_length_a 12.032263
_cell_length_b 11.084166
_cell_length_c 30.767109
_cell_angle_alpha 90.000000
_cell_angle_beta 90.000000
_cell_angle_gamma 90.000000
_cell_volume 4103.335500
_symmetry_space_group_name_H-M "I M M A"
_symmetry_group_IT_number 74
_symmetry_cell_setting 'orthorhombic'
loop_
_space_group_symop_operation_xyz
x,y,z
-x,1/2-y,z
x,-y,-z
-x,1/2+y,-z
-x,-y,-z
x,1/2+y,-z
-x,y,z
x,1/2-y,z
1/2+x,1/2+y,1/2+z
1/2-x,-y,1/2+z
1/2+x,1/2-y,1/2-z
1/2-x,y,1/2-z
1/2-x,1/2-y,1/2-z
1/2+x,y,1/2-z
1/2-x,1/2+y,1/2+z
1/2+x,-y,1/2+z
loop_
_atom_site_type_symbol
_atom_site_label
_atom_site_fract_x
_atom_site_fract_y
_atom_site_fract_z
Si Si1 0.279717 0.500151 0.548860
Si Si2 0.371986 0.393010 0.877886
Si Si3 0.229821 0.108808 0.797438
Si Si4 0.500000 0.486120 0.671727
Si Si5 0.500000 0.610772 0.421962
Si Si6 0.876032 0.750000 0.924310
Si Si7 0.500000 0.250000 0.341828
O O1 0.232983 0.500000 0.500000
O O2 0.184150 0.450027 0.579905
O O3 0.389897 0.416382 0.550359
O O4 0.306123 0.635639 0.561775
O O5 0.500000 0.432530 0.876235
O O6 0.358059 0.250000 0.881028
O O7 0.312784 0.443891 0.834142
O O8 0.251529 0.250000 0.794428
O O9 0.250000 0.049326 0.750000
O O10 0.104408 0.083791 0.810097
O O11 0.500000 0.479141 0.619331
O O12 0.500000 0.627058 0.686539
O O13 0.500000 0.750000 0.406805
O O14 0.889244 0.750000 0.871892
O O15 0.000000 0.750000 0.946208
#
# Coordination Sequence:
#
# PCOD8298105 Si02
#       7
#    16  16  16   8   8   8   4
#     4  12  24  36  58  86 118 158 200 244 294 352
#     4  10  22  41  59  82 120 158 195 243 298 349
#     4  10  21  36  61  94 120 146 185 241 303 356
#     4  12  20  37  60  90 121 154 194 236 293 358
#     4  12  21  34  59  90 123 149 190 247 300 357
#     4  10  20  38  53  83 122 156 189 239 299 343
#     4  10  18  36  56  76 124 160 186 226 292 338
#
# _framework density 18.521518
#
# number of rings (size 3 to 8) (size 9 to 14) (size 15 to 20)
#    0.316    0.842    5.263    1.895    4.421    0.421 
#    0.000    1.053    0.000    0.000    0.000    0.000 
#    0.000    0.000    0.000    0.000    0.000    0.000 
#
# Total GULP energy -471221.763484 kJ/mol
# GULP energy per Si atom -12400.572723 kJ/mol
# Density = 1.847936 g / cm^3
# Si number density = 18.521518 Si / 1000 Ang^3
#
#
#
# Elastic Constant Matrix: (Units=GPa)
#
#
# Indices 1 2 3 4 5 6 
#
# 1 143.3339 19.7478 71.7241 0.0000 0.0000 0.0000
# 2 19.7478 52.6402 7.7746 0.0000 0.0000 0.0000
# 3 71.7241 7.7746 146.9246 0.0000 0.0000 0.0000
# 4 0.0000 0.0000 0.0000 9.2935 0.0000 0.0000
# 5 0.0000 0.0000 0.0000 0.0000 -39.0516 0.0000
# 6 0.0000 0.0000 0.0000 0.0000 0.0000 14.3893
#
#
#
# Elastic Compliance Matrix: (Units=1/GPa)
#
#
# Indices 1 2 3 4 5 6 
#
# 1 0.009667 -0.002953 -0.004563 0.000000 0.000000 0.000000
# 2 -0.002953 0.020048 0.000380 0.000000 0.000000 0.000000
# 3 -0.004563 0.000380 0.009013 0.000000 0.000000 0.000000
# 4 0.000000 0.000000 0.000000 0.107603 0.000000 0.000000
# 5 0.000000 0.000000 0.000000 0.000000 -0.025607 0.000000
# 6 0.000000 0.000000 0.000000 0.000000 0.000000 0.069496
#
#
# Mechanical properties :
#
#
# Convention : Reuss Voigt Hill
#
# Bulk Modulus (GPa) = 40.88495 60.15463 50.51979
# Shear Modulus (GPa) = 23.51364 13.16972 18.34168
#
# Velocity S-wave (km/s) = 3.56691 2.66944 3.15030
# Velocity P-wave (km/s) = 6.25188 6.48460 6.36930
#
# Compressibility (1/GPa) = 0.02445888
#
# Stress axis : x y z
#
# Youngs Moduli (GPa) = 103.44791 49.87940 110.94502
#
# Poissons Ratio (x) = 0.14727 0.50621
# Poissons Ratio (y) = 0.30544 -0.04221
# Poissons Ratio (z) = 0.47201 -0.01898
#
# Static dielectric constant tensor:
#      x y z
#    x 3.293070 0.000000 0.000000 
#    y 0.000000 3.282000 0.000000 
#    z 0.000000 0.000000 3.569270 
# 
# 
# High freq. dielectric constant tensor:
#      x y z
#    x 1.707040 0.000000 0.000000 
#    y 0.000000 1.707120 0.000000 
#    z 0.000000 0.000000 1.716740 
# 
# From -- ./inp_files/71566.got.cif
#   From: 2010.03.12/outbox.cif.g09.slc.cpg/sg74_36_cif.got.tgz:71566.got - 2010.04.16 15:46:19.
