data_PCOD8298097
_publ_section_title
;
Structure prediction by ZEFSAII (Michael W. Deem and Ramdas Pophale) SiO2 
 PCOD8298097
Probable space group: I M M A
;
_chemical_formula_sum "Si O2"
_cell_formula_units_Z 80
_cell_length_a 14.243572
_cell_length_b 23.904571
_cell_length_c 12.361206
_cell_angle_alpha 90.000000
_cell_angle_beta 90.000000
_cell_angle_gamma 90.000000
_cell_volume 4208.823497
_symmetry_space_group_name_H-M "I M M A"
_symmetry_group_IT_number 74
_symmetry_cell_setting 'orthorhombic'
loop_
_space_group_symop_operation_xyz
x,y,z
-x,1/2-y,z
x,-y,-z
-x,1/2+y,-z
-x,-y,-z
x,1/2+y,-z
-x,y,z
x,1/2-y,z
1/2+x,1/2+y,1/2+z
1/2-x,-y,1/2+z
1/2+x,1/2-y,1/2-z
1/2-x,y,1/2-z
1/2-x,1/2-y,1/2-z
1/2+x,y,1/2-z
1/2-x,1/2+y,1/2+z
1/2+x,-y,1/2+z
loop_
_atom_site_type_symbol
_atom_site_label
_atom_site_fract_x
_atom_site_fract_y
_atom_site_fract_z
Si Si1 0.255018 0.750000 0.624423
Si Si2 0.391141 0.912019 0.772247
Si Si3 0.776336 0.869649 0.913934
Si Si4 0.893368 0.976845 0.389880
Si Si5 0.610300 0.750000 0.051295
Si Si6 0.199854 0.637159 0.361288
O O1 0.250000 0.750000 0.750000
O O2 0.310709 0.694647 0.589911
O O3 0.152173 0.750000 0.569238
O O4 0.500000 0.893026 0.784722
O O5 0.326132 0.876317 0.855053
O O6 0.355138 0.905531 0.648542
O O7 0.379222 0.977627 0.796020
O O8 0.769430 0.882630 0.041315
O O9 0.862570 0.917484 0.342825
O O10 0.000000 0.967809 0.422779
O O11 0.841992 0.000000 0.500000
O O12 0.500000 0.750000 0.043318
O O13 0.642677 0.806752 0.111116
O O14 0.250000 0.651408 0.250000
#
# Coordination Sequence:
#
# PCOD8298097 Si02
#       6
#     8  16  16  16   8  16
#     4  10  18  35  54  89 118 140 183 243 291 357
#     4  10  20  35  57  83 118 151 184 239 296 350
#     4  10  21  37  56  84 119 152 192 240 298 355
#     4  10  20  34  56  88 117 147 197 246 290 351
#     4  10  23  41  62  85 114 152 202 250 295 344
#     4  11  23  38  61  84 116 156 200 245 292 349
#
# _framework density 19.007687000000001
#
# number of rings (size 3 to 8) (size 9 to 14) (size 15 to 20)
#    0.000    1.800    4.000    0.900    2.800    3.200 
#    0.000    2.500    0.000    2.400    0.000    0.000 
#    0.000    0.000    0.000    0.000    0.000    0.000 
#
# Total GULP energy -495592.611973 kJ/mol
# GULP energy per Si atom -12389.815299 kJ/mol
# Density = 1.896443 g / cm^3
# Si number density = 19.007687 Si / 1000 Ang^3
#
#
#
# Elastic Constant Matrix: (Units=GPa)
#
#
# Indices 1 2 3 4 5 6 
#
# 1 82.8940 42.0639 50.1434 0.0000 0.0000 0.0000
# 2 42.0639 136.4763 36.1218 0.0002 0.0000 0.0000
# 3 50.1434 36.1218 137.3567 0.0002 0.0001 0.0000
# 4 0.0000 0.0002 0.0002 28.0067 0.0000 0.0000
# 5 0.0000 0.0000 0.0001 0.0000 20.3700 0.0000
# 6 0.0000 0.0000 0.0000 0.0000 0.0000 27.0872
#
#
#
# Elastic Compliance Matrix: (Units=1/GPa)
#
#
# Indices 1 2 3 4 5 6 
#
# 1 0.017235 -0.003920 -0.005261 0.000000 0.000000 0.000000
# 2 -0.003920 0.008767 -0.000875 0.000000 0.000000 0.000000
# 3 -0.005261 -0.000875 0.009431 0.000000 0.000000 0.000000
# 4 0.000000 0.000000 0.000000 0.035706 0.000000 0.000000
# 5 0.000000 0.000000 0.000000 0.000000 0.049092 0.000000
# 6 0.000000 0.000000 0.000000 0.000000 0.000000 0.036918
#
#
# Mechanical properties :
#
#
# Convention : Reuss Voigt Hill
#
# Bulk Modulus (GPa) = 65.26445 68.15392 66.70919
# Shear Modulus (GPa) = 27.41738 30.31931 28.86834
#
# Velocity S-wave (km/s) = 3.80206 3.99821 3.90137
# Velocity P-wave (km/s) = 7.32698 7.56625 7.44757
#
# Compressibility (1/GPa) = 0.01532228
#
# Stress axis : x y z
#
# Youngs Moduli (GPa) = 58.02138 114.06613 106.03429
#
# Poissons Ratio (x) = 0.44709 0.55785
# Poissons Ratio (y) = 0.22742 0.09274
# Poissons Ratio (z) = 0.30525 0.09976
#
# Static dielectric constant tensor:
#      x y z
#    x 3.252580 0.000000 0.000000 
#    y 0.000000 3.661650 0.000000 
#    z 0.000000 0.000000 3.462610 
# 
# 
# High freq. dielectric constant tensor:
#      x y z
#    x 1.700320 0.000000 0.000000 
#    y 0.000000 1.761490 0.000000 
#    z 0.000000 0.000000 1.734020 
# 
# From -- ./inp_files/20573.got.cif
#   From: 2010.03.12/outbox.cif.g09.slc.cpg/sg74_11_cif.got.tgz:20573.got - 2010.04.16 15:46:19.
