data_PCOD8298317
_publ_section_title
;
Structure prediction by ZEFSAII (Michael W. Deem and Ramdas Pophale) SiO2 
 PCOD8298317
Probable space group: I M M A
;
_chemical_formula_sum "Si O2"
_cell_formula_units_Z 104
_cell_length_a 22.468749
_cell_length_b 8.932750
_cell_length_c 29.757309
_cell_angle_alpha 90.000000
_cell_angle_beta 90.000000
_cell_angle_gamma 90.000000
_cell_volume 5972.521572
_symmetry_space_group_name_H-M "I M M A"
_symmetry_group_IT_number 74
_symmetry_cell_setting 'orthorhombic'
loop_
_space_group_symop_operation_xyz
x,y,z
-x,1/2-y,z
x,-y,-z
-x,1/2+y,-z
-x,-y,-z
x,1/2+y,-z
-x,y,z
x,1/2-y,z
1/2+x,1/2+y,1/2+z
1/2-x,-y,1/2+z
1/2+x,1/2-y,1/2-z
1/2-x,y,1/2-z
1/2-x,1/2-y,1/2-z
1/2+x,y,1/2-z
1/2-x,1/2+y,1/2+z
1/2+x,-y,1/2+z
loop_
_atom_site_type_symbol
_atom_site_label
_atom_site_fract_x
_atom_site_fract_y
_atom_site_fract_z
Si Si1 0.000000 0.426320 0.548110
Si Si2 0.931624 0.926173 0.694483
Si Si3 0.389790 0.424072 0.892376
Si Si4 0.432050 0.925045 0.626371
Si Si5 0.345043 0.572228 0.546881
Si Si6 0.570737 0.418729 0.715716
Si Si7 0.278761 0.573915 0.046362
O O1 0.000000 0.500000 0.500000
O O2 0.058067 0.481092 0.574885
O O3 0.000000 0.250000 0.541127
O O4 0.926053 0.750000 0.697801
O O5 0.000000 0.976814 0.686734
O O6 0.891517 0.985476 0.653886
O O7 0.905581 0.994155 0.740581
O O8 0.398656 0.250000 0.881394
O O9 0.326870 0.457434 0.915302
O O10 0.500000 0.974113 0.617043
O O11 0.427623 0.750000 0.635751
O O12 0.393936 0.973582 0.583430
O O13 0.404993 0.006039 0.670190
O O14 0.365693 0.500000 0.500000
O O15 0.338976 0.750000 0.541517
O O16 0.282242 0.502999 0.562217
O O17 0.500000 0.426948 0.715037
O O18 0.594560 0.250000 0.717956
O O19 0.268931 0.750000 0.038388
O O20 0.301189 0.500000 0.000000
#
# Coordination Sequence:
#
# PCOD8298317 Si02
#       7
#     8  16  16  16  16  16  16
#     4  10  20  32  46  66  96 128 160 204 255 302
#     4  10  19  30  47  72 100 131 166 205 249 297
#     4  10  20  33  49  69  96 130 166 209 255 297
#     4   9  18  33  52  76 105 133 163 199 242 292
#     4  10  20  34  53  75 101 134 167 203 244 287
#     4   9  17  29  48  73 101 133 164 198 242 294
#     4  10  20  34  52  72  95 129 171 210 248 293
#
# _framework density 17.413080999999998
#
# number of rings (size 3 to 8) (size 9 to 14) (size 15 to 20)
#    0.000    2.308    0.769    3.231    0.000    5.846 
#    0.000    0.000    0.000    0.923    0.000    6.462 
#    0.000    0.000    0.000    0.000    0.000    0.000 
#
# Total GULP energy -644897.557329 kJ/mol
# GULP energy per Si atom -12401.876102 kJ/mol
# Density = 1.737345 g / cm^3
# Si number density = 17.413081 Si / 1000 Ang^3
#
#
#
# Elastic Constant Matrix: (Units=GPa)
#
#
# Indices 1 2 3 4 5 6 
#
# 1 71.0742 41.4334 71.5410 0.0000 0.0000 0.0000
# 2 41.4334 87.9250 71.0380 0.0000 0.0000 0.0000
# 3 71.5410 71.0380 166.1300 0.0000 0.0000 0.0000
# 4 0.0000 0.0000 0.0000 37.3956 0.0000 0.0000
# 5 0.0000 0.0000 0.0000 0.0000 21.2601 0.0000
# 6 0.0000 0.0000 0.0000 0.0000 0.0000 21.2434
#
#
#
# Elastic Compliance Matrix: (Units=1/GPa)
#
#
# Indices 1 2 3 4 5 6 
#
# 1 0.026162 -0.004929 -0.009159 0.000000 0.000000 0.000000
# 2 -0.004929 0.018305 -0.005705 0.000000 0.000000 0.000000
# 3 -0.009159 -0.005705 0.012403 0.000000 0.000000 0.000000
# 4 0.000000 0.000000 0.000000 0.026741 0.000000 0.000000
# 5 0.000000 0.000000 0.000000 0.000000 0.047036 0.000000
# 6 0.000000 0.000000 0.000000 0.000000 0.000000 0.047073
#
#
# Mechanical properties :
#
#
# Convention : Reuss Voigt Hill
#
# Bulk Modulus (GPa) = 57.85271 77.01712 67.43491
# Shear Modulus (GPa) = 22.41481 25.38762 23.90122
#
# Velocity S-wave (km/s) = 3.59170 3.82247 3.70888
# Velocity P-wave (km/s) = 7.10607 7.98794 7.55988
#
# Compressibility (1/GPa) = 0.01728527
#
# Stress axis : x y z
#
# Youngs Moduli (GPa) = 38.22366 54.62952 80.62714
#
# Poissons Ratio (x) = 0.26926 0.73843
# Poissons Ratio (y) = 0.18840 0.45997
# Poissons Ratio (z) = 0.35007 0.31165
#
# Static dielectric constant tensor:
#      x y z
#    x 3.048810 0.000000 0.000000 
#    y 0.000000 3.290810 0.000000 
#    z 0.000000 0.000000 3.317200 
# 
# 
# High freq. dielectric constant tensor:
#      x y z
#    x 1.640750 0.000000 0.000000 
#    y 0.000000 1.682170 0.000000 
#    z 0.000000 0.000000 1.680980 
# 
# From -- ./inp_files/73384.got.cif
#   From: 2010.03.12/outbox.cif.g09.slc.cpg/sg74_37_cif.got.tgz:73384.got - 2010.04.16 15:46:19.
