data_PCOD8298215
_publ_section_title
;
Structure prediction by ZEFSAII (Michael W. Deem and Ramdas Pophale) SiO2 
 PCOD8298215
Probable space group: I M M A
;
_chemical_formula_sum "Si O2"
_cell_formula_units_Z 128
_cell_length_a 22.759782
_cell_length_b 26.807985
_cell_length_c 12.001350
_cell_angle_alpha 90.000000
_cell_angle_beta 90.000000
_cell_angle_gamma 90.000000
_cell_volume 7322.550428
_symmetry_space_group_name_H-M "I M M A"
_symmetry_group_IT_number 74
_symmetry_cell_setting 'orthorhombic'
loop_
_space_group_symop_operation_xyz
x,y,z
-x,1/2-y,z
x,-y,-z
-x,1/2+y,-z
-x,-y,-z
x,1/2+y,-z
-x,y,z
x,1/2-y,z
1/2+x,1/2+y,1/2+z
1/2-x,-y,1/2+z
1/2+x,1/2-y,1/2-z
1/2-x,y,1/2-z
1/2-x,1/2-y,1/2-z
1/2+x,y,1/2-z
1/2-x,1/2+y,1/2+z
1/2+x,-y,1/2+z
loop_
_atom_site_type_symbol
_atom_site_label
_atom_site_fract_x
_atom_site_fract_y
_atom_site_fract_z
Si Si1 0.432311 0.067917 0.814091
Si Si2 0.068320 0.879142 0.096617
Si Si3 0.569017 0.455925 0.155697
Si Si4 0.881668 0.126779 0.494350
Si Si5 0.568085 0.386216 0.349293
Si Si6 0.664347 0.693870 0.326213
Si Si7 0.786933 0.192579 0.582161
Si Si8 0.431530 0.694898 0.818185
O O1 0.500000 0.072650 0.845284
O O2 0.421978 0.074633 0.681435
O O3 0.399537 0.112059 0.880080
O O4 0.410371 0.013134 0.850531
O O5 0.104724 0.833140 0.142415
O O6 0.000000 0.863654 0.093867
O O7 0.093346 0.892903 0.973931
O O8 0.500000 0.449113 0.120792
O O9 0.578217 0.437447 0.282338
O O10 0.612333 0.424398 0.076196
O O11 0.816897 0.152556 0.497501
O O12 0.923039 0.168622 0.438226
O O13 0.500000 0.374317 0.360200
O O14 0.596585 0.339702 0.280076
O O15 0.654268 0.750000 0.363743
O O16 0.720747 0.673627 0.395326
O O17 0.676014 0.690642 0.195431
O O18 0.788144 0.250000 0.536712
O O19 0.500000 0.700303 0.798000
O O20 0.402141 0.750000 0.815862
#
# Coordination Sequence:
#
# PCOD8298215 Si02
#       8
#    16  16  16  16  16  16  16  16
#     4  10  19  29  44  73 105 128 158 206 261 305
#     4  10  19  31  50  77 102 127 163 210 255 295
#     4   9  18  31  47  69 101 138 168 201 248 307
#     4  11  17  28  48  72  95 127 163 207 242 291
#     4   8  16  30  46  67  95 131 169 197 236 296
#     4   9  18  34  50  70  99 132 164 195 247 306
#     4   9  18  32  51  71  95 130 170 202 235 300
#     4   9  17  28  43  64  96 135 166 196 243 302
#
# _framework density 17.480248
#
# number of rings (size 3 to 8) (size 9 to 14) (size 15 to 20)
#    0.000    2.625    1.250    3.375    0.000    2.250 
#    0.000    3.750    0.000    3.000    9.750    7.875 
#    0.000    0.000    0.000    0.000    0.000    0.000 
#
# Total GULP energy -792899.066471 kJ/mol
# GULP energy per Si atom -12389.047914 kJ/mol
# Density = 1.744046 g / cm^3
# Si number density = 17.480248 Si / 1000 Ang^3
#
#
#
# Elastic Constant Matrix: (Units=GPa)
#
#
# Indices 1 2 3 4 5 6 
#
# 1 47.5292 31.0562 16.8652 0.0000 0.0000 0.0000
# 2 31.0562 99.5163 39.1176 0.0000 0.0000 0.0000
# 3 16.8652 39.1176 87.2509 0.0000 0.0000 0.0000
# 4 0.0000 0.0000 0.0000 22.4214 0.0000 0.0000
# 5 0.0000 0.0000 0.0000 0.0000 13.5075 0.0000
# 6 0.0000 0.0000 0.0000 0.0000 0.0000 20.5285
#
#
#
# Elastic Compliance Matrix: (Units=1/GPa)
#
#
# Indices 1 2 3 4 5 6 
#
# 1 0.026641 -0.007635 -0.001726 0.000000 0.000000 0.000000
# 2 -0.007635 0.014387 -0.004974 0.000000 0.000000 0.000000
# 3 -0.001726 -0.004974 0.014025 0.000000 0.000000 0.000000
# 4 0.000000 0.000000 0.000000 0.044600 0.000000 0.000000
# 5 0.000000 0.000000 0.000000 0.000000 0.074033 0.000000
# 6 0.000000 0.000000 0.000000 0.000000 0.000000 0.048713
#
#
# Mechanical properties :
#
#
# Convention : Reuss Voigt Hill
#
# Bulk Modulus (GPa) = 37.90600 45.37495 41.64047
# Shear Modulus (GPa) = 19.24078 21.10863 20.17470
#
# Velocity S-wave (km/s) = 3.32130 3.47878 3.40095
# Velocity P-wave (km/s) = 6.03657 6.49231 6.26858
#
# Compressibility (1/GPa) = 0.02638105
#
# Stress axis : x y z
#
# Youngs Moduli (GPa) = 37.53555 69.50902 71.30128
#
# Poissons Ratio (x) = 0.53073 0.12310
# Poissons Ratio (y) = 0.28660 0.35466
# Poissons Ratio (z) = 0.06480 0.34575
#
# Static dielectric constant tensor:
#      x y z
#    x 2.915700 0.000000 0.000000 
#    y 0.000000 3.369940 0.000000 
#    z 0.000000 0.000000 3.449040 
# 
# 
# High freq. dielectric constant tensor:
#      x y z
#    x 1.625910 0.000000 0.000000 
#    y 0.000000 1.675930 0.000000 
#    z 0.000000 0.000000 1.676310 
# 
# From -- ./inp_files/25651.got.cif
#   From: 2010.03.12/outbox.cif.g09.slc.cpg/sg74_13_cif.got.tgz:25651.got - 2010.04.16 15:46:19.
