data_PCOD8298973
_publ_section_title
;
Structure prediction by ZEFSAII (Michael W. Deem and Ramdas Pophale) SiO2 
 PCOD8298973
Probable space group: I M M A
;
_chemical_formula_sum "Si O2"
_cell_formula_units_Z 96
_cell_length_a 19.179701
_cell_length_b 20.032444
_cell_length_c 12.881959
_cell_angle_alpha 90.000000
_cell_angle_beta 90.000000
_cell_angle_gamma 90.000000
_cell_volume 4949.458446
_symmetry_space_group_name_H-M "I M M A"
_symmetry_group_IT_number 74
_symmetry_cell_setting 'orthorhombic'
loop_
_space_group_symop_operation_xyz
x,y,z
-x,1/2-y,z
x,-y,-z
-x,1/2+y,-z
-x,-y,-z
x,1/2+y,-z
-x,y,z
x,1/2-y,z
1/2+x,1/2+y,1/2+z
1/2-x,-y,1/2+z
1/2+x,1/2-y,1/2-z
1/2-x,y,1/2-z
1/2-x,1/2-y,1/2-z
1/2+x,y,1/2-z
1/2-x,1/2+y,1/2+z
1/2+x,-y,1/2+z
loop_
_atom_site_type_symbol
_atom_site_label
_atom_site_fract_x
_atom_site_fract_y
_atom_site_fract_z
Si Si1 0.920287 0.887542 0.201628
Si Si2 0.079945 0.071685 0.467975
Si Si3 0.575813 0.038243 0.261834
Si Si4 0.215820 0.404682 0.918522
Si Si5 0.653128 0.826658 0.112323
Si Si6 0.714174 0.445986 0.356318
O O1 0.865236 0.886360 0.105664
O O2 0.895225 0.833880 0.286228
O O3 0.000000 0.871653 0.164071
O O4 0.917701 0.958942 0.259675
O O5 0.087614 0.078020 0.344526
O O6 0.122593 0.131918 0.516490
O O7 0.000000 0.076284 0.505330
O O8 0.111973 0.000000 0.500000
O O9 0.500000 0.054735 0.308760
O O10 0.631026 0.061669 0.346354
O O11 0.268205 0.352342 0.864320
O O12 0.235055 0.477195 0.873447
O O13 0.231860 0.402440 0.042389
O O14 0.655462 0.750000 0.079069
O O15 0.750000 0.419766 0.250000
#
# Coordination Sequence:
#
# PCOD8298973 Si02
#       6
#    16  16  16  16  16  16
#     4  10  20  36  55  80 114 151 189 229 283 347
#     4  10  19  33  57  85 112 149 191 233 283 340
#     4   9  17  31  54  83 112 140 181 236 289 339
#     4  10  22  35  54  81 113 153 192 237 285 339
#     4  12  24  36  54  83 118 153 191 235 283 341
#     4  10  19  33  55  83 110 146 192 237 287 337
#
# _framework density 19.396061
#
# number of rings (size 3 to 8) (size 9 to 14) (size 15 to 20)
#    0.000    1.833    1.667    4.000    2.333    3.333 
#    0.000    3.333    0.000    4.500    0.000    0.000 
#    0.000    0.000    0.000    0.000    0.000    0.000 
#
# Total GULP energy -595060.400177 kJ/mol
# GULP energy per Si atom -12397.091670 kJ/mol
# Density = 1.935191 g / cm^3
# Si number density = 19.396061 Si / 1000 Ang^3
#
#
#
# Elastic Constant Matrix: (Units=GPa)
#
#
# Indices 1 2 3 4 5 6 
#
# 1 123.2245 37.2475 37.7978 0.0000 0.0000 0.0000
# 2 37.2475 80.0591 23.1071 0.0000 0.0000 0.0000
# 3 37.7978 23.1071 83.2358 0.0000 0.0000 0.0000
# 4 0.0000 0.0000 0.0000 15.7766 0.0000 0.0000
# 5 0.0000 0.0000 0.0000 0.0000 32.3204 0.0000
# 6 0.0000 0.0000 0.0000 0.0000 0.0000 11.4366
#
#
#
# Elastic Compliance Matrix: (Units=1/GPa)
#
#
# Indices 1 2 3 4 5 6 
#
# 1 0.010380 -0.003771 -0.003667 0.000000 0.000000 0.000000
# 2 -0.003771 0.014949 -0.002438 0.000000 0.000000 0.000000
# 3 -0.003667 -0.002438 0.014356 0.000000 0.000000 0.000000
# 4 0.000000 0.000000 0.000000 0.063385 0.000000 0.000000
# 5 0.000000 0.000000 0.000000 0.000000 0.030940 0.000000
# 6 0.000000 0.000000 0.000000 0.000000 0.000000 0.087439
#
#
# Mechanical properties :
#
#
# Convention : Reuss Voigt Hill
#
# Bulk Modulus (GPa) = 50.16530 53.64715 51.90622
# Shear Modulus (GPa) = 20.17403 24.46451 22.31927
#
# Velocity S-wave (km/s) = 3.22857 3.55535 3.39589
# Velocity P-wave (km/s) = 6.31015 6.67629 6.49580
#
# Compressibility (1/GPa) = 0.01993410
#
# Stress axis : x y z
#
# Youngs Moduli (GPa) = 96.34061 66.89535 69.65821
#
# Poissons Ratio (x) = 0.25226 0.25542
# Poissons Ratio (y) = 0.36329 0.16979
# Poissons Ratio (z) = 0.35325 0.16306
#
# Static dielectric constant tensor:
#      x y z
#    x 3.884730 0.000000 0.000000 
#    y 0.000000 3.020150 0.000000 
#    z 0.000000 0.000000 3.404240 
# 
# 
# High freq. dielectric constant tensor:
#      x y z
#    x 1.780190 0.000000 0.000000 
#    y 0.000000 1.691120 0.000000 
#    z 0.000000 0.000000 1.746470 
# 
# From -- ./inp_files/23940.got.cif
#   From: 2010.03.12/outbox.cif.g09.slc.cpg/sg74_12_cif.got.tgz:23940.got - 2010.04.16 15:46:19.
