data_PCOD8298022
_publ_section_title
;
Structure prediction by ZEFSAII (Michael W. Deem and Ramdas Pophale) SiO2 
 PCOD8298022
Probable space group: I M M A
;
_chemical_formula_sum "Si O2"
_cell_formula_units_Z 128
_cell_length_a 23.135550
_cell_length_b 17.566226
_cell_length_c 18.367516
_cell_angle_alpha 90.000000
_cell_angle_beta 90.000000
_cell_angle_gamma 90.000000
_cell_volume 7464.637482
_symmetry_space_group_name_H-M "I M M A"
_symmetry_group_IT_number 74
_symmetry_cell_setting 'orthorhombic'
loop_
_space_group_symop_operation_xyz
x,y,z
-x,1/2-y,z
x,-y,-z
-x,1/2+y,-z
-x,-y,-z
x,1/2+y,-z
-x,y,z
x,1/2-y,z
1/2+x,1/2+y,1/2+z
1/2-x,-y,1/2+z
1/2+x,1/2-y,1/2-z
1/2-x,y,1/2-z
1/2-x,1/2-y,1/2-z
1/2+x,y,1/2-z
1/2-x,1/2+y,1/2+z
1/2+x,-y,1/2+z
loop_
_atom_site_type_symbol
_atom_site_label
_atom_site_fract_x
_atom_site_fract_y
_atom_site_fract_z
Si Si1 0.142665 0.556738 0.935645
Si Si2 0.567168 0.663557 0.661687
Si Si3 0.708068 0.938293 0.344742
Si Si4 0.723771 0.337866 0.524252
Si Si5 0.065962 0.435862 0.300661
Si Si6 0.649085 0.664257 0.063226
Si Si7 0.434410 0.079726 0.030966
Si Si8 0.665517 0.442441 0.807429
O O1 0.093198 0.609901 0.901617
O O2 0.168216 0.507100 0.870738
O O3 0.119516 0.500000 0.000000
O O4 0.193651 0.611028 0.963588
O O5 0.500000 0.665410 0.644297
O O6 0.592399 0.750000 0.658164
O O7 0.578483 0.631516 0.743144
O O8 0.703468 0.864987 0.396323
O O9 0.683257 0.905408 0.269347
O O10 0.773468 0.973097 0.340384
O O11 0.706863 0.250000 0.513146
O O12 0.792119 0.352938 0.519341
O O13 0.071799 0.406896 0.383138
O O14 0.115841 0.497235 0.290053
O O15 0.000000 0.467819 0.288699
O O16 0.647424 0.750000 0.089936
O O17 0.639217 0.617832 0.137070
O O18 0.598164 0.648837 0.006847
O O19 0.500000 0.083740 0.004805
O O20 0.407723 0.000000 0.000000
#
# Coordination Sequence:
#
# PCOD8298022 Si02
#       8
#    16  16  16  16  16  16  16  16
#     4  10  19  33  55  81 105 132 169 206 258 306
#     4  10  21  37  56  78 105 136 170 212 257 303
#     4   9  19  31  52  78 100 134 170 214 252 298
#     4   9  19  33  49  74 107 138 166 203 257 311
#     4  10  20  34  55  75  98 136 177 212 253 305
#     4  10  21  33  50  77 105 136 172 214 260 301
#     4  10  20  33  51  74  99 134 175 215 260 304
#     4  10  18  33  53  74 103 133 174 215 252 302
#
# _framework density 17.147518000000002
#
# number of rings (size 3 to 8) (size 9 to 14) (size 15 to 20)
#    0.000    2.250    2.500    0.375    1.750    2.000 
#    0.000    3.750    0.000    0.750    0.000    0.000 
#    0.000    0.000    0.000    0.000    0.000    0.000 
#
# Total GULP energy -793156.319838 kJ/mol
# GULP energy per Si atom -12393.067497 kJ/mol
# Density = 1.710849 g / cm^3
# Si number density = 17.147518 Si / 1000 Ang^3
#
#
#
# Elastic Constant Matrix: (Units=GPa)
#
#
# Indices 1 2 3 4 5 6 
#
# 1 61.8677 35.2435 36.1516 0.0000 0.0000 0.0000
# 2 35.2435 84.8672 41.6282 0.0000 0.0000 0.0000
# 3 36.1516 41.6282 99.8345 0.0000 0.0000 0.0000
# 4 0.0000 0.0000 0.0000 22.7493 0.0000 0.0000
# 5 0.0000 0.0000 0.0000 0.0000 26.7778 0.0000
# 6 0.0000 0.0000 0.0000 0.0000 0.0000 24.8683
#
#
#
# Elastic Compliance Matrix: (Units=1/GPa)
#
#
# Indices 1 2 3 4 5 6 
#
# 1 0.023391 -0.006988 -0.005556 0.000000 0.000000 0.000000
# 2 -0.006988 0.016901 -0.004516 0.000000 0.000000 0.000000
# 3 -0.005556 -0.004516 0.013912 0.000000 0.000000 0.000000
# 4 0.000000 0.000000 0.000000 0.043957 0.000000 0.000000
# 5 0.000000 0.000000 0.000000 0.000000 0.037344 0.000000
# 6 0.000000 0.000000 0.000000 0.000000 0.000000 0.040212
#
#
# Mechanical properties :
#
#
# Convention : Reuss Voigt Hill
#
# Bulk Modulus (GPa) = 49.79768 52.51289 51.15528
# Shear Modulus (GPa) = 23.09107 23.78214 23.43661
#
# Velocity S-wave (km/s) = 3.67360 3.72817 3.70099
# Velocity P-wave (km/s) = 6.86277 7.01591 6.93976
#
# Compressibility (1/GPa) = 0.02008126
#
# Stress axis : x y z
#
# Youngs Moduli (GPa) = 42.75084 59.16939 71.88101
#
# Poissons Ratio (x) = 0.41350 0.39940
# Poissons Ratio (y) = 0.29876 0.32465
# Poissons Ratio (z) = 0.23754 0.26724
#
# Static dielectric constant tensor:
#      x y z
#    x 3.249750 0.000000 0.000000 
#    y 0.000000 3.149250 0.000000 
#    z 0.000000 0.000000 3.290010 
# 
# 
# High freq. dielectric constant tensor:
#      x y z
#    x 1.659570 0.000000 0.000000 
#    y 0.000000 1.648180 0.000000 
#    z 0.000000 0.000000 1.671230 
# 
# From -- ./inp_files/44613.got.cif
#   From: 2010.03.12/outbox.cif.g09.slc.cpg/sg74_23_cif.got.tgz:44613.got - 2010.04.16 15:46:19.
