data_PCOD8298512
_publ_section_title
;
Structure prediction by ZEFSAII (Michael W. Deem and Ramdas Pophale) SiO2 
 PCOD8298512
Probable space group: I M M A
;
_chemical_formula_sum "Si O2"
_cell_formula_units_Z 88
_cell_length_a 8.963253
_cell_length_b 27.653217
_cell_length_c 19.248368
_cell_angle_alpha 90.000000
_cell_angle_beta 90.000000
_cell_angle_gamma 90.000000
_cell_volume 4770.954007
_symmetry_space_group_name_H-M "I M M A"
_symmetry_group_IT_number 74
_symmetry_cell_setting 'orthorhombic'
loop_
_space_group_symop_operation_xyz
x,y,z
-x,1/2-y,z
x,-y,-z
-x,1/2+y,-z
-x,-y,-z
x,1/2+y,-z
-x,y,z
x,1/2-y,z
1/2+x,1/2+y,1/2+z
1/2-x,-y,1/2+z
1/2+x,1/2-y,1/2-z
1/2-x,y,1/2-z
1/2-x,1/2-y,1/2-z
1/2+x,y,1/2-z
1/2-x,1/2+y,1/2+z
1/2+x,-y,1/2+z
loop_
_atom_site_type_symbol
_atom_site_label
_atom_site_fract_x
_atom_site_fract_y
_atom_site_fract_z
Si Si1 0.825282 0.972536 0.824329
Si Si2 0.826400 0.634369 0.823567
Si Si3 0.324278 0.750000 0.176060
Si Si4 0.676647 0.565814 0.174643
Si Si5 0.675075 0.659082 0.087125
Si Si6 0.676914 0.805046 0.547070
O O1 0.750000 0.971748 0.750000
O O2 0.795411 0.919315 0.856110
O O3 0.000000 0.984014 0.818984
O O4 0.742974 0.017288 0.862985
O O5 0.750000 0.643748 0.750000
O O6 0.768000 0.673119 0.879481
O O7 0.000000 0.640736 0.809066
O O8 0.500000 0.750000 0.186655
O O9 0.250000 0.750000 0.250000
O O10 0.268926 0.796956 0.134800
O O11 0.500000 0.561449 0.183889
O O12 0.750000 0.574494 0.250000
O O13 0.721146 0.609655 0.124552
O O14 0.500000 0.662486 0.073795
O O15 0.755952 0.662017 0.013406
O O16 0.500000 0.807504 0.541799
O O17 0.735424 0.750000 0.541553
#
# Coordination Sequence:
#
# PCOD8298512 Si02
#       6
#    16  16   8  16  16  16
#     4   9  16  29  50  74 103 136 167 207 256 305
#     4   9  19  35  55  81 107 132 169 212 257 311
#     4  10  20  34  52  74 101 132 173 216 253 300
#     4  10  19  31  50  77 106 136 173 216 256 301
#     4  10  21  36  52  73 104 139 174 213 257 307
#     4  10  21  37  56  77 103 136 173 215 261 310
#
# _framework density 18.444948
#
# number of rings (size 3 to 8) (size 9 to 14) (size 15 to 20)
#    0.000    2.364    0.909    2.727    0.000    4.000 
#    0.000    0.909    0.000    5.455    0.000    0.000 
#    0.000    0.000    0.000    0.000    0.000    0.000 
#
# Total GULP energy -545402.604672 kJ/mol
# GULP energy per Si atom -12395.513743 kJ/mol
# Density = 1.840297 g / cm^3
# Si number density = 18.444948 Si / 1000 Ang^3
#
#
#
# Elastic Constant Matrix: (Units=GPa)
#
#
# Indices 1 2 3 4 5 6 
#
# 1 57.7540 39.0973 37.6126 0.0000 0.0000 0.0000
# 2 39.0973 113.5816 57.5979 0.0000 0.0000 0.0000
# 3 37.6126 57.5979 113.7299 0.0003 0.0000 0.0000
# 4 0.0000 0.0000 0.0003 16.3052 0.0000 0.0000
# 5 0.0000 0.0000 0.0000 0.0000 28.1264 0.0000
# 6 0.0000 0.0000 0.0000 0.0000 0.0000 25.1947
#
#
#
# Elastic Compliance Matrix: (Units=1/GPa)
#
#
# Indices 1 2 3 4 5 6 
#
# 1 0.024659 -0.005857 -0.005189 0.000000 0.000000 0.000000
# 2 -0.005857 0.013238 -0.004767 0.000000 0.000000 0.000000
# 3 -0.005189 -0.004767 0.012923 0.000000 0.000000 0.000000
# 4 0.000000 0.000000 0.000000 0.061330 0.000000 0.000000
# 5 0.000000 0.000000 0.000000 0.000000 0.035554 0.000000
# 6 0.000000 0.000000 0.000000 0.000000 0.000000 0.039691
#
#
# Mechanical properties :
#
#
# Convention : Reuss Voigt Hill
#
# Bulk Modulus (GPa) = 52.10004 61.52013 56.81009
# Shear Modulus (GPa) = 22.18092 23.97578 23.07835
#
# Velocity S-wave (km/s) = 3.47154 3.60926 3.54107
# Velocity P-wave (km/s) = 6.66156 7.12705 6.89823
#
# Compressibility (1/GPa) = 0.01919384
#
# Stress axis : x y z
#
# Youngs Moduli (GPa) = 40.55311 75.54137 77.38003
#
# Poissons Ratio (x) = 0.44243 0.40153
# Poissons Ratio (y) = 0.23751 0.36889
# Poissons Ratio (z) = 0.21043 0.36013
#
# Static dielectric constant tensor:
#      x y z
#    x 4.255440 0.000000 0.000000 
#    y 0.000000 4.333370 0.000000 
#    z 0.000000 0.000000 3.160780 
# 
# 
# High freq. dielectric constant tensor:
#      x y z
#    x 1.714460 0.000000 0.000000 
#    y 0.000000 1.734680 0.000000 
#    z 0.000000 0.000000 1.689260 
# 
# From -- ./inp_files/40133.got.cif
#   From: 2010.03.12/outbox.cif.g09.slc.cpg/sg74_21_cif.got.tgz:40133.got - 2010.04.16 15:46:19.
