data_PCOD8298170
_publ_section_title
;
Structure prediction by ZEFSAII (Michael W. Deem and Ramdas Pophale) SiO2 
 PCOD8298170
Probable space group: I M M A
;
_chemical_formula_sum "Si O2"
_cell_formula_units_Z 88
_cell_length_a 25.292367
_cell_length_b 8.907668
_cell_length_c 27.548696
_cell_angle_alpha 90.000000
_cell_angle_beta 90.000000
_cell_angle_gamma 90.000000
_cell_volume 6206.611239
_symmetry_space_group_name_H-M "I M M A"
_symmetry_group_IT_number 74
_symmetry_cell_setting 'orthorhombic'
loop_
_space_group_symop_operation_xyz
x,y,z
-x,1/2-y,z
x,-y,-z
-x,1/2+y,-z
-x,-y,-z
x,1/2+y,-z
-x,y,z
x,1/2-y,z
1/2+x,1/2+y,1/2+z
1/2-x,-y,1/2+z
1/2+x,1/2-y,1/2-z
1/2-x,y,1/2-z
1/2-x,1/2-y,1/2-z
1/2+x,y,1/2-z
1/2-x,1/2+y,1/2+z
1/2+x,-y,1/2+z
loop_
_atom_site_type_symbol
_atom_site_label
_atom_site_fract_x
_atom_site_fract_y
_atom_site_fract_z
Si Si1 0.500000 0.072225 0.447459
Si Si2 0.901842 0.075126 0.896536
Si Si3 0.708309 0.924729 0.448357
Si Si4 0.146557 0.080963 0.190792
Si Si5 0.258436 0.418654 0.138235
Si Si6 0.306179 0.580524 0.223609
O O1 0.500000 0.250000 0.453161
O O2 0.500000 0.000000 0.500000
O O3 0.551488 0.021645 0.418735
O O4 0.916958 0.250000 0.895721
O O5 0.850479 0.044040 0.929062
O O6 0.892700 0.019306 0.841625
O O7 0.719905 0.750000 0.452900
O O8 0.715164 0.000000 0.500000
O O9 0.751773 0.994074 0.412273
O O10 0.124235 0.250000 0.195444
O O11 0.203622 0.083151 0.166571
O O12 0.150804 0.007717 0.244059
O O13 0.277854 0.250000 0.127593
O O14 0.302107 0.501581 0.171179
O O15 0.326097 0.750000 0.216118
O O16 0.250000 0.579231 0.250000
#
# Coordination Sequence:
#
# PCOD8298170 Si02
#       6
#     8  16  16  16  16  16
#     4  12  24  36  48  60  74  94 122 158 199 240
#     4  10  20  33  46  59  74  93 120 155 195 236
#     4  10  19  29  41  55  72  95 123 155 190 227
#     4   9  16  26  40  57  75  94 116 144 181 223
#     4   9  16  25  37  53  73  95 119 147 179 216
#     4   9  15  23  36  54  75  96 117 142 175 215
#
# _framework density 14.178431
#
# number of rings (size 3 to 8) (size 9 to 14) (size 15 to 20)
#    0.000    2.364    0.000    4.091    0.000   10.182 
#    0.000    0.000    0.000    0.000    0.000    0.000 
#    0.000    0.000    0.000    0.000    0.000    0.000 
#
# Total GULP energy -545607.800805 kJ/mol
# GULP energy per Si atom -12400.177291 kJ/mol
# Density = 1.414616 g / cm^3
# Si number density = 14.178431 Si / 1000 Ang^3
#
#
#
# Elastic Constant Matrix: (Units=GPa)
#
#
# Indices 1 2 3 4 5 6 
#
# 1 26.4303 27.7992 40.4384 0.0000 0.0000 0.0000
# 2 27.7992 127.8770 71.8510 0.0000 0.0000 0.0000
# 3 40.4384 71.8510 117.4802 0.0000 0.0000 0.0000
# 4 0.0000 0.0000 0.0000 30.7633 0.0000 0.0000
# 5 0.0000 0.0000 0.0000 0.0000 17.8290 0.0000
# 6 0.0000 0.0000 0.0000 0.0000 0.0000 16.8621
#
#
#
# Elastic Compliance Matrix: (Units=1/GPa)
#
#
# Indices 1 2 3 4 5 6 
#
# 1 0.080653 -0.002947 -0.025960 0.000000 0.000000 0.000000
# 2 -0.002947 0.012022 -0.006338 0.000000 0.000000 0.000000
# 3 -0.025960 -0.006338 0.021324 0.000000 0.000000 0.000000
# 4 0.000000 0.000000 0.000000 0.032506 0.000000 0.000000
# 5 0.000000 0.000000 0.000000 0.000000 0.056088 0.000000
# 6 0.000000 0.000000 0.000000 0.000000 0.000000 0.059305
#
#
# Mechanical properties :
#
#
# Convention : Reuss Voigt Hill
#
# Bulk Modulus (GPa) = 22.98340 61.32943 42.15641
# Shear Modulus (GPa) = 14.41371 21.87081 18.14226
#
# Velocity S-wave (km/s) = 3.19187 3.93178 3.58099
# Velocity P-wave (km/s) = 5.46162 7.99758 6.84801
#
# Compressibility (1/GPa) = 0.04350966
#
# Stress axis : x y z
#
# Youngs Moduli (GPa) = 12.39872 83.18102 46.89507
#
# Poissons Ratio (x) = 0.24515 1.21738
# Poissons Ratio (y) = 0.03654 0.29723
# Poissons Ratio (z) = 0.32187 0.52722
#
# Static dielectric constant tensor:
#      x y z
#    x 2.306270 0.000000 0.000000 
#    y 0.000000 3.032960 0.000000 
#    z 0.000000 0.000000 2.864970 
# 
# 
# High freq. dielectric constant tensor:
#      x y z
#    x 1.471140 0.000000 0.000000 
#    y 0.000000 1.567380 0.000000 
#    z 0.000000 0.000000 1.539110 
# 
# From -- ./inp_files/49474.got.cif
#   From: 2010.03.12/outbox.cif.g09.slc.cpg/sg74_25_cif.got.tgz:49474.got - 2010.04.16 15:46:19.
