data_PCOD8298809
_publ_section_title
;
Structure prediction by ZEFSAII (Michael W. Deem and Ramdas Pophale) SiO2 
 PCOD8298809
Probable space group: I M M A
;
_chemical_formula_sum "Si O2"
_cell_formula_units_Z 96
_cell_length_a 23.740690
_cell_length_b 14.652598
_cell_length_c 14.594890
_cell_angle_alpha 90.000000
_cell_angle_beta 90.000000
_cell_angle_gamma 90.000000
_cell_volume 5077.019109
_symmetry_space_group_name_H-M "I M M A"
_symmetry_group_IT_number 74
_symmetry_cell_setting 'orthorhombic'
loop_
_space_group_symop_operation_xyz
x,y,z
-x,1/2-y,z
x,-y,-z
-x,1/2+y,-z
-x,-y,-z
x,1/2+y,-z
-x,y,z
x,1/2-y,z
1/2+x,1/2+y,1/2+z
1/2-x,-y,1/2+z
1/2+x,1/2-y,1/2-z
1/2-x,y,1/2-z
1/2-x,1/2-y,1/2-z
1/2+x,y,1/2-z
1/2-x,1/2+y,1/2+z
1/2+x,-y,1/2+z
loop_
_atom_site_type_symbol
_atom_site_label
_atom_site_fract_x
_atom_site_fract_y
_atom_site_fract_z
Si Si1 0.934405 0.106320 0.509248
Si Si2 0.565976 0.750000 0.159156
Si Si3 0.809587 0.529449 0.781687
Si Si4 0.158167 0.650107 0.621492
Si Si5 0.131854 0.075036 0.930320
Si Si6 0.225382 0.853697 0.947573
Si Si7 0.432502 0.750000 0.367565
O O1 0.916378 0.156866 0.604549
O O2 0.901632 0.155399 0.427916
O O3 0.000000 0.121992 0.491572
O O4 0.918112 0.000000 0.500000
O O5 0.500000 0.750000 0.171801
O O6 0.590963 0.750000 0.262559
O O7 0.750000 0.483169 0.750000
O O8 0.843181 0.571385 0.696684
O O9 0.854033 0.460967 0.828557
O O10 0.795225 0.611948 0.849293
O O11 0.169921 0.750000 0.665827
O O12 0.207310 0.630390 0.545959
O O13 0.090323 0.160882 0.921089
O O14 0.193927 0.095913 0.970078
O O15 0.103783 0.000000 0.000000
O O16 0.207345 0.750000 0.955898
O O17 0.500000 0.750000 0.372989
#
# Coordination Sequence:
#
# PCOD8298809 Si02
#       7
#    16   8  16  16  16  16   8
#     4  10  21  36  55  78 110 150 189 232 279 334
#     4   9  20  40  57  76 109 148 189 229 281 343
#     4   9  19  33  53  83 116 149 186 234 284 348
#     4  10  19  32  56  85 111 150 195 234 286 339
#     4  10  21  39  61  86 116 153 190 242 298 348
#     4   9  17  34  56  80 114 146 187 231 290 347
#     4  11  24  42  64  85 112 153 200 245 295 353
#
# _framework density 18.908733000000002
#
# number of rings (size 3 to 8) (size 9 to 14) (size 15 to 20)
#    0.000    2.333    1.667    0.500    2.333    5.667 
#    0.000    0.417    0.000    1.000    0.000    0.000 
#    0.000    0.000    0.000    0.000    0.000    0.000 
#
# Total GULP energy -594805.498163 kJ/mol
# GULP energy per Si atom -12391.781212 kJ/mol
# Density = 1.886570 g / cm^3
# Si number density = 18.908733 Si / 1000 Ang^3
#
#
#
# Elastic Constant Matrix: (Units=GPa)
#
#
# Indices 1 2 3 4 5 6 
#
# 1 69.3058 38.8366 40.9801 0.0000 0.0000 0.0000
# 2 38.8366 119.4878 43.2944 0.0000 0.0000 0.0000
# 3 40.9801 43.2944 89.9151 0.0000 0.0000 0.0000
# 4 0.0000 0.0000 0.0000 29.1040 0.0000 0.0000
# 5 0.0000 0.0000 0.0000 0.0000 20.6118 0.0000
# 6 0.0000 0.0000 0.0000 0.0000 0.0000 17.3380
#
#
#
# Elastic Compliance Matrix: (Units=1/GPa)
#
#
# Indices 1 2 3 4 5 6 
#
# 1 0.021309 -0.004127 -0.007725 0.000000 0.000000 0.000000
# 2 -0.004127 0.010937 -0.003385 0.000000 0.000000 0.000000
# 3 -0.007725 -0.003385 0.016272 0.000000 0.000000 0.000000
# 4 0.000000 0.000000 0.000000 0.034360 0.000000 0.000000
# 5 0.000000 0.000000 0.000000 0.000000 0.048516 0.000000
# 6 0.000000 0.000000 0.000000 0.000000 0.000000 0.057677
#
#
# Mechanical properties :
#
#
# Convention : Reuss Voigt Hill
#
# Bulk Modulus (GPa) = 55.41917 58.32566 56.87241
# Shear Modulus (GPa) = 22.16712 23.78395 22.97553
#
# Velocity S-wave (km/s) = 3.42763 3.55044 3.48957
# Velocity P-wave (km/s) = 6.71098 6.90799 6.81020
#
# Compressibility (1/GPa) = 0.01804430
#
# Stress axis : x y z
#
# Youngs Moduli (GPa) = 46.92839 91.43238 61.45426
#
# Poissons Ratio (x) = 0.37735 0.47472
# Poissons Ratio (y) = 0.19368 0.20804
# Poissons Ratio (z) = 0.36251 0.30952
#
# Static dielectric constant tensor:
#      x y z
#    x 3.273700 0.000000 0.000000 
#    y 0.000000 3.606060 0.000000 
#    z 0.000000 0.000000 3.478660 
# 
# 
# High freq. dielectric constant tensor:
#      x y z
#    x 1.716460 0.000000 0.000000 
#    y 0.000000 1.744200 0.000000 
#    z 0.000000 0.000000 1.725180 
# 
# From -- ./inp_files/32850.got.cif
#   From: 2010.03.12/outbox.cif.g09.slc.cpg/sg74_17_cif.got.tgz:32850.got - 2010.04.16 15:46:19.
