data_PCOD8298478
_publ_section_title
;
Structure prediction by ZEFSAII (Michael W. Deem and Ramdas Pophale) SiO2 
 PCOD8298478
Probable space group: I M M A
;
_chemical_formula_sum "Si O2"
_cell_formula_units_Z 80
_cell_length_a 27.337654
_cell_length_b 8.862782
_cell_length_c 20.727957
_cell_angle_alpha 90.000000
_cell_angle_beta 90.000000
_cell_angle_gamma 90.000000
_cell_volume 5022.128360
_symmetry_space_group_name_H-M "I M M A"
_symmetry_group_IT_number 74
_symmetry_cell_setting 'orthorhombic'
loop_
_space_group_symop_operation_xyz
x,y,z
-x,1/2-y,z
x,-y,-z
-x,1/2+y,-z
-x,-y,-z
x,1/2+y,-z
-x,y,z
x,1/2-y,z
1/2+x,1/2+y,1/2+z
1/2-x,-y,1/2+z
1/2+x,1/2-y,1/2-z
1/2-x,y,1/2-z
1/2-x,1/2-y,1/2-z
1/2+x,y,1/2-z
1/2-x,1/2+y,1/2+z
1/2+x,-y,1/2+z
loop_
_atom_site_type_symbol
_atom_site_label
_atom_site_fract_x
_atom_site_fract_y
_atom_site_fract_z
Si Si1 0.609081 0.928006 0.313523
Si Si2 0.303852 0.578627 0.738997
Si Si3 0.943979 0.572877 0.433068
Si Si4 0.894955 0.579147 0.685927
Si Si5 0.442521 0.576023 0.566422
O O1 0.604239 0.750000 0.309994
O O2 0.666494 0.978643 0.313627
O O3 0.582358 0.000748 0.250383
O O4 0.583924 0.987835 0.377111
O O5 0.299196 0.750000 0.712835
O O6 0.250000 0.508842 0.750000
O O7 0.335556 0.576704 0.805800
O O8 0.926840 0.500000 0.500000
O O9 0.937146 0.750000 0.438974
O O10 0.909261 0.512197 0.377164
O O11 0.000000 0.528484 0.417576
O O12 0.914857 0.750000 0.680912
O O13 0.425660 0.500000 0.500000
O O14 0.500000 0.557927 0.576658
O O15 0.426449 0.750000 0.566348
#
# Coordination Sequence:
#
# PCOD8298478 Si02
#       5
#    16  16  16  16  16
#     4  10  19  31  49  75 101 128 163 202 243 288
#     4   8  16  32  52  73  97 126 160 200 246 290
#     4  10  20  33  49  70  98 132 165 198 239 287
#     4   9  18  32  50  73  97 127 163 201 244 285
#     4  10  20  34  51  71  98 133 168 201 242 290
#
# _framework density 15.929501
#
# number of rings (size 3 to 8) (size 9 to 14) (size 15 to 20)
#    1.200    1.400    0.000    3.000    0.000    3.600 
#    0.000    0.000    0.000    1.200    0.000    5.600 
#    0.000    0.000    0.000    0.000    0.000    0.000 
#
# Total GULP energy -495681.567956 kJ/mol
# GULP energy per Si atom -12392.039199 kJ/mol
# Density = 1.589325 g / cm^3
# Si number density = 15.929501 Si / 1000 Ang^3
#
#
#
# Elastic Constant Matrix: (Units=GPa)
#
#
# Indices 1 2 3 4 5 6 
#
# 1 45.3338 31.4561 43.0923 0.0000 0.0000 0.0000
# 2 31.4561 109.5323 53.6672 0.0000 0.0000 0.0000
# 3 43.0923 53.6672 121.1254 0.0000 0.0000 0.0000
# 4 0.0000 0.0000 0.0000 34.5875 0.0000 0.0000
# 5 0.0000 0.0000 0.0000 0.0000 7.6752 0.0000
# 6 0.0000 0.0000 0.0000 0.0000 0.0000 -2.7999
#
#
#
# Elastic Compliance Matrix: (Units=1/GPa)
#
#
# Indices 1 2 3 4 5 6 
#
# 1 0.035435 -0.005109 -0.010343 0.000000 0.000000 0.000000
# 2 -0.005109 0.012398 -0.003676 0.000000 0.000000 0.000000
# 3 -0.010343 -0.003676 0.013564 0.000000 0.000000 0.000000
# 4 0.000000 0.000000 0.000000 0.028912 0.000000 0.000000
# 5 0.000000 0.000000 0.000000 0.000000 0.130290 0.000000
# 6 0.000000 0.000000 0.000000 0.000000 0.000000 -0.357154
#
#
# Mechanical properties :
#
#
# Convention : Reuss Voigt Hill
#
# Bulk Modulus (GPa) = 43.21088 59.15806 51.18447
# Shear Modulus (GPa) = -55.19632 17.74429 -18.72602
#
# Velocity S-wave (km/s) = -5.89284 3.34117 -3.43236
# Velocity P-wave (km/s) = 4.37214 7.21822 4.06122
#
# Compressibility (1/GPa) = 0.02314232
#
# Stress axis : x y z
#
# Youngs Moduli (GPa) = 28.22060 80.65952 73.72353
#
# Poissons Ratio (x) = 0.41206 0.76253
# Poissons Ratio (y) = 0.14417 0.27098
# Poissons Ratio (z) = 0.29189 0.29647
#
# Static dielectric constant tensor:
#      x y z
#    x 2.925670 0.000000 0.000000 
#    y 0.000000 3.154660 0.000000 
#    z 0.000000 0.000000 2.894680 
# 
# 
# High freq. dielectric constant tensor:
#      x y z
#    x 1.587190 0.000000 0.000000 
#    y 0.000000 1.628920 0.000000 
#    z 0.000000 0.000000 1.599840 
# 
# From -- ./inp_files/55490.got.cif
#   From: 2010.03.12/outbox.cif.g09.slc.cpg/sg74_28_cif.got.tgz:55490.got - 2010.04.16 15:46:19.
