data_PCOD8298269
_publ_section_title
;
Structure prediction by ZEFSAII (Michael W. Deem and Ramdas Pophale) SiO2 
 PCOD8298269
Probable space group: I M M A
;
_chemical_formula_sum "Si O2"
_cell_formula_units_Z 112
_cell_length_a 10.006635
_cell_length_b 25.023099
_cell_length_c 26.725022
_cell_angle_alpha 90.000000
_cell_angle_beta 90.000000
_cell_angle_gamma 90.000000
_cell_volume 6691.865822
_symmetry_space_group_name_H-M "I M M A"
_symmetry_group_IT_number 74
_symmetry_cell_setting 'orthorhombic'
loop_
_space_group_symop_operation_xyz
x,y,z
-x,1/2-y,z
x,-y,-z
-x,1/2+y,-z
-x,-y,-z
x,1/2+y,-z
-x,y,z
x,1/2-y,z
1/2+x,1/2+y,1/2+z
1/2-x,-y,1/2+z
1/2+x,1/2-y,1/2-z
1/2-x,y,1/2-z
1/2-x,1/2-y,1/2-z
1/2+x,y,1/2-z
1/2-x,1/2+y,1/2+z
1/2+x,-y,1/2+z
loop_
_atom_site_type_symbol
_atom_site_label
_atom_site_fract_x
_atom_site_fract_y
_atom_site_fract_z
Si Si1 0.250006 0.555387 0.519274
Si Si2 0.847888 0.810400 0.869009
Si Si3 0.341773 0.906759 0.701830
Si Si4 0.652428 0.511879 0.619846
Si Si5 0.347204 0.809535 0.067038
Si Si6 0.645961 0.162758 0.043950
Si Si7 0.653047 0.598156 0.418229
O O1 0.182292 0.500000 0.500000
O O2 0.337998 0.544328 0.568183
O O3 0.138968 0.598904 0.533816
O O4 0.344122 0.580582 0.476372
O O5 0.826629 0.750000 0.849583
O O6 0.811952 0.849770 0.823753
O O7 0.756929 0.820913 0.916770
O O8 0.000000 0.820231 0.886537
O O9 0.500000 0.912406 0.714491
O O10 0.250000 0.910805 0.750000
O O11 0.286279 0.953614 0.665176
O O12 0.500000 0.504358 0.632991
O O13 0.711419 0.451682 0.614701
O O14 0.500000 0.827307 0.077935
O O15 0.320093 0.750000 0.088321
O O16 0.246795 0.851068 0.093580
O O17 0.321206 0.807448 0.007681
O O18 0.500000 0.180002 0.064085
O O19 0.500000 0.612488 0.404588
#
# Coordination Sequence:
#
# PCOD8298269 Si02
#       7
#    16  16  16  16  16  16  16
#     4   9  16  27  44  68  96 124 154 189 233 284
#     4  10  21  36  53  70  89 118 157 201 248 293
#     4  10  21  37  54  71  94 121 154 195 244 293
#     4   9  16  30  49  69  95 123 148 189 242 285
#     4   9  18  31  43  60  96 139 166 188 227 272
#     4  10  19  30  45  67  94 125 161 198 236 277
#     4   9  17  27  46  73  94 119 160 196 226 271
#
# _framework density 16.736737000000002
#
# number of rings (size 3 to 8) (size 9 to 14) (size 15 to 20)
#    0.000    2.571    1.429    0.857    0.000    6.286 
#    0.000    2.857    0.000    0.000    0.000    0.000 
#    0.000    0.571    0.000    1.286    0.000    2.286 
#
# Total GULP energy -693925.295872 kJ/mol
# GULP energy per Si atom -12391.523141 kJ/mol
# Density = 1.669864 g / cm^3
# Si number density = 16.736737 Si / 1000 Ang^3
#
#
#
# Elastic Constant Matrix: (Units=GPa)
#
#
# Indices 1 2 3 4 5 6 
#
# 1 68.4078 51.2846 32.0561 0.0000 0.0000 0.0000
# 2 51.2846 135.2353 42.8941 0.0000 0.0000 0.0000
# 3 32.0561 42.8941 60.7821 0.0000 0.0000 0.0000
# 4 0.0000 0.0000 0.0000 16.4189 0.0000 0.0000
# 5 0.0000 0.0000 0.0000 0.0000 21.9397 0.0000
# 6 0.0000 0.0000 0.0000 0.0000 0.0000 17.4088
#
#
#
# Elastic Compliance Matrix: (Units=1/GPa)
#
#
# Indices 1 2 3 4 5 6 
#
# 1 0.022897 -0.006252 -0.007663 0.000000 0.000000 0.000000
# 2 -0.006252 0.011234 -0.004631 0.000000 0.000000 0.000000
# 3 -0.007663 -0.004631 0.023762 0.000000 0.000000 0.000000
# 4 0.000000 0.000000 0.000000 0.060905 0.000000 0.000000
# 5 0.000000 0.000000 0.000000 0.000000 0.045579 0.000000
# 6 0.000000 0.000000 0.000000 0.000000 0.000000 0.057442
#
#
# Mechanical properties :
#
#
# Convention : Reuss Voigt Hill
#
# Bulk Modulus (GPa) = 48.07672 57.43275 52.75474
# Shear Modulus (GPa) = 18.80795 20.36619 19.58707
#
# Velocity S-wave (km/s) = 3.35588 3.49213 3.42468
# Velocity P-wave (km/s) = 6.61842 7.11687 6.87217
#
# Compressibility (1/GPa) = 0.02080009
#
# Stress axis : x y z
#
# Youngs Moduli (GPa) = 43.67480 89.01320 42.08465
#
# Poissons Ratio (x) = 0.55654 0.32250
# Poissons Ratio (y) = 0.27307 0.19488
# Poissons Ratio (z) = 0.33469 0.41219
#
# Static dielectric constant tensor:
#      x y z
#    x 2.972410 0.000000 0.000000 
#    y 0.000000 3.615620 0.000000 
#    z 0.000000 0.000000 2.813490 
# 
# 
# High freq. dielectric constant tensor:
#      x y z
#    x 1.631890 0.000000 0.000000 
#    y 0.000000 1.661800 0.000000 
#    z 0.000000 0.000000 1.593360 
# 
# From -- ./inp_files/50979.got.cif
#   From: 2010.03.12/outbox.cif.g09.slc.cpg/sg74_26_cif.got.tgz:50979.got - 2010.04.16 15:46:19.
