data_PCOD8298615
_publ_section_title
;
Structure prediction by ZEFSAII (Michael W. Deem and Ramdas Pophale) SiO2 
 PCOD8298615
Probable space group: I M M A
;
_chemical_formula_sum "Si O2"
_cell_formula_units_Z 104
_cell_length_a 28.226834
_cell_length_b 8.852469
_cell_length_c 24.208175
_cell_angle_alpha 90.000000
_cell_angle_beta 90.000000
_cell_angle_gamma 90.000000
_cell_volume 6049.070331
_symmetry_space_group_name_H-M "I M M A"
_symmetry_group_IT_number 74
_symmetry_cell_setting 'orthorhombic'
loop_
_space_group_symop_operation_xyz
x,y,z
-x,1/2-y,z
x,-y,-z
-x,1/2+y,-z
-x,-y,-z
x,1/2+y,-z
-x,y,z
x,1/2-y,z
1/2+x,1/2+y,1/2+z
1/2-x,-y,1/2+z
1/2+x,1/2-y,1/2-z
1/2-x,y,1/2-z
1/2-x,1/2-y,1/2-z
1/2+x,y,1/2-z
1/2-x,1/2+y,1/2+z
1/2+x,-y,1/2+z
loop_
_atom_site_type_symbol
_atom_site_label
_atom_site_fract_x
_atom_site_fract_y
_atom_site_fract_z
Si Si1 0.173986 0.071847 0.939471
Si Si2 0.776856 0.076655 0.557825
Si Si3 0.000000 0.428250 0.059666
Si Si4 0.590885 0.070927 0.371802
Si Si5 0.555325 0.075078 0.150256
Si Si6 0.945227 0.572465 0.235811
Si Si7 0.879402 0.428554 0.560540
O O1 0.163813 0.250000 0.944185
O O2 0.226555 0.037898 0.912872
O O3 0.138133 0.996178 0.897472
O O4 0.168013 0.000000 0.000000
O O5 0.777528 0.250000 0.543204
O O6 0.826879 0.035923 0.587551
O O7 0.776120 0.000000 0.500000
O O8 0.046175 0.484773 0.092317
O O9 0.000000 0.250000 0.053078
O O10 0.000000 0.500000 0.000000
O O11 0.594071 0.250000 0.370045
O O12 0.586306 0.008759 0.310077
O O13 0.500000 0.050487 0.139512
O O14 0.568241 0.250000 0.157068
O O15 0.571928 0.988020 0.205082
O O16 0.581753 0.005804 0.098257
O O17 0.936605 0.750000 0.233156
O O18 0.000000 0.529441 0.225981
O O19 0.883411 0.500000 0.500000
O O20 0.889095 0.250000 0.556994
#
# Coordination Sequence:
#
# PCOD8298615 Si02
#       7
#    16  16   8  16  16  16  16
#     4  10  19  32  49  73 102 133 170 212 258 306
#     4   8  16  30  49  72 100 132 167 207 250 298
#     4  10  22  34  46  66  98 134 167 206 255 304
#     4  11  21  34  50  71  99 135 172 212 258 304
#     4  10  21  36  54  77 106 138 169 206 249 297
#     4  10  20  35  55  76  97 129 173 215 253 300
#     4  10  19  33  54  80 108 138 170 205 249 301
#
# _framework density 17.192724999999999
#
# number of rings (size 3 to 8) (size 9 to 14) (size 15 to 20)
#    0.000    2.154    0.769    2.769    0.000    5.538 
#    0.000    0.000    0.000    0.923    0.000    6.462 
#    0.000    0.000    0.000    0.000    0.000    0.000 
#
# Total GULP energy -644487.835930 kJ/mol
# GULP energy per Si atom -12393.996845 kJ/mol
# Density = 1.715359 g / cm^3
# Si number density = 17.192725 Si / 1000 Ang^3
#
#
#
# Elastic Constant Matrix: (Units=GPa)
#
#
# Indices 1 2 3 4 5 6 
#
# 1 101.8680 49.3965 59.9830 0.0000 0.0000 0.0000
# 2 49.3965 74.3893 36.4956 0.0000 0.0000 0.0000
# 3 59.9830 36.4956 94.3833 0.0000 0.0000 0.0000
# 4 0.0000 0.0000 0.0000 33.4439 0.0000 0.0000
# 5 0.0000 0.0000 0.0000 0.0000 9.9672 0.0000
# 6 0.0000 0.0000 0.0000 0.0000 0.0000 24.2798
#
#
#
# Elastic Compliance Matrix: (Units=1/GPa)
#
#
# Indices 1 2 3 4 5 6 
#
# 1 0.019100 -0.008303 -0.008928 0.000000 0.000000 0.000000
# 2 -0.008303 0.020199 -0.002534 0.000000 0.000000 0.000000
# 3 -0.008928 -0.002534 0.017249 0.000000 0.000000 0.000000
# 4 0.000000 0.000000 0.000000 0.029901 0.000000 0.000000
# 5 0.000000 0.000000 0.000000 0.000000 0.100329 0.000000
# 6 0.000000 0.000000 0.000000 0.000000 0.000000 0.041187
#
#
# Mechanical properties :
#
#
# Convention : Reuss Voigt Hill
#
# Bulk Modulus (GPa) = 58.75915 62.48787 60.62351
# Shear Modulus (GPa) = 18.30392 21.85589 20.07990
#
# Velocity S-wave (km/s) = 3.26641 3.56930 3.42121
# Velocity P-wave (km/s) = 6.96253 7.30828 7.13750
#
# Compressibility (1/GPa) = 0.01701863
#
# Stress axis : x y z
#
# Youngs Moduli (GPa) = 52.35702 49.50705 57.97504
#
# Poissons Ratio (x) = 0.41104 0.51759
# Poissons Ratio (y) = 0.43470 0.14691
# Poissons Ratio (z) = 0.46744 0.12545
#
# Static dielectric constant tensor:
#      x y z
#    x 3.918580 0.000000 0.000000 
#    y 0.000000 3.287570 0.000000 
#    z 0.000000 0.000000 2.988190 
# 
# 
# High freq. dielectric constant tensor:
#      x y z
#    x 1.669140 0.000000 0.000000 
#    y 0.000000 1.681020 0.000000 
#    z 0.000000 0.000000 1.639070 
# 
# From -- ./inp_files/55651.got.cif
#   From: 2010.03.12/outbox.cif.g09.slc.cpg/sg74_28_cif.got.tgz:55651.got - 2010.04.16 15:46:19.
