data_PCOD8298732
_publ_section_title
;
Structure prediction by ZEFSAII (Michael W. Deem and Ramdas Pophale) SiO2 
 PCOD8298732
Probable space group: I M M A
;
_chemical_formula_sum "Si O2"
_cell_formula_units_Z 88
_cell_length_a 9.031758
_cell_length_b 27.755982
_cell_length_c 19.216831
_cell_angle_alpha 90.000000
_cell_angle_beta 90.000000
_cell_angle_gamma 90.000000
_cell_volume 4817.377284
_symmetry_space_group_name_H-M "I M M A"
_symmetry_group_IT_number 74
_symmetry_cell_setting 'orthorhombic'
loop_
_space_group_symop_operation_xyz
x,y,z
-x,1/2-y,z
x,-y,-z
-x,1/2+y,-z
-x,-y,-z
x,1/2+y,-z
-x,y,z
x,1/2-y,z
1/2+x,1/2+y,1/2+z
1/2-x,-y,1/2+z
1/2+x,1/2-y,1/2-z
1/2-x,y,1/2-z
1/2-x,1/2-y,1/2-z
1/2+x,y,1/2-z
1/2-x,1/2+y,1/2+z
1/2+x,-y,1/2+z
loop_
_atom_site_type_symbol
_atom_site_label
_atom_site_fract_x
_atom_site_fract_y
_atom_site_fract_z
Si Si1 0.826612 0.750000 0.323527
Si Si2 0.674096 0.805882 0.545772
Si Si3 0.673363 0.633829 0.676274
Si Si4 0.830607 0.529244 0.821162
Si Si5 0.324529 0.657597 0.088774
Si Si6 0.174293 0.924712 0.174597
O O1 0.750000 0.750000 0.250000
O O2 0.775115 0.796744 0.365629
O O3 0.000000 0.750000 0.310969
O O4 0.500000 0.814003 0.532859
O O5 0.717444 0.750000 0.543480
O O6 0.724380 0.826563 0.620521
O O7 0.765985 0.834974 0.488809
O O8 0.500000 0.638219 0.689864
O O9 0.750000 0.643712 0.750000
O O10 0.715790 0.580438 0.644074
O O11 0.750000 0.523695 0.750000
O O12 0.800207 0.478311 0.860158
O O13 0.000000 0.532800 0.801392
O O14 0.500000 0.650783 0.087618
O O15 0.248155 0.610774 0.120033
O O16 0.250000 0.918805 0.250000
O O17 0.000000 0.913335 0.182983
#
# Coordination Sequence:
#
# PCOD8298732 Si02
#       6
#     8  16  16  16  16  16
#     4  10  22  36  52  74  99 130 171 214 255 302
#     4  10  21  37  56  77 104 140 178 218 266 317
#     4   9  18  34  56  82 108 136 173 215 262 316
#     4   8  15  29  50  75 105 137 170 211 258 309
#     4  11  22  37  53  74 104 140 179 218 263 314
#     4  10  19  32  52  79 107 139 177 217 261 307
#
# _framework density 18.267201
#
# number of rings (size 3 to 8) (size 9 to 14) (size 15 to 20)
#    0.000    2.364    0.909    1.636    0.000    4.727 
#    0.000    0.909    0.000    5.455    0.000    0.000 
#    0.000    0.000    0.000    0.000    0.000    0.000 
#
# Total GULP energy -545189.382132 kJ/mol
# GULP energy per Si atom -12390.667776 kJ/mol
# Density = 1.822562 g / cm^3
# Si number density = 18.267201 Si / 1000 Ang^3
#
#
#
# Elastic Constant Matrix: (Units=GPa)
#
#
# Indices 1 2 3 4 5 6 
#
# 1 54.4236 38.0558 40.7306 0.0001 0.0000 0.0000
# 2 38.0558 101.6860 56.6155 0.0001 0.0000 0.0000
# 3 40.7306 56.6155 109.0096 0.0005 -0.0001 -0.0002
# 4 0.0001 0.0001 0.0005 7.1996 0.0000 -0.0001
# 5 0.0000 0.0000 -0.0001 0.0000 29.5575 0.0001
# 6 0.0000 0.0000 -0.0002 -0.0001 0.0001 24.9014
#
#
#
# Elastic Compliance Matrix: (Units=1/GPa)
#
#
# Indices 1 2 3 4 5 6 
#
# 1 0.028367 -0.006633 -0.007154 0.000000 0.000000 0.000000
# 2 -0.006633 0.015386 -0.005512 0.000000 0.000000 0.000000
# 3 -0.007154 -0.005512 0.014709 -0.000001 0.000000 0.000000
# 4 0.000000 0.000000 -0.000001 0.138896 0.000000 0.000001
# 5 0.000000 0.000000 0.000000 0.000000 0.033832 0.000000
# 6 0.000000 0.000000 0.000000 0.000001 0.000000 0.040158
#
#
# Mechanical properties :
#
#
# Convention : Reuss Voigt Hill
#
# Bulk Modulus (GPa) = 50.34501 59.54700 54.94601
# Shear Modulus (GPa) = 15.79438 20.97952 18.38695
#
# Velocity S-wave (km/s) = 2.94365 3.39260 3.17607
# Velocity P-wave (km/s) = 6.25888 6.92927 6.60259
#
# Compressibility (1/GPa) = 0.01986294
#
# Stress axis : x y z
#
# Youngs Moduli (GPa) = 35.25268 64.99541 67.98341
#
# Poissons Ratio (x) = 0.43112 0.48636
# Poissons Ratio (y) = 0.23383 0.37475
# Poissons Ratio (z) = 0.25220 0.35828
#
# Static dielectric constant tensor:
#      x y z
#    x 3.312110 0.000000 0.000000 
#    y 0.000000 4.081060 0.000000 
#    z 0.000000 0.000000 3.115210 
# 
# 
# High freq. dielectric constant tensor:
#      x y z
#    x 1.710440 0.000000 0.000000 
#    y 0.000000 1.730120 0.000000 
#    z 0.000000 0.000000 1.680080 
# 
# From -- ./inp_files/40117.got.cif
#   From: 2010.03.12/outbox.cif.g09.slc.cpg/sg74_21_cif.got.tgz:40117.got - 2010.04.16 15:46:19.
