data_PCOD8298365
_publ_section_title
;
Structure prediction by ZEFSAII (Michael W. Deem and Ramdas Pophale) SiO2 
 PCOD8298365
Probable space group: I M M A
;
_chemical_formula_sum "Si O2"
_cell_formula_units_Z 80
_cell_length_a 24.842489
_cell_length_b 18.274862
_cell_length_c 9.416902
_cell_angle_alpha 90.000000
_cell_angle_beta 90.000000
_cell_angle_gamma 90.000000
_cell_volume 4275.208138
_symmetry_space_group_name_H-M "I M M A"
_symmetry_group_IT_number 74
_symmetry_cell_setting 'orthorhombic'
loop_
_space_group_symop_operation_xyz
x,y,z
-x,1/2-y,z
x,-y,-z
-x,1/2+y,-z
-x,-y,-z
x,1/2+y,-z
-x,y,z
x,1/2-y,z
1/2+x,1/2+y,1/2+z
1/2-x,-y,1/2+z
1/2+x,1/2-y,1/2-z
1/2-x,y,1/2-z
1/2-x,1/2-y,1/2-z
1/2+x,y,1/2-z
1/2-x,1/2+y,1/2+z
1/2+x,-y,1/2+z
loop_
_atom_site_type_symbol
_atom_site_label
_atom_site_fract_x
_atom_site_fract_y
_atom_site_fract_z
Si Si1 0.277084 0.835002 0.108339
Si Si2 0.394860 0.916498 0.526952
Si Si3 0.500000 0.167903 0.449887
Si Si4 0.500000 0.330229 0.788230
Si Si5 0.720565 0.067259 0.394576
Si Si6 0.386729 0.663176 0.235656
O O1 0.264314 0.750000 0.101846
O O2 0.250000 0.868627 0.250000
O O3 0.340807 0.851784 0.119903
O O4 0.253625 0.866586 0.963742
O O5 0.445600 0.874666 0.598571
O O6 0.342522 0.912608 0.630409
O O7 0.374579 0.878920 0.381272
O O8 0.412845 0.000000 0.500000
O O9 0.500000 0.250000 0.384174
O O10 0.500000 0.172217 0.618258
O O11 0.500000 0.250000 0.856464
O O12 0.443323 0.367733 0.831977
O O13 0.750000 0.045894 0.250000
O O14 0.723946 0.000000 0.500000
O O15 0.391749 0.750000 0.271187
#
# Coordination Sequence:
#
# PCOD8298365 Si02
#       6
#    16  16   8   8  16  16
#     4  10  19  33  55  80 109 145 186 231 280 334
#     4  10  19  30  51  80 111 143 187 233 277 331
#     4   9  17  31  51  76 110 146 182 228 287 332
#     4   7  12  23  43  74 102 131 174 219 263 318
#     4  11  24  38  56  80 114 153 192 234 282 341
#     4   9  16  29  51  77 109 146 184 229 280 329
#
# _framework density 18.712539
#
# number of rings (size 3 to 8) (size 9 to 14) (size 15 to 20)
#    0.000    2.400    2.000    2.700    2.800    1.200 
#    0.000    0.000    0.000    1.200    0.000    2.800 
#    0.000    0.000    0.000    0.000    0.000    0.000 
#
# Total GULP energy -495626.414705 kJ/mol
# GULP energy per Si atom -12390.660368 kJ/mol
# Density = 1.866995 g / cm^3
# Si number density = 18.712539 Si / 1000 Ang^3
#
#
#
# Elastic Constant Matrix: (Units=GPa)
#
#
# Indices 1 2 3 4 5 6 
#
# 1 185.0618 49.3285 40.8231 0.0000 0.0000 0.0000
# 2 49.3285 78.1226 20.0658 0.0000 0.0000 0.0000
# 3 40.8231 20.0658 50.8463 0.0000 0.0000 0.0000
# 4 0.0000 0.0000 0.0000 19.1524 0.0000 0.0000
# 5 0.0000 0.0000 0.0000 0.0000 20.7947 0.0000
# 6 0.0000 0.0000 0.0000 0.0000 0.0000 25.9612
#
#
#
# Elastic Compliance Matrix: (Units=1/GPa)
#
#
# Indices 1 2 3 4 5 6 
#
# 1 0.007322 -0.003465 -0.004512 0.000000 0.000000 0.000000
# 2 -0.003465 0.015884 -0.003487 0.000000 0.000000 0.000000
# 3 -0.004512 -0.003487 0.024665 0.000000 0.000000 0.000000
# 4 0.000000 0.000000 0.000000 0.052213 0.000000 0.000000
# 5 0.000000 0.000000 0.000000 0.000000 0.048089 0.000000
# 6 0.000000 0.000000 0.000000 0.000000 0.000000 0.038519
#
#
# Mechanical properties :
#
#
# Convention : Reuss Voigt Hill
#
# Bulk Modulus (GPa) = 40.08736 59.38507 49.73621
# Shear Modulus (GPa) = 22.94280 26.76919 24.85600
#
# Velocity S-wave (km/s) = 3.50532 3.78636 3.64855
# Velocity P-wave (km/s) = 6.15242 7.13581 6.66228
#
# Compressibility (1/GPa) = 0.02494552
#
# Stress axis : x y z
#
# Youngs Moduli (GPa) = 136.56824 62.95798 40.54283
#
# Poissons Ratio (x) = 0.21813 0.18291
# Poissons Ratio (y) = 0.47317 0.14135
# Poissons Ratio (z) = 0.61614 0.21951
#
# Static dielectric constant tensor:
#      x y z
#    x 4.123740 0.000000 0.000000 
#    y 0.000000 3.456620 0.000000 
#    z 0.000000 0.000000 2.924680 
# 
# 
# High freq. dielectric constant tensor:
#      x y z
#    x 1.759080 0.000000 0.000000 
#    y 0.000000 1.721110 0.000000 
#    z 0.000000 0.000000 1.654400 
# 
# From -- ./inp_files/10989.got.cif
#   From: 2010.03.12/outbox.cif.g09.slc.cpg/sg74_6_cif.got.tgz:10989.got - 2010.04.16 15:46:19.
