data_PCOD8298231
_publ_section_title
;
Structure prediction by ZEFSAII (Michael W. Deem and Ramdas Pophale) SiO2 
 PCOD8298231
Probable space group: I M M A
;
_chemical_formula_sum "Si O2"
_cell_formula_units_Z 96
_cell_length_a 19.520921
_cell_length_b 21.149835
_cell_length_c 13.449186
_cell_angle_alpha 90.000000
_cell_angle_beta 90.000000
_cell_angle_gamma 90.000000
_cell_volume 5552.688201
_symmetry_space_group_name_H-M "I M M A"
_symmetry_group_IT_number 74
_symmetry_cell_setting 'orthorhombic'
loop_
_space_group_symop_operation_xyz
x,y,z
-x,1/2-y,z
x,-y,-z
-x,1/2+y,-z
-x,-y,-z
x,1/2+y,-z
-x,y,z
x,1/2-y,z
1/2+x,1/2+y,1/2+z
1/2-x,-y,1/2+z
1/2+x,1/2-y,1/2-z
1/2-x,y,1/2-z
1/2-x,1/2-y,1/2-z
1/2+x,y,1/2-z
1/2-x,1/2+y,1/2+z
1/2+x,-y,1/2+z
loop_
_atom_site_type_symbol
_atom_site_label
_atom_site_fract_x
_atom_site_fract_y
_atom_site_fract_z
Si Si1 0.424115 0.407604 0.638251
Si Si2 0.226987 0.456781 0.402372
Si Si3 0.218755 0.319411 0.047386
Si Si4 0.639236 0.971640 0.716259
Si Si5 0.303706 0.820500 0.323333
Si Si6 0.921957 0.626726 0.920161
O O1 0.500000 0.383740 0.660881
O O2 0.411365 0.470353 0.700893
O O3 0.375921 0.354075 0.681237
O O4 0.414655 0.417612 0.518876
O O5 0.213822 0.500000 0.500000
O O6 0.240055 0.380761 0.412990
O O7 0.293998 0.485275 0.350731
O O8 0.160659 0.463093 0.331383
O O9 0.245188 0.250000 0.087687
O O10 0.136827 0.319955 0.070945
O O11 0.230748 0.321557 0.930543
O O12 0.595823 0.911643 0.679375
O O13 0.317569 0.750000 0.284632
O O14 0.250000 0.855203 0.250000
O O15 0.000000 0.654266 0.912668
#
# Coordination Sequence:
#
# PCOD8298231 Si02
#       6
#    16  16  16  16  16  16
#     4  10  19  29  49  75 102 134 163 203 255 309
#     4  10  20  32  48  73 100 136 170 208 259 295
#     4   9  18  32  49  73 102 129 165 208 252 299
#     4  10  19  30  48  71  98 132 171 206 247 305
#     4   9  18  30  48  74 101 131 166 204 248 303
#     4   9  17  31  49  72 102 130 159 198 254 312
#
# _framework density 17.288924000000002
#
# number of rings (size 3 to 8) (size 9 to 14) (size 15 to 20)
#    0.000    2.500    0.000    4.000    4.667    2.000 
#    0.000   10.000    0.000    2.000    0.000    0.000 
#    0.000    0.000    0.000    0.000    0.000    0.000 
#
# Total GULP energy -594651.244408 kJ/mol
# GULP energy per Si atom -12388.567592 kJ/mol
# Density = 1.724957 g / cm^3
# Si number density = 17.288924 Si / 1000 Ang^3
#
#
#
# Elastic Constant Matrix: (Units=GPa)
#
#
# Indices 1 2 3 4 5 6 
#
# 1 70.3723 22.6922 44.6720 0.0000 0.0000 0.0000
# 2 22.6922 77.2226 34.7008 0.0000 0.0000 0.0000
# 3 44.6720 34.7008 85.2906 0.0000 0.0000 0.0000
# 4 0.0000 0.0000 0.0000 5.6380 0.0000 0.0000
# 5 0.0000 0.0000 0.0000 0.0000 26.4644 0.0000
# 6 0.0000 0.0000 0.0000 0.0000 0.0000 34.9355
#
#
#
# Elastic Compliance Matrix: (Units=1/GPa)
#
#
# Indices 1 2 3 4 5 6 
#
# 1 0.021436 -0.001534 -0.010603 0.000000 0.000000 0.000000
# 2 -0.001534 0.015957 -0.005688 0.000000 0.000000 0.000000
# 3 -0.010603 -0.005688 0.019592 0.000000 0.000000 0.000000
# 4 0.000000 0.000000 0.000000 0.177369 0.000000 0.000000
# 5 0.000000 0.000000 0.000000 0.000000 0.037787 0.000000
# 6 0.000000 0.000000 0.000000 0.000000 0.000000 0.028624
#
#
# Mechanical properties :
#
#
# Convention : Reuss Voigt Hill
#
# Bulk Modulus (GPa) = 46.87515 48.55726 47.71620
# Shear Modulus (GPa) = 14.55494 22.12894 18.34194
#
# Velocity S-wave (km/s) = 2.90464 3.58152 3.26069
# Velocity P-wave (km/s) = 6.19846 6.72679 6.46802
#
# Compressibility (1/GPa) = 0.02133327
#
# Stress axis : x y z
#
# Youngs Moduli (GPa) = 46.65146 62.67014 51.04053
#
# Poissons Ratio (x) = 0.09616 0.54117
# Poissons Ratio (y) = 0.07158 0.29033
# Poissons Ratio (z) = 0.49464 0.35649
#
# Static dielectric constant tensor:
#      x y z
#    x 3.174830 0.000000 0.000000 
#    y 0.000000 3.283630 0.000000 
#    z 0.000000 0.000000 3.175410 
# 
# 
# High freq. dielectric constant tensor:
#      x y z
#    x 1.650750 0.000000 0.000000 
#    y 0.000000 1.665230 0.000000 
#    z 0.000000 0.000000 1.647070 
# 
# From -- ./inp_files/23901.got.cif
#   From: 2010.03.12/outbox.cif.g09.slc.cpg/sg74_12_cif.got.tgz:23901.got - 2010.04.16 15:46:19.
