data_PCOD8298376
_publ_section_title
;
Structure prediction by ZEFSAII (Michael W. Deem and Ramdas Pophale) SiO2 
 PCOD8298376
Probable space group: I M M A
;
_chemical_formula_sum "Si O2"
_cell_formula_units_Z 88
_cell_length_a 26.691999
_cell_length_b 7.464238
_cell_length_c 25.937431
_cell_angle_alpha 90.000000
_cell_angle_beta 90.000000
_cell_angle_gamma 90.000000
_cell_volume 5167.655302
_symmetry_space_group_name_H-M "I M M A"
_symmetry_group_IT_number 74
_symmetry_cell_setting 'orthorhombic'
loop_
_space_group_symop_operation_xyz
x,y,z
-x,1/2-y,z
x,-y,-z
-x,1/2+y,-z
-x,-y,-z
x,1/2+y,-z
-x,y,z
x,1/2-y,z
1/2+x,1/2+y,1/2+z
1/2-x,-y,1/2+z
1/2+x,1/2-y,1/2-z
1/2-x,y,1/2-z
1/2-x,1/2-y,1/2-z
1/2+x,y,1/2-z
1/2-x,1/2+y,1/2+z
1/2+x,-y,1/2+z
loop_
_atom_site_type_symbol
_atom_site_label
_atom_site_fract_x
_atom_site_fract_y
_atom_site_fract_z
Si Si1 0.053206 0.039444 0.376304
Si Si2 0.057197 0.956105 0.740975
Si Si3 0.240099 0.044367 0.057946
Si Si4 0.372261 0.750000 0.281812
Si Si5 0.692953 0.250000 0.815499
Si Si6 0.159495 0.457721 0.391668
Si Si7 0.204656 0.750000 0.133490
O O1 0.046600 0.250000 0.375149
O O2 0.061952 0.974091 0.317793
O O3 0.102639 0.986594 0.409844
O O4 0.000000 0.957404 0.397590
O O5 0.074006 0.750000 0.746103
O O6 0.000000 0.980481 0.759885
O O7 0.093727 0.073906 0.776141
O O8 0.228416 0.250000 0.071054
O O9 0.299810 0.001689 0.063869
O O10 0.208603 0.925207 0.097459
O O11 0.224174 0.000000 0.000000
O O12 0.324855 0.750000 0.243186
O O13 0.349275 0.750000 0.339303
O O14 0.672014 0.430003 0.841223
O O15 0.752952 0.250000 0.822034
O O16 0.160449 0.250000 0.375238
#
# Coordination Sequence:
#
# PCOD8298376 Si02
#       7
#    16  16  16   8   8  16   8
#     4   8  13  24  42  64  92 126 165 205 237 278
#     4   9  18  31  47  69 100 138 174 201 233 281
#     4  10  19  35  56  71  90 123 163 216 261 301
#     4  12  20  30  50  72 106 142 166 205 239 294
#     4  10  19  31  45  66 101 139 168 204 238 288
#     4   9  17  29  46  69  92 124 171 206 244 298
#     4  10  23  35  47  76 103 127 171 205 257 302
#
# _framework density 17.029001000000001
#
# number of rings (size 3 to 8) (size 9 to 14) (size 15 to 20)
#    0.000    2.545    2.727    1.636    0.000    0.727 
#    0.000    0.455    0.000    6.000    0.000    0.000 
#    0.000    2.909    0.000    0.000    0.000    0.000 
#
# Total GULP energy -545144.694363 kJ/mol
# GULP energy per Si atom -12389.652145 kJ/mol
# Density = 1.699024 g / cm^3
# Si number density = 17.029001 Si / 1000 Ang^3
#
#
#
# Elastic Constant Matrix: (Units=GPa)
#
#
# Indices 1 2 3 4 5 6 
#
# 1 46.7099 20.6199 24.7306 0.0000 0.0000 0.0000
# 2 20.6199 83.9795 26.0123 0.0000 0.0000 0.0000
# 3 24.7306 26.0123 59.0514 0.0000 0.0000 0.0000
# 4 0.0000 0.0000 0.0000 15.3961 0.0000 0.0000
# 5 0.0000 0.0000 0.0000 0.0000 18.3747 0.0000
# 6 0.0000 0.0000 0.0000 0.0000 0.0000 20.9296
#
#
#
# Elastic Compliance Matrix: (Units=1/GPa)
#
#
# Indices 1 2 3 4 5 6 
#
# 1 0.028532 -0.003827 -0.010264 0.000000 0.000000 0.000000
# 2 -0.003827 0.014302 -0.004698 0.000000 0.000000 0.000000
# 3 -0.010264 -0.004698 0.023302 0.000000 0.000000 0.000000
# 4 0.000000 0.000000 0.000000 0.064951 0.000000 0.000000
# 5 0.000000 0.000000 0.000000 0.000000 0.054423 0.000000
# 6 0.000000 0.000000 0.000000 0.000000 0.000000 0.047779
#
#
# Mechanical properties :
#
#
# Convention : Reuss Voigt Hill
#
# Bulk Modulus (GPa) = 35.01288 36.94072 35.97680
# Shear Modulus (GPa) = 17.83260 18.83196 18.33228
#
# Velocity S-wave (km/s) = 3.23954 3.32908 3.28462
# Velocity P-wave (km/s) = 5.88203 6.04292 5.96302
#
# Compressibility (1/GPa) = 0.02856092
#
# Stress axis : x y z
#
# Youngs Moduli (GPa) = 35.04841 69.91891 42.91467
#
# Poissons Ratio (x) = 0.26755 0.44046
# Poissons Ratio (y) = 0.13411 0.20160
# Poissons Ratio (z) = 0.35972 0.32846
#
# Static dielectric constant tensor:
#      x y z
#    x 3.301890 0.000000 0.000000 
#    y 0.000000 3.222990 0.000000 
#    z 0.000000 0.000000 2.705650 
# 
# 
# High freq. dielectric constant tensor:
#      x y z
#    x 1.649570 0.000000 0.000000 
#    y 0.000000 1.668240 0.000000 
#    z 0.000000 0.000000 1.597660 
# 
# From -- ./inp_files/61466.got.cif
#   From: 2010.03.12/outbox.cif.g09.slc.cpg/sg74_31_cif.got.tgz:61466.got - 2010.04.16 15:46:19.
