data_PCOD8298622
_publ_section_title
;
Structure prediction by ZEFSAII (Michael W. Deem and Ramdas Pophale) SiO2 
 PCOD8298622
Probable space group: I M M A
;
_chemical_formula_sum "Si O2"
_cell_formula_units_Z 80
_cell_length_a 23.545293
_cell_length_b 8.541207
_cell_length_c 24.215371
_cell_angle_alpha 90.000000
_cell_angle_beta 90.000000
_cell_angle_gamma 90.000000
_cell_volume 4869.837546
_symmetry_space_group_name_H-M "I M M A"
_symmetry_group_IT_number 74
_symmetry_cell_setting 'orthorhombic'
loop_
_space_group_symop_operation_xyz
x,y,z
-x,1/2-y,z
x,-y,-z
-x,1/2+y,-z
-x,-y,-z
x,1/2+y,-z
-x,y,z
x,1/2-y,z
1/2+x,1/2+y,1/2+z
1/2-x,-y,1/2+z
1/2+x,1/2-y,1/2-z
1/2-x,y,1/2-z
1/2-x,1/2-y,1/2-z
1/2+x,y,1/2-z
1/2-x,1/2+y,1/2+z
1/2+x,-y,1/2+z
loop_
_atom_site_type_symbol
_atom_site_label
_atom_site_fract_x
_atom_site_fract_y
_atom_site_fract_z
Si Si1 0.436188 0.930420 0.341228
Si Si2 0.830183 0.932171 0.228886
Si Si3 0.776550 0.433260 0.330620
Si Si4 0.255175 0.065680 0.558572
Si Si5 0.621148 0.567053 0.556805
O O1 0.500000 0.967274 0.321002
O O2 0.429323 0.750000 0.358924
O O3 0.393912 0.971338 0.290918
O O4 0.423098 0.036228 0.394385
O O5 0.815457 0.750000 0.222043
O O6 0.823910 0.982555 0.292655
O O7 0.786419 0.028973 0.191444
O O8 0.787149 0.250000 0.328311
O O9 0.783679 0.493408 0.393131
O O10 0.248648 0.250000 0.559060
O O11 0.233721 0.000000 0.500000
O O12 0.320262 0.020663 0.569936
O O13 0.594862 0.500000 0.500000
O O14 0.633852 0.750000 0.550570
#
# Coordination Sequence:
#
# PCOD8298622 Si02
#       5
#    16  16  16  16  16
#     4  10  21  36  52  69  93 125 163 206 247 286
#     4  10  19  32  50  70  94 125 161 199 242 288
#     4  11  20  31  49  72  98 125 157 197 239 288
#     4  11  20  32  49  71  98 127 159 196 240 288
#     4  11  21  33  49  67  91 124 163 205 246 285
#
# _framework density 16.427654
#
# number of rings (size 3 to 8) (size 9 to 14) (size 15 to 20)
#    0.000    1.400    2.000    8.400    0.000    1.600 
#    0.000    0.000    0.000    0.000    0.000    0.000 
#    0.000    0.800    0.000    2.200    0.000    3.200 
#
# Total GULP energy -496110.147896 kJ/mol
# GULP energy per Si atom -12402.753697 kJ/mol
# Density = 1.639026 g / cm^3
# Si number density = 16.427654 Si / 1000 Ang^3
#
#
#
# Elastic Constant Matrix: (Units=GPa)
#
#
# Indices 1 2 3 4 5 6 
#
# 1 70.9470 20.0443 53.8352 0.0000 0.0000 0.0000
# 2 20.0443 78.0944 25.0202 0.0000 0.0000 0.0000
# 3 53.8352 25.0202 125.0560 0.0000 0.0000 0.0000
# 4 0.0000 0.0000 0.0000 30.0544 0.0000 0.0000
# 5 0.0000 0.0000 0.0000 0.0000 22.5738 0.0000
# 6 0.0000 0.0000 0.0000 0.0000 0.0000 12.6951
#
#
#
# Elastic Compliance Matrix: (Units=1/GPa)
#
#
# Indices 1 2 3 4 5 6 
#
# 1 0.021462 -0.002723 -0.008694 0.000000 0.000000 0.000000
# 2 -0.002723 0.014028 -0.001634 0.000000 0.000000 0.000000
# 3 -0.008694 -0.001634 0.012066 0.000000 0.000000 0.000000
# 4 0.000000 0.000000 0.000000 0.033273 0.000000 0.000000
# 5 0.000000 0.000000 0.000000 0.000000 0.044299 0.000000
# 6 0.000000 0.000000 0.000000 0.000000 0.000000 0.078770
#
#
# Mechanical properties :
#
#
# Convention : Reuss Voigt Hill
#
# Bulk Modulus (GPa) = 46.61506 52.43298 49.52402
# Shear Modulus (GPa) = 21.08359 24.74453 22.91406
#
# Velocity S-wave (km/s) = 3.58637 3.88528 3.73882
# Velocity P-wave (km/s) = 6.75181 7.21901 6.98931
#
# Compressibility (1/GPa) = 0.02145229
#
# Stress axis : x y z
#
# Youngs Moduli (GPa) = 46.59489 71.28842 82.87658
#
# Poissons Ratio (x) = 0.19412 0.72054
# Poissons Ratio (y) = 0.12688 0.13544
# Poissons Ratio (z) = 0.40510 0.11651
#
# Static dielectric constant tensor:
#      x y z
#    x 2.817310 0.000000 0.000000 
#    y 0.000000 3.190890 0.000000 
#    z 0.000000 0.000000 3.679830 
# 
# 
# High freq. dielectric constant tensor:
#      x y z
#    x 1.579810 0.000000 0.000000 
#    y 0.000000 1.651160 0.000000 
#    z 0.000000 0.000000 1.636180 
# 
# From -- ./inp_files/67529.got.cif
#   From: 2010.03.12/outbox.cif.g09.slc.cpg/sg74_34_cif.got.tgz:67529.got - 2010.04.16 15:46:19.
