data_PCOD8298367
_publ_section_title
;
Structure prediction by ZEFSAII (Michael W. Deem and Ramdas Pophale) SiO2 
 PCOD8298367
Probable space group: I M M A
;
_chemical_formula_sum "Si O2"
_cell_formula_units_Z 72
_cell_length_a 10.092838
_cell_length_b 11.011874
_cell_length_c 35.747990
_cell_angle_alpha 90.000000
_cell_angle_beta 90.000000
_cell_angle_gamma 90.000000
_cell_volume 3973.069514
_symmetry_space_group_name_H-M "I M M A"
_symmetry_group_IT_number 74
_symmetry_cell_setting 'orthorhombic'
loop_
_space_group_symop_operation_xyz
x,y,z
-x,1/2-y,z
x,-y,-z
-x,1/2+y,-z
-x,-y,-z
x,1/2+y,-z
-x,y,z
x,1/2-y,z
1/2+x,1/2+y,1/2+z
1/2-x,-y,1/2+z
1/2+x,1/2-y,1/2-z
1/2-x,y,1/2-z
1/2-x,1/2-y,1/2-z
1/2+x,y,1/2-z
1/2-x,1/2+y,1/2+z
1/2+x,-y,1/2+z
loop_
_atom_site_type_symbol
_atom_site_label
_atom_site_fract_x
_atom_site_fract_y
_atom_site_fract_z
Si Si1 0.856137 0.250000 0.033248
Si Si2 0.155624 0.881995 0.432593
Si Si3 0.346973 0.107876 0.783435
Si Si4 0.844292 0.997903 0.640104
Si Si5 0.277925 0.000000 0.500000
Si Si6 0.844446 0.250000 0.397859
O O1 0.855445 0.373436 0.007667
O O2 0.739716 0.250000 0.063900
O O3 0.000000 0.250000 0.053326
O O4 0.209908 0.750000 0.444631
O O5 0.189341 0.982049 0.463319
O O6 0.000000 0.880522 0.428243
O O7 0.217917 0.917144 0.392419
O O8 0.500000 0.073752 0.773811
O O9 0.335722 0.250000 0.792344
O O10 0.250000 0.069354 0.750000
O O11 0.289523 0.034842 0.819272
O O12 0.807549 0.861479 0.628886
O O13 0.000000 0.018480 0.641893
O O14 0.000000 0.250000 0.409518
#
# Coordination Sequence:
#
# PCOD8298367 Si02
#       6
#     8  16  16  16   8   8
#     4  12  26  42  58  77 111 154 192 231 282 338
#     4  10  19  30  51  84 113 137 176 231 281 323
#     4   9  17  31  53  78 107 140 174 215 265 322
#     4   9  17  31  52  79 108 139 174 222 275 323
#     4  12  22  38  56  76 107 148 191 226 277 332
#     4  10  20  36  59  81 105 138 184 227 273 330
#
# _framework density 18.122008000000001
#
# number of rings (size 3 to 8) (size 9 to 14) (size 15 to 20)
#    0.000    2.000    3.333    1.333    0.000    3.556 
#    0.000    1.667    0.000    0.000    0.000    0.000 
#    0.000    0.000    0.000    0.000    0.000    0.000 
#
# Total GULP energy -446029.485473 kJ/mol
# GULP energy per Si atom -12389.707930 kJ/mol
# Density = 1.808076 g / cm^3
# Si number density = 18.122008 Si / 1000 Ang^3
#
#
#
# Elastic Constant Matrix: (Units=GPa)
#
#
# Indices 1 2 3 4 5 6 
#
# 1 56.8293 36.1970 47.4983 0.0000 0.0000 0.0000
# 2 36.1970 110.8066 55.2094 0.0000 0.0000 0.0000
# 3 47.4983 55.2094 148.5636 0.0000 0.0000 0.0000
# 4 0.0000 0.0000 0.0000 35.6843 0.0000 0.0000
# 5 0.0000 0.0000 0.0000 0.0000 22.2606 0.0000
# 6 0.0000 0.0000 0.0000 0.0000 0.0000 5.6127
#
#
#
# Elastic Compliance Matrix: (Units=1/GPa)
#
#
# Indices 1 2 3 4 5 6 
#
# 1 0.026431 -0.005429 -0.006433 0.000000 0.000000 0.000000
# 2 -0.005429 0.012191 -0.002795 0.000000 0.000000 0.000000
# 3 -0.006433 -0.002795 0.009826 0.000000 0.000000 0.000000
# 4 0.000000 0.000000 0.000000 0.028024 0.000000 0.000000
# 5 0.000000 0.000000 0.000000 0.000000 0.044923 0.000000
# 6 0.000000 0.000000 0.000000 0.000000 0.000000 0.178168
#
#
# Mechanical properties :
#
#
# Convention : Reuss Voigt Hill
#
# Bulk Modulus (GPa) = 52.25983 66.00100 59.13041
# Shear Modulus (GPa) = 14.91407 24.53117 19.72262
#
# Velocity S-wave (km/s) = 2.87188 3.68321 3.30255
# Velocity P-wave (km/s) = 6.31643 7.38834 6.87331
#
# Compressibility (1/GPa) = 0.01913516
#
# Stress axis : x y z
#
# Youngs Moduli (GPa) = 37.83396 82.03049 101.76699
#
# Poissons Ratio (x) = 0.44534 0.65467
# Poissons Ratio (y) = 0.20540 0.28439
# Poissons Ratio (z) = 0.24339 0.22924
#
# Static dielectric constant tensor:
#      x y z
#    x 2.969350 0.000000 0.000000 
#    y 0.000000 3.700860 0.000000 
#    z 0.000000 0.000000 3.481120 
# 
# 
# High freq. dielectric constant tensor:
#      x y z
#    x 1.656620 0.000000 0.000000 
#    y 0.000000 1.714980 0.000000 
#    z 0.000000 0.000000 1.703300 
# 
# From -- ./inp_files/65724.got.cif
#   From: 2010.03.12/outbox.cif.g09.slc.cpg/sg74_33_cif.got.tgz:65724.got - 2010.04.16 15:46:19.
