data_PCOD8298074
_publ_section_title
;
Structure prediction by ZEFSAII (Michael W. Deem and Ramdas Pophale) SiO2 
 PCOD8298074
Probable space group: I M M A
;
_chemical_formula_sum "Si O2"
_cell_formula_units_Z 104
_cell_length_a 8.703673
_cell_length_b 26.044626
_cell_length_c 23.999685
_cell_angle_alpha 90.000000
_cell_angle_beta 90.000000
_cell_angle_gamma 90.000000
_cell_volume 5440.342389
_symmetry_space_group_name_H-M "I M M A"
_symmetry_group_IT_number 74
_symmetry_cell_setting 'orthorhombic'
loop_
_space_group_symop_operation_xyz
x,y,z
-x,1/2-y,z
x,-y,-z
-x,1/2+y,-z
-x,-y,-z
x,1/2+y,-z
-x,y,z
x,1/2-y,z
1/2+x,1/2+y,1/2+z
1/2-x,-y,1/2+z
1/2+x,1/2-y,1/2-z
1/2-x,y,1/2-z
1/2-x,1/2-y,1/2-z
1/2+x,y,1/2-z
1/2-x,1/2+y,1/2+z
1/2+x,-y,1/2+z
loop_
_atom_site_type_symbol
_atom_site_label
_atom_site_fract_x
_atom_site_fract_y
_atom_site_fract_z
Si Si1 0.824477 0.528304 0.599835
Si Si2 0.318983 0.610470 0.810773
Si Si3 0.176330 0.384653 0.490021
Si Si4 0.322285 0.920724 0.400676
Si Si5 0.816950 0.807532 0.602741
Si Si6 0.817451 0.250000 0.811733
Si Si7 0.319247 0.146882 0.810690
O O1 0.774096 0.559280 0.655193
O O2 0.806947 0.564167 0.546271
O O3 0.712964 0.480553 0.591064
O O4 0.000000 0.509101 0.605049
O O5 0.500000 0.614665 0.805896
O O6 0.250000 0.607789 0.750000
O O7 0.255391 0.660520 0.843853
O O8 0.281729 0.388723 0.544132
O O9 0.234226 0.335726 0.454207
O O10 0.000000 0.377466 0.508847
O O11 0.500000 0.912898 0.386885
O O12 0.221515 0.901309 0.348978
O O13 0.748187 0.750000 0.604381
O O14 0.000000 0.806860 0.604565
O O15 0.750000 0.250000 0.750000
O O16 0.753410 0.302035 0.839925
O O17 0.000000 0.250000 0.812125
O O18 0.500000 0.153836 0.805008
O O19 0.250000 0.136785 0.750000
#
# Coordination Sequence:
#
# PCOD8298074 Si02
#       7
#    16  16  16  16  16   8  16
#     4   9  19  36  55  74 103 144 185 228 278 330
#     4   9  18  32  52  79 110 144 182 223 270 322
#     4   9  18  35  57  78 103 140 184 230 278 330
#     4  12  24  36  53  81 111 141 178 226 279 331
#     4   8  15  31  55  80 107 142 183 226 269 320
#     4  10  18  34  58  82 108 138 172 210 255 306
#     4  11  22  39  60  82 109 143 181 219 265 321
#
# _framework density 19.116444000000001
#
# number of rings (size 3 to 8) (size 9 to 14) (size 15 to 20)
#    0.000    2.308    0.000    6.692    0.000    4.000 
#    1.385    3.846    0.000    0.923    0.000    0.000 
#    0.000    0.000    0.000    0.000    0.000    0.000 
#
# Total GULP energy -644763.614786 kJ/mol
# GULP energy per Si atom -12399.300284 kJ/mol
# Density = 1.907293 g / cm^3
# Si number density = 19.116444 Si / 1000 Ang^3
#
#
#
# Elastic Constant Matrix: (Units=GPa)
#
#
# Indices 1 2 3 4 5 6 
#
# 1 90.9474 23.9549 30.9599 0.0000 0.0000 0.0000
# 2 23.9549 56.4631 32.9057 0.0000 0.0000 0.0000
# 3 30.9599 32.9057 109.2269 0.0000 0.0000 0.0000
# 4 0.0000 0.0000 0.0000 20.0326 0.0000 0.0000
# 5 0.0000 0.0000 0.0000 0.0000 32.6821 0.0000
# 6 0.0000 0.0000 0.0000 0.0000 0.0000 19.2610
#
#
#
# Elastic Compliance Matrix: (Units=1/GPa)
#
#
# Indices 1 2 3 4 5 6 
#
# 1 0.012891 -0.004051 -0.002433 0.000000 0.000000 0.000000
# 2 -0.004051 0.022755 -0.005707 0.000000 0.000000 0.000000
# 3 -0.002433 -0.005707 0.011564 0.000000 0.000000 0.000000
# 4 0.000000 0.000000 0.000000 0.049919 0.000000 0.000000
# 5 0.000000 0.000000 0.000000 0.000000 0.030598 0.000000
# 6 0.000000 0.000000 0.000000 0.000000 0.000000 0.051918
#
#
# Mechanical properties :
#
#
# Convention : Reuss Voigt Hill
#
# Bulk Modulus (GPa) = 43.80661 48.03094 45.91877
# Shear Modulus (GPa) = 23.62536 25.64960 24.63748
#
# Velocity S-wave (km/s) = 3.51930 3.66697 3.59390
# Velocity P-wave (km/s) = 6.28326 6.56574 6.42605
#
# Compressibility (1/GPa) = 0.02282761
#
# Stress axis : x y z
#
# Youngs Moduli (GPa) = 77.57527 43.94589 86.47281
#
# Poissons Ratio (x) = 0.17802 0.21043
# Poissons Ratio (y) = 0.31424 0.49351
# Poissons Ratio (z) = 0.18878 0.25080
#
# Static dielectric constant tensor:
#      x y z
#    x 3.256600 0.000000 0.000000 
#    y 0.000000 3.878490 0.000000 
#    z 0.000000 0.000000 2.650010 
# 
# 
# High freq. dielectric constant tensor:
#      x y z
#    x 1.724730 0.000000 0.000000 
#    y 0.000000 1.749760 0.000000 
#    z 0.000000 0.000000 1.737820 
# 
# From -- ./inp_files/57601.got.cif
#   From: 2010.03.12/outbox.cif.g09.slc.cpg/sg74_29_cif.got.tgz:57601.got - 2010.04.16 15:46:19.
