data_PCOD8298349
_publ_section_title
;
Structure prediction by ZEFSAII (Michael W. Deem and Ramdas Pophale) SiO2 
 PCOD8298349
Probable space group: I M M A
;
_chemical_formula_sum "Si O2"
_cell_formula_units_Z 112
_cell_length_a 23.328220
_cell_length_b 17.514405
_cell_length_c 15.306692
_cell_angle_alpha 90.000000
_cell_angle_beta 90.000000
_cell_angle_gamma 90.000000
_cell_volume 6254.006580
_symmetry_space_group_name_H-M "I M M A"
_symmetry_group_IT_number 74
_symmetry_cell_setting 'orthorhombic'
loop_
_space_group_symop_operation_xyz
x,y,z
-x,1/2-y,z
x,-y,-z
-x,1/2+y,-z
-x,-y,-z
x,1/2+y,-z
-x,y,z
x,1/2-y,z
1/2+x,1/2+y,1/2+z
1/2-x,-y,1/2+z
1/2+x,1/2-y,1/2-z
1/2-x,y,1/2-z
1/2-x,1/2-y,1/2-z
1/2+x,y,1/2-z
1/2-x,1/2+y,1/2+z
1/2+x,-y,1/2+z
loop_
_atom_site_type_symbol
_atom_site_label
_atom_site_fract_x
_atom_site_fract_y
_atom_site_fract_z
Si Si1 0.127444 0.333797 0.535182
Si Si2 0.435800 0.881769 0.190213
Si Si3 0.285033 0.958343 0.091468
Si Si4 0.067927 0.659879 0.642572
Si Si5 0.842963 0.040647 0.907913
Si Si6 0.565429 0.664473 0.380456
Si Si7 0.634298 0.972419 0.775364
O O1 0.152355 0.250000 0.514819
O O2 0.078802 0.327733 0.609032
O O3 0.177823 0.383034 0.577156
O O4 0.096324 0.366339 0.448999
O O5 0.500000 0.907989 0.185430
O O6 0.422503 0.834422 0.277299
O O7 0.403902 0.961741 0.183596
O O8 0.220892 0.929682 0.114895
O O9 0.306712 0.016323 0.168576
O O10 0.285170 0.000000 0.000000
O O11 0.077433 0.750000 0.661248
O O12 0.103131 0.609798 0.713440
O O13 0.000000 0.640949 0.643779
O O14 0.888252 0.108583 0.922830
O O15 0.859626 0.983629 0.828903
O O16 0.842703 0.000000 0.000000
O O17 0.500000 0.637138 0.400677
O O18 0.574619 0.750000 0.416901
#
# Coordination Sequence:
#
# PCOD8298349 Si02
#       7
#    16  16  16  16  16  16  16
#     4  10  19  30  48  78 115 147 175 214 264 324
#     4   9  17  28  48  76 106 140 176 211 260 325
#     4  10  19  35  54  79 105 140 178 218 267 324
#     4  10  20  33  52  80 115 153 187 222 268 325
#     4  10  22  37  57  79 101 136 186 232 275 322
#     4   9  18  34  54  77 105 134 167 218 279 330
#     4  10  19  35  54  75 107 145 181 229 270 317
#
# _framework density 17.908519999999999
#
# number of rings (size 3 to 8) (size 9 to 14) (size 15 to 20)
#    0.000    2.286    1.429    1.714    0.000    2.857 
#    0.000    2.857    0.000    9.429    0.000    0.000 
#    0.000    0.000    0.000    0.000    0.000    0.000 
#
# Total GULP energy -693899.135553 kJ/mol
# GULP energy per Si atom -12391.055992 kJ/mol
# Density = 1.786776 g / cm^3
# Si number density = 17.908520 Si / 1000 Ang^3
#
#
#
# Elastic Constant Matrix: (Units=GPa)
#
#
# Indices 1 2 3 4 5 6 
#
# 1 92.8139 48.7147 35.5782 0.0000 0.0000 0.0000
# 2 48.7147 78.7921 29.4614 0.0000 0.0000 0.0000
# 3 35.5782 29.4614 82.4355 0.0000 0.0000 0.0000
# 4 0.0000 0.0000 0.0000 17.9632 0.0000 0.0000
# 5 0.0000 0.0000 0.0000 0.0000 23.9643 0.0000
# 6 0.0000 0.0000 0.0000 0.0000 0.0000 20.9883
#
#
#
# Elastic Compliance Matrix: (Units=1/GPa)
#
#
# Indices 1 2 3 4 5 6 
#
# 1 0.017102 -0.009019 -0.004158 0.000000 0.000000 0.000000
# 2 -0.009019 0.019405 -0.003043 0.000000 0.000000 0.000000
# 3 -0.004158 -0.003043 0.015013 0.000000 0.000000 0.000000
# 4 0.000000 0.000000 0.000000 0.055669 0.000000 0.000000
# 5 0.000000 0.000000 0.000000 0.000000 0.041729 0.000000
# 6 0.000000 0.000000 0.000000 0.000000 0.000000 0.047646
#
#
# Mechanical properties :
#
#
# Convention : Reuss Voigt Hill
#
# Bulk Modulus (GPa) = 52.40810 53.50556 52.95683
# Shear Modulus (GPa) = 21.24384 21.93564 21.58974
#
# Velocity S-wave (km/s) = 3.44792 3.50361 3.47588
# Velocity P-wave (km/s) = 6.72152 6.80508 6.76343
#
# Compressibility (1/GPa) = 0.01908102
#
# Stress axis : x y z
#
# Youngs Moduli (GPa) = 58.47381 51.53191 66.61089
#
# Poissons Ratio (x) = 0.46476 0.27695
# Poissons Ratio (y) = 0.52737 0.20269
# Poissons Ratio (z) = 0.24312 0.15680
#
# Static dielectric constant tensor:
#      x y z
#    x 3.597680 0.000000 0.000000 
#    y 0.000000 4.339500 0.000000 
#    z 0.000000 0.000000 3.263470 
# 
# 
# High freq. dielectric constant tensor:
#      x y z
#    x 1.699450 0.000000 0.000000 
#    y 0.000000 1.680320 0.000000 
#    z 0.000000 0.000000 1.683340 
# 
# From -- ./inp_files/36564.got.cif
#   From: 2010.03.12/outbox.cif.g09.slc.cpg/sg74_19_cif.got.tgz:36564.got - 2010.04.16 15:46:19.
