data_PCOD8298229
_publ_section_title
;
Structure prediction by ZEFSAII (Michael W. Deem and Ramdas Pophale) SiO2 
 PCOD8298229
Probable space group: I M M A
;
_chemical_formula_sum "Si O2"
_cell_formula_units_Z 96
_cell_length_a 22.817832
_cell_length_b 24.956332
_cell_length_c 9.236964
_cell_angle_alpha 90.000000
_cell_angle_beta 90.000000
_cell_angle_gamma 90.000000
_cell_volume 5259.983524
_symmetry_space_group_name_H-M "I M M A"
_symmetry_group_IT_number 74
_symmetry_cell_setting 'orthorhombic'
loop_
_space_group_symop_operation_xyz
x,y,z
-x,1/2-y,z
x,-y,-z
-x,1/2+y,-z
-x,-y,-z
x,1/2+y,-z
-x,y,z
x,1/2-y,z
1/2+x,1/2+y,1/2+z
1/2-x,-y,1/2+z
1/2+x,1/2-y,1/2-z
1/2-x,y,1/2-z
1/2-x,1/2-y,1/2-z
1/2+x,y,1/2-z
1/2-x,1/2+y,1/2+z
1/2+x,-y,1/2+z
loop_
_atom_site_type_symbol
_atom_site_label
_atom_site_fract_x
_atom_site_fract_y
_atom_site_fract_z
Si Si1 0.932063 0.187740 0.187195
Si Si2 0.860315 0.418173 0.700402
Si Si3 0.065128 0.372828 0.466972
Si Si4 0.145530 0.397379 0.035350
Si Si5 0.767274 0.060039 0.484344
Si Si6 0.120154 0.461241 0.298840
O O1 0.922076 0.250000 0.159837
O O2 0.917201 0.174225 0.354786
O O3 0.885658 0.157445 0.084332
O O4 0.000000 0.171362 0.153618
O O5 0.894016 0.372672 0.608643
O O6 0.794043 0.421783 0.639906
O O7 0.890157 0.476231 0.674449
O O8 0.865753 0.404166 0.866614
O O9 0.069298 0.429323 0.381574
O O10 0.000000 0.364215 0.524653
O O11 0.216088 0.398284 0.058743
O O12 0.118422 0.446449 0.128504
O O13 0.817529 0.059583 0.362535
O O14 0.740055 0.000000 0.500000
#
# Coordination Sequence:
#
# PCOD8298229 Si02
#       6
#    16  16  16  16  16  16
#     4   9  20  40  59  71  88 121 169 219 263 308
#     4  10  19  29  46  77 111 138 163 198 242 293
#     4   9  18  33  52  70  92 129 172 209 247 294
#     4  11  19  29  51  77 102 129 166 208 248 289
#     4   9  17  30  48  72 106 147 179 197 225 283
#     4   9  18  30  47  73 106 143 174 194 228 287
#
# _framework density 18.251007000000001
#
# number of rings (size 3 to 8) (size 9 to 14) (size 15 to 20)
#    0.000    2.500    0.000    4.000    0.000    4.667 
#    0.000    0.833    0.000   29.500    0.000    0.000 
#    0.000    0.000    0.000    0.000    0.000    0.000 
#
# Total GULP energy -594828.492351 kJ/mol
# GULP energy per Si atom -12392.260257 kJ/mol
# Density = 1.820947 g / cm^3
# Si number density = 18.251007 Si / 1000 Ang^3
#
#
#
# Elastic Constant Matrix: (Units=GPa)
#
#
# Indices 1 2 3 4 5 6 
#
# 1 70.3417 37.3097 31.8072 0.0000 0.0000 0.0000
# 2 37.3097 69.0500 18.3043 0.0000 0.0000 0.0000
# 3 31.8072 18.3043 119.0462 0.0000 0.0000 0.0000
# 4 0.0000 0.0000 0.0000 18.8208 0.0000 0.0000
# 5 0.0000 0.0000 0.0000 0.0000 22.9572 0.0000
# 6 0.0000 0.0000 0.0000 0.0000 0.0000 27.4107
#
#
#
# Elastic Compliance Matrix: (Units=1/GPa)
#
#
# Indices 1 2 3 4 5 6 
#
# 1 0.021751 -0.010646 -0.004175 0.000000 0.000000 0.000000
# 2 -0.010646 0.020308 -0.000278 0.000000 0.000000 0.000000
# 3 -0.004175 -0.000278 0.009558 0.000000 0.000000 0.000000
# 4 0.000000 0.000000 0.000000 0.053133 0.000000 0.000000
# 5 0.000000 0.000000 0.000000 0.000000 0.043559 0.000000
# 6 0.000000 0.000000 0.000000 0.000000 0.000000 0.036482
#
#
# Mechanical properties :
#
#
# Convention : Reuss Voigt Hill
#
# Bulk Modulus (GPa) = 46.68529 48.14224 47.41376
# Shear Modulus (GPa) = 22.50953 25.23886 23.87419
#
# Velocity S-wave (km/s) = 3.51569 3.72274 3.62069
# Velocity P-wave (km/s) = 6.48962 6.70175 6.59654
#
# Compressibility (1/GPa) = 0.02142002
#
# Stress axis : x y z
#
# Youngs Moduli (GPa) = 45.97580 49.24108 104.62188
#
# Poissons Ratio (x) = 0.52421 0.43675
# Poissons Ratio (y) = 0.48945 0.02910
# Poissons Ratio (z) = 0.19193 0.01370
#
# Static dielectric constant tensor:
#      x y z
#    x 3.351380 0.000000 0.000000 
#    y 0.000000 3.091340 0.000000 
#    z 0.000000 0.000000 3.485740 
# 
# 
# High freq. dielectric constant tensor:
#      x y z
#    x 1.699450 0.000000 0.000000 
#    y 0.000000 1.662700 0.000000 
#    z 0.000000 0.000000 1.718420 
# 
# From -- ./inp_files/14059.got.cif
#   From: 2010.03.12/outbox.cif.g09.slc.cpg/sg74_8_cif.got.tgz:14059.got - 2010.04.16 15:46:19.
