data_PCOD8298036
_publ_section_title
;
Structure prediction by ZEFSAII (Michael W. Deem and Ramdas Pophale) SiO2 
 PCOD8298036
Probable space group: I M M A
;
_chemical_formula_sum "Si O2"
_cell_formula_units_Z 88
_cell_length_a 19.981920
_cell_length_b 8.619784
_cell_length_c 26.838069
_cell_angle_alpha 90.000000
_cell_angle_beta 90.000000
_cell_angle_gamma 90.000000
_cell_volume 4622.584558
_symmetry_space_group_name_H-M "I M M A"
_symmetry_group_IT_number 74
_symmetry_cell_setting 'orthorhombic'
loop_
_space_group_symop_operation_xyz
x,y,z
-x,1/2-y,z
x,-y,-z
-x,1/2+y,-z
-x,-y,-z
x,1/2+y,-z
-x,y,z
x,1/2-y,z
1/2+x,1/2+y,1/2+z
1/2-x,-y,1/2+z
1/2+x,1/2-y,1/2-z
1/2-x,y,1/2-z
1/2-x,1/2-y,1/2-z
1/2+x,y,1/2-z
1/2-x,1/2+y,1/2+z
1/2+x,-y,1/2+z
loop_
_atom_site_type_symbol
_atom_site_label
_atom_site_fract_x
_atom_site_fract_y
_atom_site_fract_z
Si Si1 0.000000 0.566340 0.055222
Si Si2 0.864375 0.932394 0.945384
Si Si3 0.228677 0.430752 0.864760
Si Si4 0.500000 0.924266 0.166102
Si Si5 0.637419 0.569636 0.715846
Si Si6 0.362087 0.930549 0.832509
Si Si7 0.000000 0.924233 0.215614
O O1 0.068249 0.503352 0.080254
O O2 0.000000 0.750000 0.055887
O O3 0.000000 0.500000 0.000000
O O4 0.872918 0.750000 0.950062
O O5 0.802596 0.973537 0.910175
O O6 0.850736 0.000000 0.000000
O O7 0.219617 0.250000 0.875183
O O8 0.194815 0.476028 0.812468
O O9 0.306783 0.472723 0.862245
O O10 0.500000 0.750000 0.144411
O O11 0.500000 0.920008 0.225301
O O12 0.434339 0.014890 0.147413
O O13 0.645814 0.750000 0.703520
O O14 0.645583 0.534442 0.774015
O O15 0.565125 0.514362 0.696150
O O16 0.353114 0.750000 0.843832
O O17 0.000000 0.750000 0.193340
#
# Coordination Sequence:
#
# PCOD8298036 Si02
#       7
#     8  16  16   8  16  16   8
#     4  10  18  33  56  81 106 136 175 216 260 307
#     4  11  22  39  59  80 106 137 175 218 264 311
#     4  12  24  36  52  77 106 138 176 217 264 314
#     4   9  17  31  52  76 102 135 174 215 256 305
#     4  10  20  34  51  73 104 141 179 218 261 309
#     4  10  20  35  54  77 106 140 176 215 260 311
#     4   9  17  30  48  71 100 137 179 219 260 304
#
# _framework density 19.036968999999999
#
# number of rings (size 3 to 8) (size 9 to 14) (size 15 to 20)
#    0.000    1.636    0.000    7.364    0.000    7.273 
#    0.000    3.636    0.000    0.000    0.000    0.636 
#    0.000    0.000    0.000    0.000    0.000    0.000 
#
# Total GULP energy -545720.351073 kJ/mol
# GULP energy per Si atom -12402.735252 kJ/mol
# Density = 1.899364 g / cm^3
# Si number density = 19.036969 Si / 1000 Ang^3
#
#
#
# Elastic Constant Matrix: (Units=GPa)
#
#
# Indices 1 2 3 4 5 6 
#
# 1 141.4877 40.6228 32.6408 0.0000 0.0000 0.0000
# 2 40.6228 133.4783 27.5461 0.0000 0.0000 0.0000
# 3 32.6408 27.5461 45.6685 0.0000 0.0000 0.0000
# 4 0.0000 0.0000 0.0000 23.0154 0.0000 0.0000
# 5 0.0000 0.0000 0.0000 0.0000 3.5688 0.0000
# 6 0.0000 0.0000 0.0000 0.0000 0.0000 38.2792
#
#
#
# Elastic Compliance Matrix: (Units=1/GPa)
#
#
# Indices 1 2 3 4 5 6 
#
# 1 0.008741 -0.001566 -0.005303 0.000000 0.000000 0.000000
# 2 -0.001566 0.008838 -0.004211 0.000000 0.000000 0.000000
# 3 -0.005303 -0.004211 0.028227 0.000000 0.000000 0.000000
# 4 0.000000 0.000000 0.000000 0.043449 0.000000 0.000000
# 5 0.000000 0.000000 0.000000 0.000000 0.280205 0.000000
# 6 0.000000 0.000000 0.000000 0.000000 0.000000 0.026124
#
#
# Mechanical properties :
#
#
# Convention : Reuss Voigt Hill
#
# Bulk Modulus (GPa) = 42.29158 58.02820 50.15989
# Shear Modulus (GPa) = 11.74743 27.62766 19.68755
#
# Velocity S-wave (km/s) = 2.48682 3.81368 3.21935
# Velocity P-wave (km/s) = 5.52353 7.06684 6.34230
#
# Compressibility (1/GPa) = 0.02364537
#
# Stress axis : x y z
#
# Youngs Moduli (GPa) = 114.40804 113.15405 35.42674
#
# Poissons Ratio (x) = 0.17717 0.18786
# Poissons Ratio (y) = 0.17914 0.14920
# Poissons Ratio (z) = 0.60668 0.47654
#
# Static dielectric constant tensor:
#      x y z
#    x 3.793930 0.000000 0.000000 
#    y 0.000000 3.627900 0.000000 
#    z 0.000000 0.000000 3.072160 
# 
# 
# High freq. dielectric constant tensor:
#      x y z
#    x 1.749720 0.000000 0.000000 
#    y 0.000000 1.759910 0.000000 
#    z 0.000000 0.000000 1.692960 
# 
# From -- ./inp_files/73019.got.cif
#   From: 2010.03.12/outbox.cif.g09.slc.cpg/sg74_37_cif.got.tgz:73019.got - 2010.04.16 15:46:19.
