data_PCOD8298743
_publ_section_title
;
Structure prediction by ZEFSAII (Michael W. Deem and Ramdas Pophale) SiO2 
 PCOD8298743
Probable space group: I M M A
;
_chemical_formula_sum "Si O2"
_cell_formula_units_Z 96
_cell_length_a 9.155504
_cell_length_b 28.391498
_cell_length_c 20.258425
_cell_angle_alpha 90.000000
_cell_angle_beta 90.000000
_cell_angle_gamma 90.000000
_cell_volume 5265.944070
_symmetry_space_group_name_H-M "I M M A"
_symmetry_group_IT_number 74
_symmetry_cell_setting 'orthorhombic'
loop_
_space_group_symop_operation_xyz
x,y,z
-x,1/2-y,z
x,-y,-z
-x,1/2+y,-z
-x,-y,-z
x,1/2+y,-z
-x,y,z
x,1/2-y,z
1/2+x,1/2+y,1/2+z
1/2-x,-y,1/2+z
1/2+x,1/2-y,1/2-z
1/2-x,y,1/2-z
1/2-x,1/2-y,1/2-z
1/2+x,y,1/2-z
1/2-x,1/2+y,1/2+z
1/2+x,-y,1/2+z
loop_
_atom_site_type_symbol
_atom_site_label
_atom_site_fract_x
_atom_site_fract_y
_atom_site_fract_z
Si Si1 0.324468 0.874898 0.679210
Si Si2 0.327206 0.060640 0.556817
Si Si3 0.341453 0.195473 0.808539
Si Si4 0.328046 0.459896 0.410214
Si Si5 0.828103 0.194504 0.419268
Si Si6 0.327927 0.154266 0.940902
O O1 0.500000 0.871922 0.685127
O O2 0.250000 0.872511 0.750000
O O3 0.269771 0.923988 0.645519
O O4 0.266044 0.830859 0.637098
O O5 0.500000 0.068920 0.559245
O O6 0.269729 0.054738 0.481956
O O7 0.243488 0.105701 0.583253
O O8 0.283295 0.014717 0.601064
O O9 0.500000 0.171150 0.806041
O O10 0.354475 0.250000 0.792670
O O11 0.250000 0.170803 0.750000
O O12 0.278327 0.189418 0.882376
O O13 0.500000 0.456048 0.412077
O O14 0.796262 0.250000 0.415769
O O15 0.770554 0.174767 0.489661
O O16 0.000000 0.184313 0.409002
O O17 0.500000 0.148279 0.946375
#
# Coordination Sequence:
#
# PCOD8298743 Si02
#       6
#    16  16  16  16  16  16
#     4  11  22  38  58  80 107 142 182 226 273 323
#     4   9  16  31  55  79 103 134 170 209 256 313
#     4   9  18  33  51  71 100 139 177 212 255 309
#     4   8  16  32  54  77 102 134 171 209 255 310
#     4  10  21  37  56  79 108 142 181 225 274 326
#     4  10  19  32  52  81 111 138 171 219 271 313
#
# _framework density 18.230349
#
# number of rings (size 3 to 8) (size 9 to 14) (size 15 to 20)
#    0.000    2.500    1.667    2.000    0.000    3.333 
#    0.000    4.167    0.000    7.000    0.000    0.000 
#    0.000    0.000    0.000    0.000    0.000    0.000 
#
# Total GULP energy -594774.540458 kJ/mol
# GULP energy per Si atom -12391.136260 kJ/mol
# Density = 1.818886 g / cm^3
# Si number density = 18.230349 Si / 1000 Ang^3
#
#
#
# Elastic Constant Matrix: (Units=GPa)
#
#
# Indices 1 2 3 4 5 6 
#
# 1 42.4191 37.5981 45.3126 0.0000 0.0000 0.0000
# 2 37.5981 109.0085 54.9206 -0.0001 0.0000 0.0000
# 3 45.3126 54.9206 131.9230 -0.0002 0.0000 0.0000
# 4 0.0000 -0.0001 -0.0002 29.2275 0.0000 0.0000
# 5 0.0000 0.0000 0.0000 0.0000 23.2855 0.0000
# 6 0.0000 0.0000 0.0000 0.0000 0.0000 26.1133
#
#
#
# Elastic Compliance Matrix: (Units=1/GPa)
#
#
# Indices 1 2 3 4 5 6 
#
# 1 0.043896 -0.009546 -0.011103 0.000000 0.000000 0.000000
# 2 -0.009546 0.013684 -0.002418 0.000000 0.000000 0.000000
# 3 -0.011103 -0.002418 0.012401 0.000000 0.000000 0.000000
# 4 0.000000 0.000000 0.000000 0.034214 0.000000 0.000000
# 5 0.000000 0.000000 0.000000 0.000000 0.042945 0.000000
# 6 0.000000 0.000000 0.000000 0.000000 0.000000 0.038295
#
#
# Mechanical properties :
#
#
# Convention : Reuss Voigt Hill
#
# Bulk Modulus (GPa) = 41.93536 62.11258 52.02397
# Shear Modulus (GPa) = 20.87520 25.42657 23.15088
#
# Velocity S-wave (km/s) = 3.38757 3.73867 3.56744
# Velocity P-wave (km/s) = 6.19305 7.26511 6.75040
#
# Compressibility (1/GPa) = 0.02384623
#
# Stress axis : x y z
#
# Youngs Moduli (GPa) = 22.78107 73.07577 80.64191
#
# Poissons Ratio (x) = 0.69760 0.89538
# Poissons Ratio (y) = 0.21747 0.19499
# Poissons Ratio (z) = 0.25294 0.17670
#
# Static dielectric constant tensor:
#      x y z
#    x 3.290990 0.000000 0.000000 
#    y 0.000000 3.481870 0.000000 
#    z 0.000000 0.000000 3.491550 
# 
# 
# High freq. dielectric constant tensor:
#      x y z
#    x 1.686560 0.000000 0.000000 
#    y 0.000000 1.707520 0.000000 
#    z 0.000000 0.000000 1.700220 
# 
# From -- ./inp_files/49079.got.cif
#   From: 2010.03.12/outbox.cif.g09.slc.cpg/sg74_25_cif.got.tgz:49079.got - 2010.04.16 15:46:19.
