data_PCOD8298011
_publ_section_title
;
Structure prediction by ZEFSAII (Michael W. Deem and Ramdas Pophale) SiO2 
 PCOD8298011
Probable space group: I M M A
;
_chemical_formula_sum "Si O2"
_cell_formula_units_Z 88
_cell_length_a 15.376737
_cell_length_b 23.407266
_cell_length_c 12.072143
_cell_angle_alpha 90.000000
_cell_angle_beta 90.000000
_cell_angle_gamma 90.000000
_cell_volume 4345.094719
_symmetry_space_group_name_H-M "I M M A"
_symmetry_group_IT_number 74
_symmetry_cell_setting 'orthorhombic'
loop_
_space_group_symop_operation_xyz
x,y,z
-x,1/2-y,z
x,-y,-z
-x,1/2+y,-z
-x,-y,-z
x,1/2+y,-z
-x,y,z
x,1/2-y,z
1/2+x,1/2+y,1/2+z
1/2-x,-y,1/2+z
1/2+x,1/2-y,1/2-z
1/2-x,y,1/2-z
1/2-x,1/2-y,1/2-z
1/2+x,y,1/2-z
1/2-x,1/2+y,1/2+z
1/2+x,-y,1/2+z
loop_
_atom_site_type_symbol
_atom_site_label
_atom_site_fract_x
_atom_site_fract_y
_atom_site_fract_z
Si Si1 0.399324 0.750000 0.261989
Si Si2 0.403666 0.476434 0.804474
Si Si3 0.180326 0.639027 0.345724
Si Si4 0.406041 0.053588 0.556281
Si Si5 0.205156 0.642894 0.955090
Si Si6 0.250000 0.936937 0.750000
Si Si7 0.104388 0.750000 0.984802
O O1 0.500000 0.750000 0.278319
O O2 0.374102 0.692997 0.196741
O O3 0.361117 0.750000 0.387341
O O4 0.500000 0.497077 0.850479
O O5 0.372602 0.419775 0.870180
O O6 0.420926 0.455728 0.682826
O O7 0.329439 0.525701 0.801246
O O8 0.250000 0.624529 0.250000
O O9 0.211611 0.657987 0.469329
O O10 0.500000 0.060798 0.496147
O O11 0.351798 0.110064 0.545516
O O12 0.355887 0.000000 0.500000
O O13 0.219475 0.604422 0.847781
O O14 0.147697 0.697109 0.919865
O O15 0.000000 0.750000 0.972510
#
# Coordination Sequence:
#
# PCOD8298011 Si02
#       7
#     8  16  16  16  16   8   8
#     4  11  22  40  64  95 127 156 197 256 324 387
#     4  11  22  38  62  95 129 164 210 264 318 374
#     4  12  21  37  62  95 128 158 197 251 321 382
#     4  10  18  32  59  90 118 149 195 258 316 356
#     4  12  24  39  62  88 127 164 209 254 311 372
#     4  12  26  43  60  87 126 178 220 254 304 366
#     4  11  23  40  67  99 121 149 206 278 331 366
#
# _framework density 20.252721999999999
#
# number of rings (size 3 to 8) (size 9 to 14) (size 15 to 20)
#    0.000    0.727    6.364    1.909    0.000    4.000 
#    0.000    2.727    0.000    1.091    0.000    0.000 
#    0.000    0.000    0.000    0.000    0.000    0.000 
#
# Total GULP energy -545077.107968 kJ/mol
# GULP energy per Si atom -12388.116090 kJ/mol
# Density = 2.020663 g / cm^3
# Si number density = 20.252722 Si / 1000 Ang^3
#
#
#
# Elastic Constant Matrix: (Units=GPa)
#
#
# Indices 1 2 3 4 5 6 
#
# 1 96.1587 54.0235 20.3415 -0.0001 0.0000 0.0000
# 2 54.0235 137.6698 33.0029 -0.0004 0.0000 -0.0001
# 3 20.3415 33.0029 53.5103 -0.0026 0.0001 -0.0004
# 4 -0.0001 -0.0004 -0.0026 -89.2973 0.0000 0.0003
# 5 0.0000 0.0000 0.0001 0.0000 23.3917 0.0000
# 6 0.0000 -0.0001 -0.0004 0.0003 0.0000 53.7214
#
#
#
# Elastic Compliance Matrix: (Units=1/GPa)
#
#
# Indices 1 2 3 4 5 6 
#
# 1 0.013557 -0.004793 -0.002197 0.000000 0.000000 0.000000
# 2 -0.004793 0.010219 -0.004480 0.000000 0.000000 0.000000
# 3 -0.002197 -0.004480 0.022287 -0.000001 0.000000 0.000000
# 4 0.000000 0.000000 -0.000001 -0.011199 0.000000 0.000000
# 5 0.000000 0.000000 0.000000 0.000000 0.042750 0.000000
# 6 0.000000 0.000000 0.000000 0.000000 0.000000 0.018615
#
#
# Mechanical properties :
#
#
# Convention : Reuss Voigt Hill
#
# Bulk Modulus (GPa) = 43.25157 55.78607 49.51882
# Shear Modulus (GPa) = 39.40800 9.56122 24.48461
#
# Velocity S-wave (km/s) = 4.41592 2.17513 3.48077
# Velocity P-wave (km/s) = 6.88497 5.82349 6.37636
#
# Compressibility (1/GPa) = 0.02312055
#
# Stress axis : x y z
#
# Youngs Moduli (GPa) = 73.76118 97.85909 44.87002
#
# Poissons Ratio (x) = 0.46907 0.09860
# Poissons Ratio (y) = 0.35356 0.20103
# Poissons Ratio (z) = 0.16208 0.43845
#
# Static dielectric constant tensor:
#      x y z
#    x 4.210350 0.000000 0.000000 
#    y 0.000000 3.828300 0.000000 
#    z 0.000000 0.000000 2.759620 
# 
# 
# High freq. dielectric constant tensor:
#      x y z
#    x 1.795490 0.000000 0.000000 
#    y 0.000000 1.800220 0.000000 
#    z 0.000000 0.000000 1.759970 
# 
# From -- ./inp_files/20701.got.cif
#   From: 2010.03.12/outbox.cif.g09.slc.cpg/sg74_11_cif.got.tgz:20701.got - 2010.04.16 15:46:19.
