data_PCOD8298643
_publ_section_title
;
Structure prediction by ZEFSAII (Michael W. Deem and Ramdas Pophale) SiO2 
 PCOD8298643
Probable space group: I M M A
;
_chemical_formula_sum "Si O2"
_cell_formula_units_Z 96
_cell_length_a 9.186913
_cell_length_b 19.623068
_cell_length_c 30.195529
_cell_angle_alpha 90.000000
_cell_angle_beta 90.000000
_cell_angle_gamma 90.000000
_cell_volume 5443.511628
_symmetry_space_group_name_H-M "I M M A"
_symmetry_group_IT_number 74
_symmetry_cell_setting 'orthorhombic'
loop_
_space_group_symop_operation_xyz
x,y,z
-x,1/2-y,z
x,-y,-z
-x,1/2+y,-z
-x,-y,-z
x,1/2+y,-z
-x,y,z
x,1/2-y,z
1/2+x,1/2+y,1/2+z
1/2-x,-y,1/2+z
1/2+x,1/2-y,1/2-z
1/2-x,y,1/2-z
1/2-x,1/2-y,1/2-z
1/2+x,y,1/2-z
1/2-x,1/2+y,1/2+z
1/2+x,-y,1/2+z
loop_
_atom_site_type_symbol
_atom_site_label
_atom_site_fract_x
_atom_site_fract_y
_atom_site_fract_z
Si Si1 0.171957 0.530344 0.202803
Si Si2 0.168098 0.534309 0.047226
Si Si3 0.330299 0.539202 0.874558
Si Si4 0.833355 0.674535 0.579355
Si Si5 0.332482 0.321782 0.704515
Si Si6 0.830814 0.325471 0.990404
O O1 0.250000 0.523023 0.250000
O O2 0.241269 0.476377 0.169669
O O3 0.203523 0.605989 0.181010
O O4 0.000000 0.516486 0.208188
O O5 0.273110 0.503643 0.083905
O O6 0.000000 0.522333 0.060949
O O7 0.200743 0.500000 0.000000
O O8 0.204309 0.615467 0.045094
O O9 0.500000 0.522289 0.867826
O O10 0.302950 0.619502 0.882494
O O11 0.791365 0.750000 0.597204
O O12 0.743164 0.654840 0.536309
O O13 0.000000 0.671907 0.564346
O O14 0.500000 0.323174 0.717435
O O15 0.297491 0.250000 0.677838
O O16 0.250000 0.319449 0.750000
O O17 0.780881 0.250000 0.973287
O O18 0.000000 0.325466 0.001089
#
# Coordination Sequence:
#
# PCOD8298643 Si02
#       6
#    16  16  16  16  16  16
#     4  10  20  35  55  77 104 135 170 214 260 305
#     4  10  19  32  50  74 104 135 168 209 254 300
#     4  11  22  34  52  77 104 135 172 210 255 309
#     4   9  18  32  50  73 100 130 166 209 254 302
#     4   8  14  26  46  71  95 122 158 199 243 290
#     4   9  17  30  49  72 100 136 174 210 250 299
#
# _framework density 17.635674999999999
#
# number of rings (size 3 to 8) (size 9 to 14) (size 15 to 20)
#    0.000    2.500    1.667    1.000    0.000    2.333 
#    0.000    0.833    0.000    5.500    0.000    0.000 
#    0.000    0.000    0.000    0.000    0.000    0.000 
#
# Total GULP energy -594658.873652 kJ/mol
# GULP energy per Si atom -12388.726534 kJ/mol
# Density = 1.759554 g / cm^3
# Si number density = 17.635675 Si / 1000 Ang^3
#
#
#
# Elastic Constant Matrix: (Units=GPa)
#
#
# Indices 1 2 3 4 5 6 
#
# 1 70.7100 46.6664 40.2497 0.0000 0.0000 0.0000
# 2 46.6664 115.9997 46.4440 0.0000 0.0000 0.0000
# 3 40.2497 46.4440 69.2261 0.0000 0.0000 0.0000
# 4 0.0000 0.0000 0.0000 11.6485 0.0000 0.0000
# 5 0.0000 0.0000 0.0000 0.0000 25.7703 0.0000
# 6 0.0000 0.0000 0.0000 0.0000 0.0000 22.4602
#
#
#
# Elastic Compliance Matrix: (Units=1/GPa)
#
#
# Indices 1 2 3 4 5 6 
#
# 1 0.023391 -0.005421 -0.009963 0.000000 0.000000 0.000000
# 2 -0.005421 0.013043 -0.005599 0.000000 0.000000 0.000000
# 3 -0.009963 -0.005599 0.023994 0.000000 0.000000 0.000000
# 4 0.000000 0.000000 0.000000 0.085848 0.000000 0.000000
# 5 0.000000 0.000000 0.000000 0.000000 0.038804 0.000000
# 6 0.000000 0.000000 0.000000 0.000000 0.000000 0.044523
#
#
# Mechanical properties :
#
#
# Convention : Reuss Voigt Hill
#
# Bulk Modulus (GPa) = 54.16294 58.07287 56.11790
# Shear Modulus (GPa) = 18.00342 20.14752 19.07547
#
# Velocity S-wave (km/s) = 3.19854 3.38365 3.29240
# Velocity P-wave (km/s) = 6.66481 6.94738 6.80756
#
# Compressibility (1/GPa) = 0.01846281
#
# Stress axis : x y z
#
# Youngs Moduli (GPa) = 42.75075 76.66779 41.67627
#
# Poissons Ratio (x) = 0.41563 0.41523
# Poissons Ratio (y) = 0.23176 0.23333
# Poissons Ratio (z) = 0.42593 0.42924
#
# Static dielectric constant tensor:
#      x y z
#    x 3.300960 0.000000 0.000000 
#    y 0.000000 4.047070 0.000000 
#    z 0.000000 0.000000 2.823160 
# 
# 
# High freq. dielectric constant tensor:
#      x y z
#    x 1.687580 0.000000 0.000000 
#    y 0.000000 1.703280 0.000000 
#    z 0.000000 0.000000 1.633860 
# 
# From -- ./inp_files/64307.got.cif
#   From: 2010.03.12/outbox.cif.g09.slc.cpg/sg74_33_cif.got.tgz:64307.got - 2010.04.16 15:46:19.
