data_PCOD8298223
_publ_section_title
;
Structure prediction by ZEFSAII (Michael W. Deem and Ramdas Pophale) SiO2 
 PCOD8298223
Probable space group: I M M A
;
_chemical_formula_sum "Si O2"
_cell_formula_units_Z 96
_cell_length_a 24.702471
_cell_length_b 24.122513
_cell_length_c 9.072566
_cell_angle_alpha 90.000000
_cell_angle_beta 90.000000
_cell_angle_gamma 90.000000
_cell_volume 5406.212141
_symmetry_space_group_name_H-M "I M M A"
_symmetry_group_IT_number 74
_symmetry_cell_setting 'orthorhombic'
loop_
_space_group_symop_operation_xyz
x,y,z
-x,1/2-y,z
x,-y,-z
-x,1/2+y,-z
-x,-y,-z
x,1/2+y,-z
-x,y,z
x,1/2-y,z
1/2+x,1/2+y,1/2+z
1/2-x,-y,1/2+z
1/2+x,1/2-y,1/2-z
1/2-x,y,1/2-z
1/2-x,1/2-y,1/2-z
1/2+x,y,1/2-z
1/2-x,1/2+y,1/2+z
1/2+x,-y,1/2+z
loop_
_atom_site_type_symbol
_atom_site_label
_atom_site_fract_x
_atom_site_fract_y
_atom_site_fract_z
Si Si1 0.294385 0.908316 0.142919
Si Si2 0.660015 0.686752 0.344947
Si Si3 0.869138 0.549305 0.901275
Si Si4 0.098240 0.525319 0.350562
Si Si5 0.938600 0.386794 0.866742
Si Si6 0.777712 0.364242 0.102833
O O1 0.250000 0.936994 0.250000
O O2 0.312352 0.851591 0.223016
O O3 0.341860 0.951733 0.118293
O O4 0.270612 0.893585 0.984877
O O5 0.663076 0.750000 0.292633
O O6 0.597141 0.668872 0.354557
O O7 0.691524 0.681037 0.501590
O O8 0.899366 0.526524 0.758786
O O9 0.821565 0.589848 0.851099
O O10 0.843251 0.500000 0.000000
O O11 0.915363 0.578564 0.997333
O O12 0.072494 0.500000 0.500000
O O13 0.063075 0.575409 0.281640
O O14 0.000000 0.368752 0.897537
O O15 0.750000 0.338083 0.250000
#
# Coordination Sequence:
#
# PCOD8298223 Si02
#       6
#    16  16  16  16  16  16
#     4   9  18  30  45  68  97 129 160 186 219 269
#     4   9  19  35  51  68  90 117 155 198 237 279
#     4   9  18  30  45  68  97 129 160 186 219 269
#     4  10  19  29  45  71  99 126 155 187 225 271
#     4   9  19  35  51  68  90 117 155 198 237 279
#     4  10  19  29  45  71  99 126 155 187 225 271
#
# _framework density 17.757349000000001
#
# number of rings (size 3 to 8) (size 9 to 14) (size 15 to 20)
#    0.000    2.667    0.000    4.000    0.000   11.000 
#    0.000    0.000    0.000    0.000    0.000    0.000 
#    0.000   10.667    0.000    0.000    0.000    0.000 
#
# Total GULP energy -594984.145544 kJ/mol
# GULP energy per Si atom -12395.503032 kJ/mol
# Density = 1.771693 g / cm^3
# Si number density = 17.757349 Si / 1000 Ang^3
#
#
#
# Elastic Constant Matrix: (Units=GPa)
#
#
# Indices 1 2 3 4 5 6 
#
# 1 86.0153 -7.7863 8.0944 0.0000 0.0000 0.0000
# 2 -7.7863 27.2664 -1.2082 0.0000 0.0000 0.0000
# 3 8.0944 -1.2082 89.6697 0.0000 0.0000 0.0000
# 4 0.0000 0.0000 0.0000 13.8045 0.0000 0.0000
# 5 0.0000 0.0000 0.0000 0.0000 8.3088 0.0000
# 6 0.0000 0.0000 0.0000 0.0000 0.0000 8.3988
#
#
#
# Elastic Compliance Matrix: (Units=1/GPa)
#
#
# Indices 1 2 3 4 5 6 
#
# 1 0.012031 0.003389 -0.001040 0.000000 0.000000 0.000000
# 2 0.003389 0.037652 0.000201 0.000000 0.000000 0.000000
# 3 -0.001040 0.000201 0.011249 0.000000 0.000000 0.000000
# 4 0.000000 0.000000 0.000000 0.072440 0.000000 0.000000
# 5 0.000000 0.000000 0.000000 0.000000 0.120354 0.000000
# 6 0.000000 0.000000 0.000000 0.000000 0.000000 0.119064
#
#
# Mechanical properties :
#
#
# Convention : Reuss Voigt Hill
#
# Bulk Modulus (GPa) = 15.14415 22.35013 18.74714
# Shear Modulus (GPa) = 12.83040 19.69253 16.26147
#
# Velocity S-wave (km/s) = 2.69093 3.33375 3.02944
# Velocity P-wave (km/s) = 4.26634 5.23758 4.77671
#
# Compressibility (1/GPa) = 0.06603210
#
# Stress axis : x y z
#
# Youngs Moduli (GPa) = 83.12170 26.55902 88.89948
#
# Poissons Ratio (x) = -0.09002 0.09248
# Poissons Ratio (y) = -0.28173 -0.01790
# Poissons Ratio (z) = 0.08647 -0.00535
#
# Static dielectric constant tensor:
#      x y z
#    x 3.180830 0.000000 0.000000 
#    y 0.000000 3.039800 0.000000 
#    z 0.000000 0.000000 3.325640 
# 
# 
# High freq. dielectric constant tensor:
#      x y z
#    x 1.678280 0.000000 0.000000 
#    y 0.000000 1.661950 0.000000 
#    z 0.000000 0.000000 1.684870 
# 
# From -- ./inp_files/13878.got.cif
#   From: 2010.03.12/outbox.cif.g09.slc.cpg/sg74_7_cif.got.tgz:13878.got - 2010.04.16 15:46:19.
