data_PCOD8298568
_publ_section_title
;
Structure prediction by ZEFSAII (Michael W. Deem and Ramdas Pophale) SiO2 
 PCOD8298568
Probable space group: I M M A
;
_chemical_formula_sum "Si O2"
_cell_formula_units_Z 88
_cell_length_a 8.827062
_cell_length_b 18.353495
_cell_length_c 29.034272
_cell_angle_alpha 90.000000
_cell_angle_beta 90.000000
_cell_angle_gamma 90.000000
_cell_volume 4703.768029
_symmetry_space_group_name_H-M "I M M A"
_symmetry_group_IT_number 74
_symmetry_cell_setting 'orthorhombic'
loop_
_space_group_symop_operation_xyz
x,y,z
-x,1/2-y,z
x,-y,-z
-x,1/2+y,-z
-x,-y,-z
x,1/2+y,-z
-x,y,z
x,1/2-y,z
1/2+x,1/2+y,1/2+z
1/2-x,-y,1/2+z
1/2+x,1/2-y,1/2-z
1/2-x,y,1/2-z
1/2-x,1/2-y,1/2-z
1/2+x,y,1/2-z
1/2-x,1/2+y,1/2+z
1/2+x,-y,1/2+z
loop_
_atom_site_type_symbol
_atom_site_label
_atom_site_fract_x
_atom_site_fract_y
_atom_site_fract_z
Si Si1 0.820157 0.049072 0.364447
Si Si2 0.820673 0.562987 0.532187
Si Si3 0.180777 0.750000 0.300405
Si Si4 0.177906 0.332882 0.201447
Si Si5 0.819846 0.670085 0.456992
Si Si6 0.679183 0.886185 0.139229
O O1 0.756201 0.059429 0.416269
O O2 0.741381 0.111516 0.335550
O O3 0.000000 0.059657 0.361979
O O4 0.773353 0.968296 0.345730
O O5 0.752176 0.500000 0.500000
O O6 0.771404 0.636815 0.506180
O O7 0.000000 0.553423 0.535515
O O8 0.250000 0.750000 0.250000
O O9 0.240848 0.677019 0.326637
O O10 0.000000 0.750000 0.297263
O O11 0.220574 0.250000 0.187159
O O12 0.250000 0.353345 0.250000
O O13 0.000000 0.342936 0.205780
O O14 0.748482 0.750000 0.454700
O O15 0.758489 0.625617 0.412734
O O16 0.000000 0.672521 0.454002
O O17 0.500000 0.879926 0.138543
#
# Coordination Sequence:
#
# PCOD8298568 Si02
#       6
#    16  16   8  16  16  16
#     4  10  19  31  53  84 115 141 173 220 269 317
#     4   9  15  24  41  71 110 143 172 211 257 300
#     4  10  20  34  50  70  98 134 178 224 267 312
#     4  10  22  41  62  81 104 137 175 217 270 330
#     4   9  14  22  39  65  98 137 178 214 249 296
#     4   9  16  28  47  71 100 139 179 215 260 310
#
# _framework density 18.708406
#
# number of rings (size 3 to 8) (size 9 to 14) (size 15 to 20)
#    0.000    2.545    2.727    0.545    0.000    2.545 
#    0.000    4.545    0.000    0.545    0.000    0.000 
#    0.000    0.000    0.000    0.000    0.000    0.000 
#
# Total GULP energy -545254.157573 kJ/mol
# GULP energy per Si atom -12392.139945 kJ/mol
# Density = 1.866582 g / cm^3
# Si number density = 18.708406 Si / 1000 Ang^3
#
#
#
# Elastic Constant Matrix: (Units=GPa)
#
#
# Indices 1 2 3 4 5 6 
#
# 1 25.3909 28.6694 29.8422 0.0001 0.0000 0.0000
# 2 28.6694 151.2972 93.2437 0.0009 0.0000 0.0000
# 3 29.8422 93.2437 156.0227 0.0010 0.0000 0.0000
# 4 0.0001 0.0009 0.0010********** 0.0002 0.0003
# 5 0.0000 0.0000 0.0000 0.0002 18.7961 0.0000
# 6 0.0000 0.0000 0.0000 0.0003 0.0000 15.9063
#
#
#
# Elastic Compliance Matrix: (Units=1/GPa)
#
#
# Indices 1 2 3 4 5 6 
#
# 1 0.054187 -0.006143 -0.006693 0.000000 0.000000 0.000000
# 2 -0.006143 0.011160 -0.005494 0.000000 0.000000 0.000000
# 3 -0.006693 -0.005494 0.010973 0.000000 0.000000 0.000000
# 4 0.000000 0.000000 0.000000 -0.000036 0.000000 0.000000
# 5 0.000000 0.000000 0.000000 0.000000 0.053203 0.000000
# 6 0.000000 0.000000 0.000000 0.000000 0.000000 0.062868
#
#
# Mechanical properties :
#
#
# Convention : Reuss Voigt Hill
#
# Bulk Modulus (GPa) = 25.21512 70.69127 47.95320
# Shear Modulus (GPa) = 20.64116 -5467.11624 -2723.23754
#
# Velocity S-wave (km/s) = 3.32521 -54.11674 -38.19401
# Velocity P-wave (km/s) = 5.31507 62.18490 43.81045
#
# Compressibility (1/GPa) = 0.03965874
#
# Stress axis : x y z
#
# Youngs Moduli (GPa) = 18.45470 89.60783 91.13203
#
# Poissons Ratio (x) = 0.55047 0.60994
# Poissons Ratio (y) = 0.11337 0.50072
# Poissons Ratio (z) = 0.12352 0.49234
#
# Static dielectric constant tensor:
#      x y z
#    x 2.832520 0.000000 0.000000 
#    y 0.000000 3.775170 0.000000 
#    z 0.000000 0.000000 3.542610 
# 
# 
# High freq. dielectric constant tensor:
#      x y z
#    x 1.659690 0.000000 0.000000 
#    y 0.000000 1.743220 0.000000 
#    z 0.000000 0.000000 1.730450 
# 
# From -- ./inp_files/70313.got.cif
#   From: 2010.03.12/outbox.cif.g09.slc.cpg/sg74_36_cif.got.tgz:70313.got - 2010.04.16 15:46:19.
