data_PCOD8298275
_publ_section_title
;
Structure prediction by ZEFSAII (Michael W. Deem and Ramdas Pophale) SiO2 
 PCOD8298275
Probable space group: I M M A
;
_chemical_formula_sum "Si O2"
_cell_formula_units_Z 104
_cell_length_a 22.473089
_cell_length_b 8.940440
_cell_length_c 29.928462
_cell_angle_alpha 90.000000
_cell_angle_beta 90.000000
_cell_angle_gamma 90.000000
_cell_volume 6013.205749
_symmetry_space_group_name_H-M "I M M A"
_symmetry_group_IT_number 74
_symmetry_cell_setting 'orthorhombic'
loop_
_space_group_symop_operation_xyz
x,y,z
-x,1/2-y,z
x,-y,-z
-x,1/2+y,-z
-x,-y,-z
x,1/2+y,-z
-x,y,z
x,1/2-y,z
1/2+x,1/2+y,1/2+z
1/2-x,-y,1/2+z
1/2+x,1/2-y,1/2-z
1/2-x,y,1/2-z
1/2-x,1/2-y,1/2-z
1/2+x,y,1/2-z
1/2-x,1/2+y,1/2+z
1/2+x,-y,1/2+z
loop_
_atom_site_type_symbol
_atom_site_label
_atom_site_fract_x
_atom_site_fract_y
_atom_site_fract_z
Si Si1 0.429362 0.583936 0.220977
Si Si2 0.500000 0.072007 0.451520
Si Si3 0.847378 0.427391 0.546062
Si Si4 0.603697 0.575235 0.396249
Si Si5 0.070431 0.421286 0.191421
Si Si6 0.286691 0.422979 0.544657
Si Si7 0.433501 0.571708 0.123068
O O1 0.500000 0.594483 0.221669
O O2 0.402653 0.750000 0.229135
O O3 0.406756 0.473887 0.259914
O O4 0.410352 0.520228 0.172229
O O5 0.500000 0.250000 0.455733
O O6 0.500000 0.000000 0.500000
O O7 0.442017 0.020991 0.424984
O O8 0.869611 0.500000 0.500000
O O9 0.853153 0.250000 0.542107
O O10 0.779774 0.478721 0.556717
O O11 0.888792 0.491150 0.585658
O O12 0.587048 0.750000 0.399752
O O13 0.602780 0.523531 0.345088
O O14 0.669876 0.541957 0.414191
O O15 0.089004 0.250000 0.184520
O O16 0.000000 0.442892 0.186335
O O17 0.311450 0.500000 0.500000
O O18 0.285348 0.250000 0.533227
O O19 0.500000 0.509566 0.113426
O O20 0.434899 0.750000 0.122704
#
# Coordination Sequence:
#
# PCOD8298275 Si02
#       7
#    16   8  16  16  16  16  16
#     4   8  14  26  45  67  91 122 158 192 229 277
#     4  12  24  36  48  68  96 124 154 194 247 294
#     4   9  17  31  49  70  98 127 159 197 233 276
#     4  11  21  33  49  68  91 122 160 199 239 285
#     4  10  19  30  45  68  96 122 151 192 243 290
#     4   9  19  33  49  68  89 121 162 199 234 276
#     4   8  14  26  47  74 100 127 158 192 234 279
#
# _framework density 17.295266999999999
#
# number of rings (size 3 to 8) (size 9 to 14) (size 15 to 20)
#    0.000    2.615    0.769    3.000    0.000    3.385 
#    0.000    0.769    0.000    1.846    0.000    6.462 
#    0.000    0.000    0.000    0.000    0.000    0.000 
#
# Total GULP energy -644679.682292 kJ/mol
# GULP energy per Si atom -12397.686198 kJ/mol
# Density = 1.725590 g / cm^3
# Si number density = 17.295267 Si / 1000 Ang^3
#
#
#
# Elastic Constant Matrix: (Units=GPa)
#
#
# Indices 1 2 3 4 5 6 
#
# 1 67.2492 28.9808 61.2510 0.0000 0.0000 0.0000
# 2 28.9808 64.4633 46.5640 0.0000 0.0000 0.0000
# 3 61.2510 46.5640 158.2317 0.0000 0.0000 0.0000
# 4 0.0000 0.0000 0.0000 28.1494 0.0000 0.0000
# 5 0.0000 0.0000 0.0000 0.0000 20.4238 0.0000
# 6 0.0000 0.0000 0.0000 0.0000 0.0000 12.2029
#
#
#
# Elastic Compliance Matrix: (Units=1/GPa)
#
#
# Indices 1 2 3 4 5 6 
#
# 1 0.024287 -0.005242 -0.007859 0.000000 0.000000 0.000000
# 2 -0.005242 0.020832 -0.004101 0.000000 0.000000 0.000000
# 3 -0.007859 -0.004101 0.010569 0.000000 0.000000 0.000000
# 4 0.000000 0.000000 0.000000 0.035525 0.000000 0.000000
# 5 0.000000 0.000000 0.000000 0.000000 0.048963 0.000000
# 6 0.000000 0.000000 0.000000 0.000000 0.000000 0.081947
#
#
# Mechanical properties :
#
#
# Convention : Reuss Voigt Hill
#
# Bulk Modulus (GPa) = 46.98451 62.61509 54.79980
# Shear Modulus (GPa) = 18.96663 22.36510 20.66586
#
# Velocity S-wave (km/s) = 3.31514 3.59992 3.46046
# Velocity P-wave (km/s) = 6.47137 7.31857 6.90797
#
# Compressibility (1/GPa) = 0.02128361
#
# Stress axis : x y z
#
# Youngs Moduli (GPa) = 41.17433 48.00359 94.61780
#
# Poissons Ratio (x) = 0.25164 0.74358
# Poissons Ratio (y) = 0.21584 0.38804
# Poissons Ratio (z) = 0.32358 0.19687
#
# Static dielectric constant tensor:
#      x y z
#    x 3.042800 0.000000 0.000000 
#    y 0.000000 3.128450 0.000000 
#    z 0.000000 0.000000 3.551400 
# 
# 
# High freq. dielectric constant tensor:
#      x y z
#    x 1.634760 0.000000 0.000000 
#    y 0.000000 1.655870 0.000000 
#    z 0.000000 0.000000 1.678090 
# 
# From -- ./inp_files/73356.got.cif
#   From: 2010.03.12/outbox.cif.g09.slc.cpg/sg74_37_cif.got.tgz:73356.got - 2010.04.16 15:46:19.
