data_PCOD8298145
_publ_section_title
;
Structure prediction by ZEFSAII (Michael W. Deem and Ramdas Pophale) SiO2 
 PCOD8298145
Probable space group: I M M A
;
_chemical_formula_sum "Si O2"
_cell_formula_units_Z 88
_cell_length_a 27.088890
_cell_length_b 7.997954
_cell_length_c 30.191562
_cell_angle_alpha 90.000000
_cell_angle_beta 90.000000
_cell_angle_gamma 90.000000
_cell_volume 6541.173882
_symmetry_space_group_name_H-M "I M M A"
_symmetry_group_IT_number 74
_symmetry_cell_setting 'orthorhombic'
loop_
_space_group_symop_operation_xyz
x,y,z
-x,1/2-y,z
x,-y,-z
-x,1/2+y,-z
-x,-y,-z
x,1/2+y,-z
-x,y,z
x,1/2-y,z
1/2+x,1/2+y,1/2+z
1/2-x,-y,1/2+z
1/2+x,1/2-y,1/2-z
1/2-x,y,1/2-z
1/2-x,1/2-y,1/2-z
1/2+x,y,1/2-z
1/2-x,1/2+y,1/2+z
1/2+x,-y,1/2+z
loop_
_atom_site_type_symbol
_atom_site_label
_atom_site_fract_x
_atom_site_fract_y
_atom_site_fract_z
Si Si1 0.145775 0.432346 0.819274
Si Si2 0.901147 0.560976 0.903412
Si Si3 0.827853 0.750000 0.771506
Si Si4 0.250156 0.563967 0.367128
Si Si5 0.308124 0.443426 0.548011
Si Si6 0.277712 0.750000 0.818607
Si Si7 0.000000 0.553691 0.050498
O O1 0.135975 0.250000 0.796810
O O2 0.107333 0.450156 0.859679
O O3 0.141029 0.583007 0.783880
O O4 0.200284 0.434613 0.838881
O O5 0.901208 0.750000 0.886692
O O6 0.857792 0.541168 0.939396
O O7 0.952445 0.518363 0.925661
O O8 0.776473 0.750000 0.797582
O O9 0.819458 0.750000 0.718961
O O10 0.225360 0.750000 0.364093
O O11 0.263700 0.518607 0.417821
O O12 0.214719 0.418066 0.348112
O O13 0.289372 0.500000 0.500000
O O14 0.322091 0.250000 0.548975
O O15 0.000000 0.750000 0.054337
O O16 0.000000 0.500000 0.000000
#
# Coordination Sequence:
#
# PCOD8298145 Si02
#       7
#    16  16   8  16  16   8   8
#     4   9  16  28  42  56  73  92 114 142 175 216
#     4  11  20  32  45  56  72  93 117 152 193 228
#     4   9  16  26  38  61  70  92 116 139 166 228
#     4   8  16  26  36  52  73  94 116 142 175 214
#     4  10  19  28  40  56  70  93 125 154 185 220
#     4   9  16  24  40  52  76  94 112 136 182 209
#     4  12  24  36  44  56  74  94 122 155 195 236
#
# _framework density 13.453243000000001
#
# number of rings (size 3 to 8) (size 9 to 14) (size 15 to 20)
#    0.000    2.364    0.909    4.636    5.091    0.727 
#    0.000    3.636    0.000    0.000    0.000    0.000 
#    0.000    0.000    0.000    0.000    0.000    0.000 
#
# Total GULP energy -545406.603706 kJ/mol
# GULP energy per Si atom -12395.604630 kJ/mol
# Density = 1.342262 g / cm^3
# Si number density = 13.453243 Si / 1000 Ang^3
#
#
#
# Elastic Constant Matrix: (Units=GPa)
#
#
# Indices 1 2 3 4 5 6 
#
# 1 19.6592 19.7312 28.5795 0.0000 0.0000 0.0000
# 2 19.7312 117.9093 49.3071 0.0000 0.0000 0.0000
# 3 28.5795 49.3071 81.4501 0.0000 0.0000 0.0000
# 4 0.0000 0.0000 0.0000 20.6566 0.0000 0.0000
# 5 0.0000 0.0000 0.0000 0.0000 17.9069 0.0000
# 6 0.0000 0.0000 0.0000 0.0000 0.0000 11.8567
#
#
#
# Elastic Compliance Matrix: (Units=1/GPa)
#
#
# Indices 1 2 3 4 5 6 
#
# 1 0.104558 -0.002885 -0.034941 0.000000 0.000000 0.000000
# 2 -0.002885 0.011435 -0.005910 0.000000 0.000000 0.000000
# 3 -0.034941 -0.005910 0.028116 0.000000 0.000000 0.000000
# 4 0.000000 0.000000 0.000000 0.048411 0.000000 0.000000
# 5 0.000000 0.000000 0.000000 0.000000 0.055844 0.000000
# 6 0.000000 0.000000 0.000000 0.000000 0.000000 0.084341
#
#
# Mechanical properties :
#
#
# Convention : Reuss Voigt Hill
#
# Bulk Modulus (GPa) = 17.65663 46.02824 31.84243
# Shear Modulus (GPa) = 11.38803 18.17742 14.78272
#
# Velocity S-wave (km/s) = 2.91261 3.67979 3.31845
# Velocity P-wave (km/s) = 4.94611 7.23480 6.19702
#
# Compressibility (1/GPa) = 0.05663596
#
# Stress axis : x y z
#
# Youngs Moduli (GPa) = 9.56403 87.44730 35.56745
#
# Poissons Ratio (x) = 0.25232 1.24277
# Poissons Ratio (y) = 0.02760 0.21021
# Poissons Ratio (z) = 0.33418 0.51683
#
# Static dielectric constant tensor:
#      x y z
#    x 2.178100 0.000000 0.000000 
#    y 0.000000 3.093430 0.000000 
#    z 0.000000 0.000000 2.727700 
# 
# 
# High freq. dielectric constant tensor:
#      x y z
#    x 1.436060 0.000000 0.000000 
#    y 0.000000 1.542210 0.000000 
#    z 0.000000 0.000000 1.497560 
# 
# From -- ./inp_files/73313.got.cif
#   From: 2010.03.12/outbox.cif.g09.slc.cpg/sg74_37_cif.got.tgz:73313.got - 2010.04.16 15:46:19.
