data_PCOD8298831
_publ_section_title
;
Structure prediction by ZEFSAII (Michael W. Deem and Ramdas Pophale) SiO2 
 PCOD8298831
Probable space group: I M M A
;
_chemical_formula_sum "Si O2"
_cell_formula_units_Z 80
_cell_length_a 14.500855
_cell_length_b 9.598127
_cell_length_c 32.439099
_cell_angle_alpha 90.000000
_cell_angle_beta 90.000000
_cell_angle_gamma 90.000000
_cell_volume 4514.907792
_symmetry_space_group_name_H-M "I M M A"
_symmetry_group_IT_number 74
_symmetry_cell_setting 'orthorhombic'
loop_
_space_group_symop_operation_xyz
x,y,z
-x,1/2-y,z
x,-y,-z
-x,1/2+y,-z
-x,-y,-z
x,1/2+y,-z
-x,y,z
x,1/2-y,z
1/2+x,1/2+y,1/2+z
1/2-x,-y,1/2+z
1/2+x,1/2-y,1/2-z
1/2-x,y,1/2-z
1/2-x,1/2-y,1/2-z
1/2+x,y,1/2-z
1/2-x,1/2+y,1/2+z
1/2+x,-y,1/2+z
loop_
_atom_site_type_symbol
_atom_site_label
_atom_site_fract_x
_atom_site_fract_y
_atom_site_fract_z
Si Si1 0.106022 0.412140 0.353479
Si Si2 0.733102 0.914626 0.384143
Si Si3 0.600900 0.593865 0.312180
Si Si4 0.643825 0.593261 0.760875
Si Si5 0.394546 0.088268 0.539666
O O1 0.132246 0.250000 0.358213
O O2 0.170216 0.502652 0.383988
O O3 0.123669 0.462568 0.306691
O O4 0.000000 0.439082 0.365811
O O5 0.752076 0.750000 0.382947
O O6 0.674714 0.965440 0.344513
O O7 0.674542 0.956497 0.424131
O O8 0.500000 0.594579 0.333593
O O9 0.629602 0.750000 0.299184
O O10 0.591302 0.502593 0.271325
O O11 0.605385 0.750000 0.756899
O O12 0.750000 0.585549 0.750000
O O13 0.500000 0.055872 0.552989
O O14 0.382979 0.250000 0.528676
O O15 0.365793 0.000000 0.500000
#
# Coordination Sequence:
#
# PCOD8298831 Si02
#       5
#    16  16  16  16  16
#     4  10  21  36  52  71  99 136 177 220 262 300
#     4  10  20  34  53  76 104 134 167 208 252 300
#     4  10  20  32  48  72 101 133 168 207 252 301
#     4  10  19  33  51  69  95 133 175 217 259 301
#     4   9  18  34  56  82 111 139 164 195 243 304
#
# _framework density 17.719076999999999
#
# number of rings (size 3 to 8) (size 9 to 14) (size 15 to 20)
#    0.000    2.200    2.000    1.200    0.000    6.000 
#    0.000    0.000    0.000    4.200    0.000    0.000 
#    0.000    0.000    0.000    0.000    0.000    0.000 
#
# Total GULP energy -495987.987718 kJ/mol
# GULP energy per Si atom -12399.699693 kJ/mol
# Density = 1.767875 g / cm^3
# Si number density = 17.719077 Si / 1000 Ang^3
#
#
#
# Elastic Constant Matrix: (Units=GPa)
#
#
# Indices 1 2 3 4 5 6 
#
# 1 113.9626 46.2841 55.8362 0.0000 0.0000 0.0000
# 2 46.2841 61.4710 53.1373 0.0000 0.0000 0.0000
# 3 55.8362 53.1373 103.5047 0.0000 0.0000 0.0000
# 4 0.0000 0.0000 0.0000 30.1760 0.0000 0.0000
# 5 0.0000 0.0000 0.0000 0.0000 28.7648 0.0000
# 6 0.0000 0.0000 0.0000 0.0000 0.0000 24.0113
#
#
#
# Elastic Compliance Matrix: (Units=1/GPa)
#
#
# Indices 1 2 3 4 5 6 
#
# 1 0.013376 -0.006893 -0.003677 0.000000 0.000000 0.000000
# 2 -0.006893 0.032799 -0.013120 0.000000 0.000000 0.000000
# 3 -0.003677 -0.013120 0.018381 0.000000 0.000000 0.000000
# 4 0.000000 0.000000 0.000000 0.033139 0.000000 0.000000
# 5 0.000000 0.000000 0.000000 0.000000 0.034765 0.000000
# 6 0.000000 0.000000 0.000000 0.000000 0.000000 0.041647
#
#
# Mechanical properties :
#
#
# Convention : Reuss Voigt Hill
#
# Bulk Modulus (GPa) = 58.22158 65.49483 61.85820
# Shear Modulus (GPa) = 22.00600 24.83579 23.42090
#
# Velocity S-wave (km/s) = 3.52794 3.74791 3.63959
# Velocity P-wave (km/s) = 7.03737 7.46808 7.25592
#
# Compressibility (1/GPa) = 0.01717576
#
# Stress axis : x y z
#
# Youngs Moduli (GPa) = 74.76238 30.48880 54.40509
#
# Poissons Ratio (x) = 0.21015 0.20005
# Poissons Ratio (y) = 0.51530 0.71380
# Poissons Ratio (z) = 0.27491 0.40002
#
# Static dielectric constant tensor:
#      x y z
#    x 3.292580 0.000000 0.000000 
#    y 0.000000 3.237160 0.000000 
#    z 0.000000 0.000000 3.080350 
# 
# 
# High freq. dielectric constant tensor:
#      x y z
#    x 1.691190 0.000000 0.000000 
#    y 0.000000 1.680560 0.000000 
#    z 0.000000 0.000000 1.659830 
# 
# From -- ./inp_files/66893.got.cif
#   From: 2010.03.12/outbox.cif.g09.slc.cpg/sg74_34_cif.got.tgz:66893.got - 2010.04.16 15:46:19.
