data_PCOD8298543
_publ_section_title
;
Structure prediction by ZEFSAII (Michael W. Deem and Ramdas Pophale) SiO2 
 PCOD8298543
Probable space group: I M M A
;
_chemical_formula_sum "Si O2"
_cell_formula_units_Z 96
_cell_length_a 22.990488
_cell_length_b 22.588207
_cell_length_c 9.791308
_cell_angle_alpha 90.000000
_cell_angle_beta 90.000000
_cell_angle_gamma 90.000000
_cell_volume 5084.762363
_symmetry_space_group_name_H-M "I M M A"
_symmetry_group_IT_number 74
_symmetry_cell_setting 'orthorhombic'
loop_
_space_group_symop_operation_xyz
x,y,z
-x,1/2-y,z
x,-y,-z
-x,1/2+y,-z
-x,-y,-z
x,1/2+y,-z
-x,y,z
x,1/2-y,z
1/2+x,1/2+y,1/2+z
1/2-x,-y,1/2+z
1/2+x,1/2-y,1/2-z
1/2-x,y,1/2-z
1/2-x,1/2-y,1/2-z
1/2+x,y,1/2-z
1/2-x,1/2+y,1/2+z
1/2+x,-y,1/2+z
loop_
_atom_site_type_symbol
_atom_site_label
_atom_site_fract_x
_atom_site_fract_y
_atom_site_fract_z
Si Si1 0.433398 0.686092 0.447130
Si Si2 0.931366 0.386422 0.696219
Si Si3 0.733217 0.314763 0.405876
Si Si4 0.932699 0.009157 0.160525
Si Si5 0.377225 0.628181 0.681970
Si Si6 0.859488 0.180404 0.472370
O O1 0.500000 0.693569 0.410515
O O2 0.402992 0.750000 0.463982
O O3 0.405440 0.652997 0.318550
O O4 0.429847 0.649272 0.586454
O O5 0.918362 0.453481 0.742704
O O6 0.896359 0.365221 0.563287
O O7 0.000000 0.378040 0.668063
O O8 0.712409 0.250000 0.459048
O O9 0.750000 0.308235 0.250000
O O10 0.680934 0.362450 0.412327
O O11 0.790634 0.334430 0.491180
O O12 0.889154 0.059735 0.216587
O O13 0.000000 0.027294 0.179376
O O14 0.919671 0.000000 0.000000
O O15 0.376897 0.668202 0.816176
O O16 0.872381 0.250000 0.504663
#
# Coordination Sequence:
#
# PCOD8298543 Si02
#       6
#    16  16  16  16  16  16
#     4  10  19  31  51  80 109 140 183 236 289 339
#     4  10  21  37  56  79 116 158 190 231 292 353
#     4   8  16  33  56  80 109 148 184 223 283 345
#     4  10  20  37  59  80 108 152 198 234 279 345
#     4  11  19  33  60  82 108 144 197 242 281 335
#     4  10  21  37  58  85 118 150 186 237 297 356
#
# _framework density 18.879937999999999
#
# number of rings (size 3 to 8) (size 9 to 14) (size 15 to 20)
#    0.000    2.167    1.667    3.500    0.000    3.000 
#    0.000    2.500   11.000    3.000    0.000    0.000 
#    0.000    0.000    0.000    0.000    0.000    0.000 
#
# Total GULP energy -594724.533324 kJ/mol
# GULP energy per Si atom -12390.094444 kJ/mol
# Density = 1.883697 g / cm^3
# Si number density = 18.879938 Si / 1000 Ang^3
#
#
#
# Elastic Constant Matrix: (Units=GPa)
#
#
# Indices 1 2 3 4 5 6 
#
# 1 82.8236 62.3944 35.5308 0.0000 0.0000 0.0000
# 2 62.3944 126.6877 35.3176 0.0000 0.0000 0.0000
# 3 35.5308 35.3176 74.3154 0.0000 0.0000 0.0000
# 4 0.0000 0.0000 0.0000 33.9461 0.0000 0.0000
# 5 0.0000 0.0000 0.0000 0.0000 15.1627 0.0000
# 6 0.0000 0.0000 0.0000 0.0000 0.0000 25.5619
#
#
#
# Elastic Compliance Matrix: (Units=1/GPa)
#
#
# Indices 1 2 3 4 5 6 
#
# 1 0.021280 -0.008812 -0.005987 0.000000 0.000000 0.000000
# 2 -0.008812 0.012748 -0.001845 0.000000 0.000000 0.000000
# 3 -0.005987 -0.001845 0.017195 0.000000 0.000000 0.000000
# 4 0.000000 0.000000 0.000000 0.029458 0.000000 0.000000
# 5 0.000000 0.000000 0.000000 0.000000 0.065951 0.000000
# 6 0.000000 0.000000 0.000000 0.000000 0.000000 0.039121
#
#
# Mechanical properties :
#
#
# Convention : Reuss Voigt Hill
#
# Bulk Modulus (GPa) = 55.75331 61.14582 58.44956
# Shear Modulus (GPa) = 22.22027 24.97306 23.59667
#
# Velocity S-wave (km/s) = 3.43436 3.64088 3.53913
# Velocity P-wave (km/s) = 6.73208 7.08037 6.90842
#
# Compressibility (1/GPa) = 0.01793616
#
# Stress axis : x y z
#
# Youngs Moduli (GPa) = 46.99181 78.44577 58.15527
#
# Poissons Ratio (x) = 0.69124 0.34815
# Poissons Ratio (y) = 0.41408 0.10731
# Poissons Ratio (z) = 0.28132 0.14475
#
# Static dielectric constant tensor:
#      x y z
#    x 3.567480 0.000000 0.000000 
#    y 0.000000 3.642710 0.000000 
#    z 0.000000 0.000000 3.243290 
# 
# 
# High freq. dielectric constant tensor:
#      x y z
#    x 1.722150 0.000000 0.000000 
#    y 0.000000 1.734140 0.000000 
#    z 0.000000 0.000000 1.717300 
# 
# From -- ./inp_files/12619.got.cif
#   From: 2010.03.12/outbox.cif.g09.slc.cpg/sg74_7_cif.got.tgz:12619.got - 2010.04.16 15:46:19.
