data_PCOD8298604
_publ_section_title
;
Structure prediction by ZEFSAII (Michael W. Deem and Ramdas Pophale) SiO2 
 PCOD8298604
Probable space group: I M M A
;
_chemical_formula_sum "Si O2"
_cell_formula_units_Z 96
_cell_length_a 14.926434
_cell_length_b 26.017280
_cell_length_c 13.591115
_cell_angle_alpha 90.000000
_cell_angle_beta 90.000000
_cell_angle_gamma 90.000000
_cell_volume 5278.044447
_symmetry_space_group_name_H-M "I M M A"
_symmetry_group_IT_number 74
_symmetry_cell_setting 'orthorhombic'
loop_
_space_group_symop_operation_xyz
x,y,z
-x,1/2-y,z
x,-y,-z
-x,1/2+y,-z
-x,-y,-z
x,1/2+y,-z
-x,y,z
x,1/2-y,z
1/2+x,1/2+y,1/2+z
1/2-x,-y,1/2+z
1/2+x,1/2-y,1/2-z
1/2-x,y,1/2-z
1/2-x,1/2-y,1/2-z
1/2+x,y,1/2-z
1/2-x,1/2+y,1/2+z
1/2+x,-y,1/2+z
loop_
_atom_site_type_symbol
_atom_site_label
_atom_site_fract_x
_atom_site_fract_y
_atom_site_fract_z
Si Si1 0.833092 0.624568 0.551423
Si Si2 0.097002 0.013305 0.885937
Si Si3 0.000000 0.689407 0.795931
Si Si4 0.398207 0.459980 0.195781
Si Si5 0.194640 0.190687 0.149216
Si Si6 0.500000 0.811006 0.927582
Si Si7 0.783967 0.539219 0.411702
O O1 0.848669 0.589038 0.648409
O O2 0.742222 0.656453 0.566997
O O3 0.911411 0.664658 0.526102
O O4 0.824209 0.591985 0.452057
O O5 0.184415 0.048916 0.865177
O O6 0.000000 0.039178 0.857517
O O7 0.107377 0.961936 0.815585
O O8 0.092548 0.000000 0.000000
O O9 0.907637 0.669332 0.844109
O O10 0.000000 0.670616 0.684756
O O11 0.000000 0.750000 0.797068
O O12 0.500000 0.458458 0.156997
O O13 0.353507 0.513993 0.163620
O O14 0.194355 0.250000 0.115938
O O15 0.250000 0.185335 0.250000
O O16 0.500000 0.750000 0.942363
O O17 0.768290 0.500000 0.500000
#
# Coordination Sequence:
#
# PCOD8298604 Si02
#       7
#    16  16   8  16  16   8  16
#     4  11  21  32  50  79 104 142 183 210 255 315
#     4   9  18  35  51  69  98 138 169 217 262 298
#     4   9  18  34  48  65  97 138 177 212 260 311
#     4  10  20  34  54  73 101 141 178 214 259 309
#     4  10  19  32  49  69 100 138 176 219 264 313
#     4  11  20  34  51  75 109 140 173 224 270 309
#     4   9  20  33  48  71 103 138 171 216 253 298
#
# _framework density 18.188555000000001
#
# number of rings (size 3 to 8) (size 9 to 14) (size 15 to 20)
#    0.000    2.167    2.500    1.000    1.167    5.000 
#    1.500    0.000    0.000    0.000    0.000    0.000 
#    0.000   10.667    0.000    2.000    0.000    0.000 
#
# Total GULP energy -594642.387395 kJ/mol
# GULP energy per Si atom -12388.383071 kJ/mol
# Density = 1.814716 g / cm^3
# Si number density = 18.188555 Si / 1000 Ang^3
#
#
#
# Elastic Constant Matrix: (Units=GPa)
#
#
# Indices 1 2 3 4 5 6 
#
# 1 160.7156 47.5187 14.9109 0.0000 -0.0005 0.0000
# 2 47.5187 84.9352 22.8173 0.0001 0.0004 0.0000
# 3 14.9109 22.8173 39.8410 0.0001 -0.0019 0.0000
# 4 0.0000 0.0001 0.0001 18.9730 0.0004 0.0000
# 5 -0.0005 0.0004 -0.0019 0.0004 341.2754 0.0002
# 6 0.0000 0.0000 0.0000 0.0000 0.0002 24.0168
#
#
#
# Elastic Compliance Matrix: (Units=1/GPa)
#
#
# Indices 1 2 3 4 5 6 
#
# 1 0.007463 -0.004048 -0.000475 0.000000 0.000000 0.000000
# 2 -0.004048 0.016110 -0.007711 0.000000 0.000000 0.000000
# 3 -0.000475 -0.007711 0.029694 0.000000 0.000000 0.000000
# 4 0.000000 0.000000 0.000000 0.052706 0.000000 0.000000
# 5 0.000000 0.000000 0.000000 0.000000 0.002930 0.000000
# 6 0.000000 0.000000 0.000000 0.000000 0.000000 0.041638
#
#
# Mechanical properties :
#
#
# Convention : Reuss Voigt Hill
#
# Bulk Modulus (GPa) = 34.72381 50.66509 42.69445
# Shear Modulus (GPa) = 27.08431 90.20269 58.64350
#
# Velocity S-wave (km/s) = 3.86305 7.04988 5.68436
# Velocity P-wave (km/s) = 6.24740 9.70483 8.16130
#
# Compressibility (1/GPa) = 0.02879868
#
# Stress axis : x y z
#
# Youngs Moduli (GPa) = 133.99373 62.07363 33.67697
#
# Poissons Ratio (x) = 0.25126 0.01599
# Poissons Ratio (y) = 0.54237 0.25970
# Poissons Ratio (z) = 0.06364 0.47867
#
# Static dielectric constant tensor:
#      x y z
#    x 4.079800 0.000000 0.000000 
#    y 0.000000 3.190600 0.000000 
#    z 0.000000 0.000000 3.159440 
# 
# 
# High freq. dielectric constant tensor:
#      x y z
#    x 1.739280 0.000000 0.000000 
#    y 0.000000 1.671990 0.000000 
#    z 0.000000 0.000000 1.659190 
# 
# From -- ./inp_files/32616.got.cif
#   From: 2010.03.12/outbox.cif.g09.slc.cpg/sg74_17_cif.got.tgz:32616.got - 2010.04.16 15:46:19.
