data_PCOD8298005
_publ_section_title
;
Structure prediction by ZEFSAII (Michael W. Deem and Ramdas Pophale) SiO2 
 PCOD8298005
Probable space group: I M M A
;
_chemical_formula_sum "Si O2"
_cell_formula_units_Z 80
_cell_length_a 25.230410
_cell_length_b 16.031526
_cell_length_c 9.461134
_cell_angle_alpha 90.000000
_cell_angle_beta 90.000000
_cell_angle_gamma 90.000000
_cell_volume 3826.858156
_symmetry_space_group_name_H-M "I M M A"
_symmetry_group_IT_number 74
_symmetry_cell_setting 'orthorhombic'
loop_
_space_group_symop_operation_xyz
x,y,z
-x,1/2-y,z
x,-y,-z
-x,1/2+y,-z
-x,-y,-z
x,1/2+y,-z
-x,y,z
x,1/2-y,z
1/2+x,1/2+y,1/2+z
1/2-x,-y,1/2+z
1/2+x,1/2-y,1/2-z
1/2-x,y,1/2-z
1/2-x,1/2-y,1/2-z
1/2+x,y,1/2-z
1/2-x,1/2+y,1/2+z
1/2+x,-y,1/2+z
loop_
_atom_site_type_symbol
_atom_site_label
_atom_site_fract_x
_atom_site_fract_y
_atom_site_fract_z
Si Si1 0.441799 0.879270 0.908179
Si Si2 0.857040 0.840270 0.786182
Si Si3 0.301291 0.001782 0.168613
Si Si4 0.059601 0.653565 0.021457
Si Si5 0.413569 0.938925 0.198639
O O1 0.500000 0.844063 0.875578
O O2 0.397788 0.820301 0.840709
O O3 0.435491 0.970223 0.837931
O O4 0.432815 0.877774 0.075696
O O5 0.830495 0.750000 0.823581
O O6 0.813068 0.906183 0.734505
O O7 0.893867 0.874954 0.914274
O O8 0.250000 0.966742 0.250000
O O9 0.349641 0.940465 0.203600
O O10 0.291343 0.000000 0.000000
O O11 0.068555 0.750000 0.064039
O O12 0.063289 0.594013 0.155975
O O13 0.000000 0.642031 0.957127
#
# Coordination Sequence:
#
# PCOD8298005 Si02
#       5
#    16  16  16  16  16
#     4  10  18  32  57  85 118 158 195 236 292 353
#     4  10  22  40  60  87 124 157 195 244 291 355
#     4  11  24  43  66  88 111 148 203 257 309 359
#     4  10  21  36  57  90 130 168 200 231 283 354
#     4  10  19  37  56  86 121 153 196 253 291 344
#
# _framework density 20.904876999999999
#
# number of rings (size 3 to 8) (size 9 to 14) (size 15 to 20)
#    0.000    1.800    4.000    3.000    2.800    4.800 
#    0.000    5.000    0.000    1.200    0.000    0.000 
#    0.000    0.000    0.000    0.000    0.000    0.000 
#
# Total GULP energy -495661.742214 kJ/mol
# GULP energy per Si atom -12391.543555 kJ/mol
# Density = 2.085730 g / cm^3
# Si number density = 20.904877 Si / 1000 Ang^3
#
#
#
# Elastic Constant Matrix: (Units=GPa)
#
#
# Indices 1 2 3 4 5 6 
#
# 1 105.0950 4.2174 15.3537 0.0000 0.0000 0.0000
# 2 4.2174 49.0676 31.2067 0.0000 0.0000 0.0000
# 3 15.3537 31.2067 117.8104 0.0000 0.0000 0.0000
# 4 0.0000 0.0000 0.0000 19.1604 0.0000 0.0000
# 5 0.0000 0.0000 0.0000 0.0000 34.9660 0.0000
# 6 0.0000 0.0000 0.0000 0.0000 0.0000 23.0736
#
#
#
# Elastic Compliance Matrix: (Units=1/GPa)
#
#
# Indices 1 2 3 4 5 6 
#
# 1 0.009700 -0.000036 -0.001255 0.000000 0.000000 0.000000
# 2 -0.000036 0.024509 -0.006488 0.000000 0.000000 0.000000
# 3 -0.001255 -0.006488 0.010370 0.000000 0.000000 0.000000
# 4 0.000000 0.000000 0.000000 0.052191 0.000000 0.000000
# 5 0.000000 0.000000 0.000000 0.000000 0.028599 0.000000
# 6 0.000000 0.000000 0.000000 0.000000 0.000000 0.043340
#
#
# Mechanical properties :
#
#
# Convention : Reuss Voigt Hill
#
# Bulk Modulus (GPa) = 34.45499 41.50317 37.97908
# Shear Modulus (GPa) = 25.78123 30.18634 27.98378
#
# Velocity S-wave (km/s) = 3.51560 3.80410 3.66269
# Velocity P-wave (km/s) = 5.74428 6.26030 6.00784
#
# Compressibility (1/GPa) = 0.02902337
#
# Stress axis : x y z
#
# Youngs Moduli (GPa) = 103.09348 40.80104 96.43001
#
# Poissons Ratio (x) = 0.00146 0.12099
# Poissons Ratio (y) = 0.00368 0.62560
# Poissons Ratio (z) = 0.12935 0.26470
#
# Static dielectric constant tensor:
#      x y z
#    x 3.794410 0.000000 0.000000 
#    y 0.000000 4.056050 0.000000 
#    z 0.000000 0.000000 3.916680 
# 
# 
# High freq. dielectric constant tensor:
#      x y z
#    x 1.811060 0.000000 0.000000 
#    y 0.000000 1.800450 0.000000 
#    z 0.000000 0.000000 1.824850 
# 
# From -- ./inp_files/14926.got.cif
#   From: 2010.03.12/outbox.cif.g09.slc.cpg/sg74_8_cif.got.tgz:14926.got - 2010.04.16 15:46:19.
