data_PCOD8298048
_publ_section_title
;
Structure prediction by ZEFSAII (Michael W. Deem and Ramdas Pophale) SiO2 
 PCOD8298048
Probable space group: I M M A
;
_chemical_formula_sum "Si O2"
_cell_formula_units_Z 88
_cell_length_a 26.867357
_cell_length_b 14.744290
_cell_length_c 12.015914
_cell_angle_alpha 90.000000
_cell_angle_beta 90.000000
_cell_angle_gamma 90.000000
_cell_volume 4759.985411
_symmetry_space_group_name_H-M "I M M A"
_symmetry_group_IT_number 74
_symmetry_cell_setting 'orthorhombic'
loop_
_space_group_symop_operation_xyz
x,y,z
-x,1/2-y,z
x,-y,-z
-x,1/2+y,-z
-x,-y,-z
x,1/2+y,-z
-x,y,z
x,1/2-y,z
1/2+x,1/2+y,1/2+z
1/2-x,-y,1/2+z
1/2+x,1/2-y,1/2-z
1/2-x,y,1/2-z
1/2-x,1/2-y,1/2-z
1/2+x,y,1/2-z
1/2-x,1/2+y,1/2+z
1/2+x,-y,1/2+z
loop_
_atom_site_type_symbol
_atom_site_label
_atom_site_fract_x
_atom_site_fract_y
_atom_site_fract_z
Si Si1 0.305641 0.855230 0.847881
Si Si2 0.085567 0.644565 0.619147
Si Si3 0.199757 0.642537 0.902928
Si Si4 0.371680 0.500000 0.500000
Si Si5 0.058184 0.497182 0.788129
Si Si6 0.943519 0.650977 0.379931
O O1 0.296553 0.750000 0.829056
O O2 0.356832 0.878564 0.909421
O O3 0.257943 0.887171 0.920977
O O4 0.310861 0.893161 0.722311
O O5 0.078266 0.750000 0.647991
O O6 0.064103 0.593238 0.726166
O O7 0.057332 0.615649 0.507075
O O8 0.190087 0.750000 0.921774
O O9 0.163540 0.588333 0.986611
O O10 0.408107 0.511052 0.396034
O O11 0.080259 0.421129 0.704012
O O12 0.000000 0.483879 0.819304
O O13 0.916671 0.750000 0.371035
O O14 0.000000 0.661889 0.343206
#
# Coordination Sequence:
#
# PCOD8298048 Si02
#       6
#    16  16  16   8  16  16
#     4   8  15  32  57  79 102 131 170 225 277 317
#     4  10  18  33  59  86 108 135 179 234 286 328
#     4   9  18  35  55  77 106 141 183 225 267 321
#     4  12  23  36  54  80 110 154 189 222 268 328
#     4  11  23  37  52  76 112 150 188 227 271 326
#     4   9  19  36  56  77 104 141 182 226 279 330
#
# _framework density 18.487452999999999
#
# number of rings (size 3 to 8) (size 9 to 14) (size 15 to 20)
#    0.000    2.364    1.818    2.455    0.000    3.273 
#    3.273    0.000    0.000    3.273    0.000    7.636 
#    0.000    0.000    0.000    0.000    0.000    0.000 
#
# Total GULP energy -545158.382276 kJ/mol
# GULP energy per Si atom -12389.963234 kJ/mol
# Density = 1.844537 g / cm^3
# Si number density = 18.487453 Si / 1000 Ang^3
#
#
#
# Elastic Constant Matrix: (Units=GPa)
#
#
# Indices 1 2 3 4 5 6 
#
# 1 93.1563 40.7943 40.5643 0.0000 0.0000 0.0000
# 2 40.7943 84.8435 54.0960 0.0000 0.0000 0.0000
# 3 40.5643 54.0960 103.9430 0.0000 0.0000 0.0000
# 4 0.0000 0.0000 0.0000 25.8430 0.0000 0.0000
# 5 0.0000 0.0000 0.0000 0.0000 24.8064 0.0000
# 6 0.0000 0.0000 0.0000 0.0000 0.0000 23.3248
#
#
#
# Elastic Compliance Matrix: (Units=1/GPa)
#
#
# Indices 1 2 3 4 5 6 
#
# 1 0.014186 -0.004925 -0.002973 0.000000 0.000000 0.000000
# 2 -0.004925 0.019350 -0.008148 0.000000 0.000000 0.000000
# 3 -0.002973 -0.008148 0.015022 0.000000 0.000000 0.000000
# 4 0.000000 0.000000 0.000000 0.038695 0.000000 0.000000
# 5 0.000000 0.000000 0.000000 0.000000 0.040312 0.000000
# 6 0.000000 0.000000 0.000000 0.000000 0.000000 0.042873
#
#
# Mechanical properties :
#
#
# Convention : Reuss Voigt Hill
#
# Bulk Modulus (GPa) = 60.73694 61.42799 61.08247
# Shear Modulus (GPa) = 24.03625 24.56070 24.29848
#
# Velocity S-wave (km/s) = 3.60965 3.64882 3.62929
# Velocity P-wave (km/s) = 7.09205 7.14499 7.11857
#
# Compressibility (1/GPa) = 0.01646444
#
# Stress axis : x y z
#
# Youngs Moduli (GPa) = 70.49182 51.67951 66.57117
#
# Poissons Ratio (x) = 0.25455 0.19790
# Poissons Ratio (y) = 0.34721 0.54244
# Poissons Ratio (z) = 0.20956 0.42110
#
# Static dielectric constant tensor:
#      x y z
#    x 3.608870 0.000000 0.000000 
#    y 0.000000 3.433540 0.000000 
#    z 0.000000 0.000000 3.160590 
# 
# 
# High freq. dielectric constant tensor:
#      x y z
#    x 1.724260 0.000000 0.000000 
#    y 0.000000 1.705210 0.000000 
#    z 0.000000 0.000000 1.692790 
# 
# From -- ./inp_files/26151.got.cif
#   From: 2010.03.12/outbox.cif.g09.slc.cpg/sg74_14_cif.got.tgz:26151.got - 2010.04.16 15:46:19.
