data_PCOD8298867
_publ_section_title
;
Structure prediction by ZEFSAII (Michael W. Deem and Ramdas Pophale) SiO2 
 PCOD8298867
Probable space group: I M M A
;
_chemical_formula_sum "Si O2"
_cell_formula_units_Z 80
_cell_length_a 14.604651
_cell_length_b 9.005245
_cell_length_c 32.564371
_cell_angle_alpha 90.000000
_cell_angle_beta 90.000000
_cell_angle_gamma 90.000000
_cell_volume 4282.815938
_symmetry_space_group_name_H-M "I M M A"
_symmetry_group_IT_number 74
_symmetry_cell_setting 'orthorhombic'
loop_
_space_group_symop_operation_xyz
x,y,z
-x,1/2-y,z
x,-y,-z
-x,1/2+y,-z
-x,-y,-z
x,1/2+y,-z
-x,y,z
x,1/2-y,z
1/2+x,1/2+y,1/2+z
1/2-x,-y,1/2+z
1/2+x,1/2-y,1/2-z
1/2-x,y,1/2-z
1/2-x,1/2-y,1/2-z
1/2+x,y,1/2-z
1/2-x,1/2+y,1/2+z
1/2+x,-y,1/2+z
loop_
_atom_site_type_symbol
_atom_site_label
_atom_site_fract_x
_atom_site_fract_y
_atom_site_fract_z
Si Si1 0.354145 0.919785 0.261892
Si Si2 0.604350 0.424104 0.956418
Si Si3 0.605086 0.923951 0.352788
Si Si4 0.773660 0.072521 0.387970
Si Si5 0.099947 0.584122 0.684210
O O1 0.384197 0.750000 0.261982
O O2 0.250000 0.945211 0.250000
O O3 0.377015 0.985901 0.306708
O O4 0.411858 0.998101 0.226730
O O5 0.500000 0.450119 0.940946
O O6 0.626055 0.250000 0.959884
O O7 0.677085 0.500240 0.926631
O O8 0.618726 0.500000 0.000000
O O9 0.500000 0.953473 0.365349
O O10 0.629654 0.750000 0.355333
O O11 0.669513 0.013858 0.384414
O O12 0.776139 0.250000 0.392265
O O13 0.827255 0.014417 0.347395
O O14 0.131813 0.750000 0.694864
O O15 0.000000 0.582391 0.662779
#
# Coordination Sequence:
#
# PCOD8298867 Si02
#       5
#    16  16  16  16  16
#     4  10  19  33  53  74 101 139 186 237 283 329
#     4  10  21  38  62  91 121 151 181 215 263 326
#     4  10  21  37  55  76 106 146 193 242 288 333
#     4  11  22  36  56  81 113 147 184 229 275 329
#     4  10  21  34  49  73 106 143 181 224 275 328
#
# _framework density 18.679297999999999
#
# number of rings (size 3 to 8) (size 9 to 14) (size 15 to 20)
#    0.000    1.800    2.000    2.400    0.000    5.600 
#    0.000    0.000    0.000    0.600    0.000    0.000 
#    0.000    0.000    0.000    0.000    0.000    0.000 
#
# Total GULP energy -495964.840151 kJ/mol
# GULP energy per Si atom -12399.121004 kJ/mol
# Density = 1.863678 g / cm^3
# Si number density = 18.679298 Si / 1000 Ang^3
#
#
#
# Elastic Constant Matrix: (Units=GPa)
#
#
# Indices 1 2 3 4 5 6 
#
# 1 113.5140 57.5178 61.1052 0.0000 0.0000 0.0000
# 2 57.5178 80.8847 48.5873 0.0000 0.0000 0.0000
# 3 61.1052 48.5873 95.2543 0.0000 0.0000 0.0000
# 4 0.0000 0.0000 0.0000 30.4300 0.0000 0.0000
# 5 0.0000 0.0000 0.0000 0.0000 37.0676 0.0000
# 6 0.0000 0.0000 0.0000 0.0000 0.0000 28.5788
#
#
#
# Elastic Compliance Matrix: (Units=1/GPa)
#
#
# Indices 1 2 3 4 5 6 
#
# 1 0.016145 -0.007583 -0.006489 0.000000 0.000000 0.000000
# 2 -0.007583 0.021386 -0.006044 0.000000 0.000000 0.000000
# 3 -0.006489 -0.006044 0.017744 0.000000 0.000000 0.000000
# 4 0.000000 0.000000 0.000000 0.032862 0.000000 0.000000
# 5 0.000000 0.000000 0.000000 0.000000 0.026978 0.000000
# 6 0.000000 0.000000 0.000000 0.000000 0.000000 0.034991
#
#
# Mechanical properties :
#
#
# Convention : Reuss Voigt Hill
#
# Bulk Modulus (GPa) = 66.47718 69.34152 67.90935
# Shear Modulus (GPa) = 25.59476 27.37814 26.48645
#
# Velocity S-wave (km/s) = 3.70567 3.83259 3.76966
# Velocity P-wave (km/s) = 7.34678 7.53576 7.44187
#
# Compressibility (1/GPa) = 0.01504276
#
# Stress axis : x y z
#
# Youngs Moduli (GPa) = 61.93981 46.75891 56.35713
#
# Poissons Ratio (x) = 0.35456 0.36570
# Poissons Ratio (y) = 0.46967 0.34065
# Poissons Ratio (z) = 0.40192 0.28263
#
# Static dielectric constant tensor:
#      x y z
#    x 3.450560 0.000000 0.000000 
#    y 0.000000 3.382270 0.000000 
#    z 0.000000 0.000000 3.270300 
# 
# 
# High freq. dielectric constant tensor:
#      x y z
#    x 1.731390 0.000000 0.000000 
#    y 0.000000 1.723450 0.000000 
#    z 0.000000 0.000000 1.702720 
# 
# From -- ./inp_files/72864.got.cif
#   From: 2010.03.12/outbox.cif.g09.slc.cpg/sg74_37_cif.got.tgz:72864.got - 2010.04.16 15:46:19.
