data_PCOD8298404
_publ_section_title
;
Structure prediction by ZEFSAII (Michael W. Deem and Ramdas Pophale) SiO2 
 PCOD8298404
Probable space group: I M M A
;
_chemical_formula_sum "Si O2"
_cell_formula_units_Z 96
_cell_length_a 9.636139
_cell_length_b 18.032278
_cell_length_c 32.428805
_cell_angle_alpha 90.000000
_cell_angle_beta 90.000000
_cell_angle_gamma 90.000000
_cell_volume 5634.879009
_symmetry_space_group_name_H-M "I M M A"
_symmetry_group_IT_number 74
_symmetry_cell_setting 'orthorhombic'
loop_
_space_group_symop_operation_xyz
x,y,z
-x,1/2-y,z
x,-y,-z
-x,1/2+y,-z
-x,-y,-z
x,1/2+y,-z
-x,y,z
x,1/2-y,z
1/2+x,1/2+y,1/2+z
1/2-x,-y,1/2+z
1/2+x,1/2-y,1/2-z
1/2-x,y,1/2-z
1/2-x,1/2-y,1/2-z
1/2+x,y,1/2-z
1/2-x,1/2+y,1/2+z
1/2+x,-y,1/2+z
loop_
_atom_site_type_symbol
_atom_site_label
_atom_site_fract_x
_atom_site_fract_y
_atom_site_fract_z
Si Si1 0.164864 0.331794 0.666440
Si Si2 0.838884 0.403135 0.583135
Si Si3 0.661257 0.414164 0.505694
Si Si4 0.838345 0.663958 0.921490
Si Si5 0.341703 0.555850 0.873082
Si Si6 0.662022 0.524034 0.211210
O O1 0.219688 0.250000 0.679174
O O2 0.214251 0.350536 0.620153
O O3 0.217512 0.393694 0.698643
O O4 0.000000 0.335671 0.666175
O O5 0.749387 0.381791 0.543429
O O6 0.812589 0.488002 0.596064
O O7 0.000000 0.389465 0.573014
O O8 0.697210 0.500000 0.500000
O O9 0.500000 0.401965 0.515697
O O10 0.707466 0.369462 0.465296
O O11 0.799994 0.750000 0.920832
O O12 0.756522 0.624128 0.884637
O O13 0.000000 0.649745 0.913766
O O14 0.500000 0.582133 0.877219
O O15 0.310085 0.532030 0.826267
O O16 0.500000 0.525746 0.222799
O O17 0.750000 0.495785 0.250000
#
# Coordination Sequence:
#
# PCOD8298404 Si02
#       6
#    16  16  16  16  16  16
#     4   8  15  29  47  68  99 135 165 197 240 282
#     4   9  17  29  48  71  93 126 171 208 234 271
#     4  10  19  31  47  68  96 131 164 196 241 289
#     4  10  21  35  50  71  98 127 161 200 243 289
#     4   9  18  33  51  71  97 126 159 199 240 282
#     4   9  18  32  51  76 100 125 159 198 239 286
#
# _framework density 17.036745
#
# number of rings (size 3 to 8) (size 9 to 14) (size 15 to 20)
#    0.000    2.833    1.667    2.000    0.000    3.000 
#    0.000    2.500    0.000    1.500    0.000    0.000 
#    0.000    0.000    0.000    0.000    0.000    0.000 
#
# Total GULP energy -595143.687625 kJ/mol
# GULP energy per Si atom -12398.826826 kJ/mol
# Density = 1.699797 g / cm^3
# Si number density = 17.036745 Si / 1000 Ang^3
#
#
#
# Elastic Constant Matrix: (Units=GPa)
#
#
# Indices 1 2 3 4 5 6 
#
# 1 54.6699 38.2359 55.3018 0.0000 0.0000 0.0000
# 2 38.2359 92.2387 46.4273 0.0000 0.0000 0.0000
# 3 55.3018 46.4273 111.9119 0.0000 0.0000 0.0000
# 4 0.0000 0.0000 0.0000 18.0642 0.0000 0.0000
# 5 0.0000 0.0000 0.0000 0.0000 34.5613 0.0000
# 6 0.0000 0.0000 0.0000 0.0000 0.0000 20.4107
#
#
#
# Elastic Compliance Matrix: (Units=1/GPa)
#
#
# Indices 1 2 3 4 5 6 
#
# 1 0.041430 -0.008682 -0.016871 0.000000 0.000000 0.000000
# 2 -0.008682 0.015522 -0.002149 0.000000 0.000000 0.000000
# 3 -0.016871 -0.002149 0.018164 0.000000 0.000000 0.000000
# 4 0.000000 0.000000 0.000000 0.055358 0.000000 0.000000
# 5 0.000000 0.000000 0.000000 0.000000 0.028934 0.000000
# 6 0.000000 0.000000 0.000000 0.000000 0.000000 0.048994
#
#
# Mechanical properties :
#
#
# Convention : Reuss Voigt Hill
#
# Bulk Modulus (GPa) = 50.73153 59.86116 55.29635
# Shear Modulus (GPa) = 18.49270 22.53095 20.51183
#
# Velocity S-wave (km/s) = 3.29821 3.64055 3.47360
# Velocity P-wave (km/s) = 6.65932 7.27216 6.97248
#
# Compressibility (1/GPa) = 0.01971161
#
# Stress axis : x y z
#
# Youngs Moduli (GPa) = 24.13721 64.42372 55.05395
#
# Poissons Ratio (x) = 0.55934 0.92881
# Poissons Ratio (y) = 0.20956 0.11832
# Poissons Ratio (z) = 0.40722 0.13845
#
# Static dielectric constant tensor:
#      x y z
#    x 2.950690 0.000000 0.000000 
#    y 0.000000 3.145570 0.000000 
#    z 0.000000 0.000000 3.073680 
# 
# 
# High freq. dielectric constant tensor:
#      x y z
#    x 1.639000 0.000000 0.000000 
#    y 0.000000 1.644860 0.000000 
#    z 0.000000 0.000000 1.653140 
# 
# From -- ./inp_files/66110.got.cif
#   From: 2010.03.12/outbox.cif.g09.slc.cpg/sg74_34_cif.got.tgz:66110.got - 2010.04.16 15:46:19.
