data_PCOD8298198
_publ_section_title
;
Structure prediction by ZEFSAII (Michael W. Deem and Ramdas Pophale) SiO2 
 PCOD8298198
Probable space group: I M M A
;
_chemical_formula_sum "Si O2"
_cell_formula_units_Z 104
_cell_length_a 22.481120
_cell_length_b 9.378856
_cell_length_c 29.723992
_cell_angle_alpha 90.000000
_cell_angle_beta 90.000000
_cell_angle_gamma 90.000000
_cell_volume 6267.220106
_symmetry_space_group_name_H-M "I M M A"
_symmetry_group_IT_number 74
_symmetry_cell_setting 'orthorhombic'
loop_
_space_group_symop_operation_xyz
x,y,z
-x,1/2-y,z
x,-y,-z
-x,1/2+y,-z
-x,-y,-z
x,1/2+y,-z
-x,y,z
x,1/2-y,z
1/2+x,1/2+y,1/2+z
1/2-x,-y,1/2+z
1/2+x,1/2-y,1/2-z
1/2-x,y,1/2-z
1/2-x,1/2-y,1/2-z
1/2+x,y,1/2-z
1/2-x,1/2+y,1/2+z
1/2+x,-y,1/2+z
loop_
_atom_site_type_symbol
_atom_site_label
_atom_site_fract_x
_atom_site_fract_y
_atom_site_fract_z
Si Si1 0.890662 0.915679 0.608621
Si Si2 0.849262 0.417583 0.044482
Si Si3 0.430150 0.083902 0.807040
Si Si4 0.066327 0.919600 0.876606
Si Si5 0.286614 0.085876 0.043325
Si Si6 0.000000 0.916110 0.546050
Si Si7 0.429377 0.908610 0.722122
O O1 0.897037 0.750000 0.622050
O O2 0.827365 0.950409 0.586045
O O3 0.942199 0.960430 0.574206
O O4 0.894178 0.010111 0.653048
O O5 0.858971 0.250000 0.036611
O O6 0.888820 0.477163 0.085526
O O7 0.780926 0.453667 0.056118
O O8 0.870022 0.500000 0.000000
O O9 0.500000 0.054594 0.813840
O O10 0.415215 0.250000 0.806398
O O11 0.406729 0.016715 0.760310
O O12 0.064021 0.750000 0.877350
O O13 0.090105 0.966850 0.827182
O O14 0.000000 0.980741 0.885995
O O15 0.293035 0.250000 0.029929
O O16 0.308982 0.000000 0.000000
O O17 0.000000 0.750000 0.534370
O O18 0.000000 0.000000 0.500000
O O19 0.500000 0.899280 0.722408
O O20 0.403155 0.750000 0.731317
#
# Coordination Sequence:
#
# PCOD8298198 Si02
#       7
#    16  16  16  16  16   8  16
#     4  10  19  31  45  62  85 116 152 186 223 268
#     4   9  17  30  47  68  94 121 151 185 218 258
#     4  10  19  29  43  66  92 115 142 182 230 272
#     4   8  14  26  46  71  95 120 150 181 217 261
#     4   9  18  31  47  65  86 116 153 189 222 260
#     4  10  20  30  42  60  84 112 142 182 227 268
#     4   8  14  26  45  65  86 116 149 180 216 262
#
# _framework density 16.594280000000001
#
# number of rings (size 3 to 8) (size 9 to 14) (size 15 to 20)
#    0.000    2.923    0.769    1.846    0.000    2.154 
#    0.000    0.769    0.000    1.846    0.000    6.462 
#    0.000    0.000    0.000    0.000    0.000    0.000 
#
# Total GULP energy -644710.246103 kJ/mol
# GULP energy per Si atom -12398.273964 kJ/mol
# Density = 1.655651 g / cm^3
# Si number density = 16.594280 Si / 1000 Ang^3
#
#
#
# Elastic Constant Matrix: (Units=GPa)
#
#
# Indices 1 2 3 4 5 6 
#
# 1 64.6728 32.2842 64.2762 0.0000 0.0000 0.0000
# 2 32.2842 62.7200 68.0076 0.0000 0.0000 0.0000
# 3 64.2762 68.0076 169.0898 0.0000 0.0000 0.0000
# 4 0.0000 0.0000 0.0000 28.9568 0.0000 0.0000
# 5 0.0000 0.0000 0.0000 0.0000 21.8472 0.0000
# 6 0.0000 0.0000 0.0000 0.0000 0.0000 12.5105
#
#
#
# Elastic Compliance Matrix: (Units=1/GPa)
#
#
# Indices 1 2 3 4 5 6 
#
# 1 0.025595 -0.004655 -0.007857 0.000000 0.000000 0.000000
# 2 -0.004655 0.029121 -0.009943 0.000000 0.000000 0.000000
# 3 -0.007857 -0.009943 0.012900 0.000000 0.000000 0.000000
# 4 0.000000 0.000000 0.000000 0.034534 0.000000 0.000000
# 5 0.000000 0.000000 0.000000 0.000000 0.045772 0.000000
# 6 0.000000 0.000000 0.000000 0.000000 0.000000 0.079933
#
#
# Mechanical properties :
#
#
# Convention : Reuss Voigt Hill
#
# Bulk Modulus (GPa) = 44.04188 69.51319 56.77754
# Shear Modulus (GPa) = 17.83580 21.45722 19.64651
#
# Velocity S-wave (km/s) = 3.28200 3.59980 3.44456
# Velocity P-wave (km/s) = 6.40000 7.69798 7.07880
#
# Compressibility (1/GPa) = 0.02270566
#
# Stress axis : x y z
#
# Youngs Moduli (GPa) = 39.06958 34.33928 77.52041
#
# Poissons Ratio (x) = 0.15985 0.60910
# Poissons Ratio (y) = 0.18188 0.77078
# Poissons Ratio (z) = 0.30698 0.34143
#
# Static dielectric constant tensor:
#      x y z
#    x 3.040310 0.000000 0.000000 
#    y 0.000000 2.991530 0.000000 
#    z 0.000000 0.000000 3.334150 
# 
# 
# High freq. dielectric constant tensor:
#      x y z
#    x 1.611030 0.000000 0.000000 
#    y 0.000000 1.622730 0.000000 
#    z 0.000000 0.000000 1.645940 
# 
# From -- ./inp_files/70974.got.cif
#   From: 2010.03.12/outbox.cif.g09.slc.cpg/sg74_36_cif.got.tgz:70974.got - 2010.04.16 15:46:19.
