data_PCOD8298460
_publ_section_title
;
Structure prediction by ZEFSAII (Michael W. Deem and Ramdas Pophale) SiO2 
 PCOD8298460
Probable space group: I M M A
;
_chemical_formula_sum "Si O2"
_cell_formula_units_Z 80
_cell_length_a 16.972867
_cell_length_b 9.746593
_cell_length_c 27.699443
_cell_angle_alpha 90.000000
_cell_angle_beta 90.000000
_cell_angle_gamma 90.000000
_cell_volume 4582.253116
_symmetry_space_group_name_H-M "I M M A"
_symmetry_group_IT_number 74
_symmetry_cell_setting 'orthorhombic'
loop_
_space_group_symop_operation_xyz
x,y,z
-x,1/2-y,z
x,-y,-z
-x,1/2+y,-z
-x,-y,-z
x,1/2+y,-z
-x,y,z
x,1/2-y,z
1/2+x,1/2+y,1/2+z
1/2-x,-y,1/2+z
1/2+x,1/2-y,1/2-z
1/2-x,y,1/2-z
1/2-x,1/2-y,1/2-z
1/2+x,y,1/2-z
1/2-x,1/2+y,1/2+z
1/2+x,-y,1/2+z
loop_
_atom_site_type_symbol
_atom_site_label
_atom_site_fract_x
_atom_site_fract_y
_atom_site_fract_z
Si Si1 0.411616 0.250000 0.939806
Si Si2 0.769904 0.911151 0.855221
Si Si3 0.410239 0.407016 0.285906
Si Si4 0.085334 0.250000 0.446950
Si Si5 0.692875 0.002891 0.056369
Si Si6 0.676441 0.594088 0.215105
O O1 0.500000 0.250000 0.915427
O O2 0.356166 0.374465 0.924925
O O3 0.426176 0.250000 0.996198
O O4 0.749330 0.750000 0.851803
O O5 0.855135 0.940585 0.831989
O O6 0.770367 0.966428 0.910904
O O7 0.701292 0.000465 0.830013
O O8 0.500000 0.426460 0.302930
O O9 0.394684 0.250000 0.268417
O O10 0.393349 0.513111 0.242581
O O11 0.131943 0.380497 0.430067
O O12 0.000000 0.250000 0.421723
O O13 0.718205 0.000000 0.000000
O O14 0.649833 0.750000 0.200134
O O15 0.750000 0.605829 0.250000
#
# Coordination Sequence:
#
# PCOD8298460 Si02
#       6
#     8  16  16   8  16  16
#     4   9  18  30  46  66  92 127 167 209 246 286
#     4  10  19  33  53  76 102 134 172 210 250 298
#     4   9  18  34  56  78 100 130 169 211 254 301
#     4   9  16  30  48  66  90 125 167 205 246 292
#     4  10  19  31  49  73 101 135 172 208 248 296
#     4   9  18  32  52  76 100 127 158 200 254 305
#
# _framework density 17.458660999999999
#
# number of rings (size 3 to 8) (size 9 to 14) (size 15 to 20)
#    0.000    2.600    1.000    1.200    1.400    5.200 
#    0.000    2.000    0.000    0.600    0.000    0.000 
#    0.000    0.000    0.000    0.000    0.000    0.000 
#
# Total GULP energy -495547.643146 kJ/mol
# GULP energy per Si atom -12388.691079 kJ/mol
# Density = 1.741892 g / cm^3
# Si number density = 17.458661 Si / 1000 Ang^3
#
#
#
# Elastic Constant Matrix: (Units=GPa)
#
#
# Indices 1 2 3 4 5 6 
#
# 1 91.0577 46.2390 46.4510 0.0000 0.0000 0.0000
# 2 46.2390 136.8399 43.7156 0.0000 0.0000 0.0000
# 3 46.4510 43.7156 83.8356 0.0000 0.0000 0.0000
# 4 0.0000 0.0000 0.0000 15.1525 0.0000 0.0000
# 5 0.0000 0.0000 0.0000 0.0000 21.8373 0.0000
# 6 0.0000 0.0000 0.0000 0.0000 0.0000 25.1634
#
#
#
# Elastic Compliance Matrix: (Units=1/GPa)
#
#
# Indices 1 2 3 4 5 6 
#
# 1 0.016375 -0.003161 -0.007424 0.000000 0.000000 0.000000
# 2 -0.003161 0.009379 -0.003139 0.000000 0.000000 0.000000
# 3 -0.007424 -0.003139 0.017679 0.000000 0.000000 0.000000
# 4 0.000000 0.000000 0.000000 0.065996 0.000000 0.000000
# 5 0.000000 0.000000 0.000000 0.000000 0.045793 0.000000
# 6 0.000000 0.000000 0.000000 0.000000 0.000000 0.039740
#
#
# Mechanical properties :
#
#
# Convention : Reuss Voigt Hill
#
# Bulk Modulus (GPa) = 62.56691 64.94937 63.75814
# Shear Modulus (GPa) = 21.95505 24.11914 23.03709
#
# Velocity S-wave (km/s) = 3.55003 3.72089 3.63646
# Velocity P-wave (km/s) = 7.26076 7.46609 7.36414
#
# Compressibility (1/GPa) = 0.01598289
#
# Stress axis : x y z
#
# Youngs Moduli (GPa) = 61.06984 106.62325 56.56582
#
# Poissons Ratio (x) = 0.33707 0.41996
# Poissons Ratio (y) = 0.19306 0.17756
# Poissons Ratio (z) = 0.45340 0.33469
#
# Static dielectric constant tensor:
#      x y z
#    x 3.097760 0.000000 0.000000 
#    y 0.000000 3.213770 0.000000 
#    z 0.000000 0.000000 3.135350 
# 
# 
# High freq. dielectric constant tensor:
#      x y z
#    x 1.645820 0.000000 0.000000 
#    y 0.000000 1.694910 0.000000 
#    z 0.000000 0.000000 1.656280 
# 
# From -- ./inp_files/67555.got.cif
#   From: 2010.03.12/outbox.cif.g09.slc.cpg/sg74_34_cif.got.tgz:67555.got - 2010.04.16 15:46:19.
