data_PCOD8298790
_publ_section_title
;
Structure prediction by ZEFSAII (Michael W. Deem and Ramdas Pophale) SiO2 
 PCOD8298790
Probable space group: I M M A
;
_chemical_formula_sum "Si O2"
_cell_formula_units_Z 112
_cell_length_a 25.335737
_cell_length_b 14.477262
_cell_length_c 13.792243
_cell_angle_alpha 90.000000
_cell_angle_beta 90.000000
_cell_angle_gamma 90.000000
_cell_volume 5058.885808
_symmetry_space_group_name_H-M "I M M A"
_symmetry_group_IT_number 74
_symmetry_cell_setting 'orthorhombic'
loop_
_space_group_symop_operation_xyz
x,y,z
-x,1/2-y,z
x,-y,-z
-x,1/2+y,-z
-x,-y,-z
x,1/2+y,-z
-x,y,z
x,1/2-y,z
1/2+x,1/2+y,1/2+z
1/2-x,-y,1/2+z
1/2+x,1/2-y,1/2-z
1/2-x,y,1/2-z
1/2-x,1/2-y,1/2-z
1/2+x,y,1/2-z
1/2-x,1/2+y,1/2+z
1/2+x,-y,1/2+z
loop_
_atom_site_type_symbol
_atom_site_label
_atom_site_fract_x
_atom_site_fract_y
_atom_site_fract_z
Si Si1 0.855748 0.097961 0.042911
Si Si2 0.696001 0.641222 0.208442
Si Si3 0.251386 0.144869 0.143515
Si Si4 0.941418 0.457551 0.193409
Si Si5 0.101422 0.351859 0.845348
Si Si6 0.940297 0.143064 0.391310
Si Si7 0.662636 0.141106 0.998774
O O1 0.804246 0.144046 0.088066
O O2 0.899824 0.091658 0.124984
O O3 0.881614 0.157727 0.957367
O O4 0.838977 0.000000 0.000000
O O5 0.703523 0.750000 0.196237
O O6 0.750000 0.596748 0.250000
O O7 0.652532 0.616024 0.286801
O O8 0.678405 0.597619 0.105253
O O9 0.268443 0.250000 0.160291
O O10 0.250000 0.096010 0.250000
O O11 0.297426 0.098184 0.078737
O O12 0.941180 0.569010 0.178161
O O13 0.929132 0.425833 0.302484
O O14 0.000000 0.423938 0.164515
O O15 0.080676 0.250000 0.812450
O O16 0.932355 0.250000 0.358291
O O17 0.898189 0.116748 0.475042
O O18 0.000000 0.128813 0.431578
O O19 0.670326 0.250000 0.992622
#
# Coordination Sequence:
#
# PCOD8298790 Si02
#       7
#    16  16  16  16  16  16  16
#     4  10  21  36  54  78 111 148 185 230 281 338
#     4   9  17  32  55  82 114 153 196 237 279 335
#     4  10  19  32  54  83 114 144 177 225 283 341
#     4  10  22  40  59  82 113 145 186 243 295 344
#     4  10  21  37  58  82 110 148 189 230 282 342
#     4   9  18  35  59  84 113 153 197 240 289 343
#     4   9  17  31  54  84 117 153 192 235 286 343
#
# _framework density 22.139261999999999
#
# number of rings (size 3 to 8) (size 9 to 14) (size 15 to 20)
#    0.000    2.429    0.000    2.143    0.000    7.429 
#    0.000   11.429    0.000    4.286    0.000    0.000 
#    0.000    0.000    0.000    0.000    0.000    0.000 
#
# Total GULP energy -694150.095716 kJ/mol
# GULP energy per Si atom -12395.537423 kJ/mol
# Density = 2.208887 g / cm^3
# Si number density = 22.139262 Si / 1000 Ang^3
#
#
#
# Elastic Constant Matrix: (Units=GPa)
#
#
# Indices 1 2 3 4 5 6 
#
# 1 147.0647 9.6462 79.1175 0.0000 0.0000 0.0000
# 2 9.6462 44.9878 11.8774 0.0000 0.0000 0.0000
# 3 79.1175 11.8774 142.2545 0.0000 0.0000 0.0000
# 4 0.0000 0.0000 0.0000 8.8067 0.0000 0.0000
# 5 0.0000 0.0000 0.0000 0.0000 33.3210 0.0000
# 6 0.0000 0.0000 0.0000 0.0000 0.0000 21.2461
#
#
#
# Elastic Compliance Matrix: (Units=1/GPa)
#
#
# Indices 1 2 3 4 5 6 
#
# 1 0.009723 -0.000672 -0.005351 0.000000 0.000000 0.000000
# 2 -0.000672 0.022776 -0.001528 0.000000 0.000000 0.000000
# 3 -0.005351 -0.001528 0.010133 0.000000 0.000000 0.000000
# 4 0.000000 0.000000 0.000000 0.113550 0.000000 0.000000
# 5 0.000000 0.000000 0.000000 0.000000 0.030011 0.000000
# 6 0.000000 0.000000 0.000000 0.000000 0.000000 0.047068
#
#
# Mechanical properties :
#
#
# Convention : Reuss Voigt Hill
#
# Bulk Modulus (GPa) = 36.32467 59.50992 47.91729
# Shear Modulus (GPa) = 19.41452 28.25248 23.83350
#
# Velocity S-wave (km/s) = 2.96451 3.57617 3.28461
# Velocity P-wave (km/s) = 5.30667 6.63250 6.00628
#
# Compressibility (1/GPa) = 0.02752950
#
# Stress axis : x y z
#
# Youngs Moduli (GPa) = 102.85187 43.90640 98.68263
#
# Poissons Ratio (x) = 0.02950 0.52809
# Poissons Ratio (y) = 0.06911 0.15078
# Poissons Ratio (z) = 0.55040 0.06709
#
# Static dielectric constant tensor:
#      x y z
#    x 4.005580 0.000000 0.000000 
#    y 0.000000 3.696300 0.000000 
#    z 0.000000 0.000000 4.191300 
# 
# 
# High freq. dielectric constant tensor:
#      x y z
#    x 1.869030 0.000000 0.000000 
#    y 0.000000 1.856650 0.000000 
#    z 0.000000 0.000000 1.873400 
# 
# From -- ./inp_files/36479.got.cif
#   From: 2010.03.12/outbox.cif.g09.slc.cpg/sg74_19_cif.got.tgz:36479.got - 2010.04.16 15:46:19.
