data_PCOD8298425
_publ_section_title
;
Structure prediction by ZEFSAII (Michael W. Deem and Ramdas Pophale) SiO2 
 PCOD8298425
Probable space group: I M M A
;
_chemical_formula_sum "Si O2"
_cell_formula_units_Z 104
_cell_length_a 9.319778
_cell_length_b 27.288454
_cell_length_c 23.982414
_cell_angle_alpha 90.000000
_cell_angle_beta 90.000000
_cell_angle_gamma 90.000000
_cell_volume 6099.263485
_symmetry_space_group_name_H-M "I M M A"
_symmetry_group_IT_number 74
_symmetry_cell_setting 'orthorhombic'
loop_
_space_group_symop_operation_xyz
x,y,z
-x,1/2-y,z
x,-y,-z
-x,1/2+y,-z
-x,-y,-z
x,1/2+y,-z
-x,y,z
x,1/2-y,z
1/2+x,1/2+y,1/2+z
1/2-x,-y,1/2+z
1/2+x,1/2-y,1/2-z
1/2-x,y,1/2-z
1/2-x,1/2-y,1/2-z
1/2+x,y,1/2-z
1/2-x,1/2+y,1/2+z
1/2+x,-y,1/2+z
loop_
_atom_site_type_symbol
_atom_site_label
_atom_site_fract_x
_atom_site_fract_y
_atom_site_fract_z
Si Si1 0.668192 0.193387 0.424264
Si Si2 0.342496 0.807975 0.700085
Si Si3 0.163759 0.750000 0.305597
Si Si4 0.332905 0.391015 0.023765
Si Si5 0.162405 0.979832 0.937838
Si Si6 0.832093 0.856253 0.308011
Si Si7 0.833671 0.568520 0.401533
O O1 0.500000 0.181415 0.431484
O O2 0.697872 0.250000 0.437884
O O3 0.719696 0.180378 0.361263
O O4 0.763652 0.162141 0.466704
O O5 0.500000 0.831177 0.705516
O O6 0.352127 0.750000 0.707546
O O7 0.250000 0.831663 0.750000
O O8 0.250000 0.750000 0.250000
O O9 0.198405 0.698013 0.335936
O O10 0.000000 0.750000 0.287385
O O11 0.500000 0.390863 0.039615
O O12 0.251673 0.429516 0.063881
O O13 0.308735 0.403567 0.959398
O O14 0.000000 0.970626 0.916751
O O15 0.239877 0.019187 0.897955
O O16 0.162444 0.000000 0.000000
O O17 0.750000 0.863786 0.250000
O O18 0.778782 0.896216 0.352313
O O19 0.000000 0.862901 0.295862
O O20 0.000000 0.554140 0.394826
#
# Coordination Sequence:
#
# PCOD8298425 Si02
#       7
#    16  16   8  16  16  16  16
#     4   9  18  32  47  65  96 132 160 190 232 280
#     4   8  14  25  42  63  85 113 149 187 223 259
#     4   8  14  26  44  64  88 122 160 194 231 278
#     4  10  19  31  48  71  97 127 161 198 239 285
#     4   9  17  30  50  72  91 117 152 191 232 279
#     4   9  17  30  48  70  96 128 163 202 246 290
#     4   9  18  32  48  71  98 123 155 199 246 288
#
# _framework density 17.051238999999999
#
# number of rings (size 3 to 8) (size 9 to 14) (size 15 to 20)
#    0.000    3.077    0.000    1.846    0.000    4.000 
#    1.385    1.538    0.000    0.923    0.000    6.462 
#    0.000    0.000    0.000    0.000    0.000    0.000 
#
# Total GULP energy -644401.787985 kJ/mol
# GULP energy per Si atom -12392.342077 kJ/mol
# Density = 1.701243 g / cm^3
# Si number density = 17.051239 Si / 1000 Ang^3
#
#
#
# Elastic Constant Matrix: (Units=GPa)
#
#
# Indices 1 2 3 4 5 6 
#
# 1 87.9169 57.4036 37.4831 0.0000 0.0000 0.0000
# 2 57.4036 106.8693 46.0505 0.0000 0.0000 0.0000
# 3 37.4831 46.0505 57.2878 -0.0001 0.0000 0.0000
# 4 0.0000 0.0000 -0.0001 24.9806 0.0000 0.0000
# 5 0.0000 0.0000 0.0000 0.0000 24.4217 0.0000
# 6 0.0000 0.0000 0.0000 0.0000 0.0000 29.8163
#
#
#
# Elastic Compliance Matrix: (Units=1/GPa)
#
#
# Indices 1 2 3 4 5 6 
#
# 1 0.018960 -0.007403 -0.006455 0.000000 0.000000 0.000000
# 2 -0.007403 0.017206 -0.008988 0.000000 0.000000 0.000000
# 3 -0.006455 -0.008988 0.028904 0.000000 0.000000 0.000000
# 4 0.000000 0.000000 0.000000 0.040031 0.000000 0.000000
# 5 0.000000 0.000000 0.000000 0.000000 0.040947 0.000000
# 6 0.000000 0.000000 0.000000 0.000000 0.000000 0.033539
#
#
# Mechanical properties :
#
#
# Convention : Reuss Voigt Hill
#
# Bulk Modulus (GPa) = 51.60034 59.32759 55.46397
# Shear Modulus (GPa) = 21.57622 23.25284 22.41453
#
# Velocity S-wave (km/s) = 3.56107 3.69684 3.62959
# Velocity P-wave (km/s) = 6.87284 7.28639 7.08263
#
# Compressibility (1/GPa) = 0.01937972
#
# Stress axis : x y z
#
# Youngs Moduli (GPa) = 52.74343 58.11827 34.59760
#
# Poissons Ratio (x) = 0.43023 0.22332
# Poissons Ratio (y) = 0.39044 0.31095
# Poissons Ratio (z) = 0.34044 0.52235
#
# Static dielectric constant tensor:
#      x y z
#    x 3.278870 0.000000 0.000000 
#    y 0.000000 3.348790 0.000000 
#    z 0.000000 0.000000 2.929730 
# 
# 
# High freq. dielectric constant tensor:
#      x y z
#    x 1.661980 0.000000 0.000000 
#    y 0.000000 1.649610 0.000000 
#    z 0.000000 0.000000 1.626140 
# 
# From -- ./inp_files/49284.got.cif
#   From: 2010.03.12/outbox.cif.g09.slc.cpg/sg74_25_cif.got.tgz:49284.got - 2010.04.16 15:46:19.
