data_PCOD8298654
_publ_section_title
;
Structure prediction by ZEFSAII (Michael W. Deem and Ramdas Pophale) SiO2 
 PCOD8298654
Probable space group: I M M A
;
_chemical_formula_sum "Si O2"
_cell_formula_units_Z 112
_cell_length_a 14.655324
_cell_length_b 27.025870
_cell_length_c 15.867991
_cell_angle_alpha 90.000000
_cell_angle_beta 90.000000
_cell_angle_gamma 90.000000
_cell_volume 6284.880915
_symmetry_space_group_name_H-M "I M M A"
_symmetry_group_IT_number 74
_symmetry_cell_setting 'orthorhombic'
loop_
_space_group_symop_operation_xyz
x,y,z
-x,1/2-y,z
x,-y,-z
-x,1/2+y,-z
-x,-y,-z
x,1/2+y,-z
-x,y,z
x,1/2-y,z
1/2+x,1/2+y,1/2+z
1/2-x,-y,1/2+z
1/2+x,1/2-y,1/2-z
1/2-x,y,1/2-z
1/2-x,1/2-y,1/2-z
1/2+x,y,1/2-z
1/2-x,1/2+y,1/2+z
1/2+x,-y,1/2+z
loop_
_atom_site_type_symbol
_atom_site_label
_atom_site_fract_x
_atom_site_fract_y
_atom_site_fract_z
Si Si1 0.104830 0.092757 0.694774
Si Si2 0.602400 0.501421 0.901525
Si Si3 0.271211 0.556344 0.657380
Si Si4 0.391887 0.102922 0.479373
Si Si5 0.105590 0.961375 0.139156
Si Si6 0.602701 0.303522 0.577870
Si Si7 0.354007 0.303311 0.764855
O O1 0.146945 0.050089 0.634375
O O2 0.128321 0.081163 0.792395
O O3 0.135139 0.149300 0.673188
O O4 0.000000 0.090440 0.674425
O O5 0.500000 0.511086 0.863104
O O6 0.671528 0.545725 0.880990
O O7 0.593244 0.500000 0.000000
O O8 0.250000 0.578076 0.750000
O O9 0.329000 0.595541 0.602592
O O10 0.332212 0.507390 0.662520
O O11 0.500000 0.105341 0.456713
O O12 0.374749 0.058186 0.545115
O O13 0.353119 0.153110 0.522164
O O14 0.000000 0.977684 0.146757
O O15 0.500000 0.299088 0.545906
O O16 0.652631 0.250000 0.564259
O O17 0.598940 0.317198 0.676501
O O18 0.393830 0.250000 0.799506
O O19 0.250000 0.293967 0.750000
#
# Coordination Sequence:
#
# PCOD8298654 Si02
#       7
#    16  16  16  16  16  16  16
#     4  10  19  32  51  70  96 134 174 213 257 302
#     4  10  22  37  50  68  95 135 186 220 244 297
#     4  12  23  33  50  72 102 140 167 209 263 312
#     4  10  20  34  54  81 107 130 170 217 264 321
#     4  10  19  33  51  76 103 133 168 213 263 309
#     4   9  17  32  53  75 103 137 168 208 267 327
#     4  10  20  29  44  74 108 139 172 208 251 309
#
# _framework density 17.820544000000002
#
# number of rings (size 3 to 8) (size 9 to 14) (size 15 to 20)
#    0.000    1.857    2.857    2.143    2.000    3.714 
#    0.000    0.000    0.000    0.429    0.000    0.000 
#    0.000    0.571    0.000    0.286    0.000    0.000 
#
# Total GULP energy -693734.541919 kJ/mol
# GULP energy per Si atom -12388.116820 kJ/mol
# Density = 1.777998 g / cm^3
# Si number density = 17.820544 Si / 1000 Ang^3
#
#
#
# Elastic Constant Matrix: (Units=GPa)
#
#
# Indices 1 2 3 4 5 6 
#
# 1 50.0098 20.9935 26.3743 -0.0001 0.0000 0.0000
# 2 20.9935 76.7303 17.7449 -0.0005 0.0001 0.0001
# 3 26.3743 17.7449 69.4711 -0.0008 0.0002 0.0001
# 4 -0.0001 -0.0005 -0.0008 26.2732 0.0001 0.0002
# 5 0.0000 0.0001 0.0002 0.0001 24.9347 -0.0001
# 6 0.0000 0.0001 0.0001 0.0002 -0.0001 16.5204
#
#
#
# Elastic Compliance Matrix: (Units=1/GPa)
#
#
# Indices 1 2 3 4 5 6 
#
# 1 0.026895 -0.005311 -0.008854 0.000000 0.000000 0.000000
# 2 -0.005311 0.014900 -0.001790 0.000000 0.000000 0.000000
# 3 -0.008854 -0.001790 0.018213 0.000001 0.000000 0.000000
# 4 0.000000 0.000000 0.000001 0.038062 0.000000 0.000000
# 5 0.000000 0.000000 0.000000 0.000000 0.040105 0.000000
# 6 0.000000 0.000000 0.000000 0.000000 0.000000 0.060531
#
#
# Mechanical properties :
#
#
# Convention : Reuss Voigt Hill
#
# Bulk Modulus (GPa) = 35.58885 36.27074 35.92980
# Shear Modulus (GPa) = 20.83505 22.28555 21.56030
#
# Velocity S-wave (km/s) = 3.42301 3.54015 3.48207
# Velocity P-wave (km/s) = 5.96965 6.09161 6.03094
#
# Compressibility (1/GPa) = 0.02809869
#
# Stress axis : x y z
#
# Youngs Moduli (GPa) = 37.18167 67.11592 54.90605
#
# Poissons Ratio (x) = 0.35645 0.48614
# Poissons Ratio (y) = 0.19747 0.09826
# Poissons Ratio (z) = 0.32921 0.12011
#
# Static dielectric constant tensor:
#      x y z
#    x 3.431890 0.000000 0.000000 
#    y 0.000000 3.957100 0.000000 
#    z 0.000000 0.000000 2.761170 
# 
# 
# High freq. dielectric constant tensor:
#      x y z
#    x 1.692580 0.000000 0.000000 
#    y 0.000000 1.676390 0.000000 
#    z 0.000000 0.000000 1.655760 
# 
# From -- ./inp_files/33138.got.cif
#   From: 2010.03.12/outbox.cif.g09.slc.cpg/sg74_17_cif.got.tgz:33138.got - 2010.04.16 15:46:19.
