data_PCOD8298547
_publ_section_title
;
Structure prediction by ZEFSAII (Michael W. Deem and Ramdas Pophale) SiO2 
 PCOD8298547
Probable space group: I M M A
;
_chemical_formula_sum "Si O2"
_cell_formula_units_Z 88
_cell_length_a 8.985530
_cell_length_b 22.334520
_cell_length_c 20.978625
_cell_angle_alpha 90.000000
_cell_angle_beta 90.000000
_cell_angle_gamma 90.000000
_cell_volume 4210.147794
_symmetry_space_group_name_H-M "I M M A"
_symmetry_group_IT_number 74
_symmetry_cell_setting 'orthorhombic'
loop_
_space_group_symop_operation_xyz
x,y,z
-x,1/2-y,z
x,-y,-z
-x,1/2+y,-z
-x,-y,-z
x,1/2+y,-z
-x,y,z
x,1/2-y,z
1/2+x,1/2+y,1/2+z
1/2-x,-y,1/2+z
1/2+x,1/2-y,1/2-z
1/2-x,y,1/2-z
1/2-x,1/2-y,1/2-z
1/2+x,y,1/2-z
1/2-x,1/2+y,1/2+z
1/2+x,-y,1/2+z
loop_
_atom_site_type_symbol
_atom_site_label
_atom_site_fract_x
_atom_site_fract_y
_atom_site_fract_z
Si Si1 0.673364 0.854841 0.400331
Si Si2 0.668796 0.940933 0.689203
Si Si3 0.662883 0.318366 0.018595
Si Si4 0.824489 0.012893 0.929134
Si Si5 0.321318 0.250000 0.819866
Si Si6 0.166651 0.684512 0.855058
O O1 0.500000 0.842314 0.386604
O O2 0.709204 0.845165 0.474437
O O3 0.717519 0.924681 0.393553
O O4 0.769707 0.810791 0.355669
O O5 0.500000 0.962688 0.693935
O O6 0.750000 0.970045 0.750000
O O7 0.685765 0.868964 0.695233
O O8 0.733859 0.962740 0.620858
O O9 0.500000 0.349138 0.009540
O O10 0.646909 0.250000 0.998824
O O11 0.712203 0.325750 0.090850
O O12 0.000000 0.009830 0.938288
O O13 0.753202 0.000000 0.000000
O O14 0.500000 0.250000 0.815560
O O15 0.250000 0.250000 0.750000
O O16 0.191585 0.750000 0.822585
O O17 0.000000 0.681446 0.884663
#
# Coordination Sequence:
#
# PCOD8298547 Si02
#       6
#    16  16  16  16   8  16
#     4  11  21  36  61  88 116 156 200 243 301 368
#     4  10  21  38  58  82 116 154 195 247 302 359
#     4  10  19  31  51  82 119 150 180 231 291 342
#     4   9  19  37  62  90 120 158 205 255 302 361
#     4  12  26  44  62  86 122 160 205 262 321 380
#     4   9  18  33  55  82 111 150 198 241 282 341
#
# _framework density 20.901879000000001
#
# number of rings (size 3 to 8) (size 9 to 14) (size 15 to 20)
#    0.000    2.000    0.909    3.000    0.000    5.455 
#    0.000    3.636    0.000    3.818    0.000    0.000 
#    0.000    0.000    0.000    0.000    0.000    0.000 
#
# Total GULP energy -545124.881951 kJ/mol
# GULP energy per Si atom -12389.201863 kJ/mol
# Density = 2.085431 g / cm^3
# Si number density = 20.901879 Si / 1000 Ang^3
#
#
#
# Elastic Constant Matrix: (Units=GPa)
#
#
# Indices 1 2 3 4 5 6 
#
# 1 83.9508 34.2002 35.9083 0.0000 0.0000 0.0000
# 2 34.2002 105.8724 45.9528 0.0000 0.0000 0.0000
# 3 35.9083 45.9528 117.8402 0.0000 0.0000 0.0000
# 4 0.0000 0.0000 0.0000 19.2383 0.0000 0.0000
# 5 0.0000 0.0000 0.0000 0.0000 27.8818 0.0000
# 6 0.0000 0.0000 0.0000 0.0000 0.0000 13.6495
#
#
#
# Elastic Compliance Matrix: (Units=1/GPa)
#
#
# Indices 1 2 3 4 5 6 
#
# 1 0.014626 -0.003359 -0.003147 0.000000 0.000000 0.000000
# 2 -0.003359 0.012141 -0.003711 0.000000 0.000000 0.000000
# 3 -0.003147 -0.003711 0.010892 0.000000 0.000000 0.000000
# 4 0.000000 0.000000 0.000000 0.051980 0.000000 0.000000
# 5 0.000000 0.000000 0.000000 0.000000 0.035866 0.000000
# 6 0.000000 0.000000 0.000000 0.000000 0.000000 0.073263
#
#
# Mechanical properties :
#
#
# Convention : Reuss Voigt Hill
#
# Bulk Modulus (GPa) = 58.05303 59.97623 59.01463
# Shear Modulus (GPa) = 22.22782 24.92738 23.57760
#
# Velocity S-wave (km/s) = 3.26458 3.45714 3.36223
# Velocity P-wave (km/s) = 6.48416 6.68522 6.58546
#
# Compressibility (1/GPa) = 0.01722563
#
# Stress axis : x y z
#
# Youngs Moduli (GPa) = 68.37061 82.36519 91.80881
#
# Poissons Ratio (x) = 0.27664 0.28893
# Poissons Ratio (y) = 0.22964 0.34070
# Poissons Ratio (z) = 0.21517 0.30566
#
# Static dielectric constant tensor:
#      x y z
#    x 3.703670 0.000000 0.000000 
#    y 0.000000 4.065270 0.000000 
#    z 0.000000 0.000000 3.577550 
# 
# 
# High freq. dielectric constant tensor:
#      x y z
#    x 1.799450 0.000000 0.000000 
#    y 0.000000 1.822580 0.000000 
#    z 0.000000 0.000000 1.806020 
# 
# From -- ./inp_files/48787.got.cif
#   From: 2010.03.12/outbox.cif.g09.slc.cpg/sg74_25_cif.got.tgz:48787.got - 2010.04.16 15:46:19.
