data_PCOD8298345
_publ_section_title
;
Structure prediction by ZEFSAII (Michael W. Deem and Ramdas Pophale) SiO2 
 PCOD8298345
Probable space group: I M M A
;
_chemical_formula_sum "Si O2"
_cell_formula_units_Z 80
_cell_length_a 25.206502
_cell_length_b 9.278436
_cell_length_c 19.845584
_cell_angle_alpha 90.000000
_cell_angle_beta 90.000000
_cell_angle_gamma 90.000000
_cell_volume 4641.423974
_symmetry_space_group_name_H-M "I M M A"
_symmetry_group_IT_number 74
_symmetry_cell_setting 'orthorhombic'
loop_
_space_group_symop_operation_xyz
x,y,z
-x,1/2-y,z
x,-y,-z
-x,1/2+y,-z
-x,-y,-z
x,1/2+y,-z
-x,y,z
x,1/2-y,z
1/2+x,1/2+y,1/2+z
1/2-x,-y,1/2+z
1/2+x,1/2-y,1/2-z
1/2-x,y,1/2-z
1/2-x,1/2-y,1/2-z
1/2+x,y,1/2-z
1/2-x,1/2+y,1/2+z
1/2+x,-y,1/2+z
loop_
_atom_site_type_symbol
_atom_site_label
_atom_site_fract_x
_atom_site_fract_y
_atom_site_fract_z
Si Si1 0.560787 0.582089 0.434142
Si Si2 0.755095 0.908853 0.329860
Si Si3 0.644063 0.419979 0.179482
Si Si4 0.139690 0.919667 0.181306
Si Si5 0.560495 0.582307 0.933524
O O1 0.581545 0.500000 0.500000
O O2 0.500000 0.542281 0.418723
O O3 0.568745 0.750000 0.447894
O O4 0.594241 0.530860 0.369921
O O5 0.770140 0.750000 0.358015
O O6 0.750000 0.902340 0.250000
O O7 0.696341 0.956268 0.354534
O O8 0.800390 0.021592 0.351563
O O9 0.649211 0.250000 0.189609
O O10 0.630636 0.492603 0.250415
O O11 0.597064 0.462948 0.128950
O O12 0.136837 0.750000 0.198718
O O13 0.500000 0.540277 0.915218
O O14 0.566043 0.750000 0.949310
O O15 0.579995 0.500000 0.000000
#
# Coordination Sequence:
#
# PCOD8298345 Si02
#       5
#    16  16  16  16  16
#     4   9  18  33  51  70  94 124 158 195 233 275
#     4   8  15  29  47  66  93 127 156 185 227 277
#     4  10  19  30  48  74  98 119 151 196 236 272
#     4   9  18  32  49  70  96 126 158 190 228 277
#     4   9  19  35  51  68  93 124 156 191 233 279
#
# _framework density 17.236090000000001
#
# number of rings (size 3 to 8) (size 9 to 14) (size 15 to 20)
#    0.000    3.000    0.000    1.800    0.000    6.800 
#    0.000    1.000    0.000    4.800    0.000    0.000 
#    0.000    0.000    0.000    0.000    0.000    0.000 
#
# Total GULP energy -495884.069177 kJ/mol
# GULP energy per Si atom -12397.101729 kJ/mol
# Density = 1.719686 g / cm^3
# Si number density = 17.236090 Si / 1000 Ang^3
#
#
#
# Elastic Constant Matrix: (Units=GPa)
#
#
# Indices 1 2 3 4 5 6 
#
# 1 119.8774 56.6797 77.2410 0.0000 0.0000 0.0000
# 2 56.6797 70.3645 58.7745 0.0000 0.0000 0.0000
# 3 77.2410 58.7745 101.3702 0.0000 0.0000 0.0000
# 4 0.0000 0.0000 0.0000 27.5410 0.0000 0.0000
# 5 0.0000 0.0000 0.0000 0.0000 8.3940 0.0000
# 6 0.0000 0.0000 0.0000 0.0000 0.0000 26.5225
#
#
#
# Elastic Compliance Matrix: (Units=1/GPa)
#
#
# Indices 1 2 3 4 5 6 
#
# 1 0.017506 -0.005739 -0.010012 0.000000 0.000000 0.000000
# 2 -0.005739 0.029439 -0.012696 0.000000 0.000000 0.000000
# 3 -0.010012 -0.012696 0.024855 0.000000 0.000000 0.000000
# 4 0.000000 0.000000 0.000000 0.036309 0.000000 0.000000
# 5 0.000000 0.000000 0.000000 0.000000 0.119133 0.000000
# 6 0.000000 0.000000 0.000000 0.000000 0.000000 0.037704
#
#
# Mechanical properties :
#
#
# Convention : Reuss Voigt Hill
#
# Bulk Modulus (GPa) = 67.08373 75.22253 71.15313
# Shear Modulus (GPa) = 15.29945 19.08596 17.19270
#
# Velocity S-wave (km/s) = 2.98256 3.33126 3.16172
# Velocity P-wave (km/s) = 7.13203 7.65072 7.39593
#
# Compressibility (1/GPa) = 0.01490674
#
# Stress axis : x y z
#
# Youngs Moduli (GPa) = 57.12271 33.96819 40.23368
#
# Poissons Ratio (x) = 0.19494 0.40281
# Poissons Ratio (y) = 0.32781 0.51081
# Poissons Ratio (z) = 0.57190 0.43127
#
# Static dielectric constant tensor:
#      x y z
#    x 3.715020 0.000000 0.000000 
#    y 0.000000 3.193570 0.000000 
#    z 0.000000 0.000000 2.996880 
# 
# 
# High freq. dielectric constant tensor:
#      x y z
#    x 1.676550 0.000000 0.000000 
#    y 0.000000 1.663690 0.000000 
#    z 0.000000 0.000000 1.638380 
# 
# From -- ./inp_files/39733.got.cif
#   From: 2010.03.12/outbox.cif.g09.slc.cpg/sg74_20_cif.got.tgz:39733.got - 2010.04.16 15:46:19.
