data_PCOD8298141
_publ_section_title
;
Structure prediction by ZEFSAII (Michael W. Deem and Ramdas Pophale) SiO2 
 PCOD8298141
Probable space group: I M M A
;
_chemical_formula_sum "Si O2"
_cell_formula_units_Z 96
_cell_length_a 27.746511
_cell_length_b 9.000902
_cell_length_c 28.842551
_cell_angle_alpha 90.000000
_cell_angle_beta 90.000000
_cell_angle_gamma 90.000000
_cell_volume 7203.243280
_symmetry_space_group_name_H-M "I M M A"
_symmetry_group_IT_number 74
_symmetry_cell_setting 'orthorhombic'
loop_
_space_group_symop_operation_xyz
x,y,z
-x,1/2-y,z
x,-y,-z
-x,1/2+y,-z
-x,-y,-z
x,1/2+y,-z
-x,y,z
x,1/2-y,z
1/2+x,1/2+y,1/2+z
1/2-x,-y,1/2+z
1/2+x,1/2-y,1/2-z
1/2-x,y,1/2-z
1/2-x,1/2-y,1/2-z
1/2+x,y,1/2-z
1/2-x,1/2+y,1/2+z
1/2+x,-y,1/2+z
loop_
_atom_site_type_symbol
_atom_site_label
_atom_site_fract_x
_atom_site_fract_y
_atom_site_fract_z
Si Si1 0.825359 0.583190 0.730981
Si Si2 0.656664 0.578125 0.372140
Si Si3 0.595725 0.421608 0.719854
Si Si4 0.099776 0.073438 0.048545
Si Si5 0.736178 0.917054 0.676218
Si Si6 0.000000 0.073628 0.195990
Si Si7 0.000000 0.926062 0.908822
O O1 0.844387 0.750000 0.721737
O O2 0.870627 0.473547 0.737308
O O3 0.790995 0.531143 0.688210
O O4 0.794074 0.581315 0.777067
O O5 0.656813 0.750000 0.386270
O O6 0.621703 0.546749 0.328915
O O7 0.639188 0.478908 0.414675
O O8 0.711378 0.528471 0.360315
O O9 0.583591 0.250000 0.726482
O O10 0.546827 0.514600 0.722383
O O11 0.101323 0.250000 0.044228
O O12 0.047096 0.015533 0.064388
O O13 0.112944 0.000000 0.000000
O O14 0.736684 0.750000 0.655682
O O15 0.000000 0.010602 0.143398
O O16 0.000000 0.250000 0.196992
O O17 0.000000 0.750000 0.906585
#
# Coordination Sequence:
#
# PCOD8298141 Si02
#       7
#    16  16  16  16  16   8   8
#     4   8  14  25  40  57  75  97 121 144 177 221
#     4  10  19  29  41  58  76  96 119 149 191 234
#     4  10  19  28  39  57  78  97 121 155 192 225
#     4  11  21  34  46  58  73  92 122 159 201 243
#     4   8  14  25  41  58  75  95 119 146 177 219
#     4  11  19  30  44  56  71  98 132 160 192 236
#     4   9  19  32  46  58  67  89 123 159 199 242
#
# _framework density 13.32733
#
# number of rings (size 3 to 8) (size 9 to 14) (size 15 to 20)
#    0.000    2.500    1.667    3.000    0.000    2.000 
#    0.000    4.583    0.000    0.000    0.000    0.000 
#    0.000    0.000    0.000    0.000    0.000    0.000 
#
# Total GULP energy -595054.669906 kJ/mol
# GULP energy per Si atom -12396.972290 kJ/mol
# Density = 1.329700 g / cm^3
# Si number density = 13.327330 Si / 1000 Ang^3
#
#
#
# Elastic Constant Matrix: (Units=GPa)
#
#
# Indices 1 2 3 4 5 6 
#
# 1 78.7884 43.7242 41.2209 0.0000 0.0000 0.0000
# 2 43.7242 70.6255 26.7476 0.0000 0.0000 0.0000
# 3 41.2209 26.7476 41.2630 0.0000 0.0000 0.0000
# 4 0.0000 0.0000 0.0000 17.3030 0.0000 0.0000
# 5 0.0000 0.0000 0.0000 0.0000 14.0750 0.0000
# 6 0.0000 0.0000 0.0000 0.0000 0.0000 21.5662
#
#
#
# Elastic Compliance Matrix: (Units=1/GPa)
#
#
# Indices 1 2 3 4 5 6 
#
# 1 0.031072 -0.009915 -0.024613 0.000000 0.000000 0.000000
# 2 -0.009915 0.021930 -0.004311 0.000000 0.000000 0.000000
# 3 -0.024613 -0.004311 0.051617 0.000000 0.000000 0.000000
# 4 0.000000 0.000000 0.000000 0.057793 0.000000 0.000000
# 5 0.000000 0.000000 0.000000 0.000000 0.071048 0.000000
# 6 0.000000 0.000000 0.000000 0.000000 0.000000 0.046369
#
#
# Mechanical properties :
#
#
# Convention : Reuss Voigt Hill
#
# Bulk Modulus (GPa) = 37.11747 46.00694 41.56220
# Shear Modulus (GPa) = 13.64306 15.85446 14.74876
#
# Velocity S-wave (km/s) = 3.20299 3.45283 3.33025
# Velocity P-wave (km/s) = 6.44903 7.10575 6.78534
#
# Compressibility (1/GPa) = 0.02694149
#
# Stress axis : x y z
#
# Youngs Moduli (GPa) = 32.18361 45.59938 19.37353
#
# Poissons Ratio (x) = 0.45212 0.47684
# Poissons Ratio (y) = 0.31910 0.08351
# Poissons Ratio (z) = 0.79213 0.19656
#
# Static dielectric constant tensor:
#      x y z
#    x 2.774870 0.000000 0.000000 
#    y 0.000000 2.684100 0.000000 
#    z 0.000000 0.000000 2.420930 
# 
# 
# High freq. dielectric constant tensor:
#      x y z
#    x 1.495670 0.000000 0.000000 
#    y 0.000000 1.514770 0.000000 
#    z 0.000000 0.000000 1.456970 
# 
# From -- ./inp_files/62297.got.cif
#   From: 2010.03.12/outbox.cif.g09.slc.cpg/sg74_32_cif.got.tgz:62297.got - 2010.04.16 15:46:19.
