data_PCOD8298795
_publ_section_title
;
Structure prediction by ZEFSAII (Michael W. Deem and Ramdas Pophale) SiO2 
 PCOD8298795
Probable space group: I M M A
;
_chemical_formula_sum "Si O2"
_cell_formula_units_Z 80
_cell_length_a 16.687779
_cell_length_b 20.429968
_cell_length_c 12.468770
_cell_angle_alpha 90.000000
_cell_angle_beta 90.000000
_cell_angle_gamma 90.000000
_cell_volume 4250.987618
_symmetry_space_group_name_H-M "I M M A"
_symmetry_group_IT_number 74
_symmetry_cell_setting 'orthorhombic'
loop_
_space_group_symop_operation_xyz
x,y,z
-x,1/2-y,z
x,-y,-z
-x,1/2+y,-z
-x,-y,-z
x,1/2+y,-z
-x,y,z
x,1/2-y,z
1/2+x,1/2+y,1/2+z
1/2-x,-y,1/2+z
1/2+x,1/2-y,1/2-z
1/2-x,y,1/2-z
1/2-x,1/2-y,1/2-z
1/2+x,y,1/2-z
1/2-x,1/2+y,1/2+z
1/2+x,-y,1/2+z
loop_
_atom_site_type_symbol
_atom_site_label
_atom_site_fract_x
_atom_site_fract_y
_atom_site_fract_z
Si Si1 0.161236 0.596353 0.205701
Si Si2 0.409160 0.422827 0.486783
Si Si3 0.907040 0.177857 0.617053
Si Si4 0.343633 0.053711 0.264575
Si Si5 0.593824 0.569182 0.960938
O O1 0.250000 0.609425 0.250000
O O2 0.103863 0.647592 0.265018
O O3 0.133087 0.522689 0.230999
O O4 0.148569 0.608731 0.078136
O O5 0.409540 0.500000 0.500000
O O6 0.500000 0.395300 0.496070
O O7 0.372784 0.406868 0.369659
O O8 0.866480 0.250000 0.609148
O O9 0.867517 0.128111 0.530500
O O10 0.000000 0.185553 0.592802
O O11 0.250000 0.063724 0.250000
O O12 0.388855 0.083953 0.162821
O O13 0.500000 0.566352 0.983295
O O14 0.633004 0.500000 0.000000
#
# Coordination Sequence:
#
# PCOD8298795 Si02
#       5
#    16  16  16  16  16
#     4  10  20  32  52  78 109 143 177 223 273 325
#     4   9  18  31  48  74 109 143 176 217 272 330
#     4  10  21  36  55  79 108 143 182 226 276 329
#     4  10  20  30  51  80 112 142 176 223 274 320
#     4  10  19  32  55  80 106 140 181 224 270 322
#
# _framework density 18.819157000000001
#
# number of rings (size 3 to 8) (size 9 to 14) (size 15 to 20)
#    0.000    2.200    2.000    1.200    2.800    2.800 
#    0.000    0.000    0.000    1.800    0.000    2.800 
#    0.000    0.000    0.000    0.000    0.000    0.000 
#
# Total GULP energy -495860.340436 kJ/mol
# GULP energy per Si atom -12396.508511 kJ/mol
# Density = 1.877632 g / cm^3
# Si number density = 18.819157 Si / 1000 Ang^3
#
#
#
# Elastic Constant Matrix: (Units=GPa)
#
#
# Indices 1 2 3 4 5 6 
#
# 1 57.9039 22.7077 38.0154 0.0000 0.0000 0.0000
# 2 22.7077 90.1923 58.2833 0.0000 0.0000 0.0000
# 3 38.0154 58.2833 184.5590 0.0000 0.0000 0.0000
# 4 0.0000 0.0000 0.0000 14.8034 0.0000 0.0000
# 5 0.0000 0.0000 0.0000 0.0000 32.8418 0.0000
# 6 0.0000 0.0000 0.0000 0.0000 0.0000 7.3639
#
#
#
# Elastic Compliance Matrix: (Units=1/GPa)
#
#
# Indices 1 2 3 4 5 6 
#
# 1 0.020628 -0.003075 -0.003278 0.000000 0.000000 0.000000
# 2 -0.003075 0.014389 -0.003910 0.000000 0.000000 0.000000
# 3 -0.003278 -0.003910 0.007328 0.000000 0.000000 0.000000
# 4 0.000000 0.000000 0.000000 0.067552 0.000000 0.000000
# 5 0.000000 0.000000 0.000000 0.000000 0.030449 0.000000
# 6 0.000000 0.000000 0.000000 0.000000 0.000000 0.135797
#
#
# Mechanical properties :
#
#
# Convention : Reuss Voigt Hill
#
# Bulk Modulus (GPa) = 45.83396 63.40756 54.62076
# Shear Modulus (GPa) = 16.45044 25.24507 20.84775
#
# Velocity S-wave (km/s) = 2.95978 3.66656 3.33197
# Velocity P-wave (km/s) = 6.00735 7.18966 6.62493
#
# Compressibility (1/GPa) = 0.02181788
#
# Stress axis : x y z
#
# Youngs Moduli (GPa) = 48.47783 69.49906 136.45583
#
# Poissons Ratio (x) = 0.21374 0.44727
# Poissons Ratio (y) = 0.14909 0.53360
# Poissons Ratio (z) = 0.15890 0.27177
#
# Static dielectric constant tensor:
#      x y z
#    x 3.383600 0.000000 0.000000 
#    y 0.000000 3.351480 0.000000 
#    z 0.000000 0.000000 3.704240 
# 
# 
# High freq. dielectric constant tensor:
#      x y z
#    x 1.719520 0.000000 0.000000 
#    y 0.000000 1.678790 0.000000 
#    z 0.000000 0.000000 1.745180 
# 
# From -- ./inp_files/20509.got.cif
#   From: 2010.03.12/outbox.cif.g09.slc.cpg/sg74_11_cif.got.tgz:20509.got - 2010.04.16 15:46:19.
