data_PCOD8298126
_publ_section_title
;
Structure prediction by ZEFSAII (Michael W. Deem and Ramdas Pophale) SiO2 
 PCOD8298126
Probable space group: I M M A
;
_chemical_formula_sum "Si O2"
_cell_formula_units_Z 96
_cell_length_a 28.763612
_cell_length_b 13.993053
_cell_length_c 13.972854
_cell_angle_alpha 90.000000
_cell_angle_beta 90.000000
_cell_angle_gamma 90.000000
_cell_volume 5623.944447
_symmetry_space_group_name_H-M "I M M A"
_symmetry_group_IT_number 74
_symmetry_cell_setting 'orthorhombic'
loop_
_space_group_symop_operation_xyz
x,y,z
-x,1/2-y,z
x,-y,-z
-x,1/2+y,-z
-x,-y,-z
x,1/2+y,-z
-x,y,z
x,1/2-y,z
1/2+x,1/2+y,1/2+z
1/2-x,-y,1/2+z
1/2+x,1/2-y,1/2-z
1/2-x,y,1/2-z
1/2-x,1/2-y,1/2-z
1/2+x,y,1/2-z
1/2-x,1/2+y,1/2+z
1/2+x,-y,1/2+z
loop_
_atom_site_type_symbol
_atom_site_label
_atom_site_fract_x
_atom_site_fract_y
_atom_site_fract_z
Si Si1 0.356888 0.457224 0.234658
Si Si2 0.050145 0.637502 0.477164
Si Si3 0.306753 0.861740 0.941111
Si Si4 0.140936 0.138671 0.631090
Si Si5 0.782042 0.855827 0.842791
Si Si6 0.447470 0.862484 0.807570
O O1 0.340361 0.412503 0.134227
O O2 0.351365 0.572437 0.224283
O O3 0.325270 0.426643 0.325251
O O4 0.409678 0.421769 0.254679
O O5 0.051286 0.750000 0.488517
O O6 0.090716 0.605128 0.407120
O O7 0.056776 0.596877 0.584031
O O8 0.000000 0.603773 0.435706
O O9 0.313385 0.750000 0.920391
O O10 0.252282 0.891054 0.928191
O O11 0.321002 0.886047 0.049672
O O12 0.142961 0.250000 0.660976
O O13 0.801940 0.750000 0.864714
O O14 0.750000 0.852484 0.750000
O O15 0.500000 0.880979 0.769094
O O16 0.435729 0.750000 0.801622
#
# Coordination Sequence:
#
# PCOD8298126 Si02
#       6
#    16  16  16  16  16  16
#     4  11  17  24  39  56  71  96 128 157 188 224
#     4   8  14  24  34  45  68 100 127 152 182 213
#     4   9  16  27  40  55  72  88 116 159 199 231
#     4  10  19  27  36  53  76 100 129 164 191 215
#     4   8  15  26  41  56  69  88 117 157 197 231
#     4   9  16  24  35  53  76  98 122 157 194 223
#
# _framework density 17.069870000000002
#
# number of rings (size 3 to 8) (size 9 to 14) (size 15 to 20)
#    0.000    2.833    1.667    4.000    0.000    0.667 
#    0.000    1.667    0.000    4.500    0.000    0.000 
#    0.000    0.000    0.000    0.000    0.000   31.667 
#
# Total GULP energy -594748.858774 kJ/mol
# GULP energy per Si atom -12390.601224 kJ/mol
# Density = 1.703102 g / cm^3
# Si number density = 17.069870 Si / 1000 Ang^3
#
#
#
# Elastic Constant Matrix: (Units=GPa)
#
#
# Indices 1 2 3 4 5 6 
#
# 1 127.9591 47.1416 32.5049 0.0000 0.0000 0.0000
# 2 47.1416 67.6739 19.6215 0.0000 0.0000 0.0000
# 3 32.5049 19.6215 16.2832 0.0000 0.0000 0.0000
# 4 0.0000 0.0000 0.0000 10.3759 0.0000 0.0000
# 5 0.0000 0.0000 0.0000 0.0000 11.7032 0.0000
# 6 0.0000 0.0000 0.0000 0.0000 0.0000 12.7231
#
#
#
# Elastic Compliance Matrix: (Units=1/GPa)
#
#
# Indices 1 2 3 4 5 6 
#
# 1 0.016226 -0.002938 -0.028851 0.000000 0.000000 0.000000
# 2 -0.002938 0.023244 -0.022144 0.000000 0.000000 0.000000
# 3 -0.028851 -0.022144 0.145690 0.000000 0.000000 0.000000
# 4 0.000000 0.000000 0.000000 0.096377 0.000000 0.000000
# 5 0.000000 0.000000 0.000000 0.000000 0.085447 0.000000
# 6 0.000000 0.000000 0.000000 0.000000 0.000000 0.078597
#
#
# Mechanical properties :
#
#
# Convention : Reuss Voigt Hill
#
# Bulk Modulus (GPa) = 12.93764 45.60582 29.27173
# Shear Modulus (GPa) = 8.63241 14.47033 11.55137
#
# Velocity S-wave (km/s) = 2.25124 2.91471 2.60419
# Velocity P-wave (km/s) = 3.78855 6.17272 5.12131
#
# Compressibility (1/GPa) = 0.07729387
#
# Stress axis : x y z
#
# Youngs Moduli (GPa) = 61.62833 43.02182 6.86389
#
# Poissons Ratio (x) = 0.12640 0.19803
# Poissons Ratio (y) = 0.18107 0.15200
# Poissons Ratio (z) = 1.77803 0.95269
#
# Static dielectric constant tensor:
#      x y z
#    x 4.879650 0.000000 0.000000 
#    y 0.000000 3.163160 0.000000 
#    z 0.000000 0.000000 2.624030 
# 
# 
# High freq. dielectric constant tensor:
#      x y z
#    x 1.667080 0.000000 0.000000 
#    y 0.000000 1.663450 0.000000 
#    z 0.000000 0.000000 1.560730 
# 
# From -- ./inp_files/33083.got.cif
#   From: 2010.03.12/outbox.cif.g09.slc.cpg/sg74_17_cif.got.tgz:33083.got - 2010.04.16 15:46:19.
