data_PCOD8298264
_publ_section_title
;
Structure prediction by ZEFSAII (Michael W. Deem and Ramdas Pophale) SiO2 
 PCOD8298264
Probable space group: I M M A
;
_chemical_formula_sum "Si O2"
_cell_formula_units_Z 72
_cell_length_a 32.667816
_cell_length_b 9.386643
_cell_length_c 14.562991
_cell_angle_alpha 90.000000
_cell_angle_beta 90.000000
_cell_angle_gamma 90.000000
_cell_volume 4465.611964
_symmetry_space_group_name_H-M "I M M A"
_symmetry_group_IT_number 74
_symmetry_cell_setting 'orthorhombic'
loop_
_space_group_symop_operation_xyz
x,y,z
-x,1/2-y,z
x,-y,-z
-x,1/2+y,-z
-x,-y,-z
x,1/2+y,-z
-x,y,z
x,1/2-y,z
1/2+x,1/2+y,1/2+z
1/2-x,-y,1/2+z
1/2+x,1/2-y,1/2-z
1/2-x,y,1/2-z
1/2-x,1/2-y,1/2-z
1/2+x,y,1/2-z
1/2-x,1/2+y,1/2+z
1/2+x,-y,1/2+z
loop_
_atom_site_type_symbol
_atom_site_label
_atom_site_fract_x
_atom_site_fract_y
_atom_site_fract_z
Si Si1 0.500000 0.909986 0.589251
Si Si2 0.651808 0.414155 0.716545
Si Si3 0.589081 0.917350 0.596486
Si Si4 0.182433 0.584226 0.412256
Si Si5 0.724702 0.086660 0.585830
O O1 0.500000 0.750000 0.553344
O O2 0.543221 0.939388 0.640725
O O3 0.500000 0.000000 0.500000
O O4 0.638380 0.250000 0.701769
O O5 0.619286 0.518978 0.671571
O O6 0.654746 0.452167 0.824089
O O7 0.696635 0.440752 0.674067
O O8 0.598686 0.750000 0.580558
O O9 0.594122 0.000000 0.500000
O O10 0.164856 0.500000 0.500000
O O11 0.180326 0.750000 0.435465
O O12 0.229176 0.537004 0.391202
O O13 0.723943 0.250000 0.555967
O O14 0.706415 0.000000 0.500000
#
# Coordination Sequence:
#
# PCOD8298264 Si02
#       5
#     8  16  16  16  16
#     4   8  16  30  46  64  89 120 147 172 207 256
#     4  10  19  30  45  66  91 118 149 185 224 263
#     4  10  19  31  47  68  94 121 148 177 213 259
#     4   9  18  32  47  62  84 117 155 191 225 261
#     4   9  17  29  44  62  87 119 150 181 219 261
#
# _framework density 16.12321
#
# number of rings (size 3 to 8) (size 9 to 14) (size 15 to 20)
#    0.000    2.667    0.000    2.000    0.000    7.111 
#    0.000    0.000    0.000    6.667    0.000    0.778 
#    0.000    0.000    0.000    0.000    0.000    0.000 
#
# Total GULP energy -446159.194003 kJ/mol
# GULP energy per Si atom -12393.310945 kJ/mol
# Density = 1.608651 g / cm^3
# Si number density = 16.123210 Si / 1000 Ang^3
#
#
#
# Elastic Constant Matrix: (Units=GPa)
#
#
# Indices 1 2 3 4 5 6 
#
# 1 80.5222 47.4985 47.8224 0.0000 0.0000 0.0000
# 2 47.4985 75.0254 54.2093 0.0000 0.0000 0.0000
# 3 47.8224 54.2093 104.7460 0.0000 0.0000 0.0000
# 4 0.0000 0.0000 0.0000 27.6863 0.0000 0.0000
# 5 0.0000 0.0000 0.0000 0.0000 15.9541 0.0000
# 6 0.0000 0.0000 0.0000 0.0000 0.0000 21.9324
#
#
#
# Elastic Compliance Matrix: (Units=1/GPa)
#
#
# Indices 1 2 3 4 5 6 
#
# 1 0.020977 -0.010160 -0.004319 0.000000 0.000000 0.000000
# 2 -0.010160 0.026211 -0.008926 0.000000 0.000000 0.000000
# 3 -0.004319 -0.008926 0.016139 0.000000 0.000000 0.000000
# 4 0.000000 0.000000 0.000000 0.036119 0.000000 0.000000
# 5 0.000000 0.000000 0.000000 0.000000 0.062680 0.000000
# 6 0.000000 0.000000 0.000000 0.000000 0.000000 0.045595
#
#
# Mechanical properties :
#
#
# Convention : Reuss Voigt Hill
#
# Bulk Modulus (GPa) = 60.54857 62.15044 61.34950
# Shear Modulus (GPa) = 19.22814 20.49879 19.86347
#
# Velocity S-wave (km/s) = 3.45711 3.56952 3.51376
# Velocity P-wave (km/s) = 7.31920 7.45785 7.38885
#
# Compressibility (1/GPa) = 0.01651567
#
# Stress axis : x y z
#
# Youngs Moduli (GPa) = 47.67071 38.15250 61.96351
#
# Poissons Ratio (x) = 0.38762 0.26764
# Poissons Ratio (y) = 0.48432 0.55310
# Poissons Ratio (z) = 0.20590 0.34056
#
# Static dielectric constant tensor:
#      x y z
#    x 3.553260 0.000000 0.000000 
#    y 0.000000 3.143430 0.000000 
#    z 0.000000 0.000000 2.908860 
# 
# 
# High freq. dielectric constant tensor:
#      x y z
#    x 1.607630 0.000000 0.000000 
#    y 0.000000 1.626070 0.000000 
#    z 0.000000 0.000000 1.594920 
# 
# From -- ./inp_files/29377.got.cif
#   From: 2010.03.12/outbox.cif.g09.slc.cpg/sg74_15_cif.got.tgz:29377.got - 2010.04.16 15:46:19.
