data_PCOD8298938
_publ_section_title
;
Structure prediction by ZEFSAII (Michael W. Deem and Ramdas Pophale) SiO2 
 PCOD8298938
Probable space group: I M M A
;
_chemical_formula_sum "Si O2"
_cell_formula_units_Z 104
_cell_length_a 32.508333
_cell_length_b 8.982352
_cell_length_c 19.940404
_cell_angle_alpha 90.000000
_cell_angle_beta 90.000000
_cell_angle_gamma 90.000000
_cell_volume 5822.623690
_symmetry_space_group_name_H-M "I M M A"
_symmetry_group_IT_number 74
_symmetry_cell_setting 'orthorhombic'
loop_
_space_group_symop_operation_xyz
x,y,z
-x,1/2-y,z
x,-y,-z
-x,1/2+y,-z
-x,-y,-z
x,1/2+y,-z
-x,y,z
x,1/2-y,z
1/2+x,1/2+y,1/2+z
1/2-x,-y,1/2+z
1/2+x,1/2-y,1/2-z
1/2-x,y,1/2-z
1/2-x,1/2-y,1/2-z
1/2+x,y,1/2-z
1/2-x,1/2+y,1/2+z
1/2+x,-y,1/2+z
loop_
_atom_site_type_symbol
_atom_site_label
_atom_site_fract_x
_atom_site_fract_y
_atom_site_fract_z
Si Si1 0.203543 0.074284 0.571157
Si Si2 0.151983 0.925587 0.198766
Si Si3 0.500000 0.075176 0.428974
Si Si4 0.874326 0.576883 0.345702
Si Si5 0.928106 0.923426 0.832067
Si Si6 0.454499 0.076903 0.182448
Si Si7 0.235518 0.075447 0.175234
O O1 0.210576 0.250000 0.566093
O O2 0.157120 0.036811 0.594827
O O3 0.211480 0.000000 0.500000
O O4 0.235285 0.008966 0.624028
O O5 0.159357 0.750000 0.192792
O O6 0.145816 0.978115 0.275835
O O7 0.112037 0.975415 0.157089
O O8 0.189907 0.012161 0.166164
O O9 0.500000 0.250000 0.438249
O O10 0.540393 0.024960 0.388949
O O11 0.500000 0.000000 0.500000
O O12 0.883193 0.750000 0.340602
O O13 0.918289 0.500496 0.360237
O O14 0.916258 0.750000 0.837775
O O15 0.948954 0.957271 0.760799
O O16 0.500000 0.018315 0.161076
O O17 0.451193 0.250000 0.167256
O O18 0.236274 0.250000 0.159357
O O19 0.250000 0.039034 0.250000
#
# Coordination Sequence:
#
# PCOD8298938 Si02
#       7
#    16  16   8  16  16  16  16
#     4  11  23  40  59  82 115 150 186 228 279 336
#     4  10  19  33  54  81 110 139 176 226 281 326
#     4  10  20  34  52  72 102 142 183 224 269 324
#     4   9  19  33  51  78 111 144 175 217 274 326
#     4   9  17  32  50  72 103 138 175 220 272 324
#     4   9  16  28  50  78 106 135 172 219 270 321
#     4  11  22  36  58  86 113 146 189 231 276 332
#
# _framework density 17.861363999999998
#
# number of rings (size 3 to 8) (size 9 to 14) (size 15 to 20)
#    0.000    2.154    2.308    1.385    0.000    3.385 
#    0.000    0.769    0.000    2.308    0.000    0.000 
#    0.000    0.000    0.000    0.000    0.000    0.000 
#
# Total GULP energy -644845.564571 kJ/mol
# GULP energy per Si atom -12400.876242 kJ/mol
# Density = 1.782071 g / cm^3
# Si number density = 17.861364 Si / 1000 Ang^3
#
#
#
# Elastic Constant Matrix: (Units=GPa)
#
#
# Indices 1 2 3 4 5 6 
#
# 1 151.5840 64.9663 51.9307 0.0000 0.0000 0.0000
# 2 64.9663 71.0925 45.5587 0.0000 0.0000 0.0000
# 3 51.9307 45.5587 84.1854 0.0000 0.0000 0.0000
# 4 0.0000 0.0000 0.0000 25.2111 0.0000 0.0000
# 5 0.0000 0.0000 0.0000 0.0000 19.6862 0.0000
# 6 0.0000 0.0000 0.0000 0.0000 0.0000 35.2787
#
#
#
# Elastic Compliance Matrix: (Units=1/GPa)
#
#
# Indices 1 2 3 4 5 6 
#
# 1 0.011076 -0.008792 -0.002074 0.000000 0.000000 0.000000
# 2 -0.008792 0.028514 -0.010007 0.000000 0.000000 0.000000
# 3 -0.002074 -0.010007 0.018574 0.000000 0.000000 0.000000
# 4 0.000000 0.000000 0.000000 0.039665 0.000000 0.000000
# 5 0.000000 0.000000 0.000000 0.000000 0.050797 0.000000
# 6 0.000000 0.000000 0.000000 0.000000 0.000000 0.028346
#
#
# Mechanical properties :
#
#
# Convention : Reuss Voigt Hill
#
# Bulk Modulus (GPa) = 60.91615 70.19704 65.55659
# Shear Modulus (GPa) = 22.30251 25.66227 23.98239
#
# Velocity S-wave (km/s) = 3.53745 3.79456 3.66826
# Velocity P-wave (km/s) = 7.13188 7.65406 7.39758
#
# Compressibility (1/GPa) = 0.01641601
#
# Stress axis : x y z
#
# Youngs Moduli (GPa) = 90.28745 35.07084 53.83971
#
# Poissons Ratio (x) = 0.30835 0.11167
# Poissons Ratio (y) = 0.79382 0.53879
# Poissons Ratio (z) = 0.18727 0.35096
#
# Static dielectric constant tensor:
#      x y z
#    x 3.573590 0.000000 0.000000 
#    y 0.000000 3.295010 0.000000 
#    z 0.000000 0.000000 3.046450 
# 
# 
# High freq. dielectric constant tensor:
#      x y z
#    x 1.706610 0.000000 0.000000 
#    y 0.000000 1.693540 0.000000 
#    z 0.000000 0.000000 1.656730 
# 
# From -- ./inp_files/55638.got.cif
#   From: 2010.03.12/outbox.cif.g09.slc.cpg/sg74_28_cif.got.tgz:55638.got - 2010.04.16 15:46:19.
