data_PCOD8298789
_publ_section_title
;
Structure prediction by ZEFSAII (Michael W. Deem and Ramdas Pophale) SiO2 
 PCOD8298789
Probable space group: I M M A
;
_chemical_formula_sum "Si O2"
_cell_formula_units_Z 96
_cell_length_a 24.286232
_cell_length_b 9.302627
_cell_length_c 22.086545
_cell_angle_alpha 90.000000
_cell_angle_beta 90.000000
_cell_angle_gamma 90.000000
_cell_volume 4989.919410
_symmetry_space_group_name_H-M "I M M A"
_symmetry_group_IT_number 74
_symmetry_cell_setting 'orthorhombic'
loop_
_space_group_symop_operation_xyz
x,y,z
-x,1/2-y,z
x,-y,-z
-x,1/2+y,-z
-x,-y,-z
x,1/2+y,-z
-x,y,z
x,1/2-y,z
1/2+x,1/2+y,1/2+z
1/2-x,-y,1/2+z
1/2+x,1/2-y,1/2-z
1/2-x,y,1/2-z
1/2-x,1/2-y,1/2-z
1/2+x,y,1/2-z
1/2-x,1/2+y,1/2+z
1/2+x,-y,1/2+z
loop_
_atom_site_type_symbol
_atom_site_label
_atom_site_fract_x
_atom_site_fract_y
_atom_site_fract_z
Si Si1 0.500000 0.916580 0.284567
Si Si2 0.884385 0.416231 0.838276
Si Si3 0.198160 0.913496 0.609027
Si Si4 0.083454 0.586864 0.557342
Si Si5 0.182988 0.078198 0.062292
Si Si6 0.500000 0.081669 0.158287
Si Si7 0.807797 0.916289 0.273566
O O1 0.500000 0.750000 0.266138
O O2 0.447941 0.954181 0.326746
O O3 0.500000 0.001895 0.222064
O O4 0.875870 0.250000 0.858168
O O5 0.861005 0.522434 0.888993
O O6 0.854173 0.447614 0.775391
O O7 0.205987 0.750000 0.630016
O O8 0.149551 0.929585 0.560331
O O9 0.255606 0.970975 0.581814
O O10 0.176918 0.002892 0.665692
O O11 0.061098 0.500000 0.500000
O O12 0.066042 0.750000 0.545591
O O13 0.053859 0.535680 0.619326
O O14 0.178228 0.250000 0.055122
O O15 0.168323 0.000000 0.000000
O O16 0.500000 0.250000 0.173243
O O17 0.802329 0.750000 0.289871
O O18 0.750000 0.977995 0.250000
#
# Coordination Sequence:
#
# PCOD8298789 Si02
#       7
#     8  16  16  16  16   8  16
#     4  10  22  39  62  87 111 144 182 226 279 332
#     4  10  21  39  59  84 116 145 182 228 274 329
#     4  10  21  35  53  81 115 148 187 230 277 330
#     4  10  21  36  53  78 111 151 194 235 275 321
#     4  11  23  38  58  83 111 147 185 227 279 333
#     4  10  21  37  57  81 113 148 187 234 280 324
#     4  10  19  32  54  83 113 146 181 223 275 326
#
# _framework density 19.238786999999999
#
# number of rings (size 3 to 8) (size 9 to 14) (size 15 to 20)
#    0.000    1.833    1.667    2.250    0.000    3.667 
#    0.000    0.417    0.000    0.000    0.000    0.000 
#    0.000    0.000    0.000    0.000    0.000    0.000 
#
# Total GULP energy -595276.443568 kJ/mol
# GULP energy per Si atom -12401.592574 kJ/mol
# Density = 1.919500 g / cm^3
# Si number density = 19.238787 Si / 1000 Ang^3
#
#
#
# Elastic Constant Matrix: (Units=GPa)
#
#
# Indices 1 2 3 4 5 6 
#
# 1 131.1206 37.9941 39.3200 0.0000 0.0000 0.0000
# 2 37.9941 74.2564 61.5558 0.0000 0.0000 0.0000
# 3 39.3200 61.5558 103.8100 0.0000 0.0000 0.0000
# 4 0.0000 0.0000 0.0000 41.3329 0.0000 0.0000
# 5 0.0000 0.0000 0.0000 0.0000 18.0222 0.0000
# 6 0.0000 0.0000 0.0000 0.0000 0.0000 13.4161
#
#
#
# Elastic Compliance Matrix: (Units=1/GPa)
#
#
# Indices 1 2 3 4 5 6 
#
# 1 0.009048 -0.003518 -0.001341 0.000000 0.000000 0.000000
# 2 -0.003518 0.027854 -0.015184 0.000000 0.000000 0.000000
# 3 -0.001341 -0.015184 0.019145 0.000000 0.000000 0.000000
# 4 0.000000 0.000000 0.000000 0.024194 0.000000 0.000000
# 5 0.000000 0.000000 0.000000 0.000000 0.055487 0.000000
# 6 0.000000 0.000000 0.000000 0.000000 0.000000 0.074537
#
#
# Mechanical properties :
#
#
# Convention : Reuss Voigt Hill
#
# Bulk Modulus (GPa) = 62.65436 65.21410 63.93423
# Shear Modulus (GPa) = 19.55646 25.90872 22.73259
#
# Velocity S-wave (km/s) = 3.19174 3.67371 3.44117
# Velocity P-wave (km/s) = 6.79855 7.20872 7.00664
#
# Compressibility (1/GPa) = 0.01596058
#
# Stress axis : x y z
#
# Youngs Moduli (GPa) = 110.52065 35.90208 52.23430
#
# Poissons Ratio (x) = 0.12629 0.07006
# Poissons Ratio (y) = 0.38878 0.79312
# Poissons Ratio (z) = 0.14824 0.54513
#
# Static dielectric constant tensor:
#      x y z
#    x 3.647980 0.000000 0.000000 
#    y 0.000000 3.439690 0.000000 
#    z 0.000000 0.000000 3.299730 
# 
# 
# High freq. dielectric constant tensor:
#      x y z
#    x 1.758010 0.000000 0.000000 
#    y 0.000000 1.742530 0.000000 
#    z 0.000000 0.000000 1.741660 
# 
# From -- ./inp_files/61962.got.cif
#   From: 2010.03.12/outbox.cif.g09.slc.cpg/sg74_31_cif.got.tgz:61962.got - 2010.04.16 15:46:19.
