data_PCOD8298465
_publ_section_title
;
Structure prediction by ZEFSAII (Michael W. Deem and Ramdas Pophale) SiO2 
 PCOD8298465
Probable space group: I M M A
;
_chemical_formula_sum "Si O2"
_cell_formula_units_Z 128
_cell_length_a 17.524336
_cell_length_b 21.818180
_cell_length_c 17.679317
_cell_angle_alpha 90.000000
_cell_angle_beta 90.000000
_cell_angle_gamma 90.000000
_cell_volume 6759.671248
_symmetry_space_group_name_H-M "I M M A"
_symmetry_group_IT_number 74
_symmetry_cell_setting 'orthorhombic'
loop_
_space_group_symop_operation_xyz
x,y,z
-x,1/2-y,z
x,-y,-z
-x,1/2+y,-z
-x,-y,-z
x,1/2+y,-z
-x,y,z
x,1/2-y,z
1/2+x,1/2+y,1/2+z
1/2-x,-y,1/2+z
1/2+x,1/2-y,1/2-z
1/2-x,y,1/2-z
1/2-x,1/2-y,1/2-z
1/2+x,y,1/2-z
1/2-x,1/2+y,1/2+z
1/2+x,-y,1/2+z
loop_
_atom_site_type_symbol
_atom_site_label
_atom_site_fract_x
_atom_site_fract_y
_atom_site_fract_z
Si Si1 0.322398 0.408348 0.932163
Si Si2 0.670692 0.430246 0.283213
Si Si3 0.414758 0.614658 0.330373
Si Si4 0.328261 0.015322 0.578601
Si Si5 0.732167 0.184623 0.663180
Si Si6 0.589453 0.178444 0.047950
Si Si7 0.085426 0.533570 0.308271
Si Si8 0.089409 0.682169 0.722577
O O1 0.250987 0.452689 0.949453
O O2 0.291505 0.362121 0.870162
O O3 0.387641 0.449376 0.892755
O O4 0.357563 0.369817 0.001903
O O5 0.750000 0.408308 0.250000
O O6 0.683069 0.455452 0.368415
O O7 0.638956 0.482463 0.227893
O O8 0.619793 0.368854 0.281170
O O9 0.500000 0.635096 0.353655
O O10 0.388503 0.557019 0.378854
O O11 0.356939 0.669269 0.347651
O O12 0.412488 0.594942 0.242523
O O13 0.369798 0.000000 0.500000
O O14 0.744967 0.250000 0.623438
O O15 0.750000 0.188002 0.750000
O O16 0.500000 0.165681 0.030718
O O17 0.607779 0.250000 0.027880
O O18 0.608816 0.165469 0.135538
O O19 0.000000 0.506770 0.313447
O O20 0.123025 0.750000 0.741877
O O21 0.000000 0.684530 0.733238
#
# Coordination Sequence:
#
# PCOD8298465 Si02
#       8
#    16  16  16  16  16  16  16  16
#     4  11  19  32  54  77 115 154 186 227 279 338
#     4  11  21  36  59  82 114 148 187 233 279 338
#     4   9  19  35  54  72 102 143 184 232 280 323
#     4  10  23  37  55  84 114 145 183 234 286 335
#     4  10  19  31  49  73 105 142 186 233 279 326
#     4   9  19  35  55  83 119 155 191 233 282 341
#     4  10  19  32  51  79 108 145 187 227 274 330
#     4   9  20  40  63  87 116 148 185 234 291 348
#
# _framework density 18.935832000000001
#
# number of rings (size 3 to 8) (size 9 to 14) (size 15 to 20)
#    0.000    2.125    2.500    1.875    1.750    1.250 
#    0.000    0.000    0.000    3.750    0.000    0.000 
#    0.000    0.000    0.000    0.000    0.000    0.000 
#
# Total GULP energy -793083.023061 kJ/mol
# GULP energy per Si atom -12391.922235 kJ/mol
# Density = 1.889273 g / cm^3
# Si number density = 18.935832 Si / 1000 Ang^3
#
#
#
# Elastic Constant Matrix: (Units=GPa)
#
#
# Indices 1 2 3 4 5 6 
#
# 1 75.1134 19.2930 18.3661 0.0000 0.0000 0.0000
# 2 19.2930 94.9529 38.6084 0.0000 0.0000 0.0000
# 3 18.3661 38.6084 71.2492 0.0000 0.0000 0.0000
# 4 0.0000 0.0000 0.0000 24.8709 0.0000 0.0000
# 5 0.0000 0.0000 0.0000 0.0000 13.7957 0.0000
# 6 0.0000 0.0000 0.0000 0.0000 0.0000 27.2363
#
#
#
# Elastic Compliance Matrix: (Units=1/GPa)
#
#
# Indices 1 2 3 4 5 6 
#
# 1 0.014451 -0.001823 -0.002737 0.000000 0.000000 0.000000
# 2 -0.001823 0.013738 -0.006974 0.000000 0.000000 0.000000
# 3 -0.002737 -0.006974 0.018520 0.000000 0.000000 0.000000
# 4 0.000000 0.000000 0.000000 0.040208 0.000000 0.000000
# 5 0.000000 0.000000 0.000000 0.000000 0.072487 0.000000
# 6 0.000000 0.000000 0.000000 0.000000 0.000000 0.036716
#
#
# Mechanical properties :
#
#
# Convention : Reuss Voigt Hill
#
# Bulk Modulus (GPa) = 42.30218 43.76117 43.03168
# Shear Modulus (GPa) = 22.01993 24.18378 23.10185
#
# Velocity S-wave (km/s) = 3.41379 3.57759 3.49665
# Velocity P-wave (km/s) = 6.15848 6.34239 6.25111
#
# Compressibility (1/GPa) = 0.02363944
#
# Stress axis : x y z
#
# Youngs Moduli (GPa) = 69.20060 72.79216 53.99589
#
# Poissons Ratio (x) = 0.13272 0.14779
# Poissons Ratio (y) = 0.12617 0.37658
# Poissons Ratio (z) = 0.18940 0.50767
#
# Static dielectric constant tensor:
#      x y z
#    x 3.461160 0.000000 0.000000 
#    y 0.000000 3.734990 0.000000 
#    z 0.000000 0.000000 3.302980 
# 
# 
# High freq. dielectric constant tensor:
#      x y z
#    x 1.736780 0.000000 0.000000 
#    y 0.000000 1.735020 0.000000 
#    z 0.000000 0.000000 1.716830 
# 
# From -- ./inp_files/44606.got.cif
#   From: 2010.03.12/outbox.cif.g09.slc.cpg/sg74_23_cif.got.tgz:44606.got - 2010.04.16 15:46:19.
