data_PCOD8298197
_publ_section_title
;
Structure prediction by ZEFSAII (Michael W. Deem and Ramdas Pophale) SiO2 
 PCOD8298197
Probable space group: I M M A
;
_chemical_formula_sum "Si O2"
_cell_formula_units_Z 96
_cell_length_a 9.148054
_cell_length_b 20.871306
_cell_length_c 30.325979
_cell_angle_alpha 90.000000
_cell_angle_beta 90.000000
_cell_angle_gamma 90.000000
_cell_volume 5790.194799
_symmetry_space_group_name_H-M "I M M A"
_symmetry_group_IT_number 74
_symmetry_cell_setting 'orthorhombic'
loop_
_space_group_symop_operation_xyz
x,y,z
-x,1/2-y,z
x,-y,-z
-x,1/2+y,-z
-x,-y,-z
x,1/2+y,-z
-x,y,z
x,1/2-y,z
1/2+x,1/2+y,1/2+z
1/2-x,-y,1/2+z
1/2+x,1/2-y,1/2-z
1/2-x,y,1/2-z
1/2-x,1/2-y,1/2-z
1/2+x,y,1/2-z
1/2-x,1/2+y,1/2+z
1/2+x,-y,1/2+z
loop_
_atom_site_type_symbol
_atom_site_label
_atom_site_fract_x
_atom_site_fract_y
_atom_site_fract_z
Si Si1 0.834132 0.820417 0.494552
Si Si2 0.333336 0.153834 0.592324
Si Si3 0.169576 0.510133 0.118244
Si Si4 0.328875 0.951104 0.961061
Si Si5 0.834009 0.181136 0.677038
Si Si6 0.173231 0.043650 0.706283
O O1 0.818113 0.750000 0.517603
O O2 0.734684 0.819827 0.451941
O O3 0.788562 0.877950 0.526811
O O4 0.000000 0.832384 0.479033
O O5 0.500000 0.174386 0.592656
O O6 0.311402 0.078127 0.595044
O O7 0.260631 0.188058 0.633490
O O8 0.238864 0.460715 0.083799
O O9 0.258267 0.507846 0.164136
O O10 0.000000 0.493704 0.127493
O O11 0.500000 0.960867 0.951188
O O12 0.279698 0.000000 0.000000
O O13 0.817680 0.250000 0.702639
O O14 0.785966 0.119695 0.705621
O O15 0.000000 0.169784 0.661977
O O16 0.250000 0.015389 0.750000
O O17 0.000000 0.031170 0.707954
#
# Coordination Sequence:
#
# PCOD8298197 Si02
#       6
#    16  16  16  16  16  16
#     4  10  20  32  46  66  95 129 163 200 242 287
#     4  10  19  29  43  65  92 122 160 205 245 281
#     4  10  20  33  50  71  95 124 161 203 246 288
#     4  10  19  32  51  72  95 128 168 203 239 288
#     4   9  18  31  45  61  85 121 161 198 241 292
#     4  10  20  34  51  69  92 120 155 200 249 295
#
# _framework density 16.579753
#
# number of rings (size 3 to 8) (size 9 to 14) (size 15 to 20)
#    0.000    2.167    1.667    2.000    0.000    6.000 
#    0.000    0.000    0.000    0.000    0.000    0.000 
#    0.000    0.667    0.000    1.833    0.000    2.667 
#
# Total GULP energy -594982.215519 kJ/mol
# GULP energy per Si atom -12395.462823 kJ/mol
# Density = 1.654202 g / cm^3
# Si number density = 16.579753 Si / 1000 Ang^3
#
#
#
# Elastic Constant Matrix: (Units=GPa)
#
#
# Indices 1 2 3 4 5 6 
#
# 1 75.6066 26.3697 53.7498 0.0000 0.0000 0.0000
# 2 26.3697 71.4551 41.1952 0.0000 0.0000 0.0000
# 3 53.7498 41.1952 105.3596 0.0000 0.0000 0.0000
# 4 0.0000 0.0000 0.0000 20.4075 0.0000 0.0000
# 5 0.0000 0.0000 0.0000 0.0000 29.0490 0.0000
# 6 0.0000 0.0000 0.0000 0.0000 0.0000 17.3168
#
#
#
# Elastic Compliance Matrix: (Units=1/GPa)
#
#
# Indices 1 2 3 4 5 6 
#
# 1 0.020978 -0.002029 -0.009909 0.000000 0.000000 0.000000
# 2 -0.002029 0.018264 -0.006106 0.000000 0.000000 0.000000
# 3 -0.009909 -0.006106 0.016934 0.000000 0.000000 0.000000
# 4 0.000000 0.000000 0.000000 0.049002 0.000000 0.000000
# 5 0.000000 0.000000 0.000000 0.000000 0.034425 0.000000
# 6 0.000000 0.000000 0.000000 0.000000 0.000000 0.057747
#
#
# Mechanical properties :
#
#
# Convention : Reuss Voigt Hill
#
# Bulk Modulus (GPa) = 49.78069 55.00562 52.39316
# Shear Modulus (GPa) = 20.82175 22.09509 21.45842
#
# Velocity S-wave (km/s) = 3.54765 3.65451 3.60148
# Velocity P-wave (km/s) = 6.84626 7.14533 6.99739
#
# Compressibility (1/GPa) = 0.02008811
#
# Stress axis : x y z
#
# Youngs Moduli (GPa) = 47.66797 54.75307 59.05376
#
# Poissons Ratio (x) = 0.11111 0.58515
# Poissons Ratio (y) = 0.09673 0.36057
# Poissons Ratio (z) = 0.47233 0.33431
#
# Static dielectric constant tensor:
#      x y z
#    x 3.172040 0.000000 0.000000 
#    y 0.000000 3.003640 0.000000 
#    z 0.000000 0.000000 2.911150 
# 
# 
# High freq. dielectric constant tensor:
#      x y z
#    x 1.649200 0.000000 0.000000 
#    y 0.000000 1.612370 0.000000 
#    z 0.000000 0.000000 1.615360 
# 
# From -- ./inp_files/64262.got.cif
#   From: 2010.03.12/outbox.cif.g09.slc.cpg/sg74_33_cif.got.tgz:64262.got - 2010.04.16 15:46:19.
