data_PCOD8298912
_publ_section_title
;
Structure prediction by ZEFSAII (Michael W. Deem and Ramdas Pophale) SiO2 
 PCOD8298912
Probable space group: I M M A
;
_chemical_formula_sum "Si O2"
_cell_formula_units_Z 96
_cell_length_a 25.535735
_cell_length_b 17.365956
_cell_length_c 11.833597
_cell_angle_alpha 90.000000
_cell_angle_beta 90.000000
_cell_angle_gamma 90.000000
_cell_volume 5247.637587
_symmetry_space_group_name_H-M "I M M A"
_symmetry_group_IT_number 74
_symmetry_cell_setting 'orthorhombic'
loop_
_space_group_symop_operation_xyz
x,y,z
-x,1/2-y,z
x,-y,-z
-x,1/2+y,-z
-x,-y,-z
x,1/2+y,-z
-x,y,z
x,1/2-y,z
1/2+x,1/2+y,1/2+z
1/2-x,-y,1/2+z
1/2+x,1/2-y,1/2-z
1/2-x,y,1/2-z
1/2-x,1/2-y,1/2-z
1/2+x,y,1/2-z
1/2-x,1/2+y,1/2+z
1/2+x,-y,1/2+z
loop_
_atom_site_type_symbol
_atom_site_label
_atom_site_fract_x
_atom_site_fract_y
_atom_site_fract_z
Si Si1 0.000000 0.158065 0.622593
Si Si2 0.904510 0.089998 0.009656
Si Si3 0.806905 0.841164 0.376709
Si Si4 0.500000 0.159093 0.624362
Si Si5 0.402578 0.341650 0.019113
Si Si6 0.561202 0.659244 0.737423
Si Si7 0.689159 0.841221 0.378485
O O1 0.949057 0.125778 0.558897
O O2 0.000000 0.250000 0.622486
O O3 0.000000 0.124977 0.749355
O O4 0.847796 0.113127 0.963686
O O5 0.948332 0.133044 0.938637
O O6 0.908699 0.114307 0.139657
O O7 0.913630 0.000000 0.000000
O O8 0.808094 0.750000 0.377453
O O9 0.847862 0.874321 0.468911
O O10 0.748342 0.867625 0.408308
O O11 0.823239 0.866984 0.250248
O O12 0.500000 0.250000 0.627529
O O13 0.403510 0.250000 0.015292
O O14 0.411356 0.369245 0.147147
O O15 0.500000 0.637376 0.739642
O O16 0.568152 0.750000 0.719024
O O17 0.681215 0.750000 0.394400
#
# Coordination Sequence:
#
# PCOD8298912 Si02
#       7
#     8  16  16   8  16  16  16
#     4   9  16  26  49  85 112 127 157 216 275 311
#     4  12  24  36  52  74 108 143 178 217 265 314
#     4   8  15  29  56  86 107 130 171 227 276 308
#     4  11  21  34  55  81 103 130 175 226 266 309
#     4   9  15  27  49  82 113 134 165 211 261 315
#     4  10  19  33  54  77 107 147 178 204 252 320
#     4   9  17  33  57  82 104 134 177 225 270 314
#
# _framework density 18.293946999999999
#
# number of rings (size 3 to 8) (size 9 to 14) (size 15 to 20)
#    0.000    2.333    1.667    3.750    0.000    2.667 
#    0.000    0.833    7.333    8.000    0.000    0.000 
#    0.000    0.000    0.000    0.000    0.000    0.000 
#
# Total GULP energy -595130.555664 kJ/mol
# GULP energy per Si atom -12398.553243 kJ/mol
# Density = 1.825231 g / cm^3
# Si number density = 18.293947 Si / 1000 Ang^3
#
#
#
# Elastic Constant Matrix: (Units=GPa)
#
#
# Indices 1 2 3 4 5 6 
#
# 1 136.0236 18.5687 86.0442 0.0000 0.0000 0.0000
# 2 18.5687 33.1760 26.1114 0.0000 0.0000 0.0000
# 3 86.0442 26.1114 166.7818 0.0000 0.0000 0.0000
# 4 0.0000 0.0000 0.0000 -1.1961 0.0000 0.0000
# 5 0.0000 0.0000 0.0000 0.0000 55.0471 0.0000
# 6 0.0000 0.0000 0.0000 0.0000 0.0000 5.7184
#
#
#
# Elastic Compliance Matrix: (Units=1/GPa)
#
#
# Indices 1 2 3 4 5 6 
#
# 1 0.011021 -0.001931 -0.005383 0.000000 0.000000 0.000000
# 2 -0.001931 0.034717 -0.004439 0.000000 0.000000 0.000000
# 3 -0.005383 -0.004439 0.009468 0.000000 0.000000 0.000000
# 4 0.000000 0.000000 0.000000 -0.836023 0.000000 0.000000
# 5 0.000000 0.000000 0.000000 0.000000 0.018166 0.000000
# 6 0.000000 0.000000 0.000000 0.000000 0.000000 0.174874
#
#
# Mechanical properties :
#
#
# Convention : Reuss Voigt Hill
#
# Bulk Modulus (GPa) = 31.54710 66.38111 48.96411
# Shear Modulus (GPa) = -9.03010 25.59767 8.28379
#
# Velocity S-wave (km/s) = -2.22415 3.74470 2.13026
# Velocity P-wave (km/s) = 3.26898 7.42036 5.73358
#
# Compressibility (1/GPa) = 0.03169863
#
# Stress axis : x y z
#
# Youngs Moduli (GPa) = 90.73928 28.80440 105.61805
#
# Poissons Ratio (x) = 0.05563 0.56857
# Poissons Ratio (y) = 0.17525 0.46883
# Poissons Ratio (z) = 0.48847 0.12786
#
# Static dielectric constant tensor:
#      x y z
#    x 3.696880 0.000000 0.000000 
#    y 0.000000 2.798320 0.000000 
#    z 0.000000 0.000000 3.621870 
# 
# 
# High freq. dielectric constant tensor:
#      x y z
#    x 1.716420 0.000000 0.000000 
#    y 0.000000 1.657230 0.000000 
#    z 0.000000 0.000000 1.718720 
# 
# From -- ./inp_files/25219.got.cif
#   From: 2010.03.12/outbox.cif.g09.slc.cpg/sg74_13_cif.got.tgz:25219.got - 2010.04.16 15:46:19.
