data_PCOD8298266
_publ_section_title
;
Structure prediction by ZEFSAII (Michael W. Deem and Ramdas Pophale) SiO2 
 PCOD8298266
Probable space group: I M M A
;
_chemical_formula_sum "Si O2"
_cell_formula_units_Z 96
_cell_length_a 20.885931
_cell_length_b 9.041171
_cell_length_c 30.644694
_cell_angle_alpha 90.000000
_cell_angle_beta 90.000000
_cell_angle_gamma 90.000000
_cell_volume 5786.737888
_symmetry_space_group_name_H-M "I M M A"
_symmetry_group_IT_number 74
_symmetry_cell_setting 'orthorhombic'
loop_
_space_group_symop_operation_xyz
x,y,z
-x,1/2-y,z
x,-y,-z
-x,1/2+y,-z
-x,-y,-z
x,1/2+y,-z
-x,y,z
x,1/2-y,z
1/2+x,1/2+y,1/2+z
1/2-x,-y,1/2+z
1/2+x,1/2-y,1/2-z
1/2-x,y,1/2-z
1/2-x,1/2-y,1/2-z
1/2+x,y,1/2-z
1/2-x,1/2+y,1/2+z
1/2+x,-y,1/2+z
loop_
_atom_site_type_symbol
_atom_site_label
_atom_site_fract_x
_atom_site_fract_y
_atom_site_fract_z
Si Si1 0.304792 0.925709 0.042668
Si Si2 0.928932 0.420570 0.428777
Si Si3 0.200753 0.922989 0.786816
Si Si4 0.429810 0.918285 0.756250
Si Si5 0.904666 0.418165 0.657523
Si Si6 0.260067 0.583233 0.136033
O O1 0.305835 0.750000 0.038326
O O2 0.265735 0.975187 0.085964
O O3 0.378179 0.981053 0.044824
O O4 0.272218 0.000000 0.000000
O O5 0.906623 0.250000 0.429664
O O6 0.932946 0.475674 0.379172
O O7 0.000000 0.437810 0.449455
O O8 0.211832 0.750000 0.790464
O O9 0.250000 0.986896 0.750000
O O10 0.127477 0.965777 0.775872
O O11 0.211990 0.987574 0.835039
O O12 0.500000 0.929925 0.733087
O O13 0.417139 0.750000 0.772197
O O14 0.431818 0.027541 0.796872
O O15 0.927049 0.250000 0.648684
O O16 0.828389 0.427317 0.659069
O O17 0.234202 0.750000 0.135430
#
# Coordination Sequence:
#
# PCOD8298266 Si02
#       6
#    16  16  16  16  16  16
#     4  10  21  36  52  71  92 118 153 195 245 292
#     4  10  20  32  46  64  88 122 161 200 244 288
#     4  10  19  31  49  72  94 125 168 201 231 282
#     4  10  20  32  45  65  96 129 161 201 243 281
#     4  10  19  30  45  66  92 123 162 204 243 283
#     4   9  19  33  49  70  94 122 156 197 241 282
#
# _framework density 16.589656999999999
#
# number of rings (size 3 to 8) (size 9 to 14) (size 15 to 20)
#    0.000    2.167    1.667    3.000    0.000    8.333 
#    0.000    0.000    0.000    0.000    0.000    0.000 
#    0.000    0.667    0.000    1.500    0.000    2.333 
#
# Total GULP energy -595011.551556 kJ/mol
# GULP energy per Si atom -12396.073991 kJ/mol
# Density = 1.655190 g / cm^3
# Si number density = 16.589657 Si / 1000 Ang^3
#
#
#
# Elastic Constant Matrix: (Units=GPa)
#
#
# Indices 1 2 3 4 5 6 
#
# 1 76.6092 22.9982 46.3689 0.0000 0.0000 0.0000
# 2 22.9982 58.2480 35.6394 0.0000 0.0000 0.0000
# 3 46.3689 35.6394 110.6283 0.0000 0.0000 0.0000
# 4 0.0000 0.0000 0.0000 30.1194 0.0000 0.0000
# 5 0.0000 0.0000 0.0000 0.0000 8.9665 0.0000
# 6 0.0000 0.0000 0.0000 0.0000 0.0000 16.9677
#
#
#
# Elastic Compliance Matrix: (Units=1/GPa)
#
#
# Indices 1 2 3 4 5 6 
#
# 1 0.017926 -0.003090 -0.006518 0.000000 0.000000 0.000000
# 2 -0.003090 0.021915 -0.005765 0.000000 0.000000 0.000000
# 3 -0.006518 -0.005765 0.013629 0.000000 0.000000 0.000000
# 4 0.000000 0.000000 0.000000 0.033201 0.000000 0.000000
# 5 0.000000 0.000000 0.000000 0.000000 0.111526 0.000000
# 6 0.000000 0.000000 0.000000 0.000000 0.000000 0.058936
#
#
# Mechanical properties :
#
#
# Convention : Reuss Voigt Hill
#
# Bulk Modulus (GPa) = 44.00625 50.61094 47.30860
# Shear Modulus (GPa) = 16.92315 20.57598 18.74956
#
# Velocity S-wave (km/s) = 3.19737 3.52560 3.36549
# Velocity P-wave (km/s) = 6.34151 6.86636 6.60915
#
# Compressibility (1/GPa) = 0.02272404
#
# Stress axis : x y z
#
# Youngs Moduli (GPa) = 55.78490 45.63036 73.37514
#
# Poissons Ratio (x) = 0.14098 0.47828
# Poissons Ratio (y) = 0.17235 0.42302
# Poissons Ratio (z) = 0.36362 0.26306
#
# Static dielectric constant tensor:
#      x y z
#    x 2.993470 0.000000 0.000000 
#    y 0.000000 3.158160 0.000000 
#    z 0.000000 0.000000 3.079440 
# 
# 
# High freq. dielectric constant tensor:
#      x y z
#    x 1.605920 0.000000 0.000000 
#    y 0.000000 1.646220 0.000000 
#    z 0.000000 0.000000 1.622110 
# 
# From -- ./inp_files/64261.got.cif
#   From: 2010.03.12/outbox.cif.g09.slc.cpg/sg74_33_cif.got.tgz:64261.got - 2010.04.16 15:46:19.
