data_PCOD8298113
_publ_section_title
;
Structure prediction by ZEFSAII (Michael W. Deem and Ramdas Pophale) SiO2 
 PCOD8298113
Probable space group: I M M A
;
_chemical_formula_sum "Si O2"
_cell_formula_units_Z 104
_cell_length_a 17.787274
_cell_length_b 17.763950
_cell_length_c 17.951580
_cell_angle_alpha 90.000000
_cell_angle_beta 90.000000
_cell_angle_gamma 90.000000
_cell_volume 5672.201051
_symmetry_space_group_name_H-M "I M M A"
_symmetry_group_IT_number 74
_symmetry_cell_setting 'orthorhombic'
loop_
_space_group_symop_operation_xyz
x,y,z
-x,1/2-y,z
x,-y,-z
-x,1/2+y,-z
-x,-y,-z
x,1/2+y,-z
-x,y,z
x,1/2-y,z
1/2+x,1/2+y,1/2+z
1/2-x,-y,1/2+z
1/2+x,1/2-y,1/2-z
1/2-x,y,1/2-z
1/2-x,1/2-y,1/2-z
1/2+x,y,1/2-z
1/2-x,1/2+y,1/2+z
1/2+x,-y,1/2+z
loop_
_atom_site_type_symbol
_atom_site_label
_atom_site_fract_x
_atom_site_fract_y
_atom_site_fract_z
Si Si1 0.324904 0.408925 0.623481
Si Si2 0.914601 0.597059 0.671937
Si Si3 0.174825 0.889472 0.960406
Si Si4 0.729191 0.250000 0.993420
Si Si5 0.303589 0.999427 0.918226
Si Si6 0.913934 0.948461 0.834824
Si Si7 0.912696 0.750000 0.588830
Si Si8 0.787204 0.750000 0.168834
O O1 0.361240 0.409006 0.540592
O O2 0.233144 0.422404 0.612912
O O3 0.366747 0.473501 0.670487
O O4 0.336174 0.327102 0.662585
O O5 0.863347 0.531279 0.639262
O O6 0.900722 0.599011 0.759813
O O7 0.893122 0.677810 0.638749
O O8 0.000000 0.576070 0.652086
O O9 0.227614 0.952766 0.925991
O O10 0.107638 0.889023 0.900272
O O11 0.226609 0.817339 0.967969
O O12 0.731331 0.250000 0.903343
O O13 0.641225 0.250000 0.016540
O O14 0.342932 0.000000 0.000000
O O15 0.000000 0.972283 0.844657
O O16 0.000000 0.750000 0.562729
O O17 0.750000 0.750000 0.250000
#
# Coordination Sequence:
#
# PCOD8298113 Si02
#       8
#    16  16  16   8  16  16   8   8
#     4   9  20  35  56  80 105 137 184 229 275 329
#     4  10  21  34  51  79 113 149 183 223 274 323
#     4   9  18  33  54  82 105 139 187 227 267 323
#     4  10  18  37  57  81 116 143 187 229 262 332
#     4   9  17  32  53  76 104 139 181 228 269 317
#     4  10  21  36  54  78 112 148 183 227 279 330
#     4  10  20  37  57  79 117 158 184 217 271 326
#     4  10  22  36  58  86 107 139 177 234 287 320
#
# _framework density 18.335035000000001
#
# number of rings (size 3 to 8) (size 9 to 14) (size 15 to 20)
#    0.000    2.462    1.538    1.385    2.154    4.000 
#    0.000    2.308    0.000    3.692    0.000    0.000 
#    0.000    0.000    0.000    0.000    0.000    0.000 
#
# Total GULP energy -644211.873833 kJ/mol
# GULP energy per Si atom -12388.689881 kJ/mol
# Density = 1.829330 g / cm^3
# Si number density = 18.335035 Si / 1000 Ang^3
#
#
#
# Elastic Constant Matrix: (Units=GPa)
#
#
# Indices 1 2 3 4 5 6 
#
# 1 63.3689 29.4969 48.5010 0.0000 0.0000 0.0000
# 2 29.4969 79.1310 30.9494 0.0000 0.0000 0.0000
# 3 48.5010 30.9494 109.9237 0.0000 0.0000 0.0000
# 4 0.0000 0.0000 0.0000 -5.0966 0.0000 0.0000
# 5 0.0000 0.0000 0.0000 0.0000 28.5560 0.0000
# 6 0.0000 0.0000 0.0000 0.0000 0.0000 17.1089
#
#
#
# Elastic Compliance Matrix: (Units=1/GPa)
#
#
# Indices 1 2 3 4 5 6 
#
# 1 0.026038 -0.005858 -0.009839 0.000000 0.000000 0.000000
# 2 -0.005858 0.015519 -0.001785 0.000000 0.000000 0.000000
# 3 -0.009839 -0.001785 0.013941 0.000000 0.000000 0.000000
# 4 0.000000 0.000000 0.000000 -0.196211 0.000000 0.000000
# 5 0.000000 0.000000 0.000000 0.000000 0.035019 0.000000
# 6 0.000000 0.000000 0.000000 0.000000 0.000000 0.058449
#
#
# Mechanical properties :
#
#
# Convention : Reuss Voigt Hill
#
# Bulk Modulus (GPa) = 48.69902 52.25757 50.47829
# Shear Modulus (GPa) = -919.73964 17.67874 -451.03045
#
# Velocity S-wave (km/s) = -22.42139 3.10853 -15.70120
# Velocity P-wave (km/s) = 25.37071 6.43796 17.35261
#
# Compressibility (1/GPa) = 0.02053430
#
# Stress axis : x y z
#
# Youngs Moduli (GPa) = 38.40533 64.43781 71.73016
#
# Poissons Ratio (x) = 0.37745 0.70578
# Poissons Ratio (y) = 0.22496 0.12803
# Poissons Ratio (z) = 0.37789 0.11501
#
# Static dielectric constant tensor:
#      x y z
#    x 3.166150 0.000000 0.000000 
#    y 0.000000 2.773560 0.000000 
#    z 0.000000 0.000000 3.513150 
# 
# 
# High freq. dielectric constant tensor:
#      x y z
#    x 1.683260 0.000000 0.000000 
#    y 0.000000 1.715450 0.000000 
#    z 0.000000 0.000000 1.713310 
# 
# From -- ./inp_files/44220.got.cif
#   From: 2010.03.12/outbox.cif.g09.slc.cpg/sg74_23_cif.got.tgz:44220.got - 2010.04.16 15:46:19.
