data_PCOD8298690
_publ_section_title
;
Structure prediction by ZEFSAII (Michael W. Deem and Ramdas Pophale) SiO2 
 PCOD8298690
Probable space group: I M M A
;
_chemical_formula_sum "Si O2"
_cell_formula_units_Z 96
_cell_length_a 19.019534
_cell_length_b 16.802271
_cell_length_c 17.706632
_cell_angle_alpha 90.000000
_cell_angle_beta 90.000000
_cell_angle_gamma 90.000000
_cell_volume 5658.532550
_symmetry_space_group_name_H-M "I M M A"
_symmetry_group_IT_number 74
_symmetry_cell_setting 'orthorhombic'
loop_
_space_group_symop_operation_xyz
x,y,z
-x,1/2-y,z
x,-y,-z
-x,1/2+y,-z
-x,-y,-z
x,1/2+y,-z
-x,y,z
x,1/2-y,z
1/2+x,1/2+y,1/2+z
1/2-x,-y,1/2+z
1/2+x,1/2-y,1/2-z
1/2-x,y,1/2-z
1/2-x,1/2-y,1/2-z
1/2+x,y,1/2-z
1/2-x,1/2+y,1/2+z
1/2+x,-y,1/2+z
loop_
_atom_site_type_symbol
_atom_site_label
_atom_site_fract_x
_atom_site_fract_y
_atom_site_fract_z
Si Si1 0.422631 0.343338 0.962470
Si Si2 0.714204 0.524274 0.829907
Si Si3 0.918160 0.157911 0.846499
Si Si4 0.079502 0.569091 0.307500
Si Si5 0.208450 0.342619 0.445527
Si Si6 0.805823 0.428032 0.944889
O O1 0.500000 0.367159 0.993184
O O2 0.413166 0.250000 0.956030
O O3 0.410915 0.375226 0.879202
O O4 0.364999 0.376475 0.020615
O O5 0.750000 0.530649 0.750000
O O6 0.632423 0.504476 0.815862
O O7 0.721605 0.610080 0.868610
O O8 0.751692 0.457095 0.880645
O O9 0.894799 0.250000 0.846972
O O10 0.900954 0.122417 0.764579
O O11 0.875693 0.108572 0.908932
O O12 0.000000 0.149218 0.866625
O O13 0.000000 0.535448 0.301071
O O14 0.206160 0.250000 0.425515
O O15 0.269045 0.358779 0.506658
O O16 0.827933 0.500000 0.000000
#
# Coordination Sequence:
#
# PCOD8298690 Si02
#       6
#    16  16  16  16  16  16
#     4   9  17  30  49  76 109 138 165 201 246 300
#     4  11  21  36  53  75 104 136 176 215 255 306
#     4  10  20  34  53  78 106 136 170 207 255 312
#     4  10  19  32  51  77 108 140 169 202 250 305
#     4  10  21  35  53  76 103 136 174 215 258 304
#     4  10  20  35  54  77 104 131 169 217 259 304
#
# _framework density 16.965529
#
# number of rings (size 3 to 8) (size 9 to 14) (size 15 to 20)
#    0.000    2.000    3.333    1.000    0.000    3.333 
#    0.000    2.500    0.000    0.000    0.000    0.000 
#    0.000    0.000    0.000    0.000    0.000    0.000 
#
# Total GULP energy -595215.043818 kJ/mol
# GULP energy per Si atom -12400.313413 kJ/mol
# Density = 1.692691 g / cm^3
# Si number density = 16.965529 Si / 1000 Ang^3
#
#
#
# Elastic Constant Matrix: (Units=GPa)
#
#
# Indices 1 2 3 4 5 6 
#
# 1 78.9920 37.4642 38.0600 0.0000 0.0000 0.0000
# 2 37.4642 66.4908 38.3388 0.0000 0.0000 0.0000
# 3 38.0600 38.3388 90.9926 0.0000 0.0000 0.0000
# 4 0.0000 0.0000 0.0000 15.5993 0.0000 0.0000
# 5 0.0000 0.0000 0.0000 0.0000 23.2871 0.0000
# 6 0.0000 0.0000 0.0000 0.0000 0.0000 24.4260
#
#
#
# Elastic Compliance Matrix: (Units=1/GPa)
#
#
# Indices 1 2 3 4 5 6 
#
# 1 0.018535 -0.007890 -0.004428 0.000000 0.000000 0.000000
# 2 -0.007890 0.023225 -0.006485 0.000000 0.000000 0.000000
# 3 -0.004428 -0.006485 0.015575 0.000000 0.000000 0.000000
# 4 0.000000 0.000000 0.000000 0.064106 0.000000 0.000000
# 5 0.000000 0.000000 0.000000 0.000000 0.042942 0.000000
# 6 0.000000 0.000000 0.000000 0.000000 0.000000 0.040940
#
#
# Mechanical properties :
#
#
# Convention : Reuss Voigt Hill
#
# Bulk Modulus (GPa) = 50.69182 51.57792 51.13487
# Shear Modulus (GPa) = 20.03956 20.83663 20.43809
#
# Velocity S-wave (km/s) = 3.44058 3.50833 3.47462
# Velocity P-wave (km/s) = 6.76222 6.84681 6.80465
#
# Compressibility (1/GPa) = 0.01972705
#
# Stress axis : x y z
#
# Youngs Moduli (GPa) = 53.95076 43.05724 64.20673
#
# Poissons Ratio (x) = 0.33974 0.28433
# Poissons Ratio (y) = 0.42569 0.41640
# Poissons Ratio (z) = 0.23892 0.27924
#
# Static dielectric constant tensor:
#      x y z
#    x 3.322470 0.000000 0.000000 
#    y 0.000000 3.007880 0.000000 
#    z 0.000000 0.000000 3.137500 
# 
# 
# High freq. dielectric constant tensor:
#      x y z
#    x 1.660390 0.000000 0.000000 
#    y 0.000000 1.643720 0.000000 
#    z 0.000000 0.000000 1.653480 
# 
# From -- ./inp_files/32378.got.cif
#   From: 2010.03.12/outbox.cif.g09.slc.cpg/sg74_17_cif.got.tgz:32378.got - 2010.04.16 15:46:19.
