data_PCOD8298592
_publ_section_title
;
Structure prediction by ZEFSAII (Michael W. Deem and Ramdas Pophale) SiO2 
 PCOD8298592
Probable space group: I M M A
;
_chemical_formula_sum "Si O2"
_cell_formula_units_Z 128
_cell_length_a 28.937405
_cell_length_b 25.879959
_cell_length_c 9.802752
_cell_angle_alpha 90.000000
_cell_angle_beta 90.000000
_cell_angle_gamma 90.000000
_cell_volume 7341.269748
_symmetry_space_group_name_H-M "I M M A"
_symmetry_group_IT_number 74
_symmetry_cell_setting 'orthorhombic'
loop_
_space_group_symop_operation_xyz
x,y,z
-x,1/2-y,z
x,-y,-z
-x,1/2+y,-z
-x,-y,-z
x,1/2+y,-z
-x,y,z
x,1/2-y,z
1/2+x,1/2+y,1/2+z
1/2-x,-y,1/2+z
1/2+x,1/2-y,1/2-z
1/2-x,y,1/2-z
1/2-x,1/2-y,1/2-z
1/2+x,y,1/2-z
1/2-x,1/2+y,1/2+z
1/2+x,-y,1/2+z
loop_
_atom_site_type_symbol
_atom_site_label
_atom_site_fract_x
_atom_site_fract_y
_atom_site_fract_z
Si Si1 0.110698 0.306691 0.339309
Si Si2 0.613341 0.692400 0.163047
Si Si3 0.447695 0.900408 0.163981
Si Si4 0.947871 0.401316 0.338095
Si Si5 0.786525 0.810259 0.639389
Si Si6 0.790685 0.142403 0.648775
Si Si7 0.208644 0.979195 0.350473
Si Si8 0.606878 0.000012 0.837805
O O1 0.097200 0.250000 0.281028
O O2 0.108830 0.305141 0.501599
O O3 0.075436 0.349002 0.280172
O O4 0.162899 0.321799 0.298029
O O5 0.605809 0.750000 0.225028
O O6 0.574798 0.652782 0.220284
O O7 0.663939 0.671801 0.202241
O O8 0.500000 0.904103 0.218888
O O9 0.418374 0.948917 0.220519
O O10 0.447003 0.901139 0.000906
O O11 0.919599 0.450026 0.279402
O O12 0.000000 0.404231 0.282683
O O13 0.781258 0.750000 0.604462
O O14 0.750000 0.829575 0.750000
O O15 0.776571 0.841692 0.502939
O O16 0.750000 0.158230 0.750000
O O17 0.799828 0.081710 0.646023
O O18 0.250000 0.995321 0.250000
O O19 0.160620 0.003245 0.294046
O O20 0.221272 0.000000 0.500000
O O21 0.604118 0.000000 0.000000
#
# Coordination Sequence:
#
# PCOD8298592 Si02
#       8
#    16  16  16  16  16  16  16  16
#     4   8  15  26  39  58  88 121 150 184 230 276
#     4   9  16  26  39  59  87 119 153 186 229 279
#     4   9  15  24  38  57  84 118 151 185 228 274
#     4   9  16  24  38  60  84 115 154 189 226 278
#     4   9  18  31  47  69  96 126 161 195 229 276
#     4  10  19  32  48  68  94 125 160 195 234 282
#     4  10  21  34  49  70  97 126 158 194 236 286
#     4   9  16  27  42  60  87 117 150 189 233 276
#
# _framework density 17.435675
#
# number of rings (size 3 to 8) (size 9 to 14) (size 15 to 20)
#    0.000    2.875    1.250    1.500    5.250    3.500 
#    0.000    2.500    0.000    0.000    0.000    0.000 
#    0.000    5.000    0.000    3.250    0.000    4.625 
#
# Total GULP energy -793371.392679 kJ/mol
# GULP energy per Si atom -12396.428011 kJ/mol
# Density = 1.739599 g / cm^3
# Si number density = 17.435675 Si / 1000 Ang^3
#
#
#
# Elastic Constant Matrix: (Units=GPa)
#
#
# Indices 1 2 3 4 5 6 
#
# 1 164.4066 85.6428 36.3737 0.0000 0.0000 0.0000
# 2 85.6428 132.6315 18.4136 0.0000 0.0000 0.0000
# 3 36.3737 18.4136 23.2024 0.0000 0.0000 0.0000
# 4 0.0000 0.0000 0.0000 10.4311 0.0000 0.0000
# 5 0.0000 0.0000 0.0000 0.0000 15.4387 0.0000
# 6 0.0000 0.0000 0.0000 0.0000 0.0000 31.8750
#
#
#
# Elastic Compliance Matrix: (Units=1/GPa)
#
#
# Indices 1 2 3 4 5 6 
#
# 1 0.012489 -0.006008 -0.014810 0.000000 0.000000 0.000000
# 2 -0.006008 0.011364 0.000401 0.000000 0.000000 0.000000
# 3 -0.014810 0.000401 0.065999 0.000000 0.000000 0.000000
# 4 0.000000 0.000000 0.000000 0.095867 0.000000 0.000000
# 5 0.000000 0.000000 0.000000 0.000000 0.064772 0.000000
# 6 0.000000 0.000000 0.000000 0.000000 0.000000 0.031373
#
#
# Mechanical properties :
#
#
# Convention : Reuss Voigt Hill
#
# Bulk Modulus (GPa) = 20.40171 66.78899 43.59535
# Shear Modulus (GPa) = 14.74760 23.53631 19.14196
#
# Velocity S-wave (km/s) = 2.91147 3.67808 3.31699
# Velocity P-wave (km/s) = 4.79883 7.51177 6.30300
#
# Compressibility (1/GPa) = 0.04901550
#
# Stress axis : x y z
#
# Youngs Moduli (GPa) = 80.07064 87.99956 15.15174
#
# Poissons Ratio (x) = 0.52872 0.22440
# Poissons Ratio (y) = 0.48108 -0.00607
# Poissons Ratio (z) = 1.18588 -0.03525
#
# Static dielectric constant tensor:
#      x y z
#    x 3.484060 0.000000 0.000000 
#    y 0.000000 3.558340 0.000000 
#    z 0.000000 0.000000 2.557870 
# 
# 
# High freq. dielectric constant tensor:
#      x y z
#    x 1.686690 0.000000 0.000000 
#    y 0.000000 1.691250 0.000000 
#    z 0.000000 0.000000 1.586630 
# 
# From -- ./inp_files/26609.got.cif
#   From: 2010.03.12/outbox.cif.g09.slc.cpg/sg74_14_cif.got.tgz:26609.got - 2010.04.16 15:46:19.
