data_PCOD8298984
_publ_section_title
;
Structure prediction by ZEFSAII (Michael W. Deem and Ramdas Pophale) SiO2 
 PCOD8298984
Probable space group: I M M A
;
_chemical_formula_sum "Si O2"
_cell_formula_units_Z 80
_cell_length_a 11.684450
_cell_length_b 20.382911
_cell_length_c 18.688040
_cell_angle_alpha 90.000000
_cell_angle_beta 90.000000
_cell_angle_gamma 90.000000
_cell_volume 4450.801622
_symmetry_space_group_name_H-M "I M M A"
_symmetry_group_IT_number 74
_symmetry_cell_setting 'orthorhombic'
loop_
_space_group_symop_operation_xyz
x,y,z
-x,1/2-y,z
x,-y,-z
-x,1/2+y,-z
-x,-y,-z
x,1/2+y,-z
-x,y,z
x,1/2-y,z
1/2+x,1/2+y,1/2+z
1/2-x,-y,1/2+z
1/2+x,1/2-y,1/2-z
1/2-x,y,1/2-z
1/2-x,1/2-y,1/2-z
1/2+x,y,1/2-z
1/2-x,1/2+y,1/2+z
1/2+x,-y,1/2+z
loop_
_atom_site_type_symbol
_atom_site_label
_atom_site_fract_x
_atom_site_fract_y
_atom_site_fract_z
Si Si1 0.500000 0.533624 0.391769
Si Si2 0.863244 0.890714 0.421471
Si Si3 0.754245 0.378535 0.070433
Si Si4 0.624648 0.250000 0.911869
Si Si5 0.500000 0.895566 0.530200
Si Si6 0.873587 0.750000 0.581484
Si Si7 0.263508 0.004951 0.666784
O O1 0.500000 0.596174 0.444425
O O2 0.500000 0.467282 0.436281
O O3 0.612461 0.537323 0.343438
O O4 0.805146 0.905647 0.498043
O O5 0.816209 0.819524 0.391557
O O6 0.000000 0.888143 0.432765
O O7 0.831895 0.945744 0.364057
O O8 0.692832 0.315612 0.105343
O O9 0.748640 0.435672 0.128325
O O10 0.885640 0.357523 0.054303
O O11 0.500000 0.250000 0.875712
O O12 0.614973 0.250000 0.997038
O O13 0.000000 0.750000 0.616912
O O14 0.250000 0.992776 0.750000
#
# Coordination Sequence:
#
# PCOD8298984 Si02
#       7
#     8  16  16   8   8   8  16
#     4   9  18  36  50  72 111 140 175 220 276 311
#     4  10  19  33  56  82 106 137 178 226 275 322
#     4  10  19  35  56  80 108 140 182 223 270 323
#     4   7  14  30  50  75 105 131 162 210 269 315
#     4   9  16  31  58  76  98 145 178 219 266 319
#     4   9  18  33  54  81 111 138 168 226 283 315
#     4  11  23  35  52  80 110 145 182 223 269 321
#
# _framework density 17.97429
#
# number of rings (size 3 to 8) (size 9 to 14) (size 15 to 20)
#    0.000    2.400    2.000    2.400    1.400    2.800 
#    0.000    1.000    0.000    0.600    0.000    0.000 
#    0.000    0.000    0.000    0.000    0.000    0.000 
#
# Total GULP energy -495726.259707 kJ/mol
# GULP energy per Si atom -12393.156493 kJ/mol
# Density = 1.793338 g / cm^3
# Si number density = 17.974290 Si / 1000 Ang^3
#
#
#
# Elastic Constant Matrix: (Units=GPa)
#
#
# Indices 1 2 3 4 5 6 
#
# 1 128.8728 49.9556 38.7449 0.0000 0.0000 0.0000
# 2 49.9556 107.0296 54.6789 0.0000 0.0000 0.0000
# 3 38.7449 54.6789 89.3988 0.0000 0.0000 0.0000
# 4 0.0000 0.0000 0.0000 4.5244 0.0000 0.0000
# 5 0.0000 0.0000 0.0000 0.0000 13.3199 0.0000
# 6 0.0000 0.0000 0.0000 0.0000 0.0000 30.2789
#
#
#
# Elastic Compliance Matrix: (Units=1/GPa)
#
#
# Indices 1 2 3 4 5 6 
#
# 1 0.009736 -0.003474 -0.002095 0.000000 0.000000 0.000000
# 2 -0.003474 0.014829 -0.007564 0.000000 0.000000 0.000000
# 3 -0.002095 -0.007564 0.016720 0.000000 0.000000 0.000000
# 4 0.000000 0.000000 0.000000 0.221026 0.000000 0.000000
# 5 0.000000 0.000000 0.000000 0.000000 0.075076 0.000000
# 6 0.000000 0.000000 0.000000 0.000000 0.000000 0.033026
#
#
# Mechanical properties :
#
#
# Convention : Reuss Voigt Hill
#
# Bulk Modulus (GPa) = 66.58130 68.00665 67.29398
# Shear Modulus (GPa) = 12.44753 21.75275 17.10014
#
# Velocity S-wave (km/s) = 2.63443 3.48259 3.08777
# Velocity P-wave (km/s) = 6.81003 7.35451 7.08750
#
# Compressibility (1/GPa) = 0.01501923
#
# Stress axis : x y z
#
# Youngs Moduli (GPa) = 102.71131 67.43482 59.80809
#
# Poissons Ratio (x) = 0.23428 0.12528
# Poissons Ratio (y) = 0.35683 0.45240
# Poissons Ratio (z) = 0.21514 0.51009
#
# Static dielectric constant tensor:
#      x y z
#    x 3.593540 0.000000 0.000000 
#    y 0.000000 3.498040 0.000000 
#    z 0.000000 0.000000 2.900960 
# 
# 
# High freq. dielectric constant tensor:
#      x y z
#    x 1.704660 0.000000 0.000000 
#    y 0.000000 1.694950 0.000000 
#    z 0.000000 0.000000 1.652230 
# 
# From -- ./inp_files/41240.got.cif
#   From: 2010.03.12/outbox.cif.g09.slc.cpg/sg74_21_cif.got.tgz:41240.got - 2010.04.16 15:46:19.
