data_PCOD8298319
_publ_section_title
;
Structure prediction by ZEFSAII (Michael W. Deem and Ramdas Pophale) SiO2 
 PCOD8298319
Probable space group: I M M A
;
_chemical_formula_sum "Si O2"
_cell_formula_units_Z 112
_cell_length_a 24.358932
_cell_length_b 22.793627
_cell_length_c 12.843735
_cell_angle_alpha 90.000000
_cell_angle_beta 90.000000
_cell_angle_gamma 90.000000
_cell_volume 7131.206564
_symmetry_space_group_name_H-M "I M M A"
_symmetry_group_IT_number 74
_symmetry_cell_setting 'orthorhombic'
loop_
_space_group_symop_operation_xyz
x,y,z
-x,1/2-y,z
x,-y,-z
-x,1/2+y,-z
-x,-y,-z
x,1/2+y,-z
-x,y,z
x,1/2-y,z
1/2+x,1/2+y,1/2+z
1/2-x,-y,1/2+z
1/2+x,1/2-y,1/2-z
1/2-x,y,1/2-z
1/2-x,1/2-y,1/2-z
1/2+x,y,1/2-z
1/2-x,1/2+y,1/2+z
1/2+x,-y,1/2+z
loop_
_atom_site_type_symbol
_atom_site_label
_atom_site_fract_x
_atom_site_fract_y
_atom_site_fract_z
Si Si1 0.716081 0.580101 0.458404
Si Si2 0.159568 0.077562 0.547201
Si Si3 0.114719 0.970443 0.654410
Si Si4 0.198140 0.683160 0.178656
Si Si5 0.116541 0.184545 0.647127
Si Si6 0.000000 0.818681 0.436032
Si Si7 0.000000 0.441138 0.427778
Si Si8 0.197943 0.527008 0.827619
O O1 0.778066 0.564251 0.425665
O O2 0.698437 0.645276 0.426274
O O3 0.706874 0.575584 0.582341
O O4 0.683905 0.533675 0.386907
O O5 0.151753 0.064532 0.426897
O O6 0.146048 0.145448 0.560962
O O7 0.119164 0.039306 0.621776
O O8 0.052680 0.946254 0.647686
O O9 0.141587 0.958210 0.766463
O O10 0.202685 0.750000 0.142785
O O11 0.250000 0.665269 0.250000
O O12 0.140969 0.670136 0.238849
O O13 0.133734 0.250000 0.616380
O O14 0.051353 0.175013 0.641581
O O15 0.000000 0.750000 0.484646
O O16 0.000000 0.875784 0.515683
O O17 0.000000 0.500000 0.500000
O O18 0.250000 0.524139 0.750000
#
# Coordination Sequence:
#
# PCOD8298319 Si02
#       8
#    16  16  16  16  16   8   8  16
#     4  11  20  30  50  72 101 131 162 201 241 293
#     4  11  17  28  49  73  99 129 158 196 238 301
#     4  11  20  30  47  72 102 125 160 195 242 299
#     4  10  19  30  48  73  99 130 160 196 249 298
#     4  10  19  30  47  72 101 128 158 198 247 299
#     4  10  20  34  50  73 103 133 167 206 252 304
#     4  12  20  32  52  76 101 132 159 202 262 302
#     4  11  19  31  48  73  95 128 165 200 241 282
#
# _framework density 15.705617
#
# number of rings (size 3 to 8) (size 9 to 14) (size 15 to 20)
#    0.000    1.286    7.143    2.143    0.000    0.000 
#    0.000    0.000    0.000    4.714    0.000    0.000 
#    0.000    0.000    0.000    0.000    0.000    0.000 
#
# Total GULP energy -693852.704239 kJ/mol
# GULP energy per Si atom -12390.226861 kJ/mol
# Density = 1.566987 g / cm^3
# Si number density = 15.705617 Si / 1000 Ang^3
#
#
#
# Elastic Constant Matrix: (Units=GPa)
#
#
# Indices 1 2 3 4 5 6 
#
# 1 99.2246 33.9487 41.4719 0.0000 0.0000 0.0000
# 2 33.9487 96.0907 55.1289 0.0000 0.0000 0.0000
# 3 41.4719 55.1289 90.5282 0.0000 0.0000 0.0000
# 4 0.0000 0.0000 0.0000 24.2071 0.0000 0.0000
# 5 0.0000 0.0000 0.0000 0.0000 19.5465 0.0000
# 6 0.0000 0.0000 0.0000 0.0000 0.0000 17.8769
#
#
#
# Elastic Compliance Matrix: (Units=1/GPa)
#
#
# Indices 1 2 3 4 5 6 
#
# 1 0.012656 -0.001760 -0.004726 0.000000 0.000000 0.000000
# 2 -0.001760 0.016240 -0.009083 0.000000 0.000000 0.000000
# 3 -0.004726 -0.009083 0.018743 0.000000 0.000000 0.000000
# 4 0.000000 0.000000 0.000000 0.041310 0.000000 0.000000
# 5 0.000000 0.000000 0.000000 0.000000 0.051160 0.000000
# 6 0.000000 0.000000 0.000000 0.000000 0.000000 0.055938
#
#
# Mechanical properties :
#
#
# Convention : Reuss Voigt Hill
#
# Bulk Modulus (GPa) = 60.60658 60.77141 60.68899
# Shear Modulus (GPa) = 21.48828 22.67902 22.08365
#
# Velocity S-wave (km/s) = 3.70292 3.80413 3.75387
# Velocity P-wave (km/s) = 7.54686 7.62058 7.58381
#
# Compressibility (1/GPa) = 0.01649986
#
# Stress axis : x y z
#
# Youngs Moduli (GPa) = 79.01702 61.57678 53.35383
#
# Poissons Ratio (x) = 0.10836 0.25215
# Poissons Ratio (y) = 0.13906 0.48463
# Poissons Ratio (z) = 0.37343 0.55933
#
# Static dielectric constant tensor:
#      x y z
#    x 3.137970 0.000000 0.000000 
#    y 0.000000 3.220230 0.000000 
#    z 0.000000 0.000000 2.841750 
# 
# 
# High freq. dielectric constant tensor:
#      x y z
#    x 1.598810 0.000000 0.000000 
#    y 0.000000 1.606960 0.000000 
#    z 0.000000 0.000000 1.571950 
# 
# From -- ./inp_files/25566.got.cif
#   From: 2010.03.12/outbox.cif.g09.slc.cpg/sg74_13_cif.got.tgz:25566.got - 2010.04.16 15:46:19.
