data_PCOD8298029
_publ_section_title
;
Structure prediction by ZEFSAII (Michael W. Deem and Ramdas Pophale) SiO2 
 PCOD8298029
Probable space group: I M M A
;
_chemical_formula_sum "Si O2"
_cell_formula_units_Z 72
_cell_length_a 14.433327
_cell_length_b 29.082757
_cell_length_c 9.940976
_cell_angle_alpha 90.000000
_cell_angle_beta 90.000000
_cell_angle_gamma 90.000000
_cell_volume 4172.833449
_symmetry_space_group_name_H-M "I M M A"
_symmetry_group_IT_number 74
_symmetry_cell_setting 'orthorhombic'
loop_
_space_group_symop_operation_xyz
x,y,z
-x,1/2-y,z
x,-y,-z
-x,1/2+y,-z
-x,-y,-z
x,1/2+y,-z
-x,y,z
x,1/2-y,z
1/2+x,1/2+y,1/2+z
1/2-x,-y,1/2+z
1/2+x,1/2-y,1/2-z
1/2-x,y,1/2-z
1/2-x,1/2-y,1/2-z
1/2+x,y,1/2-z
1/2-x,1/2+y,1/2+z
1/2+x,-y,1/2+z
loop_
_atom_site_type_symbol
_atom_site_label
_atom_site_fract_x
_atom_site_fract_y
_atom_site_fract_z
Si Si1 0.192242 0.802027 0.884580
Si Si2 0.000000 0.804111 0.762082
Si Si3 0.197160 0.535265 0.377268
Si Si4 0.500000 0.956298 0.089917
Si Si5 0.293960 0.639997 0.108041
Si Si6 0.500000 0.357283 0.981603
O O1 0.192544 0.750000 0.939432
O O2 0.250000 0.806143 0.750000
O O3 0.088131 0.818274 0.851173
O O4 0.237303 0.833886 0.995096
O O5 0.000000 0.750000 0.726546
O O6 0.000000 0.830638 0.621137
O O7 0.207676 0.500000 0.500000
O O8 0.250000 0.514548 0.250000
O O9 0.229174 0.586264 0.419606
O O10 0.092313 0.541618 0.321241
O O11 0.500000 0.911939 0.991287
O O12 0.500000 0.000000 0.000000
O O13 0.250000 0.655107 0.250000
O O14 0.404277 0.653368 0.101299
#
# Coordination Sequence:
#
# PCOD8298029 Si02
#       6
#    16   8  16   8  16   8
#     4  10  20  35  55  79 107 137 177 223 263 313
#     4  10  20  35  56  81 110 141 179 225 270 316
#     4   9  18  34  53  75 103 139 175 219 264 314
#     4   8  16  32  50  71 101 134 172 216 257 312
#     4  10  21  35  54  80 110 142 179 223 273 323
#     4  10  18  33  55  76 102 146 183 211 275 327
#
# _framework density 17.254463000000001
#
# number of rings (size 3 to 8) (size 9 to 14) (size 15 to 20)
#    0.000    2.444    2.222    0.000    0.000    2.222 
#    4.000    1.667    0.000    0.000    0.000    0.000 
#    0.000    0.000    0.000    0.000    0.000    0.000 
#
# Total GULP energy -446032.010727 kJ/mol
# GULP energy per Si atom -12389.778076 kJ/mol
# Density = 1.721519 g / cm^3
# Si number density = 17.254463 Si / 1000 Ang^3
#
#
#
# Elastic Constant Matrix: (Units=GPa)
#
#
# Indices 1 2 3 4 5 6 
#
# 1 152.5685 49.4886 67.3794 0.0003 0.0001 -0.0009
# 2 49.4886 64.5825 44.8481 0.0001 0.0000 -0.0013
# 3 67.3794 44.8481 90.2934 0.0020 0.0003 -0.0084
# 4 0.0003 0.0001 0.0020 24.9874 0.0000 -0.0025
# 5 0.0001 0.0000 0.0003 0.0000 27.2911 -0.0003
# 6 -0.0009 -0.0013 -0.0084 -0.0025 -0.0003 -1.3205
#
#
#
# Elastic Compliance Matrix: (Units=1/GPa)
#
#
# Indices 1 2 3 4 5 6 
#
# 1 0.010393 -0.003936 -0.005801 0.000000 0.000000 0.000034
# 2 -0.003936 0.025127 -0.009544 0.000001 0.000000 0.000039
# 3 -0.005801 -0.009544 0.020144 -0.000001 0.000000 -0.000116
# 4 0.000000 0.000001 -0.000001 0.040020 0.000000 -0.000075
# 5 0.000000 0.000000 0.000000 0.000000 0.036642 -0.000007
# 6 0.000034 0.000039 -0.000116 -0.000075 -0.000007 -0.757293
#
#
# Mechanical properties :
#
#
# Convention : Reuss Voigt Hill
#
# Bulk Modulus (GPa) = 58.46544 70.09740 64.28142
# Shear Modulus (GPa) = -8.61021 19.90680 5.64829
#
# Velocity S-wave (km/s) = -2.23628 3.40033 1.81125
# Velocity P-wave (km/s) = 5.22397 7.49201 6.45833
#
# Compressibility (1/GPa) = 0.01710412
#
# Stress axis : x y z
#
# Youngs Moduli (GPa) = 96.22073 39.79721 49.64317
#
# Poissons Ratio (x) = 0.15663 0.28796
# Poissons Ratio (y) = 0.37870 0.47378
# Poissons Ratio (z) = 0.55813 0.37981
#
# Static dielectric constant tensor:
#      x y z
#    x -0.678180 0.000000 -0.000010 
#    y 0.000000 3.325150 0.000000 
#    z -0.000010 0.000000 2.686120 
# 
# 
# High freq. dielectric constant tensor:
#      x y z
#    x 1.689800 0.000000 0.000000 
#    y 0.000000 1.669620 0.000000 
#    z 0.000000 0.000000 1.638550 
# 
# From -- ./inp_files/9185.got.cif
#   From: 2010.03.12/outbox.cif.g09.slc.cpg/sg74_5_cif.got.tgz:9185.got - 2010.04.16 15:46:19.
