data_PCOD8298926
_publ_section_title
;
Structure prediction by ZEFSAII (Michael W. Deem and Ramdas Pophale) SiO2 
 PCOD8298926
Probable space group: I M M A
;
_chemical_formula_sum "Si O2"
_cell_formula_units_Z 88
_cell_length_a 18.219116
_cell_length_b 9.087941
_cell_length_c 28.368754
_cell_angle_alpha 90.000000
_cell_angle_beta 90.000000
_cell_angle_gamma 90.000000
_cell_volume 4697.135203
_symmetry_space_group_name_H-M "I M M A"
_symmetry_group_IT_number 74
_symmetry_cell_setting 'orthorhombic'
loop_
_space_group_symop_operation_xyz
x,y,z
-x,1/2-y,z
x,-y,-z
-x,1/2+y,-z
-x,-y,-z
x,1/2+y,-z
-x,y,z
x,1/2-y,z
1/2+x,1/2+y,1/2+z
1/2-x,-y,1/2+z
1/2+x,1/2-y,1/2-z
1/2-x,y,1/2-z
1/2-x,1/2-y,1/2-z
1/2+x,y,1/2-z
1/2-x,1/2+y,1/2+z
1/2+x,-y,1/2+z
loop_
_atom_site_type_symbol
_atom_site_label
_atom_site_fract_x
_atom_site_fract_y
_atom_site_fract_z
Si Si1 0.185582 0.415888 0.212541
Si Si2 0.358428 0.575998 0.889940
Si Si3 0.711783 0.576456 0.383139
Si Si4 0.417131 0.077647 0.548232
Si Si5 0.500000 0.423645 0.050067
Si Si6 0.080766 0.575127 0.708550
O O1 0.174626 0.250000 0.192703
O O2 0.250000 0.415724 0.250000
O O3 0.201175 0.525565 0.170305
O O4 0.114913 0.473572 0.241523
O O5 0.346460 0.750000 0.892821
O O6 0.283799 0.496925 0.906830
O O7 0.427256 0.526501 0.921790
O O8 0.372316 0.521686 0.836355
O O9 0.722468 0.750000 0.384259
O O10 0.639702 0.526190 0.411784
O O11 0.500000 0.033146 0.563772
O O12 0.411383 0.250000 0.539287
O O13 0.394569 0.000000 0.500000
O O14 0.500000 0.250000 0.043039
O O15 0.500000 0.500000 0.000000
O O16 0.076774 0.750000 0.705744
O O17 0.000000 0.505266 0.705402
#
# Coordination Sequence:
#
# PCOD8298926 Si02
#       6
#    16  16  16  16   8  16
#     4  10  19  33  54  79 107 144 186 228 269 317
#     4  10  19  36  59  80 105 147 193 230 274 328
#     4  11  23  36  55  85 119 148 179 228 286 340
#     4   9  20  40  62  82 108 145 184 227 280 336
#     4  10  22  38  60  84 112 150 190 238 289 334
#     4   9  16  30  54  79 102 135 188 237 268 310
#
# _framework density 18.734822999999999
#
# number of rings (size 3 to 8) (size 9 to 14) (size 15 to 20)
#    0.000    2.182    2.727    0.545    0.000    4.000 
#    0.000    3.636    0.000    1.091    0.000    0.000 
#    0.000    0.000    0.000    0.000    0.000    0.000 
#
# Total GULP energy -545521.467509 kJ/mol
# GULP energy per Si atom -12398.215171 kJ/mol
# Density = 1.869218 g / cm^3
# Si number density = 18.734823 Si / 1000 Ang^3
#
#
#
# Elastic Constant Matrix: (Units=GPa)
#
#
# Indices 1 2 3 4 5 6 
#
# 1 146.2644 43.6955 66.1059 0.0000 0.0000 0.0000
# 2 43.6955 41.3593 37.0377 0.0000 0.0000 0.0000
# 3 66.1059 37.0377 105.8358 0.0000 0.0000 0.0000
# 4 0.0000 0.0000 0.0000 29.1409 0.0000 0.0000
# 5 0.0000 0.0000 0.0000 0.0000 27.4549 0.0000
# 6 0.0000 0.0000 0.0000 0.0000 0.0000 20.8675
#
#
#
# Elastic Compliance Matrix: (Units=1/GPa)
#
#
# Indices 1 2 3 4 5 6 
#
# 1 0.011100 -0.008037 -0.004121 0.000000 0.000000 0.000000
# 2 -0.008037 0.041033 -0.009340 0.000000 0.000000 0.000000
# 3 -0.004121 -0.009340 0.015291 0.000000 0.000000 0.000000
# 4 0.000000 0.000000 0.000000 0.034316 0.000000 0.000000
# 5 0.000000 0.000000 0.000000 0.000000 0.036423 0.000000
# 6 0.000000 0.000000 0.000000 0.000000 0.000000 0.047921
#
#
# Mechanical properties :
#
#
# Convention : Reuss Voigt Hill
#
# Bulk Modulus (GPa) = 40.93432 65.23754 53.08593
# Shear Modulus (GPa) = 21.07710 25.26735 23.17223
#
# Velocity S-wave (km/s) = 3.35777 3.67643 3.52071
# Velocity P-wave (km/s) = 6.07697 7.27452 6.70255
#
# Compressibility (1/GPa) = 0.02442938
#
# Stress axis : x y z
#
# Youngs Moduli (GPa) = 90.08651 24.37034 65.39828
#
# Poissons Ratio (x) = 0.19587 0.26949
# Poissons Ratio (y) = 0.72405 0.61080
# Poissons Ratio (z) = 0.37122 0.22761
#
# Static dielectric constant tensor:
#      x y z
#    x 3.953970 0.000000 0.000000 
#    y 0.000000 3.159780 0.000000 
#    z 0.000000 0.000000 3.612360 
# 
# 
# High freq. dielectric constant tensor:
#      x y z
#    x 1.745650 0.000000 0.000000 
#    y 0.000000 1.697730 0.000000 
#    z 0.000000 0.000000 1.721880 
# 
# From -- ./inp_files/70295.got.cif
#   From: 2010.03.12/outbox.cif.g09.slc.cpg/sg74_36_cif.got.tgz:70295.got - 2010.04.16 15:46:19.
