data_PCOD8298956
_publ_section_title
;
Structure prediction by ZEFSAII (Michael W. Deem and Ramdas Pophale) SiO2 
 PCOD8298956
Probable space group: I M M A
;
_chemical_formula_sum "Si O2"
_cell_formula_units_Z 64
_cell_length_a 10.361025
_cell_length_b 12.126844
_cell_length_c 27.047732
_cell_angle_alpha 90.000000
_cell_angle_beta 90.000000
_cell_angle_gamma 90.000000
_cell_volume 3398.453774
_symmetry_space_group_name_H-M "I M M A"
_symmetry_group_IT_number 74
_symmetry_cell_setting 'orthorhombic'
loop_
_space_group_symop_operation_xyz
x,y,z
-x,1/2-y,z
x,-y,-z
-x,1/2+y,-z
-x,-y,-z
x,1/2+y,-z
-x,y,z
x,1/2-y,z
1/2+x,1/2+y,1/2+z
1/2-x,-y,1/2+z
1/2+x,1/2-y,1/2-z
1/2-x,y,1/2-z
1/2-x,1/2-y,1/2-z
1/2+x,y,1/2-z
1/2-x,1/2+y,1/2+z
1/2+x,-y,1/2+z
loop_
_atom_site_type_symbol
_atom_site_label
_atom_site_fract_x
_atom_site_fract_y
_atom_site_fract_z
Si Si1 0.000000 0.619272 0.792084
Si Si2 0.000000 0.564959 0.681893
Si Si3 0.232040 0.126958 0.139745
Si Si4 0.000000 0.127450 0.608596
Si Si5 0.000000 0.874648 0.025493
Si Si6 0.255018 0.457417 0.945254
O O1 0.127258 0.580368 0.821541
O O2 0.000000 0.750000 0.781152
O O3 0.000000 0.553680 0.740732
O O4 0.873116 0.629044 0.664100
O O5 0.000000 0.444310 0.658061
O O6 0.191587 0.250000 0.125393
O O7 0.226272 0.062215 0.088744
O O8 0.876405 0.108936 0.574511
O O9 0.000000 0.250000 0.629078
O O10 0.131502 0.876037 0.056976
O O11 0.000000 0.750000 0.998497
O O12 0.000000 0.000000 0.000000
O O13 0.286587 0.500000 0.000000
#
# Coordination Sequence:
#
# PCOD8298956 Si02
#       6
#     8   8  16   8   8  16
#     4  10  19  33  55  80 107 138 170 216 279 336
#     4  10  20  34  54  78 107 139 176 224 279 332
#     4  10  20  33  53  83 112 140 177 220 271 333
#     4  10  21  37  55  76 105 143 188 228 268 323
#     4  10  21  36  55  78 106 144 188 228 271 319
#     4  10  21  36  55  81 112 147 183 222 270 321
#
# _framework density 18.832094999999999
#
# number of rings (size 3 to 8) (size 9 to 14) (size 15 to 20)
#    0.000    2.000    0.000    3.750    0.000    7.000 
#    0.000    1.250    0.000   15.000    0.000    0.000 
#    0.000    0.000    0.000    0.000    0.000    0.000 
#
# Total GULP energy -396531.132569 kJ/mol
# GULP energy per Si atom -12391.597893 kJ/mol
# Density = 1.878923 g / cm^3
# Si number density = 18.832095 Si / 1000 Ang^3
#
#
#
# Elastic Constant Matrix: (Units=GPa)
#
#
# Indices 1 2 3 4 5 6 
#
# 1 143.7977 40.3583 44.6473 0.0000 0.0000 0.0000
# 2 40.3583 110.8067 49.8386 0.0000 0.0000 0.0000
# 3 44.6473 49.8386 138.6547 0.0000 0.0000 0.0000
# 4 0.0000 0.0000 0.0000 14.0676 0.0000 0.0000
# 5 0.0000 0.0000 0.0000 0.0000 21.4281 0.0000
# 6 0.0000 0.0000 0.0000 0.0000 0.0000 -1.1285
#
#
#
# Elastic Compliance Matrix: (Units=1/GPa)
#
#
# Indices 1 2 3 4 5 6 
#
# 1 0.008126 -0.002127 -0.001852 0.000000 0.000000 0.000000
# 2 -0.002127 0.011322 -0.003385 0.000000 0.000000 0.000000
# 3 -0.001852 -0.003385 0.009025 0.000000 0.000000 0.000000
# 4 0.000000 0.000000 0.000000 0.071085 0.000000 0.000000
# 5 0.000000 0.000000 0.000000 0.000000 0.046668 0.000000
# 6 0.000000 0.000000 0.000000 0.000000 0.000000 -0.886107
#
#
# Mechanical properties :
#
#
# Convention : Reuss Voigt Hill
#
# Bulk Modulus (GPa) = 72.74926 73.66083 73.20505
# Shear Modulus (GPa) = -6.93894 24.10110 8.58108
#
# Velocity S-wave (km/s) = -1.92162 3.58129 2.13694
# Velocity P-wave (km/s) = 5.81299 7.50335 6.71160
#
# Compressibility (1/GPa) = 0.01374584
#
# Stress axis : x y z
#
# Youngs Moduli (GPa) = 123.05918 88.32614 110.80069
#
# Poissons Ratio (x) = 0.18784 0.20523
# Poissons Ratio (y) = 0.26170 0.37503
# Poissons Ratio (z) = 0.22794 0.29896
#
# Static dielectric constant tensor:
#      x y z
#    x 3.962140 0.000000 0.000000 
#    y 0.000000 3.427440 0.000000 
#    z 0.000000 0.000000 3.286450 
# 
# 
# High freq. dielectric constant tensor:
#      x y z
#    x 1.761520 0.000000 0.000000 
#    y 0.000000 1.718400 0.000000 
#    z 0.000000 0.000000 1.716790 
# 
# From -- ./inp_files/58285.got.cif
#   From: 2010.03.12/outbox.cif.g09.slc.cpg/sg74_30_cif.got.tgz:58285.got - 2010.04.16 15:46:19.
