data_PCOD8298768
_publ_section_title
;
Structure prediction by ZEFSAII (Michael W. Deem and Ramdas Pophale) SiO2 
 PCOD8298768
Probable space group: I M M A
;
_chemical_formula_sum "Si O2"
_cell_formula_units_Z 88
_cell_length_a 13.348721
_cell_length_b 21.762464
_cell_length_c 16.001215
_cell_angle_alpha 90.000000
_cell_angle_beta 90.000000
_cell_angle_gamma 90.000000
_cell_volume 4648.369922
_symmetry_space_group_name_H-M "I M M A"
_symmetry_group_IT_number 74
_symmetry_cell_setting 'orthorhombic'
loop_
_space_group_symop_operation_xyz
x,y,z
-x,1/2-y,z
x,-y,-z
-x,1/2+y,-z
-x,-y,-z
x,1/2+y,-z
-x,y,z
x,1/2-y,z
1/2+x,1/2+y,1/2+z
1/2-x,-y,1/2+z
1/2+x,1/2-y,1/2-z
1/2-x,y,1/2-z
1/2-x,1/2-y,1/2-z
1/2+x,y,1/2-z
1/2-x,1/2+y,1/2+z
1/2+x,-y,1/2+z
loop_
_atom_site_type_symbol
_atom_site_label
_atom_site_fract_x
_atom_site_fract_y
_atom_site_fract_z
Si Si1 0.187770 0.093201 0.377359
Si Si2 0.222982 0.318385 0.845933
Si Si3 0.111684 0.563387 0.800451
Si Si4 0.612985 0.678061 0.018454
Si Si5 0.743242 0.000000 0.000000
Si Si6 0.113139 0.436822 0.883139
O O1 0.120935 0.082752 0.295793
O O2 0.305877 0.100442 0.354149
O O3 0.152669 0.151405 0.430492
O O4 0.171855 0.032074 0.432743
O O5 0.186995 0.250000 0.875391
O O6 0.250000 0.314271 0.750000
O O7 0.317385 0.340189 0.902719
O O8 0.134912 0.368490 0.849896
O O9 0.130509 0.489881 0.812560
O O10 0.000000 0.581281 0.831213
O O11 0.500000 0.654237 0.036957
O O12 0.612891 0.750000 0.004700
O O13 0.814536 0.052141 0.961283
O O14 0.000000 0.438754 0.915725
#
# Coordination Sequence:
#
# PCOD8298768 Si02
#       6
#    16  16  16  16   8  16
#     4  10  19  35  59  82 114 147 187 234 276 331
#     4  10  22  38  56  79 112 149 188 233 277 326
#     4   9  20  35  55  83 117 153 182 224 285 337
#     4  10  21  39  61  83 110 147 189 233 283 335
#     4  10  19  32  53  82 110 142 181 230 277 328
#     4  10  20  34  55  79 111 148 184 223 275 335
#
# _framework density 18.931367999999999
#
# number of rings (size 3 to 8) (size 9 to 14) (size 15 to 20)
#    0.000    2.182    1.818    0.818    5.091    1.818 
#    0.000    7.273    0.000    1.636    0.000    0.000 
#    0.000    0.000    0.000    0.000    0.000    0.000 
#
# Total GULP energy -545339.256865 kJ/mol
# GULP energy per Si atom -12394.074020 kJ/mol
# Density = 1.888828 g / cm^3
# Si number density = 18.931368 Si / 1000 Ang^3
#
#
#
# Elastic Constant Matrix: (Units=GPa)
#
#
# Indices 1 2 3 4 5 6 
#
# 1 91.5313 30.3755 22.5666 0.0000 0.0000 0.0000
# 2 30.3755 58.9890 22.9235 -0.0001 0.0000 -0.0001
# 3 22.5666 22.9235 96.9268 -0.0001 0.0000 -0.0001
# 4 0.0000 -0.0001 -0.0001 32.5875 0.0000 -0.0001
# 5 0.0000 0.0000 0.0000 0.0000 17.1742 0.0000
# 6 0.0000 -0.0001 -0.0001 -0.0001 0.0000 27.2599
#
#
#
# Elastic Compliance Matrix: (Units=1/GPa)
#
#
# Indices 1 2 3 4 5 6 
#
# 1 0.013410 -0.006268 -0.001640 0.000000 0.000000 0.000000
# 2 -0.006268 0.021598 -0.003649 0.000000 0.000000 0.000000
# 3 -0.001640 -0.003649 0.011562 0.000000 0.000000 0.000000
# 4 0.000000 0.000000 0.000000 0.030687 0.000000 0.000000
# 5 0.000000 0.000000 0.000000 0.000000 0.058227 0.000000
# 6 0.000000 0.000000 0.000000 0.000000 0.000000 0.036684
#
#
# Mechanical properties :
#
#
# Convention : Reuss Voigt Hill
#
# Bulk Modulus (GPa) = 42.63178 44.35315 43.49247
# Shear Modulus (GPa) = 24.61873 26.84310 25.73092
#
# Velocity S-wave (km/s) = 3.61005 3.76961 3.69069
# Velocity P-wave (km/s) = 6.32017 6.51351 6.41757
#
# Compressibility (1/GPa) = 0.02345668
#
# Stress axis : x y z
#
# Youngs Moduli (GPa) = 74.57390 46.30117 86.49228
#
# Poissons Ratio (x) = 0.29021 0.14182
# Poissons Ratio (y) = 0.46742 0.31558
# Poissons Ratio (z) = 0.12228 0.16894
#
# Static dielectric constant tensor:
#      x y z
#    x 3.551570 0.000000 0.000000 
#    y 0.000000 3.495320 0.000000 
#    z 0.000000 0.000000 3.519200 
# 
# 
# High freq. dielectric constant tensor:
#      x y z
#    x 1.732630 0.000000 0.000000 
#    y 0.000000 1.720740 0.000000 
#    z 0.000000 0.000000 1.739030 
# 
# From -- ./inp_files/32225.got.cif
#   From: 2010.03.12/outbox.cif.g09.slc.cpg/sg74_17_cif.got.tgz:32225.got - 2010.04.16 15:46:19.
