data_PCOD8298834
_publ_section_title
;
Structure prediction by ZEFSAII (Michael W. Deem and Ramdas Pophale) SiO2 
 PCOD8298834
Probable space group: I M M A
;
_chemical_formula_sum "Si O2"
_cell_formula_units_Z 96
_cell_length_a 9.816937
_cell_length_b 26.429865
_cell_length_c 20.198985
_cell_angle_alpha 90.000000
_cell_angle_beta 90.000000
_cell_angle_gamma 90.000000
_cell_volume 5240.835104
_symmetry_space_group_name_H-M "I M M A"
_symmetry_group_IT_number 74
_symmetry_cell_setting 'orthorhombic'
loop_
_space_group_symop_operation_xyz
x,y,z
-x,1/2-y,z
x,-y,-z
-x,1/2+y,-z
-x,-y,-z
x,1/2+y,-z
-x,y,z
x,1/2-y,z
1/2+x,1/2+y,1/2+z
1/2-x,-y,1/2+z
1/2+x,1/2-y,1/2-z
1/2-x,y,1/2-z
1/2-x,1/2-y,1/2-z
1/2+x,y,1/2-z
1/2-x,1/2+y,1/2+z
1/2+x,-y,1/2+z
loop_
_atom_site_type_symbol
_atom_site_label
_atom_site_fract_x
_atom_site_fract_y
_atom_site_fract_z
Si Si1 0.654811 0.417153 0.308485
Si Si2 0.844045 0.380201 0.049872
Si Si3 0.847270 0.471045 0.854965
Si Si4 0.340447 0.805729 0.438005
Si Si5 0.346764 0.636458 0.307669
Si Si6 0.852352 0.447108 0.529118
O O1 0.500000 0.415954 0.283167
O O2 0.750000 0.396550 0.250000
O O3 0.672781 0.378663 0.370581
O O4 0.696512 0.475233 0.324440
O O5 0.000000 0.395913 0.032292
O O6 0.805515 0.328637 0.010774
O O7 0.738225 0.421626 0.026812
O O8 0.849311 0.424776 0.802949
O O9 0.735324 0.452365 0.905654
O O10 0.000000 0.476721 0.886349
O O11 0.500000 0.799729 0.431262
O O12 0.271818 0.750000 0.432619
O O13 0.290221 0.842909 0.378871
O O14 0.500000 0.657068 0.295838
O O15 0.250000 0.658073 0.250000
O O16 0.892054 0.500000 0.500000
O O17 0.000000 0.419707 0.542973
#
# Coordination Sequence:
#
# PCOD8298834 Si02
#       6
#    16  16  16  16  16  16
#     4  10  21  33  51  76 105 140 174 211 256 309
#     4  10  19  35  57  76 100 138 179 216 260 314
#     4  10  19  33  51  72 102 143 181 211 245 299
#     4   9  18  34  57  81 101 127 173 226 268 309
#     4  10  20  33  51  75 105 142 175 213 258 301
#     4  11  21  30  47  78 108 136 171 216 260 298
#
# _framework density 18.317691
#
# number of rings (size 3 to 8) (size 9 to 14) (size 15 to 20)
#    0.000    2.000    3.333    1.000    0.000    3.000 
#    0.000    0.000    0.000    2.000    0.000    0.000 
#    0.000    0.000    0.000    0.000    0.000    0.000 
#
# Total GULP energy -594650.759984 kJ/mol
# GULP energy per Si atom -12388.557500 kJ/mol
# Density = 1.827600 g / cm^3
# Si number density = 18.317691 Si / 1000 Ang^3
#
#
#
# Elastic Constant Matrix: (Units=GPa)
#
#
# Indices 1 2 3 4 5 6 
#
# 1 92.2529 5.8050 52.0891 0.0000 0.0000 0.0000
# 2 5.8050 78.2682 37.8649 0.0000 0.0000 0.0000
# 3 52.0891 37.8649 117.0344 0.0000 0.0000 0.0000
# 4 0.0000 0.0000 0.0000 15.4199 0.0000 0.0000
# 5 0.0000 0.0000 0.0000 0.0000 34.1153 0.0000
# 6 0.0000 0.0000 0.0000 0.0000 0.0000 11.7875
#
#
#
# Elastic Compliance Matrix: (Units=1/GPa)
#
#
# Indices 1 2 3 4 5 6 
#
# 1 0.014876 0.002489 -0.007427 0.000000 0.000000 0.000000
# 2 0.002489 0.015564 -0.006144 0.000000 0.000000 0.000000
# 3 -0.007427 -0.006144 0.013838 0.000000 0.000000 0.000000
# 4 0.000000 0.000000 0.000000 0.064851 0.000000 0.000000
# 5 0.000000 0.000000 0.000000 0.000000 0.029312 0.000000
# 6 0.000000 0.000000 0.000000 0.000000 0.000000 0.084836
#
#
# Mechanical properties :
#
#
# Convention : Reuss Voigt Hill
#
# Bulk Modulus (GPa) = 45.21454 53.23039 49.22246
# Shear Modulus (GPa) = 19.77764 25.05099 22.41431
#
# Velocity S-wave (km/s) = 3.28945 3.70210 3.50186
# Velocity P-wave (km/s) = 6.25815 6.88452 6.57879
#
# Compressibility (1/GPa) = 0.02211678
#
# Stress axis : x y z
#
# Youngs Moduli (GPa) = 67.22065 64.25043 72.26728
#
# Poissons Ratio (x) = -0.15995 0.53670
# Poissons Ratio (y) = -0.16734 0.44398
# Poissons Ratio (z) = 0.49922 0.39473
#
# Static dielectric constant tensor:
#      x y z
#    x 3.401520 0.000000 0.000000 
#    y 0.000000 3.000810 0.000000 
#    z 0.000000 0.000000 3.228140 
# 
# 
# High freq. dielectric constant tensor:
#      x y z
#    x 1.703640 0.000000 0.000000 
#    y 0.000000 1.677190 0.000000 
#    z 0.000000 0.000000 1.699010 
# 
# From -- ./inp_files/49065.got.cif
#   From: 2010.03.12/outbox.cif.g09.slc.cpg/sg74_25_cif.got.tgz:49065.got - 2010.04.16 15:46:19.
