data_PCOD8298988
_publ_section_title
;
Structure prediction by ZEFSAII (Michael W. Deem and Ramdas Pophale) SiO2 
 PCOD8298988
Probable space group: I M M A
;
_chemical_formula_sum "Si O2"
_cell_formula_units_Z 72
_cell_length_a 26.187987
_cell_length_b 9.581901
_cell_length_c 14.586655
_cell_angle_alpha 90.000000
_cell_angle_beta 90.000000
_cell_angle_gamma 90.000000
_cell_volume 3660.239533
_symmetry_space_group_name_H-M "I M M A"
_symmetry_group_IT_number 74
_symmetry_cell_setting 'orthorhombic'
loop_
_space_group_symop_operation_xyz
x,y,z
-x,1/2-y,z
x,-y,-z
-x,1/2+y,-z
-x,-y,-z
x,1/2+y,-z
-x,y,z
x,1/2-y,z
1/2+x,1/2+y,1/2+z
1/2-x,-y,1/2+z
1/2+x,1/2-y,1/2-z
1/2-x,y,1/2-z
1/2-x,1/2-y,1/2-z
1/2+x,y,1/2-z
1/2-x,1/2+y,1/2+z
1/2+x,-y,1/2+z
loop_
_atom_site_type_symbol
_atom_site_label
_atom_site_fract_x
_atom_site_fract_y
_atom_site_fract_z
Si Si1 0.598858 0.906044 0.578982
Si Si2 0.303303 0.000000 0.500000
Si Si3 0.729149 0.090252 0.844053
Si Si4 0.122006 0.589074 0.413301
Si Si5 0.440709 0.591383 0.264375
O O1 0.575583 0.750000 0.582149
O O2 0.659524 0.894542 0.556043
O O3 0.571104 0.000000 0.500000
O O4 0.591207 0.983467 0.674953
O O5 0.268967 0.081234 0.572947
O O6 0.717837 0.250000 0.820317
O O7 0.750000 0.018083 0.750000
O O8 0.674994 0.023958 0.873755
O O9 0.104312 0.500000 0.500000
O O10 0.129641 0.750000 0.442867
O O11 0.077239 0.573648 0.339561
O O12 0.500000 0.553820 0.270294
O O13 0.430046 0.750000 0.298125
#
# Coordination Sequence:
#
# PCOD8298988 Si02
#       5
#    16   8  16  16  16
#     4  10  22  37  59  88 121 155 193 238 290 349
#     4  10  20  34  57  86 123 150 194 238 282 346
#     4  10  19  33  56  82 113 156 197 235 285 344
#     4  10  21  38  59  86 118 153 196 244 292 348
#     4  10  22  41  64  87 114 152 199 247 295 346
#
# _framework density 19.670843000000001
#
# number of rings (size 3 to 8) (size 9 to 14) (size 15 to 20)
#    0.667    1.333    1.111    2.667    0.000    4.000 
#    0.000    0.000    0.000    3.333    0.000    0.000 
#    0.000    0.000    0.000    0.000    0.000    0.000 
#
# Total GULP energy -446236.477266 kJ/mol
# GULP energy per Si atom -12395.457702 kJ/mol
# Density = 1.962607 g / cm^3
# Si number density = 19.670843 Si / 1000 Ang^3
#
#
#
# Elastic Constant Matrix: (Units=GPa)
#
#
# Indices 1 2 3 4 5 6 
#
# 1 76.5714 20.1087 32.5212 0.0000 0.0000 0.0000
# 2 20.1087 97.3474 48.4486 0.0000 0.0000 0.0000
# 3 32.5212 48.4486 110.3150 0.0000 0.0000 0.0000
# 4 0.0000 0.0000 0.0000 35.1272 0.0000 0.0000
# 5 0.0000 0.0000 0.0000 0.0000 27.7855 0.0000
# 6 0.0000 0.0000 0.0000 0.0000 0.0000 15.6428
#
#
#
# Elastic Compliance Matrix: (Units=1/GPa)
#
#
# Indices 1 2 3 4 5 6 
#
# 1 0.015029 -0.001151 -0.003925 0.000000 0.000000 0.000000
# 2 -0.001151 0.013234 -0.005473 0.000000 0.000000 0.000000
# 3 -0.003925 -0.005473 0.012626 0.000000 0.000000 0.000000
# 4 0.000000 0.000000 0.000000 0.028468 0.000000 0.000000
# 5 0.000000 0.000000 0.000000 0.000000 0.035990 0.000000
# 6 0.000000 0.000000 0.000000 0.000000 0.000000 0.063927
#
#
# Mechanical properties :
#
#
# Convention : Reuss Voigt Hill
#
# Bulk Modulus (GPa) = 50.52855 54.04343 52.28599
# Shear Modulus (GPa) = 25.38472 27.92143 26.65308
#
# Velocity S-wave (km/s) = 3.59621 3.77162 3.68496
# Velocity P-wave (km/s) = 6.55641 6.81912 6.68905
#
# Compressibility (1/GPa) = 0.01979079
#
# Stress axis : x y z
#
# Youngs Moduli (GPa) = 66.53780 75.56277 79.20365
#
# Poissons Ratio (x) = 0.08697 0.31088
# Poissons Ratio (y) = 0.07659 0.43347
# Poissons Ratio (z) = 0.26117 0.41354
#
# Static dielectric constant tensor:
#      x y z
#    x 3.483230 0.000000 0.000000 
#    y 0.000000 3.273660 0.000000 
#    z 0.000000 0.000000 3.535330 
# 
# 
# High freq. dielectric constant tensor:
#      x y z
#    x 1.761250 0.000000 0.000000 
#    y 0.000000 1.740210 0.000000 
#    z 0.000000 0.000000 1.771030 
# 
# From -- ./inp_files/37044.got.cif
#   From: 2010.03.12/outbox.cif.g09.slc.cpg/sg74_19_cif.got.tgz:37044.got - 2010.04.16 15:46:19.
