data_PCOD8298363
_publ_section_title
;
Structure prediction by ZEFSAII (Michael W. Deem and Ramdas Pophale) SiO2 
 PCOD8298363
Probable space group: I M M A
;
_chemical_formula_sum "Si O2"
_cell_formula_units_Z 104
_cell_length_a 23.315795
_cell_length_b 24.223761
_cell_length_c 9.116131
_cell_angle_alpha 90.000000
_cell_angle_beta 90.000000
_cell_angle_gamma 90.000000
_cell_volume 5148.756563
_symmetry_space_group_name_H-M "I M M A"
_symmetry_group_IT_number 74
_symmetry_cell_setting 'orthorhombic'
loop_
_space_group_symop_operation_xyz
x,y,z
-x,1/2-y,z
x,-y,-z
-x,1/2+y,-z
-x,-y,-z
x,1/2+y,-z
-x,y,z
x,1/2-y,z
1/2+x,1/2+y,1/2+z
1/2-x,-y,1/2+z
1/2+x,1/2-y,1/2-z
1/2-x,y,1/2-z
1/2-x,1/2-y,1/2-z
1/2+x,y,1/2-z
1/2-x,1/2+y,1/2+z
1/2+x,-y,1/2+z
loop_
_atom_site_type_symbol
_atom_site_label
_atom_site_fract_x
_atom_site_fract_y
_atom_site_fract_z
Si Si1 0.377319 0.188501 0.850891
Si Si2 0.845911 0.394426 0.856914
Si Si3 0.432418 0.186719 0.157139
Si Si4 0.750000 0.658523 0.750000
Si Si5 0.750387 0.309241 0.940800
Si Si6 0.863899 0.596887 0.821650
Si Si7 0.689407 0.999476 0.176573
O O1 0.399267 0.250000 0.813029
O O2 0.393202 0.145807 0.720668
O O3 0.308200 0.184670 0.850904
O O4 0.404642 0.169150 0.003034
O O5 0.789745 0.360807 0.905695
O O6 0.828388 0.440058 0.738144
O O7 0.873831 0.418573 0.006362
O O8 0.500000 0.181847 0.142699
O O9 0.414798 0.250000 0.200150
O O10 0.411412 0.142101 0.276043
O O11 0.768113 0.695074 0.611305
O O12 0.801905 0.621687 0.801053
O O13 0.779733 0.250000 0.900996
O O14 0.862179 0.541153 0.723961
O O15 0.750000 0.016870 0.250000
O O16 0.695711 0.000000 0.000000
#
# Coordination Sequence:
#
# PCOD8298363 Si02
#       7
#    16  16  16   8  16  16  16
#     4  10  19  34  55  82 117 157 199 243 296 360
#     4  11  23  35  56  87 125 160 199 246 308 370
#     4  10  22  41  65  89 118 161 209 254 301 361
#     4  10  19  30  52  84 120 156 191 234 294 366
#     4  10  19  30  50  82 122 158 189 230 293 363
#     4  11  22  38  59  87 121 158 204 252 308 366
#     4  12  24  37  59  85 123 167 209 253 301 369
#
# _framework density 20.199051000000001
#
# number of rings (size 3 to 8) (size 9 to 14) (size 15 to 20)
#    0.000    1.385    2.308    4.385    2.154    4.308 
#    0.000    0.769    0.000    7.846    0.000    0.000 
#    0.000    0.000    0.000    0.000    0.000    0.000 
#
# Total GULP energy -644383.387852 kJ/mol
# GULP energy per Si atom -12391.988228 kJ/mol
# Density = 2.015308 g / cm^3
# Si number density = 20.199051 Si / 1000 Ang^3
#
#
#
# Elastic Constant Matrix: (Units=GPa)
#
#
# Indices 1 2 3 4 5 6 
#
# 1 35.0152 24.5868 7.8427 0.0000 0.0000 0.0000
# 2 24.5868 117.1163 61.7811 0.0000 0.0000 0.0000
# 3 7.8427 61.7811 167.5339 0.0000 0.0000 0.0000
# 4 0.0000 0.0000 0.0000 19.4116 0.0000 0.0000
# 5 0.0000 0.0000 0.0000 0.0000 9.8928 0.0000
# 6 0.0000 0.0000 0.0000 0.0000 0.0000 21.7968
#
#
#
# Elastic Compliance Matrix: (Units=1/GPa)
#
#
# Indices 1 2 3 4 5 6 
#
# 1 0.033717 -0.007754 0.001281 0.000000 0.000000 0.000000
# 2 -0.007754 0.012384 -0.004204 0.000000 0.000000 0.000000
# 3 0.001281 -0.004204 0.007459 0.000000 0.000000 0.000000
# 4 0.000000 0.000000 0.000000 0.051516 0.000000 0.000000
# 5 0.000000 0.000000 0.000000 0.000000 0.101083 0.000000
# 6 0.000000 0.000000 0.000000 0.000000 0.000000 0.045878
#
#
# Mechanical properties :
#
#
# Convention : Reuss Voigt Hill
#
# Bulk Modulus (GPa) = 31.04978 56.45406 43.75192
# Shear Modulus (GPa) = 17.59779 25.25056 21.42418
#
# Velocity S-wave (km/s) = 2.95484 3.53949 3.26030
# Velocity P-wave (km/s) = 5.20065 6.68682 5.99000
#
# Compressibility (1/GPa) = 0.03220634
#
# Stress axis : x y z
#
# Youngs Moduli (GPa) = 29.65870 80.74935 134.06252
#
# Poissons Ratio (x) = 0.62615 -0.17175
# Poissons Ratio (y) = 0.22998 0.56358
# Poissons Ratio (z) = -0.03800 0.33946
#
# Static dielectric constant tensor:
#      x y z
#    x 3.024820 0.000000 0.000000 
#    y 0.000000 3.908310 0.000000 
#    z 0.000000 0.000000 4.361520 
# 
# 
# High freq. dielectric constant tensor:
#      x y z
#    x 1.722990 0.000000 0.000000 
#    y 0.000000 1.799160 0.000000 
#    z 0.000000 0.000000 1.813490 
# 
# From -- ./inp_files/15366.got.cif
#   From: 2010.03.12/outbox.cif.g09.slc.cpg/sg74_8_cif.got.tgz:15366.got - 2010.04.16 15:46:19.
