data_PCOD8298640
_publ_section_title
;
Structure prediction by ZEFSAII (Michael W. Deem and Ramdas Pophale) SiO2 
 PCOD8298640
Probable space group: I M M A
;
_chemical_formula_sum "Si O2"
_cell_formula_units_Z 96
_cell_length_a 16.810061
_cell_length_b 18.859181
_cell_length_c 17.933005
_cell_angle_alpha 90.000000
_cell_angle_beta 90.000000
_cell_angle_gamma 90.000000
_cell_volume 5685.192673
_symmetry_space_group_name_H-M "I M M A"
_symmetry_group_IT_number 74
_symmetry_cell_setting 'orthorhombic'
loop_
_space_group_symop_operation_xyz
x,y,z
-x,1/2-y,z
x,-y,-z
-x,1/2+y,-z
-x,-y,-z
x,1/2+y,-z
-x,y,z
x,1/2-y,z
1/2+x,1/2+y,1/2+z
1/2-x,-y,1/2+z
1/2+x,1/2-y,1/2-z
1/2-x,y,1/2-z
1/2-x,1/2-y,1/2-z
1/2+x,y,1/2-z
1/2-x,1/2+y,1/2+z
1/2+x,-y,1/2+z
loop_
_atom_site_type_symbol
_atom_site_label
_atom_site_fract_x
_atom_site_fract_y
_atom_site_fract_z
Si Si1 0.788548 0.473622 0.082987
Si Si2 0.906830 0.050013 0.813062
Si Si3 0.248170 0.171580 0.470788
Si Si4 0.196252 0.830288 0.139632
Si Si5 0.835366 0.927925 0.342791
Si Si6 0.588203 0.829887 0.043759
O O1 0.862260 0.492662 0.135734
O O2 0.781299 0.388142 0.084669
O O3 0.706673 0.508987 0.111223
O O4 0.806764 0.500000 0.000000
O O5 0.885748 0.129674 0.840544
O O6 0.878053 0.038600 0.728516
O O7 0.000000 0.037014 0.820088
O O8 0.265458 0.250000 0.437525
O O9 0.289020 0.164340 0.551408
O O10 0.153362 0.158618 0.479262
O O11 0.190496 0.750000 0.167922
O O12 0.268635 0.870317 0.181363
O O13 0.901737 0.887855 0.391473
O O14 0.500000 0.838836 0.009375
O O15 0.599646 0.750000 0.077010
#
# Coordination Sequence:
#
# PCOD8298640 Si02
#       6
#    16  16  16  16  16  16
#     4  11  18  35  57  77  95 131 178 213 249 299
#     4  11  23  34  48  73 107 140 168 211 261 302
#     4   9  17  32  52  75 101 128 168 212 252 301
#     4   9  17  31  50  73 102 139 175 204 237 295
#     4  10  19  32  50  73 103 139 173 206 248 304
#     4   9  16  27  46  74 109 140 163 196 245 301
#
# _framework density 16.885971000000001
#
# number of rings (size 3 to 8) (size 9 to 14) (size 15 to 20)
#    0.000    2.167    5.000    4.000    0.000    2.667 
#    0.000    2.500    0.000    2.500    0.000    0.000 
#    0.000    0.000    0.000    0.000    0.000    0.000 
#
# Total GULP energy -594995.549049 kJ/mol
# GULP energy per Si atom -12395.740605 kJ/mol
# Density = 1.684754 g / cm^3
# Si number density = 16.885971 Si / 1000 Ang^3
#
#
#
# Elastic Constant Matrix: (Units=GPa)
#
#
# Indices 1 2 3 4 5 6 
#
# 1 99.0189 45.2787 34.8300 0.0000 0.0000 0.0000
# 2 45.2787 116.5702 37.7968 0.0000 0.0000 0.0000
# 3 34.8300 37.7968 42.1854 0.0000 0.0000 0.0000
# 4 0.0000 0.0000 0.0000 21.7964 0.0000 0.0000
# 5 0.0000 0.0000 0.0000 0.0000 19.0411 0.0000
# 6 0.0000 0.0000 0.0000 0.0000 0.0000 19.4847
#
#
#
# Elastic Compliance Matrix: (Units=1/GPa)
#
#
# Indices 1 2 3 4 5 6 
#
# 1 0.014735 -0.002507 -0.009919 0.000000 0.000000 0.000000
# 2 -0.002507 0.012518 -0.009146 0.000000 0.000000 0.000000
# 3 -0.009919 -0.009146 0.040089 0.000000 0.000000 0.000000
# 4 0.000000 0.000000 0.000000 0.045879 0.000000 0.000000
# 5 0.000000 0.000000 0.000000 0.000000 0.052518 0.000000
# 6 0.000000 0.000000 0.000000 0.000000 0.000000 0.051322
#
#
# Mechanical properties :
#
#
# Convention : Reuss Voigt Hill
#
# Bulk Modulus (GPa) = 41.32684 54.84285 48.08484
# Shear Modulus (GPa) = 18.63793 21.38902 20.01348
#
# Velocity S-wave (km/s) = 3.32588 3.56290 3.44643
# Velocity P-wave (km/s) = 6.26704 7.03381 6.66147
#
# Compressibility (1/GPa) = 0.02419735
#
# Stress axis : x y z
#
# Youngs Moduli (GPa) = 67.86743 79.88707 24.94466
#
# Poissons Ratio (x) = 0.20028 0.24743
# Poissons Ratio (y) = 0.17015 0.22813
# Poissons Ratio (z) = 0.67319 0.73061
#
# Static dielectric constant tensor:
#      x y z
#    x 3.093620 0.000000 0.000000 
#    y 0.000000 3.327300 0.000000 
#    z 0.000000 0.000000 2.879990 
# 
# 
# High freq. dielectric constant tensor:
#      x y z
#    x 1.639600 0.000000 0.000000 
#    y 0.000000 1.648860 0.000000 
#    z 0.000000 0.000000 1.620890 
# 
# From -- ./inp_files/32403.got.cif
#   From: 2010.03.12/outbox.cif.g09.slc.cpg/sg74_17_cif.got.tgz:32403.got - 2010.04.16 15:46:19.
