data_PCOD8298638
_publ_section_title
;
Structure prediction by ZEFSAII (Michael W. Deem and Ramdas Pophale) SiO2 
 PCOD8298638
Probable space group: I M M A
;
_chemical_formula_sum "Si O2"
_cell_formula_units_Z 112
_cell_length_a 13.531964
_cell_length_b 27.894835
_cell_length_c 15.459227
_cell_angle_alpha 90.000000
_cell_angle_beta 90.000000
_cell_angle_gamma 90.000000
_cell_volume 5835.423835
_symmetry_space_group_name_H-M "I M M A"
_symmetry_group_IT_number 74
_symmetry_cell_setting 'orthorhombic'
loop_
_space_group_symop_operation_xyz
x,y,z
-x,1/2-y,z
x,-y,-z
-x,1/2+y,-z
-x,-y,-z
x,1/2+y,-z
-x,y,z
x,1/2-y,z
1/2+x,1/2+y,1/2+z
1/2-x,-y,1/2+z
1/2+x,1/2-y,1/2-z
1/2-x,y,1/2-z
1/2-x,1/2-y,1/2-z
1/2+x,y,1/2-z
1/2-x,1/2+y,1/2+z
1/2+x,-y,1/2+z
loop_
_atom_site_type_symbol
_atom_site_label
_atom_site_fract_x
_atom_site_fract_y
_atom_site_fract_z
Si Si1 0.386963 0.664154 0.187992
Si Si2 0.314111 0.304321 0.632360
Si Si3 0.749421 0.561166 0.918124
Si Si4 0.890354 0.572061 0.421217
Si Si5 0.113730 0.477916 0.887448
Si Si6 0.889173 0.984431 0.700456
Si Si7 0.885866 0.881675 0.011336
O O1 0.500000 0.680449 0.167487
O O2 0.368441 0.666608 0.290713
O O3 0.305241 0.698061 0.142840
O O4 0.365900 0.610615 0.153551
O O5 0.353818 0.250000 0.629099
O O6 0.343770 0.331291 0.544830
O O7 0.815133 0.514032 0.938584
O O8 0.688663 0.557582 0.827217
O O9 0.678898 0.574695 0.997059
O O10 0.829487 0.604757 0.921262
O O11 0.881526 0.519664 0.380751
O O12 0.000000 0.581185 0.456499
O O13 0.140250 0.486514 0.786309
O O14 0.135306 0.423325 0.916092
O O15 0.000000 0.491515 0.906524
O O16 0.000000 0.963306 0.709446
O O17 0.000000 0.876428 0.989615
#
# Coordination Sequence:
#
# PCOD8298638 Si02
#       7
#    16  16  16  16  16  16  16
#     4  10  20  35  54  75 102 135 176 220 257 297
#     4  11  23  37  55  78 103 139 183 220 260 302
#     4  12  21  32  50  74 101 137 174 217 260 310
#     4  10  19  32  50  73 101 137 175 215 260 306
#     4  10  21  35  51  73 102 140 180 216 260 309
#     4  10  20  32  48  72 102 134 174 218 258 305
#     4  11  22  36  52  73 104 141 180 220 260 308
#
# _framework density 19.193121999999999
#
# number of rings (size 3 to 8) (size 9 to 14) (size 15 to 20)
#    0.000    1.429    1.429    6.000    0.000    6.571 
#    0.000    0.000    0.000    0.000    0.000    0.000 
#    0.000    2.286    0.000    3.429    0.571    0.000 
#
# Total GULP energy -693897.679886 kJ/mol
# GULP energy per Si atom -12391.029998 kJ/mol
# Density = 1.914944 g / cm^3
# Si number density = 19.193122 Si / 1000 Ang^3
#
#
#
# Elastic Constant Matrix: (Units=GPa)
#
#
# Indices 1 2 3 4 5 6 
#
# 1 105.0960 40.6658 28.0926 -0.0001 0.0000 0.0000
# 2 40.6658 68.9712 21.9676 -0.0004 -0.0001 0.0000
# 3 28.0926 21.9676 45.0991 -0.0013 0.0000 -0.0001
# 4 -0.0001 -0.0004 -0.0013 18.8524 -0.0001 0.0000
# 5 0.0000 -0.0001 0.0000 -0.0001 23.0566 0.0000
# 6 0.0000 0.0000 -0.0001 0.0000 0.0000 17.3220
#
#
#
# Elastic Compliance Matrix: (Units=1/GPa)
#
#
# Indices 1 2 3 4 5 6 
#
# 1 0.013315 -0.006165 -0.005291 0.000000 0.000000 0.000000
# 2 -0.006165 0.020016 -0.005909 0.000000 0.000000 0.000000
# 3 -0.005291 -0.005909 0.028348 0.000002 0.000000 0.000000
# 4 0.000000 0.000000 0.000002 0.053044 0.000000 0.000000
# 5 0.000000 0.000000 0.000000 0.000000 0.043372 0.000000
# 6 0.000000 0.000000 0.000000 0.000000 0.000000 0.057730
#
#
# Mechanical properties :
#
#
# Convention : Reuss Voigt Hill
#
# Bulk Modulus (GPa) = 37.10924 44.51316 40.81120
# Shear Modulus (GPa) = 19.26503 20.40888 19.83696
#
# Velocity S-wave (km/s) = 3.17163 3.26443 3.21837
# Velocity P-wave (km/s) = 5.72617 6.11975 5.92622
#
# Compressibility (1/GPa) = 0.02694747
#
# Stress axis : x y z
#
# Youngs Moduli (GPa) = 75.10295 49.95974 35.27640
#
# Poissons Ratio (x) = 0.30802 0.18664
# Poissons Ratio (y) = 0.46304 0.20846
# Poissons Ratio (z) = 0.39736 0.29523
#
# Static dielectric constant tensor:
#      x y z
#    x 4.093790 0.000000 0.000000 
#    y 0.000000 3.213880 0.000000 
#    z 0.000000 0.000000 3.510580 
# 
# 
# High freq. dielectric constant tensor:
#      x y z
#    x 1.784200 0.000000 0.000000 
#    y 0.000000 1.694920 0.000000 
#    z 0.000000 0.000000 1.717580 
# 
# From -- ./inp_files/33117.got.cif
#   From: 2010.03.12/outbox.cif.g09.slc.cpg/sg74_17_cif.got.tgz:33117.got - 2010.04.16 15:46:19.
