data_PCOD8298467
_publ_section_title
;
Structure prediction by ZEFSAII (Michael W. Deem and Ramdas Pophale) SiO2 
 PCOD8298467
Probable space group: I M M A
;
_chemical_formula_sum "Si O2"
_cell_formula_units_Z 104
_cell_length_a 8.918598
_cell_length_b 28.366035
_cell_length_c 24.289424
_cell_angle_alpha 90.000000
_cell_angle_beta 90.000000
_cell_angle_gamma 90.000000
_cell_volume 6144.866319
_symmetry_space_group_name_H-M "I M M A"
_symmetry_group_IT_number 74
_symmetry_cell_setting 'orthorhombic'
loop_
_space_group_symop_operation_xyz
x,y,z
-x,1/2-y,z
x,-y,-z
-x,1/2+y,-z
-x,-y,-z
x,1/2+y,-z
-x,y,z
x,1/2-y,z
1/2+x,1/2+y,1/2+z
1/2-x,-y,1/2+z
1/2+x,1/2-y,1/2-z
1/2-x,y,1/2-z
1/2-x,1/2-y,1/2-z
1/2+x,y,1/2-z
1/2-x,1/2+y,1/2+z
1/2+x,-y,1/2+z
loop_
_atom_site_type_symbol
_atom_site_label
_atom_site_fract_x
_atom_site_fract_y
_atom_site_fract_z
Si Si1 0.676763 0.696973 0.102798
Si Si2 0.326964 0.195853 0.492414
Si Si3 0.323805 0.165306 0.373899
Si Si4 0.822245 0.750000 0.690348
Si Si5 0.674009 0.925428 0.691617
Si Si6 0.821769 0.379423 0.690108
Si Si7 0.176308 0.971288 0.190698
O O1 0.500000 0.697141 0.099438
O O2 0.738980 0.750000 0.112951
O O3 0.731488 0.664134 0.152604
O O4 0.736334 0.676678 0.044887
O O5 0.500000 0.189898 0.506932
O O6 0.285865 0.250000 0.479774
O O7 0.282613 0.166027 0.438483
O O8 0.500000 0.176152 0.365295
O O9 0.228675 0.203733 0.341753
O O10 0.275724 0.113955 0.351950
O O11 0.750000 0.750000 0.750000
O O12 0.000000 0.750000 0.696236
O O13 0.500000 0.921489 0.704567
O O14 0.750000 0.916553 0.750000
O O15 0.709383 0.977031 0.664649
O O16 0.750000 0.371936 0.750000
O O17 0.758172 0.427313 0.660682
O O18 0.000000 0.382544 0.695250
O O19 0.250000 0.972979 0.250000
O O20 0.000000 0.960821 0.194437
#
# Coordination Sequence:
#
# PCOD8298467 Si02
#       7
#    16  16  16   8  16  16  16
#     4   9  19  34  50  70  98 127 156 194 235 278
#     4   9  17  31  51  71  91 121 161 200 239 280
#     4  10  19  34  51  69  96 126 160 204 247 288
#     4  12  24  34  46  68  98 132 165 200 247 296
#     4   9  18  30  47  69  95 125 157 197 242 287
#     4  10  19  31  49  73  99 128 156 187 234 283
#     4   9  16  28  46  69  94 123 158 193 232 280
#
# _framework density 16.924696000000001
#
# number of rings (size 3 to 8) (size 9 to 14) (size 15 to 20)
#    0.000    2.462    0.769    3.000    0.000    4.615 
#    0.000    0.000    0.000    0.923    0.000    6.462 
#    0.000    0.000    0.000    0.000    0.000    0.000 
#
# Total GULP energy -644511.114242 kJ/mol
# GULP energy per Si atom -12394.444505 kJ/mol
# Density = 1.688617 g / cm^3
# Si number density = 16.924696 Si / 1000 Ang^3
#
#
#
# Elastic Constant Matrix: (Units=GPa)
#
#
# Indices 1 2 3 4 5 6 
#
# 1 59.2187 47.9910 37.3430 0.0000 0.0000 0.0000
# 2 47.9910 141.1086 77.4426 0.0000 0.0000 0.0000
# 3 37.3430 77.4426 105.2696 0.0001 0.0000 0.0000
# 4 0.0000 0.0000 0.0001 2.3282 0.0000 0.0000
# 5 0.0000 0.0000 0.0000 0.0000 25.1869 0.0000
# 6 0.0000 0.0000 0.0000 0.0000 0.0000 20.8762
#
#
#
# Elastic Compliance Matrix: (Units=1/GPa)
#
#
# Indices 1 2 3 4 5 6 
#
# 1 0.024410 -0.005953 -0.004280 0.000000 0.000000 0.000000
# 2 -0.005953 0.013337 -0.007700 0.000000 0.000000 0.000000
# 3 -0.004280 -0.007700 0.016682 0.000000 0.000000 0.000000
# 4 0.000000 0.000000 0.000000 0.429525 0.000000 0.000000
# 5 0.000000 0.000000 0.000000 0.000000 0.039703 0.000000
# 6 0.000000 0.000000 0.000000 0.000000 0.000000 0.047901
#
#
# Mechanical properties :
#
#
# Convention : Reuss Voigt Hill
#
# Bulk Modulus (GPa) = 53.86812 70.12780 61.99796
# Shear Modulus (GPa) = 8.14849 19.19961 13.67405
#
# Velocity S-wave (km/s) = 2.19659 3.37176 2.84550
# Velocity P-wave (km/s) = 6.19117 7.52884 6.89253
#
# Compressibility (1/GPa) = 0.01856386
#
# Stress axis : x y z
#
# Youngs Moduli (GPa) = 40.96756 74.97842 59.94473
#
# Poissons Ratio (x) = 0.44635 0.25654
# Poissons Ratio (y) = 0.24388 0.46157
# Poissons Ratio (z) = 0.17532 0.57732
#
# Static dielectric constant tensor:
#      x y z
#    x 3.203500 0.000000 0.000000 
#    y 0.000000 3.988170 0.000000 
#    z 0.000000 0.000000 3.074140 
# 
# 
# High freq. dielectric constant tensor:
#      x y z
#    x 1.655600 0.000000 0.000000 
#    y 0.000000 1.657170 0.000000 
#    z 0.000000 0.000000 1.627110 
# 
# From -- ./inp_files/57839.got.cif
#   From: 2010.03.12/outbox.cif.g09.slc.cpg/sg74_29_cif.got.tgz:57839.got - 2010.04.16 15:46:19.
