data_PCOD8298204
_publ_section_title
;
Structure prediction by ZEFSAII (Michael W. Deem and Ramdas Pophale) SiO2 
 PCOD8298204
Probable space group: I M M A
;
_chemical_formula_sum "Si O2"
_cell_formula_units_Z 80
_cell_length_a 26.218025
_cell_length_b 7.714696
_cell_length_c 27.920633
_cell_angle_alpha 90.000000
_cell_angle_beta 90.000000
_cell_angle_gamma 90.000000
_cell_volume 5647.341498
_symmetry_space_group_name_H-M "I M M A"
_symmetry_group_IT_number 74
_symmetry_cell_setting 'orthorhombic'
loop_
_space_group_symop_operation_xyz
x,y,z
-x,1/2-y,z
x,-y,-z
-x,1/2+y,-z
-x,-y,-z
x,1/2+y,-z
-x,y,z
x,1/2-y,z
1/2+x,1/2+y,1/2+z
1/2-x,-y,1/2+z
1/2+x,1/2-y,1/2-z
1/2-x,y,1/2-z
1/2-x,1/2-y,1/2-z
1/2+x,y,1/2-z
1/2-x,1/2+y,1/2+z
1/2+x,-y,1/2+z
loop_
_atom_site_type_symbol
_atom_site_label
_atom_site_fract_x
_atom_site_fract_y
_atom_site_fract_z
Si Si1 0.500000 0.955767 0.796853
Si Si2 0.109280 0.946047 0.268885
Si Si3 0.500000 0.044163 0.094753
Si Si4 0.169521 0.750000 0.769057
Si Si5 0.765132 0.250000 0.326591
Si Si6 0.605943 0.546738 0.945952
Si Si7 0.173531 0.556032 0.361303
O O1 0.500000 0.750000 0.796348
O O2 0.500000 0.027364 0.851123
O O3 0.451202 0.027865 0.768957
O O4 0.122730 0.750000 0.253263
O O5 0.130281 0.988375 0.321989
O O6 0.134666 0.077453 0.230911
O O7 0.500000 0.250000 0.094865
O O8 0.450135 0.973217 0.067218
O O9 0.205571 0.750000 0.723256
O O10 0.204398 0.750000 0.816772
O O11 0.779728 0.421824 0.356578
O O12 0.608512 0.750000 0.936321
O O13 0.648225 0.456072 0.913282
O O14 0.619318 0.500000 0.000000
O O15 0.195212 0.750000 0.353811
#
# Coordination Sequence:
#
# PCOD8298204 Si02
#       7
#     8  16   8   8   8  16  16
#     4  11  17  28  46  61  83 116 145 177 210 264
#     4  10  19  29  44  64  85 108 140 172 212 257
#     4   9  19  28  44  58  76 113 147 180 229 267
#     4   9  18  31  46  64  82 105 130 175 224 262
#     4   9  18  32  48  62  82 102 132 174 224 273
#     4  11  20  32  43  59  83 109 143 186 228 270
#     4  10  19  31  46  63  79 106 139 174 221 269
#
# _framework density 14.165957000000001
#
# number of rings (size 3 to 8) (size 9 to 14) (size 15 to 20)
#    0.000    2.000    4.000    1.200    0.000    0.800 
#    0.000    5.500    0.000    0.000    0.000    0.000 
#    0.000    0.000    0.000    0.000    0.000    0.000 
#
# Total GULP energy -496049.776942 kJ/mol
# GULP energy per Si atom -12401.244424 kJ/mol
# Density = 1.413372 g / cm^3
# Si number density = 14.165957 Si / 1000 Ang^3
#
#
#
# Elastic Constant Matrix: (Units=GPa)
#
#
# Indices 1 2 3 4 5 6 
#
# 1 84.2510 40.4987 44.8022 0.0000 0.0000 0.0000
# 2 40.4987 96.2027 25.5138 0.0000 0.0000 0.0000
# 3 44.8022 25.5138 45.4582 0.0000 0.0000 0.0000
# 4 0.0000 0.0000 0.0000 13.8941 0.0000 0.0000
# 5 0.0000 0.0000 0.0000 0.0000 19.4334 0.0000
# 6 0.0000 0.0000 0.0000 0.0000 0.0000 12.7740
#
#
#
# Elastic Compliance Matrix: (Units=1/GPa)
#
#
# Indices 1 2 3 4 5 6 
#
# 1 0.026870 -0.005038 -0.023654 0.000000 0.000000 0.000000
# 2 -0.005038 0.013157 -0.002419 0.000000 0.000000 0.000000
# 3 -0.023654 -0.002419 0.046669 0.000000 0.000000 0.000000
# 4 0.000000 0.000000 0.000000 0.071973 0.000000 0.000000
# 5 0.000000 0.000000 0.000000 0.000000 0.051458 0.000000
# 6 0.000000 0.000000 0.000000 0.000000 0.000000 0.078284
#
#
# Mechanical properties :
#
#
# Convention : Reuss Voigt Hill
#
# Bulk Modulus (GPa) = 40.86184 49.72683 45.29433
# Shear Modulus (GPa) = 13.93565 16.89343 15.41454
#
# Velocity S-wave (km/s) = 3.13987 3.45706 3.30228
# Velocity P-wave (km/s) = 6.48481 7.14942 6.82521
#
# Compressibility (1/GPa) = 0.02447271
#
# Stress axis : x y z
#
# Youngs Moduli (GPa) = 37.21657 76.00396 21.42749
#
# Poissons Ratio (x) = 0.38292 0.50685
# Poissons Ratio (y) = 0.18750 0.05184
# Poissons Ratio (z) = 0.88033 0.18387
#
# Static dielectric constant tensor:
#      x y z
#    x 2.705760 0.000000 0.000000 
#    y 0.000000 2.899810 0.000000 
#    z 0.000000 0.000000 2.452720 
# 
# 
# High freq. dielectric constant tensor:
#      x y z
#    x 1.515390 0.000000 0.000000 
#    y 0.000000 1.558950 0.000000 
#    z 0.000000 0.000000 1.488460 
# 
# From -- ./inp_files/57454.got.cif
#   From: 2010.03.12/outbox.cif.g09.slc.cpg/sg74_29_cif.got.tgz:57454.got - 2010.04.16 15:46:19.
