data_PCOD8298993
_publ_section_title
;
Structure prediction by ZEFSAII (Michael W. Deem and Ramdas Pophale) SiO2 
 PCOD8298993
Probable space group: I M M A
;
_chemical_formula_sum "Si O2"
_cell_formula_units_Z 112
_cell_length_a 14.953191
_cell_length_b 14.531204
_cell_length_c 24.868351
_cell_angle_alpha 90.000000
_cell_angle_beta 90.000000
_cell_angle_gamma 90.000000
_cell_volume 5403.590991
_symmetry_space_group_name_H-M "I M M A"
_symmetry_group_IT_number 74
_symmetry_cell_setting 'orthorhombic'
loop_
_space_group_symop_operation_xyz
x,y,z
-x,1/2-y,z
x,-y,-z
-x,1/2+y,-z
-x,-y,-z
x,1/2+y,-z
-x,y,z
x,1/2-y,z
1/2+x,1/2+y,1/2+z
1/2-x,-y,1/2+z
1/2+x,1/2-y,1/2-z
1/2-x,y,1/2-z
1/2-x,1/2-y,1/2-z
1/2+x,y,1/2-z
1/2-x,1/2+y,1/2+z
1/2+x,-y,1/2+z
loop_
_atom_site_type_symbol
_atom_site_label
_atom_site_fract_x
_atom_site_fract_y
_atom_site_fract_z
Si Si1 0.180165 0.648823 0.903687
Si Si2 0.306933 0.351811 0.196440
Si Si3 0.255247 0.099755 0.986581
Si Si4 0.602741 0.545927 0.407002
Si Si5 0.896258 0.961287 0.303523
Si Si6 0.393645 0.354312 0.701174
Si Si7 0.399158 0.147865 0.904067
O O1 0.134300 0.750000 0.895462
O O2 0.246188 0.628107 0.854844
O O3 0.109373 0.565471 0.905250
O O4 0.236060 0.654594 0.958896
O O5 0.351177 0.250000 0.192259
O O6 0.250000 0.358812 0.250000
O O7 0.382817 0.429307 0.199207
O O8 0.162483 0.089910 0.953774
O O9 0.333308 0.150974 0.954768
O O10 0.294337 0.000000 0.000000
O O11 0.500000 0.572012 0.418922
O O12 0.637176 0.590104 0.351467
O O13 0.852698 0.908738 0.252456
O O14 0.857234 0.920004 0.359052
O O15 0.000000 0.938811 0.303321
O O16 0.500000 0.353244 0.704001
O O17 0.356122 0.250000 0.699499
O O18 0.500000 0.117894 0.921590
O O19 0.402497 0.250000 0.879081
#
# Coordination Sequence:
#
# PCOD8298993 Si02
#       7
#    16  16  16  16  16  16  16
#     4  10  21  37  57  80 109 147 187 229 279 331
#     4  10  21  38  58  79 107 144 185 230 280 333
#     4  10  21  37  57  80 113 151 188 233 281 331
#     4  10  21  37  57  83 115 150 188 231 279 331
#     4  10  19  33  56  84 112 143 182 230 282 333
#     4   9  18  33  53  79 112 147 182 224 276 333
#     4  10  21  37  58  85 116 150 188 230 278 332
#
# _framework density 20.726956999999999
#
# number of rings (size 3 to 8) (size 9 to 14) (size 15 to 20)
#    0.000    2.143    0.000    3.429    0.000    6.286 
#    0.000    0.714    0.000    9.429    0.000    0.000 
#    0.000    0.000    0.000    0.000    0.000    0.000 
#
# Total GULP energy -694260.900958 kJ/mol
# GULP energy per Si atom -12397.516089 kJ/mol
# Density = 2.067978 g / cm^3
# Si number density = 20.726957 Si / 1000 Ang^3
#
#
#
# Elastic Constant Matrix: (Units=GPa)
#
#
# Indices 1 2 3 4 5 6 
#
# 1 53.6043 28.9226 38.5941 0.0000 0.0000 0.0000
# 2 28.9226 123.0648 38.8198 0.0000 0.0000 0.0000
# 3 38.5941 38.8198 147.1712 0.0000 0.0000 0.0000
# 4 0.0000 0.0000 0.0000 37.3895 0.0000 0.0000
# 5 0.0000 0.0000 0.0000 0.0000 19.3938 0.0000
# 6 0.0000 0.0000 0.0000 0.0000 0.0000 17.1523
#
#
#
# Elastic Compliance Matrix: (Units=1/GPa)
#
#
# Indices 1 2 3 4 5 6 
#
# 1 0.024771 -0.004115 -0.005411 0.000000 0.000000 0.000000
# 2 -0.004115 0.009547 -0.001439 0.000000 0.000000 0.000000
# 3 -0.005411 -0.001439 0.008593 0.000000 0.000000 0.000000
# 4 0.000000 0.000000 0.000000 0.026745 0.000000 0.000000
# 5 0.000000 0.000000 0.000000 0.000000 0.051563 0.000000
# 6 0.000000 0.000000 0.000000 0.000000 0.000000 0.058301
#
#
# Mechanical properties :
#
#
# Convention : Reuss Voigt Hill
#
# Bulk Modulus (GPa) = 47.66005 59.61259 53.63632
# Shear Modulus (GPa) = 23.98730 29.28737 26.63734
#
# Velocity S-wave (km/s) = 3.40560 3.76308 3.58879
# Velocity P-wave (km/s) = 6.20551 6.90683 6.56554
#
# Compressibility (1/GPa) = 0.02098193
#
# Stress axis : x y z
#
# Youngs Moduli (GPa) = 40.36983 104.74661 116.37032
#
# Poissons Ratio (x) = 0.43103 0.62962
# Poissons Ratio (y) = 0.16612 0.16747
# Poissons Ratio (z) = 0.21842 0.15074
#
# Static dielectric constant tensor:
#      x y z
#    x 3.286640 0.000000 0.000000 
#    y 0.000000 3.959020 0.000000 
#    z 0.000000 0.000000 3.988220 
# 
# 
# High freq. dielectric constant tensor:
#      x y z
#    x 1.778650 0.000000 0.000000 
#    y 0.000000 1.824960 0.000000 
#    z 0.000000 0.000000 1.824050 
# 
# From -- ./inp_files/60130.got.cif
#   From: 2010.03.12/outbox.cif.g09.slc.cpg/sg74_31_cif.got.tgz:60130.got - 2010.04.16 15:46:19.
