data_PCOD8298949
_publ_section_title
;
Structure prediction by ZEFSAII (Michael W. Deem and Ramdas Pophale) SiO2 
 PCOD8298949
Probable space group: I M M A
;
_chemical_formula_sum "Si O2"
_cell_formula_units_Z 112
_cell_length_a 27.981890
_cell_length_b 14.964125
_cell_length_c 14.019033
_cell_angle_alpha 90.000000
_cell_angle_beta 90.000000
_cell_angle_gamma 90.000000
_cell_volume 5870.112579
_symmetry_space_group_name_H-M "I M M A"
_symmetry_group_IT_number 74
_symmetry_cell_setting 'orthorhombic'
loop_
_space_group_symop_operation_xyz
x,y,z
-x,1/2-y,z
x,-y,-z
-x,1/2+y,-z
-x,-y,-z
x,1/2+y,-z
-x,y,z
x,1/2-y,z
1/2+x,1/2+y,1/2+z
1/2-x,-y,1/2+z
1/2+x,1/2-y,1/2-z
1/2-x,y,1/2-z
1/2-x,1/2-y,1/2-z
1/2+x,y,1/2-z
1/2-x,1/2+y,1/2+z
1/2+x,-y,1/2+z
loop_
_atom_site_type_symbol
_atom_site_label
_atom_site_fract_x
_atom_site_fract_y
_atom_site_fract_z
Si Si1 0.134180 0.142874 0.069312
Si Si2 0.052440 0.015451 0.110965
Si Si3 0.322486 0.146299 0.624939
Si Si4 0.350381 0.147216 0.829650
Si Si5 0.231720 0.149863 0.154535
Si Si6 0.273143 0.598099 0.029926
Si Si7 0.053499 0.351944 0.752583
O O1 0.127621 0.250000 0.075828
O O2 0.091045 0.094391 0.125272
O O3 0.182267 0.106554 0.120029
O O4 0.141942 0.110269 0.959010
O O5 0.000000 0.047864 0.147775
O O6 0.065477 0.922222 0.163523
O O7 0.049166 0.000000 0.000000
O O8 0.333611 0.250000 0.632411
O O9 0.333962 0.103990 0.728284
O O10 0.266621 0.133167 0.603132
O O11 0.334886 0.250000 0.837103
O O12 0.324992 0.099574 0.919369
O O13 0.408172 0.134953 0.833504
O O14 0.219149 0.250000 0.184591
O O15 0.250000 0.098633 0.250000
O O16 0.271318 0.152399 0.069757
O O17 0.258910 0.500000 0.000000
O O18 0.058923 0.250000 0.793539
O O19 0.000000 0.366353 0.711716
#
# Coordination Sequence:
#
# PCOD8298949 Si02
#       7
#    16  16  16  16  16  16  16
#     4   9  18  32  50  74 103 135 171 209 251 301
#     4  10  20  31  46  70 100 136 172 206 249 303
#     4   9  18  33  51  71  99 135 169 204 250 296
#     4  10  19  33  55  76  97 130 168 212 261 304
#     4   9  19  36  53  68  94 134 171 200 235 285
#     4  11  22  31  45  74 105 129 162 204 246 299
#     4   9  19  35  53  74  99 129 170 220 273 320
#
# _framework density 19.079702000000001
#
# number of rings (size 3 to 8) (size 9 to 14) (size 15 to 20)
#    0.000    2.429    0.000    3.429    0.000   10.000 
#    0.000    1.429    0.000    0.429    0.000    1.000 
#    0.000    3.429    0.000    0.000    0.000    0.286 
#
# Total GULP energy -693734.082294 kJ/mol
# GULP energy per Si atom -12388.108612 kJ/mol
# Density = 1.903628 g / cm^3
# Si number density = 19.079702 Si / 1000 Ang^3
#
#
#
# Elastic Constant Matrix: (Units=GPa)
#
#
# Indices 1 2 3 4 5 6 
#
# 1 131.0986 28.6994 66.5510 0.0000 0.0000 0.0000
# 2 28.6994 44.5987 19.3832 0.0000 0.0000 0.0000
# 3 66.5510 19.3832 95.6324 0.0000 0.0000 0.0000
# 4 0.0000 0.0000 0.0000 8.3045 0.0000 0.0000
# 5 0.0000 0.0000 0.0000 0.0000 17.6130 0.0000
# 6 0.0000 0.0000 0.0000 0.0000 0.0000 26.5190
#
#
#
# Elastic Compliance Matrix: (Units=1/GPa)
#
#
# Indices 1 2 3 4 5 6 
#
# 1 0.012643 -0.004728 -0.007840 0.000000 0.000000 0.000000
# 2 -0.004728 0.026357 -0.002052 0.000000 0.000000 0.000000
# 3 -0.007840 -0.002052 0.016328 0.000000 0.000000 0.000000
# 4 0.000000 0.000000 0.000000 0.120417 0.000000 0.000000
# 5 0.000000 0.000000 0.000000 0.000000 0.056776 0.000000
# 6 0.000000 0.000000 0.000000 0.000000 0.000000 0.037709
#
#
# Mechanical properties :
#
#
# Convention : Reuss Voigt Hill
#
# Bulk Modulus (GPa) = 38.33162 55.62187 46.97674
# Shear Modulus (GPa) = 16.22507 20.93370 18.57939
#
# Velocity S-wave (km/s) = 2.91930 3.31595 3.12393
# Velocity P-wave (km/s) = 5.61221 6.62392 6.13895
#
# Compressibility (1/GPa) = 0.02608812
#
# Stress axis : x y z
#
# Youngs Moduli (GPa) = 79.09669 37.94125 61.24351
#
# Poissons Ratio (x) = 0.17940 0.48014
# Poissons Ratio (y) = 0.37400 0.12564
# Poissons Ratio (z) = 0.62010 0.07784
#
# Static dielectric constant tensor:
#      x y z
#    x 3.819430 0.000000 0.000000 
#    y 0.000000 3.209320 0.000000 
#    z 0.000000 0.000000 3.857390 
# 
# 
# High freq. dielectric constant tensor:
#      x y z
#    x 1.744690 0.000000 0.000000 
#    y 0.000000 1.730960 0.000000 
#    z 0.000000 0.000000 1.707260 
# 
# From -- ./inp_files/37391.got.cif
#   From: 2010.03.12/outbox.cif.g09.slc.cpg/sg74_19_cif.got.tgz:37391.got - 2010.04.16 15:46:19.
