data_PCOD8298853
_publ_section_title
;
Structure prediction by ZEFSAII (Michael W. Deem and Ramdas Pophale) SiO2 
 PCOD8298853
Probable space group: I M M A
;
_chemical_formula_sum "Si O2"
_cell_formula_units_Z 96
_cell_length_a 9.075970
_cell_length_b 30.714808
_cell_length_c 19.550113
_cell_angle_alpha 90.000000
_cell_angle_beta 90.000000
_cell_angle_gamma 90.000000
_cell_volume 5449.920016
_symmetry_space_group_name_H-M "I M M A"
_symmetry_group_IT_number 74
_symmetry_cell_setting 'orthorhombic'
loop_
_space_group_symop_operation_xyz
x,y,z
-x,1/2-y,z
x,-y,-z
-x,1/2+y,-z
-x,-y,-z
x,1/2+y,-z
-x,y,z
x,1/2-y,z
1/2+x,1/2+y,1/2+z
1/2-x,-y,1/2+z
1/2+x,1/2-y,1/2-z
1/2-x,y,1/2-z
1/2-x,1/2-y,1/2-z
1/2+x,y,1/2-z
1/2-x,1/2+y,1/2+z
1/2+x,-y,1/2+z
loop_
_atom_site_type_symbol
_atom_site_label
_atom_site_fract_x
_atom_site_fract_y
_atom_site_fract_z
Si Si1 0.674225 0.958073 0.044614
Si Si2 0.170149 0.584417 0.816400
Si Si3 0.825319 0.202155 0.962048
Si Si4 0.838567 0.198528 0.813052
Si Si5 0.174710 0.015769 0.819516
Si Si6 0.673315 0.382929 0.462063
O O1 0.500000 0.955903 0.056734
O O2 0.756931 0.958384 0.117037
O O3 0.728699 0.915574 0.005522
O O4 0.719040 0.000000 0.000000
O O5 0.250000 0.604026 0.750000
O O6 0.217172 0.534715 0.829975
O O7 0.213754 0.612615 0.882395
O O8 0.000000 0.587410 0.799816
O O9 0.764559 0.250000 0.984390
O O10 0.762764 0.188753 0.886827
O O11 0.000000 0.205187 0.954047
O O12 0.780649 0.166114 0.017500
O O13 0.850276 0.250000 0.803230
O O14 0.750000 0.177287 0.750000
O O15 0.000000 0.177071 0.810302
O O16 0.250000 0.033208 0.750000
O O17 0.000000 0.023406 0.816465
O O18 0.500000 0.392502 0.474793
#
# Coordination Sequence:
#
# PCOD8298853 Si02
#       6
#    16  16  16  16  16  16
#     4  11  22  34  50  74 104 136 169 208 255 304
#     4   9  18  30  48  73  98 127 164 205 249 301
#     4   8  15  29  50  74  98 126 166 213 255 297
#     4   8  13  23  41  65  90 117 151 192 236 280
#     4  10  19  33  52  74 103 136 173 211 252 303
#     4  10  19  33  53  76 100 131 171 211 256 305
#
# _framework density 17.614937999999999
#
# number of rings (size 3 to 8) (size 9 to 14) (size 15 to 20)
#    0.000    2.667    1.667    2.000    0.000    2.000 
#    0.000    1.667    0.000    4.000    0.000    0.000 
#    0.000    0.000    0.000    0.000    0.000    0.000 
#
# Total GULP energy -595017.840606 kJ/mol
# GULP energy per Si atom -12396.205013 kJ/mol
# Density = 1.757485 g / cm^3
# Si number density = 17.614938 Si / 1000 Ang^3
#
#
#
# Elastic Constant Matrix: (Units=GPa)
#
#
# Indices 1 2 3 4 5 6 
#
# 1 57.2081 25.4126 46.9439 0.0000 0.0000 0.0000
# 2 25.4126 78.8446 55.8540 0.0000 0.0000 0.0000
# 3 46.9439 55.8540 145.5847 0.0000 0.0000 0.0000
# 4 0.0000 0.0000 0.0000 25.5734 0.0000 0.0000
# 5 0.0000 0.0000 0.0000 0.0000 32.2271 0.0000
# 6 0.0000 0.0000 0.0000 0.0000 0.0000 10.7303
#
#
#
# Elastic Compliance Matrix: (Units=1/GPa)
#
#
# Indices 1 2 3 4 5 6 
#
# 1 0.024321 -0.003136 -0.006639 0.000000 0.000000 0.000000
# 2 -0.003136 0.017821 -0.005826 0.000000 0.000000 0.000000
# 3 -0.006639 -0.005826 0.011245 0.000000 0.000000 0.000000
# 4 0.000000 0.000000 0.000000 0.039103 0.000000 0.000000
# 5 0.000000 0.000000 0.000000 0.000000 0.031030 0.000000
# 6 0.000000 0.000000 0.000000 0.000000 0.000000 0.093194
#
#
# Mechanical properties :
#
#
# Convention : Reuss Voigt Hill
#
# Bulk Modulus (GPa) = 45.07552 59.78428 52.42990
# Shear Modulus (GPa) = 19.58393 23.93459 21.75926
#
# Velocity S-wave (km/s) = 3.33795 3.69014 3.51846
# Velocity P-wave (km/s) = 6.36403 7.22284 6.80699
#
# Compressibility (1/GPa) = 0.02218499
#
# Stress axis : x y z
#
# Youngs Moduli (GPa) = 41.11665 56.11360 88.92928
#
# Poissons Ratio (x) = 0.17595 0.59043
# Poissons Ratio (y) = 0.12893 0.51810
# Poissons Ratio (z) = 0.27299 0.32692
#
# Static dielectric constant tensor:
#      x y z
#    x 3.201430 0.000000 0.000000 
#    y 0.000000 3.127600 0.000000 
#    z 0.000000 0.000000 3.479750 
# 
# 
# High freq. dielectric constant tensor:
#      x y z
#    x 1.664870 0.000000 0.000000 
#    y 0.000000 1.646130 0.000000 
#    z 0.000000 0.000000 1.690210 
# 
# From -- ./inp_files/49032.got.cif
#   From: 2010.03.12/outbox.cif.g09.slc.cpg/sg74_25_cif.got.tgz:49032.got - 2010.04.16 15:46:19.
