data_PCOD8298195
_publ_section_title
;
Structure prediction by ZEFSAII (Michael W. Deem and Ramdas Pophale) SiO2 
 PCOD8298195
Probable space group: I M M A
;
_chemical_formula_sum "Si O2"
_cell_formula_units_Z 80
_cell_length_a 14.141367
_cell_length_b 14.683226
_cell_length_c 20.768135
_cell_angle_alpha 90.000000
_cell_angle_beta 90.000000
_cell_angle_gamma 90.000000
_cell_volume 4312.313985
_symmetry_space_group_name_H-M "I M M A"
_symmetry_group_IT_number 74
_symmetry_cell_setting 'orthorhombic'
loop_
_space_group_symop_operation_xyz
x,y,z
-x,1/2-y,z
x,-y,-z
-x,1/2+y,-z
-x,-y,-z
x,1/2+y,-z
-x,y,z
x,1/2-y,z
1/2+x,1/2+y,1/2+z
1/2-x,-y,1/2+z
1/2+x,1/2-y,1/2-z
1/2-x,y,1/2-z
1/2-x,1/2-y,1/2-z
1/2+x,y,1/2-z
1/2-x,1/2+y,1/2+z
1/2+x,-y,1/2+z
loop_
_atom_site_type_symbol
_atom_site_label
_atom_site_fract_x
_atom_site_fract_y
_atom_site_fract_z
Si Si1 0.111810 0.351775 0.229597
Si Si2 0.387826 0.459843 0.148654
Si Si3 0.207719 0.402243 0.473866
Si Si4 0.604583 0.357818 0.412350
Si Si5 0.391150 0.348728 0.905237
O O1 0.154029 0.250000 0.240632
O O2 0.151982 0.421797 0.283260
O O3 0.137603 0.391158 0.158760
O O4 0.000000 0.345490 0.234918
O O5 0.500000 0.451957 0.146158
O O6 0.345491 0.392371 0.094316
O O7 0.355630 0.566070 0.138727
O O8 0.182362 0.500000 0.500000
O O9 0.320339 0.389660 0.465518
O O10 0.167631 0.335682 0.528454
O O11 0.500000 0.396601 0.429998
O O12 0.599707 0.250000 0.410269
O O13 0.500000 0.366349 0.923840
O O14 0.379931 0.250000 0.869212
#
# Coordination Sequence:
#
# PCOD8298195 Si02
#       5
#    16  16  16  16  16
#     4   8  15  28  45  66  92 118 143 177 222 267
#     4   9  17  29  44  65  93 120 147 180 219 266
#     4  10  19  29  43  65  90 119 151 183 218 261
#     4   9  18  32  47  64  88 116 148 187 226 263
#     4   9  17  29  45  66  93 122 149 179 216 260
#
# _framework density 18.551525999999999
#
# number of rings (size 3 to 8) (size 9 to 14) (size 15 to 20)
#    0.000    3.000    0.000    2.400    0.000    5.200 
#    0.000    4.000    0.000    0.000    0.000   12.600 
#    0.000   11.200    0.000    0.000    0.000    0.000 
#
# Total GULP energy -495566.508890 kJ/mol
# GULP energy per Si atom -12389.162722 kJ/mol
# Density = 1.850930 g / cm^3
# Si number density = 18.551526 Si / 1000 Ang^3
#
#
#
# Elastic Constant Matrix: (Units=GPa)
#
#
# Indices 1 2 3 4 5 6 
#
# 1 49.0171 5.5005 19.5908 0.0000 0.0000 0.0000
# 2 5.5005 68.0660 19.6124 0.0000 0.0000 0.0000
# 3 19.5908 19.6124 56.4247 0.0000 0.0000 0.0000
# 4 0.0000 0.0000 0.0000 -7.0902 0.0000 0.0000
# 5 0.0000 0.0000 0.0000 0.0000 7.2269 0.0000
# 6 0.0000 0.0000 0.0000 0.0000 0.0000 10.7231
#
#
#
# Elastic Compliance Matrix: (Units=1/GPa)
#
#
# Indices 1 2 3 4 5 6 
#
# 1 0.023704 0.000507 -0.008406 0.000000 0.000000 0.000000
# 2 0.000507 0.016338 -0.005855 0.000000 0.000000 0.000000
# 3 -0.008406 -0.005855 0.022676 0.000000 0.000000 0.000000
# 4 0.000000 0.000000 0.000000 -0.141039 0.000000 0.000000
# 5 0.000000 0.000000 0.000000 0.000000 0.138372 0.000000
# 6 0.000000 0.000000 0.000000 0.000000 0.000000 0.093257
#
#
# Mechanical properties :
#
#
# Convention : Reuss Voigt Hill
#
# Bulk Modulus (GPa) = 28.40138 29.21280 28.80709
# Shear Modulus (GPa) = 25.96703 10.75889 18.36296
#
# Velocity S-wave (km/s) = 3.74535 2.41082 3.14958
# Velocity P-wave (km/s) = 5.83491 4.85082 5.36547
#
# Compressibility (1/GPa) = 0.03520956
#
# Stress axis : x y z
#
# Youngs Moduli (GPa) = 42.18713 61.20839 44.09884
#
# Poissons Ratio (x) = -0.03101 0.37070
# Poissons Ratio (y) = -0.02137 0.25818
# Poissons Ratio (z) = 0.35463 0.35835
#
# Static dielectric constant tensor:
#      x y z
#    x 3.866580 0.000000 0.000000 
#    y 0.000000 3.430810 0.000000 
#    z 0.000000 0.000000 3.647090 
# 
# 
# High freq. dielectric constant tensor:
#      x y z
#    x 1.715800 0.000000 0.000000 
#    y 0.000000 1.704420 0.000000 
#    z 0.000000 0.000000 1.697570 
# 
# From -- ./inp_files/42670.got.cif
#   From: 2010.03.12/outbox.cif.g09.slc.cpg/sg74_22_cif.got.tgz:42670.got - 2010.04.16 15:46:19.
