data_PCOD8298531
_publ_section_title
;
Structure prediction by ZEFSAII (Michael W. Deem and Ramdas Pophale) SiO2 
 PCOD8298531
Probable space group: I M M A
;
_chemical_formula_sum "Si O2"
_cell_formula_units_Z 80
_cell_length_a 16.000003
_cell_length_b 25.726422
_cell_length_c 9.212038
_cell_angle_alpha 90.000000
_cell_angle_beta 90.000000
_cell_angle_gamma 90.000000
_cell_volume 3791.885144
_symmetry_space_group_name_H-M "I M M A"
_symmetry_group_IT_number 74
_symmetry_cell_setting 'orthorhombic'
loop_
_space_group_symop_operation_xyz
x,y,z
-x,1/2-y,z
x,-y,-z
-x,1/2+y,-z
-x,-y,-z
x,1/2+y,-z
-x,y,z
x,1/2-y,z
1/2+x,1/2+y,1/2+z
1/2-x,-y,1/2+z
1/2+x,1/2-y,1/2-z
1/2-x,y,1/2-z
1/2-x,1/2-y,1/2-z
1/2+x,y,1/2-z
1/2-x,1/2+y,1/2+z
1/2+x,-y,1/2+z
loop_
_atom_site_type_symbol
_atom_site_label
_atom_site_fract_x
_atom_site_fract_y
_atom_site_fract_z
Si Si1 0.342341 0.308796 0.693859
Si Si2 0.095013 0.904272 0.350864
Si Si3 0.400535 0.600683 0.828297
Si Si4 0.599761 0.001334 0.663272
Si Si5 0.902974 0.691311 0.878105
O O1 0.369914 0.250000 0.732769
O O2 0.250000 0.320844 0.750000
O O3 0.403462 0.348282 0.774756
O O4 0.348087 0.317897 0.521733
O O5 0.138219 0.901028 0.509492
O O6 0.136908 0.948585 0.249211
O O7 0.000000 0.921197 0.375367
O O8 0.500000 0.602115 0.835048
O O9 0.368150 0.550258 0.743270
O O10 0.369144 0.652474 0.745574
O O11 0.500000 0.003878 0.658344
O O12 0.635744 0.000000 0.500000
O O13 0.891526 0.750000 0.819641
O O14 0.000000 0.680259 0.917031
#
# Coordination Sequence:
#
# PCOD8298531 Si02
#       5
#    16  16  16  16  16
#     4  10  21  36  52  71  98 132 168 207 252 302
#     4  10  19  31  51  77 102 129 165 210 253 295
#     4   9  17  29  48  77 108 132 161 206 254 297
#     4   9  16  27  47  75 104 133 165 201 245 297
#     4   9  17  31  52  76 102 134 171 208 247 296
#
# _framework density 21.097685999999999
#
# number of rings (size 3 to 8) (size 9 to 14) (size 15 to 20)
#    0.000    2.600    0.000    2.400    0.000    7.600 
#    0.000    3.000    0.000   10.800    0.000    0.000 
#    0.000    0.000    0.000    0.000    0.000    0.000 
#
# Total GULP energy -495944.324998 kJ/mol
# GULP energy per Si atom -12398.608125 kJ/mol
# Density = 2.104967 g / cm^3
# Si number density = 21.097686 Si / 1000 Ang^3
#
#
#
# Elastic Constant Matrix: (Units=GPa)
#
#
# Indices 1 2 3 4 5 6 
#
# 1 17.3348 12.5374 17.5856 0.0007 -0.0005 -0.0001
# 2 12.5374 179.5125 114.3455 -0.0022 0.0003 0.0000
# 3 17.5856 114.3455 198.7419 -0.0143 0.0012 0.0001
# 4 0.0007 -0.0022 -0.0143 43.8038 0.0005 -0.0001
# 5 -0.0005 0.0003 0.0012 0.0005 10.4094 -0.0005
# 6 -0.0001 0.0000 0.0001 -0.0001 -0.0005 6.7757
#
#
#
# Elastic Compliance Matrix: (Units=1/GPa)
#
#
# Indices 1 2 3 4 5 6 
#
# 1 0.063584 -0.001353 -0.004848 -0.000003 0.000004 0.000001
# 2 -0.001353 0.008822 -0.004956 -0.000001 0.000000 0.000000
# 3 -0.004848 -0.004956 0.008312 0.000003 -0.000001 0.000000
# 4 -0.000003 -0.000001 0.000003 0.022829 -0.000001 0.000000
# 5 0.000004 0.000000 -0.000001 -0.000001 0.096067 0.000007
# 6 0.000001 0.000000 0.000000 0.000000 0.000007 0.147586
#
#
# Mechanical properties :
#
#
# Convention : Reuss Voigt Hill
#
# Bulk Modulus (GPa) = 17.12192 76.05847 46.59020
# Shear Modulus (GPa) = 12.85409 28.93918 20.89663
#
# Velocity S-wave (km/s) = 2.47101 3.70763 3.15059
# Velocity P-wave (km/s) = 4.03415 7.37954 5.94693
#
# Compressibility (1/GPa) = 0.05840466
#
# Stress axis : x y z
#
# Youngs Moduli (GPa) = 15.72723 113.35311 120.30746
#
# Poissons Ratio (x) = 0.15334 0.58324
# Poissons Ratio (y) = 0.02128 0.59624
# Poissons Ratio (z) = 0.07624 0.56178
#
# Static dielectric constant tensor:
#      x y z
#    x 3.127890 0.000000 0.000000 
#    y 0.000000 3.969160 0.000000 
#    z 0.000000 0.000000 4.039730 
# 
# 
# High freq. dielectric constant tensor:
#      x y z
#    x 1.766270 0.000000 0.000000 
#    y 0.000000 1.841340 0.000000 
#    z 0.000000 0.000000 1.836380 
# 
# From -- ./inp_files/10874.got.cif
#   From: 2010.03.12/outbox.cif.g09.slc.cpg/sg74_6_cif.got.tgz:10874.got - 2010.04.16 15:46:19.
