data_PCOD8298267
_publ_section_title
;
Structure prediction by ZEFSAII (Michael W. Deem and Ramdas Pophale) SiO2 
 PCOD8298267
Probable space group: I M M A
;
_chemical_formula_sum "Si O2"
_cell_formula_units_Z 96
_cell_length_a 15.239764
_cell_length_b 18.812030
_cell_length_c 20.058178
_cell_angle_alpha 90.000000
_cell_angle_beta 90.000000
_cell_angle_gamma 90.000000
_cell_volume 5750.497054
_symmetry_space_group_name_H-M "I M M A"
_symmetry_group_IT_number 74
_symmetry_cell_setting 'orthorhombic'
loop_
_space_group_symop_operation_xyz
x,y,z
-x,1/2-y,z
x,-y,-z
-x,1/2+y,-z
-x,-y,-z
x,1/2+y,-z
-x,y,z
x,1/2-y,z
1/2+x,1/2+y,1/2+z
1/2-x,-y,1/2+z
1/2+x,1/2-y,1/2-z
1/2-x,y,1/2-z
1/2-x,1/2-y,1/2-z
1/2+x,y,1/2-z
1/2-x,1/2+y,1/2+z
1/2+x,-y,1/2+z
loop_
_atom_site_type_symbol
_atom_site_label
_atom_site_fract_x
_atom_site_fract_y
_atom_site_fract_z
Si Si1 0.253672 0.531477 0.828571
Si Si2 0.096286 0.974074 0.102376
Si Si3 0.253272 0.329078 0.092885
Si Si4 0.596409 0.383203 0.481629
Si Si5 0.900026 0.829454 0.488312
Si Si6 0.898645 0.528074 0.426387
O O1 0.250000 0.529822 0.750000
O O2 0.173340 0.478889 0.844488
O O3 0.239164 0.613561 0.849163
O O4 0.340874 0.502944 0.865860
O O5 0.000000 0.971924 0.136883
O O6 0.109964 0.902433 0.059334
O O7 0.104158 0.043101 0.056842
O O8 0.259958 0.250000 0.124213
O O9 0.170770 0.329052 0.042223
O O10 0.341022 0.348055 0.052270
O O11 0.500000 0.348879 0.470350
O O12 0.879028 0.750000 0.461207
O O13 0.884571 0.886345 0.429096
O O14 0.000000 0.835326 0.513945
O O15 0.869771 0.500000 0.500000
O O16 0.000000 0.507846 0.412154
#
# Coordination Sequence:
#
# PCOD8298267 Si02
#       6
#    16  16  16  16  16  16
#     4  11  22  32  47  71 102 138 171 208 249 295
#     4   8  15  28  46  66  88 116 153 200 248 292
#     4  10  19  30  45  66  98 136 169 203 241 291
#     4   8  14  26  46  68  85 110 153 202 246 283
#     4   9  17  30  51  79 103 124 159 209 261 304
#     4  10  19  33  55  78  99 129 171 217 257 295
#
# _framework density 16.694210000000002
#
# number of rings (size 3 to 8) (size 9 to 14) (size 15 to 20)
#    0.000    2.667    1.667    2.000    2.333    1.333 
#    0.000    0.000    0.000    0.500    0.000    4.667 
#    0.000    2.667    0.000    0.000    0.000    0.000 
#
# Total GULP energy -594723.662221 kJ/mol
# GULP energy per Si atom -12390.076296 kJ/mol
# Density = 1.665621 g / cm^3
# Si number density = 16.694210 Si / 1000 Ang^3
#
#
#
# Elastic Constant Matrix: (Units=GPa)
#
#
# Indices 1 2 3 4 5 6 
#
# 1 110.9642 28.6802 57.7616 0.0000 0.0000 0.0000
# 2 28.6802 60.6010 38.8083 0.0000 0.0000 0.0000
# 3 57.7616 38.8083 95.5945 0.0000 0.0000 0.0000
# 4 0.0000 0.0000 0.0000 15.3318 0.0000 0.0000
# 5 0.0000 0.0000 0.0000 0.0000 13.3804 0.0000
# 6 0.0000 0.0000 0.0000 0.0000 0.0000 20.3337
#
#
#
# Elastic Compliance Matrix: (Units=1/GPa)
#
#
# Indices 1 2 3 4 5 6 
#
# 1 0.013253 -0.001546 -0.007381 0.000000 0.000000 0.000000
# 2 -0.001546 0.022479 -0.008192 0.000000 0.000000 0.000000
# 3 -0.007381 -0.008192 0.018246 0.000000 0.000000 0.000000
# 4 0.000000 0.000000 0.000000 0.065224 0.000000 0.000000
# 5 0.000000 0.000000 0.000000 0.000000 0.074736 0.000000
# 6 0.000000 0.000000 0.000000 0.000000 0.000000 0.049180
#
#
# Mechanical properties :
#
#
# Convention : Reuss Voigt Hill
#
# Bulk Modulus (GPa) = 50.65330 57.51777 54.08554
# Shear Modulus (GPa) = 17.60971 19.26983 18.43977
#
# Velocity S-wave (km/s) = 3.25135 3.40116 3.32710
# Velocity P-wave (km/s) = 6.67104 7.06770 6.87223
#
# Compressibility (1/GPa) = 0.01974205
#
# Stress axis : x y z
#
# Youngs Moduli (GPa) = 75.45248 44.48635 54.80652
#
# Poissons Ratio (x) = 0.06877 0.40450
# Poissons Ratio (y) = 0.11664 0.44895
# Poissons Ratio (z) = 0.55688 0.36442
#
# Static dielectric constant tensor:
#      x y z
#    x 3.476250 0.000000 0.000000 
#    y 0.000000 3.207190 0.000000 
#    z 0.000000 0.000000 2.729470 
# 
# 
# High freq. dielectric constant tensor:
#      x y z
#    x 1.663360 0.000000 0.000000 
#    y 0.000000 1.636990 0.000000 
#    z 0.000000 0.000000 1.586660 
# 
# From -- ./inp_files/52266.got.cif
#   From: 2010.03.12/outbox.cif.g09.slc.cpg/sg74_27_cif.got.tgz:52266.got - 2010.04.16 15:46:19.
