data_PCOD8298656
_publ_section_title
;
Structure prediction by ZEFSAII (Michael W. Deem and Ramdas Pophale) SiO2 
 PCOD8298656
Probable space group: I M M A
;
_chemical_formula_sum "Si O2"
_cell_formula_units_Z 96
_cell_length_a 18.380245
_cell_length_b 16.301481
_cell_length_c 18.302664
_cell_angle_alpha 90.000000
_cell_angle_beta 90.000000
_cell_angle_gamma 90.000000
_cell_volume 5483.939630
_symmetry_space_group_name_H-M "I M M A"
_symmetry_group_IT_number 74
_symmetry_cell_setting 'orthorhombic'
loop_
_space_group_symop_operation_xyz
x,y,z
-x,1/2-y,z
x,-y,-z
-x,1/2+y,-z
-x,-y,-z
x,1/2+y,-z
-x,y,z
x,1/2-y,z
1/2+x,1/2+y,1/2+z
1/2-x,-y,1/2+z
1/2+x,1/2-y,1/2-z
1/2-x,y,1/2-z
1/2-x,1/2-y,1/2-z
1/2+x,y,1/2-z
1/2-x,1/2+y,1/2+z
1/2+x,-y,1/2+z
loop_
_atom_site_type_symbol
_atom_site_label
_atom_site_fract_x
_atom_site_fract_y
_atom_site_fract_z
Si Si1 0.677748 0.580828 0.544403
Si Si2 0.915317 0.501670 0.165339
Si Si3 0.580008 0.916141 0.044178
Si Si4 0.586055 0.026122 0.170143
Si Si5 0.830127 0.655572 0.576775
Si Si6 0.083078 0.341952 0.923116
O O1 0.701771 0.500000 0.500000
O O2 0.627102 0.559509 0.612665
O O3 0.747598 0.626013 0.575730
O O4 0.633846 0.641992 0.492409
O O5 0.887403 0.488332 0.247515
O O6 0.899481 0.595865 0.142952
O O7 0.000000 0.480359 0.158483
O O8 0.500000 0.874449 0.047116
O O9 0.606580 0.942864 0.125280
O O10 0.635896 0.855028 0.004634
O O11 0.575227 0.000000 0.000000
O O12 0.500000 0.042189 0.164410
O O13 0.625855 0.105608 0.137813
O O14 0.833512 0.750000 0.599619
O O15 0.097000 0.250000 0.893963
O O16 0.000000 0.353945 0.949286
#
# Coordination Sequence:
#
# PCOD8298656 Si02
#       6
#    16  16  16  16  16  16
#     4  10  19  32  51  72  97 130 166 198 233 286
#     4   9  18  33  53  74  97 130 165 194 234 292
#     4   8  15  30  51  70  89 119 158 196 237 287
#     4   9  18  34  53  72  97 128 162 198 239 292
#     4  11  21  32  48  71  99 128 163 206 247 283
#     4   9  17  31  52  77 102 125 155 200 246 283
#
# _framework density 17.505662999999998
#
# number of rings (size 3 to 8) (size 9 to 14) (size 15 to 20)
#    0.000    2.667    0.000    4.000    0.000    4.000 
#    0.000    3.333    0.000    5.000    0.000    5.833 
#    0.000    0.000    0.000    0.000    0.000    0.000 
#
# Total GULP energy -595098.658551 kJ/mol
# GULP energy per Si atom -12397.888720 kJ/mol
# Density = 1.746582 g / cm^3
# Si number density = 17.505663 Si / 1000 Ang^3
#
#
#
# Elastic Constant Matrix: (Units=GPa)
#
#
# Indices 1 2 3 4 5 6 
#
# 1 72.8458 47.6990 46.0196 0.0000 0.0000 0.0000
# 2 47.6990 100.1536 52.6182 0.0000 0.0000 0.0000
# 3 46.0196 52.6182 134.3036 0.0000 0.0000 0.0000
# 4 0.0000 0.0000 0.0000 17.8291 0.0000 0.0000
# 5 0.0000 0.0000 0.0000 0.0000 10.4952 0.0000
# 6 0.0000 0.0000 0.0000 0.0000 0.0000 21.4565
#
#
#
# Elastic Compliance Matrix: (Units=1/GPa)
#
#
# Indices 1 2 3 4 5 6 
#
# 1 0.021734 -0.008107 -0.004271 0.000000 0.000000 0.000000
# 2 -0.008107 0.015597 -0.003333 0.000000 0.000000 0.000000
# 3 -0.004271 -0.003333 0.010215 0.000000 0.000000 0.000000
# 4 0.000000 0.000000 0.000000 0.056088 0.000000 0.000000
# 5 0.000000 0.000000 0.000000 0.000000 0.095281 0.000000
# 6 0.000000 0.000000 0.000000 0.000000 0.000000 0.046606
#
#
# Mechanical properties :
#
#
# Convention : Reuss Voigt Hill
#
# Bulk Modulus (GPa) = 62.01842 66.66406 64.34124
# Shear Modulus (GPa) = 17.71053 20.68725 19.19889
#
# Velocity S-wave (km/s) = 3.18418 3.44138 3.31528
# Velocity P-wave (km/s) = 7.00166 7.34540 7.17559
#
# Compressibility (1/GPa) = 0.01612424
#
# Stress axis : x y z
#
# Youngs Moduli (GPa) = 46.00998 64.11628 97.89571
#
# Poissons Ratio (x) = 0.51981 0.41812
# Poissons Ratio (y) = 0.37302 0.32624
# Poissons Ratio (z) = 0.19651 0.21367
#
# Static dielectric constant tensor:
#      x y z
#    x 3.248350 0.000000 0.000000 
#    y 0.000000 3.111950 0.000000 
#    z 0.000000 0.000000 3.465060 
# 
# 
# High freq. dielectric constant tensor:
#      x y z
#    x 1.678150 0.000000 0.000000 
#    y 0.000000 1.659250 0.000000 
#    z 0.000000 0.000000 1.668590 
# 
# From -- ./inp_files/44130.got.cif
#   From: 2010.03.12/outbox.cif.g09.slc.cpg/sg74_23_cif.got.tgz:44130.got - 2010.04.16 15:46:19.
