data_PCOD8298813
_publ_section_title
;
Structure prediction by ZEFSAII (Michael W. Deem and Ramdas Pophale) SiO2 
 PCOD8298813
Probable space group: I M M A
;
_chemical_formula_sum "Si O2"
_cell_formula_units_Z 104
_cell_length_a 17.884811
_cell_length_b 20.072560
_cell_length_c 15.473383
_cell_angle_alpha 90.000000
_cell_angle_beta 90.000000
_cell_angle_gamma 90.000000
_cell_volume 5554.850757
_symmetry_space_group_name_H-M "I M M A"
_symmetry_group_IT_number 74
_symmetry_cell_setting 'orthorhombic'
loop_
_space_group_symop_operation_xyz
x,y,z
-x,1/2-y,z
x,-y,-z
-x,1/2+y,-z
-x,-y,-z
x,1/2+y,-z
-x,y,z
x,1/2-y,z
1/2+x,1/2+y,1/2+z
1/2-x,-y,1/2+z
1/2+x,1/2-y,1/2-z
1/2-x,y,1/2-z
1/2-x,1/2-y,1/2-z
1/2+x,y,1/2-z
1/2-x,1/2+y,1/2+z
1/2+x,-y,1/2+z
loop_
_atom_site_type_symbol
_atom_site_label
_atom_site_fract_x
_atom_site_fract_y
_atom_site_fract_z
Si Si1 0.321611 0.500000 0.500000
Si Si2 0.585806 0.071802 0.044247
Si Si3 0.735444 0.129862 0.009423
Si Si4 0.586025 0.940333 0.345589
Si Si5 0.303201 0.326459 0.670606
Si Si6 0.414988 0.430194 0.244605
Si Si7 0.809505 0.176051 0.177127
O O1 0.267310 0.557402 0.534093
O O2 0.375352 0.529331 0.428582
O O3 0.500000 0.096305 0.030660
O O4 0.644704 0.124727 0.004497
O O5 0.608399 0.071788 0.144952
O O6 0.596011 0.000000 0.000000
O O7 0.767865 0.176488 0.084718
O O8 0.760537 0.158089 0.917861
O O9 0.500000 0.926295 0.366641
O O10 0.622683 0.870492 0.319099
O O11 0.597319 0.992867 0.268920
O O12 0.328565 0.250000 0.672829
O O13 0.250000 0.344412 0.750000
O O14 0.500000 0.408585 0.257228
O O15 0.371892 0.380495 0.309514
O O16 0.844914 0.250000 0.188560
O O17 0.750000 0.160893 0.250000
#
# Coordination Sequence:
#
# PCOD8298813 Si02
#       7
#     8  16  16  16  16  16  16
#     4  10  19  32  57  88 114 148 184 240 291 342
#     4  10  21  35  55  88 124 151 189 241 291 344
#     4  11  20  36  61  84 115 153 198 240 295 346
#     4  10  21  36  60  88 115 148 187 236 293 351
#     4  10  24  42  59  83 116 154 200 250 295 345
#     4  10  21  37  57  87 121 151 188 237 290 347
#     4  11  22  36  57  83 115 155 196 235 283 351
#
# _framework density 18.722375
#
# number of rings (size 3 to 8) (size 9 to 14) (size 15 to 20)
#    0.000    1.692    3.846    0.692    2.154    1.231 
#    0.000    0.000    0.000    4.615    0.000    0.000 
#    0.000    0.000    0.000    0.000    0.000    0.000 
#
# Total GULP energy -644669.180629 kJ/mol
# GULP energy per Si atom -12397.484243 kJ/mol
# Density = 1.867976 g / cm^3
# Si number density = 18.722375 Si / 1000 Ang^3
#
#
#
# Elastic Constant Matrix: (Units=GPa)
#
#
# Indices 1 2 3 4 5 6 
#
# 1 105.3373 41.7799 35.6737 0.0000 0.0000 0.0000
# 2 41.7799 73.8044 20.8736 0.0000 0.0000 0.0000
# 3 35.6737 20.8736 93.2617 0.0000 0.0000 0.0000
# 4 0.0000 0.0000 0.0000 40.2444 0.0000 0.0000
# 5 0.0000 0.0000 0.0000 0.0000 23.5487 0.0000
# 6 0.0000 0.0000 0.0000 0.0000 0.0000 7.9891
#
#
#
# Elastic Compliance Matrix: (Units=1/GPa)
#
#
# Indices 1 2 3 4 5 6 
#
# 1 0.013303 -0.006503 -0.003633 0.000000 0.000000 0.000000
# 2 -0.006503 0.017644 -0.001461 0.000000 0.000000 0.000000
# 3 -0.003633 -0.001461 0.012439 0.000000 0.000000 0.000000
# 4 0.000000 0.000000 0.000000 0.024848 0.000000 0.000000
# 5 0.000000 0.000000 0.000000 0.000000 0.042465 0.000000
# 6 0.000000 0.000000 0.000000 0.000000 0.000000 0.125170
#
#
# Mechanical properties :
#
#
# Convention : Reuss Voigt Hill
#
# Bulk Modulus (GPa) = 49.52718 52.11752 50.82235
# Shear Modulus (GPa) = 18.81147 25.96154 22.38650
#
# Velocity S-wave (km/s) = 3.17323 3.72783 3.46165
# Velocity P-wave (km/s) = 6.31955 6.81369 6.57127
#
# Compressibility (1/GPa) = 0.02019093
#
# Stress axis : x y z
#
# Youngs Moduli (GPa) = 75.17070 56.67624 80.39035
#
# Poissons Ratio (x) = 0.36858 0.29206
# Poissons Ratio (y) = 0.48885 0.11749
# Poissons Ratio (z) = 0.27310 0.08283
#
# Static dielectric constant tensor:
#      x y z
#    x 3.598900 0.000000 0.000000 
#    y 0.000000 3.451680 0.000000 
#    z 0.000000 0.000000 3.689140 
# 
# 
# High freq. dielectric constant tensor:
#      x y z
#    x 1.729130 0.000000 0.000000 
#    y 0.000000 1.721400 0.000000 
#    z 0.000000 0.000000 1.735360 
# 
# From -- ./inp_files/34332.got.cif
#   From: 2010.03.12/outbox.cif.g09.slc.cpg/sg74_18_cif.got.tgz:34332.got - 2010.04.16 15:46:19.
