data_PCOD8298454
_publ_section_title
;
Structure prediction by ZEFSAII (Michael W. Deem and Ramdas Pophale) SiO2 
 PCOD8298454
Probable space group: I M M A
;
_chemical_formula_sum "Si O2"
_cell_formula_units_Z 72
_cell_length_a 9.376192
_cell_length_b 16.319157
_cell_length_c 26.852307
_cell_angle_alpha 90.000000
_cell_angle_beta 90.000000
_cell_angle_gamma 90.000000
_cell_volume 4108.713097
_symmetry_space_group_name_H-M "I M M A"
_symmetry_group_IT_number 74
_symmetry_cell_setting 'orthorhombic'
loop_
_space_group_symop_operation_xyz
x,y,z
-x,1/2-y,z
x,-y,-z
-x,1/2+y,-z
-x,-y,-z
x,1/2+y,-z
-x,y,z
x,1/2-y,z
1/2+x,1/2+y,1/2+z
1/2-x,-y,1/2+z
1/2+x,1/2-y,1/2-z
1/2-x,y,1/2-z
1/2-x,1/2-y,1/2-z
1/2+x,y,1/2-z
1/2-x,1/2+y,1/2+z
1/2+x,-y,1/2+z
loop_
_atom_site_type_symbol
_atom_site_label
_atom_site_fract_x
_atom_site_fract_y
_atom_site_fract_z
Si Si1 0.336202 0.560857 0.203277
Si Si2 0.834406 0.921962 0.848704
Si Si3 0.837615 0.157244 0.604961
Si Si4 0.333687 0.018761 0.554844
Si Si5 0.334567 0.750000 0.698108
O O1 0.500000 0.542488 0.217162
O O2 0.250000 0.596078 0.250000
O O3 0.264316 0.476003 0.186713
O O4 0.323024 0.630515 0.162001
O O5 0.796595 0.827899 0.836576
O O6 0.000000 0.941140 0.837280
O O7 0.799621 0.944410 0.906545
O O8 0.784237 0.250000 0.600273
O O9 0.739472 0.102645 0.570425
O O10 0.000000 0.147551 0.586914
O O11 0.500000 0.036924 0.552820
O O12 0.273732 0.000000 0.500000
O O13 0.500000 0.750000 0.712838
O O14 0.250000 0.750000 0.750000
#
# Coordination Sequence:
#
# PCOD8298454 Si02
#       5
#    16  16  16  16   8
#     4  10  19  31  49  72  98 131 166 202 245 292
#     4   9  18  33  50  70  99 131 166 204 248 299
#     4   9  19  35  52  72 100 132 166 203 244 294
#     4   9  18  34  54  77 101 128 164 207 253 303
#     4  10  20  32  48  70  98 134 166 204 249 294
#
# _framework density 17.523736
#
# number of rings (size 3 to 8) (size 9 to 14) (size 15 to 20)
#    0.000    2.667    0.000    1.333    0.000    4.889 
#    2.000    0.000    0.000    0.000    0.000    0.000 
#    0.000    0.000    0.000    0.000    0.000    0.000 
#
# Total GULP energy -446362.479091 kJ/mol
# GULP energy per Si atom -12398.957753 kJ/mol
# Density = 1.748385 g / cm^3
# Si number density = 17.523736 Si / 1000 Ang^3
#
#
#
# Elastic Constant Matrix: (Units=GPa)
#
#
# Indices 1 2 3 4 5 6 
#
# 1 69.9042 46.5236 53.3458 0.0000 0.0000 0.0000
# 2 46.5236 137.5809 63.8879 0.0000 0.0000 0.0000
# 3 53.3458 63.8879 125.9943 0.0000 0.0000 0.0000
# 4 0.0000 0.0000 0.0000 13.8195 0.0000 0.0000
# 5 0.0000 0.0000 0.0000 0.0000 26.9263 0.0000
# 6 0.0000 0.0000 0.0000 0.0000 0.0000 13.7260
#
#
#
# Elastic Compliance Matrix: (Units=1/GPa)
#
#
# Indices 1 2 3 4 5 6 
#
# 1 0.022877 -0.004235 -0.007538 0.000000 0.000000 0.000000
# 2 -0.004235 0.010291 -0.003425 0.000000 0.000000 0.000000
# 3 -0.007538 -0.003425 0.012865 0.000000 0.000000 0.000000
# 4 0.000000 0.000000 0.000000 0.072361 0.000000 0.000000
# 5 0.000000 0.000000 0.000000 0.000000 0.037138 0.000000
# 6 0.000000 0.000000 0.000000 0.000000 0.000000 0.072855
#
#
# Mechanical properties :
#
#
# Convention : Reuss Voigt Hill
#
# Bulk Modulus (GPa) = 63.95628 73.44378 68.70003
# Shear Modulus (GPa) = 18.93959 22.20916 20.57438
#
# Velocity S-wave (km/s) = 3.29111 3.56388 3.43021
# Velocity P-wave (km/s) = 7.14269 7.67705 7.41469
#
# Compressibility (1/GPa) = 0.01563568
#
# Stress axis : x y z
#
# Youngs Moduli (GPa) = 43.71244 97.17099 77.72796
#
# Poissons Ratio (x) = 0.41155 0.58594
# Poissons Ratio (y) = 0.18514 0.26623
# Poissons Ratio (z) = 0.32952 0.33282
#
# Static dielectric constant tensor:
#      x y z
#    x 3.331090 0.000000 0.000000 
#    y 0.000000 3.204470 0.000000 
#    z 0.000000 0.000000 3.385350 
# 
# 
# High freq. dielectric constant tensor:
#      x y z
#    x 1.679790 0.000000 0.000000 
#    y 0.000000 1.671920 0.000000 
#    z 0.000000 0.000000 1.675970 
# 
# From -- ./inp_files/56663.got.cif
#   From: 2010.03.12/outbox.cif.g09.slc.cpg/sg74_29_cif.got.tgz:56663.got - 2010.04.16 15:46:19.
