data_PCOD8298151
_publ_section_title
;
Structure prediction by ZEFSAII (Michael W. Deem and Ramdas Pophale) SiO2 
 PCOD8298151
Probable space group: I M M A
;
_chemical_formula_sum "Si O2"
_cell_formula_units_Z 80
_cell_length_a 23.991804
_cell_length_b 9.293604
_cell_length_c 23.908199
_cell_angle_alpha 90.000000
_cell_angle_beta 90.000000
_cell_angle_gamma 90.000000
_cell_volume 5330.818916
_symmetry_space_group_name_H-M "I M M A"
_symmetry_group_IT_number 74
_symmetry_cell_setting 'orthorhombic'
loop_
_space_group_symop_operation_xyz
x,y,z
-x,1/2-y,z
x,-y,-z
-x,1/2+y,-z
-x,-y,-z
x,1/2+y,-z
-x,y,z
x,1/2-y,z
1/2+x,1/2+y,1/2+z
1/2-x,-y,1/2+z
1/2+x,1/2-y,1/2-z
1/2-x,y,1/2-z
1/2-x,1/2-y,1/2-z
1/2+x,y,1/2-z
1/2-x,1/2+y,1/2+z
1/2+x,-y,1/2+z
loop_
_atom_site_type_symbol
_atom_site_label
_atom_site_fract_x
_atom_site_fract_y
_atom_site_fract_z
Si Si1 0.436780 0.917405 0.234520
Si Si2 0.768382 0.919852 0.664861
Si Si3 0.562322 0.085708 0.121199
Si Si4 0.837334 0.419802 0.228452
Si Si5 0.170306 0.918137 0.556087
O O1 0.500000 0.944017 0.254940
O O2 0.422473 0.750000 0.231651
O O3 0.427354 0.982904 0.173355
O O4 0.395579 0.995521 0.278509
O O5 0.773526 0.750000 0.665632
O O6 0.809240 0.974468 0.713829
O O7 0.704322 0.963869 0.677678
O O8 0.788775 0.978239 0.604876
O O9 0.500000 0.064175 0.096789
O O10 0.571575 0.250000 0.141809
O O11 0.606268 0.048239 0.072672
O O12 0.848992 0.250000 0.228315
O O13 0.179687 0.750000 0.545790
O O14 0.186243 0.000000 0.500000
#
# Coordination Sequence:
#
# PCOD8298151 Si02
#       5
#    16  16  16  16  16
#     4  10  19  28  40  63  93 116 136 172 219 258
#     4   8  15  28  46  65  83 106 142 181 216 249
#     4   9  17  30  46  59  76 111 156 189 211 244
#     4   9  15  28  49  65  80 109 144 177 211 255
#     4  10  19  31  44  61  85 112 144 183 218 252
#
# _framework density 15.007076
#
# number of rings (size 3 to 8) (size 9 to 14) (size 15 to 20)
#    0.000    2.800    2.000    1.800    0.000    2.400 
#    0.000    3.000    0.000    0.000    0.000    0.000 
#    0.000    0.800    0.000    1.800    0.000    3.200 
#
# Total GULP energy -495779.165195 kJ/mol
# GULP energy per Si atom -12394.479130 kJ/mol
# Density = 1.497292 g / cm^3
# Si number density = 15.007076 Si / 1000 Ang^3
#
#
#
# Elastic Constant Matrix: (Units=GPa)
#
#
# Indices 1 2 3 4 5 6 
#
# 1 102.4227 46.1601 60.3368 0.0000 0.0000 0.0000
# 2 46.1601 54.6162 29.7300 0.0000 0.0000 0.0000
# 3 60.3368 29.7300 85.0846 0.0000 0.0000 0.0000
# 4 0.0000 0.0000 0.0000 20.0297 0.0000 0.0000
# 5 0.0000 0.0000 0.0000 0.0000 21.3288 0.0000
# 6 0.0000 0.0000 0.0000 0.0000 0.0000 18.1780
#
#
#
# Elastic Compliance Matrix: (Units=1/GPa)
#
#
# Indices 1 2 3 4 5 6 
#
# 1 0.022018 -0.012484 -0.011252 0.000000 0.000000 0.000000
# 2 -0.012484 0.029689 -0.001521 0.000000 0.000000 0.000000
# 3 -0.011252 -0.001521 0.020263 0.000000 0.000000 0.000000
# 4 0.000000 0.000000 0.000000 0.049926 0.000000 0.000000
# 5 0.000000 0.000000 0.000000 0.000000 0.046885 0.000000
# 6 0.000000 0.000000 0.000000 0.000000 0.000000 0.055011
#
#
# Mechanical properties :
#
#
# Convention : Reuss Voigt Hill
#
# Bulk Modulus (GPa) = 46.60492 57.17523 51.89008
# Shear Modulus (GPa) = 17.76459 18.96709 18.36584
#
# Velocity S-wave (km/s) = 3.44430 3.55896 3.50210
# Velocity P-wave (km/s) = 6.85130 7.42090 7.14178
#
# Compressibility (1/GPa) = 0.02145696
#
# Stress axis : x y z
#
# Youngs Moduli (GPa) = 45.41665 33.68270 49.35009
#
# Poissons Ratio (x) = 0.42051 0.55528
# Poissons Ratio (y) = 0.56700 0.07504
# Poissons Ratio (z) = 0.51102 0.05122
#
# Static dielectric constant tensor:
#      x y z
#    x 3.211620 0.000000 0.000000 
#    y 0.000000 2.743570 0.000000 
#    z 0.000000 0.000000 2.740300 
# 
# 
# High freq. dielectric constant tensor:
#      x y z
#    x 1.579570 0.000000 0.000000 
#    y 0.000000 1.559980 0.000000 
#    z 0.000000 0.000000 1.531100 
# 
# From -- ./inp_files/63969.got.cif
#   From: 2010.03.12/outbox.cif.g09.slc.cpg/sg74_32_cif.got.tgz:63969.got - 2010.04.16 15:46:19.
