data_PCOD8298616
_publ_section_title
;
Structure prediction by ZEFSAII (Michael W. Deem and Ramdas Pophale) SiO2 
 PCOD8298616
Probable space group: I M M A
;
_chemical_formula_sum "Si O2"
_cell_formula_units_Z 96
_cell_length_a 19.390087
_cell_length_b 16.495852
_cell_length_c 17.422038
_cell_angle_alpha 90.000000
_cell_angle_beta 90.000000
_cell_angle_gamma 90.000000
_cell_volume 5572.543481
_symmetry_space_group_name_H-M "I M M A"
_symmetry_group_IT_number 74
_symmetry_cell_setting 'orthorhombic'
loop_
_space_group_symop_operation_xyz
x,y,z
-x,1/2-y,z
x,-y,-z
-x,1/2+y,-z
-x,-y,-z
x,1/2+y,-z
-x,y,z
x,1/2-y,z
1/2+x,1/2+y,1/2+z
1/2-x,-y,1/2+z
1/2+x,1/2-y,1/2-z
1/2-x,y,1/2-z
1/2-x,1/2-y,1/2-z
1/2+x,y,1/2-z
1/2-x,1/2+y,1/2+z
1/2+x,-y,1/2+z
loop_
_atom_site_type_symbol
_atom_site_label
_atom_site_fract_x
_atom_site_fract_y
_atom_site_fract_z
Si Si1 0.924098 0.432473 0.812408
Si Si2 0.813009 0.158278 0.195641
Si Si3 0.809762 0.492865 0.090489
Si Si4 0.845799 0.485603 0.589342
Si Si5 0.919728 0.158762 0.666472
Si Si6 0.923293 0.412017 0.294312
O O1 0.865269 0.443840 0.875779
O O2 0.904494 0.357761 0.756697
O O3 0.927529 0.509905 0.758503
O O4 0.000000 0.419183 0.850887
O O5 0.802396 0.250000 0.165029
O O6 0.750000 0.130267 0.250000
O O7 0.821292 0.098601 0.122499
O O8 0.881418 0.156727 0.248583
O O9 0.733585 0.519274 0.115873
O O10 0.819678 0.500000 0.000000
O O11 0.852265 0.500000 0.500000
O O12 0.878193 0.399508 0.610148
O O13 0.883814 0.561987 0.628362
O O14 0.896967 0.250000 0.647643
O O15 0.000000 0.144005 0.649870
O O16 0.000000 0.379518 0.314085
#
# Coordination Sequence:
#
# PCOD8298616 Si02
#       6
#    16  16  16  16  16  16
#     4   8  16  31  52  73  97 130 169 212 253 301
#     4  10  19  34  55  74  98 137 173 209 259 302
#     4  10  20  34  52  78 104 136 173 208 249 305
#     4  10  19  32  49  73 104 141 174 208 251 307
#     4   9  18  33  52  74 100 131 169 213 258 301
#     4   9  17  30  50  75  98 128 172 214 248 298
#
# _framework density 17.227321
#
# number of rings (size 3 to 8) (size 9 to 14) (size 15 to 20)
#    0.000    2.667    1.667    1.500    0.000    2.000 
#    0.000    6.667    0.000    0.000    0.000    0.000 
#    0.000    0.000    0.000    0.000    0.000    0.000 
#
# Total GULP energy -594974.661448 kJ/mol
# GULP energy per Si atom -12395.305447 kJ/mol
# Density = 1.718811 g / cm^3
# Si number density = 17.227321 Si / 1000 Ang^3
#
#
#
# Elastic Constant Matrix: (Units=GPa)
#
#
# Indices 1 2 3 4 5 6 
#
# 1 132.4770 34.7978 58.8598 0.0000 0.0000 0.0000
# 2 34.7978 88.3385 41.2428 0.0000 0.0000 0.0000
# 3 58.8598 41.2428 84.2601 0.0000 0.0000 0.0000
# 4 0.0000 0.0000 0.0000 18.4988 0.0000 0.0000
# 5 0.0000 0.0000 0.0000 0.0000 27.9439 0.0000
# 6 0.0000 0.0000 0.0000 0.0000 0.0000 19.2081
#
#
#
# Elastic Compliance Matrix: (Units=1/GPa)
#
#
# Indices 1 2 3 4 5 6 
#
# 1 0.011009 -0.000967 -0.007217 0.000000 0.000000 0.000000
# 2 -0.000967 0.014758 -0.006548 0.000000 0.000000 0.000000
# 3 -0.007217 -0.006548 0.020114 0.000000 0.000000 0.000000
# 4 0.000000 0.000000 0.000000 0.054058 0.000000 0.000000
# 5 0.000000 0.000000 0.000000 0.000000 0.035786 0.000000
# 6 0.000000 0.000000 0.000000 0.000000 0.000000 0.052061
#
#
# Mechanical properties :
#
#
# Convention : Reuss Voigt Hill
#
# Bulk Modulus (GPa) = 60.91131 63.87514 62.39323
# Shear Modulus (GPa) = 22.44937 24.47517 23.46227
#
# Velocity S-wave (km/s) = 3.61380 3.77333 3.69443
# Velocity P-wave (km/s) = 7.26959 7.49282 7.38205
#
# Compressibility (1/GPa) = 0.01641731
#
# Stress axis : x y z
#
# Youngs Moduli (GPa) = 90.83452 67.75900 49.71550
#
# Poissons Ratio (x) = 0.06554 0.35879
# Poissons Ratio (y) = 0.08786 0.32554
# Poissons Ratio (z) = 0.65554 0.44369
#
# Static dielectric constant tensor:
#      x y z
#    x 3.648990 0.000000 0.000000 
#    y 0.000000 3.134970 0.000000 
#    z 0.000000 0.000000 3.050390 
# 
# 
# High freq. dielectric constant tensor:
#      x y z
#    x 1.679570 0.000000 0.000000 
#    y 0.000000 1.645370 0.000000 
#    z 0.000000 0.000000 1.646070 
# 
# From -- ./inp_files/44108.got.cif
#   From: 2010.03.12/outbox.cif.g09.slc.cpg/sg74_23_cif.got.tgz:44108.got - 2010.04.16 15:46:19.
