data_PCOD8298390
_publ_section_title
;
Structure prediction by ZEFSAII (Michael W. Deem and Ramdas Pophale) SiO2 
 PCOD8298390
Probable space group: I M M A
;
_chemical_formula_sum "Si O2"
_cell_formula_units_Z 56
_cell_length_a 8.421307
_cell_length_b 29.769087
_cell_length_c 13.668659
_cell_angle_alpha 90.000000
_cell_angle_beta 90.000000
_cell_angle_gamma 90.000000
_cell_volume 3426.659284
_symmetry_space_group_name_H-M "I M M A"
_symmetry_group_IT_number 74
_symmetry_cell_setting 'orthorhombic'
loop_
_space_group_symop_operation_xyz
x,y,z
-x,1/2-y,z
x,-y,-z
-x,1/2+y,-z
-x,-y,-z
x,1/2+y,-z
-x,y,z
x,1/2-y,z
1/2+x,1/2+y,1/2+z
1/2-x,-y,1/2+z
1/2+x,1/2-y,1/2-z
1/2-x,y,1/2-z
1/2-x,1/2-y,1/2-z
1/2+x,y,1/2-z
1/2-x,1/2+y,1/2+z
1/2+x,-y,1/2+z
loop_
_atom_site_type_symbol
_atom_site_label
_atom_site_fract_x
_atom_site_fract_y
_atom_site_fract_z
Si Si1 0.314092 0.015852 0.645264
Si Si2 0.188034 0.346685 0.359122
Si Si3 0.687005 0.250000 0.142004
Si Si4 0.686732 0.433649 0.031120
O O1 0.500000 0.005756 0.648833
O O2 0.250000 0.031483 0.750000
O O3 0.279380 0.055792 0.568874
O O4 0.222617 0.970950 0.612995
O O5 0.250000 0.354306 0.250000
O O6 0.243663 0.297820 0.404451
O O7 0.251368 0.385743 0.430267
O O8 0.000000 0.349671 0.353252
O O9 0.500000 0.250000 0.144578
O O10 0.750000 0.250000 0.250000
O O11 0.500000 0.433018 0.009497
#
# Coordination Sequence:
#
# PCOD8298390 Si02
#       4
#    16  16   8  16
#     4  11  21  33  47  64  87 117 147 182 220 258
#     4   9  17  27  43  64  90 119 147 177 212 252
#     4   8  14  26  40  60  87 116 145 174 209 252
#     4  10  19  31  46  67  90 116 148 181 215 258
#
# _framework density 16.342448999999998
#
# number of rings (size 3 to 8) (size 9 to 14) (size 15 to 20)
#    0.000    2.286    0.000    6.000    0.000    4.571 
#    0.000    0.000    0.000    0.000    0.000    1.000 
#    0.000    0.000    0.000    0.000    0.000    0.000 
#
# Total GULP energy -346952.090378 kJ/mol
# GULP energy per Si atom -12391.146085 kJ/mol
# Density = 1.630525 g / cm^3
# Si number density = 16.342449 Si / 1000 Ang^3
#
#
#
# Elastic Constant Matrix: (Units=GPa)
#
#
# Indices 1 2 3 4 5 6 
#
# 1 32.3878 8.5271 11.1391 -0.0001 0.0000 0.0001
# 2 8.5271 157.3524 57.3020 -0.0001 0.0000 0.0002
# 3 11.1391 57.3020 91.1726 -0.0008 -0.0001 0.0008
# 4 -0.0001 -0.0001 -0.0008 14.0234 0.0000 0.0002
# 5 0.0000 0.0000 -0.0001 0.0000 23.9041 0.0000
# 6 0.0001 0.0002 0.0008 0.0002 0.0000 9.3449
#
#
#
# Elastic Compliance Matrix: (Units=1/GPa)
#
#
# Indices 1 2 3 4 5 6 
#
# 1 0.032250 -0.000406 -0.003685 0.000000 0.000000 0.000000
# 2 -0.000406 0.008247 -0.005133 0.000000 0.000000 0.000000
# 3 -0.003685 -0.005133 0.014645 0.000001 0.000000 -0.000001
# 4 0.000000 0.000000 0.000001 0.071309 0.000000 -0.000002
# 5 0.000000 0.000000 0.000000 0.000000 0.041834 0.000000
# 6 0.000000 0.000000 -0.000001 -0.000002 0.000000 0.107010
#
#
# Mechanical properties :
#
#
# Convention : Reuss Voigt Hill
#
# Bulk Modulus (GPa) = 27.25327 48.31659 37.78493
# Shear Modulus (GPa) = 16.34125 23.05079 19.69602
#
# Velocity S-wave (km/s) = 3.16559 3.75972 3.47537
# Velocity P-wave (km/s) = 5.48397 6.96251 6.26699
#
# Compressibility (1/GPa) = 0.03669284
#
# Stress axis : x y z
#
# Youngs Moduli (GPa) = 31.00773 121.26300 68.28367
#
# Poissons Ratio (x) = 0.04919 0.25164
# Poissons Ratio (y) = 0.01258 0.35053
# Poissons Ratio (z) = 0.11427 0.62249
#
# Static dielectric constant tensor:
#      x y z
#    x 3.221070 0.000000 0.000000 
#    y 0.000000 3.784060 0.000000 
#    z 0.000000 0.000000 2.973570 
# 
# 
# High freq. dielectric constant tensor:
#      x y z
#    x 1.636220 0.000000 0.000000 
#    y 0.000000 1.634870 0.000000 
#    z 0.000000 0.000000 1.593220 
# 
# From -- ./inp_files/17472.got.cif
#   From: 2010.03.12/outbox.cif.g09.slc.cpg/sg74_9_cif.got.tgz:17472.got - 2010.04.16 15:46:19.
