data_PCOD8298582
_publ_section_title
;
Structure prediction by ZEFSAII (Michael W. Deem and Ramdas Pophale) SiO2 
 PCOD8298582
Probable space group: I M M A
;
_chemical_formula_sum "Si O2"
_cell_formula_units_Z 80
_cell_length_a 8.555141
_cell_length_b 19.056974
_cell_length_c 33.021851
_cell_angle_alpha 90.000000
_cell_angle_beta 90.000000
_cell_angle_gamma 90.000000
_cell_volume 5383.720767
_symmetry_space_group_name_H-M "I M M A"
_symmetry_group_IT_number 74
_symmetry_cell_setting 'orthorhombic'
loop_
_space_group_symop_operation_xyz
x,y,z
-x,1/2-y,z
x,-y,-z
-x,1/2+y,-z
-x,-y,-z
x,1/2+y,-z
-x,y,z
x,1/2-y,z
1/2+x,1/2+y,1/2+z
1/2-x,-y,1/2+z
1/2+x,1/2-y,1/2-z
1/2-x,y,1/2-z
1/2-x,1/2-y,1/2-z
1/2+x,y,1/2-z
1/2-x,1/2+y,1/2+z
1/2+x,-y,1/2+z
loop_
_atom_site_type_symbol
_atom_site_label
_atom_site_fract_x
_atom_site_fract_y
_atom_site_fract_z
Si Si1 0.179445 0.250000 0.498732
Si Si2 0.683914 0.386085 0.127520
Si Si3 0.681874 0.250000 0.413855
Si Si4 0.684134 0.669499 0.706859
Si Si5 0.317325 0.028102 0.440230
Si Si6 0.680351 0.902625 0.018176
O O1 0.300329 0.250000 0.461919
O O2 0.209965 0.319711 0.525451
O O3 0.000000 0.250000 0.482505
O O4 0.500000 0.394587 0.127191
O O5 0.734849 0.317332 0.103870
O O6 0.743322 0.382237 0.173561
O O7 0.759876 0.452967 0.104899
O O8 0.500000 0.250000 0.401532
O O9 0.500000 0.661284 0.706936
O O10 0.733615 0.750000 0.697407
O O11 0.750000 0.645549 0.750000
O O12 0.500000 0.042546 0.444389
O O13 0.228741 0.077203 0.472524
O O14 0.280690 0.946407 0.449218
O O15 0.500000 0.922233 0.024246
#
# Coordination Sequence:
#
# PCOD8298582 Si02
#       6
#     8  16   8  16  16  16
#     4  10  20  32  48  65  87 116 149 187 228 272
#     4  12  22  33  48  64  87 118 152 189 229 269
#     4  12  22  30  43  65  88 112 150 193 228 266
#     4  10  20  33  48  66  90 116 147 185 226 267
#     4  11  21  32  45  64  88 115 149 189 228 266
#     4  10  19  32  47  64  87 116 148 184 228 274
#
# _framework density 14.859613
#
# number of rings (size 3 to 8) (size 9 to 14) (size 15 to 20)
#    0.000    1.200    3.000    6.900    0.000    1.600 
#    0.000    0.000    0.000    0.000    0.000    0.000 
#    0.000    0.000    0.000    0.900    0.000   11.400 
#
# Total GULP energy -496081.756715 kJ/mol
# GULP energy per Si atom -12402.043918 kJ/mol
# Density = 1.482579 g / cm^3
# Si number density = 14.859613 Si / 1000 Ang^3
#
#
#
# Elastic Constant Matrix: (Units=GPa)
#
#
# Indices 1 2 3 4 5 6 
#
# 1 69.5156 19.0713 26.5169 0.0000 0.0000 0.0000
# 2 19.0713 85.4517 40.7552 0.0000 0.0000 0.0000
# 3 26.5169 40.7552 92.4724 0.0000 0.0000 0.0000
# 4 0.0000 0.0000 0.0000 25.6361 0.0000 0.0000
# 5 0.0000 0.0000 0.0000 0.0000 25.3418 0.0000
# 6 0.0000 0.0000 0.0000 0.0000 0.0000 12.7213
#
#
#
# Elastic Compliance Matrix: (Units=1/GPa)
#
#
# Indices 1 2 3 4 5 6 
#
# 1 0.016366 -0.001791 -0.003904 0.000000 0.000000 0.000000
# 2 -0.001791 0.015013 -0.006103 0.000000 0.000000 0.000000
# 3 -0.003904 -0.006103 0.014623 0.000000 0.000000 0.000000
# 4 0.000000 0.000000 0.000000 0.039007 0.000000 0.000000
# 5 0.000000 0.000000 0.000000 0.000000 0.039460 0.000000
# 6 0.000000 0.000000 0.000000 0.000000 0.000000 0.078608
#
#
# Mechanical properties :
#
#
# Convention : Reuss Voigt Hill
#
# Bulk Modulus (GPa) = 44.62935 46.68070 45.65503
# Shear Modulus (GPa) = 21.35456 23.47961 22.41708
#
# Velocity S-wave (km/s) = 3.79501 3.97935 3.88827
# Velocity P-wave (km/s) = 7.02153 7.25233 7.13787
#
# Compressibility (1/GPa) = 0.02240678
#
# Stress axis : x y z
#
# Youngs Moduli (GPa) = 61.10373 66.60896 68.38412
#
# Poissons Ratio (x) = 0.11928 0.26695
# Poissons Ratio (y) = 0.10942 0.41736
# Poissons Ratio (z) = 0.23853 0.40653
#
# Static dielectric constant tensor:
#      x y z
#    x 3.010460 0.000000 0.000000 
#    y 0.000000 2.896590 0.000000 
#    z 0.000000 0.000000 2.800750 
# 
# 
# High freq. dielectric constant tensor:
#      x y z
#    x 1.591160 0.000000 0.000000 
#    y 0.000000 1.543120 0.000000 
#    z 0.000000 0.000000 1.540620 
# 
# From -- ./inp_files/70397.got.cif
#   From: 2010.03.12/outbox.cif.g09.slc.cpg/sg74_36_cif.got.tgz:70397.got - 2010.04.16 15:46:19.
