data_PCOD8298094
_publ_section_title
;
Structure prediction by ZEFSAII (Michael W. Deem and Ramdas Pophale) SiO2 
 PCOD8298094
Probable space group: I M M A
;
_chemical_formula_sum "Si O2"
_cell_formula_units_Z 68
_cell_length_a 19.828616
_cell_length_b 14.059998
_cell_length_c 12.249493
_cell_angle_alpha 90.000000
_cell_angle_beta 90.000000
_cell_angle_gamma 90.000000
_cell_volume 3415.039844
_symmetry_space_group_name_H-M "I M M A"
_symmetry_group_IT_number 74
_symmetry_cell_setting 'orthorhombic'
loop_
_space_group_symop_operation_xyz
x,y,z
-x,1/2-y,z
x,-y,-z
-x,1/2+y,-z
-x,-y,-z
x,1/2+y,-z
-x,y,z
x,1/2-y,z
1/2+x,1/2+y,1/2+z
1/2-x,-y,1/2+z
1/2+x,1/2-y,1/2-z
1/2-x,y,1/2-z
1/2-x,1/2-y,1/2-z
1/2+x,y,1/2-z
1/2-x,1/2+y,1/2+z
1/2+x,-y,1/2+z
loop_
_atom_site_type_symbol
_atom_site_label
_atom_site_fract_x
_atom_site_fract_y
_atom_site_fract_z
Si Si1 0.000000 0.250000 0.311502
Si Si2 0.113493 0.500000 0.500000
Si Si3 0.923397 0.250000 0.969820
Si Si4 0.360534 0.250000 0.304040
Si Si5 0.577411 0.453243 0.612804
Si Si6 0.823433 0.950712 0.723056
Si Si7 0.000000 0.856492 0.480765
O O1 0.063728 0.250000 0.236120
O O2 0.000000 0.344425 0.387442
O O3 0.161550 0.540859 0.594448
O O4 0.066875 0.584334 0.449500
O O5 0.912401 0.340494 0.892718
O O6 0.000000 0.250000 0.017703
O O7 0.867221 0.250000 0.064877
O O8 0.321413 0.341279 0.260085
O O9 0.602397 0.500000 0.500000
O O10 0.500000 0.481968 0.634891
O O11 0.620066 0.491946 0.712489
O O12 0.750000 0.994326 0.750000
O O13 0.000000 0.750000 0.425435
#
# Coordination Sequence:
#
# PCOD8298094 Si02
#       7
#     4   8   8   8  16  16   8
#     4  10  18  34  66  98 120 150 216 274 316 358
#     4  11  24  40  66  96 129 168 214 262 325 378
#     4  10  20  37  64 102 131 159 211 274 321 370
#     4  12  21  38  68  97 124 163 219 269 321 373
#     4  10  22  40  66  96 127 165 212 265 320 370
#     4  12  27  43  64  94 133 174 213 262 320 388
#     4   9  19  40  65  95 125 159 211 268 317 372
#
# _framework density 19.911921
#
# number of rings (size 3 to 8) (size 9 to 14) (size 15 to 20)
#    0.353    0.941    5.294    0.353    6.588    0.000 
#    2.118    0.588    0.000    0.000    0.000    0.000 
#    0.000    0.000    0.000    0.000    0.000    0.000 
#
# Total GULP energy -421644.049853 kJ/mol
# GULP energy per Si atom -12401.295584 kJ/mol
# Density = 1.986660 g / cm^3
# Si number density = 19.911921 Si / 1000 Ang^3
#
#
#
# Elastic Constant Matrix: (Units=GPa)
#
#
# Indices 1 2 3 4 5 6 
#
# 1 91.4625 22.7897 39.7957 0.0000 0.0000 0.0000
# 2 22.7897 129.5582 28.6784 0.0000 0.0000 0.0000
# 3 39.7957 28.6784 90.7244 0.0000 0.0000 0.0000
# 4 0.0000 0.0000 0.0000 20.2329 0.0000 0.0000
# 5 0.0000 0.0000 0.0000 0.0000 14.5703 0.0000
# 6 0.0000 0.0000 0.0000 0.0000 0.0000 15.3819
#
#
#
# Elastic Compliance Matrix: (Units=1/GPa)
#
#
# Indices 1 2 3 4 5 6 
#
# 1 0.013672 -0.001159 -0.005631 0.000000 0.000000 0.000000
# 2 -0.001159 0.008397 -0.002146 0.000000 0.000000 0.000000
# 3 -0.005631 -0.002146 0.014171 0.000000 0.000000 0.000000
# 4 0.000000 0.000000 0.000000 0.049424 0.000000 0.000000
# 5 0.000000 0.000000 0.000000 0.000000 0.068633 0.000000
# 6 0.000000 0.000000 0.000000 0.000000 0.000000 0.065011
#
#
# Mechanical properties :
#
#
# Convention : Reuss Voigt Hill
#
# Bulk Modulus (GPa) = 54.44005 54.91918 54.67962
# Shear Modulus (GPa) = 20.55044 24.73577 22.64310
#
# Velocity S-wave (km/s) = 3.21607 3.52839 3.37584
# Velocity P-wave (km/s) = 6.41799 6.65134 6.53571
#
# Compressibility (1/GPa) = 0.01836883
#
# Stress axis : x y z
#
# Youngs Moduli (GPa) = 73.14113 119.08424 70.56740
#
# Poissons Ratio (x) = 0.13796 0.39737
# Poissons Ratio (y) = 0.08474 0.15146
# Poissons Ratio (z) = 0.41186 0.25559
#
# Static dielectric constant tensor:
#      x y z
#    x 3.447160 0.000000 0.000000 
#    y 0.000000 3.879080 0.000000 
#    z 0.000000 0.000000 3.408890 
# 
# 
# High freq. dielectric constant tensor:
#      x y z
#    x 1.763030 0.000000 0.000000 
#    y 0.000000 1.784280 0.000000 
#    z 0.000000 0.000000 1.764720 
# 
# From -- ./inp_files/23464.got.cif
#   From: 2010.03.12/outbox.cif.g09.slc.cpg/sg74_12_cif.got.tgz:23464.got - 2010.04.16 15:46:19.
