data_PCOD8298927
_publ_section_title
;
Structure prediction by ZEFSAII (Michael W. Deem and Ramdas Pophale) SiO2 
 PCOD8298927
Probable space group: I M M A
;
_chemical_formula_sum "Si O2"
_cell_formula_units_Z 104
_cell_length_a 27.588633
_cell_length_b 9.232407
_cell_length_c 22.765975
_cell_angle_alpha 90.000000
_cell_angle_beta 90.000000
_cell_angle_gamma 90.000000
_cell_volume 5798.709846
_symmetry_space_group_name_H-M "I M M A"
_symmetry_group_IT_number 74
_symmetry_cell_setting 'orthorhombic'
loop_
_space_group_symop_operation_xyz
x,y,z
-x,1/2-y,z
x,-y,-z
-x,1/2+y,-z
-x,-y,-z
x,1/2+y,-z
-x,y,z
x,1/2-y,z
1/2+x,1/2+y,1/2+z
1/2-x,-y,1/2+z
1/2+x,1/2-y,1/2-z
1/2-x,y,1/2-z
1/2-x,1/2-y,1/2-z
1/2+x,y,1/2-z
1/2-x,1/2+y,1/2+z
1/2+x,-y,1/2+z
loop_
_atom_site_type_symbol
_atom_site_label
_atom_site_fract_x
_atom_site_fract_y
_atom_site_fract_z
Si Si1 0.945618 0.581911 0.059546
Si Si2 0.500000 0.087011 0.941516
Si Si3 0.307645 0.913274 0.251583
Si Si4 0.651087 0.081669 0.621908
Si Si5 0.896167 0.081643 0.561317
Si Si6 0.768201 0.082122 0.057483
Si Si7 0.821712 0.083753 0.361354
O O1 0.944226 0.750000 0.043632
O O2 0.906052 0.547746 0.110672
O O3 0.000000 0.537200 0.081270
O O4 0.931503 0.500000 0.000000
O O5 0.500000 0.250000 0.963927
O O6 0.550649 0.056972 0.907713
O O7 0.500000 0.000000 0.000000
O O8 0.325006 0.750000 0.235591
O O9 0.250000 0.917361 0.250000
O O10 0.332099 0.961881 0.312761
O O11 0.325052 0.032030 0.205385
O O12 0.662960 0.250000 0.610732
O O13 0.680719 0.987308 0.575151
O O14 0.884964 0.250000 0.550277
O O15 0.892833 0.000000 0.500000
O O16 0.857606 0.018378 0.604573
O O17 0.775525 0.250000 0.041851
O O18 0.731568 0.061770 0.111726
O O19 0.747546 0.000000 0.000000
O O20 0.838207 0.250000 0.365240
#
# Coordination Sequence:
#
# PCOD8298927 Si02
#       7
#    16   8  16  16  16  16  16
#     4   9  18  33  54  81 111 139 171 214 265 322
#     4   8  16  30  50  76 102 132 168 208 255 308
#     4  10  20  36  57  77 100 137 180 223 265 311
#     4  10  20  35  56  79 104 138 179 217 263 317
#     4  10  19  33  54  79 108 138 173 216 265 319
#     4  11  23  35  50  75 108 140 172 212 261 312
#     4  11  23  36  52  76 105 141 179 219 265 314
#
# _framework density 17.935025
#
# number of rings (size 3 to 8) (size 9 to 14) (size 15 to 20)
#    0.000    2.000    1.538    2.308    0.000    6.462 
#    0.000    0.000    1.692    0.000    0.000    0.000 
#    0.000    0.000    0.000    0.000    0.000    0.000 
#
# Total GULP energy -644529.350696 kJ/mol
# GULP energy per Si atom -12394.795206 kJ/mol
# Density = 1.789420 g / cm^3
# Si number density = 17.935025 Si / 1000 Ang^3
#
#
#
# Elastic Constant Matrix: (Units=GPa)
#
#
# Indices 1 2 3 4 5 6 
#
# 1 109.4183 44.3371 43.8539 0.0000 0.0000 0.0000
# 2 44.3371 91.4795 42.7608 0.0000 0.0000 0.0000
# 3 43.8539 42.7608 95.5012 0.0000 0.0000 0.0000
# 4 0.0000 0.0000 0.0000 32.1071 0.0000 0.0000
# 5 0.0000 0.0000 0.0000 0.0000 32.9594 0.0000
# 6 0.0000 0.0000 0.0000 0.0000 0.0000 24.3784
#
#
#
# Elastic Compliance Matrix: (Units=1/GPa)
#
#
# Indices 1 2 3 4 5 6 
#
# 1 0.012369 -0.004224 -0.003789 0.000000 0.000000 0.000000
# 2 -0.004224 0.015267 -0.004896 0.000000 0.000000 0.000000
# 3 -0.003789 -0.004896 0.014403 0.000000 0.000000 0.000000
# 4 0.000000 0.000000 0.000000 0.031146 0.000000 0.000000
# 5 0.000000 0.000000 0.000000 0.000000 0.030340 0.000000
# 6 0.000000 0.000000 0.000000 0.000000 0.000000 0.041020
#
#
# Mechanical properties :
#
#
# Convention : Reuss Voigt Hill
#
# Bulk Modulus (GPa) = 61.64536 62.03364 61.83950
# Shear Modulus (GPa) = 28.44609 28.91880 28.68244
#
# Velocity S-wave (km/s) = 3.98686 4.01985 4.00339
# Velocity P-wave (km/s) = 7.45919 7.49725 7.47824
#
# Compressibility (1/GPa) = 0.01622182
#
# Stress axis : x y z
#
# Youngs Moduli (GPa) = 80.84529 65.49913 69.42931
#
# Poissons Ratio (x) = 0.27667 0.26304
# Poissons Ratio (y) = 0.34149 0.33995
# Poissons Ratio (z) = 0.30629 0.32070
#
# Static dielectric constant tensor:
#      x y z
#    x 3.746500 0.000000 0.000000 
#    y 0.000000 3.444580 0.000000 
#    z 0.000000 0.000000 3.820890 
# 
# 
# High freq. dielectric constant tensor:
#      x y z
#    x 1.699500 0.000000 0.000000 
#    y 0.000000 1.704050 0.000000 
#    z 0.000000 0.000000 1.670620 
# 
# From -- ./inp_files/55660.got.cif
#   From: 2010.03.12/outbox.cif.g09.slc.cpg/sg74_28_cif.got.tgz:55660.got - 2010.04.16 15:46:19.
