data_PCOD8298982
_publ_section_title
;
Structure prediction by ZEFSAII (Michael W. Deem and Ramdas Pophale) SiO2 
 PCOD8298982
Probable space group: I M M A
;
_chemical_formula_sum "Si O2"
_cell_formula_units_Z 120
_cell_length_a 8.887424
_cell_length_b 26.905214
_cell_length_c 27.962608
_cell_angle_alpha 90.000000
_cell_angle_beta 90.000000
_cell_angle_gamma 90.000000
_cell_volume 6686.364148
_symmetry_space_group_name_H-M "I M M A"
_symmetry_group_IT_number 74
_symmetry_cell_setting 'orthorhombic'
loop_
_space_group_symop_operation_xyz
x,y,z
-x,1/2-y,z
x,-y,-z
-x,1/2+y,-z
-x,-y,-z
x,1/2+y,-z
-x,y,z
x,1/2-y,z
1/2+x,1/2+y,1/2+z
1/2-x,-y,1/2+z
1/2+x,1/2-y,1/2-z
1/2-x,y,1/2-z
1/2-x,1/2-y,1/2-z
1/2+x,y,1/2-z
1/2-x,1/2+y,1/2+z
1/2+x,-y,1/2+z
loop_
_atom_site_type_symbol
_atom_site_label
_atom_site_fract_x
_atom_site_fract_y
_atom_site_fract_z
Si Si1 0.178724 0.946436 0.130120
Si Si2 0.325086 0.250000 0.699574
Si Si3 0.677129 0.357868 0.698132
Si Si4 0.822274 0.954388 0.642845
Si Si5 0.672127 0.194404 0.383747
Si Si6 0.175249 0.858138 0.700006
Si Si7 0.676067 0.100551 0.443087
Si Si8 0.322897 0.551404 0.026187
O O1 0.234014 0.898887 0.160497
O O2 0.256143 0.945904 0.078799
O O3 0.000000 0.947823 0.124281
O O4 0.237272 0.995290 0.158164
O O5 0.500000 0.250000 0.708850
O O6 0.250000 0.250000 0.750000
O O7 0.280663 0.196950 0.675211
O O8 0.500000 0.363253 0.705623
O O9 0.750000 0.366357 0.750000
O O10 0.779617 0.913152 0.682133
O O11 0.763638 0.937581 0.591098
O O12 0.000000 0.963529 0.638997
O O13 0.500000 0.188389 0.367302
O O14 0.707250 0.250000 0.401871
O O15 0.773470 0.182803 0.337993
O O16 0.707947 0.157147 0.427168
O O17 0.250000 0.846407 0.750000
O O18 0.000000 0.853124 0.706821
O O19 0.500000 0.087395 0.442099
O O20 0.743731 0.095272 0.496015
O O21 0.500000 0.560348 0.028696
O O22 0.281862 0.500000 0.000000
#
# Coordination Sequence:
#
# PCOD8298982 Si02
#       8
#    16   8  16  16  16  16  16  16
#     4  11  22  34  52  80 109 138 176 217 258 308
#     4   8  14  30  54  76 100 130 168 208 248 296
#     4   9  19  34  54  80 107 138 174 212 255 304
#     4  10  20  34  50  72 102 137 173 212 260 315
#     4   9  19  36  57  80 105 134 173 220 269 321
#     4  10  21  35  52  74 103 139 180 221 266 316
#     4  10  19  33  56  80 102 132 171 215 261 313
#     4  11  22  35  54  79 107 140 175 213 260 309
#
# _framework density 17.946971999999999
#
# number of rings (size 3 to 8) (size 9 to 14) (size 15 to 20)
#    0.000    2.133    1.333    2.000    0.000    4.800 
#    0.000    2.667    1.467    0.000    0.000    0.000 
#    0.000    0.000    0.000    0.000    0.000    0.000 
#
# Total GULP energy -743841.102923 kJ/mol
# GULP energy per Si atom -12397.351715 kJ/mol
# Density = 1.790612 g / cm^3
# Si number density = 17.946972 Si / 1000 Ang^3
#
#
#
# Elastic Constant Matrix: (Units=GPa)
#
#
# Indices 1 2 3 4 5 6 
#
# 1 50.8601 37.2743 30.2306 0.0000 0.0000 0.0000
# 2 37.2743 142.0578 46.3128 0.0000 0.0000 0.0000
# 3 30.2306 46.3128 78.4158 0.0000 0.0000 0.0000
# 4 0.0000 0.0000 0.0000 17.6123 0.0000 0.0000
# 5 0.0000 0.0000 0.0000 0.0000 28.6921 0.0000
# 6 0.0000 0.0000 0.0000 0.0000 0.0000 23.1955
#
#
#
# Elastic Compliance Matrix: (Units=1/GPa)
#
#
# Indices 1 2 3 4 5 6 
#
# 1 0.027841 -0.004714 -0.007949 0.000000 0.000000 0.000000
# 2 -0.004714 0.009516 -0.003803 0.000000 0.000000 0.000000
# 3 -0.007949 -0.003803 0.018063 0.000000 0.000000 0.000000
# 4 0.000000 0.000000 0.000000 0.056778 0.000000 0.000000
# 5 0.000000 0.000000 0.000000 0.000000 0.034853 0.000000
# 6 0.000000 0.000000 0.000000 0.000000 0.000000 0.043112
#
#
# Mechanical properties :
#
#
# Convention : Reuss Voigt Hill
#
# Bulk Modulus (GPa) = 44.46722 55.44101 49.95412
# Shear Modulus (GPa) = 21.68334 24.40106 23.04220
#
# Velocity S-wave (km/s) = 3.47967 3.69130 3.58705
# Velocity P-wave (km/s) = 6.40117 7.00901 6.71197
#
# Compressibility (1/GPa) = 0.02248847
#
# Stress axis : x y z
#
# Youngs Moduli (GPa) = 35.91788 105.08590 55.36101
#
# Poissons Ratio (x) = 0.49533 0.44009
# Poissons Ratio (y) = 0.16930 0.21054
# Poissons Ratio (z) = 0.28553 0.39965
#
# Static dielectric constant tensor:
#      x y z
#    x 3.433420 0.000000 0.000000 
#    y 0.000000 3.776500 0.000000 
#    z 0.000000 0.000000 3.162580 
# 
# 
# High freq. dielectric constant tensor:
#      x y z
#    x 1.704960 0.000000 0.000000 
#    y 0.000000 1.700240 0.000000 
#    z 0.000000 0.000000 1.673340 
# 
# From -- ./inp_files/65046.got.cif
#   From: 2010.03.12/outbox.cif.g09.slc.cpg/sg74_33_cif.got.tgz:65046.got - 2010.04.16 15:46:19.
