data_PCOD8298794
_publ_section_title
;
Structure prediction by ZEFSAII (Michael W. Deem and Ramdas Pophale) SiO2 
 PCOD8298794
Probable space group: I M M A
;
_chemical_formula_sum "Si O2"
_cell_formula_units_Z 112
_cell_length_a 24.061107
_cell_length_b 23.714920
_cell_length_c 10.067315
_cell_angle_alpha 90.000000
_cell_angle_beta 90.000000
_cell_angle_gamma 90.000000
_cell_volume 5744.482702
_symmetry_space_group_name_H-M "I M M A"
_symmetry_group_IT_number 74
_symmetry_cell_setting 'orthorhombic'
loop_
_space_group_symop_operation_xyz
x,y,z
-x,1/2-y,z
x,-y,-z
-x,1/2+y,-z
-x,-y,-z
x,1/2+y,-z
-x,y,z
x,1/2-y,z
1/2+x,1/2+y,1/2+z
1/2-x,-y,1/2+z
1/2+x,1/2-y,1/2-z
1/2-x,y,1/2-z
1/2-x,1/2-y,1/2-z
1/2+x,y,1/2-z
1/2-x,1/2+y,1/2+z
1/2+x,-y,1/2+z
loop_
_atom_site_type_symbol
_atom_site_label
_atom_site_fract_x
_atom_site_fract_y
_atom_site_fract_z
Si Si1 0.808215 0.971636 0.307445
Si Si2 0.833041 0.815736 0.174837
Si Si3 0.937926 0.410649 0.254124
Si Si4 0.667900 0.085925 0.084906
Si Si5 0.717933 0.816457 0.051042
Si Si6 0.060758 0.864580 0.030418
Si Si7 0.093029 0.475344 0.865131
O O1 0.750000 0.949871 0.250000
O O2 0.824830 0.946406 0.447493
O O3 0.854253 0.947818 0.207630
O O4 0.809018 0.040782 0.307178
O O5 0.832728 0.750000 0.195039
O O6 0.782137 0.831779 0.078351
O O7 0.820392 0.838284 0.324493
O O8 0.891794 0.831801 0.110059
O O9 0.895555 0.398648 0.374736
O O10 0.937782 0.477298 0.221032
O O11 0.000000 0.394923 0.302538
O O12 0.922060 0.373374 0.124145
O O13 0.700291 0.145743 0.076645
O O14 0.709806 0.750000 0.019699
O O15 0.050936 0.925290 0.099241
O O16 0.000000 0.834041 0.038964
O O17 0.118408 0.500000 0.000000
#
# Coordination Sequence:
#
# PCOD8298794 Si02
#       7
#    16  16  16  16  16  16  16
#     4  10  22  33  49  79 114 146 177 219 276 329
#     4   9  19  35  56  82 107 137 178 228 278 319
#     4   9  19  37  54  75 109 144 182 226 269 326
#     4  10  21  35  53  80 109 145 185 220 275 333
#     4   9  19  36  58  80 106 143 185 226 272 331
#     4  10  19  32  55  80 104 140 181 225 277 322
#     4   9  18  31  52  77 104 139 178 220 264 319
#
# _framework density 19.496970000000001
#
# number of rings (size 3 to 8) (size 9 to 14) (size 15 to 20)
#    0.000    2.571    0.000    2.143    6.000    4.286 
#    0.000    9.286    0.000    4.286    0.000    0.000 
#    0.000    0.000    0.000    0.000    0.000    0.000 
#
# Total GULP energy -693774.902921 kJ/mol
# GULP energy per Si atom -12388.837552 kJ/mol
# Density = 1.945259 g / cm^3
# Si number density = 19.496970 Si / 1000 Ang^3
#
#
#
# Elastic Constant Matrix: (Units=GPa)
#
#
# Indices 1 2 3 4 5 6 
#
# 1 126.8929 11.1675 43.8668 0.0000 0.0000 0.0000
# 2 11.1675 32.7738 7.9538 0.0000 0.0000 0.0000
# 3 43.8668 7.9538 53.4726 0.0000 0.0000 0.0000
# 4 0.0000 0.0000 0.0000 29.4207 0.0000 0.0000
# 5 0.0000 0.0000 0.0000 0.0000 29.2646 0.0000
# 6 0.0000 0.0000 0.0000 0.0000 0.0000 22.1288
#
#
#
# Elastic Compliance Matrix: (Units=1/GPa)
#
#
# Indices 1 2 3 4 5 6 
#
# 1 0.011084 -0.001629 -0.008850 0.000000 0.000000 0.000000
# 2 -0.001629 0.031894 -0.003408 0.000000 0.000000 0.000000
# 3 -0.008850 -0.003408 0.026468 0.000000 0.000000 0.000000
# 4 0.000000 0.000000 0.000000 0.033990 0.000000 0.000000
# 5 0.000000 0.000000 0.000000 0.000000 0.034171 0.000000
# 6 0.000000 0.000000 0.000000 0.000000 0.000000 0.045190
#
#
# Mechanical properties :
#
#
# Convention : Reuss Voigt Hill
#
# Bulk Modulus (GPa) = 23.99673 37.67951 30.83812
# Shear Modulus (GPa) = 22.27552 26.17288 24.22420
#
# Velocity S-wave (km/s) = 3.38377 3.66786 3.52868
# Velocity P-wave (km/s) = 5.25369 6.10782 5.69678
#
# Compressibility (1/GPa) = 0.04167235
#
# Stress axis : x y z
#
# Youngs Moduli (GPa) = 90.22399 31.35363 37.78080
#
# Poissons Ratio (x) = 0.05107 0.33437
# Poissons Ratio (y) = 0.14696 0.12875
# Poissons Ratio (z) = 0.79850 0.10685
#
# Static dielectric constant tensor:
#      x y z
#    x 3.979480 0.000000 0.000000 
#    y 0.000000 3.618170 0.000000 
#    z 0.000000 0.000000 3.284170 
# 
# 
# High freq. dielectric constant tensor:
#      x y z
#    x 1.756120 0.000000 0.000000 
#    y 0.000000 1.752960 0.000000 
#    z 0.000000 0.000000 1.739390 
# 
# From -- ./inp_files/25535.got.cif
#   From: 2010.03.12/outbox.cif.g09.slc.cpg/sg74_13_cif.got.tgz:25535.got - 2010.04.16 15:46:19.
