data_PCOD8298138
_publ_section_title
;
Structure prediction by ZEFSAII (Michael W. Deem and Ramdas Pophale) SiO2 
 PCOD8298138
Probable space group: I M M A
;
_chemical_formula_sum "Si O2"
_cell_formula_units_Z 88
_cell_length_a 7.794649
_cell_length_b 25.475220
_cell_length_c 38.929067
_cell_angle_alpha 90.000000
_cell_angle_beta 90.000000
_cell_angle_gamma 90.000000
_cell_volume 7730.160332
_symmetry_space_group_name_H-M "I M M A"
_symmetry_group_IT_number 74
_symmetry_cell_setting 'orthorhombic'
loop_
_space_group_symop_operation_xyz
x,y,z
-x,1/2-y,z
x,-y,-z
-x,1/2+y,-z
-x,-y,-z
x,1/2+y,-z
-x,y,z
x,1/2-y,z
1/2+x,1/2+y,1/2+z
1/2-x,-y,1/2+z
1/2+x,1/2-y,1/2-z
1/2-x,y,1/2-z
1/2-x,1/2-y,1/2-z
1/2+x,y,1/2-z
1/2-x,1/2+y,1/2+z
1/2+x,-y,1/2+z
loop_
_atom_site_type_symbol
_atom_site_label
_atom_site_fract_x
_atom_site_fract_y
_atom_site_fract_z
Si Si1 0.188964 0.372474 0.001620
Si Si2 0.811027 0.064663 0.071950
Si Si3 0.000000 0.687602 0.665007
Si Si4 0.000000 0.311437 0.475215
Si Si5 0.805875 0.468475 0.535270
Si Si6 0.500000 0.874576 0.904546
Si Si7 0.807393 0.312404 0.212939
O O1 0.206335 0.405901 0.036021
O O2 0.332357 0.327191 0.002612
O O3 0.000000 0.346663 0.998560
O O4 0.215721 0.411947 0.969473
O O5 0.667644 0.088158 0.097300
O O6 0.000000 0.073245 0.088174
O O7 0.784313 0.002494 0.065187
O O8 0.000000 0.663799 0.627425
O O9 0.170861 0.667801 0.684723
O O10 0.000000 0.750000 0.661646
O O11 0.000000 0.250000 0.468859
O O12 0.000000 0.339266 0.438456
O O13 0.796822 0.500000 0.500000
O O14 0.000000 0.458446 0.546497
O O15 0.805673 0.250000 0.214235
O O16 0.750000 0.334593 0.250000
O O17 0.000000 0.332534 0.203932
#
# Coordination Sequence:
#
# PCOD8298138 Si02
#       7
#    16  16   8   8  16   8  16
#     4   9  16  25  37  51  63  77 102 135 164 187
#     4   9  16  25  37  50  66  85 101 123 155 190
#     4  10  19  28  39  53  68  85 105 131 159 188
#     4  10  19  29  37  44  61  89 116 135 153 186
#     4   9  13  21  37  54  66  76  95 127 164 192
#     4  10  19  29  36  47  67  90 112 126 146 190
#     4   9  15  25  41  57  67  75  92 123 163 197
#
# _framework density 11.383981
#
# number of rings (size 3 to 8) (size 9 to 14) (size 15 to 20)
#    0.000    2.727    2.727    0.818    0.000    3.273 
#    0.000    0.000    0.000    3.273    0.000    0.000 
#    0.000    0.000    0.000    0.000    0.000    0.000 
#
# Total GULP energy -545274.330621 kJ/mol
# GULP energy per Si atom -12392.598423 kJ/mol
# Density = 1.135807 g / cm^3
# Si number density = 11.383981 Si / 1000 Ang^3
#
#
#
# Elastic Constant Matrix: (Units=GPa)
#
#
# Indices 1 2 3 4 5 6 
#
# 1 114.0692 29.1230 25.8260 0.0000 0.0000 0.0000
# 2 29.1230 33.0619 21.4083 0.0000 0.0000 0.0000
# 3 25.8260 21.4083 26.9390 0.0000 0.0000 0.0000
# 4 0.0000 0.0000 0.0000 6.8405 0.0000 0.0000
# 5 0.0000 0.0000 0.0000 0.0000 9.2079 0.0000
# 6 0.0000 0.0000 0.0000 0.0000 0.0000 7.5558
#
#
#
# Elastic Compliance Matrix: (Units=1/GPa)
#
#
# Indices 1 2 3 4 5 6 
#
# 1 0.011806 -0.006326 -0.006291 0.000000 0.000000 0.000000
# 2 -0.006326 0.065700 -0.046147 0.000000 0.000000 0.000000
# 3 -0.006291 -0.046147 0.079825 0.000000 0.000000 0.000000
# 4 0.000000 0.000000 0.000000 0.146189 0.000000 0.000000
# 5 0.000000 0.000000 0.000000 0.000000 0.108602 0.000000
# 6 0.000000 0.000000 0.000000 0.000000 0.000000 0.132349
#
#
# Mechanical properties :
#
#
# Convention : Reuss Voigt Hill
#
# Bulk Modulus (GPa) = 25.12374 36.30939 30.71656
# Shear Modulus (GPa) = 7.40450 11.23502 9.31976
#
# Velocity S-wave (km/s) = 2.55312 3.14493 2.86435
# Velocity P-wave (km/s) = 5.55054 6.71951 6.16281
#
# Compressibility (1/GPa) = 0.03980300
#
# Stress axis : x y z
#
# Youngs Moduli (GPa) = 84.70264 15.22081 12.52744
#
# Poissons Ratio (x) = 0.09628 0.07881
# Poissons Ratio (y) = 0.53581 0.57810
# Poissons Ratio (z) = 0.53288 0.70239
#
# Static dielectric constant tensor:
#      x y z
#    x 2.725520 0.000000 0.000000 
#    y 0.000000 2.188320 0.000000 
#    z 0.000000 0.000000 2.069010 
# 
# 
# High freq. dielectric constant tensor:
#      x y z
#    x 1.455860 0.000000 0.000000 
#    y 0.000000 1.393680 0.000000 
#    z 0.000000 0.000000 1.376810 
# 
# From -- ./inp_files/70759.got.cif
#   From: 2010.03.12/outbox.cif.g09.slc.cpg/sg74_36_cif.got.tgz:70759.got - 2010.04.16 15:46:19.
