data_PCOD8298900
_publ_section_title
;
Structure prediction by ZEFSAII (Michael W. Deem and Ramdas Pophale) SiO2 
 PCOD8298900
Probable space group: I M M A
;
_chemical_formula_sum "Si O2"
_cell_formula_units_Z 72
_cell_length_a 8.894158
_cell_length_b 28.586576
_cell_length_c 14.083578
_cell_angle_alpha 90.000000
_cell_angle_beta 90.000000
_cell_angle_gamma 90.000000
_cell_volume 3580.799332
_symmetry_space_group_name_H-M "I M M A"
_symmetry_group_IT_number 74
_symmetry_cell_setting 'orthorhombic'
loop_
_space_group_symop_operation_xyz
x,y,z
-x,1/2-y,z
x,-y,-z
-x,1/2+y,-z
-x,-y,-z
x,1/2+y,-z
-x,y,z
x,1/2-y,z
1/2+x,1/2+y,1/2+z
1/2-x,-y,1/2+z
1/2+x,1/2-y,1/2-z
1/2-x,y,1/2-z
1/2-x,1/2-y,1/2-z
1/2+x,y,1/2-z
1/2-x,1/2+y,1/2+z
1/2+x,-y,1/2+z
loop_
_atom_site_type_symbol
_atom_site_label
_atom_site_fract_x
_atom_site_fract_y
_atom_site_fract_z
Si Si1 0.672073 0.975605 0.348468
Si Si2 0.821948 0.340614 0.468391
Si Si3 0.177812 0.626623 0.147100
Si Si4 0.322921 0.750000 0.852488
Si Si5 0.176883 0.576788 0.853484
O O1 0.500000 0.970672 0.322471
O O2 0.750000 0.982841 0.250000
O O3 0.719700 0.925785 0.394163
O O4 0.700224 0.024999 0.403643
O O5 0.751859 0.336953 0.573895
O O6 0.768900 0.295427 0.409945
O O7 0.758371 0.386415 0.419035
O O8 0.000000 0.343517 0.476045
O O9 0.250000 0.634476 0.250000
O O10 0.000000 0.635251 0.152831
O O11 0.500000 0.750000 0.838533
O O12 0.250000 0.750000 0.750000
O O13 0.250000 0.579382 0.750000
O O14 0.000000 0.588518 0.846045
#
# Coordination Sequence:
#
# PCOD8298900 Si02
#       5
#    16  16  16   8  16
#     4   8  16  30  50  76 111 150 187 224 270 323
#     4  11  23  39  58  83 111 145 188 234 282 337
#     4  10  20  37  59  84 114 151 189 230 275 325
#     4  10  24  44  65  86 113 144 179 226 282 336
#     4  10  19  33  53  81 115 151 188 231 278 331
#
# _framework density 20.107241999999999
#
# number of rings (size 3 to 8) (size 9 to 14) (size 15 to 20)
#    0.000    2.222    0.000    2.667    0.000    6.222 
#    0.000    5.000    0.000    0.000    0.000    0.000 
#    0.000    0.000    0.000    0.000    0.000    0.000 
#
# Total GULP energy -446016.877200 kJ/mol
# GULP energy per Si atom -12389.357700 kJ/mol
# Density = 2.006148 g / cm^3
# Si number density = 20.107242 Si / 1000 Ang^3
#
#
#
# Elastic Constant Matrix: (Units=GPa)
#
#
# Indices 1 2 3 4 5 6 
#
# 1 80.8880 47.2524 54.4759 0.0001 0.0000 0.0000
# 2 47.2524 110.2522 80.4767 0.0004 0.0001 0.0000
# 3 54.4759 80.4767 120.0516 0.0010 0.0001 0.0000
# 4 0.0001 0.0004 0.0010 34.0261 0.0001 0.0000
# 5 0.0000 0.0001 0.0001 0.0001 35.4918 0.0001
# 6 0.0000 0.0000 0.0000 0.0000 0.0001 27.5293
#
#
#
# Elastic Compliance Matrix: (Units=1/GPa)
#
#
# Indices 1 2 3 4 5 6 
#
# 1 0.018477 -0.003523 -0.006023 0.000000 0.000000 0.000000
# 2 -0.003523 0.018432 -0.010758 0.000000 0.000000 0.000000
# 3 -0.006023 -0.010758 0.018274 0.000000 0.000000 0.000000
# 4 0.000000 0.000000 0.000000 0.029389 0.000000 0.000000
# 5 0.000000 0.000000 0.000000 0.000000 0.028176 0.000000
# 6 0.000000 0.000000 0.000000 0.000000 0.000000 0.036325
#
#
# Mechanical properties :
#
#
# Convention : Reuss Voigt Hill
#
# Bulk Modulus (GPa) = 68.60114 75.06688 71.83401
# Shear Modulus (GPa) = 25.70195 28.00855 26.85525
#
# Velocity S-wave (km/s) = 3.57913 3.73628 3.65855
# Velocity P-wave (km/s) = 7.16044 7.48515 7.32459
#
# Compressibility (1/GPa) = 0.01457702
#
# Stress axis : x y z
#
# Youngs Moduli (GPa) = 54.12196 54.25302 54.72227
#
# Poissons Ratio (x) = 0.19111 0.32958
# Poissons Ratio (y) = 0.19065 0.58868
# Poissons Ratio (z) = 0.32597 0.58363
#
# Static dielectric constant tensor:
#      x y z
#    x 3.679340 0.000000 0.000000 
#    y 0.000000 4.028320 0.000000 
#    z 0.000000 0.000000 3.472990 
# 
# 
# High freq. dielectric constant tensor:
#      x y z
#    x 1.790570 0.000000 0.000000 
#    y 0.000000 1.785350 0.000000 
#    z 0.000000 0.000000 1.779090 
# 
# From -- ./inp_files/29148.got.cif
#   From: 2010.03.12/outbox.cif.g09.slc.cpg/sg74_15_cif.got.tgz:29148.got - 2010.04.16 15:46:19.
