data_PCOD8298661
_publ_section_title
;
Structure prediction by ZEFSAII (Michael W. Deem and Ramdas Pophale) SiO2 
 PCOD8298661
Probable space group: I M M A
;
_chemical_formula_sum "Si O2"
_cell_formula_units_Z 88
_cell_length_a 9.414109
_cell_length_b 30.460438
_cell_length_c 17.821645
_cell_angle_alpha 90.000000
_cell_angle_beta 90.000000
_cell_angle_gamma 90.000000
_cell_volume 5110.497201
_symmetry_space_group_name_H-M "I M M A"
_symmetry_group_IT_number 74
_symmetry_cell_setting 'orthorhombic'
loop_
_space_group_symop_operation_xyz
x,y,z
-x,1/2-y,z
x,-y,-z
-x,1/2+y,-z
-x,-y,-z
x,1/2+y,-z
-x,y,z
x,1/2-y,z
1/2+x,1/2+y,1/2+z
1/2-x,-y,1/2+z
1/2+x,1/2-y,1/2-z
1/2-x,y,1/2-z
1/2-x,1/2-y,1/2-z
1/2+x,y,1/2-z
1/2-x,1/2+y,1/2+z
1/2+x,-y,1/2+z
loop_
_atom_site_type_symbol
_atom_site_label
_atom_site_fract_x
_atom_site_fract_y
_atom_site_fract_z
Si Si1 0.664889 0.425382 0.175235
Si Si2 0.836416 0.452150 0.030928
Si Si3 0.660095 0.662337 0.902879
Si Si4 0.335143 0.863721 0.457599
Si Si5 0.833682 0.800212 0.173971
Si Si6 0.662159 0.250000 0.176910
O O1 0.500000 0.440142 0.182639
O O2 0.750000 0.439287 0.250000
O O3 0.734200 0.447674 0.102280
O O4 0.677776 0.373239 0.163322
O O5 0.000000 0.446673 0.057092
O O6 0.805508 0.500000 0.000000
O O7 0.803624 0.416412 0.964131
O O8 0.500000 0.661042 0.934608
O O9 0.704253 0.708481 0.870946
O O10 0.767116 0.656882 0.969840
O O11 0.500000 0.853701 0.461706
O O12 0.277422 0.837700 0.384307
O O13 0.803698 0.750000 0.145308
O O14 0.750000 0.809427 0.250000
O O15 0.000000 0.806344 0.190351
O O16 0.500000 0.250000 0.201123
O O17 0.750000 0.250000 0.250000
#
# Coordination Sequence:
#
# PCOD8298661 Si02
#       6
#    16  16  16  16  16   8
#     4  10  19  32  51  73  98 128 165 204 243 290
#     4   9  18  34  54  74  99 130 162 201 251 301
#     4   9  19  32  46  68  97 128 162 200 238 281
#     4   9  18  32  51  73  96 125 162 200 240 291
#     4   9  18  32  49  71  98 127 161 200 243 292
#     4  10  20  32  44  64  95 128 161 196 235 276
#
# _framework density 17.219459000000001
#
# number of rings (size 3 to 8) (size 9 to 14) (size 15 to 20)
#    0.000    2.727    0.000    1.091    1.273    2.545 
#    0.000    0.909    0.000    2.182    0.000    0.000 
#    0.000    0.000    0.000    0.000    0.000    0.000 
#
# Total GULP energy -545269.852311 kJ/mol
# GULP energy per Si atom -12392.496643 kJ/mol
# Density = 1.718027 g / cm^3
# Si number density = 17.219459 Si / 1000 Ang^3
#
#
#
# Elastic Constant Matrix: (Units=GPa)
#
#
# Indices 1 2 3 4 5 6 
#
# 1 52.2217 43.4284 43.5505 0.0001 0.0000 0.0000
# 2 43.4284 128.2504 58.8421 -0.0001 0.0000 0.0000
# 3 43.5505 58.8421 92.6246 -0.0001 0.0000 0.0001
# 4 0.0001 -0.0001 -0.0001 19.0602 0.0000 0.0000
# 5 0.0000 0.0000 0.0000 0.0000 33.7910 0.0000
# 6 0.0000 0.0000 0.0001 0.0000 0.0000 13.5614
#
#
#
# Elastic Compliance Matrix: (Units=1/GPa)
#
#
# Indices 1 2 3 4 5 6 
#
# 1 0.034470 -0.005979 -0.012409 0.000000 0.000000 0.000000
# 2 -0.005979 0.012042 -0.004839 0.000000 0.000000 0.000000
# 3 -0.012409 -0.004839 0.019705 0.000000 0.000000 0.000000
# 4 0.000000 0.000000 0.000000 0.052465 0.000000 0.000000
# 5 0.000000 0.000000 0.000000 0.000000 0.029594 0.000000
# 6 0.000000 0.000000 0.000000 0.000000 0.000000 0.073739
#
#
# Mechanical properties :
#
#
# Convention : Reuss Voigt Hill
#
# Bulk Modulus (GPa) = 50.59897 62.74873 56.67385
# Shear Modulus (GPa) = 18.17822 21.76756 19.97289
#
# Velocity S-wave (km/s) = 3.25265 3.55931 3.40943
# Velocity P-wave (km/s) = 6.59961 7.30830 6.96298
#
# Compressibility (1/GPa) = 0.01976325
#
# Stress axis : x y z
#
# Youngs Moduli (GPa) = 29.01110 83.04352 50.74974
#
# Poissons Ratio (x) = 0.49651 0.62974
# Poissons Ratio (y) = 0.17346 0.24556
# Poissons Ratio (z) = 0.35999 0.40182
#
# Static dielectric constant tensor:
#      x y z
#    x 3.271360 0.000000 0.000000 
#    y 0.000000 3.250310 0.000000 
#    z 0.000000 0.000000 3.052740 
# 
# 
# High freq. dielectric constant tensor:
#      x y z
#    x 1.669220 0.000000 0.000000 
#    y 0.000000 1.665140 0.000000 
#    z 0.000000 0.000000 1.652280 
# 
# From -- ./inp_files/40110.got.cif
#   From: 2010.03.12/outbox.cif.g09.slc.cpg/sg74_21_cif.got.tgz:40110.got - 2010.04.16 15:46:19.
