data_PCOD8298588
_publ_section_title
;
Structure prediction by ZEFSAII (Michael W. Deem and Ramdas Pophale) SiO2 
 PCOD8298588
Probable space group: I M M A
;
_chemical_formula_sum "Si O2"
_cell_formula_units_Z 72
_cell_length_a 8.706759
_cell_length_b 17.987559
_cell_length_c 24.083644
_cell_angle_alpha 90.000000
_cell_angle_beta 90.000000
_cell_angle_gamma 90.000000
_cell_volume 3771.819955
_symmetry_space_group_name_H-M "I M M A"
_symmetry_group_IT_number 74
_symmetry_cell_setting 'orthorhombic'
loop_
_space_group_symop_operation_xyz
x,y,z
-x,1/2-y,z
x,-y,-z
-x,1/2+y,-z
-x,-y,-z
x,1/2+y,-z
-x,y,z
x,1/2-y,z
1/2+x,1/2+y,1/2+z
1/2-x,-y,1/2+z
1/2+x,1/2-y,1/2-z
1/2-x,y,1/2-z
1/2-x,1/2-y,1/2-z
1/2+x,y,1/2-z
1/2-x,1/2+y,1/2+z
1/2+x,-y,1/2+z
loop_
_atom_site_type_symbol
_atom_site_label
_atom_site_fract_x
_atom_site_fract_y
_atom_site_fract_z
Si Si1 0.317161 0.166454 0.398224
Si Si2 0.682432 0.455533 0.311002
Si Si3 0.182509 0.250000 0.810089
Si Si4 0.682893 0.083178 0.506308
Si Si5 0.182686 0.895648 0.128991
O O1 0.500000 0.166697 0.400254
O O2 0.253421 0.250000 0.389339
O O3 0.260746 0.114547 0.347628
O O4 0.252343 0.134695 0.456694
O O5 0.500000 0.457490 0.306934
O O6 0.750000 0.447517 0.250000
O O7 0.745361 0.530553 0.340311
O O8 0.250000 0.250000 0.750000
O O9 0.246462 0.176800 0.840217
O O10 0.000000 0.250000 0.808535
O O11 0.500000 0.083158 0.503667
O O12 0.742452 0.111569 0.565872
O O13 0.746198 0.000000 0.500000
O O14 0.000000 0.898642 0.129248
#
# Coordination Sequence:
#
# PCOD8298588 Si02
#       5
#    16  16   8  16  16
#     4   9  17  27  42  67  96 121 149 190 237 279
#     4  10  19  32  48  67  93 124 157 190 227 273
#     4  10  20  32  46  68  98 126 155 190 226 270
#     4   9  14  24  42  65  93 119 144 184 238 279
#     4   9  17  28  44  68  95 121 151 191 234 274
#
# _framework density 19.088927999999999
#
# number of rings (size 3 to 8) (size 9 to 14) (size 15 to 20)
#    0.000    2.667    2.222    0.667    1.556    0.444 
#    0.000    0.000    0.000    0.000    0.000    4.667 
#    0.000    0.000    0.000    0.000    0.000    0.000 
#
# Total GULP energy -446262.113106 kJ/mol
# GULP energy per Si atom -12396.169808 kJ/mol
# Density = 1.904548 g / cm^3
# Si number density = 19.088928 Si / 1000 Ang^3
#
#
#
# Elastic Constant Matrix: (Units=GPa)
#
#
# Indices 1 2 3 4 5 6 
#
# 1 4.8393 10.9820 11.6981 0.0000 0.0000 0.0000
# 2 10.9820 203.9521 111.7694 0.0000 0.0000 0.0000
# 3 11.6981 111.7694 210.1862 0.0000 0.0000 0.0000
# 4 0.0000 0.0000 0.0000 39.5796 0.0000 0.0000
# 5 0.0000 0.0000 0.0000 0.0000 23.9836 0.0000
# 6 0.0000 0.0000 0.0000 0.0000 0.0000 5.8708
#
#
#
# Elastic Compliance Matrix: (Units=1/GPa)
#
#
# Indices 1 2 3 4 5 6 
#
# 1 0.248058 -0.008173 -0.009460 0.000000 0.000000 0.000000
# 2 -0.008173 0.007189 -0.003368 0.000000 0.000000 0.000000
# 3 -0.009460 -0.003368 0.007075 0.000000 0.000000 0.000000
# 4 0.000000 0.000000 0.000000 0.025266 0.000000 0.000000
# 5 0.000000 0.000000 0.000000 0.000000 0.041695 0.000000
# 6 0.000000 0.000000 0.000000 0.000000 0.000000 0.170334
#
#
# Mechanical properties :
#
#
# Convention : Reuss Voigt Hill
#
# Bulk Modulus (GPa) = 4.53884 76.43074 40.48479
# Shear Modulus (GPa) = 8.12932 32.85535 20.49234
#
# Velocity S-wave (km/s) = 2.06589 4.15320 3.28002
# Velocity P-wave (km/s) = 2.84138 7.94513 5.96651
#
# Compressibility (1/GPa) = 0.22032076
#
# Stress axis : x y z
#
# Youngs Moduli (GPa) = 4.03132 139.10431 141.34020
#
# Poissons Ratio (x) = 1.13685 1.33708
# Poissons Ratio (y) = 0.03295 0.47602
# Poissons Ratio (z) = 0.03814 0.46849
#
# Static dielectric constant tensor:
#      x y z
#    x 2.718640 0.000000 0.000000 
#    y 0.000000 3.596580 0.000000 
#    z 0.000000 0.000000 3.716490 
# 
# 
# High freq. dielectric constant tensor:
#      x y z
#    x 1.659510 0.000000 0.000000 
#    y 0.000000 1.756460 0.000000 
#    z 0.000000 0.000000 1.761230 
# 
# From -- ./inp_files/40971.got.cif
#   From: 2010.03.12/outbox.cif.g09.slc.cpg/sg74_21_cif.got.tgz:40971.got - 2010.04.16 15:46:19.
