data_PCOD8298883
_publ_section_title
;
Structure prediction by ZEFSAII (Michael W. Deem and Ramdas Pophale) SiO2 
 PCOD8298883
Probable space group: I M M A
;
_chemical_formula_sum "Si O2"
_cell_formula_units_Z 88
_cell_length_a 9.361903
_cell_length_b 21.535862
_cell_length_c 24.300063
_cell_angle_alpha 90.000000
_cell_angle_beta 90.000000
_cell_angle_gamma 90.000000
_cell_volume 4899.297323
_symmetry_space_group_name_H-M "I M M A"
_symmetry_group_IT_number 74
_symmetry_cell_setting 'orthorhombic'
loop_
_space_group_symop_operation_xyz
x,y,z
-x,1/2-y,z
x,-y,-z
-x,1/2+y,-z
-x,-y,-z
x,1/2+y,-z
-x,y,z
x,1/2-y,z
1/2+x,1/2+y,1/2+z
1/2-x,-y,1/2+z
1/2+x,1/2-y,1/2-z
1/2-x,y,1/2-z
1/2-x,1/2-y,1/2-z
1/2+x,y,1/2-z
1/2-x,1/2+y,1/2+z
1/2+x,-y,1/2+z
loop_
_atom_site_type_symbol
_atom_site_label
_atom_site_fract_x
_atom_site_fract_y
_atom_site_fract_z
Si Si1 0.336486 0.610251 0.408853
Si Si2 0.337484 0.478166 0.441704
Si Si3 0.337468 0.182263 0.995816
Si Si4 0.333419 0.750000 0.692316
Si Si5 0.168714 0.845426 0.901476
Si Si6 0.834748 0.322020 0.802046
O O1 0.500000 0.631142 0.419052
O O2 0.324444 0.536285 0.400344
O O3 0.244670 0.630828 0.460897
O O4 0.274004 0.641970 0.354562
O O5 0.263926 0.500000 0.500000
O O6 0.500000 0.461619 0.456707
O O7 0.277494 0.417627 0.409106
O O8 0.500000 0.159812 0.004674
O O9 0.334482 0.250000 0.966496
O O10 0.257910 0.191767 0.053476
O O11 0.500000 0.750000 0.706946
O O12 0.250000 0.750000 0.750000
O O13 0.295214 0.812974 0.657388
O O14 0.000000 0.838272 0.912355
O O15 0.803862 0.250000 0.811693
O O16 0.750000 0.347926 0.750000
O O17 0.000000 0.336196 0.792178
#
# Coordination Sequence:
#
# PCOD8298883 Si02
#       6
#    16  16  16   8  16  16
#     4  10  19  33  53  76 104 139 178 215 253 314
#     4   9  16  29  53  81 106 135 172 218 263 310
#     4  11  22  32  47  77 112 141 169 215 271 314
#     4  10  22  38  60  82 106 144 187 234 277 324
#     4  10  19  35  57  80 103 136 182 220 264 324
#     4   9  18  32  50  71  96 131 172 213 254 296
#
# _framework density 17.961759000000001
#
# number of rings (size 3 to 8) (size 9 to 14) (size 15 to 20)
#    0.000    2.182    2.727    1.091    0.000    3.273 
#    0.000    4.545    0.000    0.000    0.000    0.000 
#    0.000    0.000    0.000    0.000    0.000    0.000 
#
# Total GULP energy -545201.555106 kJ/mol
# GULP energy per Si atom -12390.944434 kJ/mol
# Density = 1.792088 g / cm^3
# Si number density = 17.961759 Si / 1000 Ang^3
#
#
#
# Elastic Constant Matrix: (Units=GPa)
#
#
# Indices 1 2 3 4 5 6 
#
# 1 57.8496 30.7111 43.6704 0.0000 0.0000 0.0000
# 2 30.7111 108.2840 56.5994 0.0000 0.0000 0.0000
# 3 43.6704 56.5994 129.2101 0.0000 0.0000 0.0000
# 4 0.0000 0.0000 0.0000 17.7387 0.0000 0.0000
# 5 0.0000 0.0000 0.0000 0.0000 30.5053 0.0000
# 6 0.0000 0.0000 0.0000 0.0000 0.0000 11.9025
#
#
#
# Elastic Compliance Matrix: (Units=1/GPa)
#
#
# Indices 1 2 3 4 5 6 
#
# 1 0.024106 -0.003344 -0.006683 0.000000 0.000000 0.000000
# 2 -0.003344 0.012441 -0.004320 0.000000 0.000000 0.000000
# 3 -0.006683 -0.004320 0.011890 0.000000 0.000000 0.000000
# 4 0.000000 0.000000 0.000000 0.056374 0.000000 0.000000
# 5 0.000000 0.000000 0.000000 0.000000 0.032781 0.000000
# 6 0.000000 0.000000 0.000000 0.000000 0.000000 0.084016
#
#
# Mechanical properties :
#
#
# Convention : Reuss Voigt Hill
#
# Bulk Modulus (GPa) = 50.64536 61.92285 56.28410
# Shear Modulus (GPa) = 19.46415 22.98681 21.22548
#
# Velocity S-wave (km/s) = 3.29545 3.58126 3.44132
# Velocity P-wave (km/s) = 6.53738 7.18681 6.86977
#
# Compressibility (1/GPa) = 0.01974515
#
# Stress axis : x y z
#
# Youngs Moduli (GPa) = 41.48330 80.37817 84.10381
#
# Poissons Ratio (x) = 0.26878 0.56203
# Poissons Ratio (y) = 0.13872 0.36329
# Poissons Ratio (z) = 0.27722 0.34720
#
# Static dielectric constant tensor:
#      x y z
#    x 3.131090 0.000000 0.000000 
#    y 0.000000 3.515330 0.000000 
#    z 0.000000 0.000000 3.273320 
# 
# 
# High freq. dielectric constant tensor:
#      x y z
#    x 1.670040 0.000000 0.000000 
#    y 0.000000 1.705380 0.000000 
#    z 0.000000 0.000000 1.675090 
# 
# From -- ./inp_files/54501.got.cif
#   From: 2010.03.12/outbox.cif.g09.slc.cpg/sg74_28_cif.got.tgz:54501.got - 2010.04.16 15:46:19.
