data_PCOD8298840
_publ_section_title
;
Structure prediction by ZEFSAII (Michael W. Deem and Ramdas Pophale) SiO2 
 PCOD8298840
Probable space group: I M M A
;
_chemical_formula_sum "Si O2"
_cell_formula_units_Z 80
_cell_length_a 16.907037
_cell_length_b 9.456608
_cell_length_c 27.216226
_cell_angle_alpha 90.000000
_cell_angle_beta 90.000000
_cell_angle_gamma 90.000000
_cell_volume 4351.417886
_symmetry_space_group_name_H-M "I M M A"
_symmetry_group_IT_number 74
_symmetry_cell_setting 'orthorhombic'
loop_
_space_group_symop_operation_xyz
x,y,z
-x,1/2-y,z
x,-y,-z
-x,1/2+y,-z
-x,-y,-z
x,1/2+y,-z
-x,y,z
x,1/2-y,z
1/2+x,1/2+y,1/2+z
1/2-x,-y,1/2+z
1/2+x,1/2-y,1/2-z
1/2-x,y,1/2-z
1/2-x,1/2-y,1/2-z
1/2+x,y,1/2-z
1/2-x,1/2+y,1/2+z
1/2+x,-y,1/2+z
loop_
_atom_site_type_symbol
_atom_site_label
_atom_site_fract_x
_atom_site_fract_y
_atom_site_fract_z
Si Si1 0.589802 0.589374 0.695941
Si Si2 0.645024 0.419550 0.788273
Si Si3 0.000000 0.958864 0.555427
Si Si4 0.673871 0.595888 0.951924
Si Si5 0.255559 0.912692 0.646054
Si Si6 0.000000 0.907051 0.348244
O O1 0.500000 0.553834 0.679390
O O2 0.594564 0.750000 0.717043
O O3 0.619119 0.476622 0.735661
O O4 0.648697 0.576234 0.648966
O O5 0.656911 0.250000 0.786238
O O6 0.724513 0.492488 0.808366
O O7 0.578858 0.476233 0.826538
O O8 0.917688 0.878186 0.564672
O O9 0.000000 0.000000 0.500000
O O10 0.000000 0.091417 0.592644
O O11 0.708718 0.750000 0.965088
O O12 0.724032 0.529473 0.906639
O O13 0.682218 0.500000 0.000000
O O14 0.227434 0.750000 0.652573
O O15 0.000000 0.750000 0.327854
#
# Coordination Sequence:
#
# PCOD8298840 Si02
#       6
#    16  16   8  16  16   8
#     4  10  21  37  56  77 104 140 178 219 263 311
#     4  11  21  35  54  79 109 143 178 215 260 309
#     4  10  19  33  51  74 100 140 174 211 246 306
#     4  10  21  35  53  77 104 135 171 214 258 309
#     4  10  21  37  55  78 106 138 178 218 260 313
#     4  10  20  33  50  74 110 146 173 211 257 304
#
# _framework density 18.384812
#
# number of rings (size 3 to 8) (size 9 to 14) (size 15 to 20)
#    0.000    1.800    3.000    1.500    0.000    7.200 
#    0.000    0.000    0.000    0.600    0.000    0.000 
#    0.000    0.000    0.000    0.000    0.000    0.000 
#
# Total GULP energy -495532.870947 kJ/mol
# GULP energy per Si atom -12388.321774 kJ/mol
# Density = 1.834297 g / cm^3
# Si number density = 18.384812 Si / 1000 Ang^3
#
#
#
# Elastic Constant Matrix: (Units=GPa)
#
#
# Indices 1 2 3 4 5 6 
#
# 1 131.3342 32.6211 62.2005 0.0000 0.0000 0.0000
# 2 32.6211 75.7566 31.5106 0.0000 0.0000 0.0000
# 3 62.2005 31.5106 100.0616 0.0000 0.0000 0.0000
# 4 0.0000 0.0000 0.0000 24.0984 0.0000 0.0000
# 5 0.0000 0.0000 0.0000 0.0000 19.0899 0.0000
# 6 0.0000 0.0000 0.0000 0.0000 0.0000 15.8677
#
#
#
# Elastic Compliance Matrix: (Units=1/GPa)
#
#
# Indices 1 2 3 4 5 6 
#
# 1 0.011100 -0.002198 -0.006208 0.000000 0.000000 0.000000
# 2 -0.002198 0.015625 -0.003554 0.000000 0.000000 0.000000
# 3 -0.006208 -0.003554 0.014972 0.000000 0.000000 0.000000
# 4 0.000000 0.000000 0.000000 0.041497 0.000000 0.000000
# 5 0.000000 0.000000 0.000000 0.000000 0.052384 0.000000
# 6 0.000000 0.000000 0.000000 0.000000 0.000000 0.063021
#
#
# Mechanical properties :
#
#
# Convention : Reuss Voigt Hill
#
# Bulk Modulus (GPa) = 56.25183 62.20191 59.22687
# Shear Modulus (GPa) = 21.88716 23.86588 22.87652
#
# Velocity S-wave (km/s) = 3.45411 3.60687 3.53131
# Velocity P-wave (km/s) = 6.82431 7.15910 6.99371
#
# Compressibility (1/GPa) = 0.01777720
#
# Stress axis : x y z
#
# Youngs Moduli (GPa) = 90.08869 64.00047 66.79025
#
# Poissons Ratio (x) = 0.14064 0.41464
# Poissons Ratio (y) = 0.19798 0.23740
# Poissons Ratio (z) = 0.55928 0.22748
#
# Static dielectric constant tensor:
#      x y z
#    x 3.811930 0.000000 0.000000 
#    y 0.000000 3.034050 0.000000 
#    z 0.000000 0.000000 3.223260 
# 
# 
# High freq. dielectric constant tensor:
#      x y z
#    x 1.713500 0.000000 0.000000 
#    y 0.000000 1.706010 0.000000 
#    z 0.000000 0.000000 1.694040 
# 
# From -- ./inp_files/64031.got.cif
#   From: 2010.03.12/outbox.cif.g09.slc.cpg/sg74_33_cif.got.tgz:64031.got - 2010.04.16 15:46:19.
