data_PCOD8298150
_publ_section_title
;
Structure prediction by ZEFSAII (Michael W. Deem and Ramdas Pophale) SiO2 
 PCOD8298150
Probable space group: I M M A
;
_chemical_formula_sum "Si O2"
_cell_formula_units_Z 96
_cell_length_a 9.216044
_cell_length_b 22.977051
_cell_length_c 26.048289
_cell_angle_alpha 90.000000
_cell_angle_beta 90.000000
_cell_angle_gamma 90.000000
_cell_volume 5515.920897
_symmetry_space_group_name_H-M "I M M A"
_symmetry_group_IT_number 74
_symmetry_cell_setting 'orthorhombic'
loop_
_space_group_symop_operation_xyz
x,y,z
-x,1/2-y,z
x,-y,-z
-x,1/2+y,-z
-x,-y,-z
x,1/2+y,-z
-x,y,z
x,1/2-y,z
1/2+x,1/2+y,1/2+z
1/2-x,-y,1/2+z
1/2+x,1/2-y,1/2-z
1/2-x,y,1/2-z
1/2-x,1/2-y,1/2-z
1/2+x,y,1/2-z
1/2-x,1/2+y,1/2+z
1/2+x,-y,1/2+z
loop_
_atom_site_type_symbol
_atom_site_label
_atom_site_fract_x
_atom_site_fract_y
_atom_site_fract_z
Si Si1 0.667132 0.318684 0.302125
Si Si2 0.832550 0.571696 0.145410
Si Si3 0.161778 0.104958 0.380007
Si Si4 0.829333 0.015191 0.057234
Si Si5 0.168482 0.314783 0.801801
Si Si6 0.656606 0.987267 0.793115
O O1 0.500000 0.340623 0.298514
O O2 0.672690 0.250000 0.309201
O O3 0.750000 0.337290 0.250000
O O4 0.744667 0.344551 0.352815
O O5 0.785794 0.541444 0.091673
O O6 0.800453 0.641058 0.150192
O O7 0.743223 0.545030 0.192301
O O8 0.000000 0.557767 0.154837
O O9 0.000000 0.127801 0.396595
O O10 0.248051 0.075288 0.427226
O O11 0.138231 0.053568 0.340833
O O12 0.000000 0.028118 0.060776
O O13 0.779792 0.000000 0.000000
O O14 0.217249 0.250000 0.819524
O O15 0.250000 0.333750 0.750000
O O16 0.000000 0.315965 0.787765
O O17 0.500000 0.005056 0.771077
O O18 0.750000 0.953572 0.750000
#
# Coordination Sequence:
#
# PCOD8298150 Si02
#       6
#    16  16  16  16  16  16
#     4  10  20  33  50  73 102 135 168 200 235 281
#     4   9  17  29  45  64  86 115 150 186 227 274
#     4  10  20  32  48  70  95 125 160 198 240 287
#     4   9  18  33  52  71  92 120 155 199 249 295
#     4   9  17  28  42  62  89 119 149 179 212 256
#     4  10  19  28  40  62  91 120 149 183 225 272
#
# _framework density 17.404166
#
# number of rings (size 3 to 8) (size 9 to 14) (size 15 to 20)
#    0.000    2.500    0.000    2.500    0.000    6.667 
#    0.000    0.000    0.000    1.000    0.000    4.667 
#    0.000    0.000    0.000    0.000    0.000    0.000 
#
# Total GULP energy -594738.613396 kJ/mol
# GULP energy per Si atom -12390.387779 kJ/mol
# Density = 1.736455 g / cm^3
# Si number density = 17.404166 Si / 1000 Ang^3
#
#
#
# Elastic Constant Matrix: (Units=GPa)
#
#
# Indices 1 2 3 4 5 6 
#
# 1 100.5712 31.1264 41.6790 0.0000 0.0000 0.0000
# 2 31.1264 70.6079 29.3752 0.0000 0.0000 0.0000
# 3 41.6790 29.3752 83.8325 0.0000 0.0000 0.0000
# 4 0.0000 0.0000 0.0000 24.6895 0.0000 0.0000
# 5 0.0000 0.0000 0.0000 0.0000 22.1948 0.0000
# 6 0.0000 0.0000 0.0000 0.0000 0.0000 33.7497
#
#
#
# Elastic Compliance Matrix: (Units=1/GPa)
#
#
# Indices 1 2 3 4 5 6 
#
# 1 0.013276 -0.003637 -0.005326 0.000000 0.000000 0.000000
# 2 -0.003637 0.017576 -0.004351 0.000000 0.000000 0.000000
# 3 -0.005326 -0.004351 0.016101 0.000000 0.000000 0.000000
# 4 0.000000 0.000000 0.000000 0.040503 0.000000 0.000000
# 5 0.000000 0.000000 0.000000 0.000000 0.045056 0.000000
# 6 0.000000 0.000000 0.000000 0.000000 0.000000 0.029630
#
#
# Mechanical properties :
#
#
# Convention : Reuss Voigt Hill
#
# Bulk Modulus (GPa) = 49.19790 51.04144 50.11967
# Shear Modulus (GPa) = 25.56975 26.31554 25.94264
#
# Velocity S-wave (km/s) = 3.83714 3.89270 3.86502
# Velocity P-wave (km/s) = 6.92537 7.04237 6.98411
#
# Compressibility (1/GPa) = 0.02032607
#
# Stress axis : x y z
#
# Youngs Moduli (GPa) = 75.32380 56.89615 62.10793
#
# Poissons Ratio (x) = 0.20691 0.33079
# Poissons Ratio (y) = 0.27393 0.27021
# Poissons Ratio (z) = 0.40118 0.24753
#
# Static dielectric constant tensor:
#      x y z
#    x 3.730140 0.000000 0.000000 
#    y 0.000000 3.307620 0.000000 
#    z 0.000000 0.000000 3.131090 
# 
# 
# High freq. dielectric constant tensor:
#      x y z
#    x 1.684610 0.000000 0.000000 
#    y 0.000000 1.665670 0.000000 
#    z 0.000000 0.000000 1.636990 
# 
# From -- ./inp_files/64311.got.cif
#   From: 2010.03.12/outbox.cif.g09.slc.cpg/sg74_33_cif.got.tgz:64311.got - 2010.04.16 15:46:19.
