data_PCOD8298226
_publ_section_title
;
Structure prediction by ZEFSAII (Michael W. Deem and Ramdas Pophale) SiO2 
 PCOD8298226
Probable space group: I M M A
;
_chemical_formula_sum "Si O2"
_cell_formula_units_Z 112
_cell_length_a 15.468243
_cell_length_b 26.511484
_cell_length_c 14.206875
_cell_angle_alpha 90.000000
_cell_angle_beta 90.000000
_cell_angle_gamma 90.000000
_cell_volume 5826.041632
_symmetry_space_group_name_H-M "I M M A"
_symmetry_group_IT_number 74
_symmetry_cell_setting 'orthorhombic'
loop_
_space_group_symop_operation_xyz
x,y,z
-x,1/2-y,z
x,-y,-z
-x,1/2+y,-z
-x,-y,-z
x,1/2+y,-z
-x,y,z
x,1/2-y,z
1/2+x,1/2+y,1/2+z
1/2-x,-y,1/2+z
1/2+x,1/2-y,1/2-z
1/2-x,y,1/2-z
1/2-x,1/2-y,1/2-z
1/2+x,y,1/2-z
1/2-x,1/2+y,1/2+z
1/2+x,-y,1/2+z
loop_
_atom_site_type_symbol
_atom_site_label
_atom_site_fract_x
_atom_site_fract_y
_atom_site_fract_z
Si Si1 0.601381 0.846440 0.664521
Si Si2 0.593218 0.462002 0.707084
Si Si3 0.666750 0.448913 0.394899
Si Si4 0.595325 0.809249 0.873050
Si Si5 0.209774 0.404073 0.912771
Si Si6 0.234855 0.307985 0.018963
Si Si7 0.662512 0.487667 0.899708
O O1 0.500000 0.848639 0.634913
O O2 0.644661 0.901628 0.671513
O O3 0.613725 0.821879 0.765480
O O4 0.654692 0.812356 0.590706
O O5 0.500000 0.437061 0.698691
O O6 0.601453 0.506264 0.629868
O O7 0.660016 0.416537 0.684950
O O8 0.600534 0.487596 0.810119
O O9 0.655572 0.430155 0.502068
O O10 0.763077 0.470938 0.378837
O O11 0.500000 0.831093 0.903756
O O12 0.593328 0.750000 0.884104
O O13 0.675418 0.829133 0.935591
O O14 0.302499 0.430561 0.907892
O O15 0.218295 0.343999 0.928606
O O16 0.242473 0.250000 0.985525
O O17 0.615796 0.500000 0.000000
#
# Coordination Sequence:
#
# PCOD8298226 Si02
#       7
#    16  16  16  16  16  16  16
#     4  10  19  29  45  73 109 146 182 223 269 320
#     4  11  21  33  53  78 106 138 170 212 266 322
#     4   9  18  32  51  74 104 141 178 210 245 302
#     4   9  18  32  48  69 102 144 187 229 276 328
#     4   9  19  34  53  74 102 138 176 215 260 314
#     4  10  20  33  51  74 100 137 184 232 279 323
#     4   9  19  36  55  74  98 133 171 212 262 317
#
# _framework density 19.224031
#
# number of rings (size 3 to 8) (size 9 to 14) (size 15 to 20)
#    0.000    2.429    0.000    4.286    0.000   11.429 
#    0.000    0.714    0.000    1.714    0.000    0.000 
#    0.000    0.000    0.000    0.000    0.000    0.000 
#
# Total GULP energy -693817.926191 kJ/mol
# GULP energy per Si atom -12389.605825 kJ/mol
# Density = 1.918028 g / cm^3
# Si number density = 19.224031 Si / 1000 Ang^3
#
#
#
# Elastic Constant Matrix: (Units=GPa)
#
#
# Indices 1 2 3 4 5 6 
#
# 1 66.4394 20.4454 16.5855 0.0000 0.0000 0.0000
# 2 20.4454 73.9586 11.3134 0.0000 0.0000 -0.0001
# 3 16.5855 11.3134 50.8834 0.0002 0.0001 -0.0001
# 4 0.0000 0.0000 0.0002 28.9851 0.0000 -0.0001
# 5 0.0000 0.0000 0.0001 0.0000 -0.1921 0.0000
# 6 0.0000 -0.0001 -0.0001 -0.0001 0.0000 11.1398
#
#
#
# Elastic Compliance Matrix: (Units=1/GPa)
#
#
# Indices 1 2 3 4 5 6 
#
# 1 0.017512 -0.004108 -0.004795 0.000000 0.000001 0.000000
# 2 -0.004108 0.014961 -0.001987 0.000000 0.000000 0.000000
# 3 -0.004795 -0.001987 0.021658 0.000000 0.000005 0.000000
# 4 0.000000 0.000000 0.000000 0.034500 0.000005 0.000000
# 5 0.000001 0.000000 0.000005 0.000005 -5.205786 0.000008
# 6 0.000000 0.000000 0.000000 0.000000 0.000008 0.089768
#
#
# Mechanical properties :
#
#
# Convention : Reuss Voigt Hill
#
# Bulk Modulus (GPa) = 30.91139 31.99666 31.45402
# Shear Modulus (GPa) = -1.00104 17.51572 8.25734
#
# Velocity S-wave (km/s) = -0.72239 3.02178 2.07476
# Velocity P-wave (km/s) = 3.92666 5.37169 4.70498
#
# Compressibility (1/GPa) = 0.03235053
#
# Stress axis : x y z
#
# Youngs Moduli (GPa) = 57.10265 66.84205 46.17328
#
# Poissons Ratio (x) = 0.27457 0.22139
# Poissons Ratio (y) = 0.23456 0.09177
# Poissons Ratio (z) = 0.27380 0.13284
#
# Static dielectric constant tensor:
#      x y z
#    x 3.643430 0.000000 0.000000 
#    y 0.000000 3.489770 0.000000 
#    z 0.000000 0.000000 3.493390 
# 
# 
# High freq. dielectric constant tensor:
#      x y z
#    x 1.737770 0.000000 0.000000 
#    y 0.000000 1.734090 0.000000 
#    z 0.000000 0.000000 1.725470 
# 
# From -- ./inp_files/32976.got.cif
#   From: 2010.03.12/outbox.cif.g09.slc.cpg/sg74_17_cif.got.tgz:32976.got - 2010.04.16 15:46:19.
