data_PCOD8298541
_publ_section_title
;
Structure prediction by ZEFSAII (Michael W. Deem and Ramdas Pophale) SiO2 
 PCOD8298541
Probable space group: I M M A
;
_chemical_formula_sum "Si O2"
_cell_formula_units_Z 56
_cell_length_a 9.546978
_cell_length_b 8.019298
_cell_length_c 38.736420
_cell_angle_alpha 90.000000
_cell_angle_beta 90.000000
_cell_angle_gamma 90.000000
_cell_volume 2965.662701
_symmetry_space_group_name_H-M "I M M A"
_symmetry_group_IT_number 74
_symmetry_cell_setting 'orthorhombic'
loop_
_space_group_symop_operation_xyz
x,y,z
-x,1/2-y,z
x,-y,-z
-x,1/2+y,-z
-x,-y,-z
x,1/2+y,-z
-x,y,z
x,1/2-y,z
1/2+x,1/2+y,1/2+z
1/2-x,-y,1/2+z
1/2+x,1/2-y,1/2-z
1/2-x,y,1/2-z
1/2-x,1/2-y,1/2-z
1/2+x,y,1/2-z
1/2-x,1/2+y,1/2+z
1/2+x,-y,1/2+z
loop_
_atom_site_type_symbol
_atom_site_label
_atom_site_fract_x
_atom_site_fract_y
_atom_site_fract_z
Si Si1 0.835149 0.750000 0.784946
Si Si2 0.339012 0.063046 0.668601
Si Si3 0.661048 0.939702 0.891683
Si Si4 0.834121 0.436409 0.535931
O O1 0.750000 0.750000 0.750000
O O2 0.790234 0.581235 0.805039
O O3 0.000000 0.750000 0.776889
O O4 0.500000 0.032241 0.658709
O O5 0.317981 0.250000 0.684475
O O6 0.250650 0.054720 0.633546
O O7 0.500000 0.998633 0.889291
O O8 0.678857 0.750000 0.879780
O O9 0.715708 0.956378 0.931103
O O10 0.766225 0.500000 0.500000
O O11 0.782371 0.250000 0.542465
O O12 0.000000 0.448078 0.532502
#
# Coordination Sequence:
#
# PCOD8298541 Si02
#       4
#     8  16  16  16
#     4  10  22  40  60  84 114 144 178 220 268 324
#     4  10  21  38  59  82 110 146 183 218 266 326
#     4  10  19  31  51  79 108 140 182 230 275 320
#     4   9  16  26  41  65 100 139 178 223 275 324
#
# _framework density 18.882795000000002
#
# number of rings (size 3 to 8) (size 9 to 14) (size 15 to 20)
#    0.000    2.286    1.429    1.714    0.000    6.857 
#    0.000    0.000    0.000    0.857    0.000    0.000 
#    0.000    0.000    0.000    0.000    0.000    0.000 
#
# Total GULP energy -347109.798336 kJ/mol
# GULP energy per Si atom -12396.778512 kJ/mol
# Density = 1.883982 g / cm^3
# Si number density = 18.882795 Si / 1000 Ang^3
#
#
#
# Elastic Constant Matrix: (Units=GPa)
#
#
# Indices 1 2 3 4 5 6 
#
# 1 38.7746 28.8348 47.5973 0.0000 0.0000 0.0000
# 2 28.8348 122.1369 60.5089 0.0000 0.0000 0.0000
# 3 47.5973 60.5089 133.1991 0.0000 0.0000 0.0000
# 4 0.0000 0.0000 0.0000 28.8752 0.0000 0.0000
# 5 0.0000 0.0000 0.0000 0.0000 19.3878 0.0000
# 6 0.0000 0.0000 0.0000 0.0000 0.0000 18.5817
#
#
#
# Elastic Compliance Matrix: (Units=1/GPa)
#
#
# Indices 1 2 3 4 5 6 
#
# 1 0.047133 -0.003592 -0.015211 0.000000 0.000000 0.000000
# 2 -0.003592 0.010839 -0.003640 0.000000 0.000000 0.000000
# 3 -0.015211 -0.003640 0.014597 0.000000 0.000000 0.000000
# 4 0.000000 0.000000 0.000000 0.034632 0.000000 0.000000
# 5 0.000000 0.000000 0.000000 0.000000 0.051579 0.000000
# 6 0.000000 0.000000 0.000000 0.000000 0.000000 0.053816
#
#
# Mechanical properties :
#
#
# Convention : Reuss Voigt Hill
#
# Bulk Modulus (GPa) = 36.12357 63.11029 49.61693
# Shear Modulus (GPa) = 18.74700 23.84690 21.29695
#
# Velocity S-wave (km/s) = 3.15430 3.55757 3.36199
# Velocity P-wave (km/s) = 5.69545 7.09717 6.43459
#
# Compressibility (1/GPa) = 0.02768276
#
# Stress axis : x y z
#
# Youngs Moduli (GPa) = 21.21660 92.25925 68.50848
#
# Poissons Ratio (x) = 0.33137 1.04207
# Poissons Ratio (y) = 0.07620 0.24940
# Poissons Ratio (z) = 0.32272 0.33586
#
# Static dielectric constant tensor:
#      x y z
#    x 3.070880 0.000000 0.000000 
#    y 0.000000 3.697020 0.000000 
#    z 0.000000 0.000000 3.431850 
# 
# 
# High freq. dielectric constant tensor:
#      x y z
#    x 1.686990 0.000000 0.000000 
#    y 0.000000 1.750390 0.000000 
#    z 0.000000 0.000000 1.732000 
# 
# From -- ./inp_files/69657.got.cif
#   From: 2010.03.12/outbox.cif.g09.slc.cpg/sg74_35_cif.got.tgz:69657.got - 2010.04.16 15:46:19.
