data_PCOD8298684
_publ_section_title
;
Structure prediction by ZEFSAII (Michael W. Deem and Ramdas Pophale) SiO2 
 PCOD8298684
Probable space group: I M M A
;
_chemical_formula_sum "Si O2"
_cell_formula_units_Z 104
_cell_length_a 25.923835
_cell_length_b 8.980750
_cell_length_c 21.589437
_cell_angle_alpha 90.000000
_cell_angle_beta 90.000000
_cell_angle_gamma 90.000000
_cell_volume 5026.355163
_symmetry_space_group_name_H-M "I M M A"
_symmetry_group_IT_number 74
_symmetry_cell_setting 'orthorhombic'
loop_
_space_group_symop_operation_xyz
x,y,z
-x,1/2-y,z
x,-y,-z
-x,1/2+y,-z
-x,-y,-z
x,1/2+y,-z
-x,y,z
x,1/2-y,z
1/2+x,1/2+y,1/2+z
1/2-x,-y,1/2+z
1/2+x,1/2-y,1/2-z
1/2-x,y,1/2-z
1/2-x,1/2-y,1/2-z
1/2+x,y,1/2-z
1/2-x,1/2+y,1/2+z
1/2+x,-y,1/2+z
loop_
_atom_site_type_symbol
_atom_site_label
_atom_site_fract_x
_atom_site_fract_y
_atom_site_fract_z
Si Si1 0.107200 0.081071 0.374855
Si Si2 0.122663 0.918997 0.938465
Si Si3 0.640629 0.422864 0.752969
Si Si4 0.000000 0.572030 0.567378
Si Si5 0.441267 0.583264 0.677551
Si Si6 0.791135 0.926999 0.140841
Si Si7 0.210176 0.078881 0.436589
O O1 0.098191 0.250000 0.354481
O O2 0.051350 0.016048 0.395746
O O3 0.148043 0.067830 0.430986
O O4 0.135779 0.001648 0.318384
O O5 0.140774 0.750000 0.951395
O O6 0.073060 0.922307 0.894410
O O7 0.169631 0.009745 0.909469
O O8 0.104355 0.000000 0.000000
O O9 0.643950 0.250000 0.766683
O O10 0.589518 0.459398 0.714756
O O11 0.690266 0.471979 0.710792
O O12 0.000000 0.500000 0.500000
O O13 0.000000 0.750000 0.559623
O O14 0.500000 0.539626 0.685801
O O15 0.429904 0.750000 0.703637
O O16 0.787730 0.750000 0.135187
O O17 0.736066 0.999195 0.123516
O O18 0.228192 0.250000 0.438671
O O19 0.227797 0.000000 0.500000
#
# Coordination Sequence:
#
# PCOD8298684 Si02
#       7
#    16  16  16   8  16  16  16
#     4  10  23  41  62  89 121 157 195 237 293 355
#     4  10  19  32  51  76 107 145 190 237 289 347
#     4  10  22  38  58  86 117 150 194 243 292 343
#     4  10  22  42  66  92 122 158 197 240 293 350
#     4   9  19  35  54  75 105 147 190 236 290 349
#     4  10  21  38  58  82 115 154 193 239 291 345
#     4  11  23  39  61  89 119 154 196 242 291 349
#
# _framework density 20.690937000000002
#
# number of rings (size 3 to 8) (size 9 to 14) (size 15 to 20)
#    0.000    2.000    0.000    2.769    1.077    5.538 
#    0.000    3.077    0.000    0.000    0.000    0.000 
#    0.000    0.000    0.000    0.000    0.000    0.000 
#
# Total GULP energy -644621.953002 kJ/mol
# GULP energy per Si atom -12396.576019 kJ/mol
# Density = 2.064384 g / cm^3
# Si number density = 20.690937 Si / 1000 Ang^3
#
#
#
# Elastic Constant Matrix: (Units=GPa)
#
#
# Indices 1 2 3 4 5 6 
#
# 1 101.5124 36.0259 37.5068 0.0000 0.0000 0.0000
# 2 36.0259 90.3766 46.5352 0.0000 0.0000 0.0000
# 3 37.5068 46.5352 108.9038 0.0000 0.0000 0.0000
# 4 0.0000 0.0000 0.0000 37.6315 0.0000 0.0000
# 5 0.0000 0.0000 0.0000 0.0000 6.4761 0.0000
# 6 0.0000 0.0000 0.0000 0.0000 0.0000 23.5415
#
#
#
# Elastic Compliance Matrix: (Units=1/GPa)
#
#
# Indices 1 2 3 4 5 6 
#
# 1 0.012060 -0.003421 -0.002691 0.000000 0.000000 0.000000
# 2 -0.003421 0.015157 -0.005298 0.000000 0.000000 0.000000
# 3 -0.002691 -0.005298 0.012373 0.000000 0.000000 0.000000
# 4 0.000000 0.000000 0.000000 0.026573 0.000000 0.000000
# 5 0.000000 0.000000 0.000000 0.000000 0.154415 0.000000
# 6 0.000000 0.000000 0.000000 0.000000 0.000000 0.042478
#
#
# Mechanical properties :
#
#
# Convention : Reuss Voigt Hill
#
# Bulk Modulus (GPa) = 59.63864 60.10316 59.87090
# Shear Modulus (GPa) = 17.15459 25.57814 21.36636
#
# Velocity S-wave (km/s) = 2.88251 3.51978 3.21696
# Velocity P-wave (km/s) = 6.32176 6.75497 6.54195
#
# Compressibility (1/GPa) = 0.01676765
#
# Stress axis : x y z
#
# Youngs Moduli (GPa) = 82.92105 65.97735 80.81923
#
# Poissons Ratio (x) = 0.22574 0.21752
# Poissons Ratio (y) = 0.28371 0.42820
# Poissons Ratio (z) = 0.22317 0.34956
#
# Static dielectric constant tensor:
#      x y z
#    x 3.813900 0.000000 0.000000 
#    y 0.000000 3.745810 0.000000 
#    z 0.000000 0.000000 3.686740 
# 
# 
# High freq. dielectric constant tensor:
#      x y z
#    x 1.812210 0.000000 0.000000 
#    y 0.000000 1.808040 0.000000 
#    z 0.000000 0.000000 1.809450 
# 
# From -- ./inp_files/49240.got.cif
#   From: 2010.03.12/outbox.cif.g09.slc.cpg/sg74_25_cif.got.tgz:49240.got - 2010.04.16 15:46:19.
