data_PCOD8298205
_publ_section_title
;
Structure prediction by ZEFSAII (Michael W. Deem and Ramdas Pophale) SiO2 
 PCOD8298205
Probable space group: I M M A
;
_chemical_formula_sum "Si O2"
_cell_formula_units_Z 64
_cell_length_a 13.255690
_cell_length_b 13.611330
_cell_length_c 21.593835
_cell_angle_alpha 90.000000
_cell_angle_beta 90.000000
_cell_angle_gamma 90.000000
_cell_volume 3896.123197
_symmetry_space_group_name_H-M "I M M A"
_symmetry_group_IT_number 74
_symmetry_cell_setting 'orthorhombic'
loop_
_space_group_symop_operation_xyz
x,y,z
-x,1/2-y,z
x,-y,-z
-x,1/2+y,-z
-x,-y,-z
x,1/2+y,-z
-x,y,z
x,1/2-y,z
1/2+x,1/2+y,1/2+z
1/2-x,-y,1/2+z
1/2+x,1/2-y,1/2-z
1/2-x,y,1/2-z
1/2-x,1/2-y,1/2-z
1/2+x,y,1/2-z
1/2-x,1/2+y,1/2+z
1/2+x,-y,1/2+z
loop_
_atom_site_type_symbol
_atom_site_label
_atom_site_fract_x
_atom_site_fract_y
_atom_site_fract_z
Si Si1 0.262890 0.634988 0.178816
Si Si2 0.710543 0.635653 0.985774
Si Si3 0.385490 0.478396 0.910155
Si Si4 0.111300 0.634655 0.073477
O O1 0.287104 0.750000 0.170191
O O2 0.250000 0.607152 0.250000
O O3 0.357054 0.570564 0.155244
O O4 0.165561 0.603680 0.137841
O O5 0.701640 0.750000 0.969639
O O6 0.687720 0.571827 0.924391
O O7 0.627399 0.605033 0.036958
O O8 0.820448 0.606903 0.013789
O O9 0.500000 0.515014 0.907593
O O10 0.097542 0.750000 0.074431
O O11 0.000000 0.584751 0.069041
#
# Coordination Sequence:
#
# PCOD8298205 Si02
#       4
#    16  16  16  16
#     4   9  18  31  45  63  89 118 148 184 222 261
#     4   9  17  29  44  65  93 118 143 181 226 269
#     4  10  19  29  44  67  91 116 149 184 220 268
#     4   8  14  26  44  64  86 113 144 177 216 264
#
# _framework density 16.426584999999999
#
# number of rings (size 3 to 8) (size 9 to 14) (size 15 to 20)
#    0.000    3.000    0.000    3.750    0.000    4.500 
#    0.000   12.500    0.000    0.750    0.000    0.000 
#    0.000    0.000    0.000    0.000    0.000    0.000 
#
# Total GULP energy -396510.969602 kJ/mol
# GULP energy per Si atom -12390.967800 kJ/mol
# Density = 1.638920 g / cm^3
# Si number density = 16.426585 Si / 1000 Ang^3
#
#
#
# Elastic Constant Matrix: (Units=GPa)
#
#
# Indices 1 2 3 4 5 6 
#
# 1 127.5377 30.0085 42.7935 0.0000 0.0000 0.0000
# 2 30.0085 76.5847 41.6472 0.0000 0.0000 0.0000
# 3 42.7935 41.6472 86.2717 0.0000 0.0000 0.0000
# 4 0.0000 0.0000 0.0000 26.2424 0.0000 0.0000
# 5 0.0000 0.0000 0.0000 0.0000 12.5678 0.0000
# 6 0.0000 0.0000 0.0000 0.0000 0.0000 18.9195
#
#
#
# Elastic Compliance Matrix: (Units=1/GPa)
#
#
# Indices 1 2 3 4 5 6 
#
# 1 0.009545 -0.001580 -0.003972 0.000000 0.000000 0.000000
# 2 -0.001580 0.017967 -0.007890 0.000000 0.000000 0.000000
# 3 -0.003972 -0.007890 0.017370 0.000000 0.000000 0.000000
# 4 0.000000 0.000000 0.000000 0.038106 0.000000 0.000000
# 5 0.000000 0.000000 0.000000 0.000000 0.079568 0.000000
# 6 0.000000 0.000000 0.000000 0.000000 0.000000 0.052855
#
#
# Mechanical properties :
#
#
# Convention : Reuss Voigt Hill
#
# Bulk Modulus (GPa) = 55.55887 57.69919 56.62903
# Shear Modulus (GPa) = 20.13724 23.27560 21.70642
#
# Velocity S-wave (km/s) = 3.50507 3.76832 3.63908
# Velocity P-wave (km/s) = 7.09061 7.35768 7.22537
#
# Compressibility (1/GPa) = 0.01799893
#
# Stress axis : x y z
#
# Youngs Moduli (GPa) = 104.76288 55.65738 57.56981
#
# Poissons Ratio (x) = 0.08795 0.22867
# Poissons Ratio (y) = 0.16555 0.45421
# Poissons Ratio (z) = 0.41611 0.43912
#
# Static dielectric constant tensor:
#      x y z
#    x 3.413900 0.000000 0.000000 
#    y 0.000000 2.976800 0.000000 
#    z 0.000000 0.000000 2.931370 
# 
# 
# High freq. dielectric constant tensor:
#      x y z
#    x 1.633110 0.000000 0.000000 
#    y 0.000000 1.611420 0.000000 
#    z 0.000000 0.000000 1.602340 
# 
# From -- ./inp_files/42410.got.cif
#   From: 2010.03.12/outbox.cif.g09.slc.cpg/sg74_22_cif.got.tgz:42410.got - 2010.04.16 15:46:19.
