data_PCOD8298696
_publ_section_title
;
Structure prediction by ZEFSAII (Michael W. Deem and Ramdas Pophale) SiO2 
 PCOD8298696
Probable space group: I M M A
;
_chemical_formula_sum "Si O2"
_cell_formula_units_Z 80
_cell_length_a 10.037859
_cell_length_b 21.042433
_cell_length_c 20.267840
_cell_angle_alpha 90.000000
_cell_angle_beta 90.000000
_cell_angle_gamma 90.000000
_cell_volume 4280.992935
_symmetry_space_group_name_H-M "I M M A"
_symmetry_group_IT_number 74
_symmetry_cell_setting 'orthorhombic'
loop_
_space_group_symop_operation_xyz
x,y,z
-x,1/2-y,z
x,-y,-z
-x,1/2+y,-z
-x,-y,-z
x,1/2+y,-z
-x,y,z
x,1/2-y,z
1/2+x,1/2+y,1/2+z
1/2-x,-y,1/2+z
1/2+x,1/2-y,1/2-z
1/2-x,y,1/2-z
1/2-x,1/2-y,1/2-z
1/2+x,y,1/2-z
1/2-x,1/2+y,1/2+z
1/2+x,-y,1/2+z
loop_
_atom_site_type_symbol
_atom_site_label
_atom_site_fract_x
_atom_site_fract_y
_atom_site_fract_z
Si Si1 0.152291 0.006168 0.130122
Si Si2 0.250000 0.082467 0.250000
Si Si3 0.646184 0.679663 0.849194
Si Si4 0.839749 0.750000 0.185064
Si Si5 0.342192 0.125182 0.449099
Si Si6 0.657494 0.629995 0.400545
O O1 0.167111 0.036786 0.202038
O O2 0.203278 0.054058 0.072939
O O3 0.000000 0.992919 0.115098
O O4 0.221934 0.936670 0.125502
O O5 0.347396 0.127516 0.208569
O O6 0.500000 0.671605 0.882246
O O7 0.660259 0.750000 0.818006
O O8 0.761788 0.673786 0.903462
O O9 0.750000 0.750000 0.250000
O O10 0.792705 0.688463 0.143625
O O11 0.000000 0.750000 0.199836
O O12 0.500000 0.135269 0.437321
O O13 0.298828 0.138858 0.523709
O O14 0.500000 0.628574 0.396364
#
# Coordination Sequence:
#
# PCOD8298696 Si02
#       6
#    16   8  16   8  16  16
#     4   9  17  30  51  78 104 132 173 219 260 305
#     4  10  19  32  52  73 102 142 184 210 252 309
#     4  10  21  35  51  75 112 146 173 212 260 308
#     4  10  22  38  56  78 108 139 176 219 262 313
#     4   9  18  33  56  82 104 133 175 218 258 310
#     4   9  18  33  55  79 104 135 172 218 265 310
#
# _framework density 18.687255
#
# number of rings (size 3 to 8) (size 9 to 14) (size 15 to 20)
#    0.000    2.600    0.000    1.500    2.800    3.600 
#    0.000    1.000    0.000   10.800    0.000    0.000 
#    0.000    0.000    0.000    0.000    0.000    0.000 
#
# Total GULP energy -495671.927673 kJ/mol
# GULP energy per Si atom -12391.798192 kJ/mol
# Density = 1.864472 g / cm^3
# Si number density = 18.687255 Si / 1000 Ang^3
#
#
#
# Elastic Constant Matrix: (Units=GPa)
#
#
# Indices 1 2 3 4 5 6 
#
# 1 50.4870 34.4644 32.9878 0.0000 0.0000 0.0000
# 2 34.4644 129.3342 66.2367 0.0000 0.0000 0.0000
# 3 32.9878 66.2367 138.5836 0.0000 0.0000 0.0000
# 4 0.0000 0.0000 0.0000 17.6945 0.0000 0.0000
# 5 0.0000 0.0000 0.0000 0.0000 27.0416 0.0000
# 6 0.0000 0.0000 0.0000 0.0000 0.0000 13.1168
#
#
#
# Elastic Compliance Matrix: (Units=1/GPa)
#
#
# Indices 1 2 3 4 5 6 
#
# 1 0.025605 -0.004901 -0.003752 0.000000 0.000000 0.000000
# 2 -0.004901 0.011176 -0.004175 0.000000 0.000000 0.000000
# 3 -0.003752 -0.004175 0.010104 0.000000 0.000000 0.000000
# 4 0.000000 0.000000 0.000000 0.056515 0.000000 0.000000
# 5 0.000000 0.000000 0.000000 0.000000 0.036980 0.000000
# 6 0.000000 0.000000 0.000000 0.000000 0.000000 0.076238
#
#
# Mechanical properties :
#
#
# Convention : Reuss Voigt Hill
#
# Bulk Modulus (GPa) = 47.10729 65.08696 56.09713
# Shear Modulus (GPa) = 20.05205 23.88498 21.96851
#
# Velocity S-wave (km/s) = 3.27927 3.57899 3.43240
# Velocity P-wave (km/s) = 6.29294 7.21000 6.76702
#
# Compressibility (1/GPa) = 0.02122814
#
# Stress axis : x y z
#
# Youngs Moduli (GPa) = 39.05553 89.47610 98.96603
#
# Poissons Ratio (x) = 0.43855 0.37134
# Poissons Ratio (y) = 0.19143 0.41318
# Poissons Ratio (z) = 0.14654 0.37356
#
# Static dielectric constant tensor:
#      x y z
#    x 3.094660 0.000000 0.000000 
#    y 0.000000 3.876320 0.000000 
#    z 0.000000 0.000000 3.415750 
# 
# 
# High freq. dielectric constant tensor:
#      x y z
#    x 1.683630 0.000000 0.000000 
#    y 0.000000 1.743570 0.000000 
#    z 0.000000 0.000000 1.721210 
# 
# From -- ./inp_files/45080.got.cif
#   From: 2010.03.12/outbox.cif.g09.slc.cpg/sg74_23_cif.got.tgz:45080.got - 2010.04.16 15:46:19.
