data_PCOD8298234
_publ_section_title
;
Structure prediction by ZEFSAII (Michael W. Deem and Ramdas Pophale) SiO2 
 PCOD8298234
Probable space group: I M M A
;
_chemical_formula_sum "Si O2"
_cell_formula_units_Z 96
_cell_length_a 32.120429
_cell_length_b 8.895849
_cell_length_c 26.822822
_cell_angle_alpha 90.000000
_cell_angle_beta 90.000000
_cell_angle_gamma 90.000000
_cell_volume 7664.312554
_symmetry_space_group_name_H-M "I M M A"
_symmetry_group_IT_number 74
_symmetry_cell_setting 'orthorhombic'
loop_
_space_group_symop_operation_xyz
x,y,z
-x,1/2-y,z
x,-y,-z
-x,1/2+y,-z
-x,-y,-z
x,1/2+y,-z
-x,y,z
x,1/2-y,z
1/2+x,1/2+y,1/2+z
1/2-x,-y,1/2+z
1/2+x,1/2-y,1/2-z
1/2-x,y,1/2-z
1/2-x,1/2-y,1/2-z
1/2+x,y,1/2-z
1/2-x,1/2+y,1/2+z
1/2+x,-y,1/2+z
loop_
_atom_site_type_symbol
_atom_site_label
_atom_site_fract_x
_atom_site_fract_y
_atom_site_fract_z
Si Si1 0.196816 0.428912 0.552886
Si Si2 0.380249 0.429073 0.107605
Si Si3 0.951867 0.425047 0.552328
Si Si4 0.835605 0.584350 0.703528
Si Si5 0.291074 0.082252 0.716448
Si Si6 0.754494 0.417500 0.363929
O O1 0.207754 0.500000 0.500000
O O2 0.194033 0.250000 0.549577
O O3 0.152747 0.493693 0.570962
O O4 0.234237 0.475827 0.589761
O O5 0.377382 0.250000 0.100320
O O6 0.425823 0.492025 0.095264
O O7 0.371151 0.473635 0.165310
O O8 0.940138 0.500000 0.500000
O O9 0.940342 0.250000 0.549632
O O10 0.000000 0.450368 0.565505
O O11 0.846861 0.750000 0.723504
O O12 0.830333 0.477951 0.751488
O O13 0.793193 0.591039 0.672876
O O14 0.301827 0.250000 0.699539
O O15 0.250000 0.078178 0.750000
O O16 0.284675 0.984522 0.666485
O O17 0.743142 0.250000 0.382917
#
# Coordination Sequence:
#
# PCOD8298234 Si02
#       6
#    16  16  16  16  16  16
#     4  11  20  29  39  51  68  88 112 140 171 205
#     4  10  19  30  42  55  70  87 108 135 170 208
#     4  10  20  32  44  56  69  86 109 137 170 208
#     4   8  15  25  36  50  67  86 105 128 160 197
#     4   9  15  22  34  51  68  86 107 130 157 191
#     4   9  16  26  37  49  66  87 110 134 162 195
#
# _framework density 12.525585
#
# number of rings (size 3 to 8) (size 9 to 14) (size 15 to 20)
#    0.000    2.500    0.000    5.000    0.000    7.667 
#    0.000    0.000    0.000    0.000    0.000    0.000 
#    0.000    0.000    0.000    0.000    0.000    0.000 
#
# Total GULP energy -595044.274007 kJ/mol
# GULP energy per Si atom -12396.755708 kJ/mol
# Density = 1.249708 g / cm^3
# Si number density = 12.525585 Si / 1000 Ang^3
#
#
#
# Elastic Constant Matrix: (Units=GPa)
#
#
# Indices 1 2 3 4 5 6 
#
# 1 44.0589 31.7790 37.8967 0.0000 0.0000 0.0000
# 2 31.7790 101.1815 39.5498 0.0000 0.0000 0.0000
# 3 37.8967 39.5498 58.5069 0.0000 0.0000 0.0000
# 4 0.0000 0.0000 0.0000 21.7861 0.0000 0.0000
# 5 0.0000 0.0000 0.0000 0.0000 21.7295 0.0000
# 6 0.0000 0.0000 0.0000 0.0000 0.0000 15.8566
#
#
#
# Elastic Compliance Matrix: (Units=1/GPa)
#
#
# Indices 1 2 3 4 5 6 
#
# 1 0.052626 -0.004355 -0.031143 0.000000 0.000000 0.000000
# 2 -0.004355 0.013793 -0.006503 0.000000 0.000000 0.000000
# 3 -0.031143 -0.006503 0.041660 0.000000 0.000000 0.000000
# 4 0.000000 0.000000 0.000000 0.045901 0.000000 0.000000
# 5 0.000000 0.000000 0.000000 0.000000 0.046020 0.000000
# 6 0.000000 0.000000 0.000000 0.000000 0.000000 0.063065
#
#
# Mechanical properties :
#
#
# Convention : Reuss Voigt Hill
#
# Bulk Modulus (GPa) = 41.53459 46.91092 44.22276
# Shear Modulus (GPa) = 14.08082 18.17588 16.12835
#
# Velocity S-wave (km/s) = 3.35649 3.81346 3.59225
# Velocity P-wave (km/s) = 6.94645 7.54476 7.25178
#
# Compressibility (1/GPa) = 0.02407632
#
# Stress axis : x y z
#
# Youngs Moduli (GPa) = 19.00213 72.50080 24.00379
#
# Poissons Ratio (x) = 0.31577 0.74755
# Poissons Ratio (y) = 0.08276 0.15609
# Poissons Ratio (z) = 0.59178 0.47145
#
# Static dielectric constant tensor:
#      x y z
#    x 2.305850 0.000000 0.000000 
#    y 0.000000 2.771240 0.000000 
#    z 0.000000 0.000000 2.551150 
# 
# 
# High freq. dielectric constant tensor:
#      x y z
#    x 1.422120 0.000000 0.000000 
#    y 0.000000 1.497050 0.000000 
#    z 0.000000 0.000000 1.457320 
# 
# From -- ./inp_files/64929.got.cif
#   From: 2010.03.12/outbox.cif.g09.slc.cpg/sg74_33_cif.got.tgz:64929.got - 2010.04.16 15:46:19.
