data_PCOD8299495
_publ_section_title
;
Structure prediction by ZEFSAII (Michael W. Deem and Ramdas Pophale) SiO2 
 PCOD8299495
Probable space group: I M M A
;
_chemical_formula_sum "Si O2"
_cell_formula_units_Z 80
_cell_length_a 8.882645
_cell_length_b 26.855520
_cell_length_c 18.759409
_cell_angle_alpha 90.000000
_cell_angle_beta 90.000000
_cell_angle_gamma 90.000000
_cell_volume 4475.020445
_symmetry_space_group_name_H-M "I M M A"
_symmetry_group_IT_number 74
_symmetry_cell_setting 'orthorhombic'
loop_
_space_group_symop_operation_xyz
x,y,z
-x,1/2-y,z
x,-y,-z
-x,1/2+y,-z
-x,-y,-z
x,1/2+y,-z
-x,y,z
x,1/2-y,z
1/2+x,1/2+y,1/2+z
1/2-x,-y,1/2+z
1/2+x,1/2-y,1/2-z
1/2-x,y,1/2-z
1/2-x,1/2-y,1/2-z
1/2+x,y,1/2-z
1/2-x,1/2+y,1/2+z
1/2+x,-y,1/2+z
loop_
_atom_site_type_symbol
_atom_site_label
_atom_site_fract_x
_atom_site_fract_y
_atom_site_fract_z
Si Si1 0.824764 0.806916 0.105114
Si Si2 0.179378 0.101406 0.676022
Si Si3 0.675073 0.950962 0.035127
Si Si4 0.323405 0.806859 0.820543
Si Si5 0.675686 0.847481 0.969368
O O1 0.795536 0.750000 0.128356
O O2 0.734070 0.842672 0.158653
O O3 0.000000 0.820589 0.109332
O O4 0.768526 0.814004 0.024343
O O5 0.250000 0.082695 0.750000
O O6 0.237159 0.063728 0.613771
O O7 0.000000 0.102261 0.680989
O O8 0.500000 0.961782 0.044617
O O9 0.705743 0.905652 0.981665
O O10 0.752985 0.000000 0.000000
O O11 0.500000 0.811449 0.812018
O O12 0.270546 0.750000 0.829069
O O13 0.250000 0.830893 0.750000
O O14 0.266660 0.836223 0.889954
O O15 0.500000 0.833992 0.979145
#
# Coordination Sequence:
#
# PCOD8299495 Si02
#       5
#    16  16  16  16  16
#     4  10  20  32  48  72 100 129 161 198 240 288
#     4  10  20  34  53  74  99 131 163 199 240 284
#     4   8  15  30  52  74  93 119 157 196 236 282
#     4   9  17  28  42  62  90 123 157 192 231 277
#     4   9  17  30  49  70  93 125 163 201 240 286
#
# _framework density 17.877013999999999
#
# number of rings (size 3 to 8) (size 9 to 14) (size 15 to 20)
#    0.000    2.800    0.000    3.000    0.000    3.600 
#    0.000    3.000    0.000   15.000    0.000    0.000 
#    0.000    0.000    0.000    0.000    0.000    0.000 
#
# Total GULP energy -495884.408466 kJ/mol
# GULP energy per Si atom -12397.110212 kJ/mol
# Density = 1.783632 g / cm^3
# Si number density = 17.877014 Si / 1000 Ang^3
#
#
#
# Elastic Constant Matrix: (Units=GPa)
#
#
# Indices 1 2 3 4 5 6 
#
# 1 49.9633 27.9633 31.5604 0.0000 0.0000 0.0000
# 2 27.9633 92.0545 58.0091 0.0000 0.0000 0.0000
# 3 31.5604 58.0091 157.2742 -0.0001 -0.0001 0.0000
# 4 0.0000 0.0000 -0.0001 19.7893 0.0000 0.0000
# 5 0.0000 0.0000 -0.0001 0.0000 32.5319 0.0000
# 6 0.0000 0.0000 0.0000 0.0000 0.0000 13.7717
#
#
#
# Elastic Compliance Matrix: (Units=1/GPa)
#
#
# Indices 1 2 3 4 5 6 
#
# 1 0.025088 -0.005796 -0.002897 0.000000 0.000000 0.000000
# 2 -0.005796 0.015491 -0.004551 0.000000 0.000000 0.000000
# 3 -0.002897 -0.004551 0.008618 0.000000 0.000000 0.000000
# 4 0.000000 0.000000 0.000000 0.050532 0.000000 0.000000
# 5 0.000000 0.000000 0.000000 0.000000 0.030739 0.000000
# 6 0.000000 0.000000 0.000000 0.000000 0.000000 0.072612
#
#
# Mechanical properties :
#
#
# Convention : Reuss Voigt Hill
#
# Bulk Modulus (GPa) = 44.03098 59.37308 51.70203
# Shear Modulus (GPa) = 21.08471 25.33585 23.21028
#
# Velocity S-wave (km/s) = 3.43801 3.76870 3.60715
# Velocity P-wave (km/s) = 6.35950 7.22644 6.80679
#
# Compressibility (1/GPa) = 0.02271128
#
# Stress axis : x y z
#
# Youngs Moduli (GPa) = 39.85937 64.55186 116.03377
#
# Poissons Ratio (x) = 0.37411 0.33613
# Poissons Ratio (y) = 0.23101 0.52805
# Poissons Ratio (z) = 0.11547 0.29377
#
# Static dielectric constant tensor:
#      x y z
#    x 3.133370 0.000000 0.000000 
#    y 0.000000 3.332020 0.000000 
#    z 0.000000 0.000000 3.552450 
# 
# 
# High freq. dielectric constant tensor:
#      x y z
#    x 1.673220 0.000000 0.000000 
#    y 0.000000 1.674390 0.000000 
#    z 0.000000 0.000000 1.699380 
# 
# From -- ./inp_files/39718.got.cif
#   From: 2010.03.12/outbox.cif.g09.slc.cpg/sg74_20_cif.got.tgz:39718.got - 2010.04.16 15:46:19.
