data_PCOD8299453
_publ_section_title
;
Structure prediction by ZEFSAII (Michael W. Deem and Ramdas Pophale) SiO2 
 PCOD8299453
Probable space group: I M M A
;
_chemical_formula_sum "Si O2"
_cell_formula_units_Z 88
_cell_length_a 19.268855
_cell_length_b 9.075312
_cell_length_c 27.086859
_cell_angle_alpha 90.000000
_cell_angle_beta 90.000000
_cell_angle_gamma 90.000000
_cell_volume 4736.702626
_symmetry_space_group_name_H-M "I M M A"
_symmetry_group_IT_number 74
_symmetry_cell_setting 'orthorhombic'
loop_
_space_group_symop_operation_xyz
x,y,z
-x,1/2-y,z
x,-y,-z
-x,1/2+y,-z
-x,-y,-z
x,1/2+y,-z
-x,y,z
x,1/2-y,z
1/2+x,1/2+y,1/2+z
1/2-x,-y,1/2+z
1/2+x,1/2-y,1/2-z
1/2-x,y,1/2-z
1/2-x,1/2-y,1/2-z
1/2+x,y,1/2-z
1/2-x,1/2+y,1/2+z
1/2+x,-y,1/2+z
loop_
_atom_site_type_symbol
_atom_site_label
_atom_site_fract_x
_atom_site_fract_y
_atom_site_fract_z
Si Si1 0.579750 0.422954 0.274067
Si Si2 0.718930 0.083615 0.549046
Si Si3 0.677626 0.574575 0.341744
Si Si4 0.688939 0.077514 0.190759
Si Si5 0.358011 0.082102 0.902424
Si Si6 0.000000 0.580599 0.449806
O O1 0.500000 0.465808 0.261587
O O2 0.585936 0.250000 0.284618
O O3 0.603994 0.512031 0.322877
O O4 0.630725 0.473056 0.229948
O O5 0.694318 0.250000 0.541403
O O6 0.687067 0.023834 0.601018
O O7 0.802476 0.070861 0.553116
O O8 0.692600 0.000000 0.500000
O O9 0.681517 0.750000 0.337849
O O10 0.737272 0.507090 0.305367
O O11 0.704810 0.250000 0.195600
O O12 0.658250 0.039165 0.137945
O O13 0.356058 0.250000 0.881055
O O14 0.433057 0.034033 0.919703
O O15 0.000000 0.500000 0.500000
O O16 0.000000 0.750000 0.462644
#
# Coordination Sequence:
#
# PCOD8299453 Si02
#       6
#    16  16  16  16  16   8
#     4  10  22  38  55  79 111 142 177 222 266 315
#     4   9  18  32  51  75 102 130 168 216 262 310
#     4  10  21  37  56  81 111 140 176 221 264 316
#     4  10  20  34  55  79 105 141 181 220 264 313
#     4   9  19  33  47  70 104 137 175 223 266 311
#     4  10  20  32  46  66  98 140 182 226 273 318
#
# _framework density 18.578323999999999
#
# number of rings (size 3 to 8) (size 9 to 14) (size 15 to 20)
#    0.000    2.364    0.000    3.273    1.273    8.364 
#    0.000    0.000    0.000    0.545    0.000    0.000 
#    0.000    0.000    0.000    0.000    0.000    0.000 
#
# Total GULP energy -545359.896484 kJ/mol
# GULP energy per Si atom -12394.543102 kJ/mol
# Density = 1.853604 g / cm^3
# Si number density = 18.578324 Si / 1000 Ang^3
#
#
#
# Elastic Constant Matrix: (Units=GPa)
#
#
# Indices 1 2 3 4 5 6 
#
# 1 87.2868 32.1539 45.9043 0.0000 0.0000 0.0000
# 2 32.1539 48.6249 35.6538 0.0000 0.0000 0.0000
# 3 45.9043 35.6538 86.5698 0.0000 0.0000 0.0000
# 4 0.0000 0.0000 0.0000 31.9748 0.0000 0.0000
# 5 0.0000 0.0000 0.0000 0.0000 37.9572 0.0000
# 6 0.0000 0.0000 0.0000 0.0000 0.0000 27.3509
#
#
#
# Elastic Compliance Matrix: (Units=1/GPa)
#
#
# Indices 1 2 3 4 5 6 
#
# 1 0.017309 -0.006756 -0.006396 0.000000 0.000000 0.000000
# 2 -0.006756 0.032100 -0.009638 0.000000 0.000000 0.000000
# 3 -0.006396 -0.009638 0.018912 0.000000 0.000000 0.000000
# 4 0.000000 0.000000 0.000000 0.031275 0.000000 0.000000
# 5 0.000000 0.000000 0.000000 0.000000 0.026345 0.000000
# 6 0.000000 0.000000 0.000000 0.000000 0.000000 0.036562
#
#
# Mechanical properties :
#
#
# Convention : Reuss Voigt Hill
#
# Bulk Modulus (GPa) = 43.97228 49.98951 46.98090
# Shear Modulus (GPa) = 23.18438 26.70790 24.94614
#
# Velocity S-wave (km/s) = 3.53643 3.79566 3.66834
# Velocity P-wave (km/s) = 6.35572 6.79524 6.57915
#
# Compressibility (1/GPa) = 0.02274160
#
# Stress axis : x y z
#
# Youngs Moduli (GPa) = 57.77451 31.15253 52.87638
#
# Poissons Ratio (x) = 0.21047 0.33817
# Poissons Ratio (y) = 0.39033 0.50962
# Poissons Ratio (z) = 0.36950 0.30025
#
# Static dielectric constant tensor:
#      x y z
#    x 3.641330 0.000000 0.000000 
#    y 0.000000 3.285800 0.000000 
#    z 0.000000 0.000000 3.352040 
# 
# 
# High freq. dielectric constant tensor:
#      x y z
#    x 1.709340 0.000000 0.000000 
#    y 0.000000 1.717820 0.000000 
#    z 0.000000 0.000000 1.716920 
# 
# From -- ./inp_files/61444.got.cif
#   From: 2010.03.12/outbox.cif.g09.slc.cpg/sg74_31_cif.got.tgz:61444.got - 2010.04.16 15:46:19.
