data_PCOD8299791
_publ_section_title
;
Structure prediction by ZEFSAII (Michael W. Deem and Ramdas Pophale) SiO2 
 PCOD8299791
Probable space group: I M M A
;
_chemical_formula_sum "Si O2"
_cell_formula_units_Z 96
_cell_length_a 18.552230
_cell_length_b 8.916571
_cell_length_c 32.755487
_cell_angle_alpha 90.000000
_cell_angle_beta 90.000000
_cell_angle_gamma 90.000000
_cell_volume 5418.487211
_symmetry_space_group_name_H-M "I M M A"
_symmetry_group_IT_number 74
_symmetry_cell_setting 'orthorhombic'
loop_
_space_group_symop_operation_xyz
x,y,z
-x,1/2-y,z
x,-y,-z
-x,1/2+y,-z
-x,-y,-z
x,1/2+y,-z
-x,y,z
x,1/2-y,z
1/2+x,1/2+y,1/2+z
1/2-x,-y,1/2+z
1/2+x,1/2-y,1/2-z
1/2-x,y,1/2-z
1/2-x,1/2-y,1/2-z
1/2+x,y,1/2-z
1/2-x,1/2+y,1/2+z
1/2+x,-y,1/2+z
loop_
_atom_site_type_symbol
_atom_site_label
_atom_site_fract_x
_atom_site_fract_y
_atom_site_fract_z
Si Si1 0.338193 0.573917 0.835427
Si Si2 0.721213 0.571492 0.957415
Si Si3 0.078666 0.074368 0.415371
Si Si4 0.918707 0.076165 0.827074
Si Si5 0.712898 0.425131 0.618873
Si Si6 0.418772 0.427403 0.244586
O O1 0.318852 0.750000 0.835399
O O2 0.399770 0.539494 0.868830
O O3 0.267032 0.480694 0.845956
O O4 0.367458 0.516807 0.791939
O O5 0.724956 0.750000 0.959797
O O6 0.640619 0.512932 0.945781
O O7 0.776632 0.516276 0.922944
O O8 0.744741 0.500000 0.000000
O O9 0.072630 0.250000 0.422102
O O10 0.000000 0.000327 0.424503
O O11 0.916129 0.250000 0.815821
O O12 0.867949 0.041086 0.865659
O O13 0.000000 0.024656 0.838378
O O14 0.889211 0.989150 0.787404
O O15 0.725729 0.250000 0.610537
O O16 0.500000 0.486950 0.237038
O O17 0.418032 0.250000 0.246080
#
# Coordination Sequence:
#
# PCOD8299791 Si02
#       6
#    16  16  16  16  16  16
#     4   9  17  29  46  69  99 133 167 203 239 275
#     4  10  20  34  53  75  99 126 156 193 237 286
#     4   8  14  26  45  68  95 129 165 197 229 265
#     4   9  19  35  52  70  94 125 159 197 244 293
#     4  10  20  34  52  72  95 124 159 198 240 289
#     4   9  17  29  47  71  98 131 170 207 240 276
#
# _framework density 17.717123000000001
#
# number of rings (size 3 to 8) (size 9 to 14) (size 15 to 20)
#    0.000    2.833    0.000    2.500    0.000    5.000 
#    0.000    3.333    0.000   16.500    0.000    0.000 
#    0.000    0.000    0.000    0.000    0.000    0.000 
#
# Total GULP energy -595069.106449 kJ/mol
# GULP energy per Si atom -12397.273051 kJ/mol
# Density = 1.767680 g / cm^3
# Si number density = 17.717123 Si / 1000 Ang^3
#
#
#
# Elastic Constant Matrix: (Units=GPa)
#
#
# Indices 1 2 3 4 5 6 
#
# 1 84.7053 29.3091 63.3504 0.0000 0.0000 0.0000
# 2 29.3091 47.7364 38.9987 0.0000 0.0000 0.0000
# 3 63.3504 38.9987 126.6994 0.0000 0.0000 0.0000
# 4 0.0000 0.0000 0.0000 28.8308 0.0000 0.0000
# 5 0.0000 0.0000 0.0000 0.0000 14.3572 0.0000
# 6 0.0000 0.0000 0.0000 0.0000 0.0000 21.6023
#
#
#
# Elastic Compliance Matrix: (Units=1/GPa)
#
#
# Indices 1 2 3 4 5 6 
#
# 1 0.019866 -0.005454 -0.008254 0.000000 0.000000 0.000000
# 2 -0.005454 0.029483 -0.006348 0.000000 0.000000 0.000000
# 3 -0.008254 -0.006348 0.013974 0.000000 0.000000 0.000000
# 4 0.000000 0.000000 0.000000 0.034685 0.000000 0.000000
# 5 0.000000 0.000000 0.000000 0.000000 0.069652 0.000000
# 6 0.000000 0.000000 0.000000 0.000000 0.000000 0.046291
#
#
# Mechanical properties :
#
#
# Convention : Reuss Voigt Hill
#
# Bulk Modulus (GPa) = 43.08416 58.05085 50.56750
# Shear Modulus (GPa) = 19.09847 21.45690 20.27769
#
# Velocity S-wave (km/s) = 3.28680 3.48384 3.38675
# Velocity P-wave (km/s) = 6.22693 7.00138 6.62548
#
# Compressibility (1/GPa) = 0.02321039
#
# Stress axis : x y z
#
# Youngs Moduli (GPa) = 50.33676 33.91779 71.56172
#
# Poissons Ratio (x) = 0.18498 0.59070
# Poissons Ratio (y) = 0.27453 0.45428
# Poissons Ratio (z) = 0.41550 0.21531
#
# Static dielectric constant tensor:
#      x y z
#    x 3.419410 0.000000 0.000000 
#    y 0.000000 3.113380 0.000000 
#    z 0.000000 0.000000 3.233200 
# 
# 
# High freq. dielectric constant tensor:
#      x y z
#    x 1.675470 0.000000 0.000000 
#    y 0.000000 1.669690 0.000000 
#    z 0.000000 0.000000 1.678040 
# 
# From -- ./inp_files/68151.got.cif
#   From: 2010.03.12/outbox.cif.g09.slc.cpg/sg74_35_cif.got.tgz:68151.got - 2010.04.16 15:46:19.
