data_PCOD8299736
_publ_section_title
;
Structure prediction by ZEFSAII (Michael W. Deem and Ramdas Pophale) SiO2 
 PCOD8299736
Probable space group: I M M A
;
_chemical_formula_sum "Si O2"
_cell_formula_units_Z 120
_cell_length_a 25.465562
_cell_length_b 19.261048
_cell_length_c 12.516658
_cell_angle_alpha 90.000000
_cell_angle_beta 90.000000
_cell_angle_gamma 90.000000
_cell_volume 6139.338290
_symmetry_space_group_name_H-M "I M M A"
_symmetry_group_IT_number 74
_symmetry_cell_setting 'orthorhombic'
loop_
_space_group_symop_operation_xyz
x,y,z
-x,1/2-y,z
x,-y,-z
-x,1/2+y,-z
-x,-y,-z
x,1/2+y,-z
-x,y,z
x,1/2-y,z
1/2+x,1/2+y,1/2+z
1/2-x,-y,1/2+z
1/2+x,1/2-y,1/2-z
1/2-x,y,1/2-z
1/2-x,1/2-y,1/2-z
1/2+x,y,1/2-z
1/2-x,1/2+y,1/2+z
1/2+x,-y,1/2+z
loop_
_atom_site_type_symbol
_atom_site_label
_atom_site_fract_x
_atom_site_fract_y
_atom_site_fract_z
Si Si1 0.750000 0.132141 0.250000
Si Si2 0.903962 0.168907 0.864191
Si Si3 0.874056 0.078199 0.488620
Si Si4 0.133564 0.171310 0.282955
Si Si5 0.941461 0.829652 0.358257
Si Si6 0.286426 0.668422 0.345686
Si Si7 0.746294 0.425599 0.023072
Si Si8 0.440959 0.332316 0.410255
O O1 0.803948 0.176152 0.257865
O O2 0.753367 0.083104 0.148334
O O3 0.905020 0.250000 0.886466
O O4 0.942101 0.148271 0.766741
O O5 0.846216 0.147009 0.823734
O O6 0.922327 0.134216 0.976090
O O7 0.881285 0.115214 0.373643
O O8 0.901742 0.124146 0.576780
O O9 0.813278 0.074928 0.517387
O O10 0.897633 0.000000 0.500000
O O11 0.116678 0.250000 0.316621
O O12 0.100571 0.145168 0.180453
O O13 0.922629 0.750000 0.368579
O O14 0.000000 0.839332 0.404011
O O15 0.277415 0.750000 0.357413
O O16 0.250000 0.638707 0.250000
O O17 0.273720 0.636336 0.460414
O O18 0.772538 0.500000 0.000000
O O19 0.500000 0.359438 0.383652
O O20 0.441881 0.250000 0.418259
#
# Coordination Sequence:
#
# PCOD8299736 Si02
#       8
#     8  16  16  16  16  16  16  16
#     4  10  21  36  54  82 115 148 186 232 289 342
#     4   9  17  31  52  81 113 142 174 221 281 335
#     4  10  22  39  55  77 111 148 186 228 280 337
#     4  10  20  35  58  84 112 145 187 235 285 338
#     4  10  20  35  58  85 109 140 187 236 281 334
#     4  10  20  33  54  84 114 147 187 233 282 335
#     4  10  22  37  55  80 112 152 190 229 274 339
#     4   9  17  30  51  79 110 141 176 224 277 330
#
# _framework density 19.54608
#
# number of rings (size 3 to 8) (size 9 to 14) (size 15 to 20)
#    0.000    2.267    0.000    2.600    0.933    7.733 
#    2.400    1.333    0.000    0.000    0.000    1.867 
#    0.000    0.000    0.000    0.000    0.000    0.000 
#
# Total GULP energy -743673.821740 kJ/mol
# GULP energy per Si atom -12394.563696 kJ/mol
# Density = 1.950159 g / cm^3
# Si number density = 19.546080 Si / 1000 Ang^3
#
#
#
# Elastic Constant Matrix: (Units=GPa)
#
#
# Indices 1 2 3 4 5 6 
#
# 1 81.3047 26.4086 48.3028 0.0000 0.0000 0.0000
# 2 26.4086 77.8695 47.8773 0.0000 0.0000 0.0000
# 3 48.3028 47.8773 117.0099 0.0000 0.0000 0.0000
# 4 0.0000 0.0000 0.0000 18.0489 0.0000 0.0000
# 5 0.0000 0.0000 0.0000 0.0000 28.3941 0.0000
# 6 0.0000 0.0000 0.0000 0.0000 0.0000 8.1391
#
#
#
# Elastic Compliance Matrix: (Units=1/GPa)
#
#
# Indices 1 2 3 4 5 6 
#
# 1 0.016500 -0.001881 -0.006042 0.000000 0.000000 0.000000
# 2 -0.001881 0.017373 -0.006332 0.000000 0.000000 0.000000
# 3 -0.006042 -0.006332 0.013631 0.000000 0.000000 0.000000
# 4 0.000000 0.000000 0.000000 0.055405 0.000000 0.000000
# 5 0.000000 0.000000 0.000000 0.000000 0.035219 0.000000
# 6 0.000000 0.000000 0.000000 0.000000 0.000000 0.122864
#
#
# Mechanical properties :
#
#
# Convention : Reuss Voigt Hill
#
# Bulk Modulus (GPa) = 52.64657 57.92905 55.28781
# Shear Modulus (GPa) = 16.90148 21.15613 19.02881
#
# Velocity S-wave (km/s) = 2.94377 3.29351 3.12354
# Velocity P-wave (km/s) = 6.20866 6.64564 6.43086
#
# Compressibility (1/GPa) = 0.01899459
#
# Stress axis : x y z
#
# Youngs Moduli (GPa) = 60.60736 57.55996 73.36108
#
# Poissons Ratio (x) = 0.10828 0.44321
# Poissons Ratio (y) = 0.11401 0.46453
# Poissons Ratio (z) = 0.36616 0.36448
#
# Static dielectric constant tensor:
#      x y z
#    x 3.720360 0.000000 0.000000 
#    y 0.000000 3.357980 0.000000 
#    z 0.000000 0.000000 3.661610 
# 
# 
# High freq. dielectric constant tensor:
#      x y z
#    x 1.763820 0.000000 0.000000 
#    y 0.000000 1.723250 0.000000 
#    z 0.000000 0.000000 1.771300 
# 
# From -- ./inp_files/26532.got.cif
#   From: 2010.03.12/outbox.cif.g09.slc.cpg/sg74_14_cif.got.tgz:26532.got - 2010.04.16 15:46:19.
