data_PCOD8299619
_publ_section_title
;
Structure prediction by ZEFSAII (Michael W. Deem and Ramdas Pophale) SiO2 
 PCOD8299619
Probable space group: I M M A
;
_chemical_formula_sum "Si O2"
_cell_formula_units_Z 96
_cell_length_a 8.991916
_cell_length_b 28.404579
_cell_length_c 20.730565
_cell_angle_alpha 90.000000
_cell_angle_beta 90.000000
_cell_angle_gamma 90.000000
_cell_volume 5294.826535
_symmetry_space_group_name_H-M "I M M A"
_symmetry_group_IT_number 74
_symmetry_cell_setting 'orthorhombic'
loop_
_space_group_symop_operation_xyz
x,y,z
-x,1/2-y,z
x,-y,-z
-x,1/2+y,-z
-x,-y,-z
x,1/2+y,-z
-x,y,z
x,1/2-y,z
1/2+x,1/2+y,1/2+z
1/2-x,-y,1/2+z
1/2+x,1/2-y,1/2-z
1/2-x,y,1/2-z
1/2-x,1/2-y,1/2-z
1/2+x,y,1/2-z
1/2-x,1/2+y,1/2+z
1/2+x,-y,1/2+z
loop_
_atom_site_type_symbol
_atom_site_label
_atom_site_fract_x
_atom_site_fract_y
_atom_site_fract_z
Si Si1 0.322225 0.634731 0.048983
Si Si2 0.833203 0.471738 0.687350
Si Si3 0.172600 0.036621 0.942854
Si Si4 0.667931 0.806048 0.813237
Si Si5 0.162867 0.860037 0.310197
Si Si6 0.670094 0.805795 0.558352
O O1 0.500000 0.629716 0.046918
O O2 0.251756 0.584229 0.033827
O O3 0.268403 0.652592 0.119861
O O4 0.266291 0.673076 0.999014
O O5 0.750000 0.493437 0.750000
O O6 0.744916 0.484694 0.622137
O O7 0.842001 0.416022 0.695268
O O8 0.000000 0.492846 0.683410
O O9 0.000000 0.046913 0.928954
O O10 0.195279 0.000000 0.000000
O O11 0.500000 0.825918 0.816053
O O12 0.665018 0.750000 0.811145
O O13 0.750000 0.826113 0.750000
O O14 0.759618 0.823992 0.874875
O O15 0.250000 0.837605 0.250000
O O16 0.000000 0.838023 0.305213
O O17 0.500000 0.823169 0.554693
O O18 0.680503 0.750000 0.553150
#
# Coordination Sequence:
#
# PCOD8299619 Si02
#       6
#    16  16  16  16  16  16
#     4  10  20  33  50  73 100 130 164 202 246 294
#     4   9  16  27  45  69  96 125 160 202 244 286
#     4  10  20  33  50  73 101 132 165 202 245 293
#     4   9  16  27  45  69  96 125 159 200 242 284
#     4   8  15  26  42  66  92 119 153 194 237 279
#     4  10  20  33  50  73 100 130 164 202 245 293
#
# _framework density 18.130904000000001
#
# number of rings (size 3 to 8) (size 9 to 14) (size 15 to 20)
#    0.000    2.667    0.000    3.500    0.000    9.000 
#    0.000    0.000    0.000    1.500    0.000    2.333 
#    0.000    0.000    0.000    0.000    0.000    0.000 
#
# Total GULP energy -595045.461335 kJ/mol
# GULP energy per Si atom -12396.780444 kJ/mol
# Density = 1.808964 g / cm^3
# Si number density = 18.130904 Si / 1000 Ang^3
#
#
#
# Elastic Constant Matrix: (Units=GPa)
#
#
# Indices 1 2 3 4 5 6 
#
# 1 134.8965 24.1925 75.0559 0.0000 0.0000 0.0000
# 2 24.1925 18.3975 29.5052 0.0000 0.0000 0.0000
# 3 75.0559 29.5052 161.6171 0.0002 0.0000 0.0000
# 4 0.0000 0.0000 0.0002 18.9512 0.0000 0.0000
# 5 0.0000 0.0000 0.0000 0.0000 39.4390 0.0000
# 6 0.0000 0.0000 0.0000 0.0000 0.0000 17.1434
#
#
#
# Elastic Compliance Matrix: (Units=1/GPa)
#
#
# Indices 1 2 3 4 5 6 
#
# 1 0.010919 -0.008804 -0.003464 0.000000 0.000000 0.000000
# 2 -0.008804 0.083956 -0.011239 0.000000 0.000000 0.000000
# 3 -0.003464 -0.011239 0.009848 0.000000 0.000000 0.000000
# 4 0.000000 0.000000 0.000000 0.052767 0.000000 0.000000
# 5 0.000000 0.000000 0.000000 0.000000 0.025356 0.000000
# 6 0.000000 0.000000 0.000000 0.000000 0.000000 0.058331
#
#
# Mechanical properties :
#
#
# Convention : Reuss Voigt Hill
#
# Bulk Modulus (GPa) = 17.32771 63.60203 40.46487
# Shear Modulus (GPa) = 16.26403 27.51721 21.89062
#
# Velocity S-wave (km/s) = 2.99830 3.89999 3.47849
# Velocity P-wave (km/s) = 4.64372 7.44549 6.20482
#
# Compressibility (1/GPa) = 0.05771102
#
# Stress axis : x y z
#
# Youngs Moduli (GPa) = 91.58234 11.91095 101.54544
#
# Poissons Ratio (x) = 0.10486 0.35172
# Poissons Ratio (y) = 0.80626 1.14125
# Poissons Ratio (z) = 0.31721 0.13386
#
# Static dielectric constant tensor:
#      x y z
#    x 3.658180 0.000000 0.000000 
#    y 0.000000 2.713820 0.000000 
#    z 0.000000 0.000000 3.651550 
# 
# 
# High freq. dielectric constant tensor:
#      x y z
#    x 1.720430 0.000000 0.000000 
#    y 0.000000 1.632430 0.000000 
#    z 0.000000 0.000000 1.722680 
# 
# From -- ./inp_files/49143.got.cif
#   From: 2010.03.12/outbox.cif.g09.slc.cpg/sg74_25_cif.got.tgz:49143.got - 2010.04.16 15:46:19.
