data_PCOD8299602
_publ_section_title
;
Structure prediction by ZEFSAII (Michael W. Deem and Ramdas Pophale) SiO2 
 PCOD8299602
Probable space group: I M M A
;
_chemical_formula_sum "Si O2"
_cell_formula_units_Z 96
_cell_length_a 13.965835
_cell_length_b 16.282921
_cell_length_c 24.546903
_cell_angle_alpha 90.000000
_cell_angle_beta 90.000000
_cell_angle_gamma 90.000000
_cell_volume 5582.078363
_symmetry_space_group_name_H-M "I M M A"
_symmetry_group_IT_number 74
_symmetry_cell_setting 'orthorhombic'
loop_
_space_group_symop_operation_xyz
x,y,z
-x,1/2-y,z
x,-y,-z
-x,1/2+y,-z
-x,-y,-z
x,1/2+y,-z
-x,y,z
x,1/2-y,z
1/2+x,1/2+y,1/2+z
1/2-x,-y,1/2+z
1/2+x,1/2-y,1/2-z
1/2-x,y,1/2-z
1/2-x,1/2-y,1/2-z
1/2+x,y,1/2-z
1/2-x,1/2+y,1/2+z
1/2+x,-y,1/2+z
loop_
_atom_site_type_symbol
_atom_site_label
_atom_site_fract_x
_atom_site_fract_y
_atom_site_fract_z
Si Si1 0.112997 0.250000 0.462394
Si Si2 0.886817 0.918799 0.706455
Si Si3 0.393788 0.841944 0.223844
Si Si4 0.392882 0.480474 0.691378
Si Si5 0.385695 0.250000 0.160390
Si Si6 0.889174 0.087735 0.528393
Si Si7 0.793669 0.554106 0.360710
O O1 0.156157 0.250000 0.401176
O O2 0.145838 0.334439 0.492187
O O3 0.000000 0.250000 0.458404
O O4 0.847240 0.828191 0.694029
O O5 0.000000 0.921114 0.707999
O O6 0.851674 0.951457 0.765591
O O7 0.857173 0.976120 0.656107
O O8 0.500000 0.847583 0.196738
O O9 0.367114 0.750000 0.240357
O O10 0.394435 0.893393 0.278962
O O11 0.313958 0.873140 0.181949
O O12 0.500000 0.502962 0.669970
O O13 0.318385 0.473007 0.641455
O O14 0.500000 0.250000 0.157675
O O15 0.820334 0.087078 0.580268
O O16 0.000000 0.099711 0.545364
O O17 0.875113 0.000000 0.500000
#
# Coordination Sequence:
#
# PCOD8299602 Si02
#       7
#     8  16  16  16   8  16  16
#     4   9  18  30  44  69 103 133 161 194 234 290
#     4   9  16  28  47  72  98 127 159 190 236 295
#     4   9  17  28  44  68  97 125 152 181 223 279
#     4   9  19  33  45  63  94 128 163 202 233 273
#     4   9  16  28  49  73 102 133 154 186 241 298
#     4  10  20  33  49  71  99 127 157 196 243 296
#     4  11  19  29  47  67  93 128 162 194 237 279
#
# _framework density 17.197894999999999
#
# number of rings (size 3 to 8) (size 9 to 14) (size 15 to 20)
#    0.000    2.500    0.000    5.500    1.167    4.000 
#    0.000    1.667    0.000    0.500    0.000    0.000 
#    0.000    1.333    0.000    0.000    0.000    0.000 
#
# Total GULP energy -594910.281424 kJ/mol
# GULP energy per Si atom -12393.964196 kJ/mol
# Density = 1.715875 g / cm^3
# Si number density = 17.197895 Si / 1000 Ang^3
#
#
#
# Elastic Constant Matrix: (Units=GPa)
#
#
# Indices 1 2 3 4 5 6 
#
# 1 56.3247 11.5937 33.6358 0.0000 0.0000 0.0000
# 2 11.5937 135.3808 33.4587 0.0000 0.0000 0.0000
# 3 33.6358 33.4587 57.2001 0.0000 0.0000 0.0000
# 4 0.0000 0.0000 0.0000 17.7434 0.0000 0.0000
# 5 0.0000 0.0000 0.0000 0.0000 16.6364 0.0000
# 6 0.0000 0.0000 0.0000 0.0000 0.0000 6.8622
#
#
#
# Elastic Compliance Matrix: (Units=1/GPa)
#
#
# Indices 1 2 3 4 5 6 
#
# 1 0.027792 0.001939 -0.017477 0.000000 0.000000 0.000000
# 2 0.001939 0.008770 -0.006270 0.000000 0.000000 0.000000
# 3 -0.017477 -0.006270 0.031428 0.000000 0.000000 0.000000
# 4 0.000000 0.000000 0.000000 0.056359 0.000000 0.000000
# 5 0.000000 0.000000 0.000000 0.000000 0.060109 0.000000
# 6 0.000000 0.000000 0.000000 0.000000 0.000000 0.145726
#
#
# Mechanical properties :
#
#
# Convention : Reuss Voigt Hill
#
# Bulk Modulus (GPa) = 41.02863 45.14246 43.08555
# Shear Modulus (GPa) = 13.09156 19.59621 16.34389
#
# Velocity S-wave (km/s) = 2.76203 3.37924 3.08611
# Velocity P-wave (km/s) = 5.83784 6.44449 6.14865
#
# Compressibility (1/GPa) = 0.02437322
#
# Stress axis : x y z
#
# Youngs Moduli (GPa) = 35.98163 114.02246 31.81921
#
# Poissons Ratio (x) = -0.22113 0.55611
# Poissons Ratio (y) = -0.06978 0.19952
# Poissons Ratio (z) = 0.62886 0.71497
#
# Static dielectric constant tensor:
#      x y z
#    x 3.111840 0.000000 0.000000 
#    y 0.000000 3.529450 0.000000 
#    z 0.000000 0.000000 2.963870 
# 
# 
# High freq. dielectric constant tensor:
#      x y z
#    x 1.638440 0.000000 0.000000 
#    y 0.000000 1.676810 0.000000 
#    z 0.000000 0.000000 1.626680 
# 
# From -- ./inp_files/67129.got.cif
#   From: 2010.03.12/outbox.cif.g09.slc.cpg/sg74_34_cif.got.tgz:67129.got - 2010.04.16 15:46:19.
