data_PCOD8299193
_publ_section_title
;
Structure prediction by ZEFSAII (Michael W. Deem and Ramdas Pophale) SiO2 
 PCOD8299193
Probable space group: I M M A
;
_chemical_formula_sum "Si O2"
_cell_formula_units_Z 112
_cell_length_a 17.472221
_cell_length_b 18.191581
_cell_length_c 18.728054
_cell_angle_alpha 90.000000
_cell_angle_beta 90.000000
_cell_angle_gamma 90.000000
_cell_volume 5952.661840
_symmetry_space_group_name_H-M "I M M A"
_symmetry_group_IT_number 74
_symmetry_cell_setting 'orthorhombic'
loop_
_space_group_symop_operation_xyz
x,y,z
-x,1/2-y,z
x,-y,-z
-x,1/2+y,-z
-x,-y,-z
x,1/2+y,-z
-x,y,z
x,1/2-y,z
1/2+x,1/2+y,1/2+z
1/2-x,-y,1/2+z
1/2+x,1/2-y,1/2-z
1/2-x,y,1/2-z
1/2-x,1/2-y,1/2-z
1/2+x,y,1/2-z
1/2-x,1/2+y,1/2+z
1/2+x,-y,1/2+z
loop_
_atom_site_type_symbol
_atom_site_label
_atom_site_fract_x
_atom_site_fract_y
_atom_site_fract_z
Si Si1 0.718708 0.023638 0.417359
Si Si2 0.664226 0.667454 0.754743
Si Si3 0.193097 0.167068 0.411398
Si Si4 0.416189 0.167632 0.849414
Si Si5 0.180705 0.950924 0.302452
Si Si6 0.915376 0.918492 0.491636
Si Si7 0.410955 0.463437 0.307091
O O1 0.735094 0.111137 0.411947
O O2 0.639551 0.007673 0.374403
O O3 0.709129 0.000000 0.500000
O O4 0.790103 0.979591 0.380307
O O5 0.664796 0.750000 0.723740
O O6 0.750000 0.632961 0.750000
O O7 0.644021 0.664992 0.838379
O O8 0.604380 0.622983 0.706394
O O9 0.223536 0.250000 0.425899
O O10 0.134623 0.143796 0.472058
O O11 0.500000 0.170466 0.811807
O O12 0.393418 0.250000 0.874403
O O13 0.349448 0.133677 0.800552
O O14 0.421367 0.106644 0.910672
O O15 0.250000 0.955791 0.250000
O O16 0.112721 0.999886 0.268693
O O17 0.000000 0.920998 0.526485
O O18 0.877888 0.000000 0.500000
O O19 0.500000 0.478065 0.324034
#
# Coordination Sequence:
#
# PCOD8299193 Si02
#       7
#    16  16  16  16  16  16  16
#     4  11  22  38  58  83 111 146 191 236 281 333
#     4  10  19  35  56  80 112 147 187 229 274 330
#     4  11  20  32  55  80 110 147 182 228 279 329
#     4  10  20  34  52  76 109 143 174 217 274 330
#     4  10  20  37  58  81 106 140 185 232 280 332
#     4  10  21  34  49  74 110 148 181 216 265 329
#     4  11  22  37  58  82 113 150 188 232 283 339
#
# _framework density 18.815111999999999
#
# number of rings (size 3 to 8) (size 9 to 14) (size 15 to 20)
#    0.000    1.571    2.857    3.429    0.000    2.286 
#    0.000    1.429    0.000    1.286    0.000    0.000 
#    0.000    0.000    0.000    0.000    0.000    0.000 
#
# Total GULP energy -693949.094659 kJ/mol
# GULP energy per Si atom -12391.948119 kJ/mol
# Density = 1.877229 g / cm^3
# Si number density = 18.815112 Si / 1000 Ang^3
#
#
#
# Elastic Constant Matrix: (Units=GPa)
#
#
# Indices 1 2 3 4 5 6 
#
# 1 89.8419 37.1138 22.6777 0.0000 0.0000 0.0000
# 2 37.1138 129.4058 23.9921 0.0000 0.0000 0.0000
# 3 22.6777 23.9921 74.9538 0.0000 0.0000 0.0000
# 4 0.0000 0.0000 0.0000 24.3001 0.0000 0.0000
# 5 0.0000 0.0000 0.0000 0.0000 10.0256 0.0000
# 6 0.0000 0.0000 0.0000 0.0000 0.0000 23.5978
#
#
#
# Elastic Compliance Matrix: (Units=1/GPa)
#
#
# Indices 1 2 3 4 5 6 
#
# 1 0.013217 -0.003242 -0.002961 0.000000 0.000000 0.000000
# 2 -0.003242 0.009010 -0.001903 0.000000 0.000000 0.000000
# 3 -0.002961 -0.001903 0.014847 0.000000 0.000000 0.000000
# 4 0.000000 0.000000 0.000000 0.041152 0.000000 0.000000
# 5 0.000000 0.000000 0.000000 0.000000 0.099745 0.000000
# 6 0.000000 0.000000 0.000000 0.000000 0.000000 0.042377
#
#
# Mechanical properties :
#
#
# Convention : Reuss Voigt Hill
#
# Bulk Modulus (GPa) = 47.93493 51.30762 49.62128
# Shear Modulus (GPa) = 20.53267 25.61258 23.07262
#
# Velocity S-wave (km/s) = 3.30705 3.69355 3.50563
# Velocity P-wave (km/s) = 6.33358 6.74673 6.54341
#
# Compressibility (1/GPa) = 0.02086161
#
# Stress axis : x y z
#
# Youngs Moduli (GPa) = 75.65842 110.98497 67.35486
#
# Poissons Ratio (x) = 0.35978 0.19946
# Poissons Ratio (y) = 0.24526 0.12820
# Poissons Ratio (z) = 0.22405 0.21124
#
# Static dielectric constant tensor:
#      x y z
#    x 3.546040 0.000000 0.000000 
#    y 0.000000 3.557600 0.000000 
#    z 0.000000 0.000000 3.443520 
# 
# 
# High freq. dielectric constant tensor:
#      x y z
#    x 1.714150 0.000000 0.000000 
#    y 0.000000 1.734080 0.000000 
#    z 0.000000 0.000000 1.715400 
# 
# From -- ./inp_files/53257.got.cif
#   From: 2010.03.12/outbox.cif.g09.slc.cpg/sg74_27_cif.got.tgz:53257.got - 2010.04.16 15:46:19.
