data_PCOD8299130
_publ_section_title
;
Structure prediction by ZEFSAII (Michael W. Deem and Ramdas Pophale) SiO2 
 PCOD8299130
Probable space group: I M M A
;
_chemical_formula_sum "Si O2"
_cell_formula_units_Z 72
_cell_length_a 18.037654
_cell_length_b 16.067700
_cell_length_c 13.041590
_cell_angle_alpha 90.000000
_cell_angle_beta 90.000000
_cell_angle_gamma 90.000000
_cell_volume 3779.760735
_symmetry_space_group_name_H-M "I M M A"
_symmetry_group_IT_number 74
_symmetry_cell_setting 'orthorhombic'
loop_
_space_group_symop_operation_xyz
x,y,z
-x,1/2-y,z
x,-y,-z
-x,1/2+y,-z
-x,-y,-z
x,1/2+y,-z
-x,y,z
x,1/2-y,z
1/2+x,1/2+y,1/2+z
1/2-x,-y,1/2+z
1/2+x,1/2-y,1/2-z
1/2-x,y,1/2-z
1/2-x,1/2-y,1/2-z
1/2+x,y,1/2-z
1/2-x,1/2+y,1/2+z
1/2+x,-y,1/2+z
loop_
_atom_site_type_symbol
_atom_site_label
_atom_site_fract_x
_atom_site_fract_y
_atom_site_fract_z
Si Si1 0.084157 0.064732 0.592296
Si Si2 0.415242 0.015348 0.312060
Si Si3 0.703944 0.156765 0.007188
Si Si4 0.830651 0.342426 0.268518
Si Si5 0.687245 0.500000 0.500000
O O1 0.143601 0.138874 0.581375
O O2 0.000000 0.097923 0.585515
O O3 0.099865 0.000000 0.500000
O O4 0.100879 0.028503 0.704030
O O5 0.500000 0.006295 0.346676
O O6 0.395490 0.111649 0.293004
O O7 0.363537 0.979849 0.401586
O O8 0.738409 0.250000 0.989809
O O9 0.654784 0.156861 0.110447
O O10 0.765777 0.084564 0.013653
O O11 0.829359 0.250000 0.221526
O O12 0.750000 0.384673 0.250000
#
# Coordination Sequence:
#
# PCOD8299130 Si02
#       5
#    16  16  16  16   8
#     4  10  20  37  58  84 118 153 190 239 293 346
#     4  11  23  38  59  84 116 161 200 235 291 349
#     4  11  22  36  62  93 117 152 195 242 302 353
#     4  10  19  34  57  87 119 146 185 247 306 349
#     4  12  23  40  59  84 124 158 198 246 281 340
#
# _framework density 19.048824
#
# number of rings (size 3 to 8) (size 9 to 14) (size 15 to 20)
#    0.000    1.333    5.556    0.333    0.000    0.889 
#    0.000    4.444    0.000    3.333    0.000    0.000 
#    0.000    0.000    0.000    0.000    0.000    0.000 
#
# Total GULP energy -446152.030891 kJ/mol
# GULP energy per Si atom -12393.111969 kJ/mol
# Density = 1.900547 g / cm^3
# Si number density = 19.048824 Si / 1000 Ang^3
#
#
#
# Elastic Constant Matrix: (Units=GPa)
#
#
# Indices 1 2 3 4 5 6 
#
# 1 83.4745 40.4090 43.8316 0.0000 0.0000 0.0000
# 2 40.4090 98.2033 26.8870 0.0000 0.0000 0.0000
# 3 43.8316 26.8870 99.3857 0.0000 0.0000 0.0000
# 4 0.0000 0.0000 0.0000 19.0597 0.0000 0.0000
# 5 0.0000 0.0000 0.0000 0.0000 36.1082 0.0000
# 6 0.0000 0.0000 0.0000 0.0000 0.0000 17.6324
#
#
#
# Elastic Compliance Matrix: (Units=1/GPa)
#
#
# Indices 1 2 3 4 5 6 
#
# 1 0.018123 -0.005690 -0.006453 0.000000 0.000000 0.000000
# 2 -0.005690 0.012784 -0.000949 0.000000 0.000000 0.000000
# 3 -0.006453 -0.000949 0.013165 0.000000 0.000000 0.000000
# 4 0.000000 0.000000 0.000000 0.052467 0.000000 0.000000
# 5 0.000000 0.000000 0.000000 0.000000 0.027695 0.000000
# 6 0.000000 0.000000 0.000000 0.000000 0.000000 0.056714
#
#
# Mechanical properties :
#
#
# Convention : Reuss Voigt Hill
#
# Bulk Modulus (GPa) = 55.90786 55.92430 55.91608
# Shear Modulus (GPa) = 23.46382 25.88913 24.67648
#
# Velocity S-wave (km/s) = 3.51347 3.69059 3.60312
# Velocity P-wave (km/s) = 6.77294 6.89802 6.83577
#
# Compressibility (1/GPa) = 0.01788657
#
# Stress axis : x y z
#
# Youngs Moduli (GPa) = 55.17881 78.22104 75.96151
#
# Poissons Ratio (x) = 0.44511 0.49020
# Poissons Ratio (y) = 0.31399 0.07208
# Poissons Ratio (z) = 0.35608 0.07423
#
# Static dielectric constant tensor:
#      x y z
#    x 3.551310 0.000000 0.000000 
#    y 0.000000 3.437440 0.000000 
#    z 0.000000 0.000000 3.569600 
# 
# 
# High freq. dielectric constant tensor:
#      x y z
#    x 1.737580 0.000000 0.000000 
#    y 0.000000 1.721580 0.000000 
#    z 0.000000 0.000000 1.741300 
# 
# From -- ./inp_files/21867.got.cif
#   From: 2010.03.12/outbox.cif.g09.slc.cpg/sg74_11_cif.got.tgz:21867.got - 2010.04.16 15:46:19.
