data_PCOD8299162
_publ_section_title
;
Structure prediction by ZEFSAII (Michael W. Deem and Ramdas Pophale) SiO2 
 PCOD8299162
Probable space group: I M M A
;
_chemical_formula_sum "Si O2"
_cell_formula_units_Z 104
_cell_length_a 27.572008
_cell_length_b 9.270268
_cell_length_c 20.921412
_cell_angle_alpha 90.000000
_cell_angle_beta 90.000000
_cell_angle_gamma 90.000000
_cell_volume 5347.510887
_symmetry_space_group_name_H-M "I M M A"
_symmetry_group_IT_number 74
_symmetry_cell_setting 'orthorhombic'
loop_
_space_group_symop_operation_xyz
x,y,z
-x,1/2-y,z
x,-y,-z
-x,1/2+y,-z
-x,-y,-z
x,1/2+y,-z
-x,y,z
x,1/2-y,z
1/2+x,1/2+y,1/2+z
1/2-x,-y,1/2+z
1/2+x,1/2-y,1/2-z
1/2-x,y,1/2-z
1/2-x,1/2-y,1/2-z
1/2+x,y,1/2-z
1/2-x,1/2+y,1/2+z
1/2+x,-y,1/2+z
loop_
_atom_site_type_symbol
_atom_site_label
_atom_site_fract_x
_atom_site_fract_y
_atom_site_fract_z
Si Si1 0.860066 0.081095 0.655050
Si Si2 0.874145 0.416953 0.799408
Si Si3 0.445335 0.083415 0.938047
Si Si4 0.304067 0.908553 0.409211
Si Si5 0.116465 0.500000 0.000000
Si Si6 0.710407 0.577367 0.936392
Si Si7 0.054417 0.912190 0.884481
O O1 0.845872 0.250000 0.649479
O O2 0.864466 0.029075 0.727786
O O3 0.911444 0.048236 0.621907
O O4 0.818653 0.982360 0.624076
O O5 0.887978 0.250000 0.799560
O O6 0.825082 0.446889 0.839350
O O7 0.919953 0.496652 0.829410
O O8 0.500000 0.034595 0.920225
O O9 0.443460 0.250000 0.956317
O O10 0.425794 0.000000 0.000000
O O11 0.278755 0.750000 0.408699
O O12 0.348956 0.896548 0.458342
O O13 0.266680 0.033200 0.428750
O O14 0.082463 0.588335 0.951931
O O15 0.706154 0.750000 0.942165
O O16 0.689404 0.500000 0.000000
O O17 0.052948 0.750000 0.859081
O O18 0.000000 0.972884 0.894546
#
# Coordination Sequence:
#
# PCOD8299162 Si02
#       7
#    16  16  16  16   8  16  16
#     4  10  21  39  60  83 115 150 188 235 286 341
#     4   9  21  39  59  83 112 151 194 239 289 346
#     4   9  18  33  55  82 109 140 179 224 274 328
#     4  10  20  36  58  83 112 147 192 238 289 347
#     4  10  19  34  60  84 114 154 199 242 294 348
#     4  12  25  39  59  86 116 148 188 237 289 345
#     4  10  21  36  56  86 122 157 197 246 295 346
#
# _framework density 19.448301000000001
#
# number of rings (size 3 to 8) (size 9 to 14) (size 15 to 20)
#    0.000    2.000    0.769    2.538    0.000    7.077 
#    0.000    4.615    0.000    1.846    0.000    0.000 
#    0.000    0.000    0.000    0.000    0.000    0.000 
#
# Total GULP energy -644804.868360 kJ/mol
# GULP energy per Si atom -12400.093622 kJ/mol
# Density = 1.940404 g / cm^3
# Si number density = 19.448301 Si / 1000 Ang^3
#
#
#
# Elastic Constant Matrix: (Units=GPa)
#
#
# Indices 1 2 3 4 5 6 
#
# 1 97.7693 43.8482 57.1161 0.0000 0.0000 0.0000
# 2 43.8482 91.2341 49.0957 0.0000 0.0000 0.0000
# 3 57.1161 49.0957 158.6028 0.0000 0.0000 0.0000
# 4 0.0000 0.0000 0.0000 26.2016 0.0000 0.0000
# 5 0.0000 0.0000 0.0000 0.0000 23.5468 0.0000
# 6 0.0000 0.0000 0.0000 0.0000 0.0000 30.3524
#
#
#
# Elastic Compliance Matrix: (Units=1/GPa)
#
#
# Indices 1 2 3 4 5 6 
#
# 1 0.014664 -0.005047 -0.003719 0.000000 0.000000 0.000000
# 2 -0.005047 0.014888 -0.002791 0.000000 0.000000 0.000000
# 3 -0.003719 -0.002791 0.008508 0.000000 0.000000 0.000000
# 4 0.000000 0.000000 0.000000 0.038166 0.000000 0.000000
# 5 0.000000 0.000000 0.000000 0.000000 0.042469 0.000000
# 6 0.000000 0.000000 0.000000 0.000000 0.000000 0.032946
#
#
# Mechanical properties :
#
#
# Convention : Reuss Voigt Hill
#
# Bulk Modulus (GPa) = 66.90080 71.96959 69.43520
# Shear Modulus (GPa) = 27.81853 29.18991 28.50422
#
# Velocity S-wave (km/s) = 3.78614 3.87835 3.83252
# Velocity P-wave (km/s) = 7.32033 7.55919 7.44072
#
# Compressibility (1/GPa) = 0.01494750
#
# Stress axis : x y z
#
# Youngs Moduli (GPa) = 68.19505 67.16663 117.53281
#
# Poissons Ratio (x) = 0.33896 0.43706
# Poissons Ratio (y) = 0.34415 0.32808
# Poissons Ratio (z) = 0.25359 0.18749
#
# Static dielectric constant tensor:
#      x y z
#    x 3.592390 0.000000 0.000000 
#    y 0.000000 3.383170 0.000000 
#    z 0.000000 0.000000 3.701010 
# 
# 
# High freq. dielectric constant tensor:
#      x y z
#    x 1.760430 0.000000 0.000000 
#    y 0.000000 1.748060 0.000000 
#    z 0.000000 0.000000 1.758800 
# 
# From -- ./inp_files/55263.got.cif
#   From: 2010.03.12/outbox.cif.g09.slc.cpg/sg74_28_cif.got.tgz:55263.got - 2010.04.16 15:46:19.
