data_PCOD8299447
_publ_section_title
;
Structure prediction by ZEFSAII (Michael W. Deem and Ramdas Pophale) SiO2 
 PCOD8299447
Probable space group: I M M A
;
_chemical_formula_sum "Si O2"
_cell_formula_units_Z 96
_cell_length_a 9.292754
_cell_length_b 28.567430
_cell_length_c 20.748587
_cell_angle_alpha 90.000000
_cell_angle_beta 90.000000
_cell_angle_gamma 90.000000
_cell_volume 5508.129453
_symmetry_space_group_name_H-M "I M M A"
_symmetry_group_IT_number 74
_symmetry_cell_setting 'orthorhombic'
loop_
_space_group_symop_operation_xyz
x,y,z
-x,1/2-y,z
x,-y,-z
-x,1/2+y,-z
-x,-y,-z
x,1/2+y,-z
-x,y,z
x,1/2-y,z
1/2+x,1/2+y,1/2+z
1/2-x,-y,1/2+z
1/2+x,1/2-y,1/2-z
1/2-x,y,1/2-z
1/2-x,1/2-y,1/2-z
1/2+x,y,1/2-z
1/2-x,1/2+y,1/2+z
1/2+x,-y,1/2+z
loop_
_atom_site_type_symbol
_atom_site_label
_atom_site_fract_x
_atom_site_fract_y
_atom_site_fract_z
Si Si1 0.171049 0.642579 0.047548
Si Si2 0.841353 0.466684 0.808047
Si Si3 0.171457 0.963410 0.051412
Si Si4 0.836074 0.805745 0.812150
Si Si5 0.842182 0.855725 0.191740
Si Si6 0.835236 0.694461 0.562938
O O1 0.217515 0.589098 0.032592
O O2 0.218135 0.656203 0.120519
O O3 0.000000 0.649390 0.038133
O O4 0.259371 0.675912 0.001007
O O5 0.750000 0.489162 0.750000
O O6 0.769903 0.477889 0.877675
O O7 0.851230 0.411204 0.800524
O O8 0.000000 0.488899 0.803362
O O9 0.000000 0.965616 0.054566
O O10 0.235753 0.000000 0.000000
O O11 0.838354 0.750000 0.811220
O O12 0.750000 0.824839 0.750000
O O13 0.752955 0.824345 0.875290
O O14 0.000000 0.825067 0.811860
O O15 0.750000 0.833554 0.250000
O O16 0.000000 0.833649 0.198665
O O17 0.830294 0.750000 0.560537
O O18 0.000000 0.676764 0.567197
#
# Coordination Sequence:
#
# PCOD8299447 Si02
#       6
#    16  16  16  16  16  16
#     4   9  17  29  46  68  91 116 149 187 225 267
#     4   8  13  22  38  60  84 109 139 176 214 252
#     4   8  14  26  45  67  89 115 148 182 217 263
#     4   9  16  27  45  68  92 117 147 185 226 266
#     4   8  14  24  39  61  86 110 140 179 220 261
#     4  10  20  32  46  66  92 121 152 186 225 269
#
# _framework density 17.428784
#
# number of rings (size 3 to 8) (size 9 to 14) (size 15 to 20)
#    0.000    3.333    0.000    3.000    0.000    3.667 
#    0.000    2.500    0.000    3.500    0.000    2.333 
#    0.000    0.000    0.000    0.000    0.000    0.000 
#
# Total GULP energy -594828.835356 kJ/mol
# GULP energy per Si atom -12392.267403 kJ/mol
# Density = 1.738912 g / cm^3
# Si number density = 17.428784 Si / 1000 Ang^3
#
#
#
# Elastic Constant Matrix: (Units=GPa)
#
#
# Indices 1 2 3 4 5 6 
#
# 1 97.4359 15.7386 71.2683 0.0000 0.0000 0.0000
# 2 15.7386 13.0494 22.1528 -0.0001 0.0000 0.0000
# 3 71.2683 22.1528 156.4295 -0.0003 0.0000 0.0000
# 4 0.0000 -0.0001 -0.0003 24.8642 0.0000 0.0000
# 5 0.0000 0.0000 0.0000 0.0000 34.9389 0.0000
# 6 0.0000 0.0000 0.0000 0.0000 0.0000 7.8944
#
#
#
# Elastic Compliance Matrix: (Units=1/GPa)
#
#
# Indices 1 2 3 4 5 6 
#
# 1 0.016194 -0.009224 -0.006072 0.000000 0.000000 0.000000
# 2 -0.009224 0.106140 -0.010829 0.000000 0.000000 0.000000
# 3 -0.006072 -0.010829 0.010692 0.000000 0.000000 0.000000
# 4 0.000000 0.000000 0.000000 0.040218 0.000000 0.000000
# 5 0.000000 0.000000 0.000000 0.000000 0.028621 0.000000
# 6 0.000000 0.000000 0.000000 0.000000 0.000000 0.126673
#
#
# Mechanical properties :
#
#
# Convention : Reuss Voigt Hill
#
# Bulk Modulus (GPa) = 12.37970 53.91493 33.14731
# Shear Modulus (GPa) = 12.26352 24.05649 18.16000
#
# Velocity S-wave (km/s) = 2.65549 3.71923 3.23143
# Velocity P-wave (km/s) = 4.06456 7.03173 5.74307
#
# Compressibility (1/GPa) = 0.08077742
#
# Stress axis : x y z
#
# Youngs Moduli (GPa) = 61.75054 9.42155 93.52465
#
# Poissons Ratio (x) = 0.08691 0.56785
# Poissons Ratio (y) = 0.56960 1.01273
# Poissons Ratio (z) = 0.37493 0.10202
#
# Static dielectric constant tensor:
#      x y z
#    x 3.359590 0.000000 0.000000 
#    y 0.000000 2.737030 0.000000 
#    z 0.000000 0.000000 3.605650 
# 
# 
# High freq. dielectric constant tensor:
#      x y z
#    x 1.659330 0.000000 0.000000 
#    y 0.000000 1.609300 0.000000 
#    z 0.000000 0.000000 1.692980 
# 
# From -- ./inp_files/49141.got.cif
#   From: 2010.03.12/outbox.cif.g09.slc.cpg/sg74_25_cif.got.tgz:49141.got - 2010.04.16 15:46:19.
