data_PCOD8299674
_publ_section_title
;
Structure prediction by ZEFSAII (Michael W. Deem and Ramdas Pophale) SiO2 
 PCOD8299674
Probable space group: I M M A
;
_chemical_formula_sum "Si O2"
_cell_formula_units_Z 96
_cell_length_a 8.920942
_cell_length_b 23.662487
_cell_length_c 23.476174
_cell_angle_alpha 90.000000
_cell_angle_beta 90.000000
_cell_angle_gamma 90.000000
_cell_volume 4955.624871
_symmetry_space_group_name_H-M "I M M A"
_symmetry_group_IT_number 74
_symmetry_cell_setting 'orthorhombic'
loop_
_space_group_symop_operation_xyz
x,y,z
-x,1/2-y,z
x,-y,-z
-x,1/2+y,-z
-x,-y,-z
x,1/2+y,-z
-x,y,z
x,1/2-y,z
1/2+x,1/2+y,1/2+z
1/2-x,-y,1/2+z
1/2+x,1/2-y,1/2-z
1/2-x,y,1/2-z
1/2-x,1/2-y,1/2-z
1/2+x,y,1/2-z
1/2-x,1/2+y,1/2+z
1/2+x,-y,1/2+z
loop_
_atom_site_type_symbol
_atom_site_label
_atom_site_fract_x
_atom_site_fract_y
_atom_site_fract_z
Si Si1 0.824409 0.688766 0.188747
Si Si2 0.322583 0.421700 0.811904
Si Si3 0.167775 0.817183 0.805503
Si Si4 0.676031 0.314252 0.079273
Si Si5 0.826214 0.589470 0.982083
Si Si6 0.174242 0.018005 0.909371
O O1 0.801330 0.750000 0.157560
O O2 0.750000 0.693170 0.250000
O O3 0.741262 0.636225 0.158332
O O4 0.000000 0.674923 0.194630
O O5 0.500000 0.419007 0.805839
O O6 0.250000 0.431021 0.750000
O O7 0.274306 0.472684 0.853222
O O8 0.166269 0.750000 0.801618
O O9 0.250000 0.842597 0.750000
O O10 0.252156 0.836911 0.862217
O O11 0.000000 0.841752 0.807294
O O12 0.500000 0.318262 0.086213
O O13 0.726656 0.250000 0.066119
O O14 0.731025 0.353822 0.027881
O O15 0.791292 0.544435 0.932408
O O16 0.000000 0.605828 0.981771
O O17 0.780005 0.563573 0.042659
O O18 0.000000 0.024563 0.893831
#
# Coordination Sequence:
#
# PCOD8299674 Si02
#       6
#    16  16  16  16  16  16
#     4   9  16  27  45  69  99 136 175 213 255 306
#     4  11  21  33  53  80 110 143 176 216 266 315
#     4   9  16  27  45  69  99 136 176 214 255 308
#     4  10  20  33  51  78 112 144 174 215 264 312
#     4   9  19  37  61  82 102 135 176 219 264 312
#     4   9  19  38  60  81 105 134 174 220 265 314
#
# _framework density 19.371926999999999
#
# number of rings (size 3 to 8) (size 9 to 14) (size 15 to 20)
#    0.000    2.500    0.000    5.000    0.000    5.333 
#    0.000    3.333    0.000    5.000    0.000    0.000 
#    0.000    0.000    0.000    0.000    0.000    0.000 
#
# Total GULP energy -595004.307723 kJ/mol
# GULP energy per Si atom -12395.923078 kJ/mol
# Density = 1.932784 g / cm^3
# Si number density = 19.371927 Si / 1000 Ang^3
#
#
#
# Elastic Constant Matrix: (Units=GPa)
#
#
# Indices 1 2 3 4 5 6 
#
# 1 118.8486 39.8533 40.1428 0.0000 0.0000 0.0000
# 2 39.8533 69.1142 35.6029 0.0000 0.0000 0.0000
# 3 40.1428 35.6029 68.1620 0.0000 0.0000 0.0000
# 4 0.0000 0.0000 0.0000 24.7012 0.0000 0.0000
# 5 0.0000 0.0000 0.0000 0.0000 31.1915 0.0000
# 6 0.0000 0.0000 0.0000 0.0000 0.0000 25.6218
#
#
#
# Elastic Compliance Matrix: (Units=1/GPa)
#
#
# Indices 1 2 3 4 5 6 
#
# 1 0.011345 -0.004241 -0.004466 0.000000 0.000000 0.000000
# 2 -0.004241 0.021380 -0.008670 0.000000 0.000000 0.000000
# 3 -0.004466 -0.008670 0.021830 0.000000 0.000000 0.000000
# 4 0.000000 0.000000 0.000000 0.040484 0.000000 0.000000
# 5 0.000000 0.000000 0.000000 0.000000 0.032060 0.000000
# 6 0.000000 0.000000 0.000000 0.000000 0.000000 0.039029
#
#
# Mechanical properties :
#
#
# Convention : Reuss Voigt Hill
#
# Bulk Modulus (GPa) = 50.50305 54.14699 52.32502
# Shear Modulus (GPa) = 24.09846 25.67129 24.88487
#
# Velocity S-wave (km/s) = 3.53085 3.64425 3.58800
# Velocity P-wave (km/s) = 6.53830 6.76161 6.65089
#
# Compressibility (1/GPa) = 0.01980079
#
# Stress axis : x y z
#
# Youngs Moduli (GPa) = 88.14705 46.77160 45.80930
#
# Poissons Ratio (x) = 0.19836 0.20458
# Poissons Ratio (y) = 0.37384 0.39716
# Poissons Ratio (z) = 0.39366 0.40551
#
# Static dielectric constant tensor:
#      x y z
#    x 3.511710 0.000000 0.000000 
#    y 0.000000 3.728450 0.000000 
#    z 0.000000 0.000000 3.280410 
# 
# 
# High freq. dielectric constant tensor:
#      x y z
#    x 1.758400 0.000000 0.000000 
#    y 0.000000 1.742120 0.000000 
#    z 0.000000 0.000000 1.730520 
# 
# From -- ./inp_files/57287.got.cif
#   From: 2010.03.12/outbox.cif.g09.slc.cpg/sg74_29_cif.got.tgz:57287.got - 2010.04.16 15:46:19.
