data_PCOD8299363
_publ_section_title
;
Structure prediction by ZEFSAII (Michael W. Deem and Ramdas Pophale) SiO2 
 PCOD8299363
Probable space group: I M M A
;
_chemical_formula_sum "Si O2"
_cell_formula_units_Z 112
_cell_length_a 14.630224
_cell_length_b 14.230551
_cell_length_c 31.184704
_cell_angle_alpha 90.000000
_cell_angle_beta 90.000000
_cell_angle_gamma 90.000000
_cell_volume 6492.535273
_symmetry_space_group_name_H-M "I M M A"
_symmetry_group_IT_number 74
_symmetry_cell_setting 'orthorhombic'
loop_
_space_group_symop_operation_xyz
x,y,z
-x,1/2-y,z
x,-y,-z
-x,1/2+y,-z
-x,-y,-z
x,1/2+y,-z
-x,y,z
x,1/2-y,z
1/2+x,1/2+y,1/2+z
1/2-x,-y,1/2+z
1/2+x,1/2-y,1/2-z
1/2-x,y,1/2-z
1/2-x,1/2-y,1/2-z
1/2+x,y,1/2-z
1/2-x,1/2+y,1/2+z
1/2+x,-y,1/2+z
loop_
_atom_site_type_symbol
_atom_site_label
_atom_site_fract_x
_atom_site_fract_y
_atom_site_fract_z
Si Si1 0.630576 0.855447 0.494716
Si Si2 0.397774 0.142633 0.929182
Si Si3 0.782460 0.861110 0.684591
Si Si4 0.596910 0.010746 0.429443
Si Si5 0.336513 0.145480 0.019374
Si Si6 0.706102 0.972354 0.899204
Si Si7 0.603329 0.860715 0.732552
O O1 0.591625 0.750000 0.492783
O O2 0.589711 0.906517 0.535866
O O3 0.738718 0.857500 0.497092
O O4 0.602731 0.909306 0.451754
O O5 0.500000 0.132000 0.911196
O O6 0.362578 0.250000 0.924779
O O7 0.332634 0.078036 0.899624
O O8 0.400800 0.114140 0.979883
O O9 0.783509 0.750000 0.675096
O O10 0.819902 0.916695 0.643468
O O11 0.678493 0.893324 0.697077
O O12 0.854923 0.888134 0.721374
O O13 0.500000 0.014080 0.403482
O O14 0.683780 0.027823 0.399534
O O15 0.360950 0.250000 0.035994
O O16 0.341237 0.076760 0.059781
O O17 0.500000 0.904003 0.726152
O O18 0.594986 0.750000 0.729571
#
# Coordination Sequence:
#
# PCOD8299363 Si02
#       7
#    16  16  16  16  16  16  16
#     4   9  16  29  45  58  80 118 160 201 240 276
#     4  10  21  36  51  65  87 127 175 213 244 281
#     4   9  18  31  49  76 104 129 157 187 230 290
#     4  10  20  29  39  62  90 117 157 201 238 280
#     4   9  17  30  47  66  92 127 164 201 244 288
#     4  11  20  31  47  70  99 127 158 205 249 280
#     4   8  15  31  53  74 100 131 157 184 225 286
#
# _framework density 17.250581
#
# number of rings (size 3 to 8) (size 9 to 14) (size 15 to 20)
#    0.000    2.571    1.429    2.571    0.000    4.000 
#    0.000    0.000    0.000    4.286    0.000    2.000 
#    0.000    1.143    0.000    0.000    0.000    0.000 
#
# Total GULP energy -693861.863058 kJ/mol
# GULP energy per Si atom -12390.390412 kJ/mol
# Density = 1.721132 g / cm^3
# Si number density = 17.250581 Si / 1000 Ang^3
#
#
#
# Elastic Constant Matrix: (Units=GPa)
#
#
# Indices 1 2 3 4 5 6 
#
# 1 60.9354 12.0154 20.2389 0.0000 0.0000 0.0000
# 2 12.0154 88.9771 36.7024 0.0000 0.0000 0.0000
# 3 20.2389 36.7024 60.2620 0.0000 0.0000 0.0000
# 4 0.0000 0.0000 0.0000 19.9216 0.0000 0.0000
# 5 0.0000 0.0000 0.0000 0.0000 -7.2971 0.0000
# 6 0.0000 0.0000 0.0000 0.0000 0.0000 -6.2406
#
#
#
# Elastic Compliance Matrix: (Units=1/GPa)
#
#
# Indices 1 2 3 4 5 6 
#
# 1 0.018472 0.000086 -0.006256 0.000000 0.000000 0.000000
# 2 0.000086 0.015010 -0.009171 0.000000 0.000000 0.000000
# 3 -0.006256 -0.009171 0.024281 0.000000 0.000000 0.000000
# 4 0.000000 0.000000 0.000000 0.050197 0.000000 0.000000
# 5 0.000000 0.000000 0.000000 0.000000 -0.137041 0.000000
# 6 0.000000 0.000000 0.000000 0.000000 0.000000 -0.160242
#
#
# Mechanical properties :
#
#
# Convention : Reuss Voigt Hill
#
# Bulk Modulus (GPa) = 36.92620 38.67642 37.80131
# Shear Modulus (GPa) = -33.41910 10.69131 -11.36390
#
# Velocity S-wave (km/s) = -4.40622 2.49221 -2.56941
# Velocity P-wave (km/s) = 2.10574 5.54531 3.62742
#
# Compressibility (1/GPa) = 0.02708104
#
# Stress axis : x y z
#
# Youngs Moduli (GPa) = 54.13673 66.62179 41.18474
#
# Poissons Ratio (x) = -0.00575 0.25766
# Poissons Ratio (y) = -0.00467 0.37770
# Poissons Ratio (z) = 0.33869 0.61098
#
# Static dielectric constant tensor:
#      x y z
#    x 3.538030 0.000000 0.000000 
#    y 0.000000 3.208510 0.000000 
#    z 0.000000 0.000000 2.809250 
# 
# 
# High freq. dielectric constant tensor:
#      x y z
#    x 1.680900 0.000000 0.000000 
#    y 0.000000 1.648350 0.000000 
#    z 0.000000 0.000000 1.617450 
# 
# From -- ./inp_files/67232.got.cif
#   From: 2010.03.12/outbox.cif.g09.slc.cpg/sg74_34_cif.got.tgz:67232.got - 2010.04.16 15:46:19.
