data_PCOD8299721
_publ_section_title
;
Structure prediction by ZEFSAII (Michael W. Deem and Ramdas Pophale) SiO2 
 PCOD8299721
Probable space group: I M M A
;
_chemical_formula_sum "Si O2"
_cell_formula_units_Z 96
_cell_length_a 30.024986
_cell_length_b 9.095159
_cell_length_c 19.374519
_cell_angle_alpha 90.000000
_cell_angle_beta 90.000000
_cell_angle_gamma 90.000000
_cell_volume 5290.832817
_symmetry_space_group_name_H-M "I M M A"
_symmetry_group_IT_number 74
_symmetry_cell_setting 'orthorhombic'
loop_
_space_group_symop_operation_xyz
x,y,z
-x,1/2-y,z
x,-y,-z
-x,1/2+y,-z
-x,-y,-z
x,1/2+y,-z
-x,y,z
x,1/2-y,z
1/2+x,1/2+y,1/2+z
1/2-x,-y,1/2+z
1/2+x,1/2-y,1/2-z
1/2-x,y,1/2-z
1/2-x,1/2-y,1/2-z
1/2+x,y,1/2-z
1/2-x,1/2+y,1/2+z
1/2+x,-y,1/2+z
loop_
_atom_site_type_symbol
_atom_site_label
_atom_site_fract_x
_atom_site_fract_y
_atom_site_fract_z
Si Si1 0.947281 0.411328 0.563638
Si Si2 0.233936 0.421767 0.569808
Si Si3 0.708689 0.420918 0.203705
Si Si4 0.448263 0.578045 0.216557
Si Si5 0.625239 0.421717 0.299273
Si Si6 0.662546 0.077738 0.569847
O O1 0.925621 0.500000 0.500000
O O2 0.926155 0.250000 0.559315
O O3 0.936555 0.478779 0.638933
O O4 0.000000 0.401746 0.554484
O O5 0.217646 0.500000 0.500000
O O6 0.224236 0.250000 0.562962
O O7 0.206238 0.486719 0.633475
O O8 0.285699 0.455819 0.583381
O O9 0.714502 0.250000 0.185047
O O10 0.750000 0.475447 0.250000
O O11 0.663563 0.454330 0.244051
O O12 0.500000 0.553301 0.232738
O O13 0.436003 0.750000 0.223823
O O14 0.421285 0.479187 0.269814
O O15 0.622045 0.250000 0.316592
O O16 0.634147 0.509844 0.368789
O O17 0.652936 0.250000 0.564113
O O18 0.646520 0.000000 0.500000
#
# Coordination Sequence:
#
# PCOD8299721 Si02
#       6
#    16  16  16  16  16  16
#     4   8  14  26  46  71  97 127 165 209 257 307
#     4  10  20  33  53  78 107 144 184 223 266 318
#     4  10  20  35  53  75 109 145 177 219 266 315
#     4   9  19  36  55  76 106 143 181 224 274 324
#     4  11  22  35  55  82 109 141 180 223 270 319
#     4  10  20  34  54  80 109 140 177 220 264 317
#
# _framework density 18.144590999999998
#
# number of rings (size 3 to 8) (size 9 to 14) (size 15 to 20)
#    0.000    2.333    1.667    2.500    0.000    4.000 
#    0.000    2.500    0.000    2.500    0.000    0.000 
#    0.000    0.000    0.000    0.000    0.000    0.000 
#
# Total GULP energy -595238.173564 kJ/mol
# GULP energy per Si atom -12400.795283 kJ/mol
# Density = 1.810329 g / cm^3
# Si number density = 18.144591 Si / 1000 Ang^3
#
#
#
# Elastic Constant Matrix: (Units=GPa)
#
#
# Indices 1 2 3 4 5 6 
#
# 1 51.8545 34.1042 37.5536 0.0000 0.0000 0.0000
# 2 34.1042 94.6582 72.3460 0.0000 0.0000 0.0000
# 3 37.5536 72.3460 143.8054 0.0000 0.0000 0.0000
# 4 0.0000 0.0000 0.0000 40.5689 0.0000 0.0000
# 5 0.0000 0.0000 0.0000 0.0000 24.8895 0.0000
# 6 0.0000 0.0000 0.0000 0.0000 0.0000 19.9269
#
#
#
# Elastic Compliance Matrix: (Units=1/GPa)
#
#
# Indices 1 2 3 4 5 6 
#
# 1 0.026263 -0.006857 -0.003409 0.000000 0.000000 0.000000
# 2 -0.006857 0.018954 -0.007745 0.000000 0.000000 0.000000
# 3 -0.003409 -0.007745 0.011740 0.000000 0.000000 0.000000
# 4 0.000000 0.000000 0.000000 0.024649 0.000000 0.000000
# 5 0.000000 0.000000 0.000000 0.000000 0.040178 0.000000
# 6 0.000000 0.000000 0.000000 0.000000 0.000000 0.050183
#
#
# Mechanical properties :
#
#
# Convention : Reuss Voigt Hill
#
# Bulk Modulus (GPa) = 47.76382 64.25842 56.01112
# Shear Modulus (GPa) = 23.25928 26.83136 25.04532
#
# Velocity S-wave (km/s) = 3.58423 3.84963 3.71929
# Velocity P-wave (km/s) = 6.59622 7.43310 7.02713
#
# Compressibility (1/GPa) = 0.02093635
#
# Stress axis : x y z
#
# Youngs Moduli (GPa) = 38.07606 52.75913 85.17684
#
# Poissons Ratio (x) = 0.36177 0.29035
# Poissons Ratio (y) = 0.26109 0.65968
# Poissons Ratio (z) = 0.12979 0.40861
#
# Static dielectric constant tensor:
#      x y z
#    x 2.999790 0.000000 0.000000 
#    y 0.000000 3.423230 0.000000 
#    z 0.000000 0.000000 3.417510 
# 
# 
# High freq. dielectric constant tensor:
#      x y z
#    x 1.668150 0.000000 0.000000 
#    y 0.000000 1.707250 0.000000 
#    z 0.000000 0.000000 1.710820 
# 
# From -- ./inp_files/49177.got.cif
#   From: 2010.03.12/outbox.cif.g09.slc.cpg/sg74_25_cif.got.tgz:49177.got - 2010.04.16 15:46:19.
