data_PCOD8299775
_publ_section_title
;
Structure prediction by ZEFSAII (Michael W. Deem and Ramdas Pophale) SiO2 
 PCOD8299775
Probable space group: I M M A
;
_chemical_formula_sum "Si O2"
_cell_formula_units_Z 80
_cell_length_a 9.447708
_cell_length_b 23.147848
_cell_length_c 20.475907
_cell_angle_alpha 90.000000
_cell_angle_beta 90.000000
_cell_angle_gamma 90.000000
_cell_volume 4477.960232
_symmetry_space_group_name_H-M "I M M A"
_symmetry_group_IT_number 74
_symmetry_cell_setting 'orthorhombic'
loop_
_space_group_symop_operation_xyz
x,y,z
-x,1/2-y,z
x,-y,-z
-x,1/2+y,-z
-x,-y,-z
x,1/2+y,-z
-x,y,z
x,1/2-y,z
1/2+x,1/2+y,1/2+z
1/2-x,-y,1/2+z
1/2+x,1/2-y,1/2-z
1/2-x,y,1/2-z
1/2-x,1/2-y,1/2-z
1/2+x,y,1/2-z
1/2-x,1/2+y,1/2+z
1/2+x,-y,1/2+z
loop_
_atom_site_type_symbol
_atom_site_label
_atom_site_fract_x
_atom_site_fract_y
_atom_site_fract_z
Si Si1 0.778927 0.750000 0.826846
Si Si2 0.335074 0.023950 0.189926
Si Si3 0.849108 0.377711 0.146405
Si Si4 0.662868 0.543658 0.058469
Si Si5 0.337979 0.859602 0.500265
Si Si6 0.839078 0.250000 0.462858
O O1 0.750000 0.750000 0.750000
O O2 0.861448 0.690884 0.840620
O O3 0.655701 0.750000 0.882695
O O4 0.500000 0.026791 0.205257
O O5 0.250000 0.995033 0.250000
O O6 0.279568 0.090211 0.182380
O O7 0.300605 0.987052 0.126305
O O8 0.834496 0.391086 0.069948
O O9 0.000000 0.403630 0.170732
O O10 0.500000 0.564599 0.056629
O O11 0.693043 0.500000 0.000000
O O12 0.766714 0.598290 0.052815
O O13 0.500000 0.844876 0.479609
O O14 0.242134 0.803349 0.505649
O O15 0.000000 0.250000 0.487350
#
# Coordination Sequence:
#
# PCOD8299775 Si02
#       6
#     8  16  16  16  16   8
#     4  10  21  33  47  71  97 136 184 229 264 308
#     4  11  23  37  54  77 108 141 177 222 270 323
#     4  10  20  34  51  71 101 138 179 225 271 313
#     4  10  20  36  57  80 106 139 181 225 269 322
#     4  10  20  34  55  81 107 137 177 226 271 315
#     4  10  21  35  53  77 108 142 178 221 268 320
#
# _framework density 17.865276000000001
#
# number of rings (size 3 to 8) (size 9 to 14) (size 15 to 20)
#    0.000    1.800    2.000    2.400    0.000    8.400 
#    0.000    0.000    0.000    0.000    0.000    0.700 
#    0.000    0.000    0.000    0.000    0.000    0.000 
#
# Total GULP energy -495650.156604 kJ/mol
# GULP energy per Si atom -12391.253915 kJ/mol
# Density = 1.782461 g / cm^3
# Si number density = 17.865276 Si / 1000 Ang^3
#
#
#
# Elastic Constant Matrix: (Units=GPa)
#
#
# Indices 1 2 3 4 5 6 
#
# 1 155.7627 67.2422 56.5772 0.0000 0.0000 0.0000
# 2 67.2422 90.5284 54.0423 0.0000 0.0000 0.0000
# 3 56.5772 54.0423 100.8539 0.0000 0.0000 0.0000
# 4 0.0000 0.0000 0.0000 24.9219 0.0000 0.0000
# 5 0.0000 0.0000 0.0000 0.0000 24.7101 0.0000
# 6 0.0000 0.0000 0.0000 0.0000 0.0000 22.0357
#
#
#
# Elastic Compliance Matrix: (Units=1/GPa)
#
#
# Indices 1 2 3 4 5 6 
#
# 1 0.009816 -0.005887 -0.002352 0.000000 0.000000 0.000000
# 2 -0.005887 0.019772 -0.007293 0.000000 0.000000 0.000000
# 3 -0.002352 -0.007293 0.015142 0.000000 0.000000 0.000000
# 4 0.000000 0.000000 0.000000 0.040125 0.000000 0.000000
# 5 0.000000 0.000000 0.000000 0.000000 0.040469 0.000000
# 6 0.000000 0.000000 0.000000 0.000000 0.000000 0.045381
#
#
# Mechanical properties :
#
#
# Convention : Reuss Voigt Hill
#
# Bulk Modulus (GPa) = 73.16503 78.09649 75.63076
# Shear Modulus (GPa) = 24.23371 25.61908 24.92640
#
# Velocity S-wave (km/s) = 3.68702 3.79095 3.73935
# Velocity P-wave (km/s) = 7.69209 7.93541 7.81470
#
# Compressibility (1/GPa) = 0.01366773
#
# Stress axis : x y z
#
# Youngs Moduli (GPa) = 101.87857 50.57617 66.03965
#
# Poissons Ratio (x) = 0.29773 0.15532
# Poissons Ratio (y) = 0.59973 0.48159
# Poissons Ratio (z) = 0.23962 0.36883
#
# Static dielectric constant tensor:
#      x y z
#    x 3.367090 0.000000 0.000000 
#    y 0.000000 3.191360 0.000000 
#    z 0.000000 0.000000 3.265110 
# 
# 
# High freq. dielectric constant tensor:
#      x y z
#    x 1.703250 0.000000 0.000000 
#    y 0.000000 1.673930 0.000000 
#    z 0.000000 0.000000 1.672210 
# 
# From -- ./inp_files/48638.got.cif
#   From: 2010.03.12/outbox.cif.g09.slc.cpg/sg74_25_cif.got.tgz:48638.got - 2010.04.16 15:46:19.
