data_PCOD8299513
_publ_section_title
;
Structure prediction by ZEFSAII (Michael W. Deem and Ramdas Pophale) SiO2 
 PCOD8299513
Probable space group: I M M A
;
_chemical_formula_sum "Si O2"
_cell_formula_units_Z 96
_cell_length_a 18.213014
_cell_length_b 13.786366
_cell_length_c 19.270200
_cell_angle_alpha 90.000000
_cell_angle_beta 90.000000
_cell_angle_gamma 90.000000
_cell_volume 4838.579125
_symmetry_space_group_name_H-M "I M M A"
_symmetry_group_IT_number 74
_symmetry_cell_setting 'orthorhombic'
loop_
_space_group_symop_operation_xyz
x,y,z
-x,1/2-y,z
x,-y,-z
-x,1/2+y,-z
-x,-y,-z
x,1/2+y,-z
-x,y,z
x,1/2-y,z
1/2+x,1/2+y,1/2+z
1/2-x,-y,1/2+z
1/2+x,1/2-y,1/2-z
1/2-x,y,1/2-z
1/2-x,1/2-y,1/2-z
1/2+x,y,1/2-z
1/2-x,1/2+y,1/2+z
1/2+x,-y,1/2+z
loop_
_atom_site_type_symbol
_atom_site_label
_atom_site_fract_x
_atom_site_fract_y
_atom_site_fract_z
Si Si1 0.813164 0.860216 0.471822
Si Si2 0.915853 0.861065 0.731868
Si Si3 0.150585 0.858059 0.990549
Si Si4 0.416969 0.358825 0.631007
Si Si5 0.334107 0.959641 0.886868
Si Si6 0.668176 0.041618 0.351178
O O1 0.834801 0.750000 0.453423
O O2 0.725997 0.879704 0.467731
O O3 0.839015 0.884178 0.549651
O O4 0.849710 0.931645 0.415254
O O5 0.903316 0.750000 0.709139
O O6 0.896217 0.931234 0.667839
O O7 0.864276 0.881383 0.797528
O O8 0.000000 0.880366 0.752840
O O9 0.154454 0.750000 0.958016
O O10 0.138857 0.933806 0.928618
O O11 0.086518 0.866900 0.047106
O O12 0.500000 0.381624 0.653865
O O13 0.393885 0.250000 0.654085
O O14 0.362567 0.434869 0.668232
O O15 0.255905 0.953453 0.847802
#
# Coordination Sequence:
#
# PCOD8299513 Si02
#       6
#    16  16  16  16  16  16
#     4   9  17  33  58  88 116 139 178 235 285 329
#     4  11  25  42  57  78 113 151 184 225 281 340
#     4   9  17  30  50  79 113 145 184 231 275 321
#     4  10  20  32  48  75 115 157 191 228 275 325
#     4  10  20  35  60  88 111 144 186 231 280 328
#     4  11  20  34  56  82 108 147 192 231 268 324
#
# _framework density 19.840536
#
# number of rings (size 3 to 8) (size 9 to 14) (size 15 to 20)
#    0.000    2.000    1.667    2.500    0.000    4.667 
#    0.000    4.167    0.000    4.500    0.000    0.000 
#    0.000    0.000    0.000    0.000    0.000    0.000 
#
# Total GULP energy -595247.122768 kJ/mol
# GULP energy per Si atom -12400.981724 kJ/mol
# Density = 1.979538 g / cm^3
# Si number density = 19.840536 Si / 1000 Ang^3
#
#
#
# Elastic Constant Matrix: (Units=GPa)
#
#
# Indices 1 2 3 4 5 6 
#
# 1 39.3662 23.5122 18.7328 0.0000 0.0000 0.0000
# 2 23.5122 126.7910 22.2003 0.0000 0.0000 0.0000
# 3 18.7328 22.2003 52.1491 0.0000 0.0000 0.0000
# 4 0.0000 0.0000 0.0000 30.9471 0.0000 0.0000
# 5 0.0000 0.0000 0.0000 0.0000 21.6947 0.0000
# 6 0.0000 0.0000 0.0000 0.0000 0.0000 25.7897
#
#
#
# Elastic Compliance Matrix: (Units=1/GPa)
#
#
# Indices 1 2 3 4 5 6 
#
# 1 0.032701 -0.004330 -0.009903 0.000000 0.000000 0.000000
# 2 -0.004330 0.009096 -0.002317 0.000000 0.000000 0.000000
# 3 -0.009903 -0.002317 0.023720 0.000000 0.000000 0.000000
# 4 0.000000 0.000000 0.000000 0.032313 0.000000 0.000000
# 5 0.000000 0.000000 0.000000 0.000000 0.046094 0.000000
# 6 0.000000 0.000000 0.000000 0.000000 0.000000 0.038775
#
#
# Mechanical properties :
#
#
# Convention : Reuss Voigt Hill
#
# Bulk Modulus (GPa) = 30.84893 38.57741 34.71317
# Shear Modulus (GPa) = 22.06483 25.94370 24.00427
#
# Velocity S-wave (km/s) = 3.33845 3.62001 3.48208
# Velocity P-wave (km/s) = 5.51747 6.07936 5.80522
#
# Compressibility (1/GPa) = 0.03241603
#
# Stress axis : x y z
#
# Youngs Moduli (GPa) = 30.57971 109.94319 42.15940
#
# Poissons Ratio (x) = 0.47607 0.41753
# Poissons Ratio (y) = 0.13241 0.09767
# Poissons Ratio (z) = 0.30285 0.25470
#
# Static dielectric constant tensor:
#      x y z
#    x 3.271960 0.000000 0.000000 
#    y 0.000000 3.824330 0.000000 
#    z 0.000000 0.000000 3.268640 
# 
# 
# High freq. dielectric constant tensor:
#      x y z
#    x 1.742460 0.000000 0.000000 
#    y 0.000000 1.792300 0.000000 
#    z 0.000000 0.000000 1.746900 
# 
# From -- ./inp_files/51850.got.cif
#   From: 2010.03.12/outbox.cif.g09.slc.cpg/sg74_26_cif.got.tgz:51850.got - 2010.04.16 15:46:19.
