data_PCOD8299259
_publ_section_title
;
Structure prediction by ZEFSAII (Michael W. Deem and Ramdas Pophale) SiO2 
 PCOD8299259
Probable space group: I M M A
;
_chemical_formula_sum "Si O2"
_cell_formula_units_Z 112
_cell_length_a 24.819868
_cell_length_b 14.293577
_cell_length_c 14.340727
_cell_angle_alpha 90.000000
_cell_angle_beta 90.000000
_cell_angle_gamma 90.000000
_cell_volume 5087.583631
_symmetry_space_group_name_H-M "I M M A"
_symmetry_group_IT_number 74
_symmetry_cell_setting 'orthorhombic'
loop_
_space_group_symop_operation_xyz
x,y,z
-x,1/2-y,z
x,-y,-z
-x,1/2+y,-z
-x,-y,-z
x,1/2+y,-z
-x,y,z
x,1/2-y,z
1/2+x,1/2+y,1/2+z
1/2-x,-y,1/2+z
1/2+x,1/2-y,1/2-z
1/2-x,y,1/2-z
1/2-x,1/2-y,1/2-z
1/2+x,y,1/2-z
1/2-x,1/2+y,1/2+z
1/2+x,-y,1/2+z
loop_
_atom_site_type_symbol
_atom_site_label
_atom_site_fract_x
_atom_site_fract_y
_atom_site_fract_z
Si Si1 0.367048 0.357578 0.861565
Si Si2 0.940289 0.640607 0.900130
Si Si3 0.758533 0.450426 0.591391
Si Si4 0.938594 0.856294 0.542375
Si Si5 0.838369 0.149094 0.998632
Si Si6 0.600334 0.042103 0.223919
Si Si7 0.707000 0.387571 0.307103
O O1 0.374904 0.250000 0.828180
O O2 0.302799 0.374950 0.875749
O O3 0.391103 0.429098 0.783793
O O4 0.398580 0.376496 0.957344
O O5 0.928450 0.750000 0.872906
O O6 0.897936 0.606650 0.980089
O O7 0.937315 0.572630 0.810112
O O8 0.000000 0.630792 0.942326
O O9 0.783197 0.500000 0.500000
O O10 0.698390 0.411866 0.568225
O O11 0.744557 0.521895 0.671945
O O12 0.932088 0.750000 0.577373
O O13 0.924766 0.923914 0.627359
O O14 0.000000 0.875561 0.509551
O O15 0.844047 0.250000 0.950720
O O16 0.810810 0.162862 0.099398
O O17 0.657485 0.090555 0.239514
O O18 0.750000 0.323413 0.250000
#
# Coordination Sequence:
#
# PCOD8299259 Si02
#       7
#    16  16  16  16  16  16  16
#     4  11  23  36  52  76 109 152 197 232 265 319
#     4   9  18  34  58  88 115 139 175 225 284 343
#     4  10  19  36  56  75 109 148 186 224 274 329
#     4  10  22  38  57  83 111 142 185 233 279 332
#     4   9  19  33  54  83 112 142 178 226 281 332
#     4  11  20  34  55  79 110 147 185 222 279 329
#     4  10  20  34  53  77 111 147 181 223 272 332
#
# _framework density 22.014379000000002
#
# number of rings (size 3 to 8) (size 9 to 14) (size 15 to 20)
#    0.000    2.000    1.429    2.571    2.000    3.714 
#    0.000    2.143    0.000   11.571    0.000    0.000 
#    0.000    4.571    0.000    0.000    0.000    0.000 
#
# Total GULP energy -693809.063153 kJ/mol
# GULP energy per Si atom -12389.447556 kJ/mol
# Density = 2.196427 g / cm^3
# Si number density = 22.014379 Si / 1000 Ang^3
#
#
#
# Elastic Constant Matrix: (Units=GPa)
#
#
# Indices 1 2 3 4 5 6 
#
# 1 139.1311 23.3541 21.1155 0.0000 0.0000 0.0000
# 2 23.3541 104.5612 18.1833 0.0000 0.0000 0.0000
# 3 21.1155 18.1833 32.2086 0.0000 0.0000 0.0000
# 4 0.0000 0.0000 0.0000 7.6639 0.0000 0.0000
# 5 0.0000 0.0000 0.0000 0.0000 24.4653 0.0000
# 6 0.0000 0.0000 0.0000 0.0000 0.0000 -16.2620
#
#
#
# Elastic Compliance Matrix: (Units=1/GPa)
#
#
# Indices 1 2 3 4 5 6 
#
# 1 0.008071 -0.000979 -0.004739 0.000000 0.000000 0.000000
# 2 -0.000979 0.010724 -0.005412 0.000000 0.000000 0.000000
# 3 -0.004739 -0.005412 0.037210 0.000000 0.000000 0.000000
# 4 0.000000 0.000000 0.000000 0.130481 0.000000 0.000000
# 5 0.000000 0.000000 0.000000 0.000000 0.040874 0.000000
# 6 0.000000 0.000000 0.000000 0.000000 0.000000 -0.061493
#
#
# Mechanical properties :
#
#
# Convention : Reuss Voigt Hill
#
# Bulk Modulus (GPa) = 29.63415 44.57852 37.10633
# Shear Modulus (GPa) = 25.07849 17.39000 21.23424
#
# Velocity S-wave (km/s) = 3.37885 2.81363 3.10911
# Velocity P-wave (km/s) = 5.35842 5.55419 5.45718
#
# Compressibility (1/GPa) = 0.03374486
#
# Stress axis : x y z
#
# Youngs Moduli (GPa) = 123.90179 93.25247 26.87462
#
# Poissons Ratio (x) = 0.09126 0.12735
# Poissons Ratio (y) = 0.12125 0.14546
# Poissons Ratio (z) = 0.58714 0.50472
#
# Static dielectric constant tensor:
#      x y z
#    x 4.186750 0.000000 0.000000 
#    y 0.000000 3.992800 0.000000 
#    z 0.000000 0.000000 4.523400 
# 
# 
# High freq. dielectric constant tensor:
#      x y z
#    x 1.880350 0.000000 0.000000 
#    y 0.000000 1.861600 0.000000 
#    z 0.000000 0.000000 1.841260 
# 
# From -- ./inp_files/32882.got.cif
#   From: 2010.03.12/outbox.cif.g09.slc.cpg/sg74_17_cif.got.tgz:32882.got - 2010.04.16 15:46:19.
