data_PCOD8299058
_publ_section_title
;
Structure prediction by ZEFSAII (Michael W. Deem and Ramdas Pophale) SiO2 
 PCOD8299058
Probable space group: I M M A
;
_chemical_formula_sum "Si O2"
_cell_formula_units_Z 88
_cell_length_a 9.683692
_cell_length_b 22.299036
_cell_length_c 20.719795
_cell_angle_alpha 90.000000
_cell_angle_beta 90.000000
_cell_angle_gamma 90.000000
_cell_volume 4474.170301
_symmetry_space_group_name_H-M "I M M A"
_symmetry_group_IT_number 74
_symmetry_cell_setting 'orthorhombic'
loop_
_space_group_symop_operation_xyz
x,y,z
-x,1/2-y,z
x,-y,-z
-x,1/2+y,-z
-x,-y,-z
x,1/2+y,-z
-x,y,z
x,1/2-y,z
1/2+x,1/2+y,1/2+z
1/2-x,-y,1/2+z
1/2+x,1/2-y,1/2-z
1/2-x,y,1/2-z
1/2-x,1/2-y,1/2-z
1/2+x,y,1/2-z
1/2-x,1/2+y,1/2+z
1/2+x,-y,1/2+z
loop_
_atom_site_type_symbol
_atom_site_label
_atom_site_fract_x
_atom_site_fract_y
_atom_site_fract_z
Si Si1 0.250000 0.908781 0.750000
Si Si2 0.844357 0.013616 0.136854
Si Si3 0.653927 0.182848 0.145879
Si Si4 0.161521 0.885445 0.099913
Si Si5 0.344164 0.179582 0.807308
Si Si6 0.160947 0.881719 0.948640
O O1 0.159719 0.954343 0.793341
O O2 0.337673 0.865343 0.796087
O O3 0.778970 0.056960 0.082622
O O4 0.000000 0.001992 0.115724
O O5 0.779249 0.947208 0.132030
O O6 0.500000 0.178402 0.117541
O O7 0.683164 0.250000 0.172754
O O8 0.758376 0.172047 0.086505
O O9 0.260996 0.833932 0.127166
O O10 0.000000 0.872619 0.116104
O O11 0.187580 0.884636 0.023984
O O12 0.500000 0.151846 0.806612
O O13 0.357450 0.250000 0.799099
O O14 0.250000 0.151810 0.750000
O O15 0.000000 0.873035 0.931851
#
# Coordination Sequence:
#
# PCOD8299058 Si02
#       6
#     8  16  16  16  16  16
#     4  10  19  34  54  80 113 146 184 228 278 332
#     4   9  18  33  54  79 110 147 183 222 270 326
#     4  10  21  36  55  80 112 149 188 232 280 327
#     4  10  20  35  58  85 111 143 183 226 275 330
#     4  10  22  40  59  80 108 142 179 223 275 329
#     4   9  19  36  56  79 110 148 187 226 271 326
#
# _framework density 19.66845
#
# number of rings (size 3 to 8) (size 9 to 14) (size 15 to 20)
#    0.000    2.364    0.000    1.909    1.273    5.818 
#    0.000    7.273    0.000    5.455    0.000    0.000 
#    0.000    0.000    0.000    0.000    0.000    0.000 
#
# Total GULP energy -545257.623970 kJ/mol
# GULP energy per Si atom -12392.218727 kJ/mol
# Density = 1.962368 g / cm^3
# Si number density = 19.668450 Si / 1000 Ang^3
#
#
#
# Elastic Constant Matrix: (Units=GPa)
#
#
# Indices 1 2 3 4 5 6 
#
# 1 101.2072 30.6886 51.8443 0.0000 0.0000 0.0000
# 2 30.6886 51.7464 35.0034 0.0000 0.0000 0.0000
# 3 51.8443 35.0034 114.6413 0.0000 0.0000 0.0000
# 4 0.0000 0.0000 0.0000 25.3558 0.0000 0.0000
# 5 0.0000 0.0000 0.0000 0.0000 30.4973 0.0000
# 6 0.0000 0.0000 0.0000 0.0000 0.0000 23.1735
#
#
#
# Elastic Compliance Matrix: (Units=1/GPa)
#
#
# Indices 1 2 3 4 5 6 
#
# 1 0.013815 -0.005000 -0.004721 0.000000 0.000000 0.000000
# 2 -0.005000 0.026165 -0.005728 0.000000 0.000000 0.000000
# 3 -0.004721 -0.005728 0.012607 0.000000 0.000000 0.000000
# 4 0.000000 0.000000 0.000000 0.039439 0.000000 0.000000
# 5 0.000000 0.000000 0.000000 0.000000 0.032790 0.000000
# 6 0.000000 0.000000 0.000000 0.000000 0.000000 0.043153
#
#
# Mechanical properties :
#
#
# Convention : Reuss Voigt Hill
#
# Bulk Modulus (GPa) = 46.10551 55.85196 50.97874
# Shear Modulus (GPa) = 24.26068 25.80922 25.03495
#
# Velocity S-wave (km/s) = 3.51591 3.62638 3.57157
# Velocity P-wave (km/s) = 6.32253 6.78178 6.55618
#
# Compressibility (1/GPa) = 0.02168938
#
# Stress axis : x y z
#
# Youngs Moduli (GPa) = 72.38425 38.21954 79.32239
#
# Poissons Ratio (x) = 0.19108 0.37449
# Poissons Ratio (y) = 0.36189 0.45435
# Poissons Ratio (z) = 0.34173 0.21892
#
# Static dielectric constant tensor:
#      x y z
#    x 3.516390 0.000000 0.000000 
#    y 0.000000 3.680400 0.000000 
#    z 0.000000 0.000000 3.504950 
# 
# 
# High freq. dielectric constant tensor:
#      x y z
#    x 1.750500 0.000000 0.000000 
#    y 0.000000 1.768270 0.000000 
#    z 0.000000 0.000000 1.764680 
# 
# From -- ./inp_files/48728.got.cif
#   From: 2010.03.12/outbox.cif.g09.slc.cpg/sg74_25_cif.got.tgz:48728.got - 2010.04.16 15:46:19.
