data_PCOD8299336
_publ_section_title
;
Structure prediction by ZEFSAII (Michael W. Deem and Ramdas Pophale) SiO2 
 PCOD8299336
Probable space group: I M M A
;
_chemical_formula_sum "Si O2"
_cell_formula_units_Z 80
_cell_length_a 14.733705
_cell_length_b 23.350072
_cell_length_c 11.004715
_cell_angle_alpha 90.000000
_cell_angle_beta 90.000000
_cell_angle_gamma 90.000000
_cell_volume 3785.985914
_symmetry_space_group_name_H-M "I M M A"
_symmetry_group_IT_number 74
_symmetry_cell_setting 'orthorhombic'
loop_
_space_group_symop_operation_xyz
x,y,z
-x,1/2-y,z
x,-y,-z
-x,1/2+y,-z
-x,-y,-z
x,1/2+y,-z
-x,y,z
x,1/2-y,z
1/2+x,1/2+y,1/2+z
1/2-x,-y,1/2+z
1/2+x,1/2-y,1/2-z
1/2-x,y,1/2-z
1/2-x,1/2-y,1/2-z
1/2+x,y,1/2-z
1/2-x,1/2+y,1/2+z
1/2+x,-y,1/2+z
loop_
_atom_site_type_symbol
_atom_site_label
_atom_site_fract_x
_atom_site_fract_y
_atom_site_fract_z
Si Si1 0.733249 0.910579 0.378144
Si Si2 0.396352 0.419515 0.055376
Si Si3 0.648437 0.684852 0.784109
Si Si4 0.603255 0.012505 0.295155
Si Si5 0.097539 0.873010 0.943963
O O1 0.750000 0.878725 0.250000
O O2 0.827834 0.928064 0.442783
O O3 0.677711 0.864835 0.458863
O O4 0.673493 0.966088 0.343885
O O5 0.500000 0.427796 0.008808
O O6 0.388094 0.355543 0.109280
O O7 0.373431 0.466896 0.158047
O O8 0.638044 0.750000 0.828893
O O9 0.750000 0.667544 0.750000
O O10 0.594023 0.675921 0.658721
O O11 0.500000 0.989186 0.301963
O O12 0.615789 0.066073 0.382778
O O13 0.000000 0.872172 0.010610
#
# Coordination Sequence:
#
# PCOD8299336 Si02
#       5
#    16  16  16  16  16
#     4  12  25  35  58  82 118 170 204 239 290 352
#     4  10  23  42  60  89 127 156 198 256 305 357
#     4  10  19  37  70 100 117 146 195 252 319 369
#     4   9  21  38  59  84 113 155 204 251 299 349
#     4  10  21  38  59  87 120 149 193 251 304 356
#
# _framework density 21.130559999999999
#
# number of rings (size 3 to 8) (size 9 to 14) (size 15 to 20)
#    0.000    1.800    2.000    3.000    5.600    4.800 
#    0.000    2.000    0.000    2.400    0.000    2.800 
#    0.000    0.000    0.000    0.000    0.000    0.000 
#
# Total GULP energy -495833.072663 kJ/mol
# GULP energy per Si atom -12395.826817 kJ/mol
# Density = 2.108247 g / cm^3
# Si number density = 21.130560 Si / 1000 Ang^3
#
#
#
# Elastic Constant Matrix: (Units=GPa)
#
#
# Indices 1 2 3 4 5 6 
#
# 1 143.8700 26.0941 69.1812 -0.0002 0.0000 0.0000
# 2 26.0941 64.5021 17.4897 -0.0003 -0.0001 0.0001
# 3 69.1812 17.4897 125.2002 -0.0016 0.0012 0.0004
# 4 -0.0002 -0.0003 -0.0016 14.1872 0.0004 0.0002
# 5 0.0000 -0.0001 0.0012 0.0004 30.0024 -0.0001
# 6 0.0000 0.0001 0.0004 0.0002 -0.0001 21.2679
#
#
#
# Elastic Compliance Matrix: (Units=1/GPa)
#
#
# Indices 1 2 3 4 5 6 
#
# 1 0.009872 -0.002614 -0.005090 -0.000001 0.000000 0.000000
# 2 -0.002614 0.016806 -0.000903 0.000000 0.000000 0.000000
# 3 -0.005090 -0.000903 0.010926 0.000001 0.000000 0.000000
# 4 -0.000001 0.000000 0.000001 0.070486 -0.000001 -0.000001
# 5 0.000000 0.000000 0.000000 -0.000001 0.033331 0.000000
# 6 0.000000 0.000000 0.000000 -0.000001 0.000000 0.047019
#
#
# Mechanical properties :
#
#
# Convention : Reuss Voigt Hill
#
# Bulk Modulus (GPa) = 49.04410 62.12247 55.58329
# Shear Modulus (GPa) = 23.53489 27.81200 25.67344
#
# Velocity S-wave (km/s) = 3.34096 3.63188 3.48945
# Velocity P-wave (km/s) = 6.17601 6.85934 6.52663
#
# Compressibility (1/GPa) = 0.02038981
#
# Stress axis : x y z
#
# Youngs Moduli (GPa) = 101.29315 59.50366 91.52516
#
# Poissons Ratio (x) = 0.15552 0.46586
# Poissons Ratio (y) = 0.26475 0.08269
# Poissons Ratio (z) = 0.51558 0.05376
#
# Static dielectric constant tensor:
#      x y z
#    x 4.207270 0.000000 0.000000 
#    y 0.000000 3.390450 0.000000 
#    z 0.000000 0.000000 4.173790 
# 
# 
# High freq. dielectric constant tensor:
#      x y z
#    x 1.856590 0.000000 0.000000 
#    y 0.000000 1.783410 0.000000 
#    z 0.000000 0.000000 1.818350 
# 
# From -- ./inp_files/20803.got.cif
#   From: 2010.03.12/outbox.cif.g09.slc.cpg/sg74_11_cif.got.tgz:20803.got - 2010.04.16 15:46:19.
