data_PCOD8299327
_publ_section_title
;
Structure prediction by ZEFSAII (Michael W. Deem and Ramdas Pophale) SiO2 
 PCOD8299327
Probable space group: I M M A
;
_chemical_formula_sum "Si O2"
_cell_formula_units_Z 72
_cell_length_a 16.944488
_cell_length_b 15.746947
_cell_length_c 13.194858
_cell_angle_alpha 90.000000
_cell_angle_beta 90.000000
_cell_angle_gamma 90.000000
_cell_volume 3520.704190
_symmetry_space_group_name_H-M "I M M A"
_symmetry_group_IT_number 74
_symmetry_cell_setting 'orthorhombic'
loop_
_space_group_symop_operation_xyz
x,y,z
-x,1/2-y,z
x,-y,-z
-x,1/2+y,-z
-x,-y,-z
x,1/2+y,-z
-x,y,z
x,1/2-y,z
1/2+x,1/2+y,1/2+z
1/2-x,-y,1/2+z
1/2+x,1/2-y,1/2-z
1/2-x,y,1/2-z
1/2-x,1/2-y,1/2-z
1/2+x,y,1/2-z
1/2-x,1/2+y,1/2+z
1/2+x,-y,1/2+z
loop_
_atom_site_type_symbol
_atom_site_label
_atom_site_fract_x
_atom_site_fract_y
_atom_site_fract_z
Si Si1 0.300312 0.076254 0.337713
Si Si2 0.588104 0.346865 0.495908
Si Si3 0.811195 0.000000 0.500000
Si Si4 0.908711 0.430755 0.795183
Si Si5 0.407661 0.153499 0.911506
O O1 0.250000 0.124863 0.250000
O O2 0.350179 0.141479 0.405103
O O3 0.243104 0.018024 0.404010
O O4 0.359844 0.015792 0.275772
O O5 0.500000 0.377124 0.462807
O O6 0.585877 0.250000 0.528139
O O7 0.617060 0.396844 0.594606
O O8 0.863336 0.084313 0.519677
O O9 0.890235 0.362774 0.707443
O O10 0.000000 0.455111 0.794315
O O11 0.500000 0.144308 0.935139
O O12 0.379143 0.250000 0.936636
#
# Coordination Sequence:
#
# PCOD8299327 Si02
#       5
#    16  16   8  16  16
#     4  12  23  38  57  86 122 160 198 245 304 359
#     4  10  21  38  61  88 118 156 202 250 302 361
#     4  12  23  40  61  90 126 164 198 244 307 362
#     4  10  19  37  64  90 117 151 195 249 303 359
#     4  10  22  41  65  92 121 157 203 251 300 360
#
# _framework density 20.450455000000002
#
# number of rings (size 3 to 8) (size 9 to 14) (size 15 to 20)
#    0.000    1.333    4.444    1.667    0.000    5.778 
#    0.000    1.111    0.000    2.667    0.000    0.000 
#    0.000    0.000    0.000    0.000    0.000    0.000 
#
# Total GULP energy -446316.083641 kJ/mol
# GULP energy per Si atom -12397.668990 kJ/mol
# Density = 2.040391 g / cm^3
# Si number density = 20.450455 Si / 1000 Ang^3
#
#
#
# Elastic Constant Matrix: (Units=GPa)
#
#
# Indices 1 2 3 4 5 6 
#
# 1 73.7428 35.9815 42.6076 0.0000 0.0000 0.0000
# 2 35.9815 88.1033 21.5026 0.0000 0.0000 0.0000
# 3 42.6076 21.5026 81.1507 0.0000 0.0000 0.0000
# 4 0.0000 0.0000 0.0000 31.7775 0.0000 0.0000
# 5 0.0000 0.0000 0.0000 0.0000 11.6624 0.0000
# 6 0.0000 0.0000 0.0000 0.0000 0.0000 21.1444
#
#
#
# Elastic Compliance Matrix: (Units=1/GPa)
#
#
# Indices 1 2 3 4 5 6 
#
# 1 0.022741 -0.006814 -0.010134 0.000000 0.000000 0.000000
# 2 -0.006814 0.014177 -0.000179 0.000000 0.000000 0.000000
# 3 -0.010134 -0.000179 0.017691 0.000000 0.000000 0.000000
# 4 0.000000 0.000000 0.000000 0.031469 0.000000 0.000000
# 5 0.000000 0.000000 0.000000 0.000000 0.085745 0.000000
# 6 0.000000 0.000000 0.000000 0.000000 0.000000 0.047294
#
#
# Mechanical properties :
#
#
# Convention : Reuss Voigt Hill
#
# Bulk Modulus (GPa) = 49.12947 49.24224 49.18585
# Shear Modulus (GPa) = 19.21921 22.44387 20.83154
#
# Velocity S-wave (km/s) = 3.06893 3.31641 3.19507
# Velocity P-wave (km/s) = 6.05257 6.22863 6.14123
#
# Compressibility (1/GPa) = 0.02035438
#
# Stress axis : x y z
#
# Youngs Moduli (GPa) = 43.97353 70.53779 56.52545
#
# Poissons Ratio (x) = 0.48064 0.57285
# Poissons Ratio (y) = 0.29964 0.01011
# Poissons Ratio (z) = 0.44565 0.01261
#
# Static dielectric constant tensor:
#      x y z
#    x 3.909420 0.000000 0.000000 
#    y 0.000000 3.479520 0.000000 
#    z 0.000000 0.000000 3.697600 
# 
# 
# High freq. dielectric constant tensor:
#      x y z
#    x 1.811140 0.000000 0.000000 
#    y 0.000000 1.783150 0.000000 
#    z 0.000000 0.000000 1.796340 
# 
# From -- ./inp_files/21851.got.cif
#   From: 2010.03.12/outbox.cif.g09.slc.cpg/sg74_11_cif.got.tgz:21851.got - 2010.04.16 15:46:19.
