data_PCOD8299609
_publ_section_title
;
Structure prediction by ZEFSAII (Michael W. Deem and Ramdas Pophale) SiO2 
 PCOD8299609
Probable space group: I M M A
;
_chemical_formula_sum "Si O2"
_cell_formula_units_Z 80
_cell_length_a 14.021365
_cell_length_b 11.032512
_cell_length_c 25.976216
_cell_angle_alpha 90.000000
_cell_angle_beta 90.000000
_cell_angle_gamma 90.000000
_cell_volume 4018.283650
_symmetry_space_group_name_H-M "I M M A"
_symmetry_group_IT_number 74
_symmetry_cell_setting 'orthorhombic'
loop_
_space_group_symop_operation_xyz
x,y,z
-x,1/2-y,z
x,-y,-z
-x,1/2+y,-z
-x,-y,-z
x,1/2+y,-z
-x,y,z
x,1/2-y,z
1/2+x,1/2+y,1/2+z
1/2-x,-y,1/2+z
1/2+x,1/2-y,1/2-z
1/2-x,y,1/2-z
1/2-x,1/2-y,1/2-z
1/2+x,y,1/2-z
1/2-x,1/2+y,1/2+z
1/2+x,-y,1/2+z
loop_
_atom_site_type_symbol
_atom_site_label
_atom_site_fract_x
_atom_site_fract_y
_atom_site_fract_z
Si Si1 0.888712 0.112224 0.536235
Si Si2 0.890995 0.517812 0.821038
Si Si3 0.385590 0.250000 0.141007
Si Si4 0.388900 0.750000 0.743070
Si Si5 0.391191 0.886054 0.220574
Si Si6 0.204262 0.004741 0.371470
O O1 0.868353 0.250000 0.514619
O O2 0.000000 0.098568 0.548633
O O3 0.855469 0.000000 0.500000
O O4 0.830178 0.098253 0.589156
O O5 0.857381 0.634271 0.789027
O O6 0.878614 0.405924 0.781718
O O7 0.820205 0.506334 0.869991
O O8 0.000000 0.527983 0.841460
O O9 0.500000 0.250000 0.135420
O O10 0.345095 0.250000 0.199587
O O11 0.342397 0.132855 0.111960
O O12 0.500000 0.750000 0.752692
O O13 0.500000 0.912624 0.204881
O O14 0.360445 0.750000 0.208168
O O15 0.328200 0.975806 0.186714
#
# Coordination Sequence:
#
# PCOD8299609 Si02
#       6
#    16  16   8   8  16  16
#     4  10  23  43  65  89 116 145 179 230 294 359
#     4  10  21  35  50  76 113 153 194 233 271 319
#     4  11  21  31  52  86 117 149 192 238 282 335
#     4   9  17  33  49  70 115 157 190 231 271 314
#     4  10  20  33  49  74 110 147 183 226 276 335
#     4  12  22  33  57  82 109 149 190 232 281 340
#
# _framework density 19.908996999999999
#
# number of rings (size 3 to 8) (size 9 to 14) (size 15 to 20)
#    0.000    1.600    2.000    3.600    1.400    4.800 
#    0.000    0.000    0.000    0.600    0.000    0.000 
#    0.000    0.000    0.000    0.000    0.000    0.000 
#
# Total GULP energy -495894.747332 kJ/mol
# GULP energy per Si atom -12397.368683 kJ/mol
# Density = 1.986368 g / cm^3
# Si number density = 19.908997 Si / 1000 Ang^3
#
#
#
# Elastic Constant Matrix: (Units=GPa)
#
#
# Indices 1 2 3 4 5 6 
#
# 1 98.7761 40.0614 28.7618 0.0000 0.0000 0.0000
# 2 40.0614 111.9854 25.7860 0.0000 0.0000 0.0000
# 3 28.7618 25.7860 43.6413 0.0000 0.0000 0.0000
# 4 0.0000 0.0000 0.0000 29.9990 0.0000 0.0000
# 5 0.0000 0.0000 0.0000 0.0000 23.3398 0.0000
# 6 0.0000 0.0000 0.0000 0.0000 0.0000 19.9014
#
#
#
# Elastic Compliance Matrix: (Units=1/GPa)
#
#
# Indices 1 2 3 4 5 6 
#
# 1 0.013455 -0.003208 -0.006972 0.000000 0.000000 0.000000
# 2 -0.003208 0.011101 -0.004445 0.000000 0.000000 0.000000
# 3 -0.006972 -0.004445 0.030135 0.000000 0.000000 0.000000
# 4 0.000000 0.000000 0.000000 0.033334 0.000000 0.000000
# 5 0.000000 0.000000 0.000000 0.000000 0.042845 0.000000
# 6 0.000000 0.000000 0.000000 0.000000 0.000000 0.050248
#
#
# Mechanical properties :
#
#
# Convention : Reuss Voigt Hill
#
# Bulk Modulus (GPa) = 39.30602 49.29122 44.29862
# Shear Modulus (GPa) = 22.84680 25.30095 24.07387
#
# Velocity S-wave (km/s) = 3.39124 3.56874 3.48112
# Velocity P-wave (km/s) = 5.92619 6.46477 6.20133
#
# Compressibility (1/GPa) = 0.02544139
#
# Stress axis : x y z
#
# Youngs Moduli (GPa) = 74.32099 90.08335 33.18369
#
# Poissons Ratio (x) = 0.28899 0.23136
# Poissons Ratio (y) = 0.23842 0.14750
# Poissons Ratio (z) = 0.51817 0.40040
#
# Static dielectric constant tensor:
#      x y z
#    x 3.602070 0.000000 0.000000 
#    y 0.000000 3.815660 0.000000 
#    z 0.000000 0.000000 3.163930 
# 
# 
# High freq. dielectric constant tensor:
#      x y z
#    x 1.766580 0.000000 0.000000 
#    y 0.000000 1.795090 0.000000 
#    z 0.000000 0.000000 1.722080 
# 
# From -- ./inp_files/58555.got.cif
#   From: 2010.03.12/outbox.cif.g09.slc.cpg/sg74_30_cif.got.tgz:58555.got - 2010.04.16 15:46:19.
