data_PCOD8299281
_publ_section_title
;
Structure prediction by ZEFSAII (Michael W. Deem and Ramdas Pophale) SiO2 
 PCOD8299281
Probable space group: I M M A
;
_chemical_formula_sum "Si O2"
_cell_formula_units_Z 96
_cell_length_a 15.446347
_cell_length_b 19.802735
_cell_length_c 15.868345
_cell_angle_alpha 90.000000
_cell_angle_beta 90.000000
_cell_angle_gamma 90.000000
_cell_volume 4853.808041
_symmetry_space_group_name_H-M "I M M A"
_symmetry_group_IT_number 74
_symmetry_cell_setting 'orthorhombic'
loop_
_space_group_symop_operation_xyz
x,y,z
-x,1/2-y,z
x,-y,-z
-x,1/2+y,-z
-x,-y,-z
x,1/2+y,-z
-x,y,z
x,1/2-y,z
1/2+x,1/2+y,1/2+z
1/2-x,-y,1/2+z
1/2+x,1/2-y,1/2-z
1/2-x,y,1/2-z
1/2-x,1/2-y,1/2-z
1/2+x,y,1/2-z
1/2-x,1/2+y,1/2+z
1/2+x,-y,1/2+z
loop_
_atom_site_type_symbol
_atom_site_label
_atom_site_fract_x
_atom_site_fract_y
_atom_site_fract_z
Si Si1 0.000000 0.669155 0.255765
Si Si2 0.000000 0.170248 0.936997
Si Si3 0.099353 0.322966 0.242383
Si Si4 0.212129 0.926919 0.500981
Si Si5 0.898014 0.446993 0.345610
Si Si6 0.350234 0.827692 0.554680
Si Si7 0.669206 0.409594 0.811722
O O1 0.087585 0.639226 0.295404
O O2 0.000000 0.750000 0.267189
O O3 0.000000 0.646542 0.158690
O O4 0.085898 0.142931 0.982863
O O5 0.000000 0.250000 0.947829
O O6 0.143701 0.250000 0.263288
O O7 0.142553 0.382657 0.296277
O O8 0.000000 0.318815 0.268981
O O9 0.104082 0.338006 0.143742
O O10 0.124632 0.940574 0.555364
O O11 0.264885 0.872228 0.553073
O O12 0.194892 0.896871 0.408737
O O13 0.260819 0.000000 0.500000
O O14 0.856645 0.512420 0.300985
O O15 0.000000 0.452723 0.335348
O O16 0.325433 0.750000 0.537919
O O17 0.750000 0.391859 0.750000
#
# Coordination Sequence:
#
# PCOD8299281 Si02
#       7
#     8   8  16  16  16  16  16
#     4  11  24  42  66  89 114 158 210 258 320 370
#     4   9  18  36  60  84 116 155 194 244 309 373
#     4   9  18  34  58  90 123 156 194 240 297 364
#     4  10  24  38  58  86 121 159 204 251 301 355
#     4  10  22  40  64  86 122 167 204 242 298 368
#     4  10  19  36  60  88 123 160 197 243 308 370
#     4  11  24  42  64  90 123 156 208 261 310 361
#
# _framework density 19.778285
#
# number of rings (size 3 to 8) (size 9 to 14) (size 15 to 20)
#    0.000    2.000    1.667    1.000    5.833    2.667 
#    0.000    2.083    0.000    0.000    0.000    0.000 
#    0.000    0.000    0.000    0.000    0.000    0.000 
#
# Total GULP energy -595018.363320 kJ/mol
# GULP energy per Si atom -12396.215902 kJ/mol
# Density = 1.973327 g / cm^3
# Si number density = 19.778285 Si / 1000 Ang^3
#
#
#
# Elastic Constant Matrix: (Units=GPa)
#
#
# Indices 1 2 3 4 5 6 
#
# 1 83.1513 38.0522 21.9152 0.0000 0.0000 0.0000
# 2 38.0522 113.6727 42.3928 -0.0001 0.0000 0.0000
# 3 21.9152 42.3928 92.1118 -0.0002 0.0000 0.0000
# 4 0.0000 -0.0001 -0.0002 31.9214 0.0000 0.0000
# 5 0.0000 0.0000 0.0000 0.0000 24.8725 0.0000
# 6 0.0000 0.0000 0.0000 0.0000 0.0000 22.2625
#
#
#
# Elastic Compliance Matrix: (Units=1/GPa)
#
#
# Indices 1 2 3 4 5 6 
#
# 1 0.014361 -0.004265 -0.001454 0.000000 0.000000 0.000000
# 2 -0.004265 0.011887 -0.004456 0.000000 0.000000 0.000000
# 3 -0.001454 -0.004456 0.013253 0.000000 0.000000 0.000000
# 4 0.000000 0.000000 0.000000 0.031327 0.000000 0.000000
# 5 0.000000 0.000000 0.000000 0.000000 0.040205 0.000000
# 6 0.000000 0.000000 0.000000 0.000000 0.000000 0.044919
#
#
# Mechanical properties :
#
#
# Convention : Reuss Voigt Hill
#
# Bulk Modulus (GPa) = 52.21623 54.85067 53.53345
# Shear Modulus (GPa) = 27.36945 28.24965 27.80955
#
# Velocity S-wave (km/s) = 3.72400 3.78341 3.75382
# Velocity P-wave (km/s) = 6.70440 6.84679 6.77597
#
# Compressibility (1/GPa) = 0.01915113
#
# Stress axis : x y z
#
# Youngs Moduli (GPa) = 69.63130 84.12718 75.45460
#
# Poissons Ratio (x) = 0.35883 0.10970
# Poissons Ratio (y) = 0.29700 0.33622
# Poissons Ratio (z) = 0.10123 0.37486
#
# Static dielectric constant tensor:
#      x y z
#    x 3.453610 0.000000 0.000000 
#    y 0.000000 3.815380 0.000000 
#    z 0.000000 0.000000 3.603930 
# 
# 
# High freq. dielectric constant tensor:
#      x y z
#    x 1.761940 0.000000 0.000000 
#    y 0.000000 1.772780 0.000000 
#    z 0.000000 0.000000 1.776660 
# 
# From -- ./inp_files/32440.got.cif
#   From: 2010.03.12/outbox.cif.g09.slc.cpg/sg74_17_cif.got.tgz:32440.got - 2010.04.16 15:46:19.
