data_PCOD8299288
_publ_section_title
;
Structure prediction by ZEFSAII (Michael W. Deem and Ramdas Pophale) SiO2 
 PCOD8299288
Probable space group: I M M A
;
_chemical_formula_sum "Si O2"
_cell_formula_units_Z 80
_cell_length_a 17.510332
_cell_length_b 24.498736
_cell_length_c 9.066099
_cell_angle_alpha 90.000000
_cell_angle_beta 90.000000
_cell_angle_gamma 90.000000
_cell_volume 3889.184224
_symmetry_space_group_name_H-M "I M M A"
_symmetry_group_IT_number 74
_symmetry_cell_setting 'orthorhombic'
loop_
_space_group_symop_operation_xyz
x,y,z
-x,1/2-y,z
x,-y,-z
-x,1/2+y,-z
-x,-y,-z
x,1/2+y,-z
-x,y,z
x,1/2-y,z
1/2+x,1/2+y,1/2+z
1/2-x,-y,1/2+z
1/2+x,1/2-y,1/2-z
1/2-x,y,1/2-z
1/2-x,1/2-y,1/2-z
1/2+x,y,1/2-z
1/2-x,1/2+y,1/2+z
1/2+x,-y,1/2+z
loop_
_atom_site_type_symbol
_atom_site_label
_atom_site_fract_x
_atom_site_fract_y
_atom_site_fract_z
Si Si1 0.409415 0.250000 0.007908
Si Si2 0.591200 0.750000 0.324656
Si Si3 0.909044 0.145391 0.994464
Si Si4 0.091037 0.639459 0.667566
Si Si5 0.085390 0.963030 0.142815
Si Si6 0.318135 0.466940 0.142224
O O1 0.500000 0.250000 0.009645
O O2 0.380917 0.305071 0.088236
O O3 0.377147 0.250000 0.841697
O O4 0.500000 0.750000 0.324143
O O5 0.623629 0.801755 0.412517
O O6 0.875266 0.093821 0.905624
O O7 0.000000 0.143832 0.991159
O O8 0.882332 0.144321 0.163241
O O9 0.134130 0.587230 0.597055
O O10 0.000000 0.630821 0.651740
O O11 0.000000 0.952337 0.200398
O O12 0.128436 0.989952 0.276962
O O13 0.084175 0.000000 0.000000
O O14 0.250000 0.449340 0.250000
O O15 0.286488 0.500000 0.000000
#
# Coordination Sequence:
#
# PCOD8299288 Si02
#       6
#     8   8  16  16  16  16
#     4   9  19  33  54  89 127 153 191 250 302 349
#     4   9  17  29  49  85 124 154 186 236 300 354
#     4   9  17  30  55  84 115 152 187 233 293 357
#     4  10  20  38  63  91 121 157 199 245 299 362
#     4  10  19  36  61  90 119 149 192 248 302 360
#     4  12  27  42  59  85 119 164 205 254 304 362
#
# _framework density 20.569868
#
# number of rings (size 3 to 8) (size 9 to 14) (size 15 to 20)
#    0.000    2.000    2.000    1.800    2.800    4.000 
#    0.000    0.500    0.000    0.000    0.000    2.800 
#    0.000    0.000    0.000    0.000    0.000    0.000 
#
# Total GULP energy -495945.815184 kJ/mol
# GULP energy per Si atom -12398.645380 kJ/mol
# Density = 2.052305 g / cm^3
# Si number density = 20.569868 Si / 1000 Ang^3
#
#
#
# Elastic Constant Matrix: (Units=GPa)
#
#
# Indices 1 2 3 4 5 6 
#
# 1 38.6817 24.5310 16.1484 0.0000 0.0000 0.0000
# 2 24.5310 180.4179 48.7710 0.0000 0.0000 0.0000
# 3 16.1484 48.7710 81.2920 0.0000 0.0000 0.0000
# 4 0.0000 0.0000 0.0000 41.8766 0.0000 0.0000
# 5 0.0000 0.0000 0.0000 0.0000 17.2249 0.0000
# 6 0.0000 0.0000 0.0000 0.0000 0.0000 7.1801
#
#
#
# Elastic Compliance Matrix: (Units=1/GPa)
#
#
# Indices 1 2 3 4 5 6 
#
# 1 0.029398 -0.002887 -0.004108 0.000000 0.000000 0.000000
# 2 -0.002887 0.006899 -0.003566 0.000000 0.000000 0.000000
# 3 -0.004108 -0.003566 0.015257 0.000000 0.000000 0.000000
# 4 0.000000 0.000000 0.000000 0.023880 0.000000 0.000000
# 5 0.000000 0.000000 0.000000 0.000000 0.058056 0.000000
# 6 0.000000 0.000000 0.000000 0.000000 0.000000 0.139274
#
#
# Mechanical properties :
#
#
# Convention : Reuss Voigt Hill
#
# Bulk Modulus (GPa) = 32.85929 53.25470 43.05700
# Shear Modulus (GPa) = 16.44593 27.31906 21.88249
#
# Velocity S-wave (km/s) = 2.83064 3.64828 3.26515
# Velocity P-wave (km/s) = 5.16648 6.61003 5.93232
#
# Compressibility (1/GPa) = 0.03043279
#
# Stress axis : x y z
#
# Youngs Moduli (GPa) = 34.01642 144.94741 65.54560
#
# Poissons Ratio (x) = 0.41841 0.26925
# Poissons Ratio (y) = 0.09819 0.23371
# Poissons Ratio (z) = 0.13974 0.51683
#
# Static dielectric constant tensor:
#      x y z
#    x 3.293910 0.000000 0.000000 
#    y 0.000000 3.884220 0.000000 
#    z 0.000000 0.000000 4.179430 
# 
# 
# High freq. dielectric constant tensor:
#      x y z
#    x 1.752580 0.000000 0.000000 
#    y 0.000000 1.822940 0.000000 
#    z 0.000000 0.000000 1.806370 
# 
# From -- ./inp_files/12578.got.cif
#   From: 2010.03.12/outbox.cif.g09.slc.cpg/sg74_7_cif.got.tgz:12578.got - 2010.04.16 15:46:19.
