data_PCOD8299388
_publ_section_title
;
Structure prediction by ZEFSAII (Michael W. Deem and Ramdas Pophale) SiO2 
 PCOD8299388
Probable space group: I M M A
;
_chemical_formula_sum "Si O2"
_cell_formula_units_Z 96
_cell_length_a 15.524026
_cell_length_b 19.128542
_cell_length_c 20.297796
_cell_angle_alpha 90.000000
_cell_angle_beta 90.000000
_cell_angle_gamma 90.000000
_cell_volume 6027.470780
_symmetry_space_group_name_H-M "I M M A"
_symmetry_group_IT_number 74
_symmetry_cell_setting 'orthorhombic'
loop_
_space_group_symop_operation_xyz
x,y,z
-x,1/2-y,z
x,-y,-z
-x,1/2+y,-z
-x,-y,-z
x,1/2+y,-z
-x,y,z
x,1/2-y,z
1/2+x,1/2+y,1/2+z
1/2-x,-y,1/2+z
1/2+x,1/2-y,1/2-z
1/2-x,y,1/2-z
1/2-x,1/2-y,1/2-z
1/2+x,y,1/2-z
1/2-x,1/2+y,1/2+z
1/2+x,-y,1/2+z
loop_
_atom_site_type_symbol
_atom_site_label
_atom_site_fract_x
_atom_site_fract_y
_atom_site_fract_z
Si Si1 0.597778 0.830664 0.100681
Si Si2 0.245269 0.518164 0.603209
Si Si3 0.664219 0.565877 0.209117
Si Si4 0.238220 0.113923 0.509831
Si Si5 0.906532 0.958847 0.158519
Si Si6 0.902425 0.829505 0.069874
O O1 0.500000 0.856212 0.085456
O O2 0.598441 0.750000 0.119584
O O3 0.635914 0.869618 0.164098
O O4 0.656675 0.841639 0.035548
O O5 0.179052 0.502314 0.662646
O O6 0.225191 0.591836 0.567112
O O7 0.241527 0.456209 0.551266
O O8 0.341545 0.518178 0.633208
O O9 0.750000 0.586317 0.250000
O O10 0.591814 0.546603 0.262163
O O11 0.329039 0.155569 0.514961
O O12 0.884106 0.881443 0.130767
O O13 0.000000 0.983094 0.134163
O O14 0.892236 0.750000 0.095313
O O15 0.000000 0.841028 0.041603
#
# Coordination Sequence:
#
# PCOD8299388 Si02
#       6
#    16  16  16  16  16  16
#     4  10  20  31  43  62  87 115 148 179 206 244
#     4   8  16  28  41  58  79 107 146 181 208 247
#     4   9  17  29  43  60  85 114 142 175 210 245
#     4   9  16  29  44  57  80 113 144 178 216 244
#     4   9  16  26  41  61  87 115 140 170 207 246
#     4   9  17  27  41  64  90 115 143 171 202 247
#
# _framework density 15.927078
#
# number of rings (size 3 to 8) (size 9 to 14) (size 15 to 20)
#    0.000    3.000    0.000    2.000    0.000    1.667 
#    0.000   12.500    0.000    0.000    0.000    0.000 
#    0.000   24.000    0.000   34.333    0.000    2.833 
#
# Total GULP energy -594704.974343 kJ/mol
# GULP energy per Si atom -12389.686965 kJ/mol
# Density = 1.589083 g / cm^3
# Si number density = 15.927078 Si / 1000 Ang^3
#
#
#
# Elastic Constant Matrix: (Units=GPa)
#
#
# Indices 1 2 3 4 5 6 
#
# 1 93.5743 26.7429 40.0557 0.0000 0.0000 0.0000
# 2 26.7429 31.5447 41.6088 0.0000 0.0000 0.0000
# 3 40.0557 41.6088 81.6649 0.0000 0.0000 0.0000
# 4 0.0000 0.0000 0.0000 22.2050 0.0000 0.0000
# 5 0.0000 0.0000 0.0000 0.0000 13.6897 0.0000
# 6 0.0000 0.0000 0.0000 0.0000 0.0000 16.3757
#
#
#
# Elastic Compliance Matrix: (Units=1/GPa)
#
#
# Indices 1 2 3 4 5 6 
#
# 1 0.014276 -0.008741 -0.002548 0.000000 0.000000 0.000000
# 2 -0.008741 0.102021 -0.047693 0.000000 0.000000 0.000000
# 3 -0.002548 -0.047693 0.037795 0.000000 0.000000 0.000000
# 4 0.000000 0.000000 0.000000 0.045035 0.000000 0.000000
# 5 0.000000 0.000000 0.000000 0.000000 0.073048 0.000000
# 6 0.000000 0.000000 0.000000 0.000000 0.000000 0.061066
#
#
# Mechanical properties :
#
#
# Convention : Reuss Voigt Hill
#
# Bulk Modulus (GPa) = 27.68049 47.06653 37.37351
# Shear Modulus (GPa) = 10.79339 17.01251 13.90295
#
# Velocity S-wave (km/s) = 2.60604 3.27180 2.95772
# Velocity P-wave (km/s) = 5.14515 6.62483 5.93131
#
# Compressibility (1/GPa) = 0.03612653
#
# Stress axis : x y z
#
# Youngs Moduli (GPa) = 70.04886 9.80195 26.45864
#
# Poissons Ratio (x) = 0.08568 0.06743
# Poissons Ratio (y) = 0.61232 1.26188
# Poissons Ratio (z) = 0.17851 0.46748
#
# Static dielectric constant tensor:
#      x y z
#    x 3.261310 0.000000 0.000000 
#    y 0.000000 2.844250 0.000000 
#    z 0.000000 0.000000 3.218940 
# 
# 
# High freq. dielectric constant tensor:
#      x y z
#    x 1.624560 0.000000 0.000000 
#    y 0.000000 1.570670 0.000000 
#    z 0.000000 0.000000 1.590950 
# 
# From -- ./inp_files/44135.got.cif
#   From: 2010.03.12/outbox.cif.g09.slc.cpg/sg74_23_cif.got.tgz:44135.got - 2010.04.16 15:46:19.
