data_PCOD8299788
_publ_section_title
;
Structure prediction by ZEFSAII (Michael W. Deem and Ramdas Pophale) SiO2 
 PCOD8299788
Probable space group: I M M A
;
_chemical_formula_sum "Si O2"
_cell_formula_units_Z 96
_cell_length_a 19.482172
_cell_length_b 8.805576
_cell_length_c 30.156548
_cell_angle_alpha 90.000000
_cell_angle_beta 90.000000
_cell_angle_gamma 90.000000
_cell_volume 5173.408468
_symmetry_space_group_name_H-M "I M M A"
_symmetry_group_IT_number 74
_symmetry_cell_setting 'orthorhombic'
loop_
_space_group_symop_operation_xyz
x,y,z
-x,1/2-y,z
x,-y,-z
-x,1/2+y,-z
-x,-y,-z
x,1/2+y,-z
-x,y,z
x,1/2-y,z
1/2+x,1/2+y,1/2+z
1/2-x,-y,1/2+z
1/2+x,1/2-y,1/2-z
1/2-x,y,1/2-z
1/2-x,1/2-y,1/2-z
1/2+x,y,1/2-z
1/2-x,1/2+y,1/2+z
1/2+x,-y,1/2+z
loop_
_atom_site_type_symbol
_atom_site_label
_atom_site_fract_x
_atom_site_fract_y
_atom_site_fract_z
Si Si1 0.709352 0.070417 0.048631
Si Si2 0.074338 0.427810 0.548127
Si Si3 0.923503 0.928525 0.736134
Si Si4 0.704500 0.928439 0.377847
Si Si5 0.578191 0.925388 0.662200
Si Si6 0.210255 0.570521 0.292987
O O1 0.707928 0.250000 0.045096
O O2 0.638543 0.009860 0.072155
O O3 0.772849 0.016684 0.078195
O O4 0.717702 0.000000 0.000000
O O5 0.069542 0.500000 0.500000
O O6 0.090536 0.250000 0.544195
O O7 0.000000 0.454204 0.572157
O O8 0.914364 0.750000 0.731331
O O9 0.912776 0.978112 0.787034
O O10 0.000000 0.977167 0.720546
O O11 0.867665 0.010681 0.705488
O O12 0.711722 0.750000 0.385726
O O13 0.750756 0.985917 0.336776
O O14 0.625616 0.970318 0.368590
O O15 0.500000 0.950287 0.646813
O O16 0.599402 0.750000 0.656954
O O17 0.208325 0.750000 0.290916
O O18 0.250000 0.504421 0.250000
#
# Coordination Sequence:
#
# PCOD8299788 Si02
#       6
#    16  16  16  16  16  16
#     4  11  22  37  57  80 108 141 182 227 277 327
#     4   9  16  28  49  76 104 134 171 215 263 314
#     4   9  18  32  51  76 107 144 184 224 267 317
#     4  11  22  36  55  80 111 143 182 225 270 324
#     4   9  18  33  53  79 109 140 178 222 267 319
#     4  10  20  34  51  77 109 142 178 219 265 314
#
# _framework density 18.556432999999998
#
# number of rings (size 3 to 8) (size 9 to 14) (size 15 to 20)
#    0.000    2.167    1.667    4.500    0.000    3.333 
#    0.000    2.500    0.000    1.500    0.000    0.000 
#    0.000    0.000    0.000    0.000    0.000    0.000 
#
# Total GULP energy -595087.580043 kJ/mol
# GULP energy per Si atom -12397.657918 kJ/mol
# Density = 1.851420 g / cm^3
# Si number density = 18.556433 Si / 1000 Ang^3
#
#
#
# Elastic Constant Matrix: (Units=GPa)
#
#
# Indices 1 2 3 4 5 6 
#
# 1 122.1504 39.1144 41.5950 0.0000 0.0000 0.0000
# 2 39.1144 85.5143 34.6655 0.0000 0.0000 0.0000
# 3 41.5950 34.6655 63.2799 0.0000 0.0000 0.0000
# 4 0.0000 0.0000 0.0000 22.4067 0.0000 0.0000
# 5 0.0000 0.0000 0.0000 0.0000 24.6034 0.0000
# 6 0.0000 0.0000 0.0000 0.0000 0.0000 37.1722
#
#
#
# Elastic Compliance Matrix: (Units=1/GPa)
#
#
# Indices 1 2 3 4 5 6 
#
# 1 0.011013 -0.002703 -0.005758 0.000000 0.000000 0.000000
# 2 -0.002703 0.015696 -0.006821 0.000000 0.000000 0.000000
# 3 -0.005758 -0.006821 0.023325 0.000000 0.000000 0.000000
# 4 0.000000 0.000000 0.000000 0.044630 0.000000 0.000000
# 5 0.000000 0.000000 0.000000 0.000000 0.040645 0.000000
# 6 0.000000 0.000000 0.000000 0.000000 0.000000 0.026902
#
#
# Mechanical properties :
#
#
# Convention : Reuss Voigt Hill
#
# Bulk Modulus (GPa) = 51.36716 55.74383 53.55549
# Shear Modulus (GPa) = 25.09229 27.20776 26.15003
#
# Velocity S-wave (km/s) = 3.68124 3.83328 3.75803
# Velocity P-wave (km/s) = 6.76834 7.04964 6.91042
#
# Compressibility (1/GPa) = 0.01946769
#
# Stress axis : x y z
#
# Youngs Moduli (GPa) = 90.80150 63.71209 42.87302
#
# Poissons Ratio (x) = 0.17222 0.24687
# Poissons Ratio (y) = 0.24545 0.29246
# Poissons Ratio (z) = 0.52286 0.43461
#
# Static dielectric constant tensor:
#      x y z
#    x 3.797260 0.000000 0.000000 
#    y 0.000000 3.316680 0.000000 
#    z 0.000000 0.000000 3.092230 
# 
# 
# High freq. dielectric constant tensor:
#      x y z
#    x 1.731990 0.000000 0.000000 
#    y 0.000000 1.721720 0.000000 
#    z 0.000000 0.000000 1.678620 
# 
# From -- ./inp_files/64373.got.cif
#   From: 2010.03.12/outbox.cif.g09.slc.cpg/sg74_33_cif.got.tgz:64373.got - 2010.04.16 15:46:19.
