data_PCOD8299132
_publ_section_title
;
Structure prediction by ZEFSAII (Michael W. Deem and Ramdas Pophale) SiO2 
 PCOD8299132
Probable space group: I M M A
;
_chemical_formula_sum "Si O2"
_cell_formula_units_Z 96
_cell_length_a 17.812321
_cell_length_b 14.374604
_cell_length_c 17.722457
_cell_angle_alpha 90.000000
_cell_angle_beta 90.000000
_cell_angle_gamma 90.000000
_cell_volume 4537.747578
_symmetry_space_group_name_H-M "I M M A"
_symmetry_group_IT_number 74
_symmetry_cell_setting 'orthorhombic'
loop_
_space_group_symop_operation_xyz
x,y,z
-x,1/2-y,z
x,-y,-z
-x,1/2+y,-z
-x,-y,-z
x,1/2+y,-z
-x,y,z
x,1/2-y,z
1/2+x,1/2+y,1/2+z
1/2-x,-y,1/2+z
1/2+x,1/2-y,1/2-z
1/2-x,y,1/2-z
1/2-x,1/2-y,1/2-z
1/2+x,y,1/2-z
1/2-x,1/2+y,1/2+z
1/2+x,-y,1/2+z
loop_
_atom_site_type_symbol
_atom_site_label
_atom_site_fract_x
_atom_site_fract_y
_atom_site_fract_z
Si Si1 0.209941 0.478585 0.088361
Si Si2 0.697657 0.145095 0.891083
Si Si3 0.918993 0.142915 0.491666
Si Si4 0.918062 0.850196 0.258387
Si Si5 0.085722 0.953844 0.803203
Si Si6 0.341565 0.857514 0.841963
O O1 0.231381 0.578912 0.124696
O O2 0.130780 0.437524 0.118909
O O3 0.270367 0.403321 0.116841
O O4 0.204454 0.500000 0.000000
O O5 0.725678 0.250000 0.908983
O O6 0.646276 0.141487 0.818899
O O7 0.649156 0.098480 0.960073
O O8 0.919740 0.250000 0.517130
O O9 0.908704 0.134186 0.401964
O O10 0.000000 0.097234 0.511172
O O11 0.909127 0.750000 0.216086
O O12 0.000000 0.853828 0.298954
O O13 0.913537 0.934753 0.200957
O O14 0.131626 0.908229 0.734112
O O15 0.000000 0.914805 0.807528
O O16 0.322661 0.750000 0.823129
#
# Coordination Sequence:
#
# PCOD8299132 Si02
#       6
#    16  16  16  16  16  16
#     4  12  25  42  63  92 125 164 215 263 320 385
#     4  10  19  34  57  89 128 165 199 243 308 383
#     4   9  17  31  55  88 125 163 199 239 302 382
#     4   9  18  34  58  90 126 159 194 243 305 372
#     4  11  25  43  64  90 123 166 216 266 317 378
#     4  11  23  42  66  95 129 166 212 271 329 386
#
# _framework density 21.155871000000001
#
# number of rings (size 3 to 8) (size 9 to 14) (size 15 to 20)
#    0.000    1.667    3.333    1.500    0.000    5.333 
#    0.000    2.500    0.000    0.000    0.000    4.667 
#    0.000    0.000    0.000    0.000    0.000    0.000 
#
# Total GULP energy -594633.209477 kJ/mol
# GULP energy per Si atom -12388.191864 kJ/mol
# Density = 2.110772 g / cm^3
# Si number density = 21.155871 Si / 1000 Ang^3
#
#
#
# Elastic Constant Matrix: (Units=GPa)
#
#
# Indices 1 2 3 4 5 6 
#
# 1 101.3773 24.2032 53.3212 0.0000 0.0000 0.0000
# 2 24.2032 95.5561 13.3690 0.0000 0.0000 0.0000
# 3 53.3212 13.3690 63.6943 0.0000 0.0000 0.0000
# 4 0.0000 0.0000 0.0000 18.8676 0.0000 0.0000
# 5 0.0000 0.0000 0.0000 0.0000 38.5571 0.0000
# 6 0.0000 0.0000 0.0000 0.0000 0.0000 11.7845
#
#
#
# Elastic Compliance Matrix: (Units=1/GPa)
#
#
# Indices 1 2 3 4 5 6 
#
# 1 0.018210 -0.002555 -0.014708 0.000000 0.000000 0.000000
# 2 -0.002555 0.011140 -0.000200 0.000000 0.000000 0.000000
# 3 -0.014708 -0.000200 0.028055 0.000000 0.000000 0.000000
# 4 0.000000 0.000000 0.000000 0.053001 0.000000 0.000000
# 5 0.000000 0.000000 0.000000 0.000000 0.025936 0.000000
# 6 0.000000 0.000000 0.000000 0.000000 0.000000 0.084857
#
#
# Mechanical properties :
#
#
# Convention : Reuss Voigt Hill
#
# Bulk Modulus (GPa) = 44.48416 49.15718 46.82067
# Shear Modulus (GPa) = 18.96692 25.15746 22.06219
#
# Velocity S-wave (km/s) = 2.99746 3.45214 3.23281
# Velocity P-wave (km/s) = 5.74911 6.25906 6.00950
#
# Compressibility (1/GPa) = 0.02247991
#
# Stress axis : x y z
#
# Youngs Moduli (GPa) = 54.91458 89.76630 35.64452
#
# Poissons Ratio (x) = 0.22932 0.52427
# Poissons Ratio (y) = 0.14028 0.00712
# Poissons Ratio (z) = 0.80770 0.01792
#
# Static dielectric constant tensor:
#      x y z
#    x 3.936050 0.000000 0.000000 
#    y 0.000000 4.123040 0.000000 
#    z 0.000000 0.000000 3.563740 
# 
# 
# High freq. dielectric constant tensor:
#      x y z
#    x 1.823350 0.000000 0.000000 
#    y 0.000000 1.833920 0.000000 
#    z 0.000000 0.000000 1.801350 
# 
# From -- ./inp_files/51920.got.cif
#   From: 2010.03.12/outbox.cif.g09.slc.cpg/sg74_26_cif.got.tgz:51920.got - 2010.04.16 15:46:19.
