data_PCOD8299839
_publ_section_title
;
Structure prediction by ZEFSAII (Michael W. Deem and Ramdas Pophale) SiO2 
 PCOD8299839
Probable space group: I M M A
;
_chemical_formula_sum "Si O2"
_cell_formula_units_Z 72
_cell_length_a 21.250194
_cell_length_b 9.129610
_cell_length_c 19.344720
_cell_angle_alpha 90.000000
_cell_angle_beta 90.000000
_cell_angle_gamma 90.000000
_cell_volume 3752.991432
_symmetry_space_group_name_H-M "I M M A"
_symmetry_group_IT_number 74
_symmetry_cell_setting 'orthorhombic'
loop_
_space_group_symop_operation_xyz
x,y,z
-x,1/2-y,z
x,-y,-z
-x,1/2+y,-z
-x,-y,-z
x,1/2+y,-z
-x,y,z
x,1/2-y,z
1/2+x,1/2+y,1/2+z
1/2-x,-y,1/2+z
1/2+x,1/2-y,1/2-z
1/2-x,y,1/2-z
1/2-x,1/2-y,1/2-z
1/2+x,y,1/2-z
1/2-x,1/2+y,1/2+z
1/2+x,-y,1/2+z
loop_
_atom_site_type_symbol
_atom_site_label
_atom_site_fract_x
_atom_site_fract_y
_atom_site_fract_z
Si Si1 0.426955 0.416546 0.807069
Si Si2 0.378113 0.579113 0.341934
Si Si3 0.865416 0.420494 0.430705
Si Si4 0.780066 0.421414 0.069891
Si Si5 0.000000 0.077672 0.927100
O O1 0.500000 0.438012 0.789814
O O2 0.413162 0.250000 0.830222
O O3 0.388083 0.455593 0.738519
O O4 0.406915 0.525077 0.867323
O O5 0.364537 0.750000 0.354019
O O6 0.318286 0.485388 0.365673
O O7 0.438926 0.527704 0.384652
O O8 0.888588 0.500000 0.500000
O O9 0.877248 0.250000 0.441210
O O10 0.792704 0.456420 0.415659
O O11 0.793114 0.250000 0.061857
O O12 0.803279 0.500000 0.000000
O O13 0.000000 0.250000 0.938946
O O14 0.000000 0.000000 0.000000
#
# Coordination Sequence:
#
# PCOD8299839 Si02
#       5
#    16  16  16  16   8
#     4  10  21  39  61  84 114 151 189 233 282 335
#     4  10  20  36  57  81 114 152 189 230 279 334
#     4  10  22  40  61  85 113 146 187 236 286 340
#     4  10  21  37  57  83 115 149 189 236 283 333
#     4  10  20  34  52  78 111 148 189 230 271 320
#
# _framework density 19.184695999999999
#
# number of rings (size 3 to 8) (size 9 to 14) (size 15 to 20)
#    0.000    2.000    1.111    2.000    0.000    8.000 
#    0.000    4.444    0.000    0.000    0.000    0.000 
#    0.000    0.000    0.000    0.000    0.000    0.000 
#
# Total GULP energy -446602.480216 kJ/mol
# GULP energy per Si atom -12405.624450 kJ/mol
# Density = 1.914103 g / cm^3
# Si number density = 19.184696 Si / 1000 Ang^3
#
#
#
# Elastic Constant Matrix: (Units=GPa)
#
#
# Indices 1 2 3 4 5 6 
#
# 1 42.0638 29.5227 31.0483 0.0000 0.0000 0.0000
# 2 29.5227 77.7073 49.7371 0.0000 0.0000 0.0000
# 3 31.0483 49.7371 113.0419 0.0000 0.0000 0.0000
# 4 0.0000 0.0000 0.0000 37.2955 0.0000 0.0000
# 5 0.0000 0.0000 0.0000 0.0000 37.7189 0.0000
# 6 0.0000 0.0000 0.0000 0.0000 0.0000 33.5282
#
#
#
# Elastic Compliance Matrix: (Units=1/GPa)
#
#
# Indices 1 2 3 4 5 6 
#
# 1 0.034448 -0.009788 -0.005155 0.000000 0.000000 0.000000
# 2 -0.009788 0.020695 -0.006417 0.000000 0.000000 0.000000
# 3 -0.005155 -0.006417 0.013086 0.000000 0.000000 0.000000
# 4 0.000000 0.000000 0.000000 0.026813 0.000000 0.000000
# 5 0.000000 0.000000 0.000000 0.000000 0.026512 0.000000
# 6 0.000000 0.000000 0.000000 0.000000 0.000000 0.029826
#
#
# Mechanical properties :
#
#
# Convention : Reuss Voigt Hill
#
# Bulk Modulus (GPa) = 39.20286 50.38103 44.79194
# Shear Modulus (GPa) = 24.67889 29.87550 27.27720
#
# Velocity S-wave (km/s) = 3.59051 3.95049 3.77479
# Velocity P-wave (km/s) = 6.13741 6.86488 6.51131
#
# Compressibility (1/GPa) = 0.02550834
#
# Stress axis : x y z
#
# Youngs Moduli (GPa) = 29.02899 48.32130 76.42012
#
# Poissons Ratio (x) = 0.47298 0.39394
# Poissons Ratio (y) = 0.28414 0.49039
# Poissons Ratio (z) = 0.14964 0.31008
#
# Static dielectric constant tensor:
#      x y z
#    x 3.474630 0.000000 0.000000 
#    y 0.000000 3.453870 0.000000 
#    z 0.000000 0.000000 3.483630 
# 
# 
# High freq. dielectric constant tensor:
#      x y z
#    x 1.746450 0.000000 0.000000 
#    y 0.000000 1.745440 0.000000 
#    z 0.000000 0.000000 1.751830 
# 
# From -- ./inp_files/39441.got.cif
#   From: 2010.03.12/outbox.cif.g09.slc.cpg/sg74_20_cif.got.tgz:39441.got - 2010.04.16 15:46:19.
