data_PCOD8299669
_publ_section_title
;
Structure prediction by ZEFSAII (Michael W. Deem and Ramdas Pophale) SiO2 
 PCOD8299669
Probable space group: I M M A
;
_chemical_formula_sum "Si O2"
_cell_formula_units_Z 96
_cell_length_a 17.660355
_cell_length_b 19.394926
_cell_length_c 13.607834
_cell_angle_alpha 90.000000
_cell_angle_beta 90.000000
_cell_angle_gamma 90.000000
_cell_volume 4660.972697
_symmetry_space_group_name_H-M "I M M A"
_symmetry_group_IT_number 74
_symmetry_cell_setting 'orthorhombic'
loop_
_space_group_symop_operation_xyz
x,y,z
-x,1/2-y,z
x,-y,-z
-x,1/2+y,-z
-x,-y,-z
x,1/2+y,-z
-x,y,z
x,1/2-y,z
1/2+x,1/2+y,1/2+z
1/2-x,-y,1/2+z
1/2+x,1/2-y,1/2-z
1/2-x,y,1/2-z
1/2-x,1/2-y,1/2-z
1/2+x,y,1/2-z
1/2-x,1/2+y,1/2+z
1/2+x,-y,1/2+z
loop_
_atom_site_type_symbol
_atom_site_label
_atom_site_fract_x
_atom_site_fract_y
_atom_site_fract_z
Si Si1 0.411518 0.554986 0.414547
Si Si2 0.661104 0.328963 0.467994
Si Si3 0.189886 0.892534 0.625904
Si Si4 0.916257 0.577478 0.460983
Si Si5 0.172098 0.538134 0.281549
Si Si6 0.918094 0.327903 0.226010
O O1 0.397148 0.500000 0.500000
O O2 0.500000 0.572323 0.402232
O O3 0.363635 0.624285 0.439126
O O4 0.380226 0.522071 0.313117
O O5 0.676181 0.250000 0.502603
O O6 0.733312 0.358542 0.410310
O O7 0.592023 0.331935 0.391261
O O8 0.129998 0.878628 0.539484
O O9 0.155357 0.859848 0.723646
O O10 0.201069 0.972015 0.655908
O O11 0.920415 0.500000 0.500000
O O12 0.876187 0.585125 0.355300
O O13 0.000000 0.608949 0.451005
O O14 0.250000 0.576481 0.250000
O O15 0.922406 0.250000 0.262074
O O16 0.000000 0.363983 0.250491
#
# Coordination Sequence:
#
# PCOD8299669 Si02
#       6
#    16  16  16  16  16  16
#     4  11  23  38  59  88 120 157 204 255 305 361
#     4  11  23  39  59  86 122 162 204 249 304 372
#     4  11  20  34  57  83 114 149 189 240 300 361
#     4   9  19  34  53  79 110 146 187 233 290 354
#     4  11  21  34  55  83 115 148 188 241 299 356
#     4  10  20  33  51  77 109 146 187 232 286 348
#
# _framework density 20.59656
#
# number of rings (size 3 to 8) (size 9 to 14) (size 15 to 20)
#    0.000    1.500    0.000    6.500    0.000    7.000 
#    0.000    0.000    0.000    5.500    0.000    0.000 
#    0.000    0.000    0.000    0.000    0.000    0.000 
#
# Total GULP energy -595005.201956 kJ/mol
# GULP energy per Si atom -12395.941707 kJ/mol
# Density = 2.054968 g / cm^3
# Si number density = 20.596560 Si / 1000 Ang^3
#
#
#
# Elastic Constant Matrix: (Units=GPa)
#
#
# Indices 1 2 3 4 5 6 
#
# 1 130.8454 22.7921 38.3754 0.0000 0.0000 0.0000
# 2 22.7921 65.4032 14.9857 0.0000 0.0000 0.0000
# 3 38.3754 14.9857 102.1247 0.0000 0.0000 0.0000
# 4 0.0000 0.0000 0.0000 24.8449 0.0000 0.0000
# 5 0.0000 0.0000 0.0000 0.0000 40.9265 0.0000
# 6 0.0000 0.0000 0.0000 0.0000 0.0000 23.4575
#
#
#
# Elastic Compliance Matrix: (Units=1/GPa)
#
#
# Indices 1 2 3 4 5 6 
#
# 1 0.008947 -0.002429 -0.003006 0.000000 0.000000 0.000000
# 2 -0.002429 0.016481 -0.001506 0.000000 0.000000 0.000000
# 3 -0.003006 -0.001506 0.011142 0.000000 0.000000 0.000000
# 4 0.000000 0.000000 0.000000 0.040250 0.000000 0.000000
# 5 0.000000 0.000000 0.000000 0.000000 0.024434 0.000000
# 6 0.000000 0.000000 0.000000 0.000000 0.000000 0.042630
#
#
# Mechanical properties :
#
#
# Convention : Reuss Voigt Hill
#
# Bulk Modulus (GPa) = 44.07265 50.07552 47.07409
# Shear Modulus (GPa) = 30.24268 32.66047 31.45158
#
# Velocity S-wave (km/s) = 3.83604 3.98644 3.91196
# Velocity P-wave (km/s) = 6.40819 6.74939 6.58100
#
# Compressibility (1/GPa) = 0.02268981
#
# Stress axis : x y z
#
# Youngs Moduli (GPa) = 111.76565 60.67468 89.74803
#
# Poissons Ratio (x) = 0.14740 0.26975
# Poissons Ratio (y) = 0.27152 0.13512
# Poissons Ratio (z) = 0.33593 0.09135
#
# Static dielectric constant tensor:
#      x y z
#    x 4.024830 0.000000 0.000000 
#    y 0.000000 3.413780 0.000000 
#    z 0.000000 0.000000 3.792550 
# 
# 
# High freq. dielectric constant tensor:
#      x y z
#    x 1.830980 0.000000 0.000000 
#    y 0.000000 1.757850 0.000000 
#    z 0.000000 0.000000 1.804330 
# 
# From -- ./inp_files/32404.got.cif
#   From: 2010.03.12/outbox.cif.g09.slc.cpg/sg74_17_cif.got.tgz:32404.got - 2010.04.16 15:46:19.
