data_PCOD8299115
_publ_section_title
;
Structure prediction by ZEFSAII (Michael W. Deem and Ramdas Pophale) SiO2 
 PCOD8299115
Probable space group: I M M A
;
_chemical_formula_sum "Si O2"
_cell_formula_units_Z 104
_cell_length_a 19.415586
_cell_length_b 8.872434
_cell_length_c 32.954391
_cell_angle_alpha 90.000000
_cell_angle_beta 90.000000
_cell_angle_gamma 90.000000
_cell_volume 5676.838911
_symmetry_space_group_name_H-M "I M M A"
_symmetry_group_IT_number 74
_symmetry_cell_setting 'orthorhombic'
loop_
_space_group_symop_operation_xyz
x,y,z
-x,1/2-y,z
x,-y,-z
-x,1/2+y,-z
-x,-y,-z
x,1/2+y,-z
-x,y,z
x,1/2-y,z
1/2+x,1/2+y,1/2+z
1/2-x,-y,1/2+z
1/2+x,1/2-y,1/2-z
1/2-x,y,1/2-z
1/2-x,1/2-y,1/2-z
1/2+x,y,1/2-z
1/2-x,1/2+y,1/2+z
1/2+x,-y,1/2+z
loop_
_atom_site_type_symbol
_atom_site_label
_atom_site_fract_x
_atom_site_fract_y
_atom_site_fract_z
Si Si1 0.580095 0.574258 0.192721
Si Si2 0.328973 0.075861 0.260735
Si Si3 0.180808 0.076283 0.843553
Si Si4 0.000000 0.925764 0.042926
Si Si5 0.173085 0.078337 0.620342
Si Si6 0.275769 0.573755 0.957513
Si Si7 0.130434 0.425162 0.079420
O O1 0.500000 0.532547 0.195136
O O2 0.593626 0.750000 0.202160
O O3 0.621050 0.473955 0.224741
O O4 0.606323 0.535845 0.147141
O O5 0.343409 0.250000 0.270930
O O6 0.250000 0.049268 0.250000
O O7 0.344591 0.971950 0.299341
O O8 0.160278 0.250000 0.851256
O O9 0.262251 0.051210 0.849739
O O10 0.142113 0.964942 0.873961
O O11 0.000000 0.750000 0.036886
O O12 0.932253 0.973091 0.066257
O O13 0.000000 0.000000 0.000000
O O14 0.170888 0.250000 0.605378
O O15 0.175522 0.979497 0.579470
O O16 0.285351 0.750000 0.962075
O O17 0.197024 0.529936 0.947264
O O18 0.297959 0.500000 0.000000
O O19 0.112400 0.250000 0.074680
#
# Coordination Sequence:
#
# PCOD8299115 Si02
#       7
#    16  16  16   8  16  16  16
#     4  10  21  38  59  84 113 147 187 230 279 337
#     4  11  22  35  56  84 115 150 189 234 279 329
#     4  10  19  34  57  81 107 141 183 229 278 331
#     4  12  24  38  56  78 106 146 192 232 280 338
#     4   9  18  33  55  81 109 141 175 219 272 326
#     4  10  20  33  54  82 110 139 175 223 274 326
#     4  10  21  37  55  78 109 143 181 230 282 335
#
# _framework density 18.320056000000001
#
# number of rings (size 3 to 8) (size 9 to 14) (size 15 to 20)
#    0.000    1.846    1.538    3.000    0.000    5.231 
#    1.385    0.000    0.000    0.462    0.000    0.000 
#    0.000    0.000    0.000    0.000    0.000    0.000 
#
# Total GULP energy -644900.265467 kJ/mol
# GULP energy per Si atom -12401.928182 kJ/mol
# Density = 1.827836 g / cm^3
# Si number density = 18.320056 Si / 1000 Ang^3
#
#
#
# Elastic Constant Matrix: (Units=GPa)
#
#
# Indices 1 2 3 4 5 6 
#
# 1 87.4970 37.3815 39.7522 0.0000 0.0000 0.0000
# 2 37.3815 84.4402 45.1401 0.0000 0.0000 0.0000
# 3 39.7522 45.1401 116.9436 0.0000 0.0000 0.0000
# 4 0.0000 0.0000 0.0000 37.2838 0.0000 0.0000
# 5 0.0000 0.0000 0.0000 0.0000 20.5755 0.0000
# 6 0.0000 0.0000 0.0000 0.0000 0.0000 18.6750
#
#
#
# Elastic Compliance Matrix: (Units=1/GPa)
#
#
# Indices 1 2 3 4 5 6 
#
# 1 0.014984 -0.004927 -0.003192 0.000000 0.000000 0.000000
# 2 -0.004927 0.016542 -0.004710 0.000000 0.000000 0.000000
# 3 -0.003192 -0.004710 0.011454 0.000000 0.000000 0.000000
# 4 0.000000 0.000000 0.000000 0.026821 0.000000 0.000000
# 5 0.000000 0.000000 0.000000 0.000000 0.048601 0.000000
# 6 0.000000 0.000000 0.000000 0.000000 0.000000 0.053548
#
#
# Mechanical properties :
#
#
# Convention : Reuss Voigt Hill
#
# Bulk Modulus (GPa) = 57.72993 59.26983 58.49988
# Shear Modulus (GPa) = 24.58417 26.41398 25.49907
#
# Velocity S-wave (km/s) = 3.66721 3.80123 3.73482
# Velocity P-wave (km/s) = 7.03644 7.18947 7.11337
#
# Compressibility (1/GPa) = 0.01732204
#
# Stress axis : x y z
#
# Youngs Moduli (GPa) = 66.73753 60.45213 87.30429
#
# Poissons Ratio (x) = 0.29786 0.27864
# Poissons Ratio (y) = 0.32883 0.41123
# Poissons Ratio (z) = 0.21300 0.28475
#
# Static dielectric constant tensor:
#      x y z
#    x 3.243900 0.000000 0.000000 
#    y 0.000000 3.396470 0.000000 
#    z 0.000000 0.000000 3.423860 
# 
# 
# High freq. dielectric constant tensor:
#      x y z
#    x 1.685340 0.000000 0.000000 
#    y 0.000000 1.719730 0.000000 
#    z 0.000000 0.000000 1.717360 
# 
# From -- ./inp_files/70628.got.cif
#   From: 2010.03.12/outbox.cif.g09.slc.cpg/sg74_36_cif.got.tgz:70628.got - 2010.04.16 15:46:19.
