data_PCOD8299794
_publ_section_title
;
Structure prediction by ZEFSAII (Michael W. Deem and Ramdas Pophale) SiO2 
 PCOD8299794
Probable space group: I M M A
;
_chemical_formula_sum "Si O2"
_cell_formula_units_Z 112
_cell_length_a 22.967387
_cell_length_b 26.924490
_cell_length_c 10.505347
_cell_angle_alpha 90.000000
_cell_angle_beta 90.000000
_cell_angle_gamma 90.000000
_cell_volume 6496.350912
_symmetry_space_group_name_H-M "I M M A"
_symmetry_group_IT_number 74
_symmetry_cell_setting 'orthorhombic'
loop_
_space_group_symop_operation_xyz
x,y,z
-x,1/2-y,z
x,-y,-z
-x,1/2+y,-z
-x,-y,-z
x,1/2+y,-z
-x,y,z
x,1/2-y,z
1/2+x,1/2+y,1/2+z
1/2-x,-y,1/2+z
1/2+x,1/2-y,1/2-z
1/2-x,y,1/2-z
1/2-x,1/2-y,1/2-z
1/2+x,y,1/2-z
1/2-x,1/2+y,1/2+z
1/2+x,-y,1/2+z
loop_
_atom_site_type_symbol
_atom_site_label
_atom_site_fract_x
_atom_site_fract_y
_atom_site_fract_z
Si Si1 0.227206 0.406636 0.437090
Si Si2 0.148679 0.464624 0.616000
Si Si3 0.065524 0.557319 0.969578
Si Si4 0.847625 0.805135 0.248884
Si Si5 0.250081 0.305640 0.953812
Si Si6 0.331582 0.946497 0.708759
Si Si7 0.931746 0.394253 0.763185
O O1 0.200954 0.428068 0.569525
O O2 0.247357 0.349353 0.442667
O O3 0.281094 0.442033 0.397431
O O4 0.178981 0.408722 0.325630
O O5 0.128730 0.500000 0.500000
O O6 0.169512 0.497270 0.736636
O O7 0.093580 0.432608 0.660158
O O8 0.107441 0.570185 0.852396
O O9 0.000000 0.569484 0.925349
O O10 0.073213 0.500000 0.000000
O O11 0.082264 0.588446 0.093918
O O12 0.873389 0.750000 0.233285
O O13 0.805847 0.817923 0.131364
O O14 0.809769 0.808525 0.376014
O O15 0.902437 0.841102 0.256218
O O16 0.244285 0.250000 0.013879
O O17 0.000000 0.389825 0.737571
#
# Coordination Sequence:
#
# PCOD8299794 Si02
#       7
#    16  16  16  16  16  16  16
#     4  10  20  36  51  79 110 134 174 218 263 320
#     4  10  21  37  48  75 110 144 175 213 260 315
#     4  10  20  34  52  72  99 138 182 217 248 302
#     4   9  18  33  53  81 108 135 168 215 274 321
#     4   9  17  33  57  78 105 139 169 213 272 322
#     4  10  21  35  50  72 107 144 175 211 260 305
#     4  11  21  35  56  79 104 142 180 218 262 305
#
# _framework density 17.240447
#
# number of rings (size 3 to 8) (size 9 to 14) (size 15 to 20)
#    0.000    2.143    2.857    1.714    0.000    3.429 
#   12.857    3.571    0.000    0.857    0.000    0.000 
#    0.000    0.000    0.000    0.000    0.000    0.000 
#
# Total GULP energy -694215.895631 kJ/mol
# GULP energy per Si atom -12396.712422 kJ/mol
# Density = 1.720121 g / cm^3
# Si number density = 17.240447 Si / 1000 Ang^3
#
#
#
# Elastic Constant Matrix: (Units=GPa)
#
#
# Indices 1 2 3 4 5 6 
#
# 1 103.1059 54.8544 52.5422 0.0000 0.0000 0.0000
# 2 54.8544 117.5604 39.4794 0.0000 0.0000 0.0000
# 3 52.5422 39.4794 63.8307 0.0000 0.0000 0.0000
# 4 0.0000 0.0000 0.0000 26.0796 0.0000 0.0000
# 5 0.0000 0.0000 0.0000 0.0000 30.9624 0.0000
# 6 0.0000 0.0000 0.0000 0.0000 0.0000 26.5983
#
#
#
# Elastic Compliance Matrix: (Units=1/GPa)
#
#
# Indices 1 2 3 4 5 6 
#
# 1 0.018352 -0.004405 -0.012382 0.000000 0.000000 0.000000
# 2 -0.004405 0.011794 -0.003668 0.000000 0.000000 0.000000
# 3 -0.012382 -0.003668 0.028128 0.000000 0.000000 0.000000
# 4 0.000000 0.000000 0.000000 0.038344 0.000000 0.000000
# 5 0.000000 0.000000 0.000000 0.000000 0.032297 0.000000
# 6 0.000000 0.000000 0.000000 0.000000 0.000000 0.037596
#
#
# Mechanical properties :
#
#
# Convention : Reuss Voigt Hill
#
# Bulk Modulus (GPa) = 57.59547 64.24990 60.92269
# Shear Modulus (GPa) = 23.45110 25.90278 24.67694
#
# Velocity S-wave (km/s) = 3.69214 3.88034 3.78741
# Velocity P-wave (km/s) = 7.18718 7.57786 7.38510
#
# Compressibility (1/GPa) = 0.01736248
#
# Stress axis : x y z
#
# Youngs Moduli (GPa) = 54.48943 84.79168 35.55229
#
# Poissons Ratio (x) = 0.37351 0.44021
# Poissons Ratio (y) = 0.24003 0.13042
# Poissons Ratio (z) = 0.67469 0.31104
#
# Static dielectric constant tensor:
#      x y z
#    x 3.157760 0.000000 0.000000 
#    y 0.000000 3.422260 0.000000 
#    z 0.000000 0.000000 3.196250 
# 
# 
# High freq. dielectric constant tensor:
#      x y z
#    x 1.656850 0.000000 0.000000 
#    y 0.000000 1.664050 0.000000 
#    z 0.000000 0.000000 1.653550 
# 
# From -- ./inp_files/24348.got.cif
#   From: 2010.03.12/outbox.cif.g09.slc.cpg/sg74_13_cif.got.tgz:24348.got - 2010.04.16 15:46:19.
