data_PCOD8299208
_publ_section_title
;
Structure prediction by ZEFSAII (Michael W. Deem and Ramdas Pophale) SiO2 
 PCOD8299208
Probable space group: I M M A
;
_chemical_formula_sum "Si O2"
_cell_formula_units_Z 88
_cell_length_a 8.777689
_cell_length_b 17.997905
_cell_length_c 28.960407
_cell_angle_alpha 90.000000
_cell_angle_beta 90.000000
_cell_angle_gamma 90.000000
_cell_volume 4575.165467
_symmetry_space_group_name_H-M "I M M A"
_symmetry_group_IT_number 74
_symmetry_cell_setting 'orthorhombic'
loop_
_space_group_symop_operation_xyz
x,y,z
-x,1/2-y,z
x,-y,-z
-x,1/2+y,-z
-x,-y,-z
x,1/2+y,-z
-x,y,z
x,1/2-y,z
1/2+x,1/2+y,1/2+z
1/2-x,-y,1/2+z
1/2+x,1/2-y,1/2-z
1/2-x,y,1/2-z
1/2-x,1/2-y,1/2-z
1/2+x,y,1/2-z
1/2-x,1/2+y,1/2+z
1/2+x,-y,1/2+z
loop_
_atom_site_type_symbol
_atom_site_label
_atom_site_fract_x
_atom_site_fract_y
_atom_site_fract_z
Si Si1 0.826443 0.074615 0.028777
Si Si2 0.180202 0.750000 0.300706
Si Si3 0.819293 0.455109 0.130470
Si Si4 0.670755 0.662530 0.046631
Si Si5 0.821514 0.379284 0.860640
Si Si6 0.319983 0.833817 0.701510
O O1 0.754098 0.059585 0.079224
O O2 0.000000 0.102996 0.032509
O O3 0.727555 0.137141 0.003551
O O4 0.816150 0.000000 0.000000
O O5 0.250000 0.750000 0.250000
O O6 0.229541 0.823861 0.327817
O O7 0.000000 0.750000 0.296629
O O8 0.771907 0.535886 0.150501
O O9 0.754554 0.390772 0.163626
O O10 0.000000 0.452501 0.127176
O O11 0.500000 0.632292 0.055910
O O12 0.671051 0.750000 0.047429
O O13 0.785064 0.633533 0.085729
O O14 0.000000 0.365653 0.852494
O O15 0.500000 0.840377 0.705427
O O16 0.270664 0.750000 0.687901
O O17 0.250000 0.857574 0.750000
#
# Coordination Sequence:
#
# PCOD8299208 Si02
#       6
#    16   8  16  16  16  16
#     4  10  19  35  57  83 112 147 192 240 285 340
#     4  12  26  44  62  88 120 154 200 252 303 360
#     4   9  19  35  58  88 117 146 190 243 289 344
#     4  11  23  37  54  81 117 155 196 240 286 348
#     4  11  21  38  62  85 113 153 196 243 296 349
#     4   9  18  35  58  82 111 146 182 227 285 342
#
# _framework density 19.234276999999999
#
# number of rings (size 3 to 8) (size 9 to 14) (size 15 to 20)
#    0.000    1.818    2.727    1.909    0.000    2.909 
#    0.000    6.364    0.000    2.182    0.000    0.000 
#    0.000    0.000    0.000    0.000    0.000    0.000 
#
# Total GULP energy -545634.712737 kJ/mol
# GULP energy per Si atom -12400.788926 kJ/mol
# Density = 1.919050 g / cm^3
# Si number density = 19.234277 Si / 1000 Ang^3
#
#
#
# Elastic Constant Matrix: (Units=GPa)
#
#
# Indices 1 2 3 4 5 6 
#
# 1 68.6389 36.8063 33.0971 0.0000 0.0000 0.0000
# 2 36.8063 120.9362 81.5379 0.0000 0.0000 0.0000
# 3 33.0971 81.5379 148.7815 0.0000 0.0000 0.0000
# 4 0.0000 0.0000 0.0000 37.4843 0.0000 0.0000
# 5 0.0000 0.0000 0.0000 0.0000 -3.2436 0.0000
# 6 0.0000 0.0000 0.0000 0.0000 0.0000 20.7956
#
#
#
# Elastic Compliance Matrix: (Units=1/GPa)
#
#
# Indices 1 2 3 4 5 6 
#
# 1 0.017635 -0.004317 -0.001557 0.000000 0.000000 0.000000
# 2 -0.004317 0.014172 -0.006806 0.000000 0.000000 0.000000
# 3 -0.001557 -0.006806 0.010798 0.000000 0.000000 0.000000
# 4 0.000000 0.000000 0.000000 0.026678 0.000000 0.000000
# 5 0.000000 0.000000 0.000000 0.000000 -0.308296 0.000000
# 6 0.000000 0.000000 0.000000 0.000000 0.000000 0.048087
#
#
# Mechanical properties :
#
#
# Convention : Reuss Voigt Hill
#
# Bulk Modulus (GPa) = 57.99364 71.24880 64.62122
# Shear Modulus (GPa) = -31.28555 23.46828 -3.90864
#
# Velocity S-wave (km/s) = -4.03743 3.49682 -1.42707
# Velocity P-wave (km/s) = 2.91242 7.30936 5.56367
#
# Compressibility (1/GPa) = 0.01724327
#
# Stress axis : x y z
#
# Youngs Moduli (GPa) = 56.70598 70.56312 92.61274
#
# Poissons Ratio (x) = 0.30465 0.14418
# Poissons Ratio (y) = 0.24482 0.63034
# Poissons Ratio (z) = 0.08828 0.48027
#
# Static dielectric constant tensor:
#      x y z
#    x 3.465790 0.000000 0.000000 
#    y 0.000000 3.731890 0.000000 
#    z 0.000000 0.000000 3.965200 
# 
# 
# High freq. dielectric constant tensor:
#      x y z
#    x 1.731710 0.000000 0.000000 
#    y 0.000000 1.756980 0.000000 
#    z 0.000000 0.000000 1.748980 
# 
# From -- ./inp_files/70225.got.cif
#   From: 2010.03.12/outbox.cif.g09.slc.cpg/sg74_36_cif.got.tgz:70225.got - 2010.04.16 15:46:19.
