data_PCOD8299375
_publ_section_title
;
Structure prediction by ZEFSAII (Michael W. Deem and Ramdas Pophale) SiO2 
 PCOD8299375
Probable space group: I M M A
;
_chemical_formula_sum "Si O2"
_cell_formula_units_Z 104
_cell_length_a 7.859433
_cell_length_b 28.212723
_cell_length_c 26.391276
_cell_angle_alpha 90.000000
_cell_angle_beta 90.000000
_cell_angle_gamma 90.000000
_cell_volume 5851.896138
_symmetry_space_group_name_H-M "I M M A"
_symmetry_group_IT_number 74
_symmetry_cell_setting 'orthorhombic'
loop_
_space_group_symop_operation_xyz
x,y,z
-x,1/2-y,z
x,-y,-z
-x,1/2+y,-z
-x,-y,-z
x,1/2+y,-z
-x,y,z
x,1/2-y,z
1/2+x,1/2+y,1/2+z
1/2-x,-y,1/2+z
1/2+x,1/2-y,1/2-z
1/2-x,y,1/2-z
1/2-x,1/2-y,1/2-z
1/2+x,y,1/2-z
1/2-x,1/2+y,1/2+z
1/2+x,-y,1/2+z
loop_
_atom_site_type_symbol
_atom_site_label
_atom_site_fract_x
_atom_site_fract_y
_atom_site_fract_z
Si Si1 0.312289 0.670462 0.449474
Si Si2 0.000000 0.045543 0.533754
Si Si3 0.302330 0.198050 0.660415
Si Si4 0.500000 0.306384 0.122477
Si Si5 0.818136 0.066586 0.906888
Si Si6 0.500000 0.349098 0.013433
Si Si7 0.808368 0.693913 0.804439
Si Si8 0.809201 0.398793 0.695109
O O1 0.500000 0.687355 0.469142
O O2 0.257392 0.698960 0.399296
O O3 0.321386 0.615969 0.435403
O O4 0.168075 0.677343 0.491956
O O5 0.162816 0.037824 0.569833
O O6 0.000000 0.094842 0.501783
O O7 0.000000 0.000000 0.500000
O O8 0.500000 0.185679 0.667320
O O9 0.256670 0.250000 0.682494
O O10 0.198038 0.158434 0.690607
O O11 0.500000 0.250000 0.109641
O O12 0.500000 0.339968 0.073229
O O13 0.669947 0.320975 0.153407
O O14 0.803428 0.075193 0.846815
O O15 0.000000 0.040377 0.915869
O O16 0.812799 0.750000 0.800310
O O17 0.750000 0.672965 0.750000
O O18 0.000000 0.675243 0.817947
O O19 0.750000 0.415626 0.750000
O O20 0.000000 0.415402 0.685893
#
# Coordination Sequence:
#
# PCOD8299375 Si02
#       8
#    16   8  16   8  16   8  16  16
#     4   8  16  30  47  63  87 127 165 203 249 299
#     4  10  20  36  58  82 104 134 170 209 260 308
#     4   9  18  31  44  61  87 127 180 226 262 305
#     4  10  20  30  42  70 104 132 168 207 242 283
#     4   9  17  33  53  76 103 126 159 205 250 307
#     4  10  20  32  48  72 104 132 164 208 254 299
#     4   9  15  26  45  66  92 126 164 204 238 275
#     4  11  20  31  47  70  99 132 170 215 266 314
#
# _framework density 17.772017000000002
#
# number of rings (size 3 to 8) (size 9 to 14) (size 15 to 20)
#    0.000    2.615    1.538    2.308    3.231    2.154 
#    0.000    0.000    0.000    0.000    0.000    1.077 
#    0.000    0.000    0.000    0.000    0.000    0.000 
#
# Total GULP energy -644358.220118 kJ/mol
# GULP energy per Si atom -12391.504233 kJ/mol
# Density = 1.773157 g / cm^3
# Si number density = 17.772017 Si / 1000 Ang^3
#
#
#
# Elastic Constant Matrix: (Units=GPa)
#
#
# Indices 1 2 3 4 5 6 
#
# 1 149.6155 12.5195 58.8297 0.0000 0.0000 0.0000
# 2 12.5195 28.5805 13.4586 0.0000 0.0000 0.0000
# 3 58.8297 13.4586 108.5646 0.0000 0.0000 0.0000
# 4 0.0000 0.0000 0.0000 2.3713 0.0000 0.0000
# 5 0.0000 0.0000 0.0000 0.0000 27.3602 0.0000
# 6 0.0000 0.0000 0.0000 0.0000 0.0000 8.2210
#
#
#
# Elastic Compliance Matrix: (Units=1/GPa)
#
#
# Indices 1 2 3 4 5 6 
#
# 1 0.008567 -0.001664 -0.004436 0.000000 0.000000 0.000000
# 2 -0.001664 0.037481 -0.003745 0.000000 0.000000 0.000000
# 3 -0.004436 -0.003745 0.012079 0.000000 0.000000 0.000000
# 4 0.000000 0.000000 0.000000 0.421705 0.000000 0.000000
# 5 0.000000 0.000000 0.000000 0.000000 0.036549 0.000000
# 6 0.000000 0.000000 0.000000 0.000000 0.000000 0.121640
#
#
# Mechanical properties :
#
#
# Convention : Reuss Voigt Hill
#
# Bulk Modulus (GPa) = 26.01602 50.70849 38.36225
# Shear Modulus (GPa) = 7.45685 21.05404 14.25544
#
# Velocity S-wave (km/s) = 2.05060 3.44564 2.83526
# Velocity P-wave (km/s) = 4.50301 6.66518 5.68778
#
# Compressibility (1/GPa) = 0.03843785
#
# Stress axis : x y z
#
# Youngs Moduli (GPa) = 116.72146 26.68009 82.78611
#
# Poissons Ratio (x) = 0.04439 0.36726
# Poissons Ratio (y) = 0.19421 0.31002
# Poissons Ratio (z) = 0.51781 0.09991
#
# Static dielectric constant tensor:
#      x y z
#    x 3.871220 0.000000 0.000000 
#    y 0.000000 2.712010 0.000000 
#    z 0.000000 0.000000 3.187870 
# 
# 
# High freq. dielectric constant tensor:
#      x y z
#    x 1.711180 0.000000 0.000000 
#    y 0.000000 1.614540 0.000000 
#    z 0.000000 0.000000 1.677480 
# 
# From -- ./inp_files/57655.got.cif
#   From: 2010.03.12/outbox.cif.g09.slc.cpg/sg74_29_cif.got.tgz:57655.got - 2010.04.16 15:46:19.
