data_PCOD8299738
_publ_section_title
;
Structure prediction by ZEFSAII (Michael W. Deem and Ramdas Pophale) SiO2 
 PCOD8299738
Probable space group: I M M A
;
_chemical_formula_sum "Si O2"
_cell_formula_units_Z 96
_cell_length_a 14.511530
_cell_length_b 15.107403
_cell_length_c 21.424767
_cell_angle_alpha 90.000000
_cell_angle_beta 90.000000
_cell_angle_gamma 90.000000
_cell_volume 4696.984489
_symmetry_space_group_name_H-M "I M M A"
_symmetry_group_IT_number 74
_symmetry_cell_setting 'orthorhombic'
loop_
_space_group_symop_operation_xyz
x,y,z
-x,1/2-y,z
x,-y,-z
-x,1/2+y,-z
-x,-y,-z
x,1/2+y,-z
-x,y,z
x,1/2-y,z
1/2+x,1/2+y,1/2+z
1/2-x,-y,1/2+z
1/2+x,1/2-y,1/2-z
1/2-x,y,1/2-z
1/2-x,1/2-y,1/2-z
1/2+x,y,1/2-z
1/2-x,1/2+y,1/2+z
1/2+x,-y,1/2+z
loop_
_atom_site_type_symbol
_atom_site_label
_atom_site_fract_x
_atom_site_fract_y
_atom_site_fract_z
Si Si1 0.104191 0.849995 0.523003
Si Si2 0.606088 0.750000 0.557328
Si Si3 0.204477 0.582367 0.409659
Si Si4 0.250000 0.067386 0.250000
Si Si5 0.240873 0.610281 0.886413
Si Si6 0.397272 0.750000 0.285027
Si Si7 0.108766 0.577653 0.281031
Si Si8 0.166451 0.750000 0.081352
O O1 0.110006 0.750000 0.495883
O O2 0.143711 0.918974 0.472486
O O3 0.162668 0.854128 0.586556
O O4 0.000000 0.876376 0.539837
O O5 0.500000 0.750000 0.578978
O O6 0.655225 0.838178 0.583274
O O7 0.609355 0.750000 0.482429
O O8 0.266315 0.494026 0.402578
O O9 0.133013 0.592115 0.353187
O O10 0.272664 0.663397 0.414013
O O11 0.241552 0.127470 0.188067
O O12 0.158230 0.008168 0.253284
O O13 0.500000 0.750000 0.257999
O O14 0.350628 0.661330 0.257722
O O15 0.401247 0.750000 0.359775
O O16 0.000000 0.564248 0.272573
#
# Coordination Sequence:
#
# PCOD8299738 Si02
#       8
#    16   8  16   8  16   8  16   8
#     4  11  22  39  65  99 137 169 204 258 322 389
#     4  12  27  48  66  88 121 168 225 285 323 363
#     4  11  21  37  67  95 131 168 204 252 321 384
#     4  10  24  40  66  88 122 162 208 269 330 375
#     4  11  23  44  66  93 122 165 213 271 320 387
#     4  10  20  33  54  84 129 176 212 241 290 362
#     4  10  21  37  57  94 133 168 210 252 304 381
#     4  12  22  40  62  92 132 169 211 262 305 365
#
# _framework density 20.438645000000001
#
# number of rings (size 3 to 8) (size 9 to 14) (size 15 to 20)
#    0.000    1.167    3.333    3.750    0.000    6.000 
#    0.000    2.500    0.000    0.000    0.000    0.000 
#    0.000    0.000    0.000    0.000    0.000    0.000 
#
# Total GULP energy -595255.454857 kJ/mol
# GULP energy per Si atom -12401.155310 kJ/mol
# Density = 2.039213 g / cm^3
# Si number density = 20.438645 Si / 1000 Ang^3
#
#
#
# Elastic Constant Matrix: (Units=GPa)
#
#
# Indices 1 2 3 4 5 6 
#
# 1 125.0121 39.2910 49.4081 0.0000 0.0000 0.0000
# 2 39.2910 97.6085 37.4259 0.0000 0.0000 0.0000
# 3 49.4081 37.4259 162.9800 0.0000 0.0000 0.0000
# 4 0.0000 0.0000 0.0000 34.2178 0.0000 0.0000
# 5 0.0000 0.0000 0.0000 0.0000 28.3112 0.0000
# 6 0.0000 0.0000 0.0000 0.0000 0.0000 25.6484
#
#
#
# Elastic Compliance Matrix: (Units=1/GPa)
#
#
# Indices 1 2 3 4 5 6 
#
# 1 0.009875 -0.003100 -0.002282 0.000000 0.000000 0.000000
# 2 -0.003100 0.012207 -0.001863 0.000000 0.000000 0.000000
# 3 -0.002282 -0.001863 0.007255 0.000000 0.000000 0.000000
# 4 0.000000 0.000000 0.000000 0.029225 0.000000 0.000000
# 5 0.000000 0.000000 0.000000 0.000000 0.035322 0.000000
# 6 0.000000 0.000000 0.000000 0.000000 0.000000 0.038989
#
#
# Mechanical properties :
#
#
# Convention : Reuss Voigt Hill
#
# Bulk Modulus (GPa) = 67.35269 70.87230 69.11249
# Shear Modulus (GPa) = 32.82703 34.93388 33.88046
#
# Velocity S-wave (km/s) = 4.01200 4.13874 4.07586
# Velocity P-wave (km/s) = 7.38151 7.58880 7.48587
#
# Compressibility (1/GPa) = 0.01484722
#
# Stress axis : x y z
#
# Youngs Moduli (GPa) = 101.26070 81.91703 137.82888
#
# Poissons Ratio (x) = 0.25397 0.31451
# Poissons Ratio (y) = 0.31394 0.25683
# Poissons Ratio (z) = 0.23106 0.15264
#
# Static dielectric constant tensor:
#      x y z
#    x 3.533680 0.000000 0.000000 
#    y 0.000000 3.888670 0.000000 
#    z 0.000000 0.000000 3.999190 
# 
# 
# High freq. dielectric constant tensor:
#      x y z
#    x 1.789520 0.000000 0.000000 
#    y 0.000000 1.801960 0.000000 
#    z 0.000000 0.000000 1.807460 
# 
# From -- ./inp_files/51976.got.cif
#   From: 2010.03.12/outbox.cif.g09.slc.cpg/sg74_26_cif.got.tgz:51976.got - 2010.04.16 15:46:19.
