data_PCOD8299357
_publ_section_title
;
Structure prediction by ZEFSAII (Michael W. Deem and Ramdas Pophale) SiO2 
 PCOD8299357
Probable space group: I M M A
;
_chemical_formula_sum "Si O2"
_cell_formula_units_Z 64
_cell_length_a 22.531628
_cell_length_b 13.621610
_cell_length_c 10.440310
_cell_angle_alpha 90.000000
_cell_angle_beta 90.000000
_cell_angle_gamma 90.000000
_cell_volume 3204.309139
_symmetry_space_group_name_H-M "I M M A"
_symmetry_group_IT_number 74
_symmetry_cell_setting 'orthorhombic'
loop_
_space_group_symop_operation_xyz
x,y,z
-x,1/2-y,z
x,-y,-z
-x,1/2+y,-z
-x,-y,-z
x,1/2+y,-z
-x,y,z
x,1/2-y,z
1/2+x,1/2+y,1/2+z
1/2-x,-y,1/2+z
1/2+x,1/2-y,1/2-z
1/2-x,y,1/2-z
1/2-x,1/2-y,1/2-z
1/2+x,y,1/2-z
1/2-x,1/2+y,1/2+z
1/2+x,-y,1/2+z
loop_
_atom_site_type_symbol
_atom_site_label
_atom_site_fract_x
_atom_site_fract_y
_atom_site_fract_z
Si Si1 0.206018 0.750000 0.368591
Si Si2 0.215132 0.250000 0.117975
Si Si3 0.500000 0.364799 0.335712
Si Si4 0.627559 0.056400 0.864337
Si Si5 0.128480 0.930296 0.884454
Si Si6 0.500000 0.967984 0.141236
O O1 0.250000 0.750000 0.250000
O O2 0.238455 0.750000 0.503205
O O3 0.167152 0.652277 0.360281
O O4 0.250000 0.250000 0.250000
O O5 0.173196 0.157920 0.106560
O O6 0.500000 0.250000 0.302965
O O7 0.560543 0.394292 0.409380
O O8 0.500000 0.425690 0.206518
O O9 0.560034 0.092988 0.832580
O O10 0.643090 0.980932 0.751273
O O11 0.633727 0.000000 0.000000
O O12 0.146039 0.000000 0.000000
O O13 0.500000 0.000000 0.000000
#
# Coordination Sequence:
#
# PCOD8299357 Si02
#       6
#     8   8   8  16  16   8
#     4  12  26  41  60  89 126 168 210 248 306 364
#     4  12  26  41  62  93 120 168 222 246 298 370
#     4  10  19  39  67  94 123 160 203 259 315 379
#     4  10  22  42  64  90 125 159 203 257 311 366
#     4  11  23  41  66  93 125 160 205 261 311 367
#     4   8  18  38  60  95 120 151 200 249 318 364
#
# _framework density 19.973105
#
# number of rings (size 3 to 8) (size 9 to 14) (size 15 to 20)
#    0.000    1.500    1.250    3.375    0.000    6.500 
#   13.500    0.000    0.000    0.000    0.000    0.000 
#    0.000    0.000    0.000    0.000    0.000    0.000 
#
# Total GULP energy -396556.005527 kJ/mol
# GULP energy per Si atom -12392.375173 kJ/mol
# Density = 1.992765 g / cm^3
# Si number density = 19.973105 Si / 1000 Ang^3
#
#
#
# Elastic Constant Matrix: (Units=GPa)
#
#
# Indices 1 2 3 4 5 6 
#
# 1 155.3407 115.9238 59.5773 0.0000 0.0000 0.0000
# 2 115.9238 151.8833 65.7130 0.0000 0.0000 0.0000
# 3 59.5773 65.7130 138.2472 0.0000 0.0000 0.0000
# 4 0.0000 0.0000 0.0000 26.8123 0.0000 0.0000
# 5 0.0000 0.0000 0.0000 0.0000 23.4708 0.0000
# 6 0.0000 0.0000 0.0000 0.0000 0.0000 53.5639
#
#
#
# Elastic Compliance Matrix: (Units=1/GPa)
#
#
# Indices 1 2 3 4 5 6 
#
# 1 0.015139 -0.010993 -0.001299 0.000000 0.000000 0.000000
# 2 -0.010993 0.016271 -0.002997 0.000000 0.000000 0.000000
# 3 -0.001299 -0.002997 0.009218 0.000000 0.000000 0.000000
# 4 0.000000 0.000000 0.000000 0.037296 0.000000 0.000000
# 5 0.000000 0.000000 0.000000 0.000000 0.042606 0.000000
# 6 0.000000 0.000000 0.000000 0.000000 0.000000 0.018669
#
#
# Mechanical properties :
#
#
# Convention : Reuss Voigt Hill
#
# Bulk Modulus (GPa) = 99.49640 103.09991 101.29816
# Shear Modulus (GPa) = 28.88072 34.38654 31.63363
#
# Velocity S-wave (km/s) = 3.80673 4.15377 3.98403
# Velocity P-wave (km/s) = 8.32135 8.64503 8.48473
#
# Compressibility (1/GPa) = 0.01005061
#
# Stress axis : x y z
#
# Youngs Moduli (GPa) = 66.05430 61.46034 108.48844
#
# Poissons Ratio (x) = 0.67562 0.14092
# Poissons Ratio (y) = 0.72612 0.32510
# Poissons Ratio (z) = 0.08580 0.18417
#
# Static dielectric constant tensor:
#      x y z
#    x 4.025380 0.000000 0.000000 
#    y 0.000000 3.584370 0.000000 
#    z 0.000000 0.000000 3.817270 
# 
# 
# High freq. dielectric constant tensor:
#      x y z
#    x 1.802970 0.000000 0.000000 
#    y 0.000000 1.778080 0.000000 
#    z 0.000000 0.000000 1.789130 
# 
# From -- ./inp_files/24706.got.cif
#   From: 2010.03.12/outbox.cif.g09.slc.cpg/sg74_13_cif.got.tgz:24706.got - 2010.04.16 15:46:19.
