data_PCOD8299144
_publ_section_title
;
Structure prediction by ZEFSAII (Michael W. Deem and Ramdas Pophale) SiO2 
 PCOD8299144
Probable space group: I M M A
;
_chemical_formula_sum "Si O2"
_cell_formula_units_Z 72
_cell_length_a 15.496934
_cell_length_b 8.703541
_cell_length_c 26.938124
_cell_angle_alpha 90.000000
_cell_angle_beta 90.000000
_cell_angle_gamma 90.000000
_cell_volume 3633.365688
_symmetry_space_group_name_H-M "I M M A"
_symmetry_group_IT_number 74
_symmetry_cell_setting 'orthorhombic'
loop_
_space_group_symop_operation_xyz
x,y,z
-x,1/2-y,z
x,-y,-z
-x,1/2+y,-z
-x,-y,-z
x,1/2+y,-z
-x,y,z
x,1/2-y,z
1/2+x,1/2+y,1/2+z
1/2-x,-y,1/2+z
1/2+x,1/2-y,1/2-z
1/2-x,y,1/2-z
1/2-x,1/2-y,1/2-z
1/2+x,y,1/2-z
1/2-x,1/2+y,1/2+z
1/2+x,-y,1/2+z
loop_
_atom_site_type_symbol
_atom_site_label
_atom_site_fract_x
_atom_site_fract_y
_atom_site_fract_z
Si Si1 0.838571 0.069446 0.608994
Si Si2 0.338643 0.930505 0.445676
Si Si3 0.332165 0.567849 0.221245
Si Si4 0.000000 0.068105 0.781010
Si Si5 0.500000 0.431273 0.389109
Si Si6 0.500000 0.069627 0.054102
O O1 0.858687 0.250000 0.607534
O O2 0.750001 0.028893 0.581685
O O3 0.832775 0.006366 0.665096
O O4 0.915202 0.981253 0.582758
O O5 0.354010 0.750000 0.449280
O O6 0.335866 0.000000 0.500000
O O7 0.415574 0.002821 0.414811
O O8 0.325386 0.750000 0.220153
O O9 0.250000 0.497519 0.250000
O O10 0.417673 0.514793 0.249557
O O11 0.000000 0.250000 0.791638
O O12 0.000000 0.978167 0.832076
O O13 0.500000 0.250000 0.394660
O O14 0.500000 0.250000 0.048589
O O15 0.500000 0.000000 0.000000
#
# Coordination Sequence:
#
# PCOD8299144 Si02
#       6
#    16  16  16   8   8   8
#     4  10  21  39  64  91 119 153 195 242 290 344
#     4  11  23  40  63  89 118 152 194 243 294 349
#     4   9  17  32  57  87 115 147 190 237 284 338
#     4  10  19  34  58  84 113 150 194 240 284 336
#     4  12  25  40  59  84 119 158 197 242 293 350
#     4  12  25  40  60  86 120 158 197 242 291 348
#
# _framework density 19.816337000000001
#
# number of rings (size 3 to 8) (size 9 to 14) (size 15 to 20)
#    0.000    1.556    0.000    5.667    0.000    8.889 
#    0.000    2.222    0.000    2.667    0.000    0.000 
#    0.000    0.000    0.000    0.000    0.000    0.000 
#
# Total GULP energy -446551.199915 kJ/mol
# GULP energy per Si atom -12404.199998 kJ/mol
# Density = 1.977123 g / cm^3
# Si number density = 19.816337 Si / 1000 Ang^3
#
#
#
# Elastic Constant Matrix: (Units=GPa)
#
#
# Indices 1 2 3 4 5 6 
#
# 1 201.3362 85.5483 119.0210 0.0000 0.0000 0.0000
# 2 85.5483 97.8120 73.1443 0.0000 0.0000 0.0000
# 3 119.0210 73.1443 223.7310 0.0000 0.0000 0.0000
# 4 0.0000 0.0000 0.0000 32.9352 0.0000 0.0000
# 5 0.0000 0.0000 0.0000 0.0000 44.6212 0.0000
# 6 0.0000 0.0000 0.0000 0.0000 0.0000 31.1215
#
#
#
# Elastic Compliance Matrix: (Units=1/GPa)
#
#
# Indices 1 2 3 4 5 6 
#
# 1 0.009209 -0.005812 -0.002999 0.000000 0.000000 0.000000
# 2 -0.005812 0.017200 -0.002531 0.000000 0.000000 0.000000
# 3 -0.002999 -0.002531 0.006893 0.000000 0.000000 0.000000
# 4 0.000000 0.000000 0.000000 0.030363 0.000000 0.000000
# 5 0.000000 0.000000 0.000000 0.000000 0.022411 0.000000
# 6 0.000000 0.000000 0.000000 0.000000 0.000000 0.032132
#
#
# Mechanical properties :
#
#
# Convention : Reuss Voigt Hill
#
# Bulk Modulus (GPa) = 94.18688 119.81183 106.99935
# Shear Modulus (GPa) = 34.61868 38.07997 36.34933
#
# Velocity S-wave (km/s) = 4.18422 4.38841 4.28753
# Velocity P-wave (km/s) = 8.42477 9.28816 8.86698
#
# Compressibility (1/GPa) = 0.01061719
#
# Stress axis : x y z
#
# Youngs Moduli (GPa) = 108.58720 58.14038 145.08148
#
# Poissons Ratio (x) = 0.33790 0.43511
# Poissons Ratio (y) = 0.63109 0.36725
# Poissons Ratio (z) = 0.32566 0.14717
#
# Static dielectric constant tensor:
#      x y z
#    x 3.889070 0.000000 0.000000 
#    y 0.000000 3.414810 0.000000 
#    z 0.000000 0.000000 3.866490 
# 
# 
# High freq. dielectric constant tensor:
#      x y z
#    x 1.795740 0.000000 0.000000 
#    y 0.000000 1.748640 0.000000 
#    z 0.000000 0.000000 1.797100 
# 
# From -- ./inp_files/63656.got.cif
#   From: 2010.03.12/outbox.cif.g09.slc.cpg/sg74_32_cif.got.tgz:63656.got - 2010.04.16 15:46:19.
