data_PCOD8299699
_publ_section_title
;
Structure prediction by ZEFSAII (Michael W. Deem and Ramdas Pophale) SiO2 
 PCOD8299699
Probable space group: I M M A
;
_chemical_formula_sum "Si O2"
_cell_formula_units_Z 80
_cell_length_a 17.510763
_cell_length_b 10.148476
_cell_length_c 24.890218
_cell_angle_alpha 90.000000
_cell_angle_beta 90.000000
_cell_angle_gamma 90.000000
_cell_volume 4423.179860
_symmetry_space_group_name_H-M "I M M A"
_symmetry_group_IT_number 74
_symmetry_cell_setting 'orthorhombic'
loop_
_space_group_symop_operation_xyz
x,y,z
-x,1/2-y,z
x,-y,-z
-x,1/2+y,-z
-x,-y,-z
x,1/2+y,-z
-x,y,z
x,1/2-y,z
1/2+x,1/2+y,1/2+z
1/2-x,-y,1/2+z
1/2+x,1/2-y,1/2-z
1/2-x,y,1/2-z
1/2-x,1/2-y,1/2-z
1/2+x,y,1/2-z
1/2-x,1/2+y,1/2+z
1/2+x,-y,1/2+z
loop_
_atom_site_type_symbol
_atom_site_label
_atom_site_fract_x
_atom_site_fract_y
_atom_site_fract_z
Si Si1 0.863916 0.998195 0.063185
Si Si2 0.269681 0.750000 0.688697
Si Si3 0.213679 0.004206 0.375075
Si Si4 0.085033 0.750000 0.874322
Si Si5 0.414492 0.250000 0.626298
Si Si6 0.588736 0.597337 0.951136
Si Si7 0.242123 0.750000 0.186099
O O1 0.773922 0.992057 0.076289
O O2 0.901794 0.126194 0.087903
O O3 0.907274 0.875093 0.088127
O O4 0.875451 0.000000 0.000000
O O5 0.250000 0.750000 0.750000
O O6 0.233519 0.878543 0.664053
O O7 0.360550 0.750000 0.677844
O O8 0.131373 0.036317 0.399836
O O9 0.213556 0.873674 0.339044
O O10 0.000000 0.750000 0.850807
O O11 0.500000 0.250000 0.652495
O O12 0.348622 0.250000 0.672039
O O13 0.500000 0.593545 0.936949
O O14 0.614012 0.750000 0.963366
O O15 0.608226 0.500000 0.000000
O O16 0.250000 0.750000 0.250000
#
# Coordination Sequence:
#
# PCOD8299699 Si02
#       7
#    16   8  16   8   8  16   8
#     4  10  20  33  52  78 109 144 177 210 262 325
#     4  10  20  37  59  75 101 145 186 231 289 325
#     4  10  20  37  56  81 111 143 189 235 273 339
#     4  10  21  34  50  77 108 134 172 222 263 319
#     4  10  21  36  54  77 108 144 180 224 271 319
#     4  10  21  37  58  86 120 154 186 229 290 351
#     4  10  22  39  59  81 109 147 194 239 287 335
#
# _framework density 18.086535999999999
#
# number of rings (size 3 to 8) (size 9 to 14) (size 15 to 20)
#    0.000    2.000    1.000    2.400    1.400    2.400 
#    3.600    2.000    0.000    0.000    0.000    0.000 
#    0.000    0.000    0.000    0.000    0.000    0.000 
#
# Total GULP energy -495968.548396 kJ/mol
# GULP energy per Si atom -12399.213710 kJ/mol
# Density = 1.804537 g / cm^3
# Si number density = 18.086536 Si / 1000 Ang^3
#
#
#
# Elastic Constant Matrix: (Units=GPa)
#
#
# Indices 1 2 3 4 5 6 
#
# 1 101.6774 52.2301 73.4572 0.0000 0.0000 0.0000
# 2 52.2301 170.2840 64.6414 0.0000 0.0000 0.0000
# 3 73.4572 64.6414 139.9435 0.0000 0.0000 0.0000
# 4 0.0000 0.0000 0.0000 -43.8385 0.0000 0.0000
# 5 0.0000 0.0000 0.0000 0.0000 16.2006 0.0000
# 6 0.0000 0.0000 0.0000 0.0000 0.0000 33.9080
#
#
#
# Elastic Compliance Matrix: (Units=1/GPa)
#
#
# Indices 1 2 3 4 5 6 
#
# 1 0.016465 -0.002146 -0.007652 0.000000 0.000000 0.000000
# 2 -0.002146 0.007401 -0.002292 0.000000 0.000000 0.000000
# 3 -0.007652 -0.002292 0.012221 0.000000 0.000000 0.000000
# 4 0.000000 0.000000 0.000000 -0.022811 0.000000 0.000000
# 5 0.000000 0.000000 0.000000 0.000000 0.061726 0.000000
# 6 0.000000 0.000000 0.000000 0.000000 0.000000 0.029492
#
#
# Mechanical properties :
#
#
# Convention : Reuss Voigt Hill
#
# Bulk Modulus (GPa) = 83.97751 88.06245 86.01998
# Shear Modulus (GPa) = 37.69552 16.02576 26.86064
#
# Velocity S-wave (km/s) = 4.57023 2.97991 3.85790
# Velocity P-wave (km/s) = 8.62445 7.78685 8.21633
#
# Compressibility (1/GPa) = 0.01190795
#
# Stress axis : x y z
#
# Youngs Moduli (GPa) = 60.73457 135.12014 81.82704
#
# Poissons Ratio (x) = 0.28992 0.62610
# Poissons Ratio (y) = 0.13031 0.18757
# Poissons Ratio (z) = 0.46471 0.30973
#
# Static dielectric constant tensor:
#      x y z
#    x 3.430270 0.000000 0.000000 
#    y 0.000000 3.146750 0.000000 
#    z 0.000000 0.000000 3.108310 
# 
# 
# High freq. dielectric constant tensor:
#      x y z
#    x 1.700460 0.000000 0.000000 
#    y 0.000000 1.728290 0.000000 
#    z 0.000000 0.000000 1.682160 
# 
# From -- ./inp_files/67599.got.cif
#   From: 2010.03.12/outbox.cif.g09.slc.cpg/sg74_34_cif.got.tgz:67599.got - 2010.04.16 15:46:19.
