data_PCOD8299676
_publ_section_title
;
Structure prediction by ZEFSAII (Michael W. Deem and Ramdas Pophale) SiO2 
 PCOD8299676
Probable space group: I M M A
;
_chemical_formula_sum "Si O2"
_cell_formula_units_Z 88
_cell_length_a 16.679127
_cell_length_b 26.140685
_cell_length_c 10.516167
_cell_angle_alpha 90.000000
_cell_angle_beta 90.000000
_cell_angle_gamma 90.000000
_cell_volume 4585.088826
_symmetry_space_group_name_H-M "I M M A"
_symmetry_group_IT_number 74
_symmetry_cell_setting 'orthorhombic'
loop_
_space_group_symop_operation_xyz
x,y,z
-x,1/2-y,z
x,-y,-z
-x,1/2+y,-z
-x,-y,-z
x,1/2+y,-z
-x,y,z
x,1/2-y,z
1/2+x,1/2+y,1/2+z
1/2-x,-y,1/2+z
1/2+x,1/2-y,1/2-z
1/2-x,y,1/2-z
1/2-x,1/2-y,1/2-z
1/2+x,y,1/2-z
1/2-x,1/2+y,1/2+z
1/2+x,-y,1/2+z
loop_
_atom_site_type_symbol
_atom_site_label
_atom_site_fract_x
_atom_site_fract_y
_atom_site_fract_z
Si Si1 0.590929 0.090607 0.662193
Si Si2 0.413391 0.806380 0.821112
Si Si3 0.250000 0.354160 0.750000
Si Si4 0.865698 0.119828 0.112093
Si Si5 0.685281 0.992779 0.643067
Si Si6 0.765457 0.692060 0.517400
O O1 0.500000 0.098982 0.719611
O O2 0.666639 0.113551 0.741073
O O3 0.588851 0.115338 0.521899
O O4 0.608204 0.029988 0.653929
O O5 0.500000 0.805409 0.886331
O O6 0.392980 0.750000 0.762270
O O7 0.418417 0.849364 0.712316
O O8 0.355035 0.819217 0.936811
O O9 0.241090 0.317268 0.631303
O O10 0.844112 0.064496 0.168044
O O11 0.785267 0.152403 0.098586
O O12 0.750000 0.007971 0.750000
O O13 0.722369 0.000000 0.500000
O O14 0.737984 0.750000 0.546173
#
# Coordination Sequence:
#
# PCOD8299676 Si02
#       6
#    16  16   8  16  16  16
#     4  10  21  37  58  83 112 149 192 237 285 341
#     4  10  20  33  51  78 113 144 177 230 287 338
#     4  10  21  38  58  80 112 152 191 238 286 336
#     4  10  20  34  56  83 109 143 186 232 284 339
#     4  10  20  35  57  83 115 151 190 236 288 343
#     4  10  20  35  56  80 107 147 193 231 282 346
#
# _framework density 19.192647999999998
#
# number of rings (size 3 to 8) (size 9 to 14) (size 15 to 20)
#    0.000    2.000    0.909    3.000    0.000    6.182 
#    0.000    0.000    0.000   10.909    0.000    0.000 
#    0.000    0.000    0.000    0.000    0.000    0.000 
#
# Total GULP energy -545241.245261 kJ/mol
# GULP energy per Si atom -12391.846483 kJ/mol
# Density = 1.914897 g / cm^3
# Si number density = 19.192648 Si / 1000 Ang^3
#
#
#
# Elastic Constant Matrix: (Units=GPa)
#
#
# Indices 1 2 3 4 5 6 
#
# 1 141.1500 44.6264 30.8825 -0.0001 0.0000 0.0001
# 2 44.6264 115.7057 15.6284 0.0001 0.0000 0.0002
# 3 30.8825 15.6284 53.3907 -0.0008 0.0003 0.0012
# 4 -0.0001 0.0001 -0.0008 21.2686 0.0001 0.0006
# 5 0.0000 0.0000 0.0003 0.0001 23.7625 -0.0001
# 6 0.0001 0.0002 0.0012 0.0006 -0.0001 26.1499
#
#
#
# Elastic Compliance Matrix: (Units=1/GPa)
#
#
# Indices 1 2 3 4 5 6 
#
# 1 0.008937 -0.002862 -0.004332 0.000000 0.000000 0.000000
# 2 -0.002862 0.009915 -0.001247 0.000000 0.000000 0.000000
# 3 -0.004332 -0.001247 0.021600 0.000001 0.000000 -0.000001
# 4 0.000000 0.000000 0.000001 0.047018 0.000000 -0.000001
# 5 0.000000 0.000000 0.000000 0.000000 0.042083 0.000000
# 6 0.000000 0.000000 -0.000001 -0.000001 0.000000 0.038241
#
#
# Mechanical properties :
#
#
# Convention : Reuss Voigt Hill
#
# Bulk Modulus (GPa) = 42.42423 54.72456 48.57440
# Shear Modulus (GPa) = 25.96963 28.84348 27.40656
#
# Velocity S-wave (km/s) = 3.68245 3.88085 3.78295
# Velocity P-wave (km/s) = 6.34294 6.97543 6.66669
#
# Compressibility (1/GPa) = 0.02357143
#
# Stress axis : x y z
#
# Youngs Moduli (GPa) = 111.89120 100.85901 46.29536
#
# Poissons Ratio (x) = 0.28865 0.20054
# Poissons Ratio (y) = 0.32022 0.05772
# Poissons Ratio (z) = 0.48469 0.12576
#
# Static dielectric constant tensor:
#      x y z
#    x 3.455300 0.000000 0.000000 
#    y 0.000000 3.655100 0.000000 
#    z 0.000000 0.000000 3.403900 
# 
# 
# High freq. dielectric constant tensor:
#      x y z
#    x 1.742980 0.000000 0.000000 
#    y 0.000000 1.760130 0.000000 
#    z 0.000000 0.000000 1.729020 
# 
# From -- ./inp_files/20637.got.cif
#   From: 2010.03.12/outbox.cif.g09.slc.cpg/sg74_11_cif.got.tgz:20637.got - 2010.04.16 15:46:19.
