data_PCOD8299965
_publ_section_title
;
Structure prediction by ZEFSAII (Michael W. Deem and Ramdas Pophale) SiO2 
 PCOD8299965
Probable space group: I M M A
;
_chemical_formula_sum "Si O2"
_cell_formula_units_Z 96
_cell_length_a 15.482768
_cell_length_b 14.456834
_cell_length_c 20.065375
_cell_angle_alpha 90.000000
_cell_angle_beta 90.000000
_cell_angle_gamma 90.000000
_cell_volume 4491.269141
_symmetry_space_group_name_H-M "I M M A"
_symmetry_group_IT_number 74
_symmetry_cell_setting 'orthorhombic'
loop_
_space_group_symop_operation_xyz
x,y,z
-x,1/2-y,z
x,-y,-z
-x,1/2+y,-z
-x,-y,-z
x,1/2+y,-z
-x,y,z
x,1/2-y,z
1/2+x,1/2+y,1/2+z
1/2-x,-y,1/2+z
1/2+x,1/2-y,1/2-z
1/2-x,y,1/2-z
1/2-x,1/2-y,1/2-z
1/2+x,y,1/2-z
1/2-x,1/2+y,1/2+z
1/2+x,-y,1/2+z
loop_
_atom_site_type_symbol
_atom_site_label
_atom_site_fract_x
_atom_site_fract_y
_atom_site_fract_z
Si Si1 0.399630 0.963480 0.183331
Si Si2 0.099220 0.859025 0.447252
Si Si3 0.596052 0.639417 0.453872
Si Si4 0.750497 0.857473 0.958923
Si Si5 0.897303 0.852628 0.193074
Si Si6 0.805610 0.354338 0.315862
O O1 0.500000 0.944788 0.185147
O O2 0.364015 0.913140 0.117269
O O3 0.357158 0.918299 0.249537
O O4 0.383481 0.073249 0.184305
O O5 0.106282 0.750000 0.432607
O O6 0.159888 0.891905 0.508662
O O7 0.000000 0.885830 0.464765
O O8 0.500000 0.600922 0.470914
O O9 0.592412 0.750000 0.455214
O O10 0.664871 0.597103 0.506639
O O11 0.627180 0.607977 0.380015
O O12 0.756648 0.750000 0.974277
O O13 0.753618 0.877103 0.880111
O O14 0.858922 0.750000 0.203653
O O15 0.000000 0.848598 0.198082
O O16 0.843690 0.250000 0.321053
O O17 0.750000 0.365988 0.250000
#
# Coordination Sequence:
#
# PCOD8299965 Si02
#       6
#    16  16  16  16  16  16
#     4  10  20  34  55  82 110 143 182 220 261 314
#     4   9  18  33  55  86 121 149 171 203 258 332
#     4   8  14  27  51  83 114 141 170 209 264 330
#     4   9  18  34  55  78 106 140 179 224 274 325
#     4   8  14  27  50  82 119 149 167 195 252 328
#     4  10  23  42  57  70  96 138 188 239 284 319
#
# _framework density 21.374804000000001
#
# number of rings (size 3 to 8) (size 9 to 14) (size 15 to 20)
#    0.000    3.000    0.000    1.500    0.000    5.000 
#    0.000    4.167    0.000    8.000    0.000    5.833 
#    0.000    0.000    0.000    0.000    0.000    0.000 
#
# Total GULP energy -594914.867904 kJ/mol
# GULP energy per Si atom -12394.059748 kJ/mol
# Density = 2.132615 g / cm^3
# Si number density = 21.374804 Si / 1000 Ang^3
#
#
#
# Elastic Constant Matrix: (Units=GPa)
#
#
# Indices 1 2 3 4 5 6 
#
# 1 79.1536 15.0832 60.4999 0.0000 0.0000 0.0000
# 2 15.0832 71.6689 39.2436 0.0000 0.0000 0.0000
# 3 60.4999 39.2436 185.0682 0.0000 0.0000 0.0000
# 4 0.0000 0.0000 0.0000 5.2322 0.0000 0.0000
# 5 0.0000 0.0000 0.0000 0.0000 -3.5741 0.0000
# 6 0.0000 0.0000 0.0000 0.0000 0.0000 17.4221
#
#
#
# Elastic Compliance Matrix: (Units=1/GPa)
#
#
# Indices 1 2 3 4 5 6 
#
# 1 0.016865 -0.000600 -0.005386 0.000000 0.000000 0.000000
# 2 -0.000600 0.015807 -0.003156 0.000000 0.000000 0.000000
# 3 -0.005386 -0.003156 0.007833 0.000000 0.000000 0.000000
# 4 0.000000 0.000000 0.000000 0.191124 0.000000 0.000000
# 5 0.000000 0.000000 0.000000 0.000000 -0.279792 0.000000
# 6 0.000000 0.000000 0.000000 0.000000 0.000000 0.057398
#
#
# Mechanical properties :
#
#
# Convention : Reuss Voigt Hill
#
# Bulk Modulus (GPa) = 45.00106 62.83823 53.91965
# Shear Modulus (GPa) = 143.15892 18.55366 80.85629
#
# Velocity S-wave (km/s) = 8.19274 2.94941 6.15711
# Velocity P-wave (km/s) = 10.51635 6.40787 8.70788
#
# Compressibility (1/GPa) = 0.02222170
#
# Stress axis : x y z
#
# Youngs Moduli (GPa) = 59.29566 63.26179 127.66069
#
# Poissons Ratio (x) = 0.03797 0.68757
# Poissons Ratio (y) = 0.03559 0.40286
# Poissons Ratio (z) = 0.31936 0.19964
#
# Static dielectric constant tensor:
#      x y z
#    x 3.676540 0.000000 0.000000 
#    y 0.000000 3.666750 0.000000 
#    z 0.000000 0.000000 4.121500 
# 
# 
# High freq. dielectric constant tensor:
#      x y z
#    x 1.812400 0.000000 0.000000 
#    y 0.000000 1.823790 0.000000 
#    z 0.000000 0.000000 1.847170 
# 
# From -- ./inp_files/51852.got.cif
#   From: 2010.03.12/outbox.cif.g09.slc.cpg/sg74_26_cif.got.tgz:51852.got - 2010.04.16 15:46:19.
