data_PCOD8299662
_publ_section_title
;
Structure prediction by ZEFSAII (Michael W. Deem and Ramdas Pophale) SiO2 
 PCOD8299662
Probable space group: I M M A
;
_chemical_formula_sum "Si O2"
_cell_formula_units_Z 72
_cell_length_a 8.588469
_cell_length_b 13.332807
_cell_length_c 32.497059
_cell_angle_alpha 90.000000
_cell_angle_beta 90.000000
_cell_angle_gamma 90.000000
_cell_volume 3721.186218
_symmetry_space_group_name_H-M "I M M A"
_symmetry_group_IT_number 74
_symmetry_cell_setting 'orthorhombic'
loop_
_space_group_symop_operation_xyz
x,y,z
-x,1/2-y,z
x,-y,-z
-x,1/2+y,-z
-x,-y,-z
x,1/2+y,-z
-x,y,z
x,1/2-y,z
1/2+x,1/2+y,1/2+z
1/2-x,-y,1/2+z
1/2+x,1/2-y,1/2-z
1/2-x,y,1/2-z
1/2-x,1/2-y,1/2-z
1/2+x,y,1/2-z
1/2-x,1/2+y,1/2+z
1/2+x,-y,1/2+z
loop_
_atom_site_type_symbol
_atom_site_label
_atom_site_fract_x
_atom_site_fract_y
_atom_site_fract_z
Si Si1 0.816342 0.864090 0.294726
Si Si2 0.814585 0.857859 0.015313
Si Si3 0.814720 0.051499 0.157389
Si Si4 0.815176 0.250000 0.204562
Si Si5 0.184845 0.458373 0.065672
O O1 0.769703 0.750000 0.308185
O O2 0.750000 0.888433 0.250000
O O3 0.000000 0.876132 0.293058
O O4 0.748008 0.946010 0.325742
O O5 0.750995 0.750000 0.028730
O O6 0.000000 0.863550 0.014994
O O7 0.758042 0.878498 0.968431
O O8 0.750491 0.935033 0.049099
O O9 0.753673 0.148895 0.182214
O O10 0.000000 0.047060 0.158630
O O11 0.748679 0.064469 0.110926
O O12 0.750000 0.250000 0.250000
O O13 0.000000 0.250000 0.205365
O O14 0.000000 0.459612 0.068760
#
# Coordination Sequence:
#
# PCOD8299662 Si02
#       5
#    16  16  16   8  16
#     4  10  21  37  56  77 101 130 166 209 259 313
#     4   8  13  22  38  60  92 131 165 202 246 294
#     4  10  20  33  51  76 106 138 173 214 257 306
#     4  10  22  36  50  72 102 138 176 214 260 306
#     4   8  15  25  38  64  96 128 167 204 246 296
#
# _framework density 19.348669999999998
#
# number of rings (size 3 to 8) (size 9 to 14) (size 15 to 20)
#    0.000    2.889    0.000    2.667    1.556    4.889 
#    0.000    2.222    0.000    0.000    0.000    3.111 
#    0.000    1.778    0.000    0.000    0.000    0.000 
#
# Total GULP energy -446069.315687 kJ/mol
# GULP energy per Si atom -12390.814325 kJ/mol
# Density = 1.930463 g / cm^3
# Si number density = 19.348670 Si / 1000 Ang^3
#
#
#
# Elastic Constant Matrix: (Units=GPa)
#
#
# Indices 1 2 3 4 5 6 
#
# 1 20.1647 13.8980 14.4062 0.0000 0.0000 0.0000
# 2 13.8980 134.7231 61.7656 0.0000 0.0000 0.0000
# 3 14.4062 61.7656 149.9566 0.0000 0.0000 0.0000
# 4 0.0000 0.0000 0.0000 19.5265 0.0000 0.0000
# 5 0.0000 0.0000 0.0000 0.0000 16.6216 0.0000
# 6 0.0000 0.0000 0.0000 0.0000 0.0000 19.6733
#
#
#
# Elastic Compliance Matrix: (Units=1/GPa)
#
#
# Indices 1 2 3 4 5 6 
#
# 1 0.054944 -0.004004 -0.003629 0.000000 0.000000 0.000000
# 2 -0.004004 0.009442 -0.003505 0.000000 0.000000 0.000000
# 3 -0.003629 -0.003505 0.008461 0.000000 0.000000 0.000000
# 4 0.000000 0.000000 0.000000 0.051213 0.000000 0.000000
# 5 0.000000 0.000000 0.000000 0.000000 0.060163 0.000000
# 6 0.000000 0.000000 0.000000 0.000000 0.000000 0.050830
#
#
# Mechanical properties :
#
#
# Convention : Reuss Voigt Hill
#
# Bulk Modulus (GPa) = 19.77399 53.88708 36.83053
# Shear Modulus (GPa) = 18.23581 25.48258 21.85920
#
# Velocity S-wave (km/s) = 3.07332 3.63301 3.36482
# Velocity P-wave (km/s) = 4.77868 6.74606 5.84573
#
# Compressibility (1/GPa) = 0.05057150
#
# Stress axis : x y z
#
# Youngs Moduli (GPa) = 18.20032 105.90516 118.19307
#
# Poissons Ratio (x) = 0.42406 0.42894
# Poissons Ratio (y) = 0.07288 0.41421
# Poissons Ratio (z) = 0.06605 0.37115
#
# Static dielectric constant tensor:
#      x y z
#    x 3.001010 0.000000 0.000000 
#    y 0.000000 3.933980 0.000000 
#    z 0.000000 0.000000 3.822510 
# 
# 
# High freq. dielectric constant tensor:
#      x y z
#    x 1.697330 0.000000 0.000000 
#    y 0.000000 1.768380 0.000000 
#    z 0.000000 0.000000 1.757940 
# 
# From -- ./inp_files/63603.got.cif
#   From: 2010.03.12/outbox.cif.g09.slc.cpg/sg74_32_cif.got.tgz:63603.got - 2010.04.16 15:46:19.
