data_PCOD8299852
_publ_section_title
;
Structure prediction by ZEFSAII (Michael W. Deem and Ramdas Pophale) SiO2 
 PCOD8299852
Probable space group: I M M A
;
_chemical_formula_sum "Si O2"
_cell_formula_units_Z 96
_cell_length_a 20.169545
_cell_length_b 9.130479
_cell_length_c 28.026675
_cell_angle_alpha 90.000000
_cell_angle_beta 90.000000
_cell_angle_gamma 90.000000
_cell_volume 5161.325402
_symmetry_space_group_name_H-M "I M M A"
_symmetry_group_IT_number 74
_symmetry_cell_setting 'orthorhombic'
loop_
_space_group_symop_operation_xyz
x,y,z
-x,1/2-y,z
x,-y,-z
-x,1/2+y,-z
-x,-y,-z
x,1/2+y,-z
-x,y,z
x,1/2-y,z
1/2+x,1/2+y,1/2+z
1/2-x,-y,1/2+z
1/2+x,1/2-y,1/2-z
1/2-x,y,1/2-z
1/2-x,1/2-y,1/2-z
1/2+x,y,1/2-z
1/2-x,1/2+y,1/2+z
1/2+x,-y,1/2+z
loop_
_atom_site_type_symbol
_atom_site_label
_atom_site_fract_x
_atom_site_fract_y
_atom_site_fract_z
Si Si1 0.925525 0.580051 0.452793
Si Si2 0.574890 0.419413 0.387205
Si Si3 0.925022 0.422580 0.791347
Si Si4 0.802228 0.422152 0.050206
Si Si5 0.805986 0.922444 0.386350
Si Si6 0.186952 0.423971 0.721543
O O1 0.899341 0.500000 0.500000
O O2 0.924308 0.750000 0.464893
O O3 0.877177 0.542168 0.409382
O O4 0.000000 0.528318 0.439102
O O5 0.500000 0.464853 0.402188
O O6 0.578494 0.250000 0.373283
O O7 0.598909 0.508066 0.340969
O O8 0.623480 0.455031 0.431130
O O9 0.918092 0.250000 0.797757
O O10 0.879252 0.480152 0.748195
O O11 0.000000 0.469980 0.779217
O O12 0.789230 0.250000 0.043991
O O13 0.750866 0.486817 0.087877
O O14 0.792014 0.500000 0.000000
O O15 0.789025 0.750000 0.389110
O O16 0.811010 0.981653 0.332425
O O17 0.187986 0.250000 0.721002
O O18 0.250000 0.486584 0.750000
#
# Coordination Sequence:
#
# PCOD8299852 Si02
#       6
#    16  16  16  16  16  16
#     4   9  18  32  50  72  97 127 163 201 243 291
#     4   9  19  36  55  75 102 135 168 205 254 308
#     4   9  17  30  51  78 104 132 169 210 249 294
#     4  11  23  37  54  76 102 132 168 212 258 307
#     4  10  20  34  53  75 102 137 172 208 251 299
#     4   9  17  29  47  72 101 131 163 201 244 289
#
# _framework density 18.599872999999999
#
# number of rings (size 3 to 8) (size 9 to 14) (size 15 to 20)
#    0.000    2.500    0.000    2.000    0.000    5.667 
#    0.000    4.167    0.000    3.000    0.000    4.667 
#    0.000    0.000    0.000    0.000    0.000    0.000 
#
# Total GULP energy -595229.515695 kJ/mol
# GULP energy per Si atom -12400.614910 kJ/mol
# Density = 1.855754 g / cm^3
# Si number density = 18.599873 Si / 1000 Ang^3
#
#
#
# Elastic Constant Matrix: (Units=GPa)
#
#
# Indices 1 2 3 4 5 6 
#
# 1 99.3096 31.4127 60.9163 0.0000 0.0000 0.0000
# 2 31.4127 40.1103 33.4712 0.0000 0.0000 0.0000
# 3 60.9163 33.4712 132.7575 0.0000 0.0000 0.0000
# 4 0.0000 0.0000 0.0000 26.1595 0.0000 0.0000
# 5 0.0000 0.0000 0.0000 0.0000 36.4758 0.0000
# 6 0.0000 0.0000 0.0000 0.0000 0.0000 23.5655
#
#
#
# Elastic Compliance Matrix: (Units=1/GPa)
#
#
# Indices 1 2 3 4 5 6 
#
# 1 0.015818 -0.008018 -0.005237 0.000000 0.000000 0.000000
# 2 -0.008018 0.035639 -0.005306 0.000000 0.000000 0.000000
# 3 -0.005237 -0.005306 0.011273 0.000000 0.000000 0.000000
# 4 0.000000 0.000000 0.000000 0.038227 0.000000 0.000000
# 5 0.000000 0.000000 0.000000 0.000000 0.027415 0.000000
# 6 0.000000 0.000000 0.000000 0.000000 0.000000 0.042435
#
#
# Mechanical properties :
#
#
# Convention : Reuss Voigt Hill
#
# Bulk Modulus (GPa) = 39.05035 58.19754 48.62394
# Shear Modulus (GPa) = 23.09848 26.99863 25.04856
#
# Velocity S-wave (km/s) = 3.52783 3.81405 3.67373
# Velocity P-wave (km/s) = 6.13471 7.12412 6.64785
#
# Compressibility (1/GPa) = 0.02560797
#
# Stress axis : x y z
#
# Youngs Moduli (GPa) = 63.21989 28.05950 88.70641
#
# Poissons Ratio (x) = 0.22498 0.46451
# Poissons Ratio (y) = 0.50690 0.47069
# Poissons Ratio (z) = 0.33105 0.14889
#
# Static dielectric constant tensor:
#      x y z
#    x 3.763580 0.000000 0.000000 
#    y 0.000000 3.220670 0.000000 
#    z 0.000000 0.000000 3.510540 
# 
# 
# High freq. dielectric constant tensor:
#      x y z
#    x 1.736540 0.000000 0.000000 
#    y 0.000000 1.698090 0.000000 
#    z 0.000000 0.000000 1.721930 
# 
# From -- ./inp_files/64265.got.cif
#   From: 2010.03.12/outbox.cif.g09.slc.cpg/sg74_33_cif.got.tgz:64265.got - 2010.04.16 15:46:19.
