data_PCOD8299707
_publ_section_title
;
Structure prediction by ZEFSAII (Michael W. Deem and Ramdas Pophale) SiO2 
 PCOD8299707
Probable space group: I M M A
;
_chemical_formula_sum "Si O2"
_cell_formula_units_Z 80
_cell_length_a 17.633680
_cell_length_b 8.785977
_cell_length_c 28.116374
_cell_angle_alpha 90.000000
_cell_angle_beta 90.000000
_cell_angle_gamma 90.000000
_cell_volume 4356.044713
_symmetry_space_group_name_H-M "I M M A"
_symmetry_group_IT_number 74
_symmetry_cell_setting 'orthorhombic'
loop_
_space_group_symop_operation_xyz
x,y,z
-x,1/2-y,z
x,-y,-z
-x,1/2+y,-z
-x,-y,-z
x,1/2+y,-z
-x,y,z
x,1/2-y,z
1/2+x,1/2+y,1/2+z
1/2-x,-y,1/2+z
1/2+x,1/2-y,1/2-z
1/2-x,y,1/2-z
1/2-x,1/2-y,1/2-z
1/2+x,y,1/2-z
1/2-x,1/2+y,1/2+z
1/2+x,-y,1/2+z
loop_
_atom_site_type_symbol
_atom_site_label
_atom_site_fract_x
_atom_site_fract_y
_atom_site_fract_z
Si Si1 0.680845 0.416717 0.785581
Si Si2 0.581868 0.927873 0.051352
Si Si3 0.797149 0.930269 0.139339
Si Si4 0.732603 0.429770 0.052108
Si Si5 0.088014 0.073381 0.210596
O O1 0.643467 0.250000 0.794046
O O2 0.750000 0.397230 0.750000
O O3 0.718584 0.479501 0.834154
O O4 0.618231 0.528623 0.763261
O O5 0.500000 0.950899 0.077984
O O6 0.601579 0.750000 0.047078
O O7 0.652614 0.013568 0.075586
O O8 0.573650 0.000000 0.000000
O O9 0.801028 0.750000 0.132870
O O10 0.798002 0.011806 0.087870
O O11 0.870542 0.981516 0.168888
O O12 0.734784 0.250000 0.047942
O O13 0.745802 0.500000 0.000000
O O14 0.103912 0.250000 0.202639
O O15 0.000000 0.032449 0.207894
#
# Coordination Sequence:
#
# PCOD8299707 Si02
#       5
#    16  16  16  16  16
#     4   8  16  31  51  74  99 129 164 203 248 300
#     4   9  16  27  44  65  90 121 159 203 249 296
#     4  10  20  35  54  76 103 136 176 217 258 307
#     4  11  21  33  51  74 102 137 178 222 265 310
#     4  10  20  33  52  80 110 137 168 208 255 310
#
# _framework density 18.365283999999999
#
# number of rings (size 3 to 8) (size 9 to 14) (size 15 to 20)
#    0.000    2.400    0.000    6.000    0.000    7.200 
#    0.000    1.000    0.000    1.800    0.000    0.000 
#    0.000    0.000    0.000    0.000    0.000    0.000 
#
# Total GULP energy -495620.560876 kJ/mol
# GULP energy per Si atom -12390.514022 kJ/mol
# Density = 1.832348 g / cm^3
# Si number density = 18.365284 Si / 1000 Ang^3
#
#
#
# Elastic Constant Matrix: (Units=GPa)
#
#
# Indices 1 2 3 4 5 6 
#
# 1 84.0455 52.3708 41.2707 0.0000 0.0000 0.0000
# 2 52.3708 126.4754 46.3126 0.0000 0.0000 0.0000
# 3 41.2707 46.3126 86.8270 0.0000 0.0000 0.0000
# 4 0.0000 0.0000 0.0000 26.5050 0.0000 0.0000
# 5 0.0000 0.0000 0.0000 0.0000 19.9411 0.0000
# 6 0.0000 0.0000 0.0000 0.0000 0.0000 28.3653
#
#
#
# Elastic Compliance Matrix: (Units=1/GPa)
#
#
# Indices 1 2 3 4 5 6 
#
# 1 0.018059 -0.005387 -0.005711 0.000000 0.000000 0.000000
# 2 -0.005387 0.011433 -0.003538 0.000000 0.000000 0.000000
# 3 -0.005711 -0.003538 0.016118 0.000000 0.000000 0.000000
# 4 0.000000 0.000000 0.000000 0.037729 0.000000 0.000000
# 5 0.000000 0.000000 0.000000 0.000000 0.050148 0.000000
# 6 0.000000 0.000000 0.000000 0.000000 0.000000 0.035254
#
#
# Mechanical properties :
#
#
# Convention : Reuss Voigt Hill
#
# Bulk Modulus (GPa) = 61.19876 64.13956 62.66916
# Shear Modulus (GPa) = 24.57513 25.45521 25.01517
#
# Velocity S-wave (km/s) = 3.66201 3.72701 3.69465
# Velocity P-wave (km/s) = 7.16072 7.31580 7.23867
#
# Compressibility (1/GPa) = 0.01634020
#
# Stress axis : x y z
#
# Youngs Moduli (GPa) = 55.37346 87.46904 62.04071
#
# Poissons Ratio (x) = 0.47118 0.35429
# Poissons Ratio (y) = 0.29829 0.21947
# Poissons Ratio (z) = 0.31622 0.30943
#
# Static dielectric constant tensor:
#      x y z
#    x 3.476520 0.000000 0.000000 
#    y 0.000000 3.430950 0.000000 
#    z 0.000000 0.000000 3.476670 
# 
# 
# High freq. dielectric constant tensor:
#      x y z
#    x 1.690370 0.000000 0.000000 
#    y 0.000000 1.723620 0.000000 
#    z 0.000000 0.000000 1.692630 
# 
# From -- ./inp_files/63910.got.cif
#   From: 2010.03.12/outbox.cif.g09.slc.cpg/sg74_32_cif.got.tgz:63910.got - 2010.04.16 15:46:19.
