data_PCOD8299946
_publ_section_title
;
Structure prediction by ZEFSAII (Michael W. Deem and Ramdas Pophale) SiO2 
 PCOD8299946
Probable space group: I M M A
;
_chemical_formula_sum "Si O2"
_cell_formula_units_Z 88
_cell_length_a 9.247283
_cell_length_b 17.692942
_cell_length_c 27.220621
_cell_angle_alpha 90.000000
_cell_angle_beta 90.000000
_cell_angle_gamma 90.000000
_cell_volume 4453.610492
_symmetry_space_group_name_H-M "I M M A"
_symmetry_group_IT_number 74
_symmetry_cell_setting 'orthorhombic'
loop_
_space_group_symop_operation_xyz
x,y,z
-x,1/2-y,z
x,-y,-z
-x,1/2+y,-z
-x,-y,-z
x,1/2+y,-z
-x,y,z
x,1/2-y,z
1/2+x,1/2+y,1/2+z
1/2-x,-y,1/2+z
1/2+x,1/2-y,1/2-z
1/2-x,y,1/2-z
1/2-x,1/2-y,1/2-z
1/2+x,y,1/2-z
1/2-x,1/2+y,1/2+z
1/2+x,-y,1/2+z
loop_
_atom_site_type_symbol
_atom_site_label
_atom_site_fract_x
_atom_site_fract_y
_atom_site_fract_z
Si Si1 0.657108 0.161642 0.550591
Si Si2 0.171158 0.922933 0.524621
Si Si3 0.831229 0.471131 0.703498
Si Si4 0.673835 0.250000 0.196562
Si Si5 0.331623 0.393506 0.133210
Si Si6 0.831529 0.163104 0.840080
O O1 0.500000 0.127440 0.535182
O O2 0.640592 0.250000 0.554631
O O3 0.780704 0.143234 0.511635
O O4 0.700502 0.133422 0.604797
O O5 0.236508 0.903114 0.578503
O O6 0.000000 0.927018 0.527778
O O7 0.232671 0.000000 0.500000
O O8 0.750000 0.507202 0.750000
O O9 0.798671 0.527217 0.658915
O O10 0.733057 0.387995 0.805314
O O11 0.000000 0.464000 0.714582
O O12 0.500000 0.250000 0.204435
O O13 0.750000 0.250000 0.250000
O O14 0.728789 0.177028 0.165155
O O15 0.500000 0.378117 0.127291
O O16 0.784499 0.250000 0.832553
O O17 0.000000 0.152529 0.827042
#
# Coordination Sequence:
#
# PCOD8299946 Si02
#       6
#    16  16  16   8  16  16
#     4   9  19  35  54  78 110 144 179 220 267 320
#     4  10  20  34  54  82 113 145 185 227 270 331
#     4  11  22  37  57  81 109 141 183 232 282 333
#     4  10  20  38  60  80 108 146 192 240 293 342
#     4   9  20  36  56  81 111 148 186 230 282 339
#     4   9  19  37  58  80 110 148 186 224 271 328
#
# _framework density 19.759247999999999
#
# number of rings (size 3 to 8) (size 9 to 14) (size 15 to 20)
#    0.000    2.364    0.000    3.273    1.273    3.636 
#    0.000    5.455    0.000    0.000    0.000    0.000 
#    0.000    0.000    0.000    0.000    0.000    0.000 
#
# Total GULP energy -545382.498707 kJ/mol
# GULP energy per Si atom -12395.056789 kJ/mol
# Density = 1.971428 g / cm^3
# Si number density = 19.759248 Si / 1000 Ang^3
#
#
#
# Elastic Constant Matrix: (Units=GPa)
#
#
# Indices 1 2 3 4 5 6 
#
# 1 45.5571 28.6486 31.9088 0.0000 0.0000 0.0000
# 2 28.6486 80.1128 36.4115 0.0000 0.0000 0.0000
# 3 31.9088 36.4115 111.7524 0.0000 0.0000 0.0000
# 4 0.0000 0.0000 0.0000 23.8826 0.0000 0.0000
# 5 0.0000 0.0000 0.0000 0.0000 23.2458 0.0000
# 6 0.0000 0.0000 0.0000 0.0000 0.0000 22.4729
#
#
#
# Elastic Compliance Matrix: (Units=1/GPa)
#
#
# Indices 1 2 3 4 5 6 
#
# 1 0.031681 -0.008472 -0.006285 0.000000 0.000000 0.000000
# 2 -0.008472 0.016918 -0.003093 0.000000 0.000000 0.000000
# 3 -0.006285 -0.003093 0.011751 0.000000 0.000000 0.000000
# 4 0.000000 0.000000 0.000000 0.041872 0.000000 0.000000
# 5 0.000000 0.000000 0.000000 0.000000 0.043019 0.000000
# 6 0.000000 0.000000 0.000000 0.000000 0.000000 0.044498
#
#
# Mechanical properties :
#
#
# Convention : Reuss Voigt Hill
#
# Bulk Modulus (GPa) = 40.57164 47.92891 44.25028
# Shear Modulus (GPa) = 21.39905 23.28382 22.34143
#
# Velocity S-wave (km/s) = 3.29445 3.43647 3.36621
# Velocity P-wave (km/s) = 5.92020 6.32889 6.12795
#
# Compressibility (1/GPa) = 0.02464776
#
# Stress axis : x y z
#
# Youngs Moduli (GPa) = 31.56497 59.10864 85.10035
#
# Poissons Ratio (x) = 0.50079 0.53488
# Poissons Ratio (y) = 0.26743 0.26323
# Poissons Ratio (z) = 0.19840 0.18283
#
# Static dielectric constant tensor:
#      x y z
#    x 3.303440 0.000000 0.000000 
#    y 0.000000 3.569600 0.000000 
#    z 0.000000 0.000000 3.996820 
# 
# 
# High freq. dielectric constant tensor:
#      x y z
#    x 1.742970 0.000000 0.000000 
#    y 0.000000 1.770740 0.000000 
#    z 0.000000 0.000000 1.783960 
# 
# From -- ./inp_files/50527.got.cif
#   From: 2010.03.12/outbox.cif.g09.slc.cpg/sg74_26_cif.got.tgz:50527.got - 2010.04.16 15:46:19.
