data_PCOD8299267
_publ_section_title
;
Structure prediction by ZEFSAII (Michael W. Deem and Ramdas Pophale) SiO2 
 PCOD8299267
Probable space group: I M M A
;
_chemical_formula_sum "Si O2"
_cell_formula_units_Z 104
_cell_length_a 9.141855
_cell_length_b 21.462126
_cell_length_c 25.610742
_cell_angle_alpha 90.000000
_cell_angle_beta 90.000000
_cell_angle_gamma 90.000000
_cell_volume 5024.920903
_symmetry_space_group_name_H-M "I M M A"
_symmetry_group_IT_number 74
_symmetry_cell_setting 'orthorhombic'
loop_
_space_group_symop_operation_xyz
x,y,z
-x,1/2-y,z
x,-y,-z
-x,1/2+y,-z
-x,-y,-z
x,1/2+y,-z
-x,y,z
x,1/2-y,z
1/2+x,1/2+y,1/2+z
1/2-x,-y,1/2+z
1/2+x,1/2-y,1/2-z
1/2-x,y,1/2-z
1/2-x,1/2-y,1/2-z
1/2+x,y,1/2-z
1/2-x,1/2+y,1/2+z
1/2+x,-y,1/2+z
loop_
_atom_site_type_symbol
_atom_site_label
_atom_site_fract_x
_atom_site_fract_y
_atom_site_fract_z
Si Si1 0.843997 0.817873 0.819555
Si Si2 0.327460 0.634445 0.910715
Si Si3 0.175258 0.379633 0.610806
Si Si4 0.750000 0.578285 0.750000
Si Si5 0.171728 0.822627 0.014115
Si Si6 0.662332 0.177732 0.701826
Si Si7 0.832135 0.486942 0.354900
O O1 0.824124 0.750000 0.792436
O O2 0.709062 0.825599 0.859241
O O3 0.861345 0.873194 0.776965
O O4 0.000000 0.819210 0.850105
O O5 0.500000 0.639349 0.922924
O O6 0.274369 0.564354 0.896185
O O7 0.232160 0.660359 0.957589
O O8 0.238345 0.365788 0.553787
O O9 0.243304 0.328980 0.649563
O O10 0.238028 0.446245 0.631379
O O11 0.000000 0.374557 0.610061
O O12 0.814114 0.533053 0.705486
O O13 0.200989 0.750000 0.025870
O O14 0.000000 0.837927 0.017730
O O15 0.500000 0.147234 0.696802
O O16 0.642197 0.250000 0.713384
O O17 0.750000 0.145963 0.750000
O O18 0.000000 0.495257 0.366669
#
# Coordination Sequence:
#
# PCOD8299267 Si02
#       7
#    16  16  16   8  16  16  16
#     4  10  20  34  55  86 122 157 196 244 294 342
#     4  10  21  39  62  87 118 156 197 239 290 350
#     4  11  23  39  60  87 118 154 196 242 293 349
#     4  10  19  36  58  82 115 160 202 240 286 348
#     4  11  24  42  63  88 119 151 189 242 299 355
#     4  10  21  38  59  85 117 152 192 242 299 355
#     4   9  21  39  57  83 119 157 196 242 291 342
#
# _framework density 20.696842
#
# number of rings (size 3 to 8) (size 9 to 14) (size 15 to 20)
#    0.000    1.846    0.000    3.462    1.077    7.385 
#    0.000   11.538    0.000    0.000    0.000    0.000 
#    0.000    0.000    0.000    0.000    0.000    0.000 
#
# Total GULP energy -644324.845468 kJ/mol
# GULP energy per Si atom -12390.862413 kJ/mol
# Density = 2.064974 g / cm^3
# Si number density = 20.696842 Si / 1000 Ang^3
#
#
#
# Elastic Constant Matrix: (Units=GPa)
#
#
# Indices 1 2 3 4 5 6 
#
# 1 116.7060 37.8110 45.5798 0.0000 0.0000 0.0000
# 2 37.8110 99.7876 47.1492 0.0000 0.0000 0.0000
# 3 45.5798 47.1492 105.9713 0.0000 0.0000 0.0000
# 4 0.0000 0.0000 0.0000 25.5451 0.0000 0.0000
# 5 0.0000 0.0000 0.0000 0.0000 36.6776 0.0000
# 6 0.0000 0.0000 0.0000 0.0000 0.0000 239.7638
#
#
#
# Elastic Compliance Matrix: (Units=1/GPa)
#
#
# Indices 1 2 3 4 5 6 
#
# 1 0.010729 -0.002387 -0.003553 0.000000 0.000000 0.000000
# 2 -0.002387 0.013220 -0.004855 0.000000 0.000000 0.000000
# 3 -0.003553 -0.004855 0.013125 0.000000 0.000000 0.000000
# 4 0.000000 0.000000 0.000000 0.039146 0.000000 0.000000
# 5 0.000000 0.000000 0.000000 0.000000 0.027265 0.000000
# 6 0.000000 0.000000 0.000000 0.000000 0.000000 0.004171
#
#
# Mechanical properties :
#
#
# Convention : Reuss Voigt Hill
#
# Bulk Modulus (GPa) = 64.58196 64.83833 64.71014
# Shear Modulus (GPa) = 37.20041 73.19229 55.19635
#
# Velocity S-wave (km/s) = 4.24417 5.95321 5.16980
# Velocity P-wave (km/s) = 7.43564 8.86848 8.18348
#
# Compressibility (1/GPa) = 0.01548420
#
# Stress axis : x y z
#
# Youngs Moduli (GPa) = 93.20152 75.64454 76.19111
#
# Poissons Ratio (x) = 0.18055 0.27070
# Poissons Ratio (y) = 0.22245 0.36992
# Poissons Ratio (z) = 0.33114 0.36727
#
# Static dielectric constant tensor:
#      x y z
#    x 3.809650 0.000000 0.000000 
#    y 0.000000 4.065440 0.000000 
#    z 0.000000 0.000000 3.654670 
# 
# 
# High freq. dielectric constant tensor:
#      x y z
#    x 1.810970 0.000000 0.000000 
#    y 0.000000 1.810910 0.000000 
#    z 0.000000 0.000000 1.806380 
# 
# From -- ./inp_files/64525.got.cif
#   From: 2010.03.12/outbox.cif.g09.slc.cpg/sg74_33_cif.got.tgz:64525.got - 2010.04.16 15:46:19.
