data_PCOD8299024
_publ_section_title
;
Structure prediction by ZEFSAII (Michael W. Deem and Ramdas Pophale) SiO2 
 PCOD8299024
Probable space group: I M M A
;
_chemical_formula_sum "Si O2"
_cell_formula_units_Z 72
_cell_length_a 12.783223
_cell_length_b 26.202541
_cell_length_c 11.521645
_cell_angle_alpha 90.000000
_cell_angle_beta 90.000000
_cell_angle_gamma 90.000000
_cell_volume 3859.208691
_symmetry_space_group_name_H-M "I M M A"
_symmetry_group_IT_number 74
_symmetry_cell_setting 'orthorhombic'
loop_
_space_group_symop_operation_xyz
x,y,z
-x,1/2-y,z
x,-y,-z
-x,1/2+y,-z
-x,-y,-z
x,1/2+y,-z
-x,y,z
x,1/2-y,z
1/2+x,1/2+y,1/2+z
1/2-x,-y,1/2+z
1/2+x,1/2-y,1/2-z
1/2-x,y,1/2-z
1/2-x,1/2-y,1/2-z
1/2+x,y,1/2-z
1/2-x,1/2+y,1/2+z
1/2+x,-y,1/2+z
loop_
_atom_site_type_symbol
_atom_site_label
_atom_site_fract_x
_atom_site_fract_y
_atom_site_fract_z
Si Si1 0.118748 0.853116 0.570645
Si Si2 0.284522 0.139469 0.622051
Si Si3 0.383145 0.942707 0.540644
Si Si4 0.626107 0.750000 0.428919
Si Si5 0.750000 0.589547 0.750000
Si Si6 0.289738 0.750000 0.878139
O O1 0.180474 0.866084 0.454082
O O2 0.161353 0.877293 0.688830
O O3 0.130848 0.793900 0.590383
O O4 0.000000 0.870011 0.551175
O O5 0.250000 0.121999 0.750000
O O6 0.362455 0.098617 0.562123
O O7 0.334522 0.196941 0.631391
O O8 0.500000 0.931352 0.584576
O O9 0.305234 0.942337 0.649449
O O10 0.371412 0.000000 0.500000
O O11 0.500000 0.750000 0.436405
O O12 0.679029 0.750000 0.554562
O O13 0.250000 0.750000 0.750000
#
# Coordination Sequence:
#
# PCOD8299024 Si02
#       6
#    16  16  16   8   8   8
#     4  10  20  34  54  81 113 151 187 227 282 337
#     4  10  22  39  59  85 120 153 193 242 285 342
#     4  10  22  39  62  87 112 152 197 238 293 347
#     4  10  21  36  58  86 117 154 195 236 292 348
#     4  10  20  37  58  80 116 141 184 242 290 332
#     4  10  19  34  48  81 114 150 187 230 278 330
#
# _framework density 18.656675
#
# number of rings (size 3 to 8) (size 9 to 14) (size 15 to 20)
#    0.000    2.000    1.111    2.000    1.556    2.667 
#    0.000    0.000    0.000    3.333    0.000    0.000 
#    0.000    0.000    0.000    0.000    0.000    0.000 
#
# Total GULP energy -445980.437468 kJ/mol
# GULP energy per Si atom -12388.345485 kJ/mol
# Density = 1.861421 g / cm^3
# Si number density = 18.656675 Si / 1000 Ang^3
#
#
#
# Elastic Constant Matrix: (Units=GPa)
#
#
# Indices 1 2 3 4 5 6 
#
# 1 135.7558 35.4585 35.0578 0.0001 0.0000 0.0000
# 2 35.4585 95.1584 25.9002 0.0007 0.0000 0.0000
# 3 35.0578 25.9002 109.9085 0.0025 -0.0001 -0.0005
# 4 0.0001 0.0007 0.0025 18.0938 0.0000 0.0001
# 5 0.0000 0.0000 -0.0001 0.0000 16.3269 0.0000
# 6 0.0000 0.0000 -0.0005 0.0001 0.0000 12.9590
#
#
#
# Elastic Compliance Matrix: (Units=1/GPa)
#
#
# Indices 1 2 3 4 5 6 
#
# 1 0.008601 -0.002627 -0.002124 0.000000 0.000000 0.000000
# 2 -0.002627 0.012031 -0.001997 0.000000 0.000000 0.000000
# 3 -0.002124 -0.001997 0.010247 -0.000001 0.000000 0.000000
# 4 0.000000 0.000000 -0.000001 0.055267 0.000000 0.000000
# 5 0.000000 0.000000 0.000000 0.000000 0.061249 0.000000
# 6 0.000000 0.000000 0.000000 0.000000 0.000000 0.077167
#
#
# Mechanical properties :
#
#
# Convention : Reuss Voigt Hill
#
# Bulk Modulus (GPa) = 57.53106 59.29508 58.41307
# Shear Modulus (GPa) = 20.50419 25.76968 23.13693
#
# Velocity S-wave (km/s) = 3.31875 3.72056 3.52539
# Velocity P-wave (km/s) = 6.75198 7.09281 6.92449
#
# Compressibility (1/GPa) = 0.01738191
#
# Stress axis : x y z
#
# Youngs Moduli (GPa) = 116.26751 83.11723 97.59138
#
# Poissons Ratio (x) = 0.21832 0.20733
# Poissons Ratio (y) = 0.30540 0.19492
# Poissons Ratio (z) = 0.24701 0.16601
#
# Static dielectric constant tensor:
#      x y z
#    x 3.419510 0.000000 0.000000 
#    y 0.000000 3.466200 0.000000 
#    z 0.000000 0.000000 3.377000 
# 
# 
# High freq. dielectric constant tensor:
#      x y z
#    x 1.729530 0.000000 0.000000 
#    y 0.000000 1.724030 0.000000 
#    z 0.000000 0.000000 1.726250 
# 
# From -- ./inp_files/18831.got.cif
#   From: 2010.03.12/outbox.cif.g09.slc.cpg/sg74_10_cif.got.tgz:18831.got - 2010.04.16 15:46:19.
