data_PCOD8299872
_publ_section_title
;
Structure prediction by ZEFSAII (Michael W. Deem and Ramdas Pophale) SiO2 
 PCOD8299872
Probable space group: I M M A
;
_chemical_formula_sum "Si O2"
_cell_formula_units_Z 96
_cell_length_a 8.712415
_cell_length_b 27.947349
_cell_length_c 19.002940
_cell_angle_alpha 90.000000
_cell_angle_beta 90.000000
_cell_angle_gamma 90.000000
_cell_volume 4627.005007
_symmetry_space_group_name_H-M "I M M A"
_symmetry_group_IT_number 74
_symmetry_cell_setting 'orthorhombic'
loop_
_space_group_symop_operation_xyz
x,y,z
-x,1/2-y,z
x,-y,-z
-x,1/2+y,-z
-x,-y,-z
x,1/2+y,-z
-x,y,z
x,1/2-y,z
1/2+x,1/2+y,1/2+z
1/2-x,-y,1/2+z
1/2+x,1/2-y,1/2-z
1/2-x,y,1/2-z
1/2-x,1/2-y,1/2-z
1/2+x,y,1/2-z
1/2-x,1/2+y,1/2+z
1/2+x,-y,1/2+z
loop_
_atom_site_type_symbol
_atom_site_label
_atom_site_fract_x
_atom_site_fract_y
_atom_site_fract_z
Si Si1 0.175447 0.609310 0.682234
Si Si2 0.179543 0.052685 0.068657
Si Si3 0.319960 0.596020 0.066453
Si Si4 0.318399 0.031535 0.672926
Si Si5 0.826583 0.196707 0.144047
Si Si6 0.176214 0.196959 0.504016
O O1 0.250000 0.582809 0.750000
O O2 0.272946 0.599332 0.612215
O O3 0.202347 0.666194 0.688871
O O4 0.000000 0.594004 0.674909
O O5 0.000000 0.048755 0.054386
O O6 0.238985 0.009119 0.117689
O O7 0.258855 0.058550 0.992974
O O8 0.500000 0.588346 0.072119
O O9 0.241758 0.581648 0.140607
O O10 0.278433 0.652054 0.053996
O O11 0.500000 0.031716 0.679700
O O12 0.250000 0.022451 0.750000
O O13 0.812685 0.250000 0.173399
O O14 0.788525 0.195443 0.061604
O O15 0.000000 0.176847 0.154763
O O16 0.193319 0.250000 0.540880
O O17 0.000000 0.189794 0.478783
#
# Coordination Sequence:
#
# PCOD8299872 Si02
#       6
#    16  16  16  16  16  16
#     4  12  24  37  54  77 109 152 197 246 301 354
#     4  11  23  40  61  87 119 156 200 248 296 349
#     4  11  22  37  63  95 124 160 200 244 294 352
#     4  11  25  43  63  88 121 160 199 249 305 360
#     4  10  20  34  53  77 107 146 192 243 297 352
#     4   9  18  34  57  87 121 156 195 240 292 350
#
# _framework density 20.747762999999999
#
# number of rings (size 3 to 8) (size 9 to 14) (size 15 to 20)
#    0.000    1.333    1.667    4.500    0.000    8.000 
#    0.000    0.000    0.000    0.500    0.000    0.000 
#    0.000    0.000    0.000    0.000    0.000    0.000 
#
# Total GULP energy -594916.523498 kJ/mol
# GULP energy per Si atom -12394.094240 kJ/mol
# Density = 2.070054 g / cm^3
# Si number density = 20.747763 Si / 1000 Ang^3
#
#
#
# Elastic Constant Matrix: (Units=GPa)
#
#
# Indices 1 2 3 4 5 6 
#
# 1 75.8984 30.0663 31.2086 0.0000 0.0000 0.0000
# 2 30.0663 86.2819 46.9945 0.0000 0.0000 0.0001
# 3 31.2086 46.9945 87.9990 -0.0003 0.0000 0.0000
# 4 0.0000 0.0000 -0.0003 13.5331 0.0000 0.0000
# 5 0.0000 0.0000 0.0000 0.0000 34.3993 0.0000
# 6 0.0000 0.0001 0.0000 0.0000 0.0000 22.5154
#
#
#
# Elastic Compliance Matrix: (Units=1/GPa)
#
#
# Indices 1 2 3 4 5 6 
#
# 1 0.016156 -0.003538 -0.003840 0.000000 0.000000 0.000000
# 2 -0.003538 0.017119 -0.007887 0.000000 0.000000 0.000000
# 3 -0.003840 -0.007887 0.016938 0.000000 0.000000 0.000000
# 4 0.000000 0.000000 0.000000 0.073893 0.000000 0.000000
# 5 0.000000 0.000000 0.000000 0.000000 0.029070 0.000000
# 6 0.000000 0.000000 0.000000 0.000000 0.000000 0.044414
#
#
# Mechanical properties :
#
#
# Convention : Reuss Voigt Hill
#
# Bulk Modulus (GPa) = 50.80946 51.85757 51.33351
# Shear Modulus (GPa) = 21.30545 23.55021 22.42783
#
# Velocity S-wave (km/s) = 3.20797 3.37274 3.29139
# Velocity P-wave (km/s) = 6.18577 6.34159 6.26416
#
# Compressibility (1/GPa) = 0.01968138
#
# Stress axis : x y z
#
# Youngs Moduli (GPa) = 61.89574 58.41560 59.04000
#
# Poissons Ratio (x) = 0.20669 0.22672
# Poissons Ratio (y) = 0.21901 0.46566
# Poissons Ratio (z) = 0.23769 0.46073
#
# Static dielectric constant tensor:
#      x y z
#    x 3.657800 0.000000 0.000000 
#    y 0.000000 4.143030 0.000000 
#    z 0.000000 0.000000 3.599440 
# 
# 
# High freq. dielectric constant tensor:
#      x y z
#    x 1.815390 0.000000 0.000000 
#    y 0.000000 1.820630 0.000000 
#    z 0.000000 0.000000 1.785710 
# 
# From -- ./inp_files/49041.got.cif
#   From: 2010.03.12/outbox.cif.g09.slc.cpg/sg74_25_cif.got.tgz:49041.got - 2010.04.16 15:46:19.
