data_PCOD8299536
_publ_section_title
;
Structure prediction by ZEFSAII (Michael W. Deem and Ramdas Pophale) SiO2 
 PCOD8299536
Probable space group: I M M A
;
_chemical_formula_sum "Si O2"
_cell_formula_units_Z 104
_cell_length_a 9.976084
_cell_length_b 25.241439
_cell_length_c 21.586527
_cell_angle_alpha 90.000000
_cell_angle_beta 90.000000
_cell_angle_gamma 90.000000
_cell_volume 5435.718814
_symmetry_space_group_name_H-M "I M M A"
_symmetry_group_IT_number 74
_symmetry_cell_setting 'orthorhombic'
loop_
_space_group_symop_operation_xyz
x,y,z
-x,1/2-y,z
x,-y,-z
-x,1/2+y,-z
-x,-y,-z
x,1/2+y,-z
-x,y,z
x,1/2-y,z
1/2+x,1/2+y,1/2+z
1/2-x,-y,1/2+z
1/2+x,1/2-y,1/2-z
1/2-x,y,1/2-z
1/2-x,1/2-y,1/2-z
1/2+x,y,1/2-z
1/2-x,1/2+y,1/2+z
1/2+x,-y,1/2+z
loop_
_atom_site_type_symbol
_atom_site_label
_atom_site_fract_x
_atom_site_fract_y
_atom_site_fract_z
Si Si1 0.656550 0.466125 0.191157
Si Si2 0.349847 0.641316 0.871874
Si Si3 0.654829 0.470592 0.935117
Si Si4 0.850320 0.874611 0.076678
Si Si5 0.651527 0.689712 0.541043
Si Si6 0.356081 0.750000 0.801742
Si Si7 0.152509 0.190067 0.803840
O O1 0.500000 0.475583 0.208717
O O2 0.750000 0.483452 0.250000
O O3 0.685514 0.404208 0.177560
O O4 0.694175 0.496318 0.126969
O O5 0.500000 0.630647 0.898481
O O6 0.242255 0.644445 0.926721
O O7 0.338699 0.698326 0.841950
O O8 0.500000 0.454256 0.930914
O O9 0.742922 0.418566 0.939236
O O10 0.683060 0.500000 0.000000
O O11 0.815836 0.851137 0.142868
O O12 0.000000 0.899569 0.075006
O O13 0.843227 0.824537 0.030951
O O14 0.500000 0.685242 0.567031
O O15 0.704476 0.750000 0.549936
O O16 0.500000 0.750000 0.768755
O O17 0.250000 0.750000 0.750000
O O18 0.183834 0.250000 0.825515
O O19 0.250000 0.171761 0.750000
O O20 0.000000 0.185382 0.780533
#
# Coordination Sequence:
#
# PCOD8299536 Si02
#       7
#    16  16  16  16  16   8  16
#     4  10  22  39  60  84 113 149 189 234 284 336
#     4  10  20  36  55  79 110 145 183 223 271 323
#     4  10  22  41  61  82 110 148 191 236 286 337
#     4  10  21  36  56  82 110 142 181 228 279 331
#     4  10  20  34  54  82 114 147 183 224 275 333
#     4  10  20  32  50  76 106 138 175 216 259 310
#     4   9  18  34  55  79 111 147 180 219 270 330
#
# _framework density 19.132704
#
# number of rings (size 3 to 8) (size 9 to 14) (size 15 to 20)
#    0.000    2.154    0.769    1.846    0.000    7.077 
#    0.000    3.077    0.000    2.769    0.000    0.000 
#    0.000    0.000    0.000    0.000    0.000    0.000 
#
# Total GULP energy -644531.359932 kJ/mol
# GULP energy per Si atom -12394.833845 kJ/mol
# Density = 1.908916 g / cm^3
# Si number density = 19.132704 Si / 1000 Ang^3
#
#
#
# Elastic Constant Matrix: (Units=GPa)
#
#
# Indices 1 2 3 4 5 6 
#
# 1 96.9547 42.3273 66.5971 0.0000 0.0000 0.0000
# 2 42.3273 65.6766 31.1952 0.0000 0.0000 0.0000
# 3 66.5971 31.1952 112.5961 0.0001 0.0000 0.0000
# 4 0.0000 0.0000 0.0001 28.1254 0.0000 0.0000
# 5 0.0000 0.0000 0.0000 0.0000 34.8988 0.0000
# 6 0.0000 0.0000 0.0000 0.0000 0.0000 29.8433
#
#
#
# Elastic Compliance Matrix: (Units=1/GPa)
#
#
# Indices 1 2 3 4 5 6 
#
# 1 0.021022 -0.008800 -0.009996 0.000000 0.000000 0.000000
# 2 -0.008800 0.021218 -0.000673 0.000000 0.000000 0.000000
# 3 -0.009996 -0.000673 0.014980 0.000000 0.000000 0.000000
# 4 0.000000 0.000000 0.000000 0.035555 0.000000 0.000000
# 5 0.000000 0.000000 0.000000 0.000000 0.028654 0.000000
# 6 0.000000 0.000000 0.000000 0.000000 0.000000 0.033508
#
#
# Mechanical properties :
#
#
# Convention : Reuss Voigt Hill
#
# Bulk Modulus (GPa) = 54.70206 61.71851 58.21029
# Shear Modulus (GPa) = 25.00379 27.58068 26.29224
#
# Velocity S-wave (km/s) = 3.61898 3.80089 3.71105
# Velocity P-wave (km/s) = 6.79085 7.18265 6.98949
#
# Compressibility (1/GPa) = 0.01828085
#
# Stress axis : x y z
#
# Youngs Moduli (GPa) = 47.56919 47.13062 66.75592
#
# Poissons Ratio (x) = 0.41477 0.66727
# Poissons Ratio (y) = 0.41863 0.04494
# Poissons Ratio (z) = 0.47549 0.03173
#
# Static dielectric constant tensor:
#      x y z
#    x 3.675920 0.000000 0.000000 
#    y 0.000000 3.583740 0.000000 
#    z 0.000000 0.000000 3.468710 
# 
# 
# High freq. dielectric constant tensor:
#      x y z
#    x 1.748260 0.000000 0.000000 
#    y 0.000000 1.742160 0.000000 
#    z 0.000000 0.000000 1.743210 
# 
# From -- ./inp_files/49259.got.cif
#   From: 2010.03.12/outbox.cif.g09.slc.cpg/sg74_25_cif.got.tgz:49259.got - 2010.04.16 15:46:19.
