data_PCOD8299869
_publ_section_title
;
Structure prediction by ZEFSAII (Michael W. Deem and Ramdas Pophale) SiO2 
 PCOD8299869
Probable space group: I M M A
;
_chemical_formula_sum "Si O2"
_cell_formula_units_Z 88
_cell_length_a 15.690227
_cell_length_b 22.171531
_cell_length_c 13.063836
_cell_angle_alpha 90.000000
_cell_angle_beta 90.000000
_cell_angle_gamma 90.000000
_cell_volume 4544.599641
_symmetry_space_group_name_H-M "I M M A"
_symmetry_group_IT_number 74
_symmetry_cell_setting 'orthorhombic'
loop_
_space_group_symop_operation_xyz
x,y,z
-x,1/2-y,z
x,-y,-z
-x,1/2+y,-z
-x,-y,-z
x,1/2+y,-z
-x,y,z
x,1/2-y,z
1/2+x,1/2+y,1/2+z
1/2-x,-y,1/2+z
1/2+x,1/2-y,1/2-z
1/2-x,y,1/2-z
1/2-x,1/2-y,1/2-z
1/2+x,y,1/2-z
1/2-x,1/2+y,1/2+z
1/2+x,-y,1/2+z
loop_
_atom_site_type_symbol
_atom_site_label
_atom_site_fract_x
_atom_site_fract_y
_atom_site_fract_z
Si Si1 0.657074 0.610093 0.778457
Si Si2 0.135429 0.184273 0.086657
Si Si3 0.500000 0.407304 0.482736
Si Si4 0.175931 0.683137 0.524425
Si Si5 0.500000 0.102741 0.713180
Si Si6 0.000000 0.470516 0.221007
Si Si7 0.657078 0.820869 0.208707
O O1 0.750000 0.581547 0.750000
O O2 0.647053 0.668435 0.706071
O O3 0.645454 0.633342 0.894457
O O4 0.585138 0.560541 0.762903
O O5 0.091244 0.250000 0.081120
O O6 0.082217 0.133329 0.032796
O O7 0.222639 0.186594 0.024766
O O8 0.500000 0.425766 0.599754
O O9 0.500000 0.463575 0.403780
O O10 0.138734 0.750000 0.549634
O O11 0.147199 0.663492 0.411119
O O12 0.584184 0.141674 0.733476
O O13 0.500000 0.037827 0.769568
O O14 0.642362 0.750000 0.229780
O O15 0.750000 0.840609 0.250000
#
# Coordination Sequence:
#
# PCOD8299869 Si02
#       7
#    16  16   8  16   8   8  16
#     4   9  18  34  55  80 111 143 176 218 267 317
#     4   9  16  28  52  85 112 136 170 217 274 328
#     4  10  20  34  53  77 106 138 176 225 274 317
#     4   9  17  32  54  79 111 146 176 213 266 321
#     4  12  24  39  58  77 104 144 185 221 263 314
#     4  10  23  39  55  78 106 138 182 228 265 311
#     4  10  22  39  58  83 112 140 175 218 263 316
#
# _framework density 19.363641999999999
#
# number of rings (size 3 to 8) (size 9 to 14) (size 15 to 20)
#    0.000    2.364    0.000    2.455    0.000    6.545 
#    0.000    4.091    0.000    0.000    0.000    0.000 
#    0.000    0.000    0.000    0.000    0.000    0.000 
#
# Total GULP energy -545315.076831 kJ/mol
# GULP energy per Si atom -12393.524473 kJ/mol
# Density = 1.931957 g / cm^3
# Si number density = 19.363642 Si / 1000 Ang^3
#
#
#
# Elastic Constant Matrix: (Units=GPa)
#
#
# Indices 1 2 3 4 5 6 
#
# 1 111.2294 55.5754 38.2163 0.0000 0.0000 0.0000
# 2 55.5754 99.7109 31.9438 0.0000 0.0000 0.0000
# 3 38.2163 31.9438 100.6624 -0.0001 0.0000 -0.0001
# 4 0.0000 0.0000 -0.0001 11.4132 0.0000 0.0000
# 5 0.0000 0.0000 0.0000 0.0000 23.5427 0.0000
# 6 0.0000 0.0000 -0.0001 0.0000 0.0000 11.3676
#
#
#
# Elastic Compliance Matrix: (Units=1/GPa)
#
#
# Indices 1 2 3 4 5 6 
#
# 1 0.013219 -0.006412 -0.002984 0.000000 0.000000 0.000000
# 2 -0.006412 0.014274 -0.002095 0.000000 0.000000 0.000000
# 3 -0.002984 -0.002095 0.011732 0.000000 0.000000 0.000000
# 4 0.000000 0.000000 0.000000 0.087618 0.000000 0.000000
# 5 0.000000 0.000000 0.000000 0.000000 0.042476 0.000000
# 6 0.000000 0.000000 0.000000 0.000000 0.000000 0.087969
#
#
# Mechanical properties :
#
#
# Convention : Reuss Voigt Hill
#
# Bulk Modulus (GPa) = 61.56592 62.56375 62.06483
# Shear Modulus (GPa) = 17.50177 21.65586 19.57881
#
# Velocity S-wave (km/s) = 3.00967 3.34784 3.18325
# Velocity P-wave (km/s) = 6.62881 6.87925 6.75519
#
# Compressibility (1/GPa) = 0.01624275
#
# Stress axis : x y z
#
# Youngs Moduli (GPa) = 75.64609 70.05665 85.23717
#
# Poissons Ratio (x) = 0.44921 0.25434
# Poissons Ratio (y) = 0.48505 0.17860
# Poissons Ratio (z) = 0.22572 0.14679
#
# Static dielectric constant tensor:
#      x y z
#    x 4.515380 0.000000 0.000000 
#    y 0.000000 3.278810 0.000000 
#    z 0.000000 0.000000 3.554590 
# 
# 
# High freq. dielectric constant tensor:
#      x y z
#    x 1.753040 0.000000 0.000000 
#    y 0.000000 1.737340 0.000000 
#    z 0.000000 0.000000 1.755490 
# 
# From -- ./inp_files/22252.got.cif
#   From: 2010.03.12/outbox.cif.g09.slc.cpg/sg74_12_cif.got.tgz:22252.got - 2010.04.16 15:46:19.
