data_PCOD8299900
_publ_section_title
;
Structure prediction by ZEFSAII (Michael W. Deem and Ramdas Pophale) SiO2 
 PCOD8299900
Probable space group: I M M A
;
_chemical_formula_sum "Si O2"
_cell_formula_units_Z 88
_cell_length_a 18.976686
_cell_length_b 9.038791
_cell_length_c 27.789115
_cell_angle_alpha 90.000000
_cell_angle_beta 90.000000
_cell_angle_gamma 90.000000
_cell_volume 4766.564038
_symmetry_space_group_name_H-M "I M M A"
_symmetry_group_IT_number 74
_symmetry_cell_setting 'orthorhombic'
loop_
_space_group_symop_operation_xyz
x,y,z
-x,1/2-y,z
x,-y,-z
-x,1/2+y,-z
-x,-y,-z
x,1/2+y,-z
-x,y,z
x,1/2-y,z
1/2+x,1/2+y,1/2+z
1/2-x,-y,1/2+z
1/2+x,1/2-y,1/2-z
1/2-x,y,1/2-z
1/2-x,1/2-y,1/2-z
1/2+x,y,1/2-z
1/2-x,1/2+y,1/2+z
1/2+x,-y,1/2+z
loop_
_atom_site_type_symbol
_atom_site_label
_atom_site_fract_x
_atom_site_fract_y
_atom_site_fract_z
Si Si1 0.170964 0.419750 0.682600
Si Si2 0.821840 0.080865 0.854911
Si Si3 0.500000 0.578752 0.049738
Si Si4 0.222054 0.579154 0.950659
Si Si5 0.920843 0.925110 0.226886
Si Si6 0.628218 0.081765 0.090758
O O1 0.148402 0.250000 0.669969
O O2 0.255868 0.430138 0.682327
O O3 0.133604 0.473883 0.731487
O O4 0.147265 0.541588 0.644672
O O5 0.831312 0.250000 0.871463
O O6 0.889093 0.022483 0.824488
O O7 0.816095 0.987168 0.903727
O O8 0.500000 0.750000 0.040069
O O9 0.430945 0.534905 0.078072
O O10 0.500000 0.500000 0.000000
O O11 0.200609 0.750000 0.954315
O O12 0.305866 0.559383 0.944774
O O13 0.197987 0.500000 0.000000
O O14 0.925342 0.750000 0.226824
O O15 0.000000 0.991648 0.234095
O O16 0.600515 0.250000 0.088106
#
# Coordination Sequence:
#
# PCOD8299900 Si02
#       6
#    16  16   8  16  16  16
#     4   9  17  30  50  75 102 136 176 214 254 300
#     4   9  17  31  51  75 104 137 172 213 258 305
#     4  12  24  36  50  68  96 136 176 216 261 306
#     4  10  20  34  54  77 101 129 166 212 260 311
#     4   9  17  29  49  77 106 136 175 217 256 303
#     4  10  21  35  50  72 102 134 171 214 257 305
#
# _framework density 18.461935
#
# number of rings (size 3 to 8) (size 9 to 14) (size 15 to 20)
#    0.000    2.364    0.000    3.000    1.273    5.818 
#    0.000    0.909    0.000    6.545    0.000    0.000 
#    0.000    0.000    0.000    0.000    0.000    0.000 
#
# Total GULP energy -545335.631017 kJ/mol
# GULP energy per Si atom -12393.991614 kJ/mol
# Density = 1.841992 g / cm^3
# Si number density = 18.461935 Si / 1000 Ang^3
#
#
#
# Elastic Constant Matrix: (Units=GPa)
#
#
# Indices 1 2 3 4 5 6 
#
# 1 66.6475 22.6380 46.7428 0.0000 0.0000 0.0000
# 2 22.6380 85.8426 40.6762 0.0000 0.0000 0.0000
# 3 46.7428 40.6762 117.1009 0.0000 0.0000 0.0000
# 4 0.0000 0.0000 0.0000 23.4593 0.0000 0.0000
# 5 0.0000 0.0000 0.0000 0.0000 14.0536 0.0000
# 6 0.0000 0.0000 0.0000 0.0000 0.0000 14.2134
#
#
#
# Elastic Compliance Matrix: (Units=1/GPa)
#
#
# Indices 1 2 3 4 5 6 
#
# 1 0.021089 -0.001882 -0.007764 0.000000 0.000000 0.000000
# 2 -0.001882 0.014112 -0.004151 0.000000 0.000000 0.000000
# 3 -0.007764 -0.004151 0.013081 0.000000 0.000000 0.000000
# 4 0.000000 0.000000 0.000000 0.042627 0.000000 0.000000
# 5 0.000000 0.000000 0.000000 0.000000 0.071156 0.000000
# 6 0.000000 0.000000 0.000000 0.000000 0.000000 0.070356
#
#
# Mechanical properties :
#
#
# Convention : Reuss Voigt Hill
#
# Bulk Modulus (GPa) = 48.33840 54.41167 51.37503
# Shear Modulus (GPa) = 18.73279 20.98088 19.85683
#
# Velocity S-wave (km/s) = 3.18885 3.37477 3.28312
# Velocity P-wave (km/s) = 6.30856 6.68743 6.50076
#
# Compressibility (1/GPa) = 0.02068749
#
# Stress axis : x y z
#
# Youngs Moduli (GPa) = 47.41794 70.85947 76.44901
#
# Poissons Ratio (x) = 0.13339 0.59356
# Poissons Ratio (y) = 0.08926 0.31731
# Poissons Ratio (z) = 0.36816 0.29411
#
# Static dielectric constant tensor:
#      x y z
#    x 3.444370 0.000000 0.000000 
#    y 0.000000 3.217180 0.000000 
#    z 0.000000 0.000000 3.031060 
# 
# 
# High freq. dielectric constant tensor:
#      x y z
#    x 1.697090 0.000000 0.000000 
#    y 0.000000 1.699760 0.000000 
#    z 0.000000 0.000000 1.718730 
# 
# From -- ./inp_files/56984.got.cif
#   From: 2010.03.12/outbox.cif.g09.slc.cpg/sg74_29_cif.got.tgz:56984.got - 2010.04.16 15:46:19.
