data_PCOD8299478
_publ_section_title
;
Structure prediction by ZEFSAII (Michael W. Deem and Ramdas Pophale) SiO2 
 PCOD8299478
Probable space group: I M M A
;
_chemical_formula_sum "Si O2"
_cell_formula_units_Z 80
_cell_length_a 27.328063
_cell_length_b 9.056085
_cell_length_c 18.053657
_cell_angle_alpha 90.000000
_cell_angle_beta 90.000000
_cell_angle_gamma 90.000000
_cell_volume 4468.014022
_symmetry_space_group_name_H-M "I M M A"
_symmetry_group_IT_number 74
_symmetry_cell_setting 'orthorhombic'
loop_
_space_group_symop_operation_xyz
x,y,z
-x,1/2-y,z
x,-y,-z
-x,1/2+y,-z
-x,-y,-z
x,1/2+y,-z
-x,y,z
x,1/2-y,z
1/2+x,1/2+y,1/2+z
1/2-x,-y,1/2+z
1/2+x,1/2-y,1/2-z
1/2-x,y,1/2-z
1/2-x,1/2-y,1/2-z
1/2+x,y,1/2-z
1/2-x,1/2+y,1/2+z
1/2+x,-y,1/2+z
loop_
_atom_site_type_symbol
_atom_site_label
_atom_site_fract_x
_atom_site_fract_y
_atom_site_fract_z
Si Si1 0.908196 0.079704 0.575596
Si Si2 0.946197 0.580424 0.713376
Si Si3 0.696147 0.921269 0.144481
Si Si4 0.711354 0.422512 0.424562
Si Si5 0.846132 0.920328 0.780868
O O1 0.920545 0.250000 0.566176
O O2 0.851740 0.052534 0.595371
O O3 0.921710 0.000000 0.500000
O O4 0.942291 0.016726 0.640004
O O5 0.940007 0.750000 0.689426
O O6 0.903563 0.537779 0.771850
O O7 0.000000 0.552507 0.749176
O O8 0.710526 0.750000 0.149936
O O9 0.738248 0.011180 0.104376
O O10 0.687667 0.981662 0.227297
O O11 0.694561 0.500000 0.500000
O O12 0.719388 0.250000 0.439260
O O13 0.668484 0.452794 0.365268
O O14 0.836283 0.750000 0.760187
#
# Coordination Sequence:
#
# PCOD8299478 Si02
#       5
#    16  16  16  16  16
#     4  10  20  32  47  70 101 134 165 199 238 281
#     4   9  18  34  55  74  92 121 162 205 248 293
#     4  10  20  33  51  75 102 134 169 201 236 284
#     4  11  22  34  50  73 102 134 165 201 244 289
#     4   9  19  35  53  74 100 129 163 203 245 290
#
# _framework density 17.905047
#
# number of rings (size 3 to 8) (size 9 to 14) (size 15 to 20)
#    0.000    2.200    0.000    3.000    0.000    8.800 
#    0.000    0.000    0.000    0.600    0.000    0.000 
#    0.000    0.000    0.000    0.000    0.000    0.200 
#
# Total GULP energy -496067.609063 kJ/mol
# GULP energy per Si atom -12401.690227 kJ/mol
# Density = 1.786429 g / cm^3
# Si number density = 17.905047 Si / 1000 Ang^3
#
#
#
# Elastic Constant Matrix: (Units=GPa)
#
#
# Indices 1 2 3 4 5 6 
#
# 1 89.6151 38.5230 49.5452 0.0000 0.0000 0.0000
# 2 38.5230 90.9278 51.6069 0.0000 0.0000 0.0000
# 3 49.5452 51.6069 111.3363 0.0000 0.0000 0.0000
# 4 0.0000 0.0000 0.0000 30.9956 0.0000 0.0000
# 5 0.0000 0.0000 0.0000 0.0000 9.3089 0.0000
# 6 0.0000 0.0000 0.0000 0.0000 0.0000 20.3821
#
#
#
# Elastic Compliance Matrix: (Units=1/GPa)
#
#
# Indices 1 2 3 4 5 6 
#
# 1 0.015636 -0.003630 -0.005275 0.000000 0.000000 0.000000
# 2 -0.003630 0.015767 -0.005693 0.000000 0.000000 0.000000
# 3 -0.005275 -0.005693 0.013968 0.000000 0.000000 0.000000
# 4 0.000000 0.000000 0.000000 0.032263 0.000000 0.000000
# 5 0.000000 0.000000 0.000000 0.000000 0.107424 0.000000
# 6 0.000000 0.000000 0.000000 0.000000 0.000000 0.049063
#
#
# Mechanical properties :
#
#
# Convention : Reuss Voigt Hill
#
# Bulk Modulus (GPa) = 61.82782 63.46995 62.64888
# Shear Modulus (GPa) = 18.60758 22.28428 20.44593
#
# Velocity S-wave (km/s) = 3.22722 3.53169 3.38288
# Velocity P-wave (km/s) = 6.96365 7.22187 7.09394
#
# Compressibility (1/GPa) = 0.01617395
#
# Stress axis : x y z
#
# Youngs Moduli (GPa) = 63.95507 63.42459 71.59196
#
# Poissons Ratio (x) = 0.23025 0.37767
# Poissons Ratio (y) = 0.23218 0.40755
# Poissons Ratio (z) = 0.33738 0.36106
#
# Static dielectric constant tensor:
#      x y z
#    x 3.372770 0.000000 0.000000 
#    y 0.000000 3.442700 0.000000 
#    z 0.000000 0.000000 3.271830 
# 
# 
# High freq. dielectric constant tensor:
#      x y z
#    x 1.688760 0.000000 0.000000 
#    y 0.000000 1.703880 0.000000 
#    z 0.000000 0.000000 1.676040 
# 
# From -- ./inp_files/39691.got.cif
#   From: 2010.03.12/outbox.cif.g09.slc.cpg/sg74_20_cif.got.tgz:39691.got - 2010.04.16 15:46:19.
