data_PCOD8299942
_publ_section_title
;
Structure prediction by ZEFSAII (Michael W. Deem and Ramdas Pophale) SiO2 
 PCOD8299942
Probable space group: I M M A
;
_chemical_formula_sum "Si O2"
_cell_formula_units_Z 88
_cell_length_a 18.650298
_cell_length_b 18.835232
_cell_length_c 12.037160
_cell_angle_alpha 90.000000
_cell_angle_beta 90.000000
_cell_angle_gamma 90.000000
_cell_volume 4228.445941
_symmetry_space_group_name_H-M "I M M A"
_symmetry_group_IT_number 74
_symmetry_cell_setting 'orthorhombic'
loop_
_space_group_symop_operation_xyz
x,y,z
-x,1/2-y,z
x,-y,-z
-x,1/2+y,-z
-x,-y,-z
x,1/2+y,-z
-x,y,z
x,1/2-y,z
1/2+x,1/2+y,1/2+z
1/2-x,-y,1/2+z
1/2+x,1/2-y,1/2-z
1/2-x,y,1/2-z
1/2-x,1/2-y,1/2-z
1/2+x,y,1/2-z
1/2-x,1/2+y,1/2+z
1/2+x,-y,1/2+z
loop_
_atom_site_type_symbol
_atom_site_label
_atom_site_fract_x
_atom_site_fract_y
_atom_site_fract_z
Si Si1 0.200580 0.169690 0.350685
Si Si2 0.892203 0.987598 0.823166
Si Si3 0.277637 0.827327 0.421782
Si Si4 0.250000 0.439621 0.750000
Si Si5 0.079115 0.610167 0.016168
Si Si6 0.078687 0.056337 0.408064
O O1 0.172848 0.250000 0.324699
O O2 0.250000 0.140491 0.250000
O O3 0.252684 0.169635 0.453587
O O4 0.133229 0.120165 0.381649
O O5 0.812364 0.008366 0.786864
O O6 0.930143 0.044242 0.901112
O O7 0.935739 0.982253 0.709102
O O8 0.892364 0.914266 0.894208
O O9 0.262431 0.750000 0.368750
O O10 0.233912 0.886853 0.353146
O O11 0.363759 0.837922 0.425751
O O12 0.000000 0.645843 0.004141
O O13 0.000000 0.084309 0.448818
O O14 0.108963 0.000000 0.500000
#
# Coordination Sequence:
#
# PCOD8299942 Si02
#       6
#    16  16  16   8  16  16
#     4  10  22  40  59  81 115 154 194 241 289 344
#     4  10  20  34  54  81 113 143 183 232 285 335
#     4  10  21  37  56  81 113 147 189 235 279 338
#     4  10  21  34  56  84 107 150 184 230 282 344
#     4  10  20  35  57  82 112 148 184 233 292 339
#     4  11  23  37  57  85 118 151 190 241 291 346
#
# _framework density 20.811427999999999
#
# number of rings (size 3 to 8) (size 9 to 14) (size 15 to 20)
#    0.000    1.818    0.000    4.636    3.818    0.727 
#    0.000    0.000    0.000    5.455    0.000    5.091 
#    0.000    0.000    0.000    0.000    0.000    0.000 
#
# Total GULP energy -545122.584586 kJ/mol
# GULP energy per Si atom -12389.149650 kJ/mol
# Density = 2.076406 g / cm^3
# Si number density = 20.811428 Si / 1000 Ang^3
#
#
#
# Elastic Constant Matrix: (Units=GPa)
#
#
# Indices 1 2 3 4 5 6 
#
# 1 119.2673 42.0932 17.3982 0.0000 0.0000 0.0000
# 2 42.0932 69.3391 26.8747 0.0000 0.0000 0.0000
# 3 17.3982 26.8747 104.0689 0.0000 0.0000 0.0000
# 4 0.0000 0.0000 0.0000 23.3891 0.0000 0.0000
# 5 0.0000 0.0000 0.0000 0.0000 345.3289 0.0000
# 6 0.0000 0.0000 0.0000 0.0000 0.0000 9.1193
#
#
#
# Elastic Compliance Matrix: (Units=1/GPa)
#
#
# Indices 1 2 3 4 5 6 
#
# 1 0.010672 -0.006431 -0.000123 0.000000 0.000000 0.000000
# 2 -0.006431 0.019901 -0.004064 0.000000 0.000000 0.000000
# 3 -0.000123 -0.004064 0.010679 0.000000 0.000000 0.000000
# 4 0.000000 0.000000 0.000000 0.042755 0.000000 0.000000
# 5 0.000000 0.000000 0.000000 0.000000 0.002896 0.000000
# 6 0.000000 0.000000 0.000000 0.000000 0.000000 0.109657
#
#
# Mechanical properties :
#
#
# Convention : Reuss Voigt Hill
#
# Bulk Modulus (GPa) = 49.96129 51.71195 50.83662
# Shear Modulus (GPa) = 22.27481 89.32141 55.79811
#
# Velocity S-wave (km/s) = 3.27512 6.55840 5.18358
# Velocity P-wave (km/s) = 6.19360 9.06928 7.76571
#
# Compressibility (1/GPa) = 0.02001549
#
# Stress axis : x y z
#
# Youngs Moduli (GPa) = 93.70156 50.24875 93.64013
#
# Poissons Ratio (x) = 0.32314 0.01156
# Poissons Ratio (y) = 0.60258 0.38057
# Poissons Ratio (z) = 0.01157 0.20422
#
# Static dielectric constant tensor:
#      x y z
#    x 3.604580 0.000000 0.000000 
#    y 0.000000 3.805900 0.000000 
#    z 0.000000 0.000000 4.015440 
# 
# 
# High freq. dielectric constant tensor:
#      x y z
#    x 1.813380 0.000000 0.000000 
#    y 0.000000 1.794010 0.000000 
#    z 0.000000 0.000000 1.828680 
# 
# From -- ./inp_files/22218.got.cif
#   From: 2010.03.12/outbox.cif.g09.slc.cpg/sg74_12_cif.got.tgz:22218.got - 2010.04.16 15:46:19.
