data_PCOD8299558
_publ_section_title
;
Structure prediction by ZEFSAII (Michael W. Deem and Ramdas Pophale) SiO2 
 PCOD8299558
Probable space group: I M M A
;
_chemical_formula_sum "Si O2"
_cell_formula_units_Z 88
_cell_length_a 12.551650
_cell_length_b 30.104169
_cell_length_c 11.497823
_cell_angle_alpha 90.000000
_cell_angle_beta 90.000000
_cell_angle_gamma 90.000000
_cell_volume 4344.532823
_symmetry_space_group_name_H-M "I M M A"
_symmetry_group_IT_number 74
_symmetry_cell_setting 'orthorhombic'
loop_
_space_group_symop_operation_xyz
x,y,z
-x,1/2-y,z
x,-y,-z
-x,1/2+y,-z
-x,-y,-z
x,1/2+y,-z
-x,y,z
x,1/2-y,z
1/2+x,1/2+y,1/2+z
1/2-x,-y,1/2+z
1/2+x,1/2-y,1/2-z
1/2-x,y,1/2-z
1/2-x,1/2-y,1/2-z
1/2+x,y,1/2-z
1/2-x,1/2+y,1/2+z
1/2+x,-y,1/2+z
loop_
_atom_site_type_symbol
_atom_site_label
_atom_site_fract_x
_atom_site_fract_y
_atom_site_fract_z
Si Si1 0.877287 0.200381 0.555087
Si Si2 0.879941 0.063668 0.457431
Si Si3 0.124304 0.090836 0.941754
Si Si4 0.624584 0.614007 0.189198
Si Si5 0.786925 0.500000 0.000000
Si Si6 0.771360 0.358074 0.380927
O O1 0.846256 0.250000 0.596643
O O2 0.855586 0.165546 0.658216
O O3 0.804664 0.187144 0.445106
O O4 0.000000 0.198169 0.515858
O O5 0.836519 0.080605 0.585452
O O6 0.870323 0.106931 0.375653
O O7 0.000000 0.045537 0.457118
O O8 0.798536 0.025209 0.413978
O O9 0.177111 0.106472 0.817425
O O10 0.000000 0.102498 0.944490
O O11 0.137504 0.037292 0.944903
O O12 0.174964 0.116965 0.051121
O O13 0.500000 0.603650 0.201008
O O14 0.750000 0.343883 0.250000
#
# Coordination Sequence:
#
# PCOD8299558 Si02
#       6
#    16  16  16  16   8  16
#     4   9  18  35  62  91 112 135 177 232 283 337
#     4   9  18  35  55  78 106 140 185 238 288 329
#     4  10  21  38  55  76 109 148 186 231 281 333
#     4   8  16  34  59  80 106 142 174 222 292 339
#     4  10  20  32  52  78 106 138 188 232 276 332
#     4  10  21  35  53  78 112 156 192 220 264 329
#
# _framework density 20.255341999999999
#
# number of rings (size 3 to 8) (size 9 to 14) (size 15 to 20)
#    0.000    2.727    0.000    2.182    0.000    8.364 
#   13.091    1.818    0.000    1.636    0.000    0.000 
#    0.000    0.000    0.000    0.000    0.000    0.000 
#
# Total GULP energy -545148.398450 kJ/mol
# GULP energy per Si atom -12389.736328 kJ/mol
# Density = 2.020924 g / cm^3
# Si number density = 20.255342 Si / 1000 Ang^3
#
#
#
# Elastic Constant Matrix: (Units=GPa)
#
#
# Indices 1 2 3 4 5 6 
#
# 1 59.6423 24.7067 32.9691 0.0007 0.0000 0.0001
# 2 24.7067 125.2811 37.1809 0.0004 -0.0002 0.0001
# 3 32.9691 37.1809 114.8566 0.0056 -0.0001 -0.0008
# 4 0.0007 0.0004 0.0056 15.2021 -0.0002 -0.0005
# 5 0.0000 -0.0002 -0.0001 -0.0002 25.4239 0.0000
# 6 0.0001 0.0001 -0.0008 -0.0005 0.0000 27.7406
#
#
#
# Elastic Compliance Matrix: (Units=1/GPa)
#
#
# Indices 1 2 3 4 5 6 
#
# 1 0.020644 -0.002558 -0.005098 0.000001 0.000000 0.000000
# 2 -0.002558 0.009147 -0.002227 0.000001 0.000000 0.000000
# 3 -0.005098 -0.002227 0.010891 -0.000004 0.000000 0.000000
# 4 0.000001 0.000001 -0.000004 0.065780 0.000001 0.000001
# 5 0.000000 0.000000 0.000000 0.000001 0.039333 0.000000
# 6 0.000000 0.000000 0.000000 0.000001 0.000000 0.036048
#
#
# Mechanical properties :
#
#
# Convention : Reuss Voigt Hill
#
# Bulk Modulus (GPa) = 47.80875 54.38817 51.09846
# Shear Modulus (GPa) = 23.97138 27.33486 25.65312
#
# Velocity S-wave (km/s) = 3.44388 3.67756 3.56263
# Velocity P-wave (km/s) = 6.28236 6.70389 6.49654
#
# Compressibility (1/GPa) = 0.02091667
#
# Stress axis : x y z
#
# Youngs Moduli (GPa) = 48.43949 109.31995 91.82200
#
# Poissons Ratio (x) = 0.27968 0.46808
# Poissons Ratio (y) = 0.12393 0.20447
# Poissons Ratio (z) = 0.24693 0.24343
#
# Static dielectric constant tensor:
#      x y z
#    x 3.857450 0.000000 0.000000 
#    y 0.000000 3.687390 0.000000 
#    z 0.000000 0.000000 3.479870 
# 
# 
# High freq. dielectric constant tensor:
#      x y z
#    x 1.814450 0.000000 0.000000 
#    y 0.000000 1.783100 0.000000 
#    z 0.000000 0.000000 1.757130 
# 
# From -- ./inp_files/21032.got.cif
#   From: 2010.03.12/outbox.cif.g09.slc.cpg/sg74_11_cif.got.tgz:21032.got - 2010.04.16 15:46:19.
