data_PCOD8299883
_publ_section_title
;
Structure prediction by ZEFSAII (Michael W. Deem and Ramdas Pophale) SiO2 
 PCOD8299883
Probable space group: I M M A
;
_chemical_formula_sum "Si O2"
_cell_formula_units_Z 80
_cell_length_a 8.970575
_cell_length_b 25.164997
_cell_length_c 18.469773
_cell_angle_alpha 90.000000
_cell_angle_beta 90.000000
_cell_angle_gamma 90.000000
_cell_volume 4169.449541
_symmetry_space_group_name_H-M "I M M A"
_symmetry_group_IT_number 74
_symmetry_cell_setting 'orthorhombic'
loop_
_space_group_symop_operation_xyz
x,y,z
-x,1/2-y,z
x,-y,-z
-x,1/2+y,-z
-x,-y,-z
x,1/2+y,-z
-x,y,z
x,1/2-y,z
1/2+x,1/2+y,1/2+z
1/2-x,-y,1/2+z
1/2+x,1/2-y,1/2-z
1/2-x,y,1/2-z
1/2-x,1/2-y,1/2-z
1/2+x,y,1/2-z
1/2-x,1/2+y,1/2+z
1/2+x,-y,1/2+z
loop_
_atom_site_type_symbol
_atom_site_label
_atom_site_fract_x
_atom_site_fract_y
_atom_site_fract_z
Si Si1 0.672872 0.811796 0.416128
Si Si2 0.175326 0.098404 0.327374
Si Si3 0.172237 0.689326 0.563988
Si Si4 0.323559 0.499178 0.919067
Si Si5 0.176191 0.101379 0.674186
O O1 0.500000 0.826488 0.410981
O O2 0.702606 0.750000 0.401705
O O3 0.731217 0.828151 0.495180
O O4 0.762547 0.842771 0.354538
O O5 0.250000 0.099720 0.250000
O O6 0.217397 0.152680 0.368690
O O7 0.000000 0.092825 0.316025
O O8 0.239480 0.048783 0.373194
O O9 0.205138 0.750000 0.586632
O O10 0.000000 0.680856 0.542527
O O11 0.500000 0.504571 0.923635
O O12 0.275809 0.444407 0.881661
O O13 0.255167 0.500000 0.000000
O O14 0.250000 0.086927 0.750000
O O15 0.000000 0.105089 0.684095
#
# Coordination Sequence:
#
# PCOD8299883 Si02
#       5
#    16  16  16  16  16
#     4  10  21  37  57  81 108 138 175 220 268 318
#     4  10  20  34  53  78 110 144 178 219 266 316
#     4   9  18  34  56  80 106 141 184 223 261 310
#     4   9  18  34  56  79 103 137 180 221 264 315
#     4  11  22  36  56  80 109 143 178 219 265 315
#
# _framework density 19.187183999999998
#
# number of rings (size 3 to 8) (size 9 to 14) (size 15 to 20)
#    0.000    2.200    0.000    3.000    0.000    6.000 
#    0.000    1.000    0.000    4.200    0.000    0.000 
#    0.000    0.000    0.000    0.000    0.000    0.000 
#
# Total GULP energy -496146.701992 kJ/mol
# GULP energy per Si atom -12403.667550 kJ/mol
# Density = 1.914351 g / cm^3
# Si number density = 19.187184 Si / 1000 Ang^3
#
#
#
# Elastic Constant Matrix: (Units=GPa)
#
#
# Indices 1 2 3 4 5 6 
#
# 1 65.7380 45.7372 57.0465 0.0000 0.0000 0.0000
# 2 45.7372 102.8482 70.1901 0.0000 0.0000 0.0000
# 3 57.0465 70.1901 160.3109 -0.0002 0.0000 0.0000
# 4 0.0000 0.0000 -0.0002 30.2015 0.0000 0.0000
# 5 0.0000 0.0000 0.0000 0.0000 37.7449 0.0000
# 6 0.0000 0.0000 0.0000 0.0000 0.0000 19.2690
#
#
#
# Elastic Compliance Matrix: (Units=1/GPa)
#
#
# Indices 1 2 3 4 5 6 
#
# 1 0.025341 -0.007295 -0.005824 0.000000 0.000000 0.000000
# 2 -0.007295 0.015966 -0.004395 0.000000 0.000000 0.000000
# 3 -0.005824 -0.004395 0.010234 0.000000 0.000000 0.000000
# 4 0.000000 0.000000 0.000000 0.033111 0.000000 0.000000
# 5 0.000000 0.000000 0.000000 0.000000 0.026494 0.000000
# 6 0.000000 0.000000 0.000000 0.000000 0.000000 0.051897
#
#
# Mechanical properties :
#
#
# Convention : Reuss Voigt Hill
#
# Bulk Modulus (GPa) = 60.55021 74.98275 67.76648
# Shear Modulus (GPa) = 24.56098 27.83796 26.19947
#
# Velocity S-wave (km/s) = 3.58169 3.81315 3.69923
# Velocity P-wave (km/s) = 6.98075 7.65188 7.32400
#
# Compressibility (1/GPa) = 0.01651522
#
# Stress axis : x y z
#
# Youngs Moduli (GPa) = 39.46187 62.63135 97.70955
#
# Poissons Ratio (x) = 0.45689 0.56902
# Poissons Ratio (y) = 0.28787 0.42942
# Poissons Ratio (z) = 0.22981 0.27525
#
# Static dielectric constant tensor:
#      x y z
#    x 3.328870 0.000000 0.000000 
#    y 0.000000 3.679380 0.000000 
#    z 0.000000 0.000000 3.553160 
# 
# 
# High freq. dielectric constant tensor:
#      x y z
#    x 1.725640 0.000000 0.000000 
#    y 0.000000 1.759780 0.000000 
#    z 0.000000 0.000000 1.751940 
# 
# From -- ./inp_files/39758.got.cif
#   From: 2010.03.12/outbox.cif.g09.slc.cpg/sg74_20_cif.got.tgz:39758.got - 2010.04.16 15:46:19.
