data_PCOD8299280
_publ_section_title
;
Structure prediction by ZEFSAII (Michael W. Deem and Ramdas Pophale) SiO2 
 PCOD8299280
Probable space group: I M M A
;
_chemical_formula_sum "Si O2"
_cell_formula_units_Z 88
_cell_length_a 19.141948
_cell_length_b 20.760652
_cell_length_c 11.297427
_cell_angle_alpha 90.000000
_cell_angle_beta 90.000000
_cell_angle_gamma 90.000000
_cell_volume 4489.589819
_symmetry_space_group_name_H-M "I M M A"
_symmetry_group_IT_number 74
_symmetry_cell_setting 'orthorhombic'
loop_
_space_group_symop_operation_xyz
x,y,z
-x,1/2-y,z
x,-y,-z
-x,1/2+y,-z
-x,-y,-z
x,1/2+y,-z
-x,y,z
x,1/2-y,z
1/2+x,1/2+y,1/2+z
1/2-x,-y,1/2+z
1/2+x,1/2-y,1/2-z
1/2-x,y,1/2-z
1/2-x,1/2-y,1/2-z
1/2+x,y,1/2-z
1/2-x,1/2+y,1/2+z
1/2+x,-y,1/2+z
loop_
_atom_site_type_symbol
_atom_site_label
_atom_site_fract_x
_atom_site_fract_y
_atom_site_fract_z
Si Si1 0.079670 0.564831 0.438534
Si Si2 0.678999 0.676860 0.046085
Si Si3 0.250000 0.388896 0.750000
Si Si4 0.204967 0.323434 0.144197
Si Si5 0.880609 0.953271 0.169307
Si Si6 0.579959 0.408889 0.422915
O O1 0.109851 0.500000 0.500000
O O2 0.120017 0.626138 0.494702
O O3 0.085605 0.561247 0.296624
O O4 0.000000 0.574269 0.475874
O O5 0.649802 0.750000 0.039426
O O6 0.698994 0.658245 0.179089
O O7 0.750025 0.669118 0.973667
O O8 0.201833 0.435612 0.830389
O O9 0.190231 0.250000 0.178696
O O10 0.250000 0.356014 0.250000
O O11 0.128478 0.352685 0.126960
O O12 0.889940 0.027381 0.137516
O O13 0.917749 0.911869 0.066041
O O14 0.500000 0.396816 0.383765
#
# Coordination Sequence:
#
# PCOD8299280 Si02
#       6
#    16  16   8  16  16  16
#     4  10  22  38  58  86 122 158 195 240 297 359
#     4  10  21  38  60  85 114 151 196 242 292 350
#     4  10  19  36  60  88 115 154 190 240 297 358
#     4  10  23  41  59  84 118 156 199 247 296 358
#     4  10  21  37  59  89 119 152 197 245 299 357
#     4  11  22  38  63  87 118 155 196 254 305 353
#
# _framework density 19.600898999999998
#
# number of rings (size 3 to 8) (size 9 to 14) (size 15 to 20)
#    0.000    1.818    1.818    2.455    3.818    2.182 
#    0.000    0.000    0.000    5.455    0.000    0.000 
#    0.000    0.000    0.000    0.000    0.000    0.000 
#
# Total GULP energy -545486.240706 kJ/mol
# GULP energy per Si atom -12397.414562 kJ/mol
# Density = 1.955629 g / cm^3
# Si number density = 19.600899 Si / 1000 Ang^3
#
#
#
# Elastic Constant Matrix: (Units=GPa)
#
#
# Indices 1 2 3 4 5 6 
#
# 1 106.8672 85.7529 22.7517 0.0000 0.0000 0.0000
# 2 85.7529 129.7410 35.7978 0.0000 0.0000 0.0000
# 3 22.7517 35.7978 66.2864 0.0000 0.0000 0.0000
# 4 0.0000 0.0000 0.0000 23.9489 0.0000 0.0000
# 5 0.0000 0.0000 0.0000 0.0000 28.7679 0.0000
# 6 0.0000 0.0000 0.0000 0.0000 0.0000 21.8523
#
#
#
# Elastic Compliance Matrix: (Units=1/GPa)
#
#
# Indices 1 2 3 4 5 6 
#
# 1 0.019931 -0.013262 0.000321 0.000000 0.000000 0.000000
# 2 -0.013262 0.017882 -0.005105 0.000000 0.000000 0.000000
# 3 0.000321 -0.005105 0.017733 0.000000 0.000000 0.000000
# 4 0.000000 0.000000 0.000000 0.041756 0.000000 0.000000
# 5 0.000000 0.000000 0.000000 0.000000 0.034761 0.000000
# 6 0.000000 0.000000 0.000000 0.000000 0.000000 0.045762
#
#
# Mechanical properties :
#
#
# Convention : Reuss Voigt Hill
#
# Bulk Modulus (GPa) = 51.40421 65.72215 58.56318
# Shear Modulus (GPa) = 22.68605 25.48665 24.08635
#
# Velocity S-wave (km/s) = 3.40575 3.60985 3.50928
# Velocity P-wave (km/s) = 6.46126 7.13986 6.80902
#
# Compressibility (1/GPa) = 0.01945366
#
# Stress axis : x y z
#
# Youngs Moduli (GPa) = 50.17375 55.92282 56.39271
#
# Poissons Ratio (x) = 0.74165 -0.01811
# Poissons Ratio (y) = 0.66540 0.28789
# Poissons Ratio (z) = -0.01611 0.28549
#
# Static dielectric constant tensor:
#      x y z
#    x 3.598280 0.000000 0.000000 
#    y 0.000000 3.550810 0.000000 
#    z 0.000000 0.000000 3.631640 
# 
# 
# High freq. dielectric constant tensor:
#      x y z
#    x 1.763780 0.000000 0.000000 
#    y 0.000000 1.754510 0.000000 
#    z 0.000000 0.000000 1.767700 
# 
# From -- ./inp_files/22206.got.cif
#   From: 2010.03.12/outbox.cif.g09.slc.cpg/sg74_12_cif.got.tgz:22206.got - 2010.04.16 15:46:19.
