data_PCOD8299953
_publ_section_title
;
Structure prediction by ZEFSAII (Michael W. Deem and Ramdas Pophale) SiO2 
 PCOD8299953
Probable space group: I M M A
;
_chemical_formula_sum "Si O2"
_cell_formula_units_Z 48
_cell_length_a 18.514066
_cell_length_b 15.547887
_cell_length_c 9.167724
_cell_angle_alpha 90.000000
_cell_angle_beta 90.000000
_cell_angle_gamma 90.000000
_cell_volume 2638.971581
_symmetry_space_group_name_H-M "I M M A"
_symmetry_group_IT_number 74
_symmetry_cell_setting 'orthorhombic'
loop_
_space_group_symop_operation_xyz
x,y,z
-x,1/2-y,z
x,-y,-z
-x,1/2+y,-z
-x,-y,-z
x,1/2+y,-z
-x,y,z
x,1/2-y,z
1/2+x,1/2+y,1/2+z
1/2-x,-y,1/2+z
1/2+x,1/2-y,1/2-z
1/2-x,y,1/2-z
1/2-x,1/2-y,1/2-z
1/2+x,y,1/2-z
1/2-x,1/2+y,1/2+z
1/2+x,-y,1/2+z
loop_
_atom_site_type_symbol
_atom_site_label
_atom_site_fract_x
_atom_site_fract_y
_atom_site_fract_z
Si Si1 0.079297 0.844879 0.363925
Si Si2 0.338411 0.750000 0.586536
Si Si3 0.828851 0.250000 0.428150
Si Si4 0.414826 0.591274 0.438732
O O1 0.072315 0.750000 0.290949
O O2 0.135617 0.836657 0.498981
O O3 0.106148 0.906837 0.233665
O O4 0.000000 0.874535 0.422523
O O5 0.255361 0.750000 0.537948
O O6 0.347218 0.750000 0.759547
O O7 0.374357 0.664360 0.527310
O O8 0.388919 0.500000 0.500000
O O9 0.500000 0.605213 0.458504
#
# Coordination Sequence:
#
# PCOD8299953 Si02
#       4
#    16   8   8  16
#     4   8  15  32  55  78 104 135 172 211 261 316
#     4  11  20  35  52  76 108 139 176 219 264 310
#     4   9  20  33  52  78 108 141 176 215 260 318
#     4  10  20  34  55  80 103 134 179 222 262 315
#
# _framework density 18.188904999999998
#
# number of rings (size 3 to 8) (size 9 to 14) (size 15 to 20)
#    1.000    1.667    1.667    0.500    0.000    5.333 
#    0.000    8.333    0.000    6.000    0.000    0.000 
#    0.000    0.000    0.000    0.000    0.000    0.000 
#
# Total GULP energy -297330.216607 kJ/mol
# GULP energy per Si atom -12388.759025 kJ/mol
# Density = 1.814751 g / cm^3
# Si number density = 18.188905 Si / 1000 Ang^3
#
#
#
# Elastic Constant Matrix: (Units=GPa)
#
#
# Indices 1 2 3 4 5 6 
#
# 1 99.6822 53.7632 75.7761 0.0000 0.0000 0.0000
# 2 53.7632 92.3925 52.2659 0.0000 0.0000 0.0000
# 3 75.7761 52.2659 116.3629 0.0000 0.0000 0.0000
# 4 0.0000 0.0000 0.0000 8.2913 0.0000 0.0000
# 5 0.0000 0.0000 0.0000 0.0000 32.6927 0.0000
# 6 0.0000 0.0000 0.0000 0.0000 0.0000 6.1646
#
#
#
# Elastic Compliance Matrix: (Units=1/GPa)
#
#
# Indices 1 2 3 4 5 6 
#
# 1 0.022377 -0.006405 -0.011695 0.000000 0.000000 0.000000
# 2 -0.006405 0.016344 -0.003170 0.000000 0.000000 0.000000
# 3 -0.011695 -0.003170 0.017633 0.000000 0.000000 0.000000
# 4 0.000000 0.000000 0.000000 0.120608 0.000000 0.000000
# 5 0.000000 0.000000 0.000000 0.000000 0.030588 0.000000
# 6 0.000000 0.000000 0.000000 0.000000 0.000000 0.162217
#
#
# Mechanical properties :
#
#
# Convention : Reuss Voigt Hill
#
# Bulk Modulus (GPa) = 72.39099 74.67198 73.53148
# Shear Modulus (GPa) = 11.99298 17.87189 14.93243
#
# Velocity S-wave (km/s) = 2.57058 3.13800 2.86836
# Velocity P-wave (km/s) = 6.97828 7.36696 7.17525
#
# Compressibility (1/GPa) = 0.01381387
#
# Stress axis : x y z
#
# Youngs Moduli (GPa) = 44.68946 61.18519 56.71096
#
# Poissons Ratio (x) = 0.39191 0.66322
# Poissons Ratio (y) = 0.28625 0.17977
# Poissons Ratio (z) = 0.52263 0.19395
#
# Static dielectric constant tensor:
#      x y z
#    x 3.325100 0.000000 0.000000 
#    y 0.000000 3.156990 0.000000 
#    z 0.000000 0.000000 3.283140 
# 
# 
# High freq. dielectric constant tensor:
#      x y z
#    x 1.701080 0.000000 0.000000 
#    y 0.000000 1.675180 0.000000 
#    z 0.000000 0.000000 1.706420 
# 
# From -- ./inp_files/21425.got.cif
#   From: 2010.03.12/outbox.cif.g09.slc.cpg/sg74_11_cif.got.tgz:21425.got - 2010.04.16 15:46:19.
