data_PCOD8299271
_publ_section_title
;
Structure prediction by ZEFSAII (Michael W. Deem and Ramdas Pophale) SiO2 
 PCOD8299271
Probable space group: I M M A
;
_chemical_formula_sum "Si O2"
_cell_formula_units_Z 88
_cell_length_a 9.014722
_cell_length_b 21.476852
_cell_length_c 24.196447
_cell_angle_alpha 90.000000
_cell_angle_beta 90.000000
_cell_angle_gamma 90.000000
_cell_volume 4684.622087
_symmetry_space_group_name_H-M "I M M A"
_symmetry_group_IT_number 74
_symmetry_cell_setting 'orthorhombic'
loop_
_space_group_symop_operation_xyz
x,y,z
-x,1/2-y,z
x,-y,-z
-x,1/2+y,-z
-x,-y,-z
x,1/2+y,-z
-x,y,z
x,1/2-y,z
1/2+x,1/2+y,1/2+z
1/2-x,-y,1/2+z
1/2+x,1/2-y,1/2-z
1/2-x,y,1/2-z
1/2-x,1/2-y,1/2-z
1/2+x,y,1/2-z
1/2-x,1/2+y,1/2+z
1/2+x,-y,1/2+z
loop_
_atom_site_type_symbol
_atom_site_label
_atom_site_fract_x
_atom_site_fract_y
_atom_site_fract_z
Si Si1 0.826319 0.679292 0.804831
Si Si2 0.668907 0.979080 0.058466
Si Si3 0.826916 0.250000 0.690554
Si Si4 0.831611 0.318219 0.009281
Si Si5 0.831139 0.889685 0.599618
Si Si6 0.824402 0.845729 0.402519
O O1 0.774883 0.750000 0.815985
O O2 0.750000 0.652808 0.750000
O O3 0.778539 0.636954 0.855184
O O4 0.000000 0.674314 0.796811
O O5 0.500000 0.963445 0.043118
O O6 0.731374 0.917959 0.090417
O O7 0.681520 0.035787 0.101559
O O8 0.747317 0.000000 0.000000
O O9 0.750000 0.250000 0.750000
O O10 0.783523 0.186917 0.656152
O O11 0.000000 0.250000 0.702651
O O12 0.830173 0.250000 0.038199
O O13 0.723016 0.365771 0.040167
O O14 0.000000 0.344200 0.008514
O O15 0.767467 0.308538 0.948261
O O16 0.000000 0.867741 0.609878
O O17 0.000000 0.838399 0.412426
#
# Coordination Sequence:
#
# PCOD8299271 Si02
#       6
#    16  16   8  16  16  16
#     4  10  21  38  58  80 109 144 185 233 279 324
#     4   9  17  32  55  82 113 147 182 226 276 332
#     4  10  22  38  62  86 110 146 189 238 283 338
#     4  11  22  33  49  79 116 148 179 229 284 329
#     4  11  21  34  55  81 112 151 188 224 271 333
#     4  10  19  36  59  83 107 140 188 232 280 340
#
# _framework density 18.784867999999999
#
# number of rings (size 3 to 8) (size 9 to 14) (size 15 to 20)
#    0.000    1.818    2.727    2.182    0.000    5.091 
#    0.000    3.636    0.000    2.182    0.000    0.000 
#    0.000    0.000    0.000    0.000    0.000    0.000 
#
# Total GULP energy -545335.852689 kJ/mol
# GULP energy per Si atom -12393.996652 kJ/mol
# Density = 1.874211 g / cm^3
# Si number density = 18.784868 Si / 1000 Ang^3
#
#
#
# Elastic Constant Matrix: (Units=GPa)
#
#
# Indices 1 2 3 4 5 6 
#
# 1 58.7858 28.3470 27.1387 0.0000 0.0000 0.0000
# 2 28.3470 119.2494 49.6491 0.0000 0.0000 0.0000
# 3 27.1387 49.6491 113.7934 0.0000 0.0000 0.0000
# 4 0.0000 0.0000 0.0000 8.1671 0.0000 0.0000
# 5 0.0000 0.0000 0.0000 0.0000 35.7503 0.0000
# 6 0.0000 0.0000 0.0000 0.0000 0.0000 15.5787
#
#
#
# Elastic Compliance Matrix: (Units=1/GPa)
#
#
# Indices 1 2 3 4 5 6 
#
# 1 0.020193 -0.003416 -0.003326 0.000000 0.000000 0.000000
# 2 -0.003416 0.010825 -0.003908 0.000000 0.000000 0.000000
# 3 -0.003326 -0.003908 0.011286 0.000000 0.000000 0.000000
# 4 0.000000 0.000000 0.000000 0.122442 0.000000 0.000000
# 5 0.000000 0.000000 0.000000 0.000000 0.027972 0.000000
# 6 0.000000 0.000000 0.000000 0.000000 0.000000 0.064190
#
#
# Mechanical properties :
#
#
# Convention : Reuss Voigt Hill
#
# Bulk Modulus (GPa) = 47.60738 55.78869 51.69803
# Shear Modulus (GPa) = 17.53097 24.34549 20.93823
#
# Velocity S-wave (km/s) = 3.05823 3.60393 3.34223
# Velocity P-wave (km/s) = 6.15377 6.86156 6.51728
#
# Compressibility (1/GPa) = 0.02100515
#
# Stress axis : x y z
#
# Youngs Moduli (GPa) = 49.52162 92.37892 88.60301
#
# Poissons Ratio (x) = 0.31552 0.29466
# Poissons Ratio (y) = 0.16914 0.34630
# Poissons Ratio (z) = 0.16469 0.36106
#
# Static dielectric constant tensor:
#      x y z
#    x 3.258560 0.000000 0.000000 
#    y 0.000000 3.633590 0.000000 
#    z 0.000000 0.000000 3.354840 
# 
# 
# High freq. dielectric constant tensor:
#      x y z
#    x 1.716330 0.000000 0.000000 
#    y 0.000000 1.735780 0.000000 
#    z 0.000000 0.000000 1.711270 
# 
# From -- ./inp_files/57016.got.cif
#   From: 2010.03.12/outbox.cif.g09.slc.cpg/sg74_29_cif.got.tgz:57016.got - 2010.04.16 15:46:19.
