data_PCOD8299692
_publ_section_title
;
Structure prediction by ZEFSAII (Michael W. Deem and Ramdas Pophale) SiO2 
 PCOD8299692
Probable space group: I M M A
;
_chemical_formula_sum "Si O2"
_cell_formula_units_Z 64
_cell_length_a 16.410475
_cell_length_b 17.592031
_cell_length_c 11.442653
_cell_angle_alpha 90.000000
_cell_angle_beta 90.000000
_cell_angle_gamma 90.000000
_cell_volume 3303.420516
_symmetry_space_group_name_H-M "I M M A"
_symmetry_group_IT_number 74
_symmetry_cell_setting 'orthorhombic'
loop_
_space_group_symop_operation_xyz
x,y,z
-x,1/2-y,z
x,-y,-z
-x,1/2+y,-z
-x,-y,-z
x,1/2+y,-z
-x,y,z
x,1/2-y,z
1/2+x,1/2+y,1/2+z
1/2-x,-y,1/2+z
1/2+x,1/2-y,1/2-z
1/2-x,y,1/2-z
1/2-x,1/2-y,1/2-z
1/2+x,y,1/2-z
1/2-x,1/2+y,1/2+z
1/2+x,-y,1/2+z
loop_
_atom_site_type_symbol
_atom_site_label
_atom_site_fract_x
_atom_site_fract_y
_atom_site_fract_z
Si Si1 0.000000 0.160683 0.287830
Si Si2 0.500000 0.413035 0.966038
Si Si3 0.690336 0.835726 0.422211
Si Si4 0.132410 0.663174 0.321015
Si Si5 0.670015 0.658956 0.679339
O O1 0.084209 0.128177 0.232076
O O2 0.000000 0.250000 0.271111
O O3 0.000000 0.141604 0.423363
O O4 0.422751 0.396235 0.887144
O O5 0.500000 0.500000 0.000000
O O6 0.659812 0.750000 0.435642
O O7 0.784578 0.837548 0.391955
O O8 0.641012 0.869674 0.311501
O O9 0.674427 0.875601 0.547324
O O10 0.098293 0.750000 0.320111
O O11 0.672467 0.750000 0.680010
O O12 0.750000 0.628848 0.750000
#
# Coordination Sequence:
#
# PCOD8299692 Si02
#       5
#     8   8  16  16  16
#     4  10  20  33  52  77 102 135 178 217 264 322
#     4  12  24  35  50  70 108 143 177 224 267 320
#     4   8  15  29  54  85 107 127 167 223 271 313
#     4   9  17  32  56  80 102 134 177 222 268 316
#     4   9  16  27  48  80 113 136 163 214 272 322
#
# _framework density 19.373857000000001
#
# number of rings (size 3 to 8) (size 9 to 14) (size 15 to 20)
#    0.000    2.750    0.000    4.125    0.000    5.000 
#    0.000    3.750   16.500    1.500    0.000    0.000 
#    0.000    0.000    0.000    0.000    0.000    0.000 
#
# Total GULP energy -396453.509232 kJ/mol
# GULP energy per Si atom -12389.172164 kJ/mol
# Density = 1.932976 g / cm^3
# Si number density = 19.373857 Si / 1000 Ang^3
#
#
#
# Elastic Constant Matrix: (Units=GPa)
#
#
# Indices 1 2 3 4 5 6 
#
# 1 128.6645 26.2842 85.8514 0.0000 0.0000 0.0000
# 2 26.2842 35.4593 19.2810 0.0000 0.0000 0.0000
# 3 85.8514 19.2810 184.0151 0.0000 0.0000 0.0000
# 4 0.0000 0.0000 0.0000 11.5320 0.0000 0.0000
# 5 0.0000 0.0000 0.0000 0.0000 48.4920 0.0000
# 6 0.0000 0.0000 0.0000 0.0000 0.0000 1.4034
#
#
#
# Elastic Compliance Matrix: (Units=1/GPa)
#
#
# Indices 1 2 3 4 5 6 
#
# 1 0.012551 -0.006489 -0.005176 0.000000 0.000000 0.000000
# 2 -0.006489 0.033260 -0.000457 0.000000 0.000000 0.000000
# 3 -0.005176 -0.000457 0.007897 0.000000 0.000000 0.000000
# 4 0.000000 0.000000 0.000000 0.086715 0.000000 0.000000
# 5 0.000000 0.000000 0.000000 0.000000 0.020622 0.000000
# 6 0.000000 0.000000 0.000000 0.000000 0.000000 0.712536
#
#
# Mechanical properties :
#
#
# Convention : Reuss Voigt Hill
#
# Bulk Modulus (GPa) = 33.94032 67.88580 50.91306
# Shear Modulus (GPa) = 5.50874 26.73363 16.12119
#
# Velocity S-wave (km/s) = 1.68806 3.71871 2.88776
# Velocity P-wave (km/s) = 4.62126 7.31808 6.12007
#
# Compressibility (1/GPa) = 0.02946348
#
# Stress axis : x y z
#
# Youngs Moduli (GPa) = 79.67222 30.06586 126.62974
#
# Poissons Ratio (x) = 0.19511 0.65542
# Poissons Ratio (y) = 0.51702 0.05792
# Poissons Ratio (z) = 0.41237 0.01375
#
# Static dielectric constant tensor:
#      x y z
#    x 3.592670 0.000000 0.000000 
#    y 0.000000 2.826570 0.000000 
#    z 0.000000 0.000000 4.109450 
# 
# 
# High freq. dielectric constant tensor:
#      x y z
#    x 1.757780 0.000000 0.000000 
#    y 0.000000 1.675830 0.000000 
#    z 0.000000 0.000000 1.779210 
# 
# From -- ./inp_files/21618.got.cif
#   From: 2010.03.12/outbox.cif.g09.slc.cpg/sg74_11_cif.got.tgz:21618.got - 2010.04.16 15:46:19.
