data_PCOD8299053
_publ_section_title
;
Structure prediction by ZEFSAII (Michael W. Deem and Ramdas Pophale) SiO2 
 PCOD8299053
Probable space group: I M M A
;
_chemical_formula_sum "Si O2"
_cell_formula_units_Z 96
_cell_length_a 23.464276
_cell_length_b 8.788230
_cell_length_c 25.560771
_cell_angle_alpha 90.000000
_cell_angle_beta 90.000000
_cell_angle_gamma 90.000000
_cell_volume 5270.872639
_symmetry_space_group_name_H-M "I M M A"
_symmetry_group_IT_number 74
_symmetry_cell_setting 'orthorhombic'
loop_
_space_group_symop_operation_xyz
x,y,z
-x,1/2-y,z
x,-y,-z
-x,1/2+y,-z
-x,-y,-z
x,1/2+y,-z
-x,y,z
x,1/2-y,z
1/2+x,1/2+y,1/2+z
1/2-x,-y,1/2+z
1/2+x,1/2-y,1/2-z
1/2-x,y,1/2-z
1/2-x,1/2-y,1/2-z
1/2+x,y,1/2-z
1/2-x,1/2+y,1/2+z
1/2+x,-y,1/2+z
loop_
_atom_site_type_symbol
_atom_site_label
_atom_site_fract_x
_atom_site_fract_y
_atom_site_fract_z
Si Si1 0.813476 0.929435 0.054222
Si Si2 0.182944 0.930138 0.445028
Si Si3 0.683972 0.425405 0.253049
Si Si4 0.119311 0.429661 0.846501
Si Si5 0.000000 0.431281 0.807036
Si Si6 0.115325 0.070812 0.350085
Si Si7 0.000000 0.430928 0.687589
O O1 0.819152 0.750000 0.049702
O O2 0.748428 0.976711 0.066384
O O3 0.853567 0.996543 0.100242
O O4 0.835024 0.000000 0.000000
O O5 0.174910 0.750000 0.446103
O O6 0.163243 0.000000 0.500000
O O7 0.143339 0.002498 0.401459
O O8 0.672891 0.250000 0.267160
O O9 0.750000 0.464162 0.250000
O O10 0.658351 0.529243 0.297850
O O11 0.655663 0.470597 0.198405
O O12 0.117185 0.250000 0.850659
O O13 0.055571 0.494809 0.837335
O O14 0.000000 0.250000 0.806068
O O15 0.000000 0.491781 0.747409
O O16 0.107489 0.250000 0.356734
O O17 0.054519 0.993729 0.342454
O O18 0.000000 0.250000 0.685718
#
# Coordination Sequence:
#
# PCOD8299053 Si02
#       7
#    16  16  16  16   8  16   8
#     4   9  19  34  55  80 109 143 182 226 274 325
#     4  10  20  36  57  82 109 143 182 223 272 326
#     4  10  21  34  50  77 111 142 172 216 274 327
#     4  10  19  34  54  78 105 140 185 227 267 317
#     4   9  18  33  54  77 105 142 183 226 269 311
#     4  11  22  36  55  81 112 144 180 224 271 323
#     4  11  21  37  58  79 106 148 189 223 269 322
#
# _framework density 18.213304000000001
#
# number of rings (size 3 to 8) (size 9 to 14) (size 15 to 20)
#    0.000    2.000    1.667    2.250    0.000    2.333 
#    0.000    1.250    0.000    0.000    0.000    0.000 
#    0.000    0.000    0.000    0.000    0.000    0.000 
#
# Total GULP energy -595317.346615 kJ/mol
# GULP energy per Si atom -12402.444721 kJ/mol
# Density = 1.817185 g / cm^3
# Si number density = 18.213304 Si / 1000 Ang^3
#
#
#
# Elastic Constant Matrix: (Units=GPa)
#
#
# Indices 1 2 3 4 5 6 
#
# 1 133.2497 30.5746 96.7965 0.0000 0.0000 0.0000
# 2 30.5746 43.3697 45.0492 0.0000 0.0000 0.0000
# 3 96.7965 45.0492 168.1850 0.0000 0.0000 0.0000
# 4 0.0000 0.0000 0.0000 28.8252 0.0000 0.0000
# 5 0.0000 0.0000 0.0000 0.000015117.4740 0.0000
# 6 0.0000 0.0000 0.0000 0.0000 0.0000 24.2438
#
#
#
# Elastic Compliance Matrix: (Units=1/GPa)
#
#
# Indices 1 2 3 4 5 6 
#
# 1 0.013012 -0.001932 -0.006972 0.000000 0.000000 0.000000
# 2 -0.001932 0.032233 -0.007522 0.000000 0.000000 0.000000
# 3 -0.006972 -0.007522 0.011973 0.000000 0.000000 0.000000
# 4 0.000000 0.000000 0.000000 0.034692 0.000000 0.000000
# 5 0.000000 0.000000 0.000000 0.000000 0.000066 0.000000
# 6 0.000000 0.000000 0.000000 0.000000 0.000000 0.041248
#
#
# Mechanical properties :
#
#
# Convention : Reuss Voigt Hill
#
# Bulk Modulus (GPa) = 41.03845 76.62722 58.83284
# Shear Modulus (GPa) = 28.70320 3045.60088 1537.15204
#
# Velocity S-wave (km/s) = 3.97413 40.93672 29.08271
# Velocity P-wave (km/s) = 6.60600 47.71355 34.06041
#
# Compressibility (1/GPa) = 0.02436739
#
# Stress axis : x y z
#
# Youngs Moduli (GPa) = 76.84997 31.02456 83.52114
#
# Poissons Ratio (x) = 0.05993 0.58228
# Poissons Ratio (y) = 0.14846 0.62823
# Poissons Ratio (z) = 0.53577 0.23336
#
# Static dielectric constant tensor:
#      x y z
#    x 3.611670 0.000000 0.000000 
#    y 0.000000 3.250730 0.000000 
#    z 0.000000 0.000000 3.477510 
# 
# 
# High freq. dielectric constant tensor:
#      x y z
#    x 1.710070 0.000000 0.000000 
#    y 0.000000 1.698850 0.000000 
#    z 0.000000 0.000000 1.710340 
# 
# From -- ./inp_files/57348.got.cif
#   From: 2010.03.12/outbox.cif.g09.slc.cpg/sg74_29_cif.got.tgz:57348.got - 2010.04.16 15:46:19.
