data_PCOD8299503
_publ_section_title
;
Structure prediction by ZEFSAII (Michael W. Deem and Ramdas Pophale) SiO2 
 PCOD8299503
Probable space group: I M M A
;
_chemical_formula_sum "Si O2"
_cell_formula_units_Z 104
_cell_length_a 22.970839
_cell_length_b 7.673099
_cell_length_c 33.644018
_cell_angle_alpha 90.000000
_cell_angle_beta 90.000000
_cell_angle_gamma 90.000000
_cell_volume 5930.011235
_symmetry_space_group_name_H-M "I M M A"
_symmetry_group_IT_number 74
_symmetry_cell_setting 'orthorhombic'
loop_
_space_group_symop_operation_xyz
x,y,z
-x,1/2-y,z
x,-y,-z
-x,1/2+y,-z
-x,-y,-z
x,1/2+y,-z
-x,y,z
x,1/2-y,z
1/2+x,1/2+y,1/2+z
1/2-x,-y,1/2+z
1/2+x,1/2-y,1/2-z
1/2-x,y,1/2-z
1/2-x,1/2-y,1/2-z
1/2+x,y,1/2-z
1/2-x,1/2+y,1/2+z
1/2+x,-y,1/2+z
loop_
_atom_site_type_symbol
_atom_site_label
_atom_site_fract_x
_atom_site_fract_y
_atom_site_fract_z
Si Si1 0.337795 0.057356 0.830431
Si Si2 0.727463 0.250000 0.205808
Si Si3 0.249430 0.443729 0.596607
Si Si4 0.431728 0.058468 0.542053
Si Si5 0.432836 0.750000 0.601807
Si Si6 0.184965 0.750000 0.866691
Si Si7 0.935375 0.956850 0.387714
Si Si8 0.852356 0.046122 0.545088
O O1 0.341975 0.250000 0.810372
O O2 0.295765 0.067798 0.867739
O O3 0.400567 0.994878 0.847208
O O4 0.312886 0.920022 0.798960
O O5 0.750000 0.250000 0.250000
O O6 0.782437 0.250000 0.175628
O O7 0.276185 0.250000 0.588934
O O8 0.299692 0.579480 0.607326
O O9 0.212458 0.515234 0.558580
O O10 0.500000 0.071386 0.535570
O O11 0.407108 0.250000 0.553954
O O12 0.403231 0.000000 0.500000
O O13 0.418151 0.920223 0.576158
O O14 0.500000 0.750000 0.617319
O O15 0.385814 0.750000 0.638160
O O16 0.938925 0.750000 0.391451
O O17 0.902324 0.036192 0.426485
O O18 0.000000 0.038798 0.385424
O O19 0.853812 0.250000 0.551821
O O20 0.865818 0.000000 0.500000
#
# Coordination Sequence:
#
# PCOD8299503 Si02
#       8
#    16   8  16  16   8   8  16  16
#     4   8  15  30  51  73  98 127 154 190 244 290
#     4  10  20  34  55  81 102 116 150 203 247 298
#     4   8  16  31  48  66  88 121 165 205 240 283
#     4   9  15  26  46  67  90 122 157 195 231 263
#     4  10  20  32  48  72  97 126 163 194 235 293
#     4  10  20  34  54  71  91 126 157 191 242 295
#     4   8  14  27  46  67  94 132 174 206 235 280
#     4   9  17  27  42  61  89 130 167 212 261 285
#
# _framework density 17.537908999999999
#
# number of rings (size 3 to 8) (size 9 to 14) (size 15 to 20)
#    0.000    3.231    0.769    1.846    1.077    1.231 
#    1.385    1.154    0.000    0.923    0.000    0.000 
#    0.000    0.000    0.000    0.000    0.000    0.000 
#
# Total GULP energy -644203.108144 kJ/mol
# GULP energy per Si atom -12388.521310 kJ/mol
# Density = 1.749799 g / cm^3
# Si number density = 17.537909 Si / 1000 Ang^3
#
#
#
# Elastic Constant Matrix: (Units=GPa)
#
#
# Indices 1 2 3 4 5 6 
#
# 1 110.2434 34.3218 50.2204 0.0000 0.0000 0.0000
# 2 34.3218 95.7330 35.0473 0.0000 0.0000 0.0000
# 3 50.2204 35.0473 84.7377 0.0000 0.0000 0.0000
# 4 0.0000 0.0000 0.0000 15.1773 0.0000 0.0000
# 5 0.0000 0.0000 0.0000 0.0000 19.7988 0.0000
# 6 0.0000 0.0000 0.0000 0.0000 0.0000 7.0427
#
#
#
# Elastic Compliance Matrix: (Units=1/GPa)
#
#
# Indices 1 2 3 4 5 6 
#
# 1 0.012785 -0.002133 -0.006695 0.000000 0.000000 0.000000
# 2 -0.002133 0.012665 -0.003974 0.000000 0.000000 0.000000
# 3 -0.006695 -0.003974 0.017413 0.000000 0.000000 0.000000
# 4 0.000000 0.000000 0.000000 0.065888 0.000000 0.000000
# 5 0.000000 0.000000 0.000000 0.000000 0.050508 0.000000
# 6 0.000000 0.000000 0.000000 0.000000 0.000000 0.141991
#
#
# Mechanical properties :
#
#
# Convention : Reuss Voigt Hill
#
# Bulk Modulus (GPa) = 57.94128 58.87701 58.40915
# Shear Modulus (GPa) = 15.03281 19.81207 17.42244
#
# Velocity S-wave (km/s) = 2.93091 3.36470 3.15527
# Velocity P-wave (km/s) = 6.67556 6.98134 6.83016
#
# Compressibility (1/GPa) = 0.01725885
#
# Stress axis : x y z
#
# Youngs Moduli (GPa) = 78.21962 78.95590 57.42937
#
# Poissons Ratio (x) = 0.16837 0.38448
# Poissons Ratio (y) = 0.16680 0.22825
# Poissons Ratio (z) = 0.52367 0.31381
#
# Static dielectric constant tensor:
#      x y z
#    x 3.351210 0.000000 0.000000 
#    y 0.000000 3.705300 0.000000 
#    z 0.000000 0.000000 2.386280 
# 
# 
# High freq. dielectric constant tensor:
#      x y z
#    x 1.664770 0.000000 0.000000 
#    y 0.000000 1.685300 0.000000 
#    z 0.000000 0.000000 1.625560 
# 
# From -- ./inp_files/73725.got.cif
#   From: 2010.03.12/outbox.cif.g09.slc.cpg/sg74_37_cif.got.tgz:73725.got - 2010.04.16 15:46:19.
