data_PCOD8299099
_publ_section_title
;
Structure prediction by ZEFSAII (Michael W. Deem and Ramdas Pophale) SiO2 
 PCOD8299099
Probable space group: I M M A
;
_chemical_formula_sum "Si O2"
_cell_formula_units_Z 96
_cell_length_a 23.532486
_cell_length_b 8.709832
_cell_length_c 25.435362
_cell_angle_alpha 90.000000
_cell_angle_beta 90.000000
_cell_angle_gamma 90.000000
_cell_volume 5213.333527
_symmetry_space_group_name_H-M "I M M A"
_symmetry_group_IT_number 74
_symmetry_cell_setting 'orthorhombic'
loop_
_space_group_symop_operation_xyz
x,y,z
-x,1/2-y,z
x,-y,-z
-x,1/2+y,-z
-x,-y,-z
x,1/2+y,-z
-x,y,z
x,1/2-y,z
1/2+x,1/2+y,1/2+z
1/2-x,-y,1/2+z
1/2+x,1/2-y,1/2-z
1/2-x,y,1/2-z
1/2-x,1/2-y,1/2-z
1/2+x,y,1/2-z
1/2-x,1/2+y,1/2+z
1/2+x,-y,1/2+z
loop_
_atom_site_type_symbol
_atom_site_label
_atom_site_fract_x
_atom_site_fract_y
_atom_site_fract_z
Si Si1 0.380517 0.929852 0.350176
Si Si2 0.685847 0.068070 0.056340
Si Si3 0.685084 0.929842 0.555417
Si Si4 0.500000 0.428366 0.696716
Si Si5 0.000000 0.431567 0.311585
Si Si6 0.384311 0.432689 0.849614
Si Si7 0.813319 0.432634 0.749491
O O1 0.370449 0.750000 0.357991
O O2 0.446100 0.969020 0.339216
O O3 0.344885 0.994316 0.301038
O O4 0.360149 0.014897 0.402033
O O5 0.677921 0.250000 0.055870
O O6 0.750668 0.020685 0.071008
O O7 0.642820 0.992319 0.096912
O O8 0.669636 0.000000 0.000000
O O9 0.681011 0.750000 0.549637
O O10 0.666982 0.000000 0.500000
O O11 0.500000 0.250000 0.713512
O O12 0.500000 0.522602 0.750475
O O13 0.053627 0.498220 0.342444
O O14 0.000000 0.250000 0.315799
O O15 0.388181 0.250000 0.850403
O O16 0.345502 0.493652 0.801808
O O17 0.812718 0.250000 0.749311
O O18 0.750000 0.500924 0.750000
#
# Coordination Sequence:
#
# PCOD8299099 Si02
#       7
#    16  16  16   8   8  16  16
#     4  10  19  34  56  81 112 147 191 238 283 339
#     4  10  21  38  59  86 117 151 189 232 285 341
#     4  10  21  37  58  84 116 151 189 233 285 343
#     4  10  20  38  59  80 109 154 199 235 282 343
#     4  12  24  38  57  82 117 156 194 237 284 335
#     4  11  21  37  60  84 114 151 194 236 282 339
#     4   9  17  29  51  83 113 142 179 226 280 337
#
# _framework density 18.414321999999999
#
# number of rings (size 3 to 8) (size 9 to 14) (size 15 to 20)
#    0.000    1.833    1.667    3.250    0.000    4.000 
#    0.000    0.833    0.000    3.500    0.000    0.000 
#    0.000    0.000    0.000    0.000    0.000    0.000 
#
# Total GULP energy -595344.568157 kJ/mol
# GULP energy per Si atom -12403.011837 kJ/mol
# Density = 1.837241 g / cm^3
# Si number density = 18.414322 Si / 1000 Ang^3
#
#
#
# Elastic Constant Matrix: (Units=GPa)
#
#
# Indices 1 2 3 4 5 6 
#
# 1 161.3537 46.4630 90.7404 0.0000 0.0000 0.0000
# 2 46.4630 73.8820 51.3287 0.0000 0.0000 0.0000
# 3 90.7404 51.3287 151.7817 0.0000 0.0000 0.0000
# 4 0.0000 0.0000 0.0000 32.3775 0.0000 0.0000
# 5 0.0000 0.0000 0.0000 0.0000 76.5393 0.0000
# 6 0.0000 0.0000 0.0000 0.0000 0.0000 21.9676
#
#
#
# Elastic Compliance Matrix: (Units=1/GPa)
#
#
# Indices 1 2 3 4 5 6 
#
# 1 0.009737 -0.002718 -0.004902 0.000000 0.000000 0.000000
# 2 -0.002718 0.018450 -0.004615 0.000000 0.000000 0.000000
# 3 -0.004902 -0.004615 0.011080 0.000000 0.000000 0.000000
# 4 0.000000 0.000000 0.000000 0.030886 0.000000 0.000000
# 5 0.000000 0.000000 0.000000 0.000000 0.013065 0.000000
# 6 0.000000 0.000000 0.000000 0.000000 0.000000 0.045521
#
#
# Mechanical properties :
#
#
# Convention : Reuss Voigt Hill
#
# Bulk Modulus (GPa) = 67.57707 84.89796 76.23751
# Shear Modulus (GPa) = 31.61751 39.40925 35.51338
#
# Velocity S-wave (km/s) = 4.14817 4.63118 4.39632
# Velocity P-wave (km/s) = 7.72793 8.64879 8.20129
#
# Compressibility (1/GPa) = 0.01479792
#
# Stress axis : x y z
#
# Youngs Moduli (GPa) = 102.70233 54.19995 90.25668
#
# Poissons Ratio (x) = 0.14730 0.44243
# Poissons Ratio (y) = 0.27912 0.41650
# Poissons Ratio (z) = 0.50344 0.25011
#
# Static dielectric constant tensor:
#      x y z
#    x 3.635310 0.000000 0.000000 
#    y 0.000000 3.252990 0.000000 
#    z 0.000000 0.000000 3.393840 
# 
# 
# High freq. dielectric constant tensor:
#      x y z
#    x 1.720110 0.000000 0.000000 
#    y 0.000000 1.704860 0.000000 
#    z 0.000000 0.000000 1.717400 
# 
# From -- ./inp_files/61953.got.cif
#   From: 2010.03.12/outbox.cif.g09.slc.cpg/sg74_31_cif.got.tgz:61953.got - 2010.04.16 15:46:19.
