data_PCOD8299601
_publ_section_title
;
Structure prediction by ZEFSAII (Michael W. Deem and Ramdas Pophale) SiO2 
 PCOD8299601
Probable space group: I M M A
;
_chemical_formula_sum "Si O2"
_cell_formula_units_Z 80
_cell_length_a 8.798538
_cell_length_b 18.425195
_cell_length_c 23.811249
_cell_angle_alpha 90.000000
_cell_angle_beta 90.000000
_cell_angle_gamma 90.000000
_cell_volume 3860.155354
_symmetry_space_group_name_H-M "I M M A"
_symmetry_group_IT_number 74
_symmetry_cell_setting 'orthorhombic'
loop_
_space_group_symop_operation_xyz
x,y,z
-x,1/2-y,z
x,-y,-z
-x,1/2+y,-z
-x,-y,-z
x,1/2+y,-z
-x,y,z
x,1/2-y,z
1/2+x,1/2+y,1/2+z
1/2-x,-y,1/2+z
1/2+x,1/2-y,1/2-z
1/2-x,y,1/2-z
1/2-x,1/2-y,1/2-z
1/2+x,y,1/2-z
1/2-x,1/2+y,1/2+z
1/2+x,-y,1/2+z
loop_
_atom_site_type_symbol
_atom_site_label
_atom_site_fract_x
_atom_site_fract_y
_atom_site_fract_z
Si Si1 0.827673 0.250000 0.485795
Si Si2 0.323066 0.604724 0.515202
Si Si3 0.828854 0.750000 0.380509
Si Si4 0.323012 0.396955 0.616267
Si Si5 0.678937 0.332905 0.309971
Si Si6 0.179506 0.042244 0.383928
O O1 0.737279 0.181506 0.461916
O O2 0.826014 0.250000 0.552738
O O3 0.000000 0.250000 0.462908
O O4 0.500000 0.596165 0.528580
O O5 0.288686 0.598915 0.449778
O O6 0.234196 0.543547 0.550770
O O7 0.744784 0.822467 0.358180
O O8 0.000000 0.750000 0.357152
O O9 0.500000 0.398854 0.630309
O O10 0.241444 0.467218 0.643593
O O11 0.500000 0.345959 0.306810
O O12 0.717390 0.250000 0.327681
O O13 0.750000 0.350994 0.250000
O O14 0.750871 0.387772 0.354207
O O15 0.000000 0.043485 0.379499
#
# Coordination Sequence:
#
# PCOD8299601 Si02
#       6
#     8  16   8  16  16  16
#     4   9  17  29  45  67  96 135 180 223 265 317
#     4  10  20  33  49  71 105 146 186 230 277 328
#     4   9  17  31  51  73 102 139 180 221 267 319
#     4  10  20  35  53  76 108 148 190 230 276 330
#     4  10  22  42  65  86 111 143 182 231 286 341
#     4  12  24  35  53  80 110 143 184 231 280 333
#
# _framework density 20.724554000000001
#
# number of rings (size 3 to 8) (size 9 to 14) (size 15 to 20)
#    0.000    1.800    0.000    4.800    1.400    8.400 
#    0.000    0.000    0.000    0.000    0.000    0.700 
#    0.000    0.000    0.000    0.000    0.000    0.000 
#
# Total GULP energy -495991.042111 kJ/mol
# GULP energy per Si atom -12399.776053 kJ/mol
# Density = 2.067738 g / cm^3
# Si number density = 20.724554 Si / 1000 Ang^3
#
#
#
# Elastic Constant Matrix: (Units=GPa)
#
#
# Indices 1 2 3 4 5 6 
#
# 1 140.2036 65.3085 22.2656 0.0000 0.0000 0.0000
# 2 65.3085 143.7369 11.7237 0.0000 0.0000 0.0000
# 3 22.2656 11.7237 25.1009 0.0000 0.0000 0.0000
# 4 0.0000 0.0000 0.0000 14.3715 0.0000 0.0000
# 5 0.0000 0.0000 0.0000 0.0000 23.0163 0.0000
# 6 0.0000 0.0000 0.0000 0.0000 0.0000 40.7693
#
#
#
# Elastic Compliance Matrix: (Units=1/GPa)
#
#
# Indices 1 2 3 4 5 6 
#
# 1 0.010137 -0.004026 -0.007112 0.000000 0.000000 0.000000
# 2 -0.004026 0.008832 -0.000554 0.000000 0.000000 0.000000
# 3 -0.007112 -0.000554 0.046406 0.000000 0.000000 0.000000
# 4 0.000000 0.000000 0.000000 0.069582 0.000000 0.000000
# 5 0.000000 0.000000 0.000000 0.000000 0.043447 0.000000
# 6 0.000000 0.000000 0.000000 0.000000 0.000000 0.024528
#
#
# Mechanical properties :
#
#
# Convention : Reuss Voigt Hill
#
# Bulk Modulus (GPa) = 23.81394 56.40413 40.10904
# Shear Modulus (GPa) = 20.80617 29.61432 25.21024
#
# Velocity S-wave (km/s) = 3.17194 3.78424 3.49154
# Velocity P-wave (km/s) = 4.99305 6.80949 5.97075
#
# Compressibility (1/GPa) = 0.04199220
#
# Stress axis : x y z
#
# Youngs Moduli (GPa) = 98.64640 113.23066 21.54877
#
# Poissons Ratio (x) = 0.45585 0.15325
# Poissons Ratio (y) = 0.39714 0.01193
# Poissons Ratio (z) = 0.70156 0.06270
#
# Static dielectric constant tensor:
#      x y z
#    x 3.805120 0.000000 0.000000 
#    y 0.000000 4.042610 0.000000 
#    z 0.000000 0.000000 3.095680 
# 
# 
# High freq. dielectric constant tensor:
#      x y z
#    x 1.823340 0.000000 0.000000 
#    y 0.000000 1.835490 0.000000 
#    z 0.000000 0.000000 1.751160 
# 
# From -- ./inp_files/64016.got.cif
#   From: 2010.03.12/outbox.cif.g09.slc.cpg/sg74_33_cif.got.tgz:64016.got - 2010.04.16 15:46:19.
