data_PCOD8299014
_publ_section_title
;
Structure prediction by ZEFSAII (Michael W. Deem and Ramdas Pophale) SiO2 
 PCOD8299014
Probable space group: I M M A
;
_chemical_formula_sum "Si O2"
_cell_formula_units_Z 112
_cell_length_a 28.352053
_cell_length_b 14.693627
_cell_length_c 12.662980
_cell_angle_alpha 90.000000
_cell_angle_beta 90.000000
_cell_angle_gamma 90.000000
_cell_volume 5275.327714
_symmetry_space_group_name_H-M "I M M A"
_symmetry_group_IT_number 74
_symmetry_cell_setting 'orthorhombic'
loop_
_space_group_symop_operation_xyz
x,y,z
-x,1/2-y,z
x,-y,-z
-x,1/2+y,-z
-x,-y,-z
x,1/2+y,-z
-x,y,z
x,1/2-y,z
1/2+x,1/2+y,1/2+z
1/2-x,-y,1/2+z
1/2+x,1/2-y,1/2-z
1/2-x,y,1/2-z
1/2-x,1/2-y,1/2-z
1/2+x,y,1/2-z
1/2-x,1/2+y,1/2+z
1/2+x,-y,1/2+z
loop_
_atom_site_type_symbol
_atom_site_label
_atom_site_fract_x
_atom_site_fract_y
_atom_site_fract_z
Si Si1 0.220591 0.148730 0.144418
Si Si2 0.304145 0.642455 0.993489
Si Si3 0.554224 0.482924 0.265888
Si Si4 0.195415 0.356884 0.731470
Si Si5 0.646690 0.997862 0.622901
Si Si6 0.946419 0.850225 0.378548
Si Si7 0.099252 0.356899 0.406866
O O1 0.203340 0.250000 0.112032
O O2 0.250000 0.154913 0.250000
O O3 0.254323 0.105768 0.052251
O O4 0.175083 0.088129 0.167540
O O5 0.300015 0.750000 0.999956
O O6 0.345441 0.615792 0.910482
O O7 0.315491 0.607563 0.112199
O O8 0.500000 0.464761 0.301897
O O9 0.590677 0.479413 0.363017
O O10 0.560034 0.583660 0.219597
O O11 0.569640 0.408303 0.181112
O O12 0.184184 0.250000 0.746343
O O13 0.250000 0.378012 0.750000
O O14 0.163487 0.411476 0.815517
O O15 0.657724 0.000000 0.500000
O O16 0.927584 0.750000 0.344692
O O17 0.918617 0.887750 0.478580
O O18 0.000000 0.844657 0.415168
O O19 0.091513 0.250000 0.387750
#
# Coordination Sequence:
#
# PCOD8299014 Si02
#       7
#    16  16  16  16  16  16  16
#     4  10  21  39  62  90 126 161 190 224 275 347
#     4   9  18  34  59  89 121 157 193 233 282 339
#     4  11  24  40  58  81 111 150 197 247 297 350
#     4  10  21  39  63  91 122 154 193 242 292 343
#     4  12  26  41  60  84 111 152 203 251 299 346
#     4   9  18  34  57  85 116 148 184 230 285 345
#     4  10  19  33  57  90 124 153 181 221 284 359
#
# _framework density 21.230909
#
# number of rings (size 3 to 8) (size 9 to 14) (size 15 to 20)
#    0.000    1.857    0.000    3.857    0.000    7.429 
#    0.000    4.286    0.000    0.000    0.000    4.000 
#    0.000    0.000    0.000    0.000    0.000    0.000 
#
# Total GULP energy -694205.077770 kJ/mol
# GULP energy per Si atom -12396.519246 kJ/mol
# Density = 2.118259 g / cm^3
# Si number density = 21.230909 Si / 1000 Ang^3
#
#
#
# Elastic Constant Matrix: (Units=GPa)
#
#
# Indices 1 2 3 4 5 6 
#
# 1 131.8907 43.6162 34.5699 0.0000 0.0000 0.0000
# 2 43.6162 73.3853 29.3701 0.0000 0.0000 0.0000
# 3 34.5699 29.3701 78.8136 0.0000 0.0000 0.0000
# 4 0.0000 0.0000 0.0000 10.7996 0.0000 0.0000
# 5 0.0000 0.0000 0.0000 0.0000 38.9601 0.0000
# 6 0.0000 0.0000 0.0000 0.0000 0.0000 11.5070
#
#
#
# Elastic Compliance Matrix: (Units=1/GPa)
#
#
# Indices 1 2 3 4 5 6 
#
# 1 0.009843 -0.004845 -0.002512 0.000000 0.000000 0.000000
# 2 -0.004845 0.018400 -0.004732 0.000000 0.000000 0.000000
# 3 -0.002512 -0.004732 0.015553 0.000000 0.000000 0.000000
# 4 0.000000 0.000000 0.000000 0.092596 0.000000 0.000000
# 5 0.000000 0.000000 0.000000 0.000000 0.025667 0.000000
# 6 0.000000 0.000000 0.000000 0.000000 0.000000 0.086903
#
#
# Mechanical properties :
#
#
# Convention : Reuss Voigt Hill
#
# Bulk Modulus (GPa) = 50.97060 55.46690 53.21875
# Shear Modulus (GPa) = 17.87767 24.02223 20.94995
#
# Velocity S-wave (km/s) = 2.90497 3.36739 3.14469
# Velocity P-wave (km/s) = 5.94236 6.42661 6.18922
#
# Compressibility (1/GPa) = 0.01961915
#
# Stress axis : x y z
#
# Youngs Moduli (GPa) = 101.59996 54.34841 64.29527
#
# Poissons Ratio (x) = 0.26329 0.16150
# Poissons Ratio (y) = 0.49221 0.30423
# Poissons Ratio (z) = 0.25521 0.25716
#
# Static dielectric constant tensor:
#      x y z
#    x 4.063620 0.000000 0.000000 
#    y 0.000000 3.892390 0.000000 
#    z 0.000000 0.000000 3.786650 
# 
# 
# High freq. dielectric constant tensor:
#      x y z
#    x 1.839660 0.000000 0.000000 
#    y 0.000000 1.832090 0.000000 
#    z 0.000000 0.000000 1.810630 
# 
# From -- ./inp_files/27199.got.cif
#   From: 2010.03.12/outbox.cif.g09.slc.cpg/sg74_14_cif.got.tgz:27199.got - 2010.04.16 15:46:19.
