data_PCOD8299408
_publ_section_title
;
Structure prediction by ZEFSAII (Michael W. Deem and Ramdas Pophale) SiO2 
 PCOD8299408
Probable space group: I M M A
;
_chemical_formula_sum "Si O2"
_cell_formula_units_Z 112
_cell_length_a 18.570974
_cell_length_b 18.740384
_cell_length_c 16.452036
_cell_angle_alpha 90.000000
_cell_angle_beta 90.000000
_cell_angle_gamma 90.000000
_cell_volume 5725.755760
_symmetry_space_group_name_H-M "I M M A"
_symmetry_group_IT_number 74
_symmetry_cell_setting 'orthorhombic'
loop_
_space_group_symop_operation_xyz
x,y,z
-x,1/2-y,z
x,-y,-z
-x,1/2+y,-z
-x,-y,-z
x,1/2+y,-z
-x,y,z
x,1/2-y,z
1/2+x,1/2+y,1/2+z
1/2-x,-y,1/2+z
1/2+x,1/2-y,1/2-z
1/2-x,y,1/2-z
1/2-x,1/2-y,1/2-z
1/2+x,y,1/2-z
1/2-x,1/2+y,1/2+z
1/2+x,-y,1/2+z
loop_
_atom_site_type_symbol
_atom_site_label
_atom_site_fract_x
_atom_site_fract_y
_atom_site_fract_z
Si Si1 0.080508 0.438555 0.841263
Si Si2 0.921989 0.978596 0.675365
Si Si3 0.584557 0.126376 0.906125
Si Si4 0.288766 0.665995 0.998872
Si Si5 0.218625 0.460114 0.920629
Si Si6 0.779560 0.911673 0.664282
Si Si7 0.169678 0.329848 0.747681
O O1 0.079350 0.493179 0.767096
O O2 0.131761 0.466019 0.913722
O O3 0.117609 0.366011 0.812646
O O4 0.000000 0.424661 0.874466
O O5 0.865961 0.914715 0.667168
O O6 0.000000 0.945654 0.655880
O O7 0.906710 0.042354 0.611535
O O8 0.500000 0.148421 0.908720
O O9 0.628769 0.169858 0.838330
O O10 0.625641 0.147251 0.990132
O O11 0.273052 0.750000 0.009227
O O12 0.259547 0.641239 0.910054
O O13 0.246964 0.621759 0.070877
O O14 0.252040 0.506163 0.846209
O O15 0.246075 0.500000 0.000000
O O16 0.750000 0.880996 0.750000
O O17 0.179956 0.250000 0.778156
O O18 0.250000 0.366590 0.750000
#
# Coordination Sequence:
#
# PCOD8299408 Si02
#       7
#    16  16  16  16  16  16  16
#     4  10  20  32  51  80 109 138 180 232 279 333
#     4   9  18  32  54  85 114 143 182 228 278 331
#     4  10  20  34  53  80 119 156 186 228 279 338
#     4  11  24  38  55  85 117 149 191 233 282 340
#     4  10  21  37  58  82 108 142 185 236 286 333
#     4  11  21  38  63  82 108 150 192 238 282 335
#     4  10  20  31  48  76 112 156 191 219 266 331
#
# _framework density 19.560735999999999
#
# number of rings (size 3 to 8) (size 9 to 14) (size 15 to 20)
#    0.000    1.857    2.857    2.571    2.000    4.857 
#    0.000    1.429    0.000    0.429    0.000    0.000 
#    0.000    0.000    0.000    0.000    0.000    0.000 
#
# Total GULP energy -693927.599126 kJ/mol
# GULP energy per Si atom -12391.564270 kJ/mol
# Density = 1.951621 g / cm^3
# Si number density = 19.560736 Si / 1000 Ang^3
#
#
#
# Elastic Constant Matrix: (Units=GPa)
#
#
# Indices 1 2 3 4 5 6 
#
# 1 135.2531 27.3076 20.2128 0.0000 0.0000 0.0000
# 2 27.3076 59.0067 15.9057 0.0000 0.0000 0.0000
# 3 20.2128 15.9057 70.4380 0.0000 0.0000 0.0000
# 4 0.0000 0.0000 0.0000 13.3379 0.0000 0.0000
# 5 0.0000 0.0000 0.0000 0.0000 27.3472 0.0000
# 6 0.0000 0.0000 0.0000 0.0000 0.0000 9.6091
#
#
#
# Elastic Compliance Matrix: (Units=1/GPa)
#
#
# Indices 1 2 3 4 5 6 
#
# 1 0.008325 -0.003417 -0.001617 0.000000 0.000000 0.000000
# 2 -0.003417 0.019448 -0.003411 0.000000 0.000000 0.000000
# 3 -0.001617 -0.003411 0.015431 0.000000 0.000000 0.000000
# 4 0.000000 0.000000 0.000000 0.074974 0.000000 0.000000
# 5 0.000000 0.000000 0.000000 0.000000 0.036567 0.000000
# 6 0.000000 0.000000 0.000000 0.000000 0.000000 0.104069
#
#
# Mechanical properties :
#
#
# Convention : Reuss Voigt Hill
#
# Bulk Modulus (GPa) = 38.00290 43.50553 40.75421
# Shear Modulus (GPa) = 17.57620 23.47696 20.52658
#
# Velocity S-wave (km/s) = 3.00083 3.46816 3.24292
# Velocity P-wave (km/s) = 5.61043 6.19088 5.90779
#
# Compressibility (1/GPa) = 0.02631378
#
# Stress axis : x y z
#
# Youngs Moduli (GPa) = 120.11860 51.41929 64.80343
#
# Poissons Ratio (x) = 0.17569 0.10481
# Poissons Ratio (y) = 0.41042 0.22105
# Poissons Ratio (z) = 0.19428 0.17540
#
# Static dielectric constant tensor:
#      x y z
#    x 3.851680 0.000000 0.000000 
#    y 0.000000 3.198530 0.000000 
#    z 0.000000 0.000000 3.511040 
# 
# 
# High freq. dielectric constant tensor:
#      x y z
#    x 1.770830 0.000000 0.000000 
#    y 0.000000 1.724720 0.000000 
#    z 0.000000 0.000000 1.747740 
# 
# From -- ./inp_files/44412.got.cif
#   From: 2010.03.12/outbox.cif.g09.slc.cpg/sg74_23_cif.got.tgz:44412.got - 2010.04.16 15:46:19.
