data_PCOD8299178
_publ_section_title
;
Structure prediction by ZEFSAII (Michael W. Deem and Ramdas Pophale) SiO2 
 PCOD8299178
Probable space group: I M M A
;
_chemical_formula_sum "Si O2"
_cell_formula_units_Z 104
_cell_length_a 8.929789
_cell_length_b 31.637218
_cell_length_c 20.165114
_cell_angle_alpha 90.000000
_cell_angle_beta 90.000000
_cell_angle_gamma 90.000000
_cell_volume 5696.920590
_symmetry_space_group_name_H-M "I M M A"
_symmetry_group_IT_number 74
_symmetry_cell_setting 'orthorhombic'
loop_
_space_group_symop_operation_xyz
x,y,z
-x,1/2-y,z
x,-y,-z
-x,1/2+y,-z
-x,-y,-z
x,1/2+y,-z
-x,y,z
x,1/2-y,z
1/2+x,1/2+y,1/2+z
1/2-x,-y,1/2+z
1/2+x,1/2-y,1/2-z
1/2-x,y,1/2-z
1/2-x,1/2-y,1/2-z
1/2+x,y,1/2-z
1/2-x,1/2+y,1/2+z
1/2+x,-y,1/2+z
loop_
_atom_site_type_symbol
_atom_site_label
_atom_site_fract_x
_atom_site_fract_y
_atom_site_fract_z
Si Si1 0.326984 0.064448 0.683007
Si Si2 0.675614 0.465463 0.318986
Si Si3 0.326147 0.117115 0.930418
Si Si4 0.331257 0.702319 0.451712
Si Si5 0.823909 0.595611 0.581377
Si Si6 0.672946 0.750000 0.818787
Si Si7 0.331930 0.179992 0.395986
O O1 0.500000 0.075377 0.688760
O O2 0.250000 0.080995 0.750000
O O3 0.261484 0.088279 0.620349
O O4 0.297484 0.015068 0.673091
O O5 0.500000 0.453801 0.318578
O O6 0.750000 0.449391 0.250000
O O7 0.758396 0.446003 0.383314
O O8 0.500000 0.115889 0.913600
O O9 0.274257 0.165914 0.921736
O O10 0.293058 0.096913 0.002539
O O11 0.500000 0.696576 0.424113
O O12 0.273000 0.750000 0.434347
O O13 0.332063 0.696753 0.529909
O O14 0.731159 0.633349 0.613751
O O15 0.000000 0.599824 0.595916
O O16 0.500000 0.750000 0.807067
O O17 0.750000 0.750000 0.750000
O O18 0.717815 0.708292 0.856735
O O19 0.500000 0.182092 0.366642
#
# Coordination Sequence:
#
# PCOD8299178 Si02
#       7
#    16  16  16  16  16   8  16
#     4  10  21  38  60  83 110 144 183 225 273 331
#     4  10  21  37  57  80 106 144 188 230 277 331
#     4  10  21  35  54  84 116 146 183 225 273 324
#     4   9  17  32  55  80 107 140 176 216 265 319
#     4  10  21  36  54  81 113 145 182 228 277 323
#     4  12  24  36  50  70  98 134 179 226 273 326
#     4  10  19  35  54  74 101 135 176 222 272 320
#
# _framework density 18.255476000000002
#
# number of rings (size 3 to 8) (size 9 to 14) (size 15 to 20)
#    0.000    2.000    0.769    3.000    0.000    5.846 
#    0.000    6.154    0.000    0.462    0.000    0.000 
#    0.000    0.000    0.000    0.000    0.000    0.000 
#
# Total GULP energy -644736.243807 kJ/mol
# GULP energy per Si atom -12398.773919 kJ/mol
# Density = 1.821393 g / cm^3
# Si number density = 18.255476 Si / 1000 Ang^3
#
#
#
# Elastic Constant Matrix: (Units=GPa)
#
#
# Indices 1 2 3 4 5 6 
#
# 1 137.2277 58.1742 53.9602 0.0000 0.0000 0.0000
# 2 58.1742 84.4657 50.5041 0.0000 0.0000 0.0000
# 3 53.9602 50.5041 74.7733 -0.0001 0.0000 0.0000
# 4 0.0000 0.0000 -0.0001 17.0239 0.0000 0.0000
# 5 0.0000 0.0000 0.0000 0.0000 33.4401 0.0000
# 6 0.0000 0.0000 0.0000 0.0000 0.0000 40.0485
#
#
#
# Elastic Compliance Matrix: (Units=1/GPa)
#
#
# Indices 1 2 3 4 5 6 
#
# 1 0.011247 -0.004853 -0.004839 0.000000 0.000000 0.000000
# 2 -0.004853 0.021954 -0.011326 0.000000 0.000000 0.000000
# 3 -0.004839 -0.011326 0.024515 0.000000 0.000000 0.000000
# 4 0.000000 0.000000 0.000000 0.058741 0.000000 0.000000
# 5 0.000000 0.000000 0.000000 0.000000 0.029904 0.000000
# 6 0.000000 0.000000 0.000000 0.000000 0.000000 0.024970
#
#
# Mechanical properties :
#
#
# Convention : Reuss Voigt Hill
#
# Bulk Modulus (GPa) = 63.77151 69.08263 66.42707
# Shear Modulus (GPa) = 22.87353 27.02436 24.94895
#
# Velocity S-wave (km/s) = 3.54357 3.85170 3.70084
# Velocity P-wave (km/s) = 7.19383 7.59638 7.39784
#
# Compressibility (1/GPa) = 0.01568098
#
# Stress axis : x y z
#
# Youngs Moduli (GPa) = 88.91154 45.55045 40.79090
#
# Poissons Ratio (x) = 0.22106 0.19737
# Poissons Ratio (y) = 0.43150 0.46199
# Poissons Ratio (z) = 0.43020 0.51590
#
# Static dielectric constant tensor:
#      x y z
#    x 3.471640 0.000000 0.000000 
#    y 0.000000 3.433230 0.000000 
#    z 0.000000 0.000000 3.190940 
# 
# 
# High freq. dielectric constant tensor:
#      x y z
#    x 1.724450 0.000000 0.000000 
#    y 0.000000 1.710320 0.000000 
#    z 0.000000 0.000000 1.688780 
# 
# From -- ./inp_files/49619.got.cif
#   From: 2010.03.12/outbox.cif.g09.slc.cpg/sg74_25_cif.got.tgz:49619.got - 2010.04.16 15:46:19.
