data_PCOD8299310
_publ_section_title
;
Structure prediction by ZEFSAII (Michael W. Deem and Ramdas Pophale) SiO2 
 PCOD8299310
Probable space group: I M M A
;
_chemical_formula_sum "Si O2"
_cell_formula_units_Z 80
_cell_length_a 19.427425
_cell_length_b 24.761819
_cell_length_c 9.118183
_cell_angle_alpha 90.000000
_cell_angle_beta 90.000000
_cell_angle_gamma 90.000000
_cell_volume 4386.378356
_symmetry_space_group_name_H-M "I M M A"
_symmetry_group_IT_number 74
_symmetry_cell_setting 'orthorhombic'
loop_
_space_group_symop_operation_xyz
x,y,z
-x,1/2-y,z
x,-y,-z
-x,1/2+y,-z
-x,-y,-z
x,1/2+y,-z
-x,y,z
x,1/2-y,z
1/2+x,1/2+y,1/2+z
1/2-x,-y,1/2+z
1/2+x,1/2-y,1/2-z
1/2-x,y,1/2-z
1/2-x,1/2-y,1/2-z
1/2+x,y,1/2-z
1/2-x,1/2+y,1/2+z
1/2+x,-y,1/2+z
loop_
_atom_site_type_symbol
_atom_site_label
_atom_site_fract_x
_atom_site_fract_y
_atom_site_fract_z
Si Si1 0.687947 0.250000 0.568689
Si Si2 0.350048 0.250000 0.888920
Si Si3 0.188766 0.536997 0.856659
Si Si4 0.920416 0.337648 0.414505
Si Si5 0.578686 0.540188 0.880284
Si Si6 0.183458 0.839045 0.840074
O O1 0.640334 0.250000 0.713650
O O2 0.769135 0.250000 0.590100
O O3 0.668918 0.304020 0.482549
O O4 0.384342 0.196638 0.957767
O O5 0.250000 0.518059 0.750000
O O6 0.116880 0.531060 0.772696
O O7 0.197225 0.600104 0.896535
O O8 0.188648 0.500000 0.000000
O O9 0.912520 0.400753 0.451823
O O10 0.883592 0.329231 0.259117
O O11 0.000000 0.320176 0.399826
O O12 0.500000 0.526409 0.845826
O O13 0.610461 0.500000 0.000000
O O14 0.250000 0.818373 0.750000
#
# Coordination Sequence:
#
# PCOD8299310 Si02
#       6
#     8   8  16  16  16  16
#     4  11  22  36  54  81 108 140 183 223 275 326
#     4  11  22  35  53  82 111 138 176 228 278 320
#     4  10  21  35  53  83 112 143 180 228 275 319
#     4  10  20  36  58  81 107 144 186 222 267 324
#     4   9  19  36  58  80 107 145 185 221 267 329
#     4  10  19  37  59  78 106 146 185 225 264 327
#
# _framework density 18.23828
#
# number of rings (size 3 to 8) (size 9 to 14) (size 15 to 20)
#    0.000    2.000    2.000    1.800    0.000    2.000 
#    3.600    2.000    0.000    0.000    0.000    0.000 
#    0.000    0.000    0.000    0.000    0.000    0.000 
#
# Total GULP energy -495961.884039 kJ/mol
# GULP energy per Si atom -12399.047101 kJ/mol
# Density = 1.819677 g / cm^3
# Si number density = 18.238280 Si / 1000 Ang^3
#
#
#
# Elastic Constant Matrix: (Units=GPa)
#
#
# Indices 1 2 3 4 5 6 
#
# 1 92.8255 37.1750 47.7813 0.0000 0.0000 0.0000
# 2 37.1750 107.1882 81.8357 0.0000 0.0000 0.0000
# 3 47.7813 81.8357 136.8343 0.0000 0.0000 0.0000
# 4 0.0000 0.0000 0.0000 43.5708 0.0000 0.0000
# 5 0.0000 0.0000 0.0000 0.0000 25.6193 0.0000
# 6 0.0000 0.0000 0.0000 0.0000 0.0000 22.0081
#
#
#
# Elastic Compliance Matrix: (Units=1/GPa)
#
#
# Indices 1 2 3 4 5 6 
#
# 1 0.013356 -0.001972 -0.003485 0.000000 0.000000 0.000000
# 2 -0.001972 0.017460 -0.009754 0.000000 0.000000 0.000000
# 3 -0.003485 -0.009754 0.014358 0.000000 0.000000 0.000000
# 4 0.000000 0.000000 0.000000 0.022951 0.000000 0.000000
# 5 0.000000 0.000000 0.000000 0.000000 0.039033 0.000000
# 6 0.000000 0.000000 0.000000 0.000000 0.000000 0.045438
#
#
# Mechanical properties :
#
#
# Convention : Reuss Voigt Hill
#
# Bulk Modulus (GPa) = 67.77687 74.49247 71.13467
# Shear Modulus (GPa) = 26.60502 29.57671 28.09086
#
# Velocity S-wave (km/s) = 3.82350 4.03138 3.92881
# Velocity P-wave (km/s) = 7.53225 7.91215 7.72453
#
# Compressibility (1/GPa) = 0.01475430
#
# Stress axis : x y z
#
# Youngs Moduli (GPa) = 74.87127 57.27413 69.64666
#
# Poissons Ratio (x) = 0.11293 0.24269
# Poissons Ratio (y) = 0.14763 0.67931
# Poissons Ratio (z) = 0.26090 0.55863
#
# Static dielectric constant tensor:
#      x y z
#    x 3.511900 0.000000 0.000000 
#    y 0.000000 3.507780 0.000000 
#    z 0.000000 0.000000 3.303990 
# 
# 
# High freq. dielectric constant tensor:
#      x y z
#    x 1.713830 0.000000 0.000000 
#    y 0.000000 1.717490 0.000000 
#    z 0.000000 0.000000 1.691220 
# 
# From -- ./inp_files/10978.got.cif
#   From: 2010.03.12/outbox.cif.g09.slc.cpg/sg74_6_cif.got.tgz:10978.got - 2010.04.16 15:46:19.
