data_PCOD8299394
_publ_section_title
;
Structure prediction by ZEFSAII (Michael W. Deem and Ramdas Pophale) SiO2 
 PCOD8299394
Probable space group: I M M A
;
_chemical_formula_sum "Si O2"
_cell_formula_units_Z 80
_cell_length_a 9.305506
_cell_length_b 24.453417
_cell_length_c 19.286488
_cell_angle_alpha 90.000000
_cell_angle_beta 90.000000
_cell_angle_gamma 90.000000
_cell_volume 4388.667704
_symmetry_space_group_name_H-M "I M M A"
_symmetry_group_IT_number 74
_symmetry_cell_setting 'orthorhombic'
loop_
_space_group_symop_operation_xyz
x,y,z
-x,1/2-y,z
x,-y,-z
-x,1/2+y,-z
-x,-y,-z
x,1/2+y,-z
-x,y,z
x,1/2-y,z
1/2+x,1/2+y,1/2+z
1/2-x,-y,1/2+z
1/2+x,1/2-y,1/2-z
1/2-x,y,1/2-z
1/2-x,1/2-y,1/2-z
1/2+x,y,1/2-z
1/2-x,1/2+y,1/2+z
1/2+x,-y,1/2+z
loop_
_atom_site_type_symbol
_atom_site_label
_atom_site_fract_x
_atom_site_fract_y
_atom_site_fract_z
Si Si1 0.841439 0.613230 0.536301
Si Si2 0.329313 0.926469 0.816113
Si Si3 0.841287 0.471445 0.857390
Si Si4 0.831170 0.144394 0.907708
Si Si5 0.830396 0.750000 0.177727
Si Si6 0.252216 0.500000 0.500000
O O1 0.786577 0.610032 0.616482
O O2 0.738429 0.646841 0.484737
O O3 0.853244 0.551168 0.509736
O O4 0.000000 0.639692 0.533502
O O5 0.500000 0.927810 0.805923
O O6 0.250000 0.898922 0.750000
O O7 0.273376 0.989551 0.819537
O O8 0.785729 0.408404 0.861145
O O9 0.000000 0.475512 0.822348
O O10 0.858820 0.491937 0.935945
O O11 0.780962 0.197257 0.865596
O O12 0.000000 0.143470 0.920921
O O13 0.750000 0.750000 0.250000
O O14 0.000000 0.750000 0.191529
#
# Coordination Sequence:
#
# PCOD8299394 Si02
#       6
#    16  16  16  16   8   8
#     4   9  17  29  47  70  95 124 161 199 237 283
#     4  10  20  31  44  67 100 135 165 197 236 282
#     4   9  16  27  44  66  92 124 160 196 233 278
#     4   9  19  34  52  72  95 125 162 202 245 290
#     4  10  22  40  56  74  99 126 159 200 245 290
#     4   8  14  24  42  66  92 122 154 190 232 278
#
# _framework density 18.228766
#
# number of rings (size 3 to 8) (size 9 to 14) (size 15 to 20)
#    0.000    2.800    0.000    1.200    0.000   12.000 
#    0.000    2.000    0.000    0.000    0.000    0.700 
#    0.000    0.000    0.000    0.000    0.000    0.000 
#
# Total GULP energy -495592.946247 kJ/mol
# GULP energy per Si atom -12389.823656 kJ/mol
# Density = 1.818728 g / cm^3
# Si number density = 18.228766 Si / 1000 Ang^3
#
#
#
# Elastic Constant Matrix: (Units=GPa)
#
#
# Indices 1 2 3 4 5 6 
#
# 1 74.9659 23.8016 51.2051 0.0000 0.0000 0.0000
# 2 23.8016 72.0592 42.2310 0.0000 0.0000 0.0000
# 3 51.2051 42.2310 135.2456 0.0000 0.0000 0.0000
# 4 0.0000 0.0000 0.0000 24.0597 0.0000 0.0000
# 5 0.0000 0.0000 0.0000 0.0000 31.2322 0.0000
# 6 0.0000 0.0000 0.0000 0.0000 0.0000 17.0112
#
#
#
# Elastic Compliance Matrix: (Units=1/GPa)
#
#
# Indices 1 2 3 4 5 6 
#
# 1 0.018334 -0.002433 -0.006182 0.000000 0.000000 0.000000
# 2 -0.002433 0.017309 -0.004484 0.000000 0.000000 0.000000
# 3 -0.006182 -0.004484 0.011134 0.000000 0.000000 0.000000
# 4 0.000000 0.000000 0.000000 0.041563 0.000000 0.000000
# 5 0.000000 0.000000 0.000000 0.000000 0.032018 0.000000
# 6 0.000000 0.000000 0.000000 0.000000 0.000000 0.058785
#
#
# Mechanical properties :
#
#
# Convention : Reuss Voigt Hill
#
# Bulk Modulus (GPa) = 48.58914 57.41625 53.00270
# Shear Modulus (GPa) = 23.56255 25.46280 24.51268
#
# Velocity S-wave (km/s) = 3.59918 3.74150 3.67103
# Velocity P-wave (km/s) = 6.63213 7.08739 6.86354
#
# Compressibility (1/GPa) = 0.02058073
#
# Stress axis : x y z
#
# Youngs Moduli (GPa) = 54.54244 57.77415 89.81137
#
# Poissons Ratio (x) = 0.14057 0.55520
# Poissons Ratio (y) = 0.13270 0.40268
# Poissons Ratio (z) = 0.33717 0.25903
#
# Static dielectric constant tensor:
#      x y z
#    x 3.179460 0.000000 0.000000 
#    y 0.000000 3.160970 0.000000 
#    z 0.000000 0.000000 3.524300 
# 
# 
# High freq. dielectric constant tensor:
#      x y z
#    x 1.702420 0.000000 0.000000 
#    y 0.000000 1.658660 0.000000 
#    z 0.000000 0.000000 1.711540 
# 
# From -- ./inp_files/48612.got.cif
#   From: 2010.03.12/outbox.cif.g09.slc.cpg/sg74_25_cif.got.tgz:48612.got - 2010.04.16 15:46:19.
