data_PCOD8299575
_publ_section_title
;
Structure prediction by ZEFSAII (Michael W. Deem and Ramdas Pophale) SiO2 
 PCOD8299575
Probable space group: I M M A
;
_chemical_formula_sum "Si O2"
_cell_formula_units_Z 80
_cell_length_a 22.802748
_cell_length_b 16.434284
_cell_length_c 10.899445
_cell_angle_alpha 90.000000
_cell_angle_beta 90.000000
_cell_angle_gamma 90.000000
_cell_volume 4084.532535
_symmetry_space_group_name_H-M "I M M A"
_symmetry_group_IT_number 74
_symmetry_cell_setting 'orthorhombic'
loop_
_space_group_symop_operation_xyz
x,y,z
-x,1/2-y,z
x,-y,-z
-x,1/2+y,-z
-x,-y,-z
x,1/2+y,-z
-x,y,z
x,1/2-y,z
1/2+x,1/2+y,1/2+z
1/2-x,-y,1/2+z
1/2+x,1/2-y,1/2-z
1/2-x,y,1/2-z
1/2-x,1/2-y,1/2-z
1/2+x,y,1/2-z
1/2-x,1/2+y,1/2+z
1/2+x,-y,1/2+z
loop_
_atom_site_type_symbol
_atom_site_label
_atom_site_fract_x
_atom_site_fract_y
_atom_site_fract_z
Si Si1 0.888889 0.456194 0.619608
Si Si2 0.065579 0.843138 0.181921
Si Si3 0.166023 0.597213 0.001748
Si Si4 0.685899 0.910117 0.764384
Si Si5 0.208843 0.341063 0.516915
O O1 0.918551 0.500000 0.500000
O O2 0.932978 0.399378 0.695869
O O3 0.864313 0.525064 0.708253
O O4 0.834008 0.402612 0.582030
O O5 0.078865 0.750000 0.219712
O O6 0.000000 0.851095 0.127180
O O7 0.110928 0.871199 0.078347
O O8 0.163765 0.631362 0.862050
O O9 0.167657 0.500000 0.000000
O O10 0.226093 0.632000 0.057894
O O11 0.750000 0.953162 0.750000
O O12 0.695203 0.843546 0.871040
O O13 0.197754 0.250000 0.563919
#
# Coordination Sequence:
#
# PCOD8299575 Si02
#       5
#    16  16  16  16  16
#     4  10  20  37  59  83 112 149 190 235 284 346
#     4  11  25  41  58  83 114 148 193 248 292 331
#     4  11  20  36  58  82 115 154 189 229 283 347
#     4   9  18  33  54  82 117 148 181 223 274 340
#     4  10  20  32  55  89 119 149 182 228 289 348
#
# _framework density 19.586084
#
# number of rings (size 3 to 8) (size 9 to 14) (size 15 to 20)
#    0.000    1.800    2.000    4.200    0.000    5.200 
#    0.000    2.000    0.000    0.000    0.000   11.200 
#    0.000    0.000    0.000    0.000    0.000    0.000 
#
# Total GULP energy -495721.362603 kJ/mol
# GULP energy per Si atom -12393.034065 kJ/mol
# Density = 1.954151 g / cm^3
# Si number density = 19.586084 Si / 1000 Ang^3
#
#
#
# Elastic Constant Matrix: (Units=GPa)
#
#
# Indices 1 2 3 4 5 6 
#
# 1 81.0369 28.9168 43.4849 0.0000 0.0000 0.0000
# 2 28.9168 91.4819 20.1794 0.0000 0.0000 0.0000
# 3 43.4849 20.1794 91.2211 0.0000 0.0000 0.0000
# 4 0.0000 0.0000 0.0000 8.9074 0.0000 0.0000
# 5 0.0000 0.0000 0.0000 0.0000 19.7961 0.0000
# 6 0.0000 0.0000 0.0000 0.0000 0.0000 26.0274
#
#
#
# Elastic Compliance Matrix: (Units=1/GPa)
#
#
# Indices 1 2 3 4 5 6 
#
# 1 0.017848 -0.003958 -0.007633 0.000000 0.000000 0.000000
# 2 -0.003958 0.012370 -0.000850 0.000000 0.000000 0.000000
# 3 -0.007633 -0.000850 0.014789 0.000000 0.000000 0.000000
# 4 0.000000 0.000000 0.000000 0.112267 0.000000 0.000000
# 5 0.000000 0.000000 0.000000 0.000000 0.050515 0.000000
# 6 0.000000 0.000000 0.000000 0.000000 0.000000 0.038421
#
#
# Mechanical properties :
#
#
# Convention : Reuss Voigt Hill
#
# Bulk Modulus (GPa) = 49.68663 49.87802 49.78232
# Shear Modulus (GPa) = 17.99868 22.35677 20.17772
#
# Velocity S-wave (km/s) = 3.03471 3.38222 3.21317
# Velocity P-wave (km/s) = 6.14025 6.38544 6.26405
#
# Compressibility (1/GPa) = 0.02012614
#
# Stress axis : x y z
#
# Youngs Moduli (GPa) = 56.02833 80.84314 67.61908
#
# Poissons Ratio (x) = 0.31998 0.51611
# Poissons Ratio (y) = 0.22176 0.05745
# Poissons Ratio (z) = 0.42764 0.06868
#
# Static dielectric constant tensor:
#      x y z
#    x 3.329250 0.000000 0.000000 
#    y 0.000000 3.572920 0.000000 
#    z 0.000000 0.000000 3.928250 
# 
# 
# High freq. dielectric constant tensor:
#      x y z
#    x 1.739080 0.000000 0.000000 
#    y 0.000000 1.760160 0.000000 
#    z 0.000000 0.000000 1.769350 
# 
# From -- ./inp_files/20789.got.cif
#   From: 2010.03.12/outbox.cif.g09.slc.cpg/sg74_11_cif.got.tgz:20789.got - 2010.04.16 15:46:19.
