data_PCOD8299238
_publ_section_title
;
Structure prediction by ZEFSAII (Michael W. Deem and Ramdas Pophale) SiO2 
 PCOD8299238
Probable space group: I M M A
;
_chemical_formula_sum "Si O2"
_cell_formula_units_Z 96
_cell_length_a 14.015493
_cell_length_b 15.380108
_cell_length_c 21.896904
_cell_angle_alpha 90.000000
_cell_angle_beta 90.000000
_cell_angle_gamma 90.000000
_cell_volume 4720.092160
_symmetry_space_group_name_H-M "I M M A"
_symmetry_group_IT_number 74
_symmetry_cell_setting 'orthorhombic'
loop_
_space_group_symop_operation_xyz
x,y,z
-x,1/2-y,z
x,-y,-z
-x,1/2+y,-z
-x,-y,-z
x,1/2+y,-z
-x,y,z
x,1/2-y,z
1/2+x,1/2+y,1/2+z
1/2-x,-y,1/2+z
1/2+x,1/2-y,1/2-z
1/2-x,y,1/2-z
1/2-x,1/2-y,1/2-z
1/2+x,y,1/2-z
1/2-x,1/2+y,1/2+z
1/2+x,-y,1/2+z
loop_
_atom_site_type_symbol
_atom_site_label
_atom_site_fract_x
_atom_site_fract_y
_atom_site_fract_z
Si Si1 0.889179 0.985551 0.834811
Si Si2 0.285992 0.655520 0.314723
Si Si3 0.104460 0.617351 0.375810
Si Si4 0.392794 0.558830 0.804968
Si Si5 0.892763 0.903411 0.513509
Si Si6 0.753610 0.848200 0.617979
O O1 0.868902 0.969384 0.763607
O O2 0.834450 0.916080 0.877625
O O3 0.000000 0.979669 0.851839
O O4 0.852831 0.084110 0.847612
O O5 0.338742 0.750000 0.309544
O O6 0.250000 0.619383 0.250000
O O7 0.189278 0.675581 0.351329
O O8 0.125068 0.517180 0.355347
O O9 0.102523 0.639409 0.447223
O O10 0.000000 0.642549 0.348176
O O11 0.500000 0.593698 0.808305
O O12 0.322757 0.636527 0.824049
O O13 0.814992 0.857378 0.556002
O O14 0.000000 0.901145 0.543432
O O15 0.857898 0.000000 0.500000
O O16 0.713181 0.750000 0.621044
#
# Coordination Sequence:
#
# PCOD8299238 Si02
#       6
#    16  16  16  16  16  16
#     4  11  23  41  61  82 118 165 214 261 306 356
#     4  11  21  35  59  91 125 159 199 250 313 375
#     4  10  19  35  61  91 124 157 190 235 300 376
#     4  10  19  35  60  88 122 162 198 241 303 370
#     4  10  19  35  61  89 120 156 192 237 302 375
#     4  12  24  38  59  89 126 164 208 257 305 359
#
# _framework density 20.338584999999998
#
# number of rings (size 3 to 8) (size 9 to 14) (size 15 to 20)
#    0.000    1.333    5.000    1.000    0.000    4.333 
#    0.000    5.000    0.000    4.500    0.000    4.667 
#    0.000    0.000    0.000    0.000    0.000    0.000 
#
# Total GULP energy -594795.520960 kJ/mol
# GULP energy per Si atom -12391.573353 kJ/mol
# Density = 2.029229 g / cm^3
# Si number density = 20.338585 Si / 1000 Ang^3
#
#
#
# Elastic Constant Matrix: (Units=GPa)
#
#
# Indices 1 2 3 4 5 6 
#
# 1 117.8411 51.4388 39.4320 0.0000 0.0000 0.0000
# 2 51.4388 127.6973 17.3939 0.0000 0.0000 0.0000
# 3 39.4320 17.3939 70.4833 0.0000 0.0000 0.0000
# 4 0.0000 0.0000 0.0000 3.5093 0.0000 0.0000
# 5 0.0000 0.0000 0.0000 0.0000 30.5416 0.0000
# 6 0.0000 0.0000 0.0000 0.0000 0.0000 15.8180
#
#
#
# Elastic Compliance Matrix: (Units=1/GPa)
#
#
# Indices 1 2 3 4 5 6 
#
# 1 0.012242 -0.004138 -0.005828 0.000000 0.000000 0.000000
# 2 -0.004138 0.009502 -0.000030 0.000000 0.000000 0.000000
# 3 -0.005828 -0.000030 0.017456 0.000000 0.000000 0.000000
# 4 0.000000 0.000000 0.000000 0.284953 0.000000 0.000000
# 5 0.000000 0.000000 0.000000 0.000000 0.032742 0.000000
# 6 0.000000 0.000000 0.000000 0.000000 0.000000 0.063219
#
#
# Mechanical properties :
#
#
# Convention : Reuss Voigt Hill
#
# Bulk Modulus (GPa) = 52.06007 59.17234 55.61620
# Shear Modulus (GPa) = 11.19801 23.82427 17.51114
#
# Velocity S-wave (km/s) = 2.34899 3.42626 2.93743
# Velocity P-wave (km/s) = 5.74537 6.69396 6.23772
#
# Compressibility (1/GPa) = 0.01920858
#
# Stress axis : x y z
#
# Youngs Moduli (GPa) = 81.68466 105.24315 57.28831
#
# Poissons Ratio (x) = 0.43545 0.33387
# Poissons Ratio (y) = 0.33798 0.00172
# Poissons Ratio (z) = 0.47605 0.00317
#
# Static dielectric constant tensor:
#      x y z
#    x 3.757330 0.000000 0.000000 
#    y 0.000000 3.511840 0.000000 
#    z 0.000000 0.000000 3.708440 
# 
# 
# High freq. dielectric constant tensor:
#      x y z
#    x 1.785190 0.000000 0.000000 
#    y 0.000000 1.786480 0.000000 
#    z 0.000000 0.000000 1.776390 
# 
# From -- ./inp_files/51903.got.cif
#   From: 2010.03.12/outbox.cif.g09.slc.cpg/sg74_26_cif.got.tgz:51903.got - 2010.04.16 15:46:19.
