data_PCOD8299029
_publ_section_title
;
Structure prediction by ZEFSAII (Michael W. Deem and Ramdas Pophale) SiO2 
 PCOD8299029
Probable space group: I M M A
;
_chemical_formula_sum "Si O2"
_cell_formula_units_Z 120
_cell_length_a 9.023458
_cell_length_b 27.027914
_cell_length_c 27.744647
_cell_angle_alpha 90.000000
_cell_angle_beta 90.000000
_cell_angle_gamma 90.000000
_cell_volume 6766.510081
_symmetry_space_group_name_H-M "I M M A"
_symmetry_group_IT_number 74
_symmetry_cell_setting 'orthorhombic'
loop_
_space_group_symop_operation_xyz
x,y,z
-x,1/2-y,z
x,-y,-z
-x,1/2+y,-z
-x,-y,-z
x,1/2+y,-z
-x,y,z
x,1/2-y,z
1/2+x,1/2+y,1/2+z
1/2-x,-y,1/2+z
1/2+x,1/2-y,1/2-z
1/2-x,y,1/2-z
1/2-x,1/2-y,1/2-z
1/2+x,y,1/2-z
1/2-x,1/2+y,1/2+z
1/2+x,-y,1/2+z
loop_
_atom_site_type_symbol
_atom_site_label
_atom_site_fract_x
_atom_site_fract_y
_atom_site_fract_z
Si Si1 0.175765 0.946303 0.129711
Si Si2 0.671588 0.250000 0.699936
Si Si3 0.674009 0.357553 0.698291
Si Si4 0.825327 0.953393 0.649726
Si Si5 0.673798 0.195139 0.390513
Si Si6 0.324718 0.867042 0.701770
Si Si7 0.832986 0.112231 0.439803
Si Si8 0.329638 0.547733 0.029287
O O1 0.227229 0.898072 0.159581
O O2 0.228301 0.940783 0.074817
O O3 0.000000 0.953646 0.130511
O O4 0.254790 0.992706 0.154543
O O5 0.500000 0.250000 0.711049
O O6 0.750000 0.250000 0.750000
O O7 0.713385 0.302846 0.675020
O O8 0.500000 0.362803 0.707336
O O9 0.750000 0.366147 0.750000
O O10 0.748020 0.919861 0.690056
O O11 0.787279 0.932038 0.596578
O O12 0.000000 0.956086 0.659592
O O13 0.500000 0.197535 0.396595
O O14 0.742921 0.250000 0.394301
O O15 0.718355 0.172185 0.339239
O O16 0.734146 0.160871 0.433320
O O17 0.500000 0.873107 0.707788
O O18 0.250000 0.846107 0.750000
O O19 0.815287 0.094877 0.494522
O O20 0.000000 0.127814 0.427847
O O21 0.500000 0.538745 0.045884
O O22 0.272236 0.500000 0.000000
#
# Coordination Sequence:
#
# PCOD8299029 Si02
#       8
#    16   8  16  16  16  16  16  16
#     4  11  22  33  49  80 112 137 172 214 256 309
#     4   8  14  30  54  74  94 126 164 204 244 288
#     4   9  19  34  53  77 104 134 170 208 248 297
#     4  10  19  34  52  71  99 137 173 211 260 311
#     4   9  19  35  54  76 103 134 172 219 268 317
#     4  10  20  34  51  74 103 137 176 219 265 316
#     4   9  18  33  54  76  98 129 172 215 259 311
#     4  10  19  35  55  77 104 137 174 214 258 307
#
# _framework density 17.734400999999998
#
# number of rings (size 3 to 8) (size 9 to 14) (size 15 to 20)
#    0.000    2.400    1.333    1.200    0.000    4.000 
#    0.000    1.333    1.467    0.000    0.000    0.000 
#    0.000    0.000    0.000    0.000    0.000    0.000 
#
# Total GULP energy -743816.648033 kJ/mol
# GULP energy per Si atom -12396.944134 kJ/mol
# Density = 1.769404 g / cm^3
# Si number density = 17.734401 Si / 1000 Ang^3
#
#
#
# Elastic Constant Matrix: (Units=GPa)
#
#
# Indices 1 2 3 4 5 6 
#
# 1 54.6400 43.6051 28.0618 0.0000 0.0000 0.0000
# 2 43.6051 155.1140 47.2782 0.0000 0.0000 0.0000
# 3 28.0618 47.2782 70.5548 0.0000 0.0000 0.0000
# 4 0.0000 0.0000 0.0000 17.5005 0.0000 0.0000
# 5 0.0000 0.0000 0.0000 0.0000 30.2414 0.0000
# 6 0.0000 0.0000 0.0000 0.0000 0.0000 24.3084
#
#
#
# Elastic Compliance Matrix: (Units=1/GPa)
#
#
# Indices 1 2 3 4 5 6 
#
# 1 0.025977 -0.005219 -0.006834 0.000000 0.000000 0.000000
# 2 -0.005219 0.009150 -0.004056 0.000000 0.000000 0.000000
# 3 -0.006834 -0.004056 0.019609 0.000000 0.000000 0.000000
# 4 0.000000 0.000000 0.000000 0.057141 0.000000 0.000000
# 5 0.000000 0.000000 0.000000 0.000000 0.033067 0.000000
# 6 0.000000 0.000000 0.000000 0.000000 0.000000 0.041138
#
#
# Mechanical properties :
#
#
# Convention : Reuss Voigt Hill
#
# Bulk Modulus (GPa) = 44.40952 57.57767 50.99359
# Shear Modulus (GPa) = 22.14274 25.16764 23.65519
#
# Velocity S-wave (km/s) = 3.53735 3.77124 3.65617
# Velocity P-wave (km/s) = 6.46372 7.17636 6.82934
#
# Compressibility (1/GPa) = 0.02251770
#
# Stress axis : x y z
#
# Youngs Moduli (GPa) = 38.49571 109.28642 50.99644
#
# Poissons Ratio (x) = 0.57042 0.34853
# Poissons Ratio (y) = 0.20093 0.20682
# Poissons Ratio (z) = 0.26309 0.44322
#
# Static dielectric constant tensor:
#      x y z
#    x 3.337030 0.000000 0.000000 
#    y 0.000000 3.662690 0.000000 
#    z 0.000000 0.000000 3.134870 
# 
# 
# High freq. dielectric constant tensor:
#      x y z
#    x 1.687580 0.000000 0.000000 
#    y 0.000000 1.690430 0.000000 
#    z 0.000000 0.000000 1.666050 
# 
# From -- ./inp_files/65045.got.cif
#   From: 2010.03.12/outbox.cif.g09.slc.cpg/sg74_33_cif.got.tgz:65045.got - 2010.04.16 15:46:19.
