data_PCOD8299517
_publ_section_title
;
Structure prediction by ZEFSAII (Michael W. Deem and Ramdas Pophale) SiO2 
 PCOD8299517
Probable space group: I M M A
;
_chemical_formula_sum "Si O2"
_cell_formula_units_Z 88
_cell_length_a 13.058950
_cell_length_b 24.591429
_cell_length_c 16.898763
_cell_angle_alpha 90.000000
_cell_angle_beta 90.000000
_cell_angle_gamma 90.000000
_cell_volume 5426.839037
_symmetry_space_group_name_H-M "I M M A"
_symmetry_group_IT_number 74
_symmetry_cell_setting 'orthorhombic'
loop_
_space_group_symop_operation_xyz
x,y,z
-x,1/2-y,z
x,-y,-z
-x,1/2+y,-z
-x,-y,-z
x,1/2+y,-z
-x,y,z
x,1/2-y,z
1/2+x,1/2+y,1/2+z
1/2-x,-y,1/2+z
1/2+x,1/2-y,1/2-z
1/2-x,y,1/2-z
1/2-x,1/2-y,1/2-z
1/2+x,y,1/2-z
1/2-x,1/2+y,1/2+z
1/2+x,-y,1/2+z
loop_
_atom_site_type_symbol
_atom_site_label
_atom_site_fract_x
_atom_site_fract_y
_atom_site_fract_z
Si Si1 0.000000 0.425865 0.267110
Si Si2 0.720195 0.688666 0.663163
Si Si3 0.500000 0.189552 0.288955
Si Si4 0.000000 0.554815 0.550555
Si Si5 0.818785 0.516327 0.819702
Si Si6 0.719331 0.904690 0.944121
Si Si7 0.387958 0.554762 0.450049
O O1 0.097700 0.442635 0.215487
O O2 0.000000 0.359658 0.275383
O O3 0.000000 0.453431 0.353764
O O4 0.760655 0.750000 0.653293
O O5 0.750000 0.666334 0.750000
O O6 0.597739 0.684567 0.653657
O O7 0.775665 0.653981 0.596191
O O8 0.500000 0.250000 0.247153
O O9 0.000000 0.500000 0.500000
O O10 0.896877 0.586869 0.525814
O O11 0.750000 0.492587 0.750000
O O12 0.747860 0.548705 0.881411
O O13 0.868143 0.463000 0.859596
O O14 0.798428 0.905870 0.017940
O O15 0.388928 0.500000 0.500000
O O16 0.500000 0.583342 0.456230
#
# Coordination Sequence:
#
# PCOD8299517 Si02
#       7
#     8  16   8   8  16  16  16
#     4  12  20  30  52  68  99 134 168 205 250 304
#     4  10  20  33  49  72  97 129 174 215 250 291
#     4  10  20  32  49  75 100 126 170 216 247 289
#     4  12  24  36  46  70  98 135 169 204 256 302
#     4  11  19  31  48  71  94 127 170 203 249 298
#     4  11  21  33  49  68 100 133 163 203 254 300
#     4   9  19  31  47  69  94 127 162 206 246 302
#
# _framework density 16.215702
#
# number of rings (size 3 to 8) (size 9 to 14) (size 15 to 20)
#    0.000    1.455    4.545    3.273    2.545    0.000 
#    0.000    0.455    0.000    0.000    0.000    0.000 
#    0.000    0.727    0.000    0.545    0.000    0.000 
#
# Total GULP energy -545420.061571 kJ/mol
# GULP energy per Si atom -12395.910490 kJ/mol
# Density = 1.617879 g / cm^3
# Si number density = 16.215702 Si / 1000 Ang^3
#
#
#
# Elastic Constant Matrix: (Units=GPa)
#
#
# Indices 1 2 3 4 5 6 
#
# 1 138.8611 37.7410 33.9565 0.0000 0.0000 0.0000
# 2 37.7410 77.6169 42.4092 0.0000 0.0000 0.0000
# 3 33.9565 42.4092 68.7253 0.0001 0.0000 0.0000
# 4 0.0000 0.0000 0.0001 25.8897 0.0000 0.0000
# 5 0.0000 0.0000 0.0000 0.0000 22.6413 0.0000
# 6 0.0000 0.0000 0.0000 0.0000 0.0000 17.9322
#
#
#
# Elastic Compliance Matrix: (Units=1/GPa)
#
#
# Indices 1 2 3 4 5 6 
#
# 1 0.008576 -0.002798 -0.002510 0.000000 0.000000 0.000000
# 2 -0.002798 0.020351 -0.011175 0.000000 0.000000 0.000000
# 3 -0.002510 -0.011175 0.022687 0.000000 0.000000 0.000000
# 4 0.000000 0.000000 0.000000 0.038625 0.000000 0.000000
# 5 0.000000 0.000000 0.000000 0.000000 0.044167 0.000000
# 6 0.000000 0.000000 0.000000 0.000000 0.000000 0.055766
#
#
# Mechanical properties :
#
#
# Convention : Reuss Voigt Hill
#
# Bulk Modulus (GPa) = 53.63261 57.04630 55.33946
# Shear Modulus (GPa) = 21.80022 24.69907 23.24964
#
# Velocity S-wave (km/s) = 3.67057 3.90700 3.79063
# Velocity P-wave (km/s) = 7.14915 7.45714 7.30477
#
# Compressibility (1/GPa) = 0.01864537
#
# Stress axis : x y z
#
# Youngs Moduli (GPa) = 116.60601 49.13856 44.07760
#
# Poissons Ratio (x) = 0.13750 0.11066
# Poissons Ratio (y) = 0.32630 0.49259
# Poissons Ratio (z) = 0.29274 0.54914
#
# Static dielectric constant tensor:
#      x y z
#    x 3.513470 0.000000 0.000000 
#    y 0.000000 2.847500 0.000000 
#    z 0.000000 0.000000 3.048990 
# 
# 
# High freq. dielectric constant tensor:
#      x y z
#    x 1.653500 0.000000 0.000000 
#    y 0.000000 1.581480 0.000000 
#    z 0.000000 0.000000 1.589590 
# 
# From -- ./inp_files/31015.got.cif
#   From: 2010.03.12/outbox.cif.g09.slc.cpg/sg74_16_cif.got.tgz:31015.got - 2010.04.16 15:46:19.
