data_PCOD8299338
_publ_section_title
;
Structure prediction by ZEFSAII (Michael W. Deem and Ramdas Pophale) SiO2 
 PCOD8299338
Probable space group: I M M A
;
_chemical_formula_sum "Si O2"
_cell_formula_units_Z 96
_cell_length_a 25.426515
_cell_length_b 17.308025
_cell_length_c 11.080533
_cell_angle_alpha 90.000000
_cell_angle_beta 90.000000
_cell_angle_gamma 90.000000
_cell_volume 4876.351515
_symmetry_space_group_name_H-M "I M M A"
_symmetry_group_IT_number 74
_symmetry_cell_setting 'orthorhombic'
loop_
_space_group_symop_operation_xyz
x,y,z
-x,1/2-y,z
x,-y,-z
-x,1/2+y,-z
-x,-y,-z
x,1/2+y,-z
-x,y,z
x,1/2-y,z
1/2+x,1/2+y,1/2+z
1/2-x,-y,1/2+z
1/2+x,1/2-y,1/2-z
1/2-x,y,1/2-z
1/2-x,1/2-y,1/2-z
1/2+x,y,1/2-z
1/2-x,1/2+y,1/2+z
1/2+x,-y,1/2+z
loop_
_atom_site_type_symbol
_atom_site_label
_atom_site_fract_x
_atom_site_fract_y
_atom_site_fract_z
Si Si1 0.880140 0.947076 0.173040
Si Si2 0.845263 0.597885 0.929647
Si Si3 0.939242 0.536767 0.629596
Si Si4 0.225799 0.910798 0.534452
Si Si5 0.695883 0.160986 0.802714
Si Si6 0.356715 0.161791 0.189377
O O1 0.854016 0.880188 0.248141
O O2 0.841263 0.018612 0.147640
O O3 0.928230 0.979373 0.255076
O O4 0.889177 0.909890 0.037783
O O5 0.786655 0.613148 0.978032
O O6 0.861639 0.664510 0.835836
O O7 0.924877 0.500000 0.500000
O O8 0.906437 0.615898 0.635996
O O9 0.000000 0.559211 0.635640
O O10 0.194208 0.855206 0.444020
O O11 0.197645 0.885502 0.659330
O O12 0.215932 0.000000 0.500000
O O13 0.690500 0.250000 0.770329
O O14 0.750000 0.125940 0.750000
O O15 0.356520 0.250000 0.142011
#
# Coordination Sequence:
#
# PCOD8299338 Si02
#       6
#    16  16  16  16  16  16
#     4  10  19  38  56  82 113 151 197 242 288 339
#     4  10  20  35  55  81 116 158 198 227 282 347
#     4  10  22  42  68  90 109 145 201 259 311 364
#     4  12  20  34  55  79 116 163 201 241 277 344
#     4  11  21  31  49  79 114 151 187 226 284 346
#     4  11  24  37  55  87 123 155 196 249 306 364
#
# _framework density 19.686848999999999
#
# number of rings (size 3 to 8) (size 9 to 14) (size 15 to 20)
#    0.000    1.333    3.333    4.500    0.000    3.000 
#    0.000    6.667    0.000    1.500    0.000    0.000 
#    0.000    0.000    0.000    0.000    0.000    0.000 
#
# Total GULP energy -594680.567676 kJ/mol
# GULP energy per Si atom -12389.178493 kJ/mol
# Density = 1.964204 g / cm^3
# Si number density = 19.686849 Si / 1000 Ang^3
#
#
#
# Elastic Constant Matrix: (Units=GPa)
#
#
# Indices 1 2 3 4 5 6 
#
# 1 73.4420 36.6659 29.5787 0.0000 0.0000 0.0000
# 2 36.6659 84.9585 26.7832 0.0000 0.0000 0.0000
# 3 29.5787 26.7832 112.0838 0.0000 0.0000 0.0000
# 4 0.0000 0.0000 0.0000 27.2159 0.0000 0.0000
# 5 0.0000 0.0000 0.0000 0.0000 28.1620 0.0000
# 6 0.0000 0.0000 0.0000 0.0000 0.0000 15.0284
#
#
#
# Elastic Compliance Matrix: (Units=1/GPa)
#
#
# Indices 1 2 3 4 5 6 
#
# 1 0.018354 -0.006915 -0.003191 0.000000 0.000000 0.000000
# 2 -0.006915 0.015335 -0.001839 0.000000 0.000000 0.000000
# 3 -0.003191 -0.001839 0.010204 0.000000 0.000000 0.000000
# 4 0.000000 0.000000 0.000000 0.036743 0.000000 0.000000
# 5 0.000000 0.000000 0.000000 0.000000 0.035509 0.000000
# 6 0.000000 0.000000 0.000000 0.000000 0.000000 0.066541
#
#
# Mechanical properties :
#
#
# Convention : Reuss Voigt Hill
#
# Bulk Modulus (GPa) = 49.99799 50.72664 50.36232
# Shear Modulus (GPa) = 23.44744 25.91169 24.67957
#
# Velocity S-wave (km/s) = 3.45486 3.63187 3.54447
# Velocity P-wave (km/s) = 6.43168 6.58863 6.51063
#
# Compressibility (1/GPa) = 0.02000080
#
# Stress axis : x y z
#
# Youngs Moduli (GPa) = 54.48491 65.21173 98.00478
#
# Poissons Ratio (x) = 0.45094 0.31275
# Poissons Ratio (y) = 0.37676 0.18028
# Poissons Ratio (z) = 0.17387 0.11996
#
# Static dielectric constant tensor:
#      x y z
#    x 3.200800 0.000000 0.000000 
#    y 0.000000 3.443000 0.000000 
#    z 0.000000 0.000000 4.251760 
# 
# 
# High freq. dielectric constant tensor:
#      x y z
#    x 1.720090 0.000000 0.000000 
#    y 0.000000 1.758570 0.000000 
#    z 0.000000 0.000000 1.793370 
# 
# From -- ./inp_files/25182.got.cif
#   From: 2010.03.12/outbox.cif.g09.slc.cpg/sg74_13_cif.got.tgz:25182.got - 2010.04.16 15:46:19.
