data_PCOD8299269
_publ_section_title
;
Structure prediction by ZEFSAII (Michael W. Deem and Ramdas Pophale) SiO2 
 PCOD8299269
Probable space group: I M M A
;
_chemical_formula_sum "Si O2"
_cell_formula_units_Z 96
_cell_length_a 8.897072
_cell_length_b 24.383392
_cell_length_c 22.344116
_cell_angle_alpha 90.000000
_cell_angle_beta 90.000000
_cell_angle_gamma 90.000000
_cell_volume 4847.350271
_symmetry_space_group_name_H-M "I M M A"
_symmetry_group_IT_number 74
_symmetry_cell_setting 'orthorhombic'
loop_
_space_group_symop_operation_xyz
x,y,z
-x,1/2-y,z
x,-y,-z
-x,1/2+y,-z
-x,-y,-z
x,1/2+y,-z
-x,y,z
x,1/2-y,z
1/2+x,1/2+y,1/2+z
1/2-x,-y,1/2+z
1/2+x,1/2-y,1/2-z
1/2-x,y,1/2-z
1/2-x,1/2-y,1/2-z
1/2+x,y,1/2-z
1/2-x,1/2+y,1/2+z
1/2+x,-y,1/2+z
loop_
_atom_site_type_symbol
_atom_site_label
_atom_site_fract_x
_atom_site_fract_y
_atom_site_fract_z
Si Si1 0.328833 0.561337 0.489352
Si Si2 0.177666 0.435757 0.185872
Si Si3 0.823477 0.338649 0.690344
Si Si4 0.670617 0.556970 0.351102
Si Si5 0.176898 0.133994 0.415671
Si Si6 0.822406 0.750000 0.537083
Si Si7 0.321601 0.250000 0.903010
O O1 0.271835 0.500000 0.500000
O O2 0.500000 0.567805 0.513445
O O3 0.317372 0.574224 0.419808
O O4 0.218671 0.601561 0.524228
O O5 0.250000 0.425783 0.250000
O O6 0.226520 0.494915 0.159784
O O7 0.236521 0.388972 0.141579
O O8 0.000000 0.430684 0.191142
O O9 0.750000 0.313379 0.750000
O O10 0.776473 0.402161 0.685221
O O11 0.766649 0.303948 0.633018
O O12 0.000000 0.334232 0.697384
O O13 0.500000 0.563359 0.328069
O O14 0.229116 0.196733 0.425769
O O15 0.000000 0.129164 0.404510
O O16 0.751002 0.750000 0.469861
O O17 0.000000 0.750000 0.529210
O O18 0.500000 0.250000 0.907099
#
# Coordination Sequence:
#
# PCOD8299269 Si02
#       7
#    16  16  16  16  16   8   8
#     4  10  19  36  58  85 121 157 188 236 297 342
#     4  11  23  41  61  85 118 155 193 241 295 350
#     4  11  22  36  56  81 114 155 200 243 286 338
#     4  10  21  37  58  84 118 155 191 236 291 344
#     4  11  22  38  62  91 120 155 196 238 287 350
#     4   9  20  39  61  87 120 150 186 241 298 343
#     4   9  19  37  58  81 113 152 191 241 292 335
#
# _framework density 19.804634
#
# number of rings (size 3 to 8) (size 9 to 14) (size 15 to 20)
#    0.000    1.667    1.667    3.250    0.000    5.000 
#    0.000    3.333    0.000    6.000    0.000    0.000 
#    0.000    0.000    0.000    0.000    0.000    0.000 
#
# Total GULP energy -595329.272137 kJ/mol
# GULP energy per Si atom -12402.693170 kJ/mol
# Density = 1.975956 g / cm^3
# Si number density = 19.804634 Si / 1000 Ang^3
#
#
#
# Elastic Constant Matrix: (Units=GPa)
#
#
# Indices 1 2 3 4 5 6 
#
# 1 67.8466 46.1051 43.6785 0.0000 0.0000 0.0000
# 2 46.1051 149.0728 65.6383 0.0000 0.0000 0.0000
# 3 43.6785 65.6383 131.3904 0.0000 0.0000 0.0000
# 4 0.0000 0.0000 0.0000 23.9213 0.0000 0.0000
# 5 0.0000 0.0000 0.0000 0.0000 35.0211 0.0000
# 6 0.0000 0.0000 0.0000 0.0000 0.0000 19.4039
#
#
#
# Elastic Compliance Matrix: (Units=1/GPa)
#
#
# Indices 1 2 3 4 5 6 
#
# 1 0.020723 -0.004328 -0.004727 0.000000 0.000000 0.000000
# 2 -0.004328 0.009504 -0.003309 0.000000 0.000000 0.000000
# 3 -0.004727 -0.003309 0.010835 0.000000 0.000000 0.000000
# 4 0.000000 0.000000 0.000000 0.041804 0.000000 0.000000
# 5 0.000000 0.000000 0.000000 0.000000 0.028554 0.000000
# 6 0.000000 0.000000 0.000000 0.000000 0.000000 0.051536
#
#
# Mechanical properties :
#
#
# Convention : Reuss Voigt Hill
#
# Bulk Modulus (GPa) = 61.22005 73.23927 67.22966
# Shear Modulus (GPa) = 25.88944 28.52846 27.20895
#
# Velocity S-wave (km/s) = 3.61950 3.79950 3.71059
# Velocity P-wave (km/s) = 6.96037 7.50396 7.23727
#
# Compressibility (1/GPa) = 0.01633452
#
# Stress axis : x y z
#
# Youngs Moduli (GPa) = 48.25476 105.22283 92.29037
#
# Poissons Ratio (x) = 0.45540 0.43626
# Poissons Ratio (y) = 0.20884 0.30538
# Poissons Ratio (z) = 0.22810 0.34818
#
# Static dielectric constant tensor:
#      x y z
#    x 3.420500 0.000000 0.000000 
#    y 0.000000 3.717550 0.000000 
#    z 0.000000 0.000000 3.730340 
# 
# 
# High freq. dielectric constant tensor:
#      x y z
#    x 1.756240 0.000000 0.000000 
#    y 0.000000 1.773560 0.000000 
#    z 0.000000 0.000000 1.779740 
# 
# From -- ./inp_files/57316.got.cif
#   From: 2010.03.12/outbox.cif.g09.slc.cpg/sg74_29_cif.got.tgz:57316.got - 2010.04.16 15:46:19.
