data_PCOD8299294
_publ_section_title
;
Structure prediction by ZEFSAII (Michael W. Deem and Ramdas Pophale) SiO2 
 PCOD8299294
Probable space group: I M M A
;
_chemical_formula_sum "Si O2"
_cell_formula_units_Z 80
_cell_length_a 10.266742
_cell_length_b 22.768385
_cell_length_c 17.939624
_cell_angle_alpha 90.000000
_cell_angle_beta 90.000000
_cell_angle_gamma 90.000000
_cell_volume 4193.515101
_symmetry_space_group_name_H-M "I M M A"
_symmetry_group_IT_number 74
_symmetry_cell_setting 'orthorhombic'
loop_
_space_group_symop_operation_xyz
x,y,z
-x,1/2-y,z
x,-y,-z
-x,1/2+y,-z
-x,-y,-z
x,1/2+y,-z
-x,y,z
x,1/2-y,z
1/2+x,1/2+y,1/2+z
1/2-x,-y,1/2+z
1/2+x,1/2-y,1/2-z
1/2-x,y,1/2-z
1/2-x,1/2-y,1/2-z
1/2+x,y,1/2-z
1/2-x,1/2+y,1/2+z
1/2+x,-y,1/2+z
loop_
_atom_site_type_symbol
_atom_site_label
_atom_site_fract_x
_atom_site_fract_y
_atom_site_fract_z
Si Si1 0.762430 0.181369 0.096942
Si Si2 0.000000 0.880693 0.642871
Si Si3 0.500000 0.986903 0.154824
Si Si4 0.755094 0.421030 0.838382
Si Si5 0.500000 0.004510 0.668779
Si Si6 0.000000 0.371997 0.180317
Si Si7 0.652003 0.316822 0.568691
O O1 0.737382 0.250000 0.107345
O O2 0.627427 0.148442 0.108561
O O3 0.869879 0.161676 0.156582
O O4 0.816575 0.165718 0.015734
O O5 0.000000 0.874162 0.731162
O O6 0.000000 0.948787 0.618298
O O7 0.373900 0.950999 0.128923
O O8 0.500000 0.993464 0.242920
O O9 0.750000 0.412294 0.750000
O O10 0.767582 0.357213 0.874922
O O11 0.873318 0.463026 0.863227
O O12 0.500000 0.936797 0.643420
O O13 0.500000 0.325789 0.583600
O O14 0.694442 0.250000 0.584670
#
# Coordination Sequence:
#
# PCOD8299294 Si02
#       7
#    16   8   8  16   8   8  16
#     4  11  23  39  58  84 118 154 193 238 290 339
#     4  11  23  39  59  84 118 155 191 238 290 338
#     4   9  20  36  55  84 120 149 180 237 294 331
#     4  10  19  36  62  88 114 148 191 232 278 341
#     4   9  18  34  57  84 114 151 190 231 286 339
#     4  11  21  37  61  86 114 151 199 242 278 336
#     4  10  21  40  62  83 115 154 189 233 288 340
#
# _framework density 19.077075000000001
#
# number of rings (size 3 to 8) (size 9 to 14) (size 15 to 20)
#    0.000    1.800    2.000    2.400    0.000    6.800 
#    0.000    7.500    0.000    0.000    0.000    0.000 
#    0.000    0.000    0.000    0.000    0.000    0.000 
#
# Total GULP energy -496152.678169 kJ/mol
# GULP energy per Si atom -12403.816954 kJ/mol
# Density = 1.903365 g / cm^3
# Si number density = 19.077075 Si / 1000 Ang^3
#
#
#
# Elastic Constant Matrix: (Units=GPa)
#
#
# Indices 1 2 3 4 5 6 
#
# 1 143.6737 65.9059 17.4950 0.0000 0.0000 0.0000
# 2 65.9059 141.2547 45.1154 0.0000 0.0000 0.0000
# 3 17.4950 45.1154 42.8378 0.0001 0.0000 0.0000
# 4 0.0000 0.0000 0.0001 20.1648 0.0000 0.0000
# 5 0.0000 0.0000 0.0000 0.0000 18.9292 0.0000
# 6 0.0000 0.0000 0.0000 0.0000 0.0000 41.5728
#
#
#
# Elastic Compliance Matrix: (Units=1/GPa)
#
#
# Indices 1 2 3 4 5 6 
#
# 1 0.008891 -0.004503 0.001112 0.000000 0.000000 0.000000
# 2 -0.004503 0.012949 -0.011798 0.000000 0.000000 0.000000
# 3 0.001112 -0.011798 0.035315 0.000000 0.000000 0.000000
# 4 0.000000 0.000000 0.000000 0.049591 0.000000 0.000000
# 5 0.000000 0.000000 0.000000 0.000000 0.052829 0.000000
# 6 0.000000 0.000000 0.000000 0.000000 0.000000 0.024054
#
#
# Mechanical properties :
#
#
# Convention : Reuss Voigt Hill
#
# Bulk Modulus (GPa) = 37.34782 64.97763 51.16272
# Shear Modulus (GPa) = 22.42833 29.41667 25.92250
#
# Velocity S-wave (km/s) = 3.43252 3.93108 3.69023
# Velocity P-wave (km/s) = 5.94386 7.39858 6.71076
#
# Compressibility (1/GPa) = 0.02677532
#
# Stress axis : x y z
#
# Youngs Moduli (GPa) = 112.47918 77.22830 28.31653
#
# Poissons Ratio (x) = 0.34777 -0.03148
# Poissons Ratio (y) = 0.50651 0.33408
# Poissons Ratio (z) = -0.12504 0.91114
#
# Static dielectric constant tensor:
#      x y z
#    x 3.614490 0.000000 0.000000 
#    y 0.000000 3.675230 0.000000 
#    z 0.000000 0.000000 3.233150 
# 
# 
# High freq. dielectric constant tensor:
#      x y z
#    x 1.754530 0.000000 0.000000 
#    y 0.000000 1.755630 0.000000 
#    z 0.000000 0.000000 1.720740 
# 
# From -- ./inp_files/48649.got.cif
#   From: 2010.03.12/outbox.cif.g09.slc.cpg/sg74_25_cif.got.tgz:48649.got - 2010.04.16 15:46:19.
