data_PCOD8299744
_publ_section_title
;
Structure prediction by ZEFSAII (Michael W. Deem and Ramdas Pophale) SiO2 
 PCOD8299744
Probable space group: I M M A
;
_chemical_formula_sum "Si O2"
_cell_formula_units_Z 112
_cell_length_a 14.074363
_cell_length_b 25.021831
_cell_length_c 18.191307
_cell_angle_alpha 90.000000
_cell_angle_beta 90.000000
_cell_angle_gamma 90.000000
_cell_volume 6406.365868
_symmetry_space_group_name_H-M "I M M A"
_symmetry_group_IT_number 74
_symmetry_cell_setting 'orthorhombic'
loop_
_space_group_symop_operation_xyz
x,y,z
-x,1/2-y,z
x,-y,-z
-x,1/2+y,-z
-x,-y,-z
x,1/2+y,-z
-x,y,z
x,1/2-y,z
1/2+x,1/2+y,1/2+z
1/2-x,-y,1/2+z
1/2+x,1/2-y,1/2-z
1/2-x,y,1/2-z
1/2-x,1/2-y,1/2-z
1/2+x,y,1/2-z
1/2-x,1/2+y,1/2+z
1/2+x,-y,1/2+z
loop_
_atom_site_type_symbol
_atom_site_label
_atom_site_fract_x
_atom_site_fract_y
_atom_site_fract_z
Si Si1 0.221385 0.548130 0.457504
Si Si2 0.393574 0.136252 0.889952
Si Si3 0.691113 0.501108 0.679919
Si Si4 0.889427 0.920884 0.935216
Si Si5 0.390745 0.308501 0.483756
Si Si6 0.711964 0.690503 0.365294
Si Si7 0.603284 0.394553 0.726452
O O1 0.168050 0.500000 0.500000
O O2 0.152072 0.599129 0.454088
O O3 0.238027 0.528306 0.375287
O O4 0.322543 0.559058 0.498185
O O5 0.500000 0.154097 0.913411
O O6 0.325582 0.187505 0.878805
O O7 0.394878 0.104209 0.814076
O O8 0.750000 0.522894 0.750000
O O9 0.637958 0.551030 0.641554
O O10 0.617115 0.455733 0.703509
O O11 0.873247 0.856584 0.925714
O O12 0.000000 0.932995 0.954978
O O13 0.500000 0.305488 0.505633
O O14 0.357458 0.250000 0.452717
O O15 0.337192 0.323199 0.558277
O O16 0.686545 0.750000 0.336831
O O17 0.681116 0.646320 0.305860
O O18 0.500000 0.375561 0.697782
#
# Coordination Sequence:
#
# PCOD8299744 Si02
#       7
#    16  16  16  16  16  16  16
#     4  10  20  34  54  76 105 141 178 222 267 319
#     4  11  22  36  50  69  99 140 187 223 262 313
#     4  11  19  33  53  77 115 143 168 210 268 327
#     4  10  20  33  56  88 112 137 178 224 271 320
#     4   9  17  31  53  80 108 135 168 213 268 325
#     4  11  21  35  52  72 103 139 179 226 274 317
#     4  11  21  33  52  74 101 138 178 216 266 323
#
# _framework density 17.482610999999999
#
# number of rings (size 3 to 8) (size 9 to 14) (size 15 to 20)
#    0.000    1.571    4.286    1.286    0.000    6.857 
#    0.000    1.429    0.000    0.429    0.000    0.000 
#    0.000    0.000    0.000    0.000    0.000    0.000 
#
# Total GULP energy -693926.081662 kJ/mol
# GULP energy per Si atom -12391.537173 kJ/mol
# Density = 1.744282 g / cm^3
# Si number density = 17.482611 Si / 1000 Ang^3
#
#
#
# Elastic Constant Matrix: (Units=GPa)
#
#
# Indices 1 2 3 4 5 6 
#
# 1 96.3134 35.1516 27.4396 0.0000 0.0000 0.0000
# 2 35.1516 99.2847 35.6507 -0.0001 0.0000 0.0000
# 3 27.4396 35.6507 62.1298 -0.0002 0.0000 0.0000
# 4 0.0000 -0.0001 -0.0002 17.8482 0.0000 0.0000
# 5 0.0000 0.0000 0.0000 0.0000 21.4680 0.0000
# 6 0.0000 0.0000 0.0000 0.0000 0.0000 22.9447
#
#
#
# Elastic Compliance Matrix: (Units=1/GPa)
#
#
# Indices 1 2 3 4 5 6 
#
# 1 0.012592 -0.003100 -0.003782 0.000000 0.000000 0.000000
# 2 -0.003100 0.013449 -0.006348 0.000000 0.000000 0.000000
# 3 -0.003782 -0.006348 0.021408 0.000000 0.000000 0.000000
# 4 0.000000 0.000000 0.000000 0.056028 0.000000 0.000000
# 5 0.000000 0.000000 0.000000 0.000000 0.046581 0.000000
# 6 0.000000 0.000000 0.000000 0.000000 0.000000 0.043583
#
#
# Mechanical properties :
#
#
# Convention : Reuss Voigt Hill
#
# Bulk Modulus (GPa) = 47.64539 50.46797 49.05668
# Shear Modulus (GPa) = 22.01691 23.08458 22.55074
#
# Velocity S-wave (km/s) = 3.55260 3.63772 3.59541
# Velocity P-wave (km/s) = 6.64380 6.82453 6.73477
#
# Compressibility (1/GPa) = 0.02098839
#
# Stress axis : x y z
#
# Youngs Moduli (GPa) = 79.41706 74.35485 46.71060
#
# Poissons Ratio (x) = 0.23050 0.17668
# Poissons Ratio (y) = 0.24619 0.29652
# Poissons Ratio (z) = 0.30038 0.47201
#
# Static dielectric constant tensor:
#      x y z
#    x 3.399480 0.000000 0.000000 
#    y 0.000000 3.471480 0.000000 
#    z 0.000000 0.000000 3.113180 
# 
# 
# High freq. dielectric constant tensor:
#      x y z
#    x 1.674510 0.000000 0.000000 
#    y 0.000000 1.676970 0.000000 
#    z 0.000000 0.000000 1.642250 
# 
# From -- ./inp_files/32909.got.cif
#   From: 2010.03.12/outbox.cif.g09.slc.cpg/sg74_17_cif.got.tgz:32909.got - 2010.04.16 15:46:19.
