data_PCOD8299902
_publ_section_title
;
Structure prediction by ZEFSAII (Michael W. Deem and Ramdas Pophale) SiO2 
 PCOD8299902
Probable space group: I M M A
;
_chemical_formula_sum "Si O2"
_cell_formula_units_Z 88
_cell_length_a 9.122205
_cell_length_b 29.997809
_cell_length_c 17.993407
_cell_angle_alpha 90.000000
_cell_angle_beta 90.000000
_cell_angle_gamma 90.000000
_cell_volume 4923.826789
_symmetry_space_group_name_H-M "I M M A"
_symmetry_group_IT_number 74
_symmetry_cell_setting 'orthorhombic'
loop_
_space_group_symop_operation_xyz
x,y,z
-x,1/2-y,z
x,-y,-z
-x,1/2+y,-z
-x,-y,-z
x,1/2+y,-z
-x,y,z
x,1/2-y,z
1/2+x,1/2+y,1/2+z
1/2-x,-y,1/2+z
1/2+x,1/2-y,1/2-z
1/2-x,y,1/2-z
1/2-x,1/2-y,1/2-z
1/2+x,y,1/2-z
1/2-x,1/2+y,1/2+z
1/2+x,-y,1/2+z
loop_
_atom_site_type_symbol
_atom_site_label
_atom_site_fract_x
_atom_site_fract_y
_atom_site_fract_z
Si Si1 0.331688 0.546912 0.468885
Si Si2 0.670632 0.300587 0.325834
Si Si3 0.666868 0.921278 0.174999
Si Si4 0.668697 0.860910 0.535510
Si Si5 0.170814 0.250000 0.827181
Si Si6 0.665832 0.671330 0.103997
O O1 0.275238 0.500000 0.500000
O O2 0.500000 0.543973 0.443606
O O3 0.238379 0.555469 0.395663
O O4 0.313582 0.585171 0.532745
O O5 0.500000 0.302446 0.308986
O O6 0.714825 0.250000 0.351584
O O7 0.750000 0.313930 0.250000
O O8 0.713288 0.338092 0.386603
O O9 0.500000 0.937703 0.181869
O O10 0.750000 0.934816 0.250000
O O11 0.674361 0.868265 0.163586
O O12 0.500000 0.847985 0.515408
O O13 0.785906 0.843059 0.477375
O O14 0.250000 0.250000 0.750000
O O15 0.215720 0.207215 0.873073
O O16 0.000000 0.250000 0.812390
O O17 0.500000 0.690318 0.100680
#
# Coordination Sequence:
#
# PCOD8299902 Si02
#       6
#    16  16  16  16   8  16
#     4   9  18  34  55  77 104 137 172 213 264 317
#     4   9  18  32  50  73 101 133 171 212 259 312
#     4  10  20  34  54  77 103 134 172 215 259 310
#     4   9  18  33  53  76 102 135 173 213 258 312
#     4  12  24  36  50  70 101 138 173 210 252 296
#     4  10  21  35  51  75 103 134 173 214 255 302
#
# _framework density 17.872278999999999
#
# number of rings (size 3 to 8) (size 9 to 14) (size 15 to 20)
#    0.000    2.364    0.000    2.455    1.273    4.727 
#    0.000    0.909    0.000    2.182    0.000    0.000 
#    0.000    0.000    0.000    0.000    0.000    0.000 
#
# Total GULP energy -545452.027065 kJ/mol
# GULP energy per Si atom -12396.636979 kJ/mol
# Density = 1.783160 g / cm^3
# Si number density = 17.872279 Si / 1000 Ang^3
#
#
#
# Elastic Constant Matrix: (Units=GPa)
#
#
# Indices 1 2 3 4 5 6 
#
# 1 102.1991 46.8768 49.8717 0.0000 0.0000 0.0000
# 2 46.8768 110.5606 62.5708 0.0000 0.0000 0.0000
# 3 49.8717 62.5708 113.5384 -0.0001 0.0000 0.0000
# 4 0.0000 0.0000 -0.0001 15.7787 0.0000 0.0000
# 5 0.0000 0.0000 0.0000 0.0000 31.9563 0.0000
# 6 0.0000 0.0000 0.0000 0.0000 0.0000 20.6685
#
#
#
# Elastic Compliance Matrix: (Units=1/GPa)
#
#
# Indices 1 2 3 4 5 6 
#
# 1 0.013271 -0.003383 -0.003965 0.000000 0.000000 0.000000
# 2 -0.003383 0.014007 -0.006233 0.000000 0.000000 0.000000
# 3 -0.003965 -0.006233 0.013984 0.000000 0.000000 0.000000
# 4 0.000000 0.000000 0.000000 0.063376 0.000000 0.000000
# 5 0.000000 0.000000 0.000000 0.000000 0.031293 0.000000
# 6 0.000000 0.000000 0.000000 0.000000 0.000000 0.048383
#
#
# Mechanical properties :
#
#
# Convention : Reuss Voigt Hill
#
# Bulk Modulus (GPa) = 70.92150 71.65963 71.29057
# Shear Modulus (GPa) = 23.12919 24.81262 23.97091
#
# Velocity S-wave (km/s) = 3.60132 3.73007 3.66626
# Velocity P-wave (km/s) = 7.55389 7.66379 7.60904
#
# Compressibility (1/GPa) = 0.01410010
#
# Stress axis : x y z
#
# Youngs Moduli (GPa) = 75.34972 71.39419 71.50852
#
# Poissons Ratio (x) = 0.24152 0.28354
# Poissons Ratio (y) = 0.25490 0.44572
# Poissons Ratio (z) = 0.29877 0.44501
#
# Static dielectric constant tensor:
#      x y z
#    x 3.319200 0.000000 0.000000 
#    y 0.000000 3.396450 0.000000 
#    z 0.000000 0.000000 3.218080 
# 
# 
# High freq. dielectric constant tensor:
#      x y z
#    x 1.699650 0.000000 0.000000 
#    y 0.000000 1.682920 0.000000 
#    z 0.000000 0.000000 1.683380 
# 
# From -- ./inp_files/40072.got.cif
#   From: 2010.03.12/outbox.cif.g09.slc.cpg/sg74_21_cif.got.tgz:40072.got - 2010.04.16 15:46:19.
