data_PCOD8299722
_publ_section_title
;
Structure prediction by ZEFSAII (Michael W. Deem and Ramdas Pophale) SiO2 
 PCOD8299722
Probable space group: I M M A
;
_chemical_formula_sum "Si O2"
_cell_formula_units_Z 96
_cell_length_a 13.921931
_cell_length_b 14.599151
_cell_length_c 20.903091
_cell_angle_alpha 90.000000
_cell_angle_beta 90.000000
_cell_angle_gamma 90.000000
_cell_volume 4248.519234
_symmetry_space_group_name_H-M "I M M A"
_symmetry_group_IT_number 74
_symmetry_cell_setting 'orthorhombic'
loop_
_space_group_symop_operation_xyz
x,y,z
-x,1/2-y,z
x,-y,-z
-x,1/2+y,-z
-x,-y,-z
x,1/2+y,-z
-x,y,z
x,1/2-y,z
1/2+x,1/2+y,1/2+z
1/2-x,-y,1/2+z
1/2+x,1/2-y,1/2-z
1/2-x,y,1/2-z
1/2-x,1/2-y,1/2-z
1/2+x,y,1/2-z
1/2-x,1/2+y,1/2+z
1/2+x,-y,1/2+z
loop_
_atom_site_type_symbol
_atom_site_label
_atom_site_fract_x
_atom_site_fract_y
_atom_site_fract_z
Si Si1 0.113242 0.037261 0.219013
Si Si2 0.885943 0.853601 0.661363
Si Si3 0.606173 0.104045 0.019347
Si Si4 0.387042 0.143531 0.404221
Si Si5 0.202193 0.352056 0.967964
Si Si6 0.887698 0.853458 0.160619
O O1 0.158420 0.078556 0.284415
O O2 0.155732 0.090917 0.157441
O O3 0.000000 0.055212 0.219347
O O4 0.135415 0.927699 0.216241
O O5 0.851707 0.750000 0.675193
O O6 0.851501 0.884508 0.591042
O O7 0.000000 0.860512 0.663389
O O8 0.500000 0.150109 0.013266
O O9 0.681544 0.150282 0.970933
O O10 0.597844 0.000000 0.000000
O O11 0.500000 0.129738 0.410102
O O12 0.358472 0.250000 0.396622
O O13 0.340068 0.099147 0.468509
O O14 0.159710 0.250000 0.966818
O O15 0.166117 0.395246 0.901635
O O16 0.853511 0.750000 0.180135
O O17 0.000000 0.852802 0.144899
#
# Coordination Sequence:
#
# PCOD8299722 Si02
#       6
#    16  16  16  16  16  16
#     4   9  17  29  51  81 113 152 185 217 271 334
#     4   9  17  33  58  84 111 143 181 230 287 340
#     4  10  22  38  57  80 106 141 187 241 292 336
#     4   9  17  29  47  78 118 152 184 221 266 332
#     4  10  20  33  53  78 108 149 189 230 279 326
#     4   9  18  32  51  81 120 156 187 219 262 326
#
# _framework density 22.596108000000001
#
# number of rings (size 3 to 8) (size 9 to 14) (size 15 to 20)
#    0.000    2.667    0.000    1.500    2.333    5.000 
#    0.000    3.333    0.000    5.000    0.000   14.000 
#    0.000    0.000    0.000    0.000    0.000    0.000 
#
# Total GULP energy -594926.745493 kJ/mol
# GULP energy per Si atom -12394.307198 kJ/mol
# Density = 2.254468 g / cm^3
# Si number density = 22.596108 Si / 1000 Ang^3
#
#
#
# Elastic Constant Matrix: (Units=GPa)
#
#
# Indices 1 2 3 4 5 6 
#
# 1 41.1567 10.4007 26.9217 0.0000 0.0000 0.0000
# 2 10.4007 114.6887 59.5645 0.0000 0.0000 0.0000
# 3 26.9217 59.5645 98.6913 0.0000 0.0000 0.0000
# 4 0.0000 0.0000 0.0000 37.2152 0.0000 0.0000
# 5 0.0000 0.0000 0.0000 0.0000 25.2991 0.0000
# 6 0.0000 0.0000 0.0000 0.0000 0.0000 44.7436
#
#
#
# Elastic Compliance Matrix: (Units=1/GPa)
#
#
# Indices 1 2 3 4 5 6 
#
# 1 0.029959 0.002225 -0.009515 0.000000 0.000000 0.000000
# 2 0.002225 0.012865 -0.008372 0.000000 0.000000 0.000000
# 3 -0.009515 -0.008372 0.017781 0.000000 0.000000 0.000000
# 4 0.000000 0.000000 0.000000 0.026871 0.000000 0.000000
# 5 0.000000 0.000000 0.000000 0.000000 0.039527 0.000000
# 6 0.000000 0.000000 0.000000 0.000000 0.000000 0.022350
#
#
# Mechanical properties :
#
#
# Convention : Reuss Voigt Hill
#
# Bulk Modulus (GPa) = 34.15136 49.81227 41.98181
# Shear Modulus (GPa) = 26.25524 31.96156 29.10840
#
# Velocity S-wave (km/s) = 3.41242 3.76503 3.59305
# Velocity P-wave (km/s) = 5.53830 6.40258 5.98606
#
# Compressibility (1/GPa) = 0.02928141
#
# Stress axis : x y z
#
# Youngs Moduli (GPa) = 33.37853 77.72762 56.23970
#
# Poissons Ratio (x) = -0.17294 0.53514
# Poissons Ratio (y) = -0.07427 0.47083
# Poissons Ratio (z) = 0.31761 0.65072
#
# Static dielectric constant tensor:
#      x y z
#    x 3.957090 0.000000 0.000000 
#    y 0.000000 4.039470 0.000000 
#    z 0.000000 0.000000 4.149780 
# 
# 
# High freq. dielectric constant tensor:
#      x y z
#    x 1.885890 0.000000 0.000000 
#    y 0.000000 1.883990 0.000000 
#    z 0.000000 0.000000 1.874890 
# 
# From -- ./inp_files/51843.got.cif
#   From: 2010.03.12/outbox.cif.g09.slc.cpg/sg74_26_cif.got.tgz:51843.got - 2010.04.16 15:46:19.
