data_PCOD8299287
_publ_section_title
;
Structure prediction by ZEFSAII (Michael W. Deem and Ramdas Pophale) SiO2 
 PCOD8299287
Probable space group: I M M A
;
_chemical_formula_sum "Si O2"
_cell_formula_units_Z 72
_cell_length_a 8.780707
_cell_length_b 22.534327
_cell_length_c 19.075753
_cell_angle_alpha 90.000000
_cell_angle_beta 90.000000
_cell_angle_gamma 90.000000
_cell_volume 3774.468177
_symmetry_space_group_name_H-M "I M M A"
_symmetry_group_IT_number 74
_symmetry_cell_setting 'orthorhombic'
loop_
_space_group_symop_operation_xyz
x,y,z
-x,1/2-y,z
x,-y,-z
-x,1/2+y,-z
-x,-y,-z
x,1/2+y,-z
-x,y,z
x,1/2-y,z
1/2+x,1/2+y,1/2+z
1/2-x,-y,1/2+z
1/2+x,1/2-y,1/2-z
1/2-x,y,1/2-z
1/2-x,1/2-y,1/2-z
1/2+x,y,1/2-z
1/2-x,1/2+y,1/2+z
1/2+x,-y,1/2+z
loop_
_atom_site_type_symbol
_atom_site_label
_atom_site_fract_x
_atom_site_fract_y
_atom_site_fract_z
Si Si1 0.321955 0.512132 0.076646
Si Si2 0.677875 0.145467 0.926778
Si Si3 0.179000 0.750000 0.326008
Si Si4 0.178162 0.318699 0.070627
Si Si5 0.180350 0.408231 0.326193
O O1 0.500000 0.499147 0.070951
O O2 0.289462 0.579291 0.101828
O O3 0.253919 0.466125 0.133013
O O4 0.248421 0.500000 0.000000
O O5 0.500000 0.154736 0.944569
O O6 0.733739 0.191673 0.867945
O O7 0.773056 0.153966 0.996839
O O8 0.250000 0.750000 0.250000
O O9 0.000000 0.750000 0.316732
O O10 0.222425 0.250000 0.071977
O O11 0.269107 0.349309 0.133347
O O12 0.000000 0.329130 0.081605
O O13 0.250000 0.408040 0.250000
O O14 0.000000 0.409309 0.319992
#
# Coordination Sequence:
#
# PCOD8299287 Si02
#       5
#    16  16   8  16  16
#     4   9  17  33  60  88 113 147 191 236 282 341
#     4  10  19  36  61  88 114 152 200 239 285 346
#     4  10  22  36  56  84 119 156 193 236 286 340
#     4  11  23  38  59  88 118 150 192 244 296 348
#     4  11  23  40  61  86 120 156 193 240 292 348
#
# _framework density 19.075536
#
# number of rings (size 3 to 8) (size 9 to 14) (size 15 to 20)
#    0.000    1.778    3.333    1.333    0.000    3.556 
#    0.000    3.333    0.000    0.000    0.000    0.000 
#    0.000    0.000    0.000    0.000    0.000    0.000 
#
# Total GULP energy -446469.026868 kJ/mol
# GULP energy per Si atom -12401.917413 kJ/mol
# Density = 1.903212 g / cm^3
# Si number density = 19.075536 Si / 1000 Ang^3
#
#
#
# Elastic Constant Matrix: (Units=GPa)
#
#
# Indices 1 2 3 4 5 6 
#
# 1 44.0485 19.2533 23.1284 0.0000 0.0000 0.0000
# 2 19.2533 91.5201 25.1399 0.0000 0.0000 0.0000
# 3 23.1284 25.1399 123.9383 0.0000 0.0000 0.0000
# 4 0.0000 0.0000 0.0000 26.5016 0.0000 0.0000
# 5 0.0000 0.0000 0.0000 0.0000 34.3253 0.0000
# 6 0.0000 0.0000 0.0000 0.0000 0.0000 12.5109
#
#
#
# Elastic Compliance Matrix: (Units=1/GPa)
#
#
# Indices 1 2 3 4 5 6 
#
# 1 0.026825 -0.004520 -0.004089 0.000000 0.000000 0.000000
# 2 -0.004520 0.012333 -0.001658 0.000000 0.000000 0.000000
# 3 -0.004089 -0.001658 0.009168 0.000000 0.000000 0.000000
# 4 0.000000 0.000000 0.000000 0.037734 0.000000 0.000000
# 5 0.000000 0.000000 0.000000 0.000000 0.029133 0.000000
# 6 0.000000 0.000000 0.000000 0.000000 0.000000 0.079930
#
#
# Mechanical properties :
#
#
# Convention : Reuss Voigt Hill
#
# Bulk Modulus (GPa) = 35.98229 43.83890 39.91060
# Shear Modulus (GPa) = 22.23005 27.46657 24.84831
#
# Velocity S-wave (km/s) = 3.41745 3.79870 3.61311
# Velocity P-wave (km/s) = 5.87163 6.50167 6.19467
#
# Compressibility (1/GPa) = 0.02779145
#
# Stress axis : x y z
#
# Youngs Moduli (GPa) = 37.27880 81.08374 109.07577
#
# Poissons Ratio (x) = 0.36650 0.44601
# Poissons Ratio (y) = 0.16850 0.18086
# Poissons Ratio (z) = 0.15243 0.13445
#
# Static dielectric constant tensor:
#      x y z
#    x 3.280160 0.000000 0.000000 
#    y 0.000000 4.270350 0.000000 
#    z 0.000000 0.000000 3.570780 
# 
# 
# High freq. dielectric constant tensor:
#      x y z
#    x 1.719960 0.000000 0.000000 
#    y 0.000000 1.760820 0.000000 
#    z 0.000000 0.000000 1.739900 
# 
# From -- ./inp_files/39470.got.cif
#   From: 2010.03.12/outbox.cif.g09.slc.cpg/sg74_20_cif.got.tgz:39470.got - 2010.04.16 15:46:19.
