data_PCOD8299153
_publ_section_title
;
Structure prediction by ZEFSAII (Michael W. Deem and Ramdas Pophale) SiO2 
 PCOD8299153
Probable space group: I M M A
;
_chemical_formula_sum "Si O2"
_cell_formula_units_Z 104
_cell_length_a 19.182282
_cell_length_b 26.744079
_cell_length_c 10.001898
_cell_angle_alpha 90.000000
_cell_angle_beta 90.000000
_cell_angle_gamma 90.000000
_cell_volume 5131.098350
_symmetry_space_group_name_H-M "I M M A"
_symmetry_group_IT_number 74
_symmetry_cell_setting 'orthorhombic'
loop_
_space_group_symop_operation_xyz
x,y,z
-x,1/2-y,z
x,-y,-z
-x,1/2+y,-z
-x,-y,-z
x,1/2+y,-z
-x,y,z
x,1/2-y,z
1/2+x,1/2+y,1/2+z
1/2-x,-y,1/2+z
1/2+x,1/2-y,1/2-z
1/2-x,y,1/2-z
1/2-x,1/2-y,1/2-z
1/2+x,y,1/2-z
1/2-x,1/2+y,1/2+z
1/2+x,-y,1/2+z
loop_
_atom_site_type_symbol
_atom_site_label
_atom_site_fract_x
_atom_site_fract_y
_atom_site_fract_z
Si Si1 0.922158 0.093207 0.483583
Si Si2 0.831637 0.554797 0.753690
Si Si3 0.152810 0.806449 0.105958
Si Si4 0.127048 0.942137 0.252019
Si Si5 0.079444 0.195258 0.611021
Si Si6 0.920128 0.606065 0.983000
Si Si7 0.250000 0.868731 0.250000
O O1 0.865390 0.070417 0.385561
O O2 0.923970 0.060451 0.620415
O O3 0.901594 0.151387 0.507785
O O4 0.000000 0.089830 0.421491
O O5 0.750000 0.568128 0.750000
O O6 0.841593 0.496173 0.776206
O O7 0.868917 0.583667 0.873275
O O8 0.161403 0.750000 0.052471
O O9 0.124587 0.808594 0.256277
O O10 0.102055 0.836157 0.005672
O O11 0.227624 0.834460 0.121431
O O12 0.086634 0.924767 0.119934
O O13 0.187464 0.904102 0.294997
O O14 0.090846 0.250000 0.543352
O O15 0.000000 0.188448 0.658537
O O16 0.000000 0.603900 0.933343
#
# Coordination Sequence:
#
# PCOD8299153 Si02
#       7
#    16  16  16  16  16  16   8
#     4  11  23  41  65  95 127 160 209 267 315 370
#     4  12  28  42  61  87 128 179 217 257 315 381
#     4  10  20  35  63  96 126 160 204 260 321 380
#     4  11  23  40  68  90 122 165 220 261 318 375
#     4   9  17  33  60  91 119 152 197 252 314 374
#     4  11  24  42  64  94 131 167 212 267 323 383
#     4  10  19  34  58  96 128 156 199 262 310 374
#
# _framework density 20.268564999999999
#
# number of rings (size 3 to 8) (size 9 to 14) (size 15 to 20)
#    0.000    1.385    3.846    2.538    4.308    5.846 
#    0.000    0.769    0.000    2.769    0.000    0.000 
#    0.000    0.000    0.000    0.000    0.000    0.000 
#
# Total GULP energy -644686.159079 kJ/mol
# GULP energy per Si atom -12397.810752 kJ/mol
# Density = 2.022243 g / cm^3
# Si number density = 20.268565 Si / 1000 Ang^3
#
#
#
# Elastic Constant Matrix: (Units=GPa)
#
#
# Indices 1 2 3 4 5 6 
#
# 1 117.4291 53.2212 26.5589 0.0000 0.0000 0.0000
# 2 53.2212 141.2594 32.3268 0.0000 0.0000 0.0000
# 3 26.5589 32.3268 77.7673 0.0004 0.0000 0.0000
# 4 0.0000 0.0000 0.0004 -649.4850 0.0002 0.0000
# 5 0.0000 0.0000 0.0000 0.0002 24.1141 0.0000
# 6 0.0000 0.0000 0.0000 0.0000 0.0000 26.8873
#
#
#
# Elastic Compliance Matrix: (Units=1/GPa)
#
#
# Indices 1 2 3 4 5 6 
#
# 1 0.010589 -0.003494 -0.002164 0.000000 0.000000 0.000000
# 2 -0.003494 0.008977 -0.002538 0.000000 0.000000 0.000000
# 3 -0.002164 -0.002538 0.014653 0.000000 0.000000 0.000000
# 4 0.000000 0.000000 0.000000 -0.001540 0.000000 0.000000
# 5 0.000000 0.000000 0.000000 0.000000 0.041469 0.000000
# 6 0.000000 0.000000 0.000000 0.000000 0.000000 0.037192
#
#
# Mechanical properties :
#
#
# Convention : Reuss Voigt Hill
#
# Bulk Modulus (GPa) = 56.09771 62.29661 59.19716
# Shear Modulus (GPa) = 37.40429 -104.74013 -33.66792
#
# Velocity S-wave (km/s) = 4.30051 -7.19641 -4.08007
# Velocity P-wave (km/s) = 7.23854 6.18456 2.65967
#
# Compressibility (1/GPa) = 0.01782604
#
# Stress axis : x y z
#
# Youngs Moduli (GPa) = 94.43910 111.40168 68.24603
#
# Poissons Ratio (x) = 0.38927 0.14767
# Poissons Ratio (y) = 0.33000 0.17321
# Poissons Ratio (z) = 0.20434 0.28274
#
# Static dielectric constant tensor:
#      x y z
#    x 3.904820 0.000000 0.000000 
#    y 0.000000 4.146770 0.000000 
#    z 0.000000 0.000000 3.374180 
# 
# 
# High freq. dielectric constant tensor:
#      x y z
#    x 1.804270 0.000000 0.000000 
#    y 0.000000 1.807940 0.000000 
#    z 0.000000 0.000000 1.753200 
# 
# From -- ./inp_files/12775.got.cif
#   From: 2010.03.12/outbox.cif.g09.slc.cpg/sg74_7_cif.got.tgz:12775.got - 2010.04.16 15:46:19.
