data_PCOD8299392
_publ_section_title
;
Structure prediction by ZEFSAII (Michael W. Deem and Ramdas Pophale) SiO2 
 PCOD8299392
Probable space group: I M M A
;
_chemical_formula_sum "Si O2"
_cell_formula_units_Z 96
_cell_length_a 22.875744
_cell_length_b 9.195986
_cell_length_c 24.760364
_cell_angle_alpha 90.000000
_cell_angle_beta 90.000000
_cell_angle_gamma 90.000000
_cell_volume 5208.714507
_symmetry_space_group_name_H-M "I M M A"
_symmetry_group_IT_number 74
_symmetry_cell_setting 'orthorhombic'
loop_
_space_group_symop_operation_xyz
x,y,z
-x,1/2-y,z
x,-y,-z
-x,1/2+y,-z
-x,-y,-z
x,1/2+y,-z
-x,y,z
x,1/2-y,z
1/2+x,1/2+y,1/2+z
1/2-x,-y,1/2+z
1/2+x,1/2-y,1/2-z
1/2-x,y,1/2-z
1/2-x,1/2-y,1/2-z
1/2+x,y,1/2-z
1/2-x,1/2+y,1/2+z
1/2+x,-y,1/2+z
loop_
_atom_site_type_symbol
_atom_site_label
_atom_site_fract_x
_atom_site_fract_y
_atom_site_fract_z
Si Si1 0.066889 0.581512 0.243937
Si Si2 0.380578 0.916852 0.367206
Si Si3 0.654009 0.075853 0.055197
Si Si4 0.725967 0.422952 0.555516
Si Si5 0.933725 0.919456 0.649640
Si Si6 0.433190 0.906470 0.546854
O O1 0.069441 0.750000 0.258220
O O2 0.113096 0.544114 0.196040
O O3 0.089301 0.496670 0.296343
O O4 0.000000 0.536909 0.228372
O O5 0.397486 0.750000 0.376595
O O6 0.318066 0.952409 0.394423
O O7 0.429433 0.012808 0.396363
O O8 0.661305 0.250000 0.047955
O O9 0.605999 0.034945 0.099508
O O10 0.714413 0.001347 0.073590
O O11 0.632821 0.000000 0.000000
O O12 0.704199 0.500000 0.500000
O O13 0.734959 0.250000 0.546057
O O14 0.929654 0.750000 0.661053
O O15 0.000000 0.967953 0.636450
O O16 0.500000 0.882560 0.531391
O O17 0.401299 0.750000 0.549305
O O18 0.401575 0.000000 0.500000
#
# Coordination Sequence:
#
# PCOD8299392 Si02
#       6
#    16  16  16  16  16  16
#     4   9  18  33  53  76 102 134 172 213 256 301
#     4  10  20  33  50  72  98 132 174 216 257 300
#     4  10  20  35  56  80 106 135 165 202 250 303
#     4  10  20  34  52  74 102 136 173 214 258 303
#     4   9  19  36  56  79 107 135 164 202 249 302
#     4  10  20  31  44  65  93 126 165 212 265 313
#
# _framework density 18.430651000000001
#
# number of rings (size 3 to 8) (size 9 to 14) (size 15 to 20)
#    0.000    2.333    0.000    3.500    0.000    6.667 
#    0.000    2.500    0.000    5.000    0.000    0.000 
#    0.000    0.000    0.000    0.000    0.000    0.000 
#
# Total GULP energy -594916.427514 kJ/mol
# GULP energy per Si atom -12394.092240 kJ/mol
# Density = 1.838870 g / cm^3
# Si number density = 18.430651 Si / 1000 Ang^3
#
#
#
# Elastic Constant Matrix: (Units=GPa)
#
#
# Indices 1 2 3 4 5 6 
#
# 1 85.8916 46.4946 76.7832 0.0000 0.0000 0.0000
# 2 46.4946 101.5288 71.8240 0.0000 0.0000 0.0000
# 3 76.7832 71.8240 157.3954 0.0000 0.0000 0.0000
# 4 0.0000 0.0000 0.0000 34.7310 0.0000 0.0000
# 5 0.0000 0.0000 0.0000 0.0000 35.6839 0.0000
# 6 0.0000 0.0000 0.0000 0.0000 0.0000 17.7255
#
#
#
# Elastic Compliance Matrix: (Units=1/GPa)
#
#
# Indices 1 2 3 4 5 6 
#
# 1 0.021494 -0.003581 -0.008851 0.000000 0.000000 0.000000
# 2 -0.003581 0.015141 -0.005162 0.000000 0.000000 0.000000
# 3 -0.008851 -0.005162 0.013027 0.000000 0.000000 0.000000
# 4 0.000000 0.000000 0.000000 0.028793 0.000000 0.000000
# 5 0.000000 0.000000 0.000000 0.000000 0.028024 0.000000
# 6 0.000000 0.000000 0.000000 0.000000 0.000000 0.056416
#
#
# Mechanical properties :
#
#
# Convention : Reuss Voigt Hill
#
# Bulk Modulus (GPa) = 69.09657 81.66883 75.38270
# Shear Modulus (GPa) = 24.64161 27.60901 26.12531
#
# Velocity S-wave (km/s) = 3.66046 3.87459 3.76904
# Velocity P-wave (km/s) = 7.44558 8.02647 7.74148
#
# Compressibility (1/GPa) = 0.01447250
#
# Stress axis : x y z
#
# Youngs Moduli (GPa) = 46.52498 66.04366 76.76326
#
# Poissons Ratio (x) = 0.23653 0.67944
# Poissons Ratio (y) = 0.16663 0.39628
# Poissons Ratio (z) = 0.41180 0.34094
#
# Static dielectric constant tensor:
#      x y z
#    x 3.303910 0.000000 0.000000 
#    y 0.000000 3.636800 0.000000 
#    z 0.000000 0.000000 3.367220 
# 
# 
# High freq. dielectric constant tensor:
#      x y z
#    x 1.699520 0.000000 0.000000 
#    y 0.000000 1.726680 0.000000 
#    z 0.000000 0.000000 1.707150 
# 
# From -- ./inp_files/49123.got.cif
#   From: 2010.03.12/outbox.cif.g09.slc.cpg/sg74_25_cif.got.tgz:49123.got - 2010.04.16 15:46:19.
