data_PCOD8299107
_publ_section_title
;
Structure prediction by ZEFSAII (Michael W. Deem and Ramdas Pophale) SiO2 
 PCOD8299107
Probable space group: I M M A
;
_chemical_formula_sum "Si O2"
_cell_formula_units_Z 104
_cell_length_a 8.787355
_cell_length_b 32.718900
_cell_length_c 19.971026
_cell_angle_alpha 90.000000
_cell_angle_beta 90.000000
_cell_angle_gamma 90.000000
_cell_volume 5741.921400
_symmetry_space_group_name_H-M "I M M A"
_symmetry_group_IT_number 74
_symmetry_cell_setting 'orthorhombic'
loop_
_space_group_symop_operation_xyz
x,y,z
-x,1/2-y,z
x,-y,-z
-x,1/2+y,-z
-x,-y,-z
x,1/2+y,-z
-x,y,z
x,1/2-y,z
1/2+x,1/2+y,1/2+z
1/2-x,-y,1/2+z
1/2+x,1/2-y,1/2-z
1/2-x,y,1/2-z
1/2-x,1/2-y,1/2-z
1/2+x,y,1/2-z
1/2-x,1/2+y,1/2+z
1/2+x,-y,1/2+z
loop_
_atom_site_type_symbol
_atom_site_label
_atom_site_fract_x
_atom_site_fract_y
_atom_site_fract_z
Si Si1 0.319663 0.750000 0.177361
Si Si2 0.179617 0.984810 0.073618
Si Si3 0.821543 0.795064 0.936500
Si Si4 0.680714 0.600503 0.053871
Si Si5 0.320186 0.682280 0.413324
Si Si6 0.819666 0.547576 0.677602
Si Si7 0.677754 0.124225 0.093974
O O1 0.500000 0.750000 0.180747
O O2 0.250000 0.750000 0.250000
O O3 0.262329 0.709641 0.140854
O O4 0.252808 0.940684 0.084824
O O5 0.000000 0.982553 0.083949
O O6 0.250976 0.014678 0.127703
O O7 0.224525 0.000000 0.000000
O O8 0.763479 0.750000 0.913356
O O9 0.775111 0.800991 0.013617
O O10 0.000000 0.798073 0.927453
O O11 0.750135 0.831253 0.891799
O O12 0.500000 0.601072 0.061303
O O13 0.755631 0.636823 0.096472
O O14 0.733461 0.605220 0.976538
O O15 0.500000 0.683359 0.401655
O O16 0.750000 0.540453 0.750000
O O17 0.774046 0.592963 0.652359
O O18 0.000000 0.542080 0.679693
O O19 0.500000 0.131111 0.091726
#
# Coordination Sequence:
#
# PCOD8299107 Si02
#       7
#     8  16  16  16  16  16  16
#     4  12  24  38  56  78 106 148 193 232 279 338
#     4  11  22  36  58  87 116 151 194 237 285 341
#     4   9  17  30  51  80 112 142 175 222 277 325
#     4  10  19  34  56  84 114 145 184 232 285 335
#     4  10  19  35  54  78 111 144 181 229 280 332
#     4  11  23  40  59  83 116 153 192 237 288 344
#     4   9  19  33  52  80 112 146 183 226 278 330
#
# _framework density 18.112404000000002
#
# number of rings (size 3 to 8) (size 9 to 14) (size 15 to 20)
#    0.000    1.846    2.308    2.538    0.000    3.385 
#    0.000    0.769    0.000    0.462    0.000    0.000 
#    0.000    0.000    0.000    0.000    0.000    0.000 
#
# Total GULP energy -644881.735379 kJ/mol
# GULP energy per Si atom -12401.571834 kJ/mol
# Density = 1.807118 g / cm^3
# Si number density = 18.112404 Si / 1000 Ang^3
#
#
#
# Elastic Constant Matrix: (Units=GPa)
#
#
# Indices 1 2 3 4 5 6 
#
# 1 86.7753 59.2321 45.7799 0.0000 0.0000 0.0000
# 2 59.2321 153.9101 49.1626 0.0000 0.0000 0.0000
# 3 45.7799 49.1626 87.6483 -0.0001 0.0000 0.0000
# 4 0.0000 0.0000 -0.0001 23.0173 0.0000 0.0000
# 5 0.0000 0.0000 0.0000 0.0000 24.2370 0.0000
# 6 0.0000 0.0000 0.0000 0.0000 0.0000 38.3223
#
#
#
# Elastic Compliance Matrix: (Units=1/GPa)
#
#
# Indices 1 2 3 4 5 6 
#
# 1 0.018535 -0.004923 -0.006920 0.000000 0.000000 0.000000
# 2 -0.004923 0.009223 -0.002602 0.000000 0.000000 0.000000
# 3 -0.006920 -0.002602 0.016483 0.000000 0.000000 0.000000
# 4 0.000000 0.000000 0.000000 0.043446 0.000000 0.000000
# 5 0.000000 0.000000 0.000000 0.000000 0.041259 0.000000
# 6 0.000000 0.000000 0.000000 0.000000 0.000000 0.026094
#
#
# Mechanical properties :
#
#
# Convention : Reuss Voigt Hill
#
# Bulk Modulus (GPa) = 65.13924 70.74255 67.94089
# Shear Modulus (GPa) = 26.44849 28.72593 27.58721
#
# Velocity S-wave (km/s) = 3.82546 3.98676 3.90694
# Velocity P-wave (km/s) = 7.45346 7.76754 7.61212
#
# Compressibility (1/GPa) = 0.01535173
#
# Stress axis : x y z
#
# Youngs Moduli (GPa) = 53.95214 108.42492 60.66853
#
# Poissons Ratio (x) = 0.53375 0.41981
# Poissons Ratio (y) = 0.26560 0.15786
# Poissons Ratio (z) = 0.37334 0.28212
#
# Static dielectric constant tensor:
#      x y z
#    x 3.389360 0.000000 0.000000 
#    y 0.000000 3.427130 0.000000 
#    z 0.000000 0.000000 3.116380 
# 
# 
# High freq. dielectric constant tensor:
#      x y z
#    x 1.711570 0.000000 0.000000 
#    y 0.000000 1.720210 0.000000 
#    z 0.000000 0.000000 1.666380 
# 
# From -- ./inp_files/49609.got.cif
#   From: 2010.03.12/outbox.cif.g09.slc.cpg/sg74_25_cif.got.tgz:49609.got - 2010.04.16 15:46:19.
