data_PCOD8299918
_publ_section_title
;
Structure prediction by ZEFSAII (Michael W. Deem and Ramdas Pophale) SiO2 
 PCOD8299918
Probable space group: I M M A
;
_chemical_formula_sum "Si O2"
_cell_formula_units_Z 96
_cell_length_a 11.299258
_cell_length_b 18.738759
_cell_length_c 25.114546
_cell_angle_alpha 90.000000
_cell_angle_beta 90.000000
_cell_angle_gamma 90.000000
_cell_volume 5317.605105
_symmetry_space_group_name_H-M "I M M A"
_symmetry_group_IT_number 74
_symmetry_cell_setting 'orthorhombic'
loop_
_space_group_symop_operation_xyz
x,y,z
-x,1/2-y,z
x,-y,-z
-x,1/2+y,-z
-x,-y,-z
x,1/2+y,-z
-x,y,z
x,1/2-y,z
1/2+x,1/2+y,1/2+z
1/2-x,-y,1/2+z
1/2+x,1/2-y,1/2-z
1/2-x,y,1/2-z
1/2-x,1/2-y,1/2-z
1/2+x,y,1/2-z
1/2-x,1/2+y,1/2+z
1/2+x,-y,1/2+z
loop_
_atom_site_type_symbol
_atom_site_label
_atom_site_fract_x
_atom_site_fract_y
_atom_site_fract_z
Si Si1 0.362103 0.333716 0.787858
Si Si2 0.500000 0.334470 0.361194
Si Si3 0.136227 0.082504 0.396944
Si Si4 0.260862 0.165324 0.310115
Si Si5 0.500000 0.334835 0.482269
Si Si6 0.772807 0.583949 0.002612
Si Si7 0.636564 0.421812 0.892275
O O1 0.500000 0.354000 0.768977
O O2 0.358698 0.250000 0.798411
O O3 0.250000 0.355198 0.750000
O O4 0.329730 0.372777 0.842597
O O5 0.500000 0.250000 0.358205
O O6 0.614947 0.364781 0.331747
O O7 0.500000 0.361131 0.421363
O O8 0.157557 0.133893 0.346746
O O9 0.207482 0.108705 0.448730
O O10 0.000000 0.085788 0.413018
O O11 0.174504 0.003021 0.379526
O O12 0.251475 0.250000 0.312884
O O13 0.250000 0.137541 0.250000
O O14 0.500000 0.250000 0.488145
O O15 0.611978 0.368564 0.510900
O O16 0.697303 0.604864 0.053951
O O17 0.802123 0.500000 0.000000
O O18 0.500000 0.417105 0.905183
#
# Coordination Sequence:
#
# PCOD8299918 Si02
#       7
#    16   8  16  16   8  16  16
#     4   9  18  35  59  82 108 142 177 218 272 329
#     4   9  18  35  53  71 101 141 176 215 267 313
#     4  10  20  34  54  79 106 137 177 223 266 310
#     4  10  21  35  53  75 103 142 184 222 264 312
#     4  11  21  35  55  77 109 145 177 217 265 315
#     4  10  20  36  56  78 107 142 177 215 265 322
#     4   9  19  36  57  80 107 138 174 216 265 320
#
# _framework density 18.053239999999999
#
# number of rings (size 3 to 8) (size 9 to 14) (size 15 to 20)
#    0.000    2.333    1.667    0.750    1.167    3.667 
#    1.500    0.000    0.000    3.000    0.000    0.000 
#    0.000    0.000    0.000    0.000    0.000    0.000 
#
# Total GULP energy -595000.082965 kJ/mol
# GULP energy per Si atom -12395.835062 kJ/mol
# Density = 1.801215 g / cm^3
# Si number density = 18.053240 Si / 1000 Ang^3
#
#
#
# Elastic Constant Matrix: (Units=GPa)
#
#
# Indices 1 2 3 4 5 6 
#
# 1 94.2306 34.7221 59.6184 0.0000 0.0000 0.0000
# 2 34.7221 42.3057 47.4100 0.0000 0.0000 0.0000
# 3 59.6184 47.4100 133.2716 0.0000 0.0000 0.0000
# 4 0.0000 0.0000 0.0000 28.2439 0.0000 0.0000
# 5 0.0000 0.0000 0.0000 0.0000 37.5816 0.0000
# 6 0.0000 0.0000 0.0000 0.0000 0.0000 23.7400
#
#
#
# Elastic Compliance Matrix: (Units=1/GPa)
#
#
# Indices 1 2 3 4 5 6 
#
# 1 0.016561 -0.008797 -0.004279 0.000000 0.000000 0.000000
# 2 -0.008797 0.043981 -0.011710 0.000000 0.000000 0.000000
# 3 -0.004279 -0.011710 0.013584 0.000000 0.000000 0.000000
# 4 0.000000 0.000000 0.000000 0.035406 0.000000 0.000000
# 5 0.000000 0.000000 0.000000 0.000000 0.026609 0.000000
# 6 0.000000 0.000000 0.000000 0.000000 0.000000 0.042123
#
#
# Mechanical properties :
#
#
# Convention : Reuss Voigt Hill
#
# Bulk Modulus (GPa) = 40.72910 61.47877 51.10394
# Shear Modulus (GPa) = 21.18458 26.45026 23.81742
#
# Velocity S-wave (km/s) = 3.42928 3.83185 3.63614
# Velocity P-wave (km/s) = 6.18785 7.32840 6.78215
#
# Compressibility (1/GPa) = 0.02455247
#
# Stress axis : x y z
#
# Youngs Moduli (GPa) = 60.38241 22.73709 73.61835
#
# Poissons Ratio (x) = 0.20002 0.31502
# Poissons Ratio (y) = 0.53119 0.86210
# Poissons Ratio (z) = 0.25838 0.26626
#
# Static dielectric constant tensor:
#      x y z
#    x 3.538310 0.000000 0.000000 
#    y 0.000000 3.196610 0.000000 
#    z 0.000000 0.000000 3.353390 
# 
# 
# High freq. dielectric constant tensor:
#      x y z
#    x 1.708770 0.000000 0.000000 
#    y 0.000000 1.684220 0.000000 
#    z 0.000000 0.000000 1.698930 
# 
# From -- ./inp_files/50807.got.cif
#   From: 2010.03.12/outbox.cif.g09.slc.cpg/sg74_26_cif.got.tgz:50807.got - 2010.04.16 15:46:19.
