data_PCOD8299704
_publ_section_title
;
Structure prediction by ZEFSAII (Michael W. Deem and Ramdas Pophale) SiO2 
 PCOD8299704
Probable space group: I M M A
;
_chemical_formula_sum "Si O2"
_cell_formula_units_Z 80
_cell_length_a 25.306938
_cell_length_b 8.914722
_cell_length_c 18.222968
_cell_angle_alpha 90.000000
_cell_angle_beta 90.000000
_cell_angle_gamma 90.000000
_cell_volume 4111.180248
_symmetry_space_group_name_H-M "I M M A"
_symmetry_group_IT_number 74
_symmetry_cell_setting 'orthorhombic'
loop_
_space_group_symop_operation_xyz
x,y,z
-x,1/2-y,z
x,-y,-z
-x,1/2+y,-z
-x,-y,-z
x,1/2+y,-z
-x,y,z
x,1/2-y,z
1/2+x,1/2+y,1/2+z
1/2-x,-y,1/2+z
1/2+x,1/2-y,1/2-z
1/2-x,y,1/2-z
1/2-x,1/2-y,1/2-z
1/2+x,y,1/2-z
1/2-x,1/2+y,1/2+z
1/2+x,-y,1/2+z
loop_
_atom_site_type_symbol
_atom_site_label
_atom_site_fract_x
_atom_site_fract_y
_atom_site_fract_z
Si Si1 0.153170 0.926478 0.076323
Si Si2 0.941628 0.071562 0.320217
Si Si3 0.938926 0.922844 0.845158
Si Si4 0.347682 0.572702 0.920967
Si Si5 0.757272 0.423991 0.164867
O O1 0.154464 0.750000 0.066727
O O2 0.094547 0.977721 0.098741
O O3 0.194052 0.976779 0.138417
O O4 0.170513 0.000000 0.000000
O O5 0.941207 0.250000 0.319953
O O6 0.928659 0.018165 0.237602
O O7 0.898058 0.008034 0.376266
O O8 0.000000 0.013545 0.343938
O O9 0.921247 0.750000 0.852575
O O10 0.000000 0.941873 0.866387
O O11 0.351931 0.750000 0.929426
O O12 0.295265 0.525766 0.877677
O O13 0.346821 0.500000 0.000000
O O14 0.770257 0.250000 0.150761
O O15 0.750000 0.457498 0.250000
#
# Coordination Sequence:
#
# PCOD8299704 Si02
#       5
#    16  16  16  16  16
#     4  12  25  39  57  82 115 150 185 228 278 334
#     4   8  15  31  56  82 107 140 183 224 263 316
#     4   9  18  36  62  86 108 140 185 233 279 330
#     4  10  20  33  52  79 110 143 178 220 269 321
#     4  10  21  39  62  83 106 141 187 235 282 336
#
# _framework density 19.459133000000001
#
# number of rings (size 3 to 8) (size 9 to 14) (size 15 to 20)
#    0.000    2.200    0.000    4.800    0.000    7.200 
#    0.000    3.000    0.000    1.200    0.000    0.000 
#    0.000    0.000    0.000    0.000    0.000    0.000 
#
# Total GULP energy -496094.386952 kJ/mol
# GULP energy per Si atom -12402.359674 kJ/mol
# Density = 1.941484 g / cm^3
# Si number density = 19.459133 Si / 1000 Ang^3
#
#
#
# Elastic Constant Matrix: (Units=GPa)
#
#
# Indices 1 2 3 4 5 6 
#
# 1 112.1292 43.7808 50.0721 0.0000 0.0000 0.0000
# 2 43.7808 78.6908 41.5863 0.0000 0.0000 0.0000
# 3 50.0721 41.5863 102.6166 0.0000 0.0000 0.0000
# 4 0.0000 0.0000 0.0000 30.5332 0.0000 0.0000
# 5 0.0000 0.0000 0.0000 0.0000 29.2954 0.0000
# 6 0.0000 0.0000 0.0000 0.0000 0.0000 12.4439
#
#
#
# Elastic Compliance Matrix: (Units=1/GPa)
#
#
# Indices 1 2 3 4 5 6 
#
# 1 0.012694 -0.004822 -0.004240 0.000000 0.000000 0.000000
# 2 -0.004822 0.018003 -0.004943 0.000000 0.000000 0.000000
# 3 -0.004240 -0.004943 0.013817 0.000000 0.000000 0.000000
# 4 0.000000 0.000000 0.000000 0.032751 0.000000 0.000000
# 5 0.000000 0.000000 0.000000 0.000000 0.034135 0.000000
# 6 0.000000 0.000000 0.000000 0.000000 0.000000 0.080360
#
#
# Mechanical properties :
#
#
# Convention : Reuss Voigt Hill
#
# Bulk Modulus (GPa) = 60.58965 62.70167 61.64566
# Shear Modulus (GPa) = 22.19527 24.98765 23.59146
#
# Velocity S-wave (km/s) = 3.38096 3.58733 3.48567
# Velocity P-wave (km/s) = 6.81510 7.03213 6.92446
#
# Compressibility (1/GPa) = 0.01650447
#
# Stress axis : x y z
#
# Youngs Moduli (GPa) = 78.77437 55.54645 72.37350
#
# Poissons Ratio (x) = 0.26784 0.30688
# Poissons Ratio (y) = 0.37984 0.35774
# Poissons Ratio (z) = 0.33402 0.27457
#
# Static dielectric constant tensor:
#      x y z
#    x 3.835920 0.000000 0.000000 
#    y 0.000000 3.215170 0.000000 
#    z 0.000000 0.000000 3.594570 
# 
# 
# High freq. dielectric constant tensor:
#      x y z
#    x 1.774110 0.000000 0.000000 
#    y 0.000000 1.723410 0.000000 
#    z 0.000000 0.000000 1.764460 
# 
# From -- ./inp_files/39729.got.cif
#   From: 2010.03.12/outbox.cif.g09.slc.cpg/sg74_20_cif.got.tgz:39729.got - 2010.04.16 15:46:19.
