data_PCOD8299436
_publ_section_title
;
Structure prediction by ZEFSAII (Michael W. Deem and Ramdas Pophale) SiO2 
 PCOD8299436
Probable space group: I M M A
;
_chemical_formula_sum "Si O2"
_cell_formula_units_Z 80
_cell_length_a 8.906357
_cell_length_b 28.945779
_cell_length_c 15.459970
_cell_angle_alpha 90.000000
_cell_angle_beta 90.000000
_cell_angle_gamma 90.000000
_cell_volume 3985.602550
_symmetry_space_group_name_H-M "I M M A"
_symmetry_group_IT_number 74
_symmetry_cell_setting 'orthorhombic'
loop_
_space_group_symop_operation_xyz
x,y,z
-x,1/2-y,z
x,-y,-z
-x,1/2+y,-z
-x,-y,-z
x,1/2+y,-z
-x,y,z
x,1/2-y,z
1/2+x,1/2+y,1/2+z
1/2-x,-y,1/2+z
1/2+x,1/2-y,1/2-z
1/2-x,y,1/2-z
1/2-x,1/2-y,1/2-z
1/2+x,y,1/2-z
1/2-x,1/2+y,1/2+z
1/2+x,-y,1/2+z
loop_
_atom_site_type_symbol
_atom_site_label
_atom_site_fract_x
_atom_site_fract_y
_atom_site_fract_z
Si Si1 0.334984 0.802410 0.170621
Si Si2 0.823699 0.935257 0.336731
Si Si3 0.823919 0.198582 0.007615
Si Si4 0.833025 0.021509 0.093820
Si Si5 0.175729 0.393232 0.478202
O O1 0.500000 0.826138 0.151845
O O2 0.368495 0.750000 0.196702
O O3 0.250000 0.827610 0.250000
O O4 0.223016 0.804751 0.091356
O O5 0.750000 0.913454 0.250000
O O6 0.782714 0.903399 0.420472
O O7 0.000000 0.938835 0.324461
O O8 0.761039 0.987144 0.346211
O O9 0.781764 0.250000 0.044179
O O10 0.734050 0.157133 0.053754
O O11 0.000000 0.189710 0.016554
O O12 0.000000 0.028294 0.132602
O O13 0.751190 0.070674 0.087075
O O14 0.843347 0.000000 0.000000
O O15 0.000000 0.396496 0.463785
#
# Coordination Sequence:
#
# PCOD8299436 Si02
#       5
#    16  16  16  16  16
#     4   9  16  26  39  53  71  99 137 181 228 273
#     4  10  20  33  50  73  99 126 158 197 240 287
#     4  10  20  32  45  62  86 118 158 202 242 280
#     4   9  17  31  51  72  95 124 156 192 238 291
#     4  10  20  33  49  69  95 128 164 201 242 289
#
# _framework density 20.072247999999998
#
# number of rings (size 3 to 8) (size 9 to 14) (size 15 to 20)
#    0.000    2.400    0.000    3.000    0.000    9.200 
#    0.000    2.000    0.000    0.000    0.000    0.000 
#    0.000    0.800    0.000    3.000    0.000    4.600 
#
# Total GULP energy -495683.309022 kJ/mol
# GULP energy per Si atom -12392.082726 kJ/mol
# Density = 2.002656 g / cm^3
# Si number density = 20.072248 Si / 1000 Ang^3
#
#
#
# Elastic Constant Matrix: (Units=GPa)
#
#
# Indices 1 2 3 4 5 6 
#
# 1 114.4014 56.8289 10.9056 0.0002 0.0000 0.0000
# 2 56.8289 149.8331 9.1326 0.0006 0.0001 0.0001
# 3 10.9056 9.1326 15.3693 0.0026 0.0002 0.0001
# 4 0.0002 0.0006 0.0026 -11.1070 0.0001 0.0002
# 5 0.0000 0.0001 0.0002 0.0001 21.7300 0.0002
# 6 0.0000 0.0001 0.0001 0.0002 0.0002 25.4752
#
#
#
# Elastic Compliance Matrix: (Units=1/GPa)
#
#
# Indices 1 2 3 4 5 6 
#
# 1 0.011222 -0.003913 -0.005638 -0.000001 0.000000 0.000000
# 2 -0.003913 0.008289 -0.002149 0.000000 0.000000 0.000000
# 3 -0.005638 -0.002149 0.070343 0.000016 -0.000001 0.000000
# 4 -0.000001 0.000000 0.000016 -0.090033 0.000000 0.000001
# 5 0.000000 0.000000 -0.000001 0.000000 0.046019 0.000000
# 6 0.000000 0.000000 0.000000 0.000001 0.000000 0.039254
#
#
# Mechanical properties :
#
#
# Convention : Reuss Voigt Hill
#
# Bulk Modulus (GPa) = 15.04795 48.14865 31.59830
# Shear Modulus (GPa) = 38.27169 20.73543 29.50356
#
# Velocity S-wave (km/s) = 4.37131 3.21758 3.83805
# Velocity P-wave (km/s) = 5.74378 6.15171 5.95124
#
# Compressibility (1/GPa) = 0.06645423
#
# Stress axis : x y z
#
# Youngs Moduli (GPa) = 89.10861 120.64018 14.21614
#
# Poissons Ratio (x) = 0.47203 0.08015
# Poissons Ratio (y) = 0.34866 0.03055
# Poissons Ratio (z) = 0.50239 0.25927
#
# Static dielectric constant tensor:
#      x y z
#    x 3.988820 0.000000 0.000000 
#    y 0.000000 4.063310 0.000000 
#    z 0.000000 0.000000 3.110470 
# 
# 
# High freq. dielectric constant tensor:
#      x y z
#    x 1.801210 0.000000 0.000000 
#    y 0.000000 1.795340 0.000000 
#    z 0.000000 0.000000 1.710220 
# 
# From -- ./inp_files/39970.got.cif
#   From: 2010.03.12/outbox.cif.g09.slc.cpg/sg74_20_cif.got.tgz:39970.got - 2010.04.16 15:46:19.
