data_PCOD8299666
_publ_section_title
;
Structure prediction by ZEFSAII (Michael W. Deem and Ramdas Pophale) SiO2 
 PCOD8299666
Probable space group: I M M A
;
_chemical_formula_sum "Si O2"
_cell_formula_units_Z 80
_cell_length_a 17.501918
_cell_length_b 8.895669
_cell_length_c 27.711677
_cell_angle_alpha 90.000000
_cell_angle_beta 90.000000
_cell_angle_gamma 90.000000
_cell_volume 4314.466169
_symmetry_space_group_name_H-M "I M M A"
_symmetry_group_IT_number 74
_symmetry_cell_setting 'orthorhombic'
loop_
_space_group_symop_operation_xyz
x,y,z
-x,1/2-y,z
x,-y,-z
-x,1/2+y,-z
-x,-y,-z
x,1/2+y,-z
-x,y,z
x,1/2-y,z
1/2+x,1/2+y,1/2+z
1/2-x,-y,1/2+z
1/2+x,1/2-y,1/2-z
1/2-x,y,1/2-z
1/2-x,1/2-y,1/2-z
1/2+x,y,1/2-z
1/2-x,1/2+y,1/2+z
1/2+x,-y,1/2+z
loop_
_atom_site_type_symbol
_atom_site_label
_atom_site_fract_x
_atom_site_fract_y
_atom_site_fract_z
Si Si1 0.149264 0.576534 0.306387
Si Si2 0.305839 0.924347 0.359371
Si Si3 0.234797 0.926375 0.550566
Si Si4 0.088356 0.426001 0.212770
Si Si5 0.084846 0.077489 0.395792
O O1 0.133504 0.750000 0.294364
O O2 0.235908 0.548889 0.322791
O O3 0.135325 0.479755 0.259029
O O4 0.092330 0.524987 0.348591
O O5 0.317300 0.750000 0.371040
O O6 0.292066 0.009932 0.409402
O O7 0.381600 0.990445 0.334945
O O8 0.246979 0.750000 0.546418
O O9 0.147183 0.968663 0.564171
O O10 0.255622 0.000000 0.500000
O O11 0.101196 0.250000 0.205967
O O12 0.000000 0.467618 0.219729
O O13 0.097871 0.250000 0.379844
O O14 0.000000 0.053565 0.417652
#
# Coordination Sequence:
#
# PCOD8299666 Si02
#       5
#    16  16  16  16  16
#     4  10  20  33  51  77 107 140 178 215 251 297
#     4  10  21  37  56  78 104 135 174 217 258 304
#     4  10  20  35  55  77 102 134 173 217 263 310
#     4  11  23  36  52  77 108 140 173 210 255 308
#     4   9  18  32  49  72 105 143 179 214 254 301
#
# _framework density 18.542269999999998
#
# number of rings (size 3 to 8) (size 9 to 14) (size 15 to 20)
#    0.000    2.000    0.000    3.600    0.000   10.400 
#    0.000    0.000    0.000    0.600    0.000    0.000 
#    0.000    0.000    0.000    0.000    0.000    0.000 
#
# Total GULP energy -496164.517999 kJ/mol
# GULP energy per Si atom -12404.112950 kJ/mol
# Density = 1.850007 g / cm^3
# Si number density = 18.542270 Si / 1000 Ang^3
#
#
#
# Elastic Constant Matrix: (Units=GPa)
#
#
# Indices 1 2 3 4 5 6 
#
# 1 38.7389 33.3173 35.8226 0.0000 0.0000 0.0000
# 2 33.3173 91.8920 54.6714 0.0000 0.0000 0.0000
# 3 35.8226 54.6714 124.7013 0.0000 0.0000 0.0000
# 4 0.0000 0.0000 0.0000 36.0461 0.0000 0.0000
# 5 0.0000 0.0000 0.0000 0.0000 8.0226 0.0000
# 6 0.0000 0.0000 0.0000 0.0000 0.0000 22.1754
#
#
#
# Elastic Compliance Matrix: (Units=1/GPa)
#
#
# Indices 1 2 3 4 5 6 
#
# 1 0.041873 -0.010858 -0.007269 0.000000 0.000000 0.000000
# 2 -0.010858 0.017538 -0.004570 0.000000 0.000000 0.000000
# 3 -0.007269 -0.004570 0.012111 0.000000 0.000000 0.000000
# 4 0.000000 0.000000 0.000000 0.027742 0.000000 0.000000
# 5 0.000000 0.000000 0.000000 0.000000 0.124648 0.000000
# 6 0.000000 0.000000 0.000000 0.000000 0.000000 0.045095
#
#
# Mechanical properties :
#
#
# Convention : Reuss Voigt Hill
#
# Bulk Modulus (GPa) = 38.27064 55.88387 47.07725
# Shear Modulus (GPa) = 15.47463 22.01687 18.74575
#
# Velocity S-wave (km/s) = 2.89201 3.44959 3.18303
# Velocity P-wave (km/s) = 5.64235 6.78751 6.24125
#
# Compressibility (1/GPa) = 0.02612969
#
# Stress axis : x y z
#
# Youngs Moduli (GPa) = 23.88155 57.01955 82.57123
#
# Poissons Ratio (x) = 0.61909 0.60018
# Poissons Ratio (y) = 0.25929 0.37734
# Poissons Ratio (z) = 0.17359 0.26057
#
# Static dielectric constant tensor:
#      x y z
#    x 3.324900 0.000000 0.000000 
#    y 0.000000 3.496640 0.000000 
#    z 0.000000 0.000000 3.280960 
# 
# 
# High freq. dielectric constant tensor:
#      x y z
#    x 1.704880 0.000000 0.000000 
#    y 0.000000 1.733280 0.000000 
#    z 0.000000 0.000000 1.708660 
# 
# From -- ./inp_files/63890.got.cif
#   From: 2010.03.12/outbox.cif.g09.slc.cpg/sg74_32_cif.got.tgz:63890.got - 2010.04.16 15:46:19.
