data_PCOD8299184
_publ_section_title
;
Structure prediction by ZEFSAII (Michael W. Deem and Ramdas Pophale) SiO2 
 PCOD8299184
Probable space group: I M M A
;
_chemical_formula_sum "Si O2"
_cell_formula_units_Z 96
_cell_length_a 16.695281
_cell_length_b 25.752685
_cell_length_c 11.765769
_cell_angle_alpha 90.000000
_cell_angle_beta 90.000000
_cell_angle_gamma 90.000000
_cell_volume 5058.672528
_symmetry_space_group_name_H-M "I M M A"
_symmetry_group_IT_number 74
_symmetry_cell_setting 'orthorhombic'
loop_
_space_group_symop_operation_xyz
x,y,z
-x,1/2-y,z
x,-y,-z
-x,1/2+y,-z
-x,-y,-z
x,1/2+y,-z
-x,y,z
x,1/2-y,z
1/2+x,1/2+y,1/2+z
1/2-x,-y,1/2+z
1/2+x,1/2-y,1/2-z
1/2-x,y,1/2-z
1/2-x,1/2-y,1/2-z
1/2+x,y,1/2-z
1/2-x,1/2+y,1/2+z
1/2+x,-y,1/2+z
loop_
_atom_site_type_symbol
_atom_site_label
_atom_site_fract_x
_atom_site_fract_y
_atom_site_fract_z
Si Si1 0.162779 0.392979 0.302352
Si Si2 0.904756 0.190995 0.166873
Si Si3 0.409733 0.026685 0.353269
Si Si4 0.341341 0.574394 0.262742
Si Si5 0.092455 0.886836 0.021708
Si Si6 0.907081 0.939358 0.483527
O O1 0.250000 0.405892 0.250000
O O2 0.137887 0.333050 0.279086
O O3 0.096118 0.427907 0.239795
O O4 0.153478 0.406413 0.435951
O O5 0.876190 0.250000 0.151722
O O6 0.000000 0.187429 0.179502
O O7 0.870052 0.157363 0.060151
O O8 0.500000 0.003725 0.349984
O O9 0.391434 0.053974 0.475242
O O10 0.347705 0.982168 0.320197
O O11 0.250000 0.588609 0.250000
O O12 0.374856 0.617304 0.350648
O O13 0.388978 0.577423 0.145159
O O14 0.000000 0.874563 0.024247
O O15 0.000000 0.927092 0.510400
O O16 0.888255 0.000000 0.500000
#
# Coordination Sequence:
#
# PCOD8299184 Si02
#       6
#    16  16  16  16  16  16
#     4  11  22  35  57  84 115 147 185 239 280 329
#     4   9  19  38  65  87 104 134 181 239 296 345
#     4  10  19  35  55  76 108 151 192 229 268 323
#     4  12  24  32  51  79 119 155 192 229 270 326
#     4   9  19  35  57  80 107 141 187 234 281 331
#     4  11  23  37  54  77 117 165 198 221 268 342
#
# _framework density 18.977312000000001
#
# number of rings (size 3 to 8) (size 9 to 14) (size 15 to 20)
#    0.000    1.667    1.667    5.000    4.667    1.667 
#    0.000    0.000    0.000    1.500    0.000    2.333 
#    0.000    0.000    0.000    0.000    0.000    0.000 
#
# Total GULP energy -595083.169811 kJ/mol
# GULP energy per Si atom -12397.566038 kJ/mol
# Density = 1.893412 g / cm^3
# Si number density = 18.977312 Si / 1000 Ang^3
#
#
#
# Elastic Constant Matrix: (Units=GPa)
#
#
# Indices 1 2 3 4 5 6 
#
# 1 52.8656 28.5968 41.5850 -0.0002 0.0000 0.0000
# 2 28.5968 87.6134 47.3667 0.0002 0.0000 0.0000
# 3 41.5850 47.3667 136.0244 0.0010 0.0002 0.0001
# 4 -0.0002 0.0002 0.0010 13.5781 0.0001 0.0000
# 5 0.0000 0.0000 0.0002 0.0001 28.9767 0.0000
# 6 0.0000 0.0000 0.0001 0.0000 0.0000 18.1268
#
#
#
# Elastic Compliance Matrix: (Units=1/GPa)
#
#
# Indices 1 2 3 4 5 6 
#
# 1 0.026773 -0.005314 -0.006335 0.000001 0.000000 0.000000
# 2 -0.005314 0.015116 -0.003639 0.000000 0.000000 0.000000
# 3 -0.006335 -0.003639 0.010555 -0.000001 0.000000 0.000000
# 4 0.000001 0.000000 -0.000001 0.073648 0.000000 0.000000
# 5 0.000000 0.000000 0.000000 0.000000 0.034510 0.000000
# 6 0.000000 0.000000 0.000000 0.000000 0.000000 0.055167
#
#
# Mechanical properties :
#
#
# Convention : Reuss Voigt Hill
#
# Bulk Modulus (GPa) = 45.72666 56.84447 51.28556
# Shear Modulus (GPa) = 19.71336 22.73331 21.22334
#
# Velocity S-wave (km/s) = 3.22652 3.46485 3.34781
# Velocity P-wave (km/s) = 6.16671 6.78424 6.48283
#
# Compressibility (1/GPa) = 0.02186908
#
# Stress axis : x y z
#
# Youngs Moduli (GPa) = 37.35055 66.15672 94.73828
#
# Poissons Ratio (x) = 0.35156 0.60013
# Poissons Ratio (y) = 0.19848 0.34475
# Poissons Ratio (z) = 0.23660 0.24074
#
# Static dielectric constant tensor:
#      x y z
#    x 2.588410 0.000000 0.000000 
#    y 0.000000 3.340510 0.000000 
#    z 0.000000 0.000000 3.834600 
# 
# 
# High freq. dielectric constant tensor:
#      x y z
#    x 1.733690 0.000000 0.000000 
#    y 0.000000 1.695900 0.000000 
#    z 0.000000 0.000000 1.744440 
# 
# From -- ./inp_files/22644.got.cif
#   From: 2010.03.12/outbox.cif.g09.slc.cpg/sg74_12_cif.got.tgz:22644.got - 2010.04.16 15:46:19.
