data_PCOD8299218
_publ_section_title
;
Structure prediction by ZEFSAII (Michael W. Deem and Ramdas Pophale) SiO2 
 PCOD8299218
Probable space group: I M M A
;
_chemical_formula_sum "Si O2"
_cell_formula_units_Z 104
_cell_length_a 25.686502
_cell_length_b 9.146495
_cell_length_c 21.960537
_cell_angle_alpha 90.000000
_cell_angle_beta 90.000000
_cell_angle_gamma 90.000000
_cell_volume 5159.440672
_symmetry_space_group_name_H-M "I M M A"
_symmetry_group_IT_number 74
_symmetry_cell_setting 'orthorhombic'
loop_
_space_group_symop_operation_xyz
x,y,z
-x,1/2-y,z
x,-y,-z
-x,1/2+y,-z
-x,-y,-z
x,1/2+y,-z
-x,y,z
x,1/2-y,z
1/2+x,1/2+y,1/2+z
1/2-x,-y,1/2+z
1/2+x,1/2-y,1/2-z
1/2-x,y,1/2-z
1/2-x,1/2-y,1/2-z
1/2+x,y,1/2-z
1/2-x,1/2+y,1/2+z
1/2+x,-y,1/2+z
loop_
_atom_site_type_symbol
_atom_site_label
_atom_site_fract_x
_atom_site_fract_y
_atom_site_fract_z
Si Si1 0.942828 0.917474 0.937553
Si Si2 0.274311 0.919686 0.683509
Si Si3 0.000000 0.912582 0.440438
Si Si4 0.706867 0.422973 0.062927
Si Si5 0.442709 0.420135 0.771538
Si Si6 0.889396 0.919083 0.385338
Si Si7 0.878185 0.080433 0.843802
O O1 0.927603 0.750000 0.948671
O O2 0.000000 0.929841 0.905438
O O3 0.895379 0.990888 0.902317
O O4 0.946679 0.000000 0.000000
O O5 0.289514 0.750000 0.678816
O O6 0.250000 0.952890 0.750000
O O7 0.239108 0.962926 0.624392
O O8 0.324526 0.020109 0.681635
O O9 0.948803 0.947918 0.402901
O O10 0.000000 0.750000 0.463717
O O11 0.000000 0.000000 0.500000
O O12 0.706278 0.250000 0.051404
O O13 0.648485 0.479354 0.075427
O O14 0.727777 0.500000 0.000000
O O15 0.500000 0.494803 0.780400
O O16 0.449441 0.250000 0.786736
O O17 0.394643 0.473257 0.814983
O O18 0.424668 0.446991 0.703271
O O19 0.871470 0.750000 0.393079
O O20 0.871326 0.250000 0.859946
#
# Coordination Sequence:
#
# PCOD8299218 Si02
#       7
#    16  16   8  16  16  16  16
#     4  10  21  38  60  86 120 160 199 241 293 357
#     4  10  23  44  65  85 116 158 204 259 315 364
#     4  10  20  32  50  76 108 146 185 224 271 324
#     4  11  24  41  62  87 116 153 196 246 303 359
#     4   9  17  32  55  85 121 157 193 234 285 342
#     4  10  19  35  58  83 114 153 193 235 283 336
#     4  11  22  35  59  91 120 153 195 245 298 362
#
# _framework density 20.157222999999998
#
# number of rings (size 3 to 8) (size 9 to 14) (size 15 to 20)
#    0.000    1.846    0.769    3.231    0.000    5.538 
#    0.000    2.308    0.000    1.846    0.000    0.000 
#    0.000    0.000    0.000    0.000    0.000    0.000 
#
# Total GULP energy -644317.728407 kJ/mol
# GULP energy per Si atom -12390.725546 kJ/mol
# Density = 2.011134 g / cm^3
# Si number density = 20.157223 Si / 1000 Ang^3
#
#
#
# Elastic Constant Matrix: (Units=GPa)
#
#
# Indices 1 2 3 4 5 6 
#
# 1 85.3061 52.6180 39.5026 0.0000 0.0000 0.0000
# 2 52.6180 103.9382 52.9041 0.0000 0.0000 0.0000
# 3 39.5026 52.9041 113.6958 0.0000 0.0000 0.0000
# 4 0.0000 0.0000 0.0000 28.9995 0.0000 0.0000
# 5 0.0000 0.0000 0.0000 0.0000 16.5187 0.0000
# 6 0.0000 0.0000 0.0000 0.0000 0.0000 32.5148
#
#
#
# Elastic Compliance Matrix: (Units=1/GPa)
#
#
# Indices 1 2 3 4 5 6 
#
# 1 0.017604 -0.007599 -0.002581 0.000000 0.000000 0.000000
# 2 -0.007599 0.015887 -0.004752 0.000000 0.000000 0.000000
# 3 -0.002581 -0.004752 0.011903 0.000000 0.000000 0.000000
# 4 0.000000 0.000000 0.000000 0.034483 0.000000 0.000000
# 5 0.000000 0.000000 0.000000 0.000000 0.060538 0.000000
# 6 0.000000 0.000000 0.000000 0.000000 0.000000 0.030755
#
#
# Mechanical properties :
#
#
# Convention : Reuss Voigt Hill
#
# Bulk Modulus (GPa) = 64.38592 65.88771 65.13682
# Shear Modulus (GPa) = 24.24703 26.13430 25.19067
#
# Velocity S-wave (km/s) = 3.47204 3.60463 3.53896
# Velocity P-wave (km/s) = 6.93431 7.07689 7.00596
#
# Compressibility (1/GPa) = 0.01553135
#
# Stress axis : x y z
#
# Youngs Moduli (GPa) = 56.80379 62.94594 84.00993
#
# Poissons Ratio (x) = 0.47829 0.21682
# Poissons Ratio (y) = 0.43162 0.39923
# Poissons Ratio (z) = 0.14660 0.29913
#
# Static dielectric constant tensor:
#      x y z
#    x 3.672790 0.000000 0.000000 
#    y 0.000000 3.547230 0.000000 
#    z 0.000000 0.000000 3.778270 
# 
# 
# High freq. dielectric constant tensor:
#      x y z
#    x 1.786280 0.000000 0.000000 
#    y 0.000000 1.771480 0.000000 
#    z 0.000000 0.000000 1.802600 
# 
# From -- ./inp_files/55249.got.cif
#   From: 2010.03.12/outbox.cif.g09.slc.cpg/sg74_28_cif.got.tgz:55249.got - 2010.04.16 15:46:19.
