data_PCOD8299519
_publ_section_title
;
Structure prediction by ZEFSAII (Michael W. Deem and Ramdas Pophale) SiO2 
 PCOD8299519
Probable space group: I M M A
;
_chemical_formula_sum "Si O2"
_cell_formula_units_Z 64
_cell_length_a 8.709969
_cell_length_b 41.416108
_cell_length_c 9.825399
_cell_angle_alpha 90.000000
_cell_angle_beta 90.000000
_cell_angle_gamma 90.000000
_cell_volume 3544.345822
_symmetry_space_group_name_H-M "I M M A"
_symmetry_group_IT_number 74
_symmetry_cell_setting 'orthorhombic'
loop_
_space_group_symop_operation_xyz
x,y,z
-x,1/2-y,z
x,-y,-z
-x,1/2+y,-z
-x,-y,-z
x,1/2+y,-z
-x,y,z
x,1/2-y,z
1/2+x,1/2+y,1/2+z
1/2-x,-y,1/2+z
1/2+x,1/2-y,1/2-z
1/2-x,y,1/2-z
1/2-x,1/2-y,1/2-z
1/2+x,y,1/2-z
1/2-x,1/2+y,1/2+z
1/2+x,-y,1/2+z
loop_
_atom_site_type_symbol
_atom_site_label
_atom_site_fract_x
_atom_site_fract_y
_atom_site_fract_z
Si Si1 0.819004 0.349047 0.600418
Si Si2 0.179808 0.215076 0.898711
Si Si3 0.681907 0.095399 0.104303
Si Si4 0.181150 0.472495 0.105677
O O1 0.750000 0.354113 0.750000
O O2 0.759316 0.315685 0.528998
O O3 0.764547 0.378292 0.505473
O O4 0.000000 0.347586 0.612872
O O5 0.211197 0.250000 0.971930
O O6 0.250000 0.216886 0.750000
O O7 0.000000 0.208369 0.887962
O O8 0.500000 0.093292 0.116770
O O9 0.750000 0.105221 0.250000
O O10 0.746931 0.061083 0.054665
O O11 0.250000 0.482857 0.250000
O O12 0.000000 0.468227 0.119431
O O13 0.227772 0.500000 0.000000
#
# Coordination Sequence:
#
# PCOD8299519 Si02
#       4
#    16  16  16  16
#     4  10  20  32  49  75 102 130 166 206 248 293
#     4   9  16  26  43  68  97 129 163 201 247 294
#     4  10  21  36  54  75 100 133 169 203 245 296
#     4  10  21  36  55  78 102 131 166 203 246 294
#
# _framework density 18.056927999999999
#
# number of rings (size 3 to 8) (size 9 to 14) (size 15 to 20)
#    0.000    2.250    0.000    6.000    0.000    8.500 
#    0.000    5.000    0.000    0.750    0.000    0.000 
#    0.000    0.000    0.000    0.000    0.000    0.000 
#
# Total GULP energy -396630.845132 kJ/mol
# GULP energy per Si atom -12394.713910 kJ/mol
# Density = 1.801583 g / cm^3
# Si number density = 18.056928 Si / 1000 Ang^3
#
#
#
# Elastic Constant Matrix: (Units=GPa)
#
#
# Indices 1 2 3 4 5 6 
#
# 1 91.5476 66.8216 39.7477 -0.0006 0.0002 0.0034
# 2 66.8216 191.4477 93.2099 -0.0058 -0.0002 0.0042
# 3 39.7477 93.2099 76.7878 -0.0024 -0.0001 0.0115
# 4 -0.0006 -0.0058 -0.0024 27.0325 0.0000 0.0027
# 5 0.0002 -0.0002 -0.0001 0.0000 22.2106 -0.0009
# 6 0.0034 0.0042 0.0115 0.0027 -0.0009 -2.0829
#
#
#
# Elastic Compliance Matrix: (Units=1/GPa)
#
#
# Indices 1 2 3 4 5 6 
#
# 1 0.015022 -0.003563 -0.003451 -0.000001 0.000000 -0.000002
# 2 -0.003563 0.013616 -0.014684 0.000002 0.000000 -0.000059
# 3 -0.003451 -0.014684 0.032633 0.000000 0.000000 0.000145
# 4 -0.000001 0.000002 0.000000 0.036992 0.000000 0.000048
# 5 0.000000 0.000000 0.000000 0.000000 0.045023 -0.000020
# 6 -0.000002 -0.000059 0.000145 0.000048 -0.000020 -0.480101
#
#
# Mechanical properties :
#
#
# Convention : Reuss Voigt Hill
#
# Bulk Modulus (GPa) = 55.94016 84.37130 70.15573
# Shear Modulus (GPa) = -17.39371 20.09897 1.35263
#
# Velocity S-wave (km/s) = -3.10703 3.33992 0.86644
# Velocity P-wave (km/s) = 4.26329 7.85494 6.31964
#
# Compressibility (1/GPa) = 0.01787625
#
# Stress axis : x y z
#
# Youngs Moduli (GPa) = 66.56744 73.44299 30.64390
#
# Poissons Ratio (x) = 0.26170 0.10574
# Poissons Ratio (y) = 0.23720 0.44996
# Poissons Ratio (z) = 0.22971 1.07840
#
# Static dielectric constant tensor:
#      x y z
#    x 3.488290 0.000000 0.000000 
#    y 0.000000 4.082020 0.000000 
#    z 0.000000 0.000000 3.070180 
# 
# 
# High freq. dielectric constant tensor:
#      x y z
#    x 1.719110 0.000000 0.000000 
#    y 0.000000 1.722510 0.000000 
#    z 0.000000 0.000000 1.657500 
# 
# From -- ./inp_files/17558.got.cif
#   From: 2010.03.12/outbox.cif.g09.slc.cpg/sg74_9_cif.got.tgz:17558.got - 2010.04.16 15:46:19.
