data_PCOD8299087
_publ_section_title
;
Structure prediction by ZEFSAII (Michael W. Deem and Ramdas Pophale) SiO2 
 PCOD8299087
Probable space group: I M M A
;
_chemical_formula_sum "Si O2"
_cell_formula_units_Z 80
_cell_length_a 16.783906
_cell_length_b 22.679147
_cell_length_c 11.487343
_cell_angle_alpha 90.000000
_cell_angle_beta 90.000000
_cell_angle_gamma 90.000000
_cell_volume 4372.595902
_symmetry_space_group_name_H-M "I M M A"
_symmetry_group_IT_number 74
_symmetry_cell_setting 'orthorhombic'
loop_
_space_group_symop_operation_xyz
x,y,z
-x,1/2-y,z
x,-y,-z
-x,1/2+y,-z
-x,-y,-z
x,1/2+y,-z
-x,y,z
x,1/2-y,z
1/2+x,1/2+y,1/2+z
1/2-x,-y,1/2+z
1/2+x,1/2-y,1/2-z
1/2-x,y,1/2-z
1/2-x,1/2-y,1/2-z
1/2+x,y,1/2-z
1/2-x,1/2+y,1/2+z
1/2+x,-y,1/2+z
loop_
_atom_site_type_symbol
_atom_site_label
_atom_site_fract_x
_atom_site_fract_y
_atom_site_fract_z
Si Si1 0.804949 0.059437 0.551559
Si Si2 0.407757 0.318164 0.539185
Si Si3 0.088547 0.396636 0.744633
Si Si4 0.793071 0.122969 0.137036
Si Si5 0.647103 0.499610 0.629720
O O1 0.859200 0.103118 0.628140
O O2 0.775650 0.102137 0.449965
O O3 0.848343 0.000000 0.500000
O O4 0.731583 0.034846 0.628166
O O5 0.500000 0.333915 0.511179
O O6 0.397820 0.250000 0.570395
O O7 0.377510 0.354799 0.652172
O O8 0.353692 0.332343 0.426437
O O9 0.086804 0.464386 0.788503
O O10 0.000000 0.375897 0.711358
O O11 0.750000 0.152357 0.250000
O O12 0.842879 0.065505 0.179021
O O13 0.610751 0.500000 0.500000
#
# Coordination Sequence:
#
# PCOD8299087 Si02
#       5
#    16  16  16  16  16
#     4   9  18  33  52  76 111 137 164 213 273 317
#     4  10  22  38  54  77 108 141 183 235 274 303
#     4  11  20  32  53  78 108 143 175 217 276 330
#     4  10  19  34  56  79 102 142 182 215 268 326
#     4   9  16  30  52  75 104 134 166 214 268 324
#
# _framework density 18.295767999999999
#
# number of rings (size 3 to 8) (size 9 to 14) (size 15 to 20)
#    0.000    2.600    4.000    3.000    0.000    2.000 
#    0.000    3.000    0.000    0.000    0.000    2.800 
#    0.000    0.000    0.000    0.000    0.000    0.000 
#
# Total GULP energy -495662.461973 kJ/mol
# GULP energy per Si atom -12391.561549 kJ/mol
# Density = 1.825413 g / cm^3
# Si number density = 18.295768 Si / 1000 Ang^3
#
#
#
# Elastic Constant Matrix: (Units=GPa)
#
#
# Indices 1 2 3 4 5 6 
#
# 1 51.5540 27.7987 44.4153 0.0000 0.0000 0.0000
# 2 27.7987 74.2943 35.9113 0.0000 0.0000 0.0000
# 3 44.4153 35.9113 100.0777 0.0000 0.0000 0.0000
# 4 0.0000 0.0000 0.0000 17.1848 0.0000 0.0000
# 5 0.0000 0.0000 0.0000 0.0000 31.2332 0.0000
# 6 0.0000 0.0000 0.0000 0.0000 0.0000 17.0098
#
#
#
# Elastic Compliance Matrix: (Units=1/GPa)
#
#
# Indices 1 2 3 4 5 6 
#
# 1 0.033840 -0.006536 -0.012673 0.000000 0.000000 0.000000
# 2 -0.006536 0.017547 -0.003396 0.000000 0.000000 0.000000
# 3 -0.012673 -0.003396 0.016835 0.000000 0.000000 0.000000
# 4 0.000000 0.000000 0.000000 0.058191 0.000000 0.000000
# 5 0.000000 0.000000 0.000000 0.000000 0.032017 0.000000
# 6 0.000000 0.000000 0.000000 0.000000 0.000000 0.058790
#
#
# Mechanical properties :
#
#
# Convention : Reuss Voigt Hill
#
# Bulk Modulus (GPa) = 43.45514 49.13073 46.29293
# Shear Modulus (GPa) = 18.51168 20.93892 19.72530
#
# Velocity S-wave (km/s) = 3.18433 3.38667 3.28706
# Velocity P-wave (km/s) = 6.10926 6.49651 6.30585
#
# Compressibility (1/GPa) = 0.02301224
#
# Stress axis : x y z
#
# Youngs Moduli (GPa) = 29.55118 56.98993 59.39985
#
# Poissons Ratio (x) = 0.37249 0.75277
# Poissons Ratio (y) = 0.19315 0.20170
# Poissons Ratio (z) = 0.37450 0.19352
#
# Static dielectric constant tensor:
#      x y z
#    x 3.157620 0.000000 0.000000 
#    y 0.000000 3.196310 0.000000 
#    z 0.000000 0.000000 3.353970 
# 
# 
# High freq. dielectric constant tensor:
#      x y z
#    x 1.682760 0.000000 0.000000 
#    y 0.000000 1.683070 0.000000 
#    z 0.000000 0.000000 1.704640 
# 
# From -- ./inp_files/20521.got.cif
#   From: 2010.03.12/outbox.cif.g09.slc.cpg/sg74_11_cif.got.tgz:20521.got - 2010.04.16 15:46:19.
