data_PCOD8299980
_publ_section_title
;
Structure prediction by ZEFSAII (Michael W. Deem and Ramdas Pophale) SiO2 
 PCOD8299980
Probable space group: I M M A
;
_chemical_formula_sum "Si O2"
_cell_formula_units_Z 128
_cell_length_a 23.053937
_cell_length_b 23.208640
_cell_length_c 11.804506
_cell_angle_alpha 90.000000
_cell_angle_beta 90.000000
_cell_angle_gamma 90.000000
_cell_volume 6316.007126
_symmetry_space_group_name_H-M "I M M A"
_symmetry_group_IT_number 74
_symmetry_cell_setting 'orthorhombic'
loop_
_space_group_symop_operation_xyz
x,y,z
-x,1/2-y,z
x,-y,-z
-x,1/2+y,-z
-x,-y,-z
x,1/2+y,-z
-x,y,z
x,1/2-y,z
1/2+x,1/2+y,1/2+z
1/2-x,-y,1/2+z
1/2+x,1/2-y,1/2-z
1/2-x,y,1/2-z
1/2-x,1/2-y,1/2-z
1/2+x,y,1/2-z
1/2-x,1/2+y,1/2+z
1/2+x,-y,1/2+z
loop_
_atom_site_type_symbol
_atom_site_label
_atom_site_fract_x
_atom_site_fract_y
_atom_site_fract_z
Si Si1 0.643678 0.887522 0.972008
Si Si2 0.808963 0.686564 0.199010
Si Si3 0.374348 0.418292 0.781054
Si Si4 0.862677 0.878311 0.880072
Si Si5 0.684815 0.033465 0.218689
Si Si6 0.565623 0.439037 0.559870
Si Si7 0.432841 0.682932 0.801676
Si Si8 0.257917 0.185717 0.461603
O O1 0.668166 0.943067 0.905739
O O2 0.596236 0.853007 0.901806
O O3 0.698382 0.845668 0.996541
O O4 0.610903 0.908754 0.086339
O O5 0.822651 0.750000 0.250887
O O6 0.750000 0.661233 0.250000
O O7 0.859753 0.643837 0.230949
O O8 0.801750 0.691602 0.065643
O O9 0.322360 0.464614 0.776505
O O10 0.424787 0.441788 0.696940
O O11 0.858525 0.937158 0.808511
O O12 0.905189 0.833227 0.819071
O O13 0.797447 0.851397 0.875994
O O14 0.889165 0.893843 0.003130
O O15 0.750000 0.048991 0.250000
O O16 0.576040 0.500000 0.500000
O O17 0.500000 0.418217 0.538187
O O18 0.500000 0.666400 0.798096
O O19 0.423005 0.750000 0.825461
O O20 0.243708 0.250000 0.413727
#
# Coordination Sequence:
#
# PCOD8299980 Si02
#       8
#    16  16  16  16  16  16  16  16
#     4  11  24  39  60  95 129 169 211 259 315 386
#     4  10  20  34  55  86 120 161 198 231 299 381
#     4  12  23  40  62  90 127 168 207 258 318 377
#     4  11  21  40  65  94 124 160 209 268 317 385
#     4  11  23  38  59  92 131 165 205 254 316 383
#     4  11  24  43  66  91 123 166 220 272 325 385
#     4  10  23  43  66  89 121 170 220 268 318 368
#     4  11  21  35  59  93 129 164 199 251 315 384
#
# _framework density 20.265968000000001
#
# number of rings (size 3 to 8) (size 9 to 14) (size 15 to 20)
#    0.000    1.125    5.000    1.875    0.000    1.000 
#    2.250    1.875    0.000    3.375    0.000    0.000 
#    0.000    0.000    0.000    0.000    0.000    0.000 
#
# Total GULP energy -793304.272097 kJ/mol
# GULP energy per Si atom -12395.379252 kJ/mol
# Density = 2.021984 g / cm^3
# Si number density = 20.265968 Si / 1000 Ang^3
#
#
#
# Elastic Constant Matrix: (Units=GPa)
#
#
# Indices 1 2 3 4 5 6 
#
# 1 76.7052 26.0549 28.3959 0.0000 0.0000 0.0000
# 2 26.0549 92.1039 26.2703 0.0000 0.0000 0.0000
# 3 28.3959 26.2703 117.6403 0.0000 0.0000 0.0000
# 4 0.0000 0.0000 0.0000 23.9896 0.0000 0.0000
# 5 0.0000 0.0000 0.0000 0.0000 25.5136 0.0000
# 6 0.0000 0.0000 0.0000 0.0000 0.0000 24.1387
#
#
#
# Elastic Compliance Matrix: (Units=1/GPa)
#
#
# Indices 1 2 3 4 5 6 
#
# 1 0.015304 -0.003498 -0.002913 0.000000 0.000000 0.000000
# 2 -0.003498 0.012396 -0.001924 0.000000 0.000000 0.000000
# 3 -0.002913 -0.001924 0.009633 0.000000 0.000000 0.000000
# 4 0.000000 0.000000 0.000000 0.041685 0.000000 0.000000
# 5 0.000000 0.000000 0.000000 0.000000 0.039195 0.000000
# 6 0.000000 0.000000 0.000000 0.000000 0.000000 0.041427
#
#
# Mechanical properties :
#
#
# Convention : Reuss Voigt Hill
#
# Bulk Modulus (GPa) = 48.39617 49.76574 49.08095
# Shear Modulus (GPa) = 27.29316 28.44360 27.86838
#
# Velocity S-wave (km/s) = 3.67379 3.75042 3.71230
# Velocity P-wave (km/s) = 6.47518 6.58512 6.53038
#
# Compressibility (1/GPa) = 0.02066279
#
# Stress axis : x y z
#
# Youngs Moduli (GPa) = 65.34447 80.67373 103.80848
#
# Poissons Ratio (x) = 0.28223 0.30237
# Poissons Ratio (y) = 0.22860 0.19969
# Poissons Ratio (z) = 0.19033 0.15519
#
# Static dielectric constant tensor:
#      x y z
#    x 3.411050 0.000000 0.000000 
#    y 0.000000 3.780940 0.000000 
#    z 0.000000 0.000000 3.738560 
# 
# 
# High freq. dielectric constant tensor:
#      x y z
#    x 1.765710 0.000000 0.000000 
#    y 0.000000 1.802360 0.000000 
#    z 0.000000 0.000000 1.796260 
# 
# From -- ./inp_files/25590.got.cif
#   From: 2010.03.12/outbox.cif.g09.slc.cpg/sg74_13_cif.got.tgz:25590.got - 2010.04.16 15:46:19.
