data_PCOD8299120
_publ_section_title
;
Structure prediction by ZEFSAII (Michael W. Deem and Ramdas Pophale) SiO2 
 PCOD8299120
Probable space group: I M M A
;
_chemical_formula_sum "Si O2"
_cell_formula_units_Z 80
_cell_length_a 29.468951
_cell_length_b 15.898884
_cell_length_c 7.713755
_cell_angle_alpha 90.000000
_cell_angle_beta 90.000000
_cell_angle_gamma 90.000000
_cell_volume 3614.074978
_symmetry_space_group_name_H-M "I M M A"
_symmetry_group_IT_number 74
_symmetry_cell_setting 'orthorhombic'
loop_
_space_group_symop_operation_xyz
x,y,z
-x,1/2-y,z
x,-y,-z
-x,1/2+y,-z
-x,-y,-z
x,1/2+y,-z
-x,y,z
x,1/2-y,z
1/2+x,1/2+y,1/2+z
1/2-x,-y,1/2+z
1/2+x,1/2-y,1/2-z
1/2-x,y,1/2-z
1/2-x,1/2-y,1/2-z
1/2+x,y,1/2-z
1/2-x,1/2+y,1/2+z
1/2+x,-y,1/2+z
loop_
_atom_site_type_symbol
_atom_site_label
_atom_site_fract_x
_atom_site_fract_y
_atom_site_fract_z
Si Si1 0.618430 0.849020 0.710218
Si Si2 0.295619 0.075209 0.140425
Si Si3 0.889361 0.651038 0.179213
Si Si4 0.550413 0.849693 0.012122
Si Si5 0.204074 0.156118 0.690527
O O1 0.630976 0.750000 0.726964
O O2 0.662079 0.909585 0.731243
O O3 0.598050 0.868267 0.519340
O O4 0.580540 0.876991 0.848010
O O5 0.250000 0.065722 0.250000
O O6 0.296009 0.158052 0.018594
O O7 0.302107 0.000000 0.000000
O O8 0.885526 0.750000 0.216098
O O9 0.927337 0.614411 0.309951
O O10 0.840298 0.610401 0.229145
O O11 0.500000 0.888629 0.993691
O O12 0.547023 0.750000 0.019781
O O13 0.205843 0.250000 0.765857
O O14 0.250000 0.107017 0.750000
#
# Coordination Sequence:
#
# PCOD8299120 Si02
#       5
#    16  16  16  16  16
#     4  10  20  36  60  88 116 154 200 240 286 347
#     4  12  25  39  55  80 117 155 196 242 295 349
#     4   9  17  31  53  84 117 148 189 238 286 339
#     4   9  17  31  54  87 125 156 186 239 298 341
#     4  10  19  34  57  82 111 146 188 239 289 344
#
# _framework density 22.135677999999999
#
# number of rings (size 3 to 8) (size 9 to 14) (size 15 to 20)
#    0.000    2.000    2.000    2.400    0.000    4.000 
#    0.000    4.000    0.000    0.600    0.000    1.400 
#    0.000    0.000    0.000    0.000    0.000    0.000 
#
# Total GULP energy -495624.590825 kJ/mol
# GULP energy per Si atom -12390.614771 kJ/mol
# Density = 2.208530 g / cm^3
# Si number density = 22.135678 Si / 1000 Ang^3
#
#
#
# Elastic Constant Matrix: (Units=GPa)
#
#
# Indices 1 2 3 4 5 6 
#
# 1 199.6393 24.7402 92.6806 0.0000 0.0000 0.0000
# 2 24.7402 34.3620 19.3958 0.0000 0.0000 0.0000
# 3 92.6806 19.3958 187.5314 0.0000 0.0000 0.0000
# 4 0.0000 0.0000 0.0000 15.3943 0.0000 0.0000
# 5 0.0000 0.0000 0.0000 0.0000 39.2607 0.0000
# 6 0.0000 0.0000 0.0000 0.0000 0.0000 0.6008
#
#
#
# Elastic Compliance Matrix: (Units=1/GPa)
#
#
# Indices 1 2 3 4 5 6 
#
# 1 0.006815 -0.003192 -0.003038 0.000000 0.000000 0.000000
# 2 -0.003192 0.032401 -0.001774 0.000000 0.000000 0.000000
# 3 -0.003038 -0.001774 0.007017 0.000000 0.000000 0.000000
# 4 0.000000 0.000000 0.000000 0.064959 0.000000 0.000000
# 5 0.000000 0.000000 0.000000 0.000000 0.025471 0.000000
# 6 0.000000 0.000000 0.000000 0.000000 0.000000 1.664530
#
#
# Mechanical properties :
#
#
# Convention : Reuss Voigt Hill
#
# Bulk Modulus (GPa) = 33.08361 77.24065 55.16213
# Shear Modulus (GPa) = 2.73631 30.03223 16.38427
#
# Velocity S-wave (km/s) = 1.11303 3.68738 2.72357
# Velocity P-wave (km/s) = 4.07800 7.28691 5.90462
#
# Compressibility (1/GPa) = 0.03022644
#
# Stress axis : x y z
#
# Youngs Moduli (GPa) = 146.73725 30.86305 142.50585
#
# Poissons Ratio (x) = 0.09851 0.43292
# Poissons Ratio (y) = 0.46837 0.25276
# Poissons Ratio (z) = 0.44577 0.05474
#
# Static dielectric constant tensor:
#      x y z
#    x 4.295210 0.000000 0.000000 
#    y 0.000000 3.630790 0.000000 
#    z 0.000000 0.000000 4.166370 
# 
# 
# High freq. dielectric constant tensor:
#      x y z
#    x 1.868600 0.000000 0.000000 
#    y 0.000000 1.831330 0.000000 
#    z 0.000000 0.000000 1.880540 
# 
# From -- ./inp_files/14899.got.cif
#   From: 2010.03.12/outbox.cif.g09.slc.cpg/sg74_8_cif.got.tgz:14899.got - 2010.04.16 15:46:19.
