data_PCOD8299808
_publ_section_title
;
Structure prediction by ZEFSAII (Michael W. Deem and Ramdas Pophale) SiO2 
 PCOD8299808
Probable space group: I M M A
;
_chemical_formula_sum "Si O2"
_cell_formula_units_Z 96
_cell_length_a 9.129858
_cell_length_b 20.153925
_cell_length_c 28.113078
_cell_angle_alpha 90.000000
_cell_angle_beta 90.000000
_cell_angle_gamma 90.000000
_cell_volume 5172.875887
_symmetry_space_group_name_H-M "I M M A"
_symmetry_group_IT_number 74
_symmetry_cell_setting 'orthorhombic'
loop_
_space_group_symop_operation_xyz
x,y,z
-x,1/2-y,z
x,-y,-z
-x,1/2+y,-z
-x,-y,-z
x,1/2+y,-z
-x,y,z
x,1/2-y,z
1/2+x,1/2+y,1/2+z
1/2-x,-y,1/2+z
1/2+x,1/2-y,1/2-z
1/2-x,y,1/2-z
1/2-x,1/2-y,1/2-z
1/2+x,y,1/2-z
1/2-x,1/2+y,1/2+z
1/2+x,-y,1/2+z
loop_
_atom_site_type_symbol
_atom_site_label
_atom_site_fract_x
_atom_site_fract_y
_atom_site_fract_z
Si Si1 0.828466 0.826923 0.032460
Si Si2 0.173199 0.441338 0.364216
Si Si3 0.828261 0.824929 0.702110
Si Si4 0.168527 0.674236 0.371718
Si Si5 0.171950 0.061445 0.699811
Si Si6 0.673258 0.565457 0.971231
O O1 0.792859 0.750000 0.021999
O O2 0.766122 0.847882 0.083755
O O3 0.000000 0.841289 0.032203
O O4 0.751295 0.869963 0.992081
O O5 0.223385 0.372028 0.340721
O O6 0.234732 0.502183 0.333053
O O7 0.233752 0.444315 0.417766
O O8 0.000000 0.447307 0.366202
O O9 0.782622 0.750000 0.688572
O O10 0.750000 0.848763 0.750000
O O11 0.000000 0.831189 0.711303
O O12 0.199279 0.750000 0.357196
O O13 0.210021 0.630403 0.326165
O O14 0.000000 0.662636 0.386603
O O15 0.250000 0.059985 0.750000
O O16 0.000000 0.053151 0.708620
O O17 0.500000 0.577793 0.972852
O O18 0.718279 0.500000 0.000000
#
# Coordination Sequence:
#
# PCOD8299808 Si02
#       6
#    16  16  16  16  16  16
#     4  10  21  36  54  79 110 140 172 215 267 320
#     4   9  18  32  50  72  98 129 166 206 246 295
#     4   9  17  30  48  69  93 122 157 196 238 286
#     4   9  18  34  55  76 100 135 176 213 252 304
#     4  10  20  34  52  75 103 133 168 211 256 304
#     4  10  20  35  56  79 103 136 178 219 259 308
#
# _framework density 18.558343000000001
#
# number of rings (size 3 to 8) (size 9 to 14) (size 15 to 20)
#    0.000    2.500    0.000    2.000    0.000    5.667 
#    0.000    3.333    0.000    2.000    0.000    0.000 
#    0.000    0.000    0.000    0.000    0.000    0.000 
#
# Total GULP energy -595287.971177 kJ/mol
# GULP energy per Si atom -12401.832733 kJ/mol
# Density = 1.851610 g / cm^3
# Si number density = 18.558343 Si / 1000 Ang^3
#
#
#
# Elastic Constant Matrix: (Units=GPa)
#
#
# Indices 1 2 3 4 5 6 
#
# 1 45.3620 39.4396 48.7442 0.0000 0.0000 0.0000
# 2 39.4396 117.5205 95.3578 0.0000 0.0000 0.0000
# 3 48.7442 95.3578 186.1545 0.0000 0.0000 0.0000
# 4 0.0000 0.0000 0.0000 38.5957 0.0000 0.0000
# 5 0.0000 0.0000 0.0000 0.0000 31.3098 0.0000
# 6 0.0000 0.0000 0.0000 0.0000 0.0000 21.4954
#
#
#
# Elastic Compliance Matrix: (Units=1/GPa)
#
#
# Indices 1 2 3 4 5 6 
#
# 1 0.033842 -0.007131 -0.005209 0.000000 0.000000 0.000000
# 2 -0.007131 0.016064 -0.006362 0.000000 0.000000 0.000000
# 3 -0.005209 -0.006362 0.009995 0.000000 0.000000 0.000000
# 4 0.000000 0.000000 0.000000 0.025910 0.000000 0.000000
# 5 0.000000 0.000000 0.000000 0.000000 0.031939 0.000000
# 6 0.000000 0.000000 0.000000 0.000000 0.000000 0.046522
#
#
# Mechanical properties :
#
#
# Convention : Reuss Voigt Hill
#
# Bulk Modulus (GPa) = 44.44814 79.56892 62.00853
# Shear Modulus (GPa) = 23.90372 29.31319 26.60846
#
# Velocity S-wave (km/s) = 3.59281 3.97862 3.79063
# Velocity P-wave (km/s) = 6.41978 8.00462 7.25560
#
# Compressibility (1/GPa) = 0.02249813
#
# Stress axis : x y z
#
# Youngs Moduli (GPa) = 29.54934 62.25005 100.05470
#
# Poissons Ratio (x) = 0.44390 0.52114
# Poissons Ratio (y) = 0.21071 0.63652
# Poissons Ratio (z) = 0.15391 0.39602
#
# Static dielectric constant tensor:
#      x y z
#    x 3.186510 0.000000 0.000000 
#    y 0.000000 3.618580 0.000000 
#    z 0.000000 0.000000 3.500190 
# 
# 
# High freq. dielectric constant tensor:
#      x y z
#    x 1.694460 0.000000 0.000000 
#    y 0.000000 1.734000 0.000000 
#    z 0.000000 0.000000 1.722340 
# 
# From -- ./inp_files/64269.got.cif
#   From: 2010.03.12/outbox.cif.g09.slc.cpg/sg74_33_cif.got.tgz:64269.got - 2010.04.16 15:46:19.
