data_PCOD8299570
_publ_section_title
;
Structure prediction by ZEFSAII (Michael W. Deem and Ramdas Pophale) SiO2 
 PCOD8299570
Probable space group: I M M A
;
_chemical_formula_sum "Si O2"
_cell_formula_units_Z 56
_cell_length_a 19.284929
_cell_length_b 19.818141
_cell_length_c 7.122425
_cell_angle_alpha 90.000000
_cell_angle_beta 90.000000
_cell_angle_gamma 90.000000
_cell_volume 2722.129882
_symmetry_space_group_name_H-M "I M M A"
_symmetry_group_IT_number 74
_symmetry_cell_setting 'orthorhombic'
loop_
_space_group_symop_operation_xyz
x,y,z
-x,1/2-y,z
x,-y,-z
-x,1/2+y,-z
-x,-y,-z
x,1/2+y,-z
-x,y,z
x,1/2-y,z
1/2+x,1/2+y,1/2+z
1/2-x,-y,1/2+z
1/2+x,1/2-y,1/2-z
1/2-x,y,1/2-z
1/2-x,1/2-y,1/2-z
1/2+x,y,1/2-z
1/2-x,1/2+y,1/2+z
1/2+x,-y,1/2+z
loop_
_atom_site_type_symbol
_atom_site_label
_atom_site_fract_x
_atom_site_fract_y
_atom_site_fract_z
Si Si1 0.576797 0.034907 0.301208
Si Si2 0.759697 0.643292 0.464025
Si Si3 0.687261 0.000000 0.000000
Si Si4 0.363513 0.323923 0.265317
O O1 0.500000 0.018550 0.220654
O O2 0.582493 0.116503 0.309117
O O3 0.585473 0.000000 0.500000
O O4 0.637517 0.003059 0.178911
O O5 0.750000 0.667481 0.250000
O O6 0.760510 0.562310 0.480621
O O7 0.696990 0.672914 0.581718
O O8 0.831882 0.669403 0.554326
O O9 0.399509 0.250000 0.280448
#
# Coordination Sequence:
#
# PCOD8299570 Si02
#       4
#    16  16   8  16
#     4  10  21  38  58  79 108 145 189 234 275 323
#     4  10  20  32  54  80 113 146 176 223 282 331
#     4  10  21  32  56  84 109 142 184 228 278 328
#     4  10  22  36  52  81 114 144 186 226 273 340
#
# _framework density 20.572126999999998
#
# number of rings (size 3 to 8) (size 9 to 14) (size 15 to 20)
#    0.000    2.000    0.000    3.857   10.000    2.857 
#    0.000    0.000    0.000    0.000    0.000    8.000 
#    0.000    0.000    0.000    0.000    0.000    0.000 
#
# Total GULP energy -347091.203307 kJ/mol
# GULP energy per Si atom -12396.114404 kJ/mol
# Density = 2.052530 g / cm^3
# Si number density = 20.572127 Si / 1000 Ang^3
#
#
#
# Elastic Constant Matrix: (Units=GPa)
#
#
# Indices 1 2 3 4 5 6 
#
# 1 34.2553 2.9881 22.4463 0.0000 0.0000 0.0000
# 2 2.9881 136.2215 27.5265 0.0000 0.0000 0.0000
# 3 22.4463 27.5265 127.9668 0.0000 0.0000 0.0000
# 4 0.0000 0.0000 0.0000 15.6063 0.0000 0.0000
# 5 0.0000 0.0000 0.0000 0.0000 -39.3228 0.0000
# 6 0.0000 0.0000 0.0000 0.0000 0.0000 -10.3926
#
#
#
# Elastic Compliance Matrix: (Units=1/GPa)
#
#
# Indices 1 2 3 4 5 6 
#
# 1 0.033012 0.000466 -0.005891 0.000000 0.000000 0.000000
# 2 0.000466 0.007681 -0.001734 0.000000 0.000000 0.000000
# 3 -0.005891 -0.001734 0.009221 0.000000 0.000000 0.000000
# 4 0.000000 0.000000 0.000000 0.064077 0.000000 0.000000
# 5 0.000000 0.000000 0.000000 0.000000 -0.025431 0.000000
# 6 0.000000 0.000000 0.000000 0.000000 0.000000 -0.096222
#
#
# Mechanical properties :
#
#
# Convention : Reuss Voigt Hill
#
# Bulk Modulus (GPa) = 28.09255 44.92949 36.51102
# Shear Modulus (GPa) = 269.96457 9.54368 139.75413
#
# Velocity S-wave (km/s) = 11.46792 2.15620 8.25113
# Velocity P-wave (km/s) = 13.74904 5.29965 10.41927
#
# Compressibility (1/GPa) = 0.03559662
#
# Stress axis : x y z
#
# Youngs Moduli (GPa) = 30.29210 130.18866 108.45022
#
# Poissons Ratio (x) = -0.06070 0.63886
# Poissons Ratio (y) = -0.01412 0.18806
# Poissons Ratio (z) = 0.17844 0.22575
#
# Static dielectric constant tensor:
#      x y z
#    x 3.548060 0.000000 0.000000 
#    y 0.000000 3.923730 0.000000 
#    z 0.000000 0.000000 3.865950 
# 
# 
# High freq. dielectric constant tensor:
#      x y z
#    x 1.776060 0.000000 0.000000 
#    y 0.000000 1.814250 0.000000 
#    z 0.000000 0.000000 1.808020 
# 
# From -- ./inp_files/3517.got.cif
#   From: 2010.03.12/outbox.cif.g09.slc.cpg/sg74_2_cif.got.tgz:3517.got - 2010.04.16 15:46:19.
