data_PCOD8299964
_publ_section_title
;
Structure prediction by ZEFSAII (Michael W. Deem and Ramdas Pophale) SiO2 
 PCOD8299964
Probable space group: I M M A
;
_chemical_formula_sum "Si O2"
_cell_formula_units_Z 96
_cell_length_a 20.685581
_cell_length_b 14.373109
_cell_length_c 18.479422
_cell_angle_alpha 90.000000
_cell_angle_beta 90.000000
_cell_angle_gamma 90.000000
_cell_volume 5494.229872
_symmetry_space_group_name_H-M "I M M A"
_symmetry_group_IT_number 74
_symmetry_cell_setting 'orthorhombic'
loop_
_space_group_symop_operation_xyz
x,y,z
-x,1/2-y,z
x,-y,-z
-x,1/2+y,-z
-x,-y,-z
x,1/2+y,-z
-x,y,z
x,1/2-y,z
1/2+x,1/2+y,1/2+z
1/2-x,-y,1/2+z
1/2+x,1/2-y,1/2-z
1/2-x,y,1/2-z
1/2-x,1/2-y,1/2-z
1/2+x,y,1/2-z
1/2-x,1/2+y,1/2+z
1/2+x,-y,1/2+z
loop_
_atom_site_type_symbol
_atom_site_label
_atom_site_fract_x
_atom_site_fract_y
_atom_site_fract_z
Si Si1 0.819951 0.493354 0.777184
Si Si2 0.654128 0.150350 0.907433
Si Si3 0.159442 0.640425 0.654836
Si Si4 0.745700 0.012923 0.417282
Si Si5 0.072244 0.397456 0.467843
Si Si6 0.426433 0.642813 0.227946
O O1 0.750000 0.454641 0.750000
O O2 0.836083 0.586536 0.731399
O O3 0.815384 0.514417 0.863242
O O4 0.876349 0.417468 0.774409
O O5 0.686488 0.250000 0.887786
O O6 0.593122 0.129457 0.855590
O O7 0.706706 0.071301 0.896749
O O8 0.623992 0.161736 0.987129
O O9 0.165260 0.750000 0.670439
O O10 0.215388 0.608294 0.598177
O O11 0.091674 0.612379 0.616612
O O12 0.722465 0.000000 0.500000
O O13 0.078879 0.500000 0.500000
O O14 0.000000 0.358735 0.476150
O O15 0.500000 0.607032 0.238054
O O16 0.420847 0.750000 0.252613
#
# Coordination Sequence:
#
# PCOD8299964 Si02
#       6
#    16  16  16  16  16  16
#     4  10  21  37  54  77 107 143 181 226 275 322
#     4  11  19  31  50  77 111 144 175 212 262 322
#     4  11  21  35  52  75 107 146 188 226 265 313
#     4  11  21  37  53  77 104 138 182 229 274 320
#     4  11  20  32  51  76 113 154 185 216 257 316
#     4  10  20  34  55  82 110 142 177 217 271 329
#
# _framework density 17.472875999999999
#
# number of rings (size 3 to 8) (size 9 to 14) (size 15 to 20)
#    0.000    1.333    6.667    1.000    0.000    8.000 
#    0.000    0.000    0.000    0.500    0.000    0.000 
#    0.000    0.000    0.000    0.000    0.000    0.000 
#
# Total GULP energy -594813.921219 kJ/mol
# GULP energy per Si atom -12391.956692 kJ/mol
# Density = 1.743311 g / cm^3
# Si number density = 17.472876 Si / 1000 Ang^3
#
#
#
# Elastic Constant Matrix: (Units=GPa)
#
#
# Indices 1 2 3 4 5 6 
#
# 1 79.8149 51.6067 43.9535 0.0000 0.0000 0.0000
# 2 51.6067 107.7547 43.3578 0.0000 0.0000 0.0000
# 3 43.9535 43.3578 115.9218 0.0000 0.0000 0.0000
# 4 0.0000 0.0000 0.0000 13.8927 0.0000 0.0000
# 5 0.0000 0.0000 0.0000 0.0000 28.5554 0.0000
# 6 0.0000 0.0000 0.0000 0.0000 0.0000 6.5257
#
#
#
# Elastic Compliance Matrix: (Units=1/GPa)
#
#
# Indices 1 2 3 4 5 6 
#
# 1 0.020146 -0.007739 -0.004744 0.000000 0.000000 0.000000
# 2 -0.007739 0.013898 -0.002264 0.000000 0.000000 0.000000
# 3 -0.004744 -0.002264 0.011272 0.000000 0.000000 0.000000
# 4 0.000000 0.000000 0.000000 0.071980 0.000000 0.000000
# 5 0.000000 0.000000 0.000000 0.000000 0.035020 0.000000
# 6 0.000000 0.000000 0.000000 0.000000 0.000000 0.153240
#
#
# Mechanical properties :
#
#
# Convention : Reuss Voigt Hill
#
# Bulk Modulus (GPa) = 63.20501 64.59192 63.89847
# Shear Modulus (GPa) = 14.69195 20.76634 17.72914
#
# Velocity S-wave (km/s) = 2.90288 3.45119 3.18884
# Velocity P-wave (km/s) = 6.89110 7.27517 7.08574
#
# Compressibility (1/GPa) = 0.01582153
#
# Stress axis : x y z
#
# Youngs Moduli (GPa) = 49.63884 71.95382 88.71697
#
# Poissons Ratio (x) = 0.55689 0.42085
# Poissons Ratio (y) = 0.38418 0.20082
# Poissons Ratio (z) = 0.23547 0.16287
#
# Static dielectric constant tensor:
#      x y z
#    x 3.146520 0.000000 0.000000 
#    y 0.000000 3.308110 0.000000 
#    z 0.000000 0.000000 3.362080 
# 
# 
# High freq. dielectric constant tensor:
#      x y z
#    x 1.643880 0.000000 0.000000 
#    y 0.000000 1.681120 0.000000 
#    z 0.000000 0.000000 1.660400 
# 
# From -- ./inp_files/53977.got.cif
#   From: 2010.03.12/outbox.cif.g09.slc.cpg/sg74_27_cif.got.tgz:53977.got - 2010.04.16 15:46:19.
