data_PCOD8299479
_publ_section_title
;
Structure prediction by ZEFSAII (Michael W. Deem and Ramdas Pophale) SiO2 
 PCOD8299479
Probable space group: I M M A
;
_chemical_formula_sum "Si O2"
_cell_formula_units_Z 112
_cell_length_a 23.854320
_cell_length_b 14.732634
_cell_length_c 16.803573
_cell_angle_alpha 90.000000
_cell_angle_beta 90.000000
_cell_angle_gamma 90.000000
_cell_volume 5905.396711
_symmetry_space_group_name_H-M "I M M A"
_symmetry_group_IT_number 74
_symmetry_cell_setting 'orthorhombic'
loop_
_space_group_symop_operation_xyz
x,y,z
-x,1/2-y,z
x,-y,-z
-x,1/2+y,-z
-x,-y,-z
x,1/2+y,-z
-x,y,z
x,1/2-y,z
1/2+x,1/2+y,1/2+z
1/2-x,-y,1/2+z
1/2+x,1/2-y,1/2-z
1/2-x,y,1/2-z
1/2-x,1/2-y,1/2-z
1/2+x,y,1/2-z
1/2-x,1/2+y,1/2+z
1/2+x,-y,1/2+z
loop_
_atom_site_type_symbol
_atom_site_label
_atom_site_fract_x
_atom_site_fract_y
_atom_site_fract_z
Si Si1 0.381920 0.855106 0.433259
Si Si2 0.644152 0.855310 0.996054
Si Si3 0.860450 0.508564 0.373053
Si Si4 0.064694 0.145382 0.101497
Si Si5 0.773684 0.148301 0.015548
Si Si6 0.379958 0.489415 0.695760
Si Si7 0.761430 0.463691 0.166511
O O1 0.383204 0.750000 0.409118
O O2 0.419337 0.876113 0.510384
O O3 0.318189 0.892288 0.452107
O O4 0.407748 0.909921 0.357938
O O5 0.623805 0.750000 0.990175
O O6 0.710381 0.860419 0.013514
O O7 0.617427 0.908728 0.071212
O O8 0.628499 0.910120 0.915342
O O9 0.894556 0.515322 0.290102
O O10 0.793400 0.518921 0.361619
O O11 0.076962 0.250000 0.121476
O O12 0.100650 0.086840 0.163553
O O13 0.000000 0.120697 0.113245
O O14 0.793786 0.250000 0.028140
O O15 0.782201 0.105663 0.101117
O O16 0.313495 0.470877 0.686350
O O17 0.750000 0.410452 0.250000
#
# Coordination Sequence:
#
# PCOD8299479 Si02
#       7
#    16  16  16  16  16  16  16
#     4  10  20  32  47  70  97 130 173 209 244 293
#     4   9  17  31  49  67  97 136 167 202 247 290
#     4   9  19  31  45  73 102 128 170 206 240 300
#     4  10  22  38  54  74 100 130 168 211 252 298
#     4   9  16  27  43  64  92 132 174 205 240 292
#     4  11  20  31  51  72  98 133 164 207 257 295
#     4   9  17  27  41  66  99 131 166 210 249 285
#
# _framework density 18.965702
#
# number of rings (size 3 to 8) (size 9 to 14) (size 15 to 20)
#    0.000    2.429    1.429    1.286    0.000    3.714 
#    0.000    2.857    0.000    5.143    0.000    2.000 
#    0.000    1.143    0.000    0.000    0.000    0.000 
#
# Total GULP energy -693794.704023 kJ/mol
# GULP energy per Si atom -12389.191143 kJ/mol
# Density = 1.892254 g / cm^3
# Si number density = 18.965702 Si / 1000 Ang^3
#
#
#
# Elastic Constant Matrix: (Units=GPa)
#
#
# Indices 1 2 3 4 5 6 
#
# 1 22.5695 8.9707 12.9257 0.0000 0.0000 0.0000
# 2 8.9707 101.9156 71.3527 0.0000 0.0000 0.0000
# 3 12.9257 71.3527 153.2809 0.0000 0.0000 0.0000
# 4 0.0000 0.0000 0.0000 12.5530 0.0000 0.0000
# 5 0.0000 0.0000 0.0000 0.0000 10.4440 0.0000
# 6 0.0000 0.0000 0.0000 0.0000 0.0000 10.1043
#
#
#
# Elastic Compliance Matrix: (Units=1/GPa)
#
#
# Indices 1 2 3 4 5 6 
#
# 1 0.046833 -0.002014 -0.003012 0.000000 0.000000 0.000000
# 2 -0.002014 0.014642 -0.006646 0.000000 0.000000 0.000000
# 3 -0.003012 -0.006646 0.009872 0.000000 0.000000 0.000000
# 4 0.000000 0.000000 0.000000 0.079662 0.000000 0.000000
# 5 0.000000 0.000000 0.000000 0.000000 0.095749 0.000000
# 6 0.000000 0.000000 0.000000 0.000000 0.000000 0.098968
#
#
# Mechanical properties :
#
#
# Convention : Reuss Voigt Hill
#
# Bulk Modulus (GPa) = 20.83180 51.58492 36.20836
# Shear Modulus (GPa) = 12.98462 18.92138 15.95300
#
# Velocity S-wave (km/s) = 2.61940 3.16201 2.90341
# Velocity P-wave (km/s) = 4.48955 6.37096 5.51114
#
# Compressibility (1/GPa) = 0.04800353
#
# Stress axis : x y z
#
# Youngs Moduli (GPa) = 21.35251 68.29451 101.29829
#
# Poissons Ratio (x) = 0.13752 0.30511
# Poissons Ratio (y) = 0.04299 0.67326
# Poissons Ratio (z) = 0.06431 0.45391
#
# Static dielectric constant tensor:
#      x y z
#    x 3.091290 0.000000 0.000000 
#    y 0.000000 3.381010 0.000000 
#    z 0.000000 0.000000 3.627500 
# 
# 
# High freq. dielectric constant tensor:
#      x y z
#    x 1.690540 0.000000 0.000000 
#    y 0.000000 1.727970 0.000000 
#    z 0.000000 0.000000 1.741400 
# 
# From -- ./inp_files/37400.got.cif
#   From: 2010.03.12/outbox.cif.g09.slc.cpg/sg74_19_cif.got.tgz:37400.got - 2010.04.16 15:46:19.
