data_PCOD8299920
_publ_section_title
;
Structure prediction by ZEFSAII (Michael W. Deem and Ramdas Pophale) SiO2 
 PCOD8299920
Probable space group: I M M A
;
_chemical_formula_sum "Si O2"
_cell_formula_units_Z 112
_cell_length_a 20.299140
_cell_length_b 20.577247
_cell_length_c 13.543280
_cell_angle_alpha 90.000000
_cell_angle_beta 90.000000
_cell_angle_gamma 90.000000
_cell_volume 5657.033713
_symmetry_space_group_name_H-M "I M M A"
_symmetry_group_IT_number 74
_symmetry_cell_setting 'orthorhombic'
loop_
_space_group_symop_operation_xyz
x,y,z
-x,1/2-y,z
x,-y,-z
-x,1/2+y,-z
-x,-y,-z
x,1/2+y,-z
-x,y,z
x,1/2-y,z
1/2+x,1/2+y,1/2+z
1/2-x,-y,1/2+z
1/2+x,1/2-y,1/2-z
1/2-x,y,1/2-z
1/2-x,1/2-y,1/2-z
1/2+x,y,1/2-z
1/2-x,1/2+y,1/2+z
1/2+x,-y,1/2+z
loop_
_atom_site_type_symbol
_atom_site_label
_atom_site_fract_x
_atom_site_fract_y
_atom_site_fract_z
Si Si1 0.573229 0.884912 0.253050
Si Si2 0.862595 0.324450 0.096462
Si Si3 0.322876 0.403547 0.215151
Si Si4 0.216066 0.177191 0.468067
Si Si5 0.304469 0.324109 0.819859
Si Si6 0.576744 0.567805 0.463249
Si Si7 0.425478 0.003447 0.114745
O O1 0.500000 0.855977 0.271000
O O2 0.623406 0.827096 0.228519
O O3 0.600298 0.920164 0.351417
O O4 0.572603 0.931567 0.158699
O O5 0.890013 0.250000 0.105839
O O6 0.854461 0.356112 0.203901
O O7 0.794242 0.322889 0.039518
O O8 0.910005 0.370307 0.032764
O O9 0.250000 0.429141 0.250000
O O10 0.318083 0.362316 0.116980
O O11 0.373669 0.460172 0.186418
O O12 0.187788 0.250000 0.460974
O O13 0.196989 0.143096 0.571940
O O14 0.282973 0.250000 0.835372
O O15 0.250000 0.358655 0.750000
O O16 0.610993 0.500000 0.500000
O O17 0.500000 0.555801 0.462584
O O18 0.500000 0.033758 0.121441
O O19 0.402779 0.000000 0.000000
#
# Coordination Sequence:
#
# PCOD8299920 Si02
#       7
#    16  16  16  16  16  16  16
#     4  10  21  36  54  77 105 140 179 220 273 332
#     4  10  20  35  57  83 110 144 188 236 288 345
#     4  10  20  35  56  84 112 144 187 236 289 340
#     4   9  18  34  54  77 109 144 178 223 281 340
#     4  10  20  34  54  79 106 138 177 222 272 328
#     4  10  21  37  55  76 108 147 183 224 280 345
#     4  10  21  38  59  81 111 152 194 236 284 344
#
# _framework density 19.798362000000001
#
# number of rings (size 3 to 8) (size 9 to 14) (size 15 to 20)
#    0.000    2.143    0.000    3.000    0.000    6.286 
#    0.000   10.000    0.000    2.143    0.000    0.000 
#    0.000    0.000    0.000    0.000    0.000    0.000 
#
# Total GULP energy -694032.291413 kJ/mol
# GULP energy per Si atom -12393.433775 kJ/mol
# Density = 1.975330 g / cm^3
# Si number density = 19.798362 Si / 1000 Ang^3
#
#
#
# Elastic Constant Matrix: (Units=GPa)
#
#
# Indices 1 2 3 4 5 6 
#
# 1 56.9632 16.6168 44.1017 0.0000 0.0000 0.0000
# 2 16.6168 57.5850 27.9483 0.0000 0.0000 0.0000
# 3 44.1017 27.9483 146.8359 0.0000 0.0000 0.0000
# 4 0.0000 0.0000 0.0000 22.4083 0.0000 0.0000
# 5 0.0000 0.0000 0.0000 0.0000 32.5169 0.0000
# 6 0.0000 0.0000 0.0000 0.0000 0.0000 25.6332
#
#
#
# Elastic Compliance Matrix: (Units=1/GPa)
#
#
# Indices 1 2 3 4 5 6 
#
# 1 0.023572 -0.003708 -0.006374 0.000000 0.000000 0.000000
# 2 -0.003708 0.019717 -0.002639 0.000000 0.000000 0.000000
# 3 -0.006374 -0.002639 0.009227 0.000000 0.000000 0.000000
# 4 0.000000 0.000000 0.000000 0.044626 0.000000 0.000000
# 5 0.000000 0.000000 0.000000 0.000000 0.030753 0.000000
# 6 0.000000 0.000000 0.000000 0.000000 0.000000 0.039012
#
#
# Mechanical properties :
#
#
# Convention : Reuss Voigt Hill
#
# Bulk Modulus (GPa) = 36.93750 48.74641 42.84195
# Shear Modulus (GPa) = 24.82950 27.62617 26.22783
#
# Velocity S-wave (km/s) = 3.54520 3.73953 3.64366
# Velocity P-wave (km/s) = 5.95443 6.58182 6.27597
#
# Compressibility (1/GPa) = 0.02707276
#
# Stress axis : x y z
#
# Youngs Moduli (GPa) = 42.42381 50.71881 108.37781
#
# Poissons Ratio (x) = 0.18809 0.69078
# Poissons Ratio (y) = 0.15732 0.28601
# Poissons Ratio (z) = 0.27040 0.13385
#
# Static dielectric constant tensor:
#      x y z
#    x 3.559270 0.000000 0.000000 
#    y 0.000000 3.478960 0.000000 
#    z 0.000000 0.000000 3.882270 
# 
# 
# High freq. dielectric constant tensor:
#      x y z
#    x 1.759820 0.000000 0.000000 
#    y 0.000000 1.751390 0.000000 
#    z 0.000000 0.000000 1.796210 
# 
# From -- ./inp_files/25405.got.cif
#   From: 2010.03.12/outbox.cif.g09.slc.cpg/sg74_13_cif.got.tgz:25405.got - 2010.04.16 15:46:19.
