data_PCOD8299626
_publ_section_title
;
Structure prediction by ZEFSAII (Michael W. Deem and Ramdas Pophale) SiO2 
 PCOD8299626
Probable space group: I M M A
;
_chemical_formula_sum "Si O2"
_cell_formula_units_Z 80
_cell_length_a 25.289656
_cell_length_b 19.212921
_cell_length_c 8.691140
_cell_angle_alpha 90.000000
_cell_angle_beta 90.000000
_cell_angle_gamma 90.000000
_cell_volume 4222.922048
_symmetry_space_group_name_H-M "I M M A"
_symmetry_group_IT_number 74
_symmetry_cell_setting 'orthorhombic'
loop_
_space_group_symop_operation_xyz
x,y,z
-x,1/2-y,z
x,-y,-z
-x,1/2+y,-z
-x,-y,-z
x,1/2+y,-z
-x,y,z
x,1/2-y,z
1/2+x,1/2+y,1/2+z
1/2-x,-y,1/2+z
1/2+x,1/2-y,1/2-z
1/2-x,y,1/2-z
1/2-x,1/2-y,1/2-z
1/2+x,y,1/2-z
1/2-x,1/2+y,1/2+z
1/2+x,-y,1/2+z
loop_
_atom_site_type_symbol
_atom_site_label
_atom_site_fract_x
_atom_site_fract_y
_atom_site_fract_z
Si Si1 0.940772 0.955003 0.864650
Si Si2 0.380980 0.929876 0.931627
Si Si3 0.561919 0.169867 0.832903
Si Si4 0.604097 0.671562 0.496788
Si Si5 0.188896 0.329843 0.241436
O O1 0.914251 0.966349 0.702352
O O2 0.000000 0.981848 0.847697
O O3 0.938082 0.873991 0.910075
O O4 0.912219 0.000000 0.000000
O O5 0.336622 0.878261 0.870424
O O6 0.419897 0.884940 0.039227
O O7 0.354373 0.000000 0.000000
O O8 0.500000 0.156847 0.792873
O O9 0.569633 0.250000 0.888568
O O10 0.599637 0.155372 0.684776
O O11 0.586435 0.750000 0.528036
O O12 0.662844 0.657374 0.571004
O O13 0.180259 0.250000 0.290759
O O14 0.250000 0.349742 0.250000
#
# Coordination Sequence:
#
# PCOD8299626 Si02
#       5
#    16  16  16  16  16
#     4  10  20  33  50  73 104 144 184 217 257 317
#     4  11  22  35  52  78 110 142 176 221 277 333
#     4  10  20  34  53  80 114 147 179 219 269 329
#     4   9  18  33  54  78 103 134 175 222 268 314
#     4   9  19  39  62  79 100 136 184 233 276 319
#
# _framework density 18.944229
#
# number of rings (size 3 to 8) (size 9 to 14) (size 15 to 20)
#    0.000    2.200    0.000    3.000    0.000    5.200 
#    0.000    7.000    0.000    4.800    0.000    0.000 
#    0.000    0.000    0.000    0.000    0.000    0.000 
#
# Total GULP energy -495628.559913 kJ/mol
# GULP energy per Si atom -12390.713998 kJ/mol
# Density = 1.890111 g / cm^3
# Si number density = 18.944229 Si / 1000 Ang^3
#
#
#
# Elastic Constant Matrix: (Units=GPa)
#
#
# Indices 1 2 3 4 5 6 
#
# 1 107.7776 50.7377 56.6101 0.0000 0.0000 0.0000
# 2 50.7377 97.3627 58.4124 0.0000 0.0000 0.0000
# 3 56.6101 58.4124 114.2070 0.0000 0.0000 0.0000
# 4 0.0000 0.0000 0.0000 40.3795 0.0000 0.0000
# 5 0.0000 0.0000 0.0000 0.0000 20.3525 0.0000
# 6 0.0000 0.0000 0.0000 0.0000 0.0000 14.5907
#
#
#
# Elastic Compliance Matrix: (Units=1/GPa)
#
#
# Indices 1 2 3 4 5 6 
#
# 1 0.013758 -0.004441 -0.004548 0.000000 0.000000 0.000000
# 2 -0.004441 0.016251 -0.006111 0.000000 0.000000 0.000000
# 3 -0.004548 -0.006111 0.014136 0.000000 0.000000 0.000000
# 4 0.000000 0.000000 0.000000 0.024765 0.000000 0.000000
# 5 0.000000 0.000000 0.000000 0.000000 0.049134 0.000000
# 6 0.000000 0.000000 0.000000 0.000000 0.000000 0.068537
#
#
# Mechanical properties :
#
#
# Convention : Reuss Voigt Hill
#
# Bulk Modulus (GPa) = 71.70731 72.31864 72.01297
# Shear Modulus (GPa) = 22.58068 25.30369 23.94219
#
# Velocity S-wave (km/s) = 3.45622 3.65868 3.55889
# Velocity P-wave (km/s) = 7.33902 7.49035 7.41507
#
# Compressibility (1/GPa) = 0.01394558
#
# Stress axis : x y z
#
# Youngs Moduli (GPa) = 72.68558 61.53427 70.74243
#
# Poissons Ratio (x) = 0.27326 0.32175
# Poissons Ratio (y) = 0.32279 0.43228
# Poissons Ratio (z) = 0.33059 0.37601
#
# Static dielectric constant tensor:
#      x y z
#    x 3.232710 0.000000 0.000000 
#    y 0.000000 3.679240 0.000000 
#    z 0.000000 0.000000 3.598590 
# 
# 
# High freq. dielectric constant tensor:
#      x y z
#    x 1.701990 0.000000 0.000000 
#    y 0.000000 1.758740 0.000000 
#    z 0.000000 0.000000 1.738440 
# 
# From -- ./inp_files/10908.got.cif
#   From: 2010.03.12/outbox.cif.g09.slc.cpg/sg74_6_cif.got.tgz:10908.got - 2010.04.16 15:46:19.
