data_PCOD8299160
_publ_section_title
;
Structure prediction by ZEFSAII (Michael W. Deem and Ramdas Pophale) SiO2 
 PCOD8299160
Probable space group: I M M A
;
_chemical_formula_sum "Si O2"
_cell_formula_units_Z 80
_cell_length_a 11.868768
_cell_length_b 13.559872
_cell_length_c 24.156784
_cell_angle_alpha 90.000000
_cell_angle_beta 90.000000
_cell_angle_gamma 90.000000
_cell_volume 3887.768053
_symmetry_space_group_name_H-M "I M M A"
_symmetry_group_IT_number 74
_symmetry_cell_setting 'orthorhombic'
loop_
_space_group_symop_operation_xyz
x,y,z
-x,1/2-y,z
x,-y,-z
-x,1/2+y,-z
-x,-y,-z
x,1/2+y,-z
-x,y,z
x,1/2-y,z
1/2+x,1/2+y,1/2+z
1/2-x,-y,1/2+z
1/2+x,1/2-y,1/2-z
1/2-x,y,1/2-z
1/2-x,1/2-y,1/2-z
1/2+x,y,1/2-z
1/2-x,1/2+y,1/2+z
1/2+x,-y,1/2+z
loop_
_atom_site_type_symbol
_atom_site_label
_atom_site_fract_x
_atom_site_fract_y
_atom_site_fract_z
Si Si1 0.000000 0.364208 0.841171
Si Si2 0.000000 0.094363 0.961240
Si Si3 0.367964 0.364945 0.387874
Si Si4 0.768810 0.356871 0.000833
Si Si5 0.287337 0.968637 0.311535
Si Si6 0.868685 0.367190 0.600516
O O1 0.000000 0.433682 0.896011
O O2 0.888546 0.389937 0.806729
O O3 0.000000 0.250000 0.857356
O O4 0.111449 0.158220 0.970651
O O5 0.000000 0.000000 0.000000
O O6 0.500000 0.375538 0.401801
O O7 0.338965 0.250000 0.377603
O O8 0.295430 0.409752 0.440274
O O9 0.331252 0.427014 0.334872
O O10 0.717612 0.250000 0.014368
O O11 0.682896 0.409389 0.957871
O O12 0.250000 0.992258 0.250000
O O13 0.186750 0.923092 0.347887
O O14 0.844818 0.250000 0.605448
O O15 0.000000 0.391911 0.601107
#
# Coordination Sequence:
#
# PCOD8299160 Si02
#       6
#     8   8  16  16  16  16
#     4  12  24  40  63  96 127 163 213 270 320 372
#     4  12  20  30  58  94 129 156 192 246 317 373
#     4  10  21  40  68  98 125 156 203 265 328 379
#     4  10  19  34  59  92 124 154 193 249 315 379
#     4  12  26  42  63  89 126 166 219 269 314 371
#     4  10  23  41  60  87 129 176 212 248 307 384
#
# _framework density 20.577359999999999
#
# number of rings (size 3 to 8) (size 9 to 14) (size 15 to 20)
#    0.000    1.200    4.000    2.700    1.400    2.000 
#    0.000    2.000    0.000    1.800    0.000    0.000 
#    0.000    0.000    0.000    0.000    0.000    0.000 
#
# Total GULP energy -495727.613557 kJ/mol
# GULP energy per Si atom -12393.190339 kJ/mol
# Density = 2.053053 g / cm^3
# Si number density = 20.577360 Si / 1000 Ang^3
#
#
#
# Elastic Constant Matrix: (Units=GPa)
#
#
# Indices 1 2 3 4 5 6 
#
# 1 131.8220 39.2070 63.7927 0.0000 0.0000 0.0000
# 2 39.2070 82.2276 45.2992 0.0000 0.0000 0.0000
# 3 63.7927 45.2992 162.3611 0.0000 0.0000 0.0000
# 4 0.0000 0.0000 0.0000 26.6431 0.0000 0.0000
# 5 0.0000 0.0000 0.0000 0.0000 26.3597 0.0000
# 6 0.0000 0.0000 0.0000 0.0000 0.0000 20.3338
#
#
#
# Elastic Compliance Matrix: (Units=1/GPa)
#
#
# Indices 1 2 3 4 5 6 
#
# 1 0.009983 -0.003071 -0.003065 0.000000 0.000000 0.000000
# 2 -0.003071 0.015315 -0.003066 0.000000 0.000000 0.000000
# 3 -0.003065 -0.003066 0.008219 0.000000 0.000000 0.000000
# 4 0.000000 0.000000 0.000000 0.037533 0.000000 0.000000
# 5 0.000000 0.000000 0.000000 0.000000 0.037937 0.000000
# 6 0.000000 0.000000 0.000000 0.000000 0.000000 0.049179
#
#
# Mechanical properties :
#
#
# Convention : Reuss Voigt Hill
#
# Bulk Modulus (GPa) = 66.17647 74.77871 70.47759
# Shear Modulus (GPa) = 27.53173 29.87478 28.70325
#
# Velocity S-wave (km/s) = 3.66178 3.81442 3.73888
# Velocity P-wave (km/s) = 7.07869 7.47120 7.27760
#
# Compressibility (1/GPa) = 0.01511111
#
# Stress axis : x y z
#
# Youngs Moduli (GPa) = 100.17118 65.29577 121.66872
#
# Poissons Ratio (x) = 0.20054 0.37297
# Poissons Ratio (y) = 0.30764 0.37306
# Poissons Ratio (z) = 0.30707 0.20021
#
# Static dielectric constant tensor:
#      x y z
#    x 3.808670 0.000000 0.000000 
#    y 0.000000 3.646840 0.000000 
#    z 0.000000 0.000000 3.609930 
# 
# 
# High freq. dielectric constant tensor:
#      x y z
#    x 1.793310 0.000000 0.000000 
#    y 0.000000 1.808950 0.000000 
#    z 0.000000 0.000000 1.793000 
# 
# From -- ./inp_files/58562.got.cif
#   From: 2010.03.12/outbox.cif.g09.slc.cpg/sg74_30_cif.got.tgz:58562.got - 2010.04.16 15:46:19.
