data_PCOD8299355
_publ_section_title
;
Structure prediction by ZEFSAII (Michael W. Deem and Ramdas Pophale) SiO2 
 PCOD8299355
Probable space group: I M M A
;
_chemical_formula_sum "Si O2"
_cell_formula_units_Z 96
_cell_length_a 14.940750
_cell_length_b 14.313440
_cell_length_c 22.773745
_cell_angle_alpha 90.000000
_cell_angle_beta 90.000000
_cell_angle_gamma 90.000000
_cell_volume 4870.245730
_symmetry_space_group_name_H-M "I M M A"
_symmetry_group_IT_number 74
_symmetry_cell_setting 'orthorhombic'
loop_
_space_group_symop_operation_xyz
x,y,z
-x,1/2-y,z
x,-y,-z
-x,1/2+y,-z
-x,-y,-z
x,1/2+y,-z
-x,y,z
x,1/2-y,z
1/2+x,1/2+y,1/2+z
1/2-x,-y,1/2+z
1/2+x,1/2-y,1/2-z
1/2-x,y,1/2-z
1/2-x,1/2-y,1/2-z
1/2+x,y,1/2-z
1/2-x,1/2+y,1/2+z
1/2+x,-y,1/2+z
loop_
_atom_site_type_symbol
_atom_site_label
_atom_site_fract_x
_atom_site_fract_y
_atom_site_fract_z
Si Si1 0.172984 0.856905 0.705059
Si Si2 0.310572 0.500000 0.500000
Si Si3 0.000000 0.085419 0.454453
Si Si4 0.000000 0.651160 0.275158
Si Si5 0.680095 0.854733 0.293774
Si Si6 0.103781 0.140610 0.912958
Si Si7 0.000000 0.041228 0.319048
Si Si8 0.692010 0.353679 0.067439
O O1 0.147865 0.750000 0.719290
O O2 0.250000 0.891311 0.750000
O O3 0.199811 0.867665 0.637282
O O4 0.085420 0.919501 0.716207
O O5 0.373659 0.426824 0.533321
O O6 0.248970 0.437954 0.458207
O O7 0.000000 0.059180 0.386891
O O8 0.908273 0.143797 0.460585
O O9 0.000000 0.000000 0.500000
O O10 0.083386 0.644175 0.233207
O O11 0.000000 0.570148 0.321997
O O12 0.000000 0.750000 0.309761
O O13 0.717621 0.750000 0.301801
O O14 0.750000 0.908910 0.250000
O O15 0.667885 0.895479 0.359427
O O16 0.122794 0.250000 0.927947
O O17 0.000000 0.128133 0.896252
O O18 0.729298 0.250000 0.051558
#
# Coordination Sequence:
#
# PCOD8299355 Si02
#       8
#    16   8   8   8  16  16   8  16
#     4   9  19  38  62  85 112 147 191 245 303 357
#     4  12  23  35  58  90 118 150 208 249 285 352
#     4  10  19  39  60  81 114 157 205 236 288 352
#     4  10  20  35  51  79 122 152 181 233 291 349
#     4   9  18  35  59  82 110 152 197 237 288 354
#     4  10  21  40  62  83 116 161 201 244 301 357
#     4  10  21  32  58  86 112 151 196 237 287 359
#     4  10  21  38  60  85 119 156 193 247 303 353
#
# _framework density 19.711531000000001
#
# number of rings (size 3 to 8) (size 9 to 14) (size 15 to 20)
#    0.000    2.167    1.667    1.250    0.000    6.667 
#    0.000    0.833    1.833    0.000    0.000    0.000 
#    0.000    0.000    0.000    0.000    0.000    0.000 
#
# Total GULP energy -594645.917388 kJ/mol
# GULP energy per Si atom -12388.456612 kJ/mol
# Density = 1.966667 g / cm^3
# Si number density = 19.711531 Si / 1000 Ang^3
#
#
#
# Elastic Constant Matrix: (Units=GPa)
#
#
# Indices 1 2 3 4 5 6 
#
# 1 112.6363 48.2056 59.3294 0.0000 0.0000 0.0000
# 2 48.2056 115.5780 39.8436 0.0000 0.0000 0.0000
# 3 59.3294 39.8436 76.3869 0.0000 0.0000 0.0000
# 4 0.0000 0.0000 0.0000 25.9024 0.0000 0.0000
# 5 0.0000 0.0000 0.0000 0.0000 -23.9500 0.0000
# 6 0.0000 0.0000 0.0000 0.0000 0.0000 20.3881
#
#
#
# Elastic Compliance Matrix: (Units=1/GPa)
#
#
# Indices 1 2 3 4 5 6 
#
# 1 0.015770 -0.002871 -0.010751 0.000000 0.000000 0.000000
# 2 -0.002871 0.011072 -0.003545 0.000000 0.000000 0.000000
# 3 -0.010751 -0.003545 0.023290 0.000000 0.000000 0.000000
# 4 0.000000 0.000000 0.000000 0.038606 0.000000 0.000000
# 5 0.000000 0.000000 0.000000 0.000000 -0.041754 0.000000
# 6 0.000000 0.000000 0.000000 0.000000 0.000000 0.049048
#
#
# Mechanical properties :
#
#
# Convention : Reuss Voigt Hill
#
# Bulk Modulus (GPa) = 63.29879 66.59538 64.94709
# Shear Modulus (GPa) = 36.86434 14.94960 25.90697
#
# Velocity S-wave (km/s) = 4.32926 2.75693 3.62927
# Velocity P-wave (km/s) = 7.56124 6.63269 7.11213
#
# Compressibility (1/GPa) = 0.01579809
#
# Stress axis : x y z
#
# Youngs Moduli (GPa) = 63.41301 90.31980 42.93636
#
# Poissons Ratio (x) = 0.25932 0.46159
# Poissons Ratio (y) = 0.18207 0.15221
# Poissons Ratio (z) = 0.68173 0.32019
#
# Static dielectric constant tensor:
#      x y z
#    x 3.733750 0.000000 0.000000 
#    y 0.000000 3.713540 0.000000 
#    z 0.000000 0.000000 3.510050 
# 
# 
# High freq. dielectric constant tensor:
#      x y z
#    x 1.769360 0.000000 0.000000 
#    y 0.000000 1.769380 0.000000 
#    z 0.000000 0.000000 1.757860 
# 
# From -- ./inp_files/51970.got.cif
#   From: 2010.03.12/outbox.cif.g09.slc.cpg/sg74_26_cif.got.tgz:51970.got - 2010.04.16 15:46:19.
