data_PCOD8299532
_publ_section_title
;
Structure prediction by ZEFSAII (Michael W. Deem and Ramdas Pophale) SiO2 
 PCOD8299532
Probable space group: I M M A
;
_chemical_formula_sum "Si O2"
_cell_formula_units_Z 72
_cell_length_a 17.816387
_cell_length_b 9.271413
_cell_length_c 23.140769
_cell_angle_alpha 90.000000
_cell_angle_beta 90.000000
_cell_angle_gamma 90.000000
_cell_volume 3822.463544
_symmetry_space_group_name_H-M "I M M A"
_symmetry_group_IT_number 74
_symmetry_cell_setting 'orthorhombic'
loop_
_space_group_symop_operation_xyz
x,y,z
-x,1/2-y,z
x,-y,-z
-x,1/2+y,-z
-x,-y,-z
x,1/2+y,-z
-x,y,z
x,1/2-y,z
1/2+x,1/2+y,1/2+z
1/2-x,-y,1/2+z
1/2+x,1/2-y,1/2-z
1/2-x,y,1/2-z
1/2-x,1/2-y,1/2-z
1/2+x,y,1/2-z
1/2-x,1/2+y,1/2+z
1/2+x,-y,1/2+z
loop_
_atom_site_type_symbol
_atom_site_label
_atom_site_fract_x
_atom_site_fract_y
_atom_site_fract_z
Si Si1 0.500000 0.081641 0.059657
Si Si2 0.717091 0.582655 0.559215
Si Si3 0.858271 0.081238 0.364453
Si Si4 0.086970 0.081155 0.742986
Si Si5 0.914406 0.083590 0.141964
O O1 0.500000 0.250000 0.046025
O O2 0.573037 0.034727 0.095061
O O3 0.500000 0.000000 0.000000
O O4 0.727802 0.500000 0.500000
O O5 0.723298 0.750000 0.544270
O O6 0.781794 0.537540 0.603870
O O7 0.637138 0.542940 0.587433
O O8 0.861850 0.250000 0.349180
O O9 0.861586 0.991992 0.305384
O O10 0.103677 0.250000 0.744706
O O11 0.000000 0.047422 0.729515
O O12 0.109817 0.014393 0.804345
O O13 0.902635 0.250000 0.159998
O O14 0.000000 0.052825 0.123406
#
# Coordination Sequence:
#
# PCOD8299532 Si02
#       5
#     8  16  16  16  16
#     4  10  20  32  50  74 102 142 183 216 257 308
#     4  10  22  38  56  80 109 142 182 226 269 318
#     4  10  20  35  54  77 108 146 182 217 265 322
#     4  10  20  34  55  84 112 139 178 226 271 316
#     4   9  19  37  59  80 106 143 181 219 270 329
#
# _framework density 18.836020000000001
#
# number of rings (size 3 to 8) (size 9 to 14) (size 15 to 20)
#    0.000    2.222    1.111    1.333    0.000    4.889 
#    0.000    4.444    0.000    0.000    0.000    0.000 
#    0.000    0.000    0.000    0.000    0.000    0.000 
#
# Total GULP energy -446563.622217 kJ/mol
# GULP energy per Si atom -12404.545062 kJ/mol
# Density = 1.879315 g / cm^3
# Si number density = 18.836020 Si / 1000 Ang^3
#
#
#
# Elastic Constant Matrix: (Units=GPa)
#
#
# Indices 1 2 3 4 5 6 
#
# 1 96.3204 32.8603 37.0330 0.0000 0.0000 0.0000
# 2 32.8603 68.8219 51.3322 0.0000 0.0000 0.0000
# 3 37.0330 51.3322 80.2272 0.0000 0.0000 0.0000
# 4 0.0000 0.0000 0.0000 39.0652 0.0000 0.0000
# 5 0.0000 0.0000 0.0000 0.0000 19.5457 0.0000
# 6 0.0000 0.0000 0.0000 0.0000 0.0000 15.0176
#
#
#
# Elastic Compliance Matrix: (Units=1/GPa)
#
#
# Indices 1 2 3 4 5 6 
#
# 1 0.013005 -0.003313 -0.003883 0.000000 0.000000 0.000000
# 2 -0.003313 0.028639 -0.016795 0.000000 0.000000 0.000000
# 3 -0.003883 -0.016795 0.025003 0.000000 0.000000 0.000000
# 4 0.000000 0.000000 0.000000 0.025598 0.000000 0.000000
# 5 0.000000 0.000000 0.000000 0.000000 0.051162 0.000000
# 6 0.000000 0.000000 0.000000 0.000000 0.000000 0.066588
#
#
# Mechanical properties :
#
#
# Convention : Reuss Voigt Hill
#
# Bulk Modulus (GPa) = 53.57731 54.20228 53.88979
# Shear Modulus (GPa) = 18.92500 23.00197 20.96348
#
# Velocity S-wave (km/s) = 3.17318 3.49831 3.33970
# Velocity P-wave (km/s) = 6.47543 6.71982 6.59876
#
# Compressibility (1/GPa) = 0.01866462
#
# Stress axis : x y z
#
# Youngs Moduli (GPa) = 76.89110 34.91746 39.99488
#
# Poissons Ratio (x) = 0.11569 0.15532
# Poissons Ratio (y) = 0.25475 0.67171
# Poissons Ratio (z) = 0.29860 0.58644
#
# Static dielectric constant tensor:
#      x y z
#    x 3.689650 0.000000 0.000000 
#    y 0.000000 3.378610 0.000000 
#    z 0.000000 0.000000 3.308740 
# 
# 
# High freq. dielectric constant tensor:
#      x y z
#    x 1.735240 0.000000 0.000000 
#    y 0.000000 1.725960 0.000000 
#    z 0.000000 0.000000 1.731810 
# 
# From -- ./inp_files/56647.got.cif
#   From: 2010.03.12/outbox.cif.g09.slc.cpg/sg74_29_cif.got.tgz:56647.got - 2010.04.16 15:46:19.
