data_PCOD8299783
_publ_section_title
;
Structure prediction by ZEFSAII (Michael W. Deem and Ramdas Pophale) SiO2 
 PCOD8299783
Probable space group: I M M A
;
_chemical_formula_sum "Si O2"
_cell_formula_units_Z 104
_cell_length_a 26.333204
_cell_length_b 9.143127
_cell_length_c 24.035859
_cell_angle_alpha 90.000000
_cell_angle_beta 90.000000
_cell_angle_gamma 90.000000
_cell_volume 5787.061577
_symmetry_space_group_name_H-M "I M M A"
_symmetry_group_IT_number 74
_symmetry_cell_setting 'orthorhombic'
loop_
_space_group_symop_operation_xyz
x,y,z
-x,1/2-y,z
x,-y,-z
-x,1/2+y,-z
-x,-y,-z
x,1/2+y,-z
-x,y,z
x,1/2-y,z
1/2+x,1/2+y,1/2+z
1/2-x,-y,1/2+z
1/2+x,1/2-y,1/2-z
1/2-x,y,1/2-z
1/2-x,1/2-y,1/2-z
1/2+x,y,1/2-z
1/2-x,1/2+y,1/2+z
1/2+x,-y,1/2+z
loop_
_atom_site_type_symbol
_atom_site_label
_atom_site_fract_x
_atom_site_fract_y
_atom_site_fract_z
Si Si1 0.638154 0.420553 0.766365
Si Si2 0.210105 0.918398 0.653099
Si Si3 0.500000 0.916821 0.556465
Si Si4 0.172710 0.421706 0.159301
Si Si5 0.058909 0.579230 0.358137
Si Si6 0.632244 0.920475 0.941329
Si Si7 0.891158 0.079575 0.057996
O O1 0.644371 0.250000 0.755807
O O2 0.684904 0.475536 0.802773
O O3 0.640830 0.500779 0.707622
O O4 0.585613 0.456459 0.798877
O O5 0.202758 0.750000 0.671768
O O6 0.268573 0.964362 0.654824
O O7 0.184894 0.942929 0.592494
O O8 0.500000 0.750000 0.538861
O O9 0.553306 0.953732 0.586775
O O10 0.500000 0.000000 0.500000
O O11 0.164901 0.250000 0.167786
O O12 0.149922 0.478218 0.101356
O O13 0.065283 0.750000 0.372635
O O14 0.084980 0.487286 0.407294
O O15 0.000000 0.534016 0.353650
O O16 0.620942 0.750000 0.951400
O O17 0.638332 0.000000 0.000000
O O18 0.883852 0.250000 0.046178
O O19 0.882922 0.000000 0.000000
#
# Coordination Sequence:
#
# PCOD8299783 Si02
#       7
#    16  16   8  16  16  16  16
#     4  10  20  34  53  77 101 128 168 213 254 298
#     4   9  19  35  53  71  99 138 172 204 249 302
#     4   8  14  28  48  66  88 120 156 192 231 276
#     4  10  20  34  51  74 103 135 168 205 252 305
#     4   9  19  37  57  75 102 138 172 212 261 307
#     4  10  20  34  53  78 106 137 175 214 255 306
#     4   9  18  32  50  71  97 128 163 202 245 291
#
# _framework density 17.971124
#
# number of rings (size 3 to 8) (size 9 to 14) (size 15 to 20)
#    0.000    2.615    0.000    1.385    0.000    5.538 
#    1.385    0.000    0.000    0.000    0.000    0.000 
#    0.000    0.000    0.000    0.000    0.000    0.000 
#
# Total GULP energy -644505.653649 kJ/mol
# GULP energy per Si atom -12394.339493 kJ/mol
# Density = 1.793022 g / cm^3
# Si number density = 17.971124 Si / 1000 Ang^3
#
#
#
# Elastic Constant Matrix: (Units=GPa)
#
#
# Indices 1 2 3 4 5 6 
#
# 1 82.4355 35.4573 50.7031 0.0000 0.0000 0.0000
# 2 35.4573 61.1391 50.2020 0.0000 0.0000 0.0000
# 3 50.7031 50.2020 124.5238 0.0000 0.0000 0.0000
# 4 0.0000 0.0000 0.0000 33.9186 0.0000 0.0000
# 5 0.0000 0.0000 0.0000 0.0000 16.5329 0.0000
# 6 0.0000 0.0000 0.0000 0.0000 0.0000 21.7625
#
#
#
# Elastic Compliance Matrix: (Units=1/GPa)
#
#
# Indices 1 2 3 4 5 6 
#
# 1 0.017769 -0.006524 -0.004605 0.000000 0.000000 0.000000
# 2 -0.006524 0.026845 -0.008166 0.000000 0.000000 0.000000
# 3 -0.004605 -0.008166 0.013198 0.000000 0.000000 0.000000
# 4 0.000000 0.000000 0.000000 0.029482 0.000000 0.000000
# 5 0.000000 0.000000 0.000000 0.000000 0.060485 0.000000
# 6 0.000000 0.000000 0.000000 0.000000 0.000000 0.045951
#
#
# Mechanical properties :
#
#
# Convention : Reuss Voigt Hill
#
# Bulk Modulus (GPa) = 52.02450 60.09149 56.05800
# Shear Modulus (GPa) = 20.94432 23.22521 22.08477
#
# Velocity S-wave (km/s) = 3.41756 3.59884 3.50937
# Velocity P-wave (km/s) = 6.67718 7.12596 6.90522
#
# Compressibility (1/GPa) = 0.01922171
#
# Stress axis : x y z
#
# Youngs Moduli (GPa) = 56.27725 37.25081 75.76948
#
# Poissons Ratio (x) = 0.24302 0.34892
# Poissons Ratio (y) = 0.36714 0.61875
# Poissons Ratio (z) = 0.25916 0.30420
#
# Static dielectric constant tensor:
#      x y z
#    x 3.110590 0.000000 0.000000 
#    y 0.000000 3.334100 0.000000 
#    z 0.000000 0.000000 3.275130 
# 
# 
# High freq. dielectric constant tensor:
#      x y z
#    x 1.703330 0.000000 0.000000 
#    y 0.000000 1.696960 0.000000 
#    z 0.000000 0.000000 1.686370 
# 
# From -- ./inp_files/62324.got.cif
#   From: 2010.03.12/outbox.cif.g09.slc.cpg/sg74_32_cif.got.tgz:62324.got - 2010.04.16 15:46:19.
