data_PCOD8299081
_publ_section_title
;
Structure prediction by ZEFSAII (Michael W. Deem and Ramdas Pophale) SiO2 
 PCOD8299081
Probable space group: I M M A
;
_chemical_formula_sum "Si O2"
_cell_formula_units_Z 96
_cell_length_a 19.897908
_cell_length_b 12.095875
_cell_length_c 22.273616
_cell_angle_alpha 90.000000
_cell_angle_beta 90.000000
_cell_angle_gamma 90.000000
_cell_volume 5360.871987
_symmetry_space_group_name_H-M "I M M A"
_symmetry_group_IT_number 74
_symmetry_cell_setting 'orthorhombic'
loop_
_space_group_symop_operation_xyz
x,y,z
-x,1/2-y,z
x,-y,-z
-x,1/2+y,-z
-x,-y,-z
x,1/2+y,-z
-x,y,z
x,1/2-y,z
1/2+x,1/2+y,1/2+z
1/2-x,-y,1/2+z
1/2+x,1/2-y,1/2-z
1/2-x,y,1/2-z
1/2-x,1/2-y,1/2-z
1/2+x,y,1/2-z
1/2-x,1/2+y,1/2+z
1/2+x,-y,1/2+z
loop_
_atom_site_type_symbol
_atom_site_label
_atom_site_fract_x
_atom_site_fract_y
_atom_site_fract_z
Si Si1 0.289023 0.750000 0.134055
Si Si2 0.805594 0.127098 0.098032
Si Si3 0.705328 0.750000 0.486043
Si Si4 0.571509 0.250000 0.822996
Si Si5 0.923419 0.250000 0.911117
Si Si6 0.717117 0.011428 0.814183
Si Si7 0.425870 0.015923 0.774688
Si Si8 0.075393 0.986307 0.137195
O O1 0.256889 0.750000 0.068530
O O2 0.370075 0.750000 0.126886
O O3 0.268305 0.640098 0.170541
O O4 0.816831 0.250000 0.126209
O O5 0.874851 0.059620 0.097862
O O6 0.748487 0.063577 0.134339
O O7 0.783163 0.141241 0.028059
O O8 0.627570 0.750000 0.466527
O O9 0.500000 0.250000 0.858182
O O10 0.575758 0.351966 0.777590
O O11 0.908436 0.356847 0.870394
O O12 0.000000 0.250000 0.935629
O O13 0.750000 0.985986 0.750000
O O14 0.638100 0.975185 0.813532
O O15 0.500000 0.972332 0.797324
O O16 0.414568 0.980445 0.706308
O O17 0.000000 0.012906 0.115512
#
# Coordination Sequence:
#
# PCOD8299081 Si02
#       8
#     8  16   8   8   8  16  16  16
#     4  10  21  33  58  88 112 134 175 236 284 341
#     4  10  24  40  52  74 105 159 195 229 261 322
#     4  10  24  40  52  74 111 152 202 223 271 320
#     4   8  15  29  51  82 117 139 155 206 287 358
#     4  10  21  34  56  83 109 144 187 237 282 319
#     4  11  20  35  58  86 111 138 178 231 290 333
#     4   9  17  30  51  82 114 139 168 211 279 344
#     4  10  19  34  55  82 112 144 184 231 279 324
#
# _framework density 17.907533999999998
#
# number of rings (size 3 to 8) (size 9 to 14) (size 15 to 20)
#    0.500    1.667    1.667    1.750    0.000    6.000 
#    0.000    1.667    0.000    1.500    0.000    4.667 
#    0.000    0.000    0.000    0.000    0.000    0.000 
#
# Total GULP energy -594726.442796 kJ/mol
# GULP energy per Si atom -12390.134225 kJ/mol
# Density = 1.786678 g / cm^3
# Si number density = 17.907534 Si / 1000 Ang^3
#
#
#
# Elastic Constant Matrix: (Units=GPa)
#
#
# Indices 1 2 3 4 5 6 
#
# 1 120.4116 27.9482 51.1043 0.0000 0.0000 0.0000
# 2 27.9482 59.7256 11.6424 0.0000 0.0000 0.0000
# 3 51.1043 11.6424 83.4940 0.0000 0.0000 0.0000
# 4 0.0000 0.0000 0.0000 31.1250 0.0000 0.0000
# 5 0.0000 0.0000 0.0000 0.0000 28.2909 0.0000
# 6 0.0000 0.0000 0.0000 0.0000 0.0000 12.9020
#
#
#
# Elastic Compliance Matrix: (Units=1/GPa)
#
#
# Indices 1 2 3 4 5 6 
#
# 1 0.012244 -0.004388 -0.006883 0.000000 0.000000 0.000000
# 2 -0.004388 0.018784 0.000067 0.000000 0.000000 0.000000
# 3 -0.006883 0.000067 0.016180 0.000000 0.000000 0.000000
# 4 0.000000 0.000000 0.000000 0.032129 0.000000 0.000000
# 5 0.000000 0.000000 0.000000 0.000000 0.035347 0.000000
# 6 0.000000 0.000000 0.000000 0.000000 0.000000 0.077507
#
#
# Mechanical properties :
#
#
# Convention : Reuss Voigt Hill
#
# Bulk Modulus (GPa) = 40.32217 49.44676 44.88447
# Shear Modulus (GPa) = 22.43503 25.99268 24.21385
#
# Velocity S-wave (km/s) = 3.54337 3.81398 3.68116
# Velocity P-wave (km/s) = 6.26948 6.86057 6.57168
#
# Compressibility (1/GPa) = 0.02480025
#
# Stress axis : x y z
#
# Youngs Moduli (GPa) = 81.67006 53.23787 61.80374
#
# Poissons Ratio (x) = 0.23361 0.42537
# Poissons Ratio (y) = 0.35837 -0.00412
# Poissons Ratio (z) = 0.56210 -0.00355
#
# Static dielectric constant tensor:
#      x y z
#    x 3.718490 0.000000 0.000000 
#    y 0.000000 3.190750 0.000000 
#    z 0.000000 0.000000 2.987910 
# 
# 
# High freq. dielectric constant tensor:
#      x y z
#    x 1.708360 0.000000 0.000000 
#    y 0.000000 1.677750 0.000000 
#    z 0.000000 0.000000 1.663100 
# 
# From -- ./inp_files/53938.got.cif
#   From: 2010.03.12/outbox.cif.g09.slc.cpg/sg74_27_cif.got.tgz:53938.got - 2010.04.16 15:46:19.
