data_PCOD8299673
_publ_section_title
;
Structure prediction by ZEFSAII (Michael W. Deem and Ramdas Pophale) SiO2 
 PCOD8299673
Probable space group: I M M A
;
_chemical_formula_sum "Si O2"
_cell_formula_units_Z 80
_cell_length_a 26.803534
_cell_length_b 16.605410
_cell_length_c 9.735639
_cell_angle_alpha 90.000000
_cell_angle_beta 90.000000
_cell_angle_gamma 90.000000
_cell_volume 4333.173951
_symmetry_space_group_name_H-M "I M M A"
_symmetry_group_IT_number 74
_symmetry_cell_setting 'orthorhombic'
loop_
_space_group_symop_operation_xyz
x,y,z
-x,1/2-y,z
x,-y,-z
-x,1/2+y,-z
-x,-y,-z
x,1/2+y,-z
-x,y,z
x,1/2-y,z
1/2+x,1/2+y,1/2+z
1/2-x,-y,1/2+z
1/2+x,1/2-y,1/2-z
1/2-x,y,1/2-z
1/2-x,1/2-y,1/2-z
1/2+x,y,1/2-z
1/2-x,1/2+y,1/2+z
1/2+x,-y,1/2+z
loop_
_atom_site_type_symbol
_atom_site_label
_atom_site_fract_x
_atom_site_fract_y
_atom_site_fract_z
Si Si1 0.704972 0.968774 0.146997
Si Si2 0.556947 0.156545 0.438008
Si Si3 0.889764 0.433828 0.293362
Si Si4 0.057014 0.904400 0.234921
Si Si5 0.629494 0.840426 0.063472
O O1 0.750000 0.955449 0.250000
O O2 0.678989 0.882983 0.121135
O O3 0.666503 0.031752 0.217505
O O4 0.724824 0.000000 0.000000
O O5 0.500000 0.141866 0.386192
O O6 0.565439 0.250000 0.471739
O O7 0.597479 0.129629 0.325640
O O8 0.567447 0.103971 0.573101
O O9 0.928930 0.506421 0.285217
O O10 0.895028 0.389550 0.438536
O O11 0.088713 0.837919 0.316004
O O12 0.000000 0.887044 0.269016
O O13 0.643195 0.750000 0.018037
#
# Coordination Sequence:
#
# PCOD8299673 Si02
#       5
#    16  16  16  16  16
#     4   9  20  37  57  79 102 132 171 216 264 314
#     4  10  20  33  51  78 111 144 177 216 260 303
#     4  10  20  35  55  77 104 139 178 215 256 311
#     4  10  20  34  51  75 108 143 180 218 255 302
#     4  10  21  36  54  78 107 138 172 215 264 309
#
# _framework density 18.462218
#
# number of rings (size 3 to 8) (size 9 to 14) (size 15 to 20)
#    0.000    2.200    0.000    4.200    0.000    8.800 
#    0.000    0.000    0.000   17.400    0.000    0.000 
#    0.000    0.000    0.000    0.000    0.000    0.000 
#
# Total GULP energy -496008.283430 kJ/mol
# GULP energy per Si atom -12400.207086 kJ/mol
# Density = 1.842020 g / cm^3
# Si number density = 18.462218 Si / 1000 Ang^3
#
#
#
# Elastic Constant Matrix: (Units=GPa)
#
#
# Indices 1 2 3 4 5 6 
#
# 1 88.4746 38.3267 71.0212 0.0000 0.0000 0.0000
# 2 38.3267 106.2939 47.6268 0.0000 0.0000 0.0000
# 3 71.0212 47.6268 110.7327 0.0000 0.0000 0.0000
# 4 0.0000 0.0000 0.0000 29.2899 0.0000 0.0000
# 5 0.0000 0.0000 0.0000 0.0000 40.7349 0.0000
# 6 0.0000 0.0000 0.0000 0.0000 0.0000 7.4855
#
#
#
# Elastic Compliance Matrix: (Units=1/GPa)
#
#
# Indices 1 2 3 4 5 6 
#
# 1 0.023687 -0.002148 -0.014268 0.000000 0.000000 0.000000
# 2 -0.002148 0.011848 -0.003719 0.000000 0.000000 0.000000
# 3 -0.014268 -0.003719 0.019782 0.000000 0.000000 0.000000
# 4 0.000000 0.000000 0.000000 0.034141 0.000000 0.000000
# 5 0.000000 0.000000 0.000000 0.000000 0.024549 0.000000
# 6 0.000000 0.000000 0.000000 0.000000 0.000000 0.133592
#
#
# Mechanical properties :
#
#
# Convention : Reuss Voigt Hill
#
# Bulk Modulus (GPa) = 66.45654 68.82783 67.64219
# Shear Modulus (GPa) = 17.07159 25.40382 21.23771
#
# Velocity S-wave (km/s) = 3.04415 3.71346 3.39534
# Velocity P-wave (km/s) = 6.95916 7.46644 7.21726
#
# Compressibility (1/GPa) = 0.01504743
#
# Stress axis : x y z
#
# Youngs Moduli (GPa) = 42.21793 84.39914 50.55222
#
# Poissons Ratio (x) = 0.18126 0.72130
# Poissons Ratio (y) = 0.09067 0.18799
# Poissons Ratio (z) = 0.60238 0.31385
#
# Static dielectric constant tensor:
#      x y z
#    x 3.209090 0.000000 0.000000 
#    y 0.000000 3.405010 0.000000 
#    z 0.000000 0.000000 3.492480 
# 
# 
# High freq. dielectric constant tensor:
#      x y z
#    x 1.697930 0.000000 0.000000 
#    y 0.000000 1.720540 0.000000 
#    z 0.000000 0.000000 1.723540 
# 
# From -- ./inp_files/10899.got.cif
#   From: 2010.03.12/outbox.cif.g09.slc.cpg/sg74_6_cif.got.tgz:10899.got - 2010.04.16 15:46:19.
