data_PCOD8299566
_publ_section_title
;
Structure prediction by ZEFSAII (Michael W. Deem and Ramdas Pophale) SiO2 
 PCOD8299566
Probable space group: I M M A
;
_chemical_formula_sum "Si O2"
_cell_formula_units_Z 88
_cell_length_a 8.971001
_cell_length_b 16.510906
_cell_length_c 30.590412
_cell_angle_alpha 90.000000
_cell_angle_beta 90.000000
_cell_angle_gamma 90.000000
_cell_volume 4531.032071
_symmetry_space_group_name_H-M "I M M A"
_symmetry_group_IT_number 74
_symmetry_cell_setting 'orthorhombic'
loop_
_space_group_symop_operation_xyz
x,y,z
-x,1/2-y,z
x,-y,-z
-x,1/2+y,-z
-x,-y,-z
x,1/2+y,-z
-x,y,z
x,1/2-y,z
1/2+x,1/2+y,1/2+z
1/2-x,-y,1/2+z
1/2+x,1/2-y,1/2-z
1/2-x,y,1/2-z
1/2-x,1/2-y,1/2-z
1/2+x,y,1/2-z
1/2-x,1/2+y,1/2+z
1/2+x,-y,1/2+z
loop_
_atom_site_type_symbol
_atom_site_label
_atom_site_fract_x
_atom_site_fract_y
_atom_site_fract_z
Si Si1 0.820511 0.750000 0.298427
Si Si2 0.674845 0.620696 0.360846
Si Si3 0.328429 0.933178 0.632613
Si Si4 0.837961 0.655747 0.045345
Si Si5 0.828359 0.156327 0.292022
Si Si6 0.322872 0.658810 0.547839
O O1 0.750000 0.750000 0.250000
O O2 0.765465 0.669890 0.324172
O O3 0.000000 0.750000 0.295134
O O4 0.500000 0.646061 0.358262
O O5 0.697528 0.525736 0.354355
O O6 0.746507 0.639032 0.408918
O O7 0.500000 0.908293 0.638976
O O8 0.226516 0.881761 0.663753
O O9 0.275725 0.908199 0.583716
O O10 0.862367 0.750000 0.039430
O O11 0.000000 0.611982 0.049925
O O12 0.757852 0.628457 0.999746
O O13 0.787652 0.250000 0.294598
O O14 0.750000 0.116087 0.250000
O O15 0.000000 0.138809 0.286322
O O16 0.500000 0.661766 0.542761
O O17 0.265233 0.750000 0.560248
#
# Coordination Sequence:
#
# PCOD8299566 Si02
#       6
#     8  16  16  16  16  16
#     4  12  26  44  66  86 106 138 184 238 293 348
#     4  10  20  36  58  84 114 147 182 225 281 336
#     4  10  20  32  52  84 119 149 180 226 277 328
#     4   8  13  25  49  77 110 149 185 224 267 316
#     4  10  21  37  57  78 103 141 185 226 273 327
#     4   8  14  25  45  79 118 153 187 223 264 310
#
# _framework density 19.421623
#
# number of rings (size 3 to 8) (size 9 to 14) (size 15 to 20)
#    0.000    2.545    0.909    3.000    0.000    4.000 
#    0.000    3.636    0.000    1.091    0.000    2.545 
#    0.000    0.000    0.000    0.000    0.000    0.000 
#
# Total GULP energy -545104.955524 kJ/mol
# GULP energy per Si atom -12388.748989 kJ/mol
# Density = 1.937742 g / cm^3
# Si number density = 19.421623 Si / 1000 Ang^3
#
#
#
# Elastic Constant Matrix: (Units=GPa)
#
#
# Indices 1 2 3 4 5 6 
#
# 1 82.7413 27.6627 64.2993 0.0000 0.0000 0.0000
# 2 27.6627 75.1659 50.9239 0.0000 0.0000 0.0000
# 3 64.2993 50.9239 183.7646 0.0000 0.0000 0.0000
# 4 0.0000 0.0000 0.0000 -0.8320 0.0000 0.0000
# 5 0.0000 0.0000 0.0000 0.0000 22.3454 0.0000
# 6 0.0000 0.0000 0.0000 0.0000 0.0000 19.4075
#
#
#
# Elastic Compliance Matrix: (Units=1/GPa)
#
#
# Indices 1 2 3 4 5 6 
#
# 1 0.017049 -0.002749 -0.005204 0.000000 0.000000 0.000000
# 2 -0.002749 0.016822 -0.003700 0.000000 0.000000 0.000000
# 3 -0.005204 -0.003700 0.008288 0.000000 0.000000 0.000000
# 4 0.000000 0.000000 0.000000 -1.201940 0.000000 0.000000
# 5 0.000000 0.000000 0.000000 0.000000 0.044752 0.000000
# 6 0.000000 0.000000 0.000000 0.000000 0.000000 0.051526
#
#
# Mechanical properties :
#
#
# Convention : Reuss Voigt Hill
#
# Bulk Modulus (GPa) = 53.03932 69.71595 61.37763
# Shear Modulus (GPa) = -4.83599 21.43657 8.30029
#
# Velocity S-wave (km/s) = -1.57969 3.32587 2.06954
# Velocity P-wave (km/s) = 4.90321 7.12198 6.11408
#
# Compressibility (1/GPa) = 0.01885394
#
# Stress axis : x y z
#
# Youngs Moduli (GPa) = 58.65556 59.44542 120.65999
#
# Poissons Ratio (x) = 0.16341 0.62786
# Poissons Ratio (y) = 0.16124 0.44642
# Poissons Ratio (z) = 0.30522 0.21994
#
# Static dielectric constant tensor:
#      x y z
#    x 3.114330 0.000000 0.000000 
#    y 0.000000 3.437780 0.000000 
#    z 0.000000 0.000000 3.990700 
# 
# 
# High freq. dielectric constant tensor:
#      x y z
#    x 1.699320 0.000000 0.000000 
#    y 0.000000 1.745730 0.000000 
#    z 0.000000 0.000000 1.780810 
# 
# From -- ./inp_files/70224.got.cif
#   From: 2010.03.12/outbox.cif.g09.slc.cpg/sg74_36_cif.got.tgz:70224.got - 2010.04.16 15:46:19.
