data_PCOD8299458
_publ_section_title
;
Structure prediction by ZEFSAII (Michael W. Deem and Ramdas Pophale) SiO2 
 PCOD8299458
Probable space group: I M M A
;
_chemical_formula_sum "Si O2"
_cell_formula_units_Z 96
_cell_length_a 19.522902
_cell_length_b 9.061104
_cell_length_c 30.893425
_cell_angle_alpha 90.000000
_cell_angle_beta 90.000000
_cell_angle_gamma 90.000000
_cell_volume 5465.017392
_symmetry_space_group_name_H-M "I M M A"
_symmetry_group_IT_number 74
_symmetry_cell_setting 'orthorhombic'
loop_
_space_group_symop_operation_xyz
x,y,z
-x,1/2-y,z
x,-y,-z
-x,1/2+y,-z
-x,-y,-z
x,1/2+y,-z
-x,y,z
x,1/2-y,z
1/2+x,1/2+y,1/2+z
1/2-x,-y,1/2+z
1/2+x,1/2-y,1/2-z
1/2-x,y,1/2-z
1/2-x,1/2-y,1/2-z
1/2+x,y,1/2-z
1/2-x,1/2+y,1/2+z
1/2+x,-y,1/2+z
loop_
_atom_site_type_symbol
_atom_site_label
_atom_site_fract_x
_atom_site_fract_y
_atom_site_fract_z
Si Si1 0.824339 0.075634 0.702589
Si Si2 0.078721 0.576174 0.372330
Si Si3 0.580086 0.422176 0.371210
Si Si4 0.581568 0.584023 0.958257
Si Si5 0.330245 0.424756 0.700329
Si Si6 0.418471 0.916920 0.457710
O O1 0.827802 0.250000 0.703414
O O2 0.877898 0.012035 0.667814
O O3 0.747648 0.028661 0.689186
O O4 0.845001 0.021558 0.750542
O O5 0.088514 0.750000 0.378504
O O6 0.107141 0.498735 0.415373
O O7 0.000000 0.535148 0.363465
O O8 0.500000 0.453216 0.364503
O O9 0.595846 0.250000 0.375490
O O10 0.618555 0.488114 0.330195
O O11 0.607506 0.500255 0.414741
O O12 0.500000 0.583083 0.960037
O O13 0.610288 0.750000 0.958130
O O14 0.611711 0.500000 0.000000
O O15 0.341770 0.250000 0.694667
O O16 0.500000 0.918037 0.459232
O O17 0.390226 0.750000 0.457282
O O18 0.389049 0.000000 0.500000
#
# Coordination Sequence:
#
# PCOD8299458 Si02
#       6
#    16  16  16  16  16  16
#     4   8  16  31  50  71  94 122 157 196 236 280
#     4   9  16  27  45  69  95 122 152 187 229 275
#     4  10  20  32  46  69 100 128 157 197 240 279
#     4   9  16  26  41  63  91 121 152 186 225 270
#     4   9  17  32  52  70  91 123 162 198 234 280
#     4   9  16  27  45  69  96 126 158 191 231 280
#
# _framework density 17.566275000000001
#
# number of rings (size 3 to 8) (size 9 to 14) (size 15 to 20)
#    0.000    3.000    0.000    2.500    0.000    5.667 
#    0.000    5.000    0.000    3.000    0.000    4.667 
#    0.000    0.000    0.000    0.000    0.000    0.000 
#
# Total GULP energy -595086.195854 kJ/mol
# GULP energy per Si atom -12397.629080 kJ/mol
# Density = 1.752629 g / cm^3
# Si number density = 17.566275 Si / 1000 Ang^3
#
#
#
# Elastic Constant Matrix: (Units=GPa)
#
#
# Indices 1 2 3 4 5 6 
#
# 1 51.3680 36.8074 64.8830 0.0000 0.0000 0.0000
# 2 36.8074 95.9579 71.6685 0.0000 0.0000 0.0000
# 3 64.8830 71.6685 174.0451 0.0000 0.0000 0.0000
# 4 0.0000 0.0000 0.0000 32.5921 0.0000 0.0000
# 5 0.0000 0.0000 0.0000 0.0000 3.7263 0.0000
# 6 0.0000 0.0000 0.0000 0.0000 0.0000 14.9252
#
#
#
# Elastic Compliance Matrix: (Units=1/GPa)
#
#
# Indices 1 2 3 4 5 6 
#
# 1 0.038990 -0.005921 -0.012097 0.000000 0.000000 0.000000
# 2 -0.005921 0.015949 -0.004360 0.000000 0.000000 0.000000
# 3 -0.012097 -0.004360 0.012051 0.000000 0.000000 0.000000
# 4 0.000000 0.000000 0.000000 0.030682 0.000000 0.000000
# 5 0.000000 0.000000 0.000000 0.000000 0.268361 0.000000
# 6 0.000000 0.000000 0.000000 0.000000 0.000000 0.067001
#
#
# Mechanical properties :
#
#
# Convention : Reuss Voigt Hill
#
# Bulk Modulus (GPa) = 44.97745 74.23211 59.60478
# Shear Modulus (GPa) = 10.30502 20.11619 15.21060
#
# Velocity S-wave (km/s) = 2.42469 3.38769 2.94581
# Velocity P-wave (km/s) = 5.78782 7.59289 6.75096
#
# Compressibility (1/GPa) = 0.02223336
#
# Stress axis : x y z
#
# Youngs Moduli (GPa) = 25.64787 62.70059 82.98163
#
# Poissons Ratio (x) = 0.37122 1.00384
# Poissons Ratio (y) = 0.15185 0.36182
# Poissons Ratio (z) = 0.31027 0.27339
#
# Static dielectric constant tensor:
#      x y z
#    x 3.026490 0.000000 0.000000 
#    y 0.000000 3.181600 0.000000 
#    z 0.000000 0.000000 3.634520 
# 
# 
# High freq. dielectric constant tensor:
#      x y z
#    x 1.635380 0.000000 0.000000 
#    y 0.000000 1.668750 0.000000 
#    z 0.000000 0.000000 1.694870 
# 
# From -- ./inp_files/68104.got.cif
#   From: 2010.03.12/outbox.cif.g09.slc.cpg/sg74_35_cif.got.tgz:68104.got - 2010.04.16 15:46:19.
