data_PCOD8299943
_publ_section_title
;
Structure prediction by ZEFSAII (Michael W. Deem and Ramdas Pophale) SiO2 
 PCOD8299943
Probable space group: I M M A
;
_chemical_formula_sum "Si O2"
_cell_formula_units_Z 112
_cell_length_a 15.362862
_cell_length_b 28.823690
_cell_length_c 12.018994
_cell_angle_alpha 90.000000
_cell_angle_beta 90.000000
_cell_angle_gamma 90.000000
_cell_volume 5322.183278
_symmetry_space_group_name_H-M "I M M A"
_symmetry_group_IT_number 74
_symmetry_cell_setting 'orthorhombic'
loop_
_space_group_symop_operation_xyz
x,y,z
-x,1/2-y,z
x,-y,-z
-x,1/2+y,-z
-x,-y,-z
x,1/2+y,-z
-x,y,z
x,1/2-y,z
1/2+x,1/2+y,1/2+z
1/2-x,-y,1/2+z
1/2+x,1/2-y,1/2-z
1/2-x,y,1/2-z
1/2-x,1/2-y,1/2-z
1/2+x,y,1/2-z
1/2-x,1/2+y,1/2+z
1/2+x,-y,1/2+z
loop_
_atom_site_type_symbol
_atom_site_label
_atom_site_fract_x
_atom_site_fract_y
_atom_site_fract_z
Si Si1 0.703542 0.145684 0.634102
Si Si2 0.602447 0.802152 0.532567
Si Si3 0.185992 0.458583 0.150918
Si Si4 0.899999 0.629466 0.773203
Si Si5 0.097909 0.539778 0.427139
Si Si6 0.313108 0.388723 0.050782
Si Si7 0.104644 0.051478 0.821740
O O1 0.750000 0.158415 0.750000
O O2 0.637483 0.185227 0.591019
O O3 0.778023 0.147185 0.539672
O O4 0.650618 0.097546 0.634119
O O5 0.500000 0.807023 0.526552
O O6 0.630874 0.750000 0.563992
O O7 0.637369 0.837347 0.628707
O O8 0.250000 0.471760 0.250000
O O9 0.108500 0.424350 0.192321
O O10 0.240887 0.429792 0.060562
O O11 0.139618 0.506397 0.109546
O O12 0.839189 0.637327 0.664499
O O13 0.000000 0.641250 0.745725
O O14 0.146731 0.500000 0.500000
O O15 0.101875 0.587557 0.495933
O O16 0.138814 0.545281 0.305122
O O17 0.000000 0.523707 0.407490
O O18 0.000000 0.056459 0.833231
#
# Coordination Sequence:
#
# PCOD8299943 Si02
#       7
#    16  16  16  16  16  16  16
#     4  12  24  41  63  91 128 166 214 256 306 366
#     4  10  23  46  73  97 124 159 199 254 323 388
#     4  10  20  34  56  84 125 161 205 257 308 356
#     4  10  20  39  64  92 121 158 206 255 315 382
#     4  10  20  34  54  81 119 170 219 257 301 359
#     4  11  22  36  57  88 128 160 209 256 318 354
#     4  11  23  38  55  85 125 173 221 258 300 365
#
# _framework density 21.043994999999999
#
# number of rings (size 3 to 8) (size 9 to 14) (size 15 to 20)
#    0.000    1.429    2.857    3.429    2.000    1.429 
#    0.000    2.143    0.000    0.000    0.000    2.000 
#    0.000    0.000    0.000    0.000    0.000    0.000 
#
# Total GULP energy -693976.919722 kJ/mol
# GULP energy per Si atom -12392.444995 kJ/mol
# Density = 2.099610 g / cm^3
# Si number density = 21.043995 Si / 1000 Ang^3
#
#
#
# Elastic Constant Matrix: (Units=GPa)
#
#
# Indices 1 2 3 4 5 6 
#
# 1 58.2921 31.6648 41.3689 -0.0012 0.0003 0.0001
# 2 31.6648 98.6731 41.3555 -0.0013 0.0000 0.0001
# 3 41.3689 41.3555 114.9126 0.0008 0.0000 0.0004
# 4 -0.0012 -0.0013 0.0008 23.1611 0.0000 0.0004
# 5 0.0003 0.0000 0.0000 0.0000 30.4543 -0.0003
# 6 0.0001 0.0001 0.0004 0.0004 -0.0003 20.1522
#
#
#
# Elastic Compliance Matrix: (Units=1/GPa)
#
#
# Indices 1 2 3 4 5 6 
#
# 1 0.024975 -0.005001 -0.007191 0.000001 0.000000 0.000000
# 2 -0.005001 0.012936 -0.002855 0.000001 0.000000 0.000000
# 3 -0.007191 -0.002855 0.012319 -0.000001 0.000000 0.000000
# 4 0.000001 0.000001 -0.000001 0.043176 0.000000 -0.000001
# 5 0.000000 0.000000 0.000000 0.000000 0.032836 0.000000
# 6 0.000000 0.000000 0.000000 -0.000001 0.000000 0.049622
#
#
# Mechanical properties :
#
#
# Convention : Reuss Voigt Hill
#
# Bulk Modulus (GPa) = 49.66442 55.62847 52.64644
# Shear Modulus (GPa) = 23.51062 25.25278 24.38170
#
# Velocity S-wave (km/s) = 3.34610 3.46786 3.40752
# Velocity P-wave (km/s) = 6.21128 6.52123 6.36814
#
# Compressibility (1/GPa) = 0.02013514
#
# Stress axis : x y z
#
# Youngs Moduli (GPa) = 40.04013 77.30455 81.17706
#
# Poissons Ratio (x) = 0.38657 0.58378
# Poissons Ratio (y) = 0.20022 0.23178
# Poissons Ratio (z) = 0.28795 0.22072
#
# Static dielectric constant tensor:
#      x y z
#    x 3.754670 0.000000 0.000000 
#    y 0.000000 3.596540 0.000000 
#    z 0.000000 0.000000 3.991050 
# 
# 
# High freq. dielectric constant tensor:
#      x y z
#    x 1.828790 0.000000 0.000000 
#    y 0.000000 1.783510 0.000000 
#    z 0.000000 0.000000 1.831410 
# 
# From -- ./inp_files/21113.got.cif
#   From: 2010.03.12/outbox.cif.g09.slc.cpg/sg74_11_cif.got.tgz:21113.got - 2010.04.16 15:46:19.
