data_PCOD8299121
_publ_section_title
;
Structure prediction by ZEFSAII (Michael W. Deem and Ramdas Pophale) SiO2 
 PCOD8299121
Probable space group: I M M A
;
_chemical_formula_sum "Si O2"
_cell_formula_units_Z 88
_cell_length_a 12.673241
_cell_length_b 17.076114
_cell_length_c 22.747070
_cell_angle_alpha 90.000000
_cell_angle_beta 90.000000
_cell_angle_gamma 90.000000
_cell_volume 4922.686778
_symmetry_space_group_name_H-M "I M M A"
_symmetry_group_IT_number 74
_symmetry_cell_setting 'orthorhombic'
loop_
_space_group_symop_operation_xyz
x,y,z
-x,1/2-y,z
x,-y,-z
-x,1/2+y,-z
-x,-y,-z
x,1/2+y,-z
-x,y,z
x,1/2-y,z
1/2+x,1/2+y,1/2+z
1/2-x,-y,1/2+z
1/2+x,1/2-y,1/2-z
1/2-x,y,1/2-z
1/2-x,1/2-y,1/2-z
1/2+x,y,1/2-z
1/2-x,1/2+y,1/2+z
1/2+x,-y,1/2+z
loop_
_atom_site_type_symbol
_atom_site_label
_atom_site_fract_x
_atom_site_fract_y
_atom_site_fract_z
Si Si1 0.000000 0.334713 0.137454
Si Si2 0.379550 0.417812 0.892126
Si Si3 0.876703 0.250000 0.447139
Si Si4 0.230479 0.000000 0.500000
Si Si5 0.213339 0.620215 0.913949
Si Si6 0.684307 0.454743 0.192727
Si Si7 0.879885 0.250000 0.586712
Si Si8 0.000000 0.345516 0.266864
O O1 0.898975 0.340012 0.095373
O O2 0.000000 0.380731 0.199665
O O3 0.000000 0.250000 0.165916
O O4 0.500000 0.402193 0.907191
O O5 0.369590 0.465336 0.831003
O O6 0.325495 0.330585 0.888753
O O7 0.339431 0.467921 0.946920
O O8 0.815059 0.175292 0.421997
O O9 0.870233 0.250000 0.516696
O O10 0.000000 0.250000 0.425881
O O11 0.302554 0.067924 0.472352
O O12 0.231130 0.569898 0.855781
O O13 0.750000 0.476758 0.250000
O O14 0.603158 0.383075 0.202805
O O15 0.000000 0.250000 0.608088
O O16 0.000000 0.250000 0.275540
#
# Coordination Sequence:
#
# PCOD8299121 Si02
#       8
#     8  16   8   8  16  16   8   8
#     4  11  22  39  57  77 109 152 200 231 259 334
#     4  10  19  34  57  82 115 149 185 234 291 349
#     4  11  22  35  54  85 121 147 181 234 285 341
#     4  10  21  33  52  84 114 148 183 231 284 342
#     4  11  23  36  57  81 113 152 190 227 283 338
#     4  11  23  38  55  82 113 148 194 236 288 335
#     4   9  18  34  56  85 115 145 180 230 293 348
#     4  11  24  38  55  77 113 155 190 236 279 334
#
# _framework density 17.876417
#
# number of rings (size 3 to 8) (size 9 to 14) (size 15 to 20)
#    0.000    1.455    5.455    0.273    2.545    1.455 
#    0.000    0.455    0.000    0.000    0.000    0.000 
#    0.000    0.000    0.000    0.000    0.000    0.000 
#
# Total GULP energy -545110.682992 kJ/mol
# GULP energy per Si atom -12388.879159 kJ/mol
# Density = 1.783573 g / cm^3
# Si number density = 17.876417 Si / 1000 Ang^3
#
#
#
# Elastic Constant Matrix: (Units=GPa)
#
#
# Indices 1 2 3 4 5 6 
#
# 1 83.4297 25.6497 29.6890 0.0000 0.0000 0.0000
# 2 25.6497 116.8473 45.4926 0.0000 0.0000 0.0000
# 3 29.6890 45.4926 95.7028 0.0000 0.0000 0.0000
# 4 0.0000 0.0000 0.0000 29.5947 0.0000 0.0000
# 5 0.0000 0.0000 0.0000 0.0000 -40.7584 0.0000
# 6 0.0000 0.0000 0.0000 0.0000 0.0000 19.6602
#
#
#
# Elastic Compliance Matrix: (Units=1/GPa)
#
#
# Indices 1 2 3 4 5 6 
#
# 1 0.013732 -0.001664 -0.003469 0.000000 0.000000 0.000000
# 2 -0.001664 0.010703 -0.004572 0.000000 0.000000 0.000000
# 3 -0.003469 -0.004572 0.013698 0.000000 0.000000 0.000000
# 4 0.000000 0.000000 0.000000 0.033790 0.000000 0.000000
# 5 0.000000 0.000000 0.000000 0.000000 -0.024535 0.000000
# 6 0.000000 0.000000 0.000000 0.000000 0.000000 0.050864
#
#
# Mechanical properties :
#
#
# Convention : Reuss Voigt Hill
#
# Bulk Modulus (GPa) = 53.40553 55.29360 54.34957
# Shear Modulus (GPa) = 40.35383 14.70919 27.53151
#
# Velocity S-wave (km/s) = 4.75634 2.87161 3.92867
# Velocity P-wave (km/s) = 7.75264 6.48020 7.14480
#
# Compressibility (1/GPa) = 0.01872465
#
# Stress axis : x y z
#
# Youngs Moduli (GPa) = 72.82177 93.42892 73.00123
#
# Poissons Ratio (x) = 0.15544 0.25325
# Poissons Ratio (y) = 0.12116 0.33374
# Poissons Ratio (z) = 0.25263 0.42713
#
# Static dielectric constant tensor:
#      x y z
#    x 3.113450 0.000000 0.000000 
#    y 0.000000 3.695730 0.000000 
#    z 0.000000 0.000000 3.337040 
# 
# 
# High freq. dielectric constant tensor:
#      x y z
#    x 1.668570 0.000000 0.000000 
#    y 0.000000 1.697080 0.000000 
#    z 0.000000 0.000000 1.690640 
# 
# From -- ./inp_files/50582.got.cif
#   From: 2010.03.12/outbox.cif.g09.slc.cpg/sg74_26_cif.got.tgz:50582.got - 2010.04.16 15:46:19.
