data_PCOD8299412
_publ_section_title
;
Structure prediction by ZEFSAII (Michael W. Deem and Ramdas Pophale) SiO2 
 PCOD8299412
Probable space group: I M M A
;
_chemical_formula_sum "Si O2"
_cell_formula_units_Z 112
_cell_length_a 27.266227
_cell_length_b 14.025498
_cell_length_c 14.602424
_cell_angle_alpha 90.000000
_cell_angle_beta 90.000000
_cell_angle_gamma 90.000000
_cell_volume 5584.294211
_symmetry_space_group_name_H-M "I M M A"
_symmetry_group_IT_number 74
_symmetry_cell_setting 'orthorhombic'
loop_
_space_group_symop_operation_xyz
x,y,z
-x,1/2-y,z
x,-y,-z
-x,1/2+y,-z
-x,-y,-z
x,1/2+y,-z
-x,y,z
x,1/2-y,z
1/2+x,1/2+y,1/2+z
1/2-x,-y,1/2+z
1/2+x,1/2-y,1/2-z
1/2-x,y,1/2-z
1/2-x,1/2-y,1/2-z
1/2+x,y,1/2-z
1/2-x,1/2+y,1/2+z
1/2+x,-y,1/2+z
loop_
_atom_site_type_symbol
_atom_site_label
_atom_site_fract_x
_atom_site_fract_y
_atom_site_fract_z
Si Si1 0.663080 0.138479 0.464970
Si Si2 0.867132 0.042258 0.856507
Si Si3 0.650347 0.090837 0.058196
Si Si4 0.946479 0.638758 0.467812
Si Si5 0.557846 0.140571 0.763656
Si Si6 0.235404 0.852721 0.451890
Si Si7 0.296839 0.506048 0.205437
O O1 0.655351 0.250000 0.437820
O O2 0.635509 0.115469 0.559601
O O3 0.720420 0.111522 0.481368
O O4 0.639680 0.068885 0.387351
O O5 0.918767 0.065384 0.807253
O O6 0.825048 0.066826 0.782608
O O7 0.664720 0.071164 0.163891
O O8 0.592549 0.112246 0.046616
O O9 0.687094 0.167882 0.014686
O O10 0.665444 0.000000 0.000000
O O11 0.953243 0.750000 0.462907
O O12 0.927968 0.605637 0.367198
O O13 0.000000 0.593748 0.492179
O O14 0.500000 0.135304 0.750855
O O15 0.575967 0.250000 0.747628
O O16 0.250787 0.750000 0.410805
O O17 0.225558 0.923129 0.369075
O O18 0.250000 0.451913 0.250000
#
# Coordination Sequence:
#
# PCOD8299412 Si02
#       7
#    16  16  16  16  16  16  16
#     4  10  22  38  56  80 110 152 195 237 293 351
#     4  11  21  36  60  82 110 152 189 242 289 342
#     4  10  20  31  50  78 113 150 183 223 270 336
#     4   9  18  35  58  84 116 149 183 229 281 335
#     4   9  18  34  59  92 123 148 184 235 289 343
#     4  10  20  34  53  78 112 149 187 233 283 343
#     4  11  21  34  53  82 114 149 189 234 282 335
#
# _framework density 20.056249999999999
#
# number of rings (size 3 to 8) (size 9 to 14) (size 15 to 20)
#    0.000    2.000    1.429    4.286    4.000    2.857 
#    0.000    3.571    0.000    5.143    0.000    0.000 
#    0.000    1.143    0.000    0.000    0.000    0.000 
#
# Total GULP energy -693736.219743 kJ/mol
# GULP energy per Si atom -12388.146781 kJ/mol
# Density = 2.001060 g / cm^3
# Si number density = 20.056250 Si / 1000 Ang^3
#
#
#
# Elastic Constant Matrix: (Units=GPa)
#
#
# Indices 1 2 3 4 5 6 
#
# 1 119.3070 33.0039 61.0594 0.0000 0.0000 0.0000
# 2 33.0039 90.6612 32.6335 0.0000 0.0000 0.0000
# 3 61.0594 32.6335 83.3300 0.0000 0.0000 0.0000
# 4 0.0000 0.0000 0.0000 12.8524 0.0000 0.0000
# 5 0.0000 0.0000 0.0000 0.0000 97.1429 0.0000
# 6 0.0000 0.0000 0.0000 0.0000 0.0000 24.6854
#
#
#
# Elastic Compliance Matrix: (Units=1/GPa)
#
#
# Indices 1 2 3 4 5 6 
#
# 1 0.013605 -0.001588 -0.009347 0.000000 0.000000 0.000000
# 2 -0.001588 0.013025 -0.003937 0.000000 0.000000 0.000000
# 3 -0.009347 -0.003937 0.020391 0.000000 0.000000 0.000000
# 4 0.000000 0.000000 0.000000 0.077807 0.000000 0.000000
# 5 0.000000 0.000000 0.000000 0.000000 0.010294 0.000000
# 6 0.000000 0.000000 0.000000 0.000000 0.000000 0.040510
#
#
# Mechanical properties :
#
#
# Convention : Reuss Voigt Hill
#
# Bulk Modulus (GPa) = 57.88094 60.74352 59.31223
# Shear Modulus (GPa) = 23.68157 38.04289 30.86223
#
# Velocity S-wave (km/s) = 3.43994 4.35996 3.92699
# Velocity P-wave (km/s) = 6.68577 7.46311 7.08511
#
# Compressibility (1/GPa) = 0.01727684
#
# Stress axis : x y z
#
# Youngs Moduli (GPa) = 73.50478 76.77271 49.04111
#
# Poissons Ratio (x) = 0.12193 0.45837
# Poissons Ratio (y) = 0.11674 0.19309
# Poissons Ratio (z) = 0.68702 0.30227
#
# Static dielectric constant tensor:
#      x y z
#    x 3.271690 0.000000 0.000000 
#    y 0.000000 3.551060 0.000000 
#    z 0.000000 0.000000 3.805950 
# 
# 
# High freq. dielectric constant tensor:
#      x y z
#    x 1.780510 0.000000 0.000000 
#    y 0.000000 1.769360 0.000000 
#    z 0.000000 0.000000 1.769430 
# 
# From -- ./inp_files/37369.got.cif
#   From: 2010.03.12/outbox.cif.g09.slc.cpg/sg74_19_cif.got.tgz:37369.got - 2010.04.16 15:46:19.
