data_PCOD8299878
_publ_section_title
;
Structure prediction by ZEFSAII (Michael W. Deem and Ramdas Pophale) SiO2 
 PCOD8299878
Probable space group: I M M A
;
_chemical_formula_sum "Si O2"
_cell_formula_units_Z 72
_cell_length_a 9.048440
_cell_length_b 17.699031
_cell_length_c 23.682206
_cell_angle_alpha 90.000000
_cell_angle_beta 90.000000
_cell_angle_gamma 90.000000
_cell_volume 3792.672611
_symmetry_space_group_name_H-M "I M M A"
_symmetry_group_IT_number 74
_symmetry_cell_setting 'orthorhombic'
loop_
_space_group_symop_operation_xyz
x,y,z
-x,1/2-y,z
x,-y,-z
-x,1/2+y,-z
-x,-y,-z
x,1/2+y,-z
-x,y,z
x,1/2-y,z
1/2+x,1/2+y,1/2+z
1/2-x,-y,1/2+z
1/2+x,1/2-y,1/2-z
1/2-x,y,1/2-z
1/2-x,1/2-y,1/2-z
1/2+x,y,1/2-z
1/2-x,1/2+y,1/2+z
1/2+x,-y,1/2+z
loop_
_atom_site_type_symbol
_atom_site_label
_atom_site_fract_x
_atom_site_fract_y
_atom_site_fract_z
Si Si1 0.325893 0.750000 0.309899
Si Si2 0.171676 0.536334 0.690821
Si Si3 0.826250 0.583674 0.498487
Si Si4 0.829527 0.882347 0.372653
Si Si5 0.176273 0.834544 0.608752
O O1 0.500000 0.750000 0.301596
O O2 0.250000 0.750000 0.250000
O O3 0.278792 0.675298 0.342650
O O4 0.250000 0.524192 0.750000
O O5 0.203464 0.466025 0.649884
O O6 0.231873 0.611412 0.659412
O O7 0.000000 0.544294 0.703763
O O8 0.754746 0.500000 0.500000
O O9 0.791925 0.622571 0.438834
O O10 0.760414 0.634817 0.548970
O O11 0.000000 0.575228 0.508199
O O12 0.000000 0.859916 0.361282
O O13 0.237626 0.750000 0.619128
O O14 0.000000 0.834443 0.606872
#
# Coordination Sequence:
#
# PCOD8299878 Si02
#       5
#     8  16  16  16  16
#     4  12  26  42  58  80 114 150 187 232 281 336
#     4  10  20  34  53  78 108 142 183 228 272 323
#     4   9  15  28  52  83 113 139 176 225 274 322
#     4  10  20  35  58  86 112 142 183 231 280 331
#     4   9  17  29  48  79 113 142 177 227 274 314
#
# _framework density 18.983974
#
# number of rings (size 3 to 8) (size 9 to 14) (size 15 to 20)
#    0.000    2.222    2.222    1.667    1.556    3.111 
#    0.000    0.000    0.000    2.000    0.000    0.000 
#    0.000    0.000    0.000    0.000    0.000    0.000 
#
# Total GULP energy -446373.732358 kJ/mol
# GULP energy per Si atom -12399.270343 kJ/mol
# Density = 1.894077 g / cm^3
# Si number density = 18.983974 Si / 1000 Ang^3
#
#
#
# Elastic Constant Matrix: (Units=GPa)
#
#
# Indices 1 2 3 4 5 6 
#
# 1 51.1391 31.5080 29.1530 0.0000 0.0000 0.0000
# 2 31.5080 96.6336 15.0123 0.0000 0.0000 0.0000
# 3 29.1530 15.0123 87.0008 0.0000 0.0000 0.0000
# 4 0.0000 0.0000 0.0000 14.4183 0.0000 0.0000
# 5 0.0000 0.0000 0.0000 0.0000 19.9047 0.0000
# 6 0.0000 0.0000 0.0000 0.0000 0.0000 15.0759
#
#
#
# Elastic Compliance Matrix: (Units=1/GPa)
#
#
# Indices 1 2 3 4 5 6 
#
# 1 0.029485 -0.008301 -0.008448 0.000000 0.000000 0.000000
# 2 -0.008301 0.012971 0.000544 0.000000 0.000000 0.000000
# 3 -0.008448 0.000544 0.014231 0.000000 0.000000 0.000000
# 4 0.000000 0.000000 0.000000 0.069356 0.000000 0.000000
# 5 0.000000 0.000000 0.000000 0.000000 0.050239 0.000000
# 6 0.000000 0.000000 0.000000 0.000000 0.000000 0.066331
#
#
# Mechanical properties :
#
#
# Convention : Reuss Voigt Hill
#
# Bulk Modulus (GPa) = 41.19341 42.90225 42.04783
# Shear Modulus (GPa) = 17.66059 20.48646 19.07352
#
# Velocity S-wave (km/s) = 3.05337 3.28860 3.17317
# Velocity P-wave (km/s) = 5.84610 6.08836 5.96846
#
# Compressibility (1/GPa) = 0.02427573
#
# Stress axis : x y z
#
# Youngs Moduli (GPa) = 33.91555 77.09715 70.26883
#
# Poissons Ratio (x) = 0.64002 0.59361
# Poissons Ratio (y) = 0.28155 -0.03820
# Poissons Ratio (z) = 0.28651 -0.04191
#
# Static dielectric constant tensor:
#      x y z
#    x 2.933790 0.000000 0.000000 
#    y 0.000000 3.726700 0.000000 
#    z 0.000000 0.000000 3.677960 
# 
# 
# High freq. dielectric constant tensor:
#      x y z
#    x 1.675150 0.000000 0.000000 
#    y 0.000000 1.751110 0.000000 
#    z 0.000000 0.000000 1.753880 
# 
# From -- ./inp_files/56633.got.cif
#   From: 2010.03.12/outbox.cif.g09.slc.cpg/sg74_29_cif.got.tgz:56633.got - 2010.04.16 15:46:19.
