data_PCOD8299352
_publ_section_title
;
Structure prediction by ZEFSAII (Michael W. Deem and Ramdas Pophale) SiO2 
 PCOD8299352
Probable space group: I M M A
;
_chemical_formula_sum "Si O2"
_cell_formula_units_Z 32
_cell_length_a 11.494192
_cell_length_b 5.256322
_cell_length_c 23.635443
_cell_angle_alpha 90.000000
_cell_angle_beta 90.000000
_cell_angle_gamma 90.000000
_cell_volume 1427.986679
_symmetry_space_group_name_H-M "I M M A"
_symmetry_group_IT_number 74
_symmetry_cell_setting 'orthorhombic'
loop_
_space_group_symop_operation_xyz
x,y,z
-x,1/2-y,z
x,-y,-z
-x,1/2+y,-z
-x,-y,-z
x,1/2+y,-z
-x,y,z
x,1/2-y,z
1/2+x,1/2+y,1/2+z
1/2-x,-y,1/2+z
1/2+x,1/2-y,1/2-z
1/2-x,y,1/2-z
1/2-x,1/2-y,1/2-z
1/2+x,y,1/2-z
1/2-x,1/2+y,1/2+z
1/2+x,-y,1/2+z
loop_
_atom_site_type_symbol
_atom_site_label
_atom_site_fract_x
_atom_site_fract_y
_atom_site_fract_z
Si Si1 0.629935 0.250000 0.805889
Si Si2 0.362870 0.750000 0.860171
Si Si3 0.000000 0.750000 0.197050
Si Si4 0.286244 0.750000 0.537637
Si Si5 0.500000 0.250000 0.378181
O O1 0.500000 0.250000 0.832734
O O2 0.693739 0.502749 0.829409
O O3 0.617118 0.250000 0.737063
O O4 0.500000 0.750000 0.850845
O O5 0.333564 0.750000 0.926889
O O6 0.000000 0.499386 0.159966
O O7 0.294212 0.500000 0.500000
O O8 0.388266 0.750000 0.582748
#
# Coordination Sequence:
#
# PCOD8299352 Si02
#       5
#     8   8   4   8   4
#     4   8  17  34  62  88 128 151 181 246 299 373
#     4  10  19  38  64  89 124 155 192 247 310 362
#     4  10  20  39  68  92 124 155 206 238 306 378
#     4  12  26  43  62  87 121 164 213 254 296 344
#     4  12  24  43  62  88 122 165 208 252 290 354
#
# _framework density 22.40917
#
# number of rings (size 3 to 8) (size 9 to 14) (size 15 to 20)
#    0.750    1.000    0.000    5.250    0.000    1.000 
#    0.000    7.500    0.000    0.000    0.000    0.000 
#    0.000    0.000    0.000    0.000    0.000    0.000 
#
# Total GULP energy -198342.086753 kJ/mol
# GULP energy per Si atom -12396.380422 kJ/mol
# Density = 2.235817 g / cm^3
# Si number density = 22.409170 Si / 1000 Ang^3
#
#
#
# Elastic Constant Matrix: (Units=GPa)
#
#
# Indices 1 2 3 4 5 6 
#
# 1 13.2467 28.8216 26.6045 0.0000 0.0000 0.0000
# 2 28.8216 284.9708 130.9449 0.0000 0.0000 0.0000
# 3 26.6045 130.9449 183.7147 0.0000 0.0000 0.0000
# 4 0.0000 0.0000 0.0000 80.6444 0.0000 0.0000
# 5 0.0000 0.0000 0.0000 0.0000 55.6739 0.0000
# 6 0.0000 0.0000 0.0000 0.0000 0.0000 15.1645
#
#
#
# Elastic Compliance Matrix: (Units=1/GPa)
#
#
# Indices 1 2 3 4 5 6 
#
# 1 0.112526 -0.005789 -0.012169 0.000000 0.000000 0.000000
# 2 -0.005789 0.005516 -0.003093 0.000000 0.000000 0.000000
# 3 -0.012169 -0.003093 0.009410 0.000000 0.000000 0.000000
# 4 0.000000 0.000000 0.000000 0.012400 0.000000 0.000000
# 5 0.000000 0.000000 0.000000 0.000000 0.017962 0.000000
# 6 0.000000 0.000000 0.000000 0.000000 0.000000 0.065944
#
#
# Mechanical properties :
#
#
# Convention : Reuss Voigt Hill
#
# Bulk Modulus (GPa) = 11.71651 94.96380 53.34015
# Shear Modulus (GPa) = 16.98884 50.00063 33.49474
#
# Velocity S-wave (km/s) = 2.75639 4.72874 3.87031
# Velocity P-wave (km/s) = 3.92046 8.50199 6.62019
#
# Compressibility (1/GPa) = 0.08534965
#
# Stress axis : x y z
#
# Youngs Moduli (GPa) = 8.88681 181.29139 106.26701
#
# Poissons Ratio (x) = 1.04949 1.29319
# Poissons Ratio (y) = 0.05145 0.32871
# Poissons Ratio (z) = 0.10815 0.56078
#
# Static dielectric constant tensor:
#      x y z
#    x 3.804990 0.000000 0.000000 
#    y 0.000000 4.595900 0.000000 
#    z 0.000000 0.000000 4.010580 
# 
# 
# High freq. dielectric constant tensor:
#      x y z
#    x 1.865170 0.000000 0.000000 
#    y 0.000000 1.912560 0.000000 
#    z 0.000000 0.000000 1.885530 
# 
# From -- ./inp_files/41905.got.cif
#   From: 2010.03.12/outbox.cif.g09.slc.cpg/sg74_21_cif.got.tgz:41905.got - 2010.04.16 15:46:19.
