data_PCOD8299037
_publ_section_title
;
Structure prediction by ZEFSAII (Michael W. Deem and Ramdas Pophale) SiO2 
 PCOD8299037
Probable space group: I M M A
;
_chemical_formula_sum "Si O2"
_cell_formula_units_Z 88
_cell_length_a 27.862207
_cell_length_b 8.786310
_cell_length_c 19.349406
_cell_angle_alpha 90.000000
_cell_angle_beta 90.000000
_cell_angle_gamma 90.000000
_cell_volume 4736.850453
_symmetry_space_group_name_H-M "I M M A"
_symmetry_group_IT_number 74
_symmetry_cell_setting 'orthorhombic'
loop_
_space_group_symop_operation_xyz
x,y,z
-x,1/2-y,z
x,-y,-z
-x,1/2+y,-z
-x,-y,-z
x,1/2+y,-z
-x,y,z
x,1/2-y,z
1/2+x,1/2+y,1/2+z
1/2-x,-y,1/2+z
1/2+x,1/2-y,1/2-z
1/2-x,y,1/2-z
1/2-x,1/2-y,1/2-z
1/2+x,y,1/2-z
1/2-x,1/2+y,1/2+z
1/2+x,-y,1/2+z
loop_
_atom_site_type_symbol
_atom_site_label
_atom_site_fract_x
_atom_site_fract_y
_atom_site_fract_z
Si Si1 0.500000 0.428732 0.925778
Si Si2 0.274028 0.572102 0.425454
Si Si3 0.592924 0.429882 0.842411
Si Si4 0.879789 0.927855 0.074636
Si Si5 0.054039 0.931051 0.196134
Si Si6 0.679106 0.570165 0.923738
O O1 0.500000 0.250000 0.933257
O O2 0.546819 0.483370 0.885343
O O3 0.500000 0.500000 0.000000
O O4 0.277290 0.500000 0.500000
O O5 0.262146 0.750000 0.429596
O O6 0.326566 0.541658 0.392525
O O7 0.229225 0.487972 0.388726
O O8 0.602048 0.250000 0.848758
O O9 0.583649 0.481244 0.763676
O O10 0.638096 0.519994 0.871311
O O11 0.887361 0.750000 0.064125
O O12 0.918325 0.994785 0.128742
O O13 0.888073 0.000000 0.000000
O O14 0.051406 0.750000 0.194529
O O15 0.000000 0.998297 0.197285
O O16 0.679553 0.750000 0.931329
O O17 0.670977 0.500000 0.000000
#
# Coordination Sequence:
#
# PCOD8299037 Si02
#       6
#     8  16  16  16  16  16
#     4  10  20  32  50  74  97 128 170 212 253 296
#     4   9  16  29  49  74 103 134 169 211 257 304
#     4  10  19  34  53  74 101 136 176 214 256 304
#     4   9  18  32  54  82 107 134 171 213 258 308
#     4   9  17  33  56  78 103 138 176 214 257 307
#     4  11  21  33  51  76 104 136 173 214 259 307
#
# _framework density 18.577746000000001
#
# number of rings (size 3 to 8) (size 9 to 14) (size 15 to 20)
#    0.000    2.364    0.909    3.818    0.000    3.273 
#    0.000    1.818    0.000    6.545    0.000    0.000 
#    0.000    0.000    0.000    0.000    0.000    0.000 
#
# Total GULP energy -545325.437984 kJ/mol
# GULP energy per Si atom -12393.759954 kJ/mol
# Density = 1.853546 g / cm^3
# Si number density = 18.577746 Si / 1000 Ang^3
#
#
#
# Elastic Constant Matrix: (Units=GPa)
#
#
# Indices 1 2 3 4 5 6 
#
# 1 151.3703 50.3595 76.5591 0.0000 0.0000 0.0000
# 2 50.3595 70.0977 34.6699 0.0000 0.0000 0.0000
# 3 76.5591 34.6699 121.3550 0.0000 0.0000 0.0000
# 4 0.0000 0.0000 0.0000 20.7094 0.0000 0.0000
# 5 0.0000 0.0000 0.0000 0.0000 -3.6144 0.0000
# 6 0.0000 0.0000 0.0000 0.0000 0.0000 21.0723
#
#
#
# Elastic Compliance Matrix: (Units=1/GPa)
#
#
# Indices 1 2 3 4 5 6 
#
# 1 0.011162 -0.005283 -0.005533 0.000000 0.000000 0.000000
# 2 -0.005283 0.019113 -0.002128 0.000000 0.000000 0.000000
# 3 -0.005533 -0.002128 0.012339 0.000000 0.000000 0.000000
# 4 0.000000 0.000000 0.000000 0.048287 0.000000 0.000000
# 5 0.000000 0.000000 0.000000 0.000000 -0.276668 0.000000
# 6 0.000000 0.000000 0.000000 0.000000 0.000000 0.047456
#
#
# Mechanical properties :
#
#
# Convention : Reuss Voigt Hill
#
# Bulk Modulus (GPa) = 59.78072 73.99999 66.89036
# Shear Modulus (GPa) = -46.79502 19.71574 -13.53964
#
# Velocity S-wave (km/s) = -5.02428 3.26123 -2.70258
# Velocity P-wave (km/s) = 1.18717 7.35526 5.13276
#
# Compressibility (1/GPa) = 0.01672780
#
# Stress axis : x y z
#
# Youngs Moduli (GPa) = 89.58949 52.31938 81.04697
#
# Poissons Ratio (x) = 0.27638 0.44840
# Poissons Ratio (y) = 0.47327 0.17246
# Poissons Ratio (z) = 0.49566 0.11133
#
# Static dielectric constant tensor:
#      x y z
#    x 4.417020 0.000000 0.000000 
#    y 0.000000 3.269780 0.000000 
#    z 0.000000 0.000000 3.280210 
# 
# 
# High freq. dielectric constant tensor:
#      x y z
#    x 1.741980 0.000000 0.000000 
#    y 0.000000 1.701530 0.000000 
#    z 0.000000 0.000000 1.697350 
# 
# From -- ./inp_files/54513.got.cif
#   From: 2010.03.12/outbox.cif.g09.slc.cpg/sg74_28_cif.got.tgz:54513.got - 2010.04.16 15:46:19.
