data_PCOD8299546
_publ_section_title
;
Structure prediction by ZEFSAII (Michael W. Deem and Ramdas Pophale) SiO2 
 PCOD8299546
Probable space group: I M M A
;
_chemical_formula_sum "Si O2"
_cell_formula_units_Z 112
_cell_length_a 29.442815
_cell_length_b 13.763710
_cell_length_c 13.525965
_cell_angle_alpha 90.000000
_cell_angle_beta 90.000000
_cell_angle_gamma 90.000000
_cell_volume 5481.294076
_symmetry_space_group_name_H-M "I M M A"
_symmetry_group_IT_number 74
_symmetry_cell_setting 'orthorhombic'
loop_
_space_group_symop_operation_xyz
x,y,z
-x,1/2-y,z
x,-y,-z
-x,1/2+y,-z
-x,-y,-z
x,1/2+y,-z
-x,y,z
x,1/2-y,z
1/2+x,1/2+y,1/2+z
1/2-x,-y,1/2+z
1/2+x,1/2-y,1/2-z
1/2-x,y,1/2-z
1/2-x,1/2-y,1/2-z
1/2+x,y,1/2-z
1/2-x,1/2+y,1/2+z
1/2+x,-y,1/2+z
loop_
_atom_site_type_symbol
_atom_site_label
_atom_site_fract_x
_atom_site_fract_y
_atom_site_fract_z
Si Si1 0.681232 0.465787 0.364138
Si Si2 0.407518 0.862509 0.571415
Si Si3 0.828979 0.640530 0.458593
Si Si4 0.356419 0.042514 0.152790
Si Si5 0.052269 0.143387 0.862150
Si Si6 0.448850 0.953833 0.748979
Si Si7 0.723933 0.860802 0.468168
O O1 0.633441 0.434840 0.408599
O O2 0.678058 0.452774 0.246156
O O3 0.719037 0.398403 0.418125
O O4 0.692340 0.577490 0.393025
O O5 0.393413 0.750000 0.583488
O O6 0.422390 0.887056 0.461348
O O7 0.446982 0.887400 0.650659
O O8 0.844816 0.750000 0.435094
O O9 0.837721 0.618696 0.573712
O O10 0.856941 0.566913 0.389903
O O11 0.775850 0.627441 0.435902
O O12 0.408477 0.075114 0.175907
O O13 0.067882 0.250000 0.824659
O O14 0.000000 0.144097 0.891337
O O15 0.062132 0.066151 0.776675
O O16 0.500000 0.942695 0.794342
O O17 0.707355 0.750000 0.460748
#
# Coordination Sequence:
#
# PCOD8299546 Si02
#       7
#    16  16  16  16  16  16  16
#     4  10  21  35  56  87 123 154 192 229 283 344
#     4  10  20  32  50  78 117 162 198 229 272 334
#     4  10  23  44  63  83 110 146 197 253 304 351
#     4  10  22  39  62  85 112 154 192 241 297 350
#     4   9  18  32  50  75 111 155 196 232 279 341
#     4  10  21  35  55  84 116 149 192 244 293 342
#     4  10  22  38  59  88 123 154 187 234 286 348
#
# _framework density 20.433132000000001
#
# number of rings (size 3 to 8) (size 9 to 14) (size 15 to 20)
#    0.000    2.143    0.000    3.000    8.000    8.286 
#    0.000    4.286    0.000    0.857    0.000    0.000 
#    0.000    0.000    0.000    0.000    0.000    0.000 
#
# Total GULP energy -694174.943724 kJ/mol
# GULP energy per Si atom -12395.981138 kJ/mol
# Density = 2.038663 g / cm^3
# Si number density = 20.433132 Si / 1000 Ang^3
#
#
#
# Elastic Constant Matrix: (Units=GPa)
#
#
# Indices 1 2 3 4 5 6 
#
# 1 64.8840 19.5453 13.9346 0.0000 0.0000 0.0000
# 2 19.5453 70.7705 -10.8531 0.0000 0.0000 0.0000
# 3 13.9346 -10.8531 49.7887 0.0000 0.0000 0.0000
# 4 0.0000 0.0000 0.0000 17.3872 0.0000 0.0000
# 5 0.0000 0.0000 0.0000 0.0000 19.7355 0.0000
# 6 0.0000 0.0000 0.0000 0.0000 0.0000 24.2263
#
#
#
# Elastic Compliance Matrix: (Units=1/GPa)
#
#
# Indices 1 2 3 4 5 6 
#
# 1 0.018682 -0.006167 -0.006573 0.000000 0.000000 0.000000
# 2 -0.006167 0.016655 0.005357 0.000000 0.000000 0.000000
# 3 -0.006573 0.005357 0.023092 0.000000 0.000000 0.000000
# 4 0.000000 0.000000 0.000000 0.057514 0.000000 0.000000
# 5 0.000000 0.000000 0.000000 0.000000 0.050670 0.000000
# 6 0.000000 0.000000 0.000000 0.000000 0.000000 0.041278
#
#
# Mechanical properties :
#
#
# Convention : Reuss Voigt Hill
#
# Bulk Modulus (GPa) = 22.90363 25.63298 24.26831
# Shear Modulus (GPa) = 21.07826 23.12421 22.10124
#
# Velocity S-wave (km/s) = 3.21530 3.36773 3.29239
# Velocity P-wave (km/s) = 5.00176 5.26252 5.13380
#
# Compressibility (1/GPa) = 0.04366119
#
# Stress axis : x y z
#
# Youngs Moduli (GPa) = 53.52863 60.04216 43.30481
#
# Poissons Ratio (x) = 0.37031 0.28464
# Poissons Ratio (y) = 0.33014 -0.23197
# Poissons Ratio (z) = 0.35184 -0.32162
#
# Static dielectric constant tensor:
#      x y z
#    x 3.693050 0.000000 0.000000 
#    y 0.000000 3.986560 0.000000 
#    z 0.000000 0.000000 3.569880 
# 
# 
# High freq. dielectric constant tensor:
#      x y z
#    x 1.797520 0.000000 0.000000 
#    y 0.000000 1.809020 0.000000 
#    z 0.000000 0.000000 1.769500 
# 
# From -- ./inp_files/27240.got.cif
#   From: 2010.03.12/outbox.cif.g09.slc.cpg/sg74_14_cif.got.tgz:27240.got - 2010.04.16 15:46:19.
