data_PCOD8299657
_publ_section_title
;
Structure prediction by ZEFSAII (Michael W. Deem and Ramdas Pophale) SiO2 
 PCOD8299657
Probable space group: I M M A
;
_chemical_formula_sum "Si O2"
_cell_formula_units_Z 80
_cell_length_a 18.235158
_cell_length_b 9.114954
_cell_length_c 25.849923
_cell_angle_alpha 90.000000
_cell_angle_beta 90.000000
_cell_angle_gamma 90.000000
_cell_volume 4296.583593
_symmetry_space_group_name_H-M "I M M A"
_symmetry_group_IT_number 74
_symmetry_cell_setting 'orthorhombic'
loop_
_space_group_symop_operation_xyz
x,y,z
-x,1/2-y,z
x,-y,-z
-x,1/2+y,-z
-x,-y,-z
x,1/2+y,-z
-x,y,z
x,1/2-y,z
1/2+x,1/2+y,1/2+z
1/2-x,-y,1/2+z
1/2+x,1/2-y,1/2-z
1/2-x,y,1/2-z
1/2-x,1/2-y,1/2-z
1/2+x,y,1/2-z
1/2-x,1/2+y,1/2+z
1/2+x,-y,1/2+z
loop_
_atom_site_type_symbol
_atom_site_label
_atom_site_fract_x
_atom_site_fract_y
_atom_site_fract_z
Si Si1 0.912575 0.584678 0.549768
Si Si2 0.084707 0.079751 0.650762
Si Si3 0.915060 0.422231 0.153260
Si Si4 0.164105 0.919218 0.245297
Si Si5 0.587224 0.084301 0.550043
O O1 0.880687 0.500000 0.500000
O O2 0.882977 0.750000 0.548158
O O3 0.883480 0.508582 0.601906
O O4 0.000000 0.579399 0.548822
O O5 0.096502 0.250000 0.638522
O O6 0.128605 0.028924 0.701055
O O7 0.000000 0.042527 0.660693
O O8 0.903184 0.250000 0.146254
O O9 0.867178 0.479374 0.200511
O O10 0.886316 0.500986 0.101441
O O11 0.000000 0.460332 0.163872
O O12 0.144159 0.750000 0.233413
O O13 0.250000 0.943642 0.250000
O O14 0.500000 0.085387 0.547433
O O15 0.618101 0.250000 0.550705
O O16 0.619155 0.000000 0.500000
#
# Coordination Sequence:
#
# PCOD8299657 Si02
#       5
#    16  16  16  16  16
#     4   9  16  26  43  69  99 127 156 193 238 287
#     4   9  17  30  49  72  98 128 162 200 242 289
#     4  10  20  33  51  76 104 134 170 210 251 299
#     4  10  21  36  53  73  99 133 171 211 256 303
#     4   9  16  27  46  73 104 134 164 202 249 299
#
# _framework density 18.619444000000001
#
# number of rings (size 3 to 8) (size 9 to 14) (size 15 to 20)
#    0.000    2.600    0.000    2.400    0.000    8.000 
#    0.000    2.000    0.000    1.200    0.000    5.600 
#    0.000    0.000    0.000    0.000    0.000    0.000 
#
# Total GULP energy -496070.175867 kJ/mol
# GULP energy per Si atom -12401.754397 kJ/mol
# Density = 1.857707 g / cm^3
# Si number density = 18.619444 Si / 1000 Ang^3
#
#
#
# Elastic Constant Matrix: (Units=GPa)
#
#
# Indices 1 2 3 4 5 6 
#
# 1 36.5997 30.5996 44.5126 0.0000 0.0000 0.0000
# 2 30.5996 129.1646 93.2586 0.0000 0.0000 0.0000
# 3 44.5126 93.2586 188.6923 0.0000 0.0000 0.0000
# 4 0.0000 0.0000 0.0000 43.9324 0.0000 0.0000
# 5 0.0000 0.0000 0.0000 0.0000 -2.4359 0.0000
# 6 0.0000 0.0000 0.0000 0.0000 0.0000 15.5121
#
#
#
# Elastic Compliance Matrix: (Units=1/GPa)
#
#
# Indices 1 2 3 4 5 6 
#
# 1 0.039669 -0.004107 -0.007328 0.000000 0.000000 0.000000
# 2 -0.004107 0.012463 -0.005191 0.000000 0.000000 0.000000
# 3 -0.007328 -0.005191 0.009594 0.000000 0.000000 0.000000
# 4 0.000000 0.000000 0.000000 0.022762 0.000000 0.000000
# 5 0.000000 0.000000 0.000000 0.000000 -0.410525 0.000000
# 6 0.000000 0.000000 0.000000 0.000000 0.000000 0.064466
#
#
# Mechanical properties :
#
#
# Convention : Reuss Voigt Hill
#
# Bulk Modulus (GPa) = 35.11971 76.79980 55.95976
# Shear Modulus (GPa) = -22.84891 23.80743 0.47926
#
# Velocity S-wave (km/s) = -3.50687 3.57968 0.50790
# Velocity P-wave (km/s) = 1.58279 7.64343 5.51939
#
# Compressibility (1/GPa) = 0.02847404
#
# Stress axis : x y z
#
# Youngs Moduli (GPa) = 25.20883 80.23912 104.23326
#
# Poissons Ratio (x) = 0.32950 0.76385
# Poissons Ratio (y) = 0.10352 0.54106
# Poissons Ratio (z) = 0.18474 0.41651
#
# Static dielectric constant tensor:
#      x y z
#    x 2.916870 0.000000 0.000000 
#    y 0.000000 3.519640 0.000000 
#    z 0.000000 0.000000 3.624770 
# 
# 
# High freq. dielectric constant tensor:
#      x y z
#    x 1.667890 0.000000 0.000000 
#    y 0.000000 1.729910 0.000000 
#    z 0.000000 0.000000 1.740660 
# 
# From -- ./inp_files/63975.got.cif
#   From: 2010.03.12/outbox.cif.g09.slc.cpg/sg74_32_cif.got.tgz:63975.got - 2010.04.16 15:46:19.
