data_PCOD8299051
_publ_section_title
;
Structure prediction by ZEFSAII (Michael W. Deem and Ramdas Pophale) SiO2 
 PCOD8299051
Probable space group: I M M A
;
_chemical_formula_sum "Si O2"
_cell_formula_units_Z 64
_cell_length_a 8.765235
_cell_length_b 13.150138
_cell_length_c 28.664541
_cell_angle_alpha 90.000000
_cell_angle_beta 90.000000
_cell_angle_gamma 90.000000
_cell_volume 3303.991083
_symmetry_space_group_name_H-M "I M M A"
_symmetry_group_IT_number 74
_symmetry_cell_setting 'orthorhombic'
loop_
_space_group_symop_operation_xyz
x,y,z
-x,1/2-y,z
x,-y,-z
-x,1/2+y,-z
-x,-y,-z
x,1/2+y,-z
-x,y,z
x,1/2-y,z
1/2+x,1/2+y,1/2+z
1/2-x,-y,1/2+z
1/2+x,1/2-y,1/2-z
1/2-x,y,1/2-z
1/2-x,1/2-y,1/2-z
1/2+x,y,1/2-z
1/2-x,1/2+y,1/2+z
1/2+x,-y,1/2+z
loop_
_atom_site_type_symbol
_atom_site_label
_atom_site_fract_x
_atom_site_fract_y
_atom_site_fract_z
Si Si1 0.816839 0.750000 0.995896
Si Si2 0.178946 0.959588 0.630041
Si Si3 0.334020 0.441726 0.546293
Si Si4 0.819717 0.364685 0.700142
Si Si5 0.181354 0.250000 0.111237
O O1 0.756536 0.750000 0.942400
O O2 0.000000 0.750000 0.993983
O O3 0.752652 0.840645 0.027625
O O4 0.259655 0.850516 0.638418
O O5 0.000000 0.942983 0.635621
O O6 0.217669 0.997183 0.578360
O O7 0.239696 0.047891 0.664934
O O8 0.373444 0.500000 0.500000
O O9 0.500000 0.424384 0.571597
O O10 0.770221 0.250000 0.683772
O O11 0.750000 0.390397 0.750000
O O12 0.000000 0.369894 0.704262
O O13 0.000000 0.250000 0.112269
#
# Coordination Sequence:
#
# PCOD8299051 Si02
#       5
#     8  16  16  16   8
#     4   9  18  33  51  74 107 148 195 242 273 308
#     4  11  23  37  56  86 119 148 185 236 292 342
#     4  10  19  34  54  77 110 153 198 235 271 323
#     4   9  20  40  63  86 115 146 180 229 286 342
#     4  11  21  39  60  78 111 156 199 236 274 330
#
# _framework density 19.370512999999999
#
# number of rings (size 3 to 8) (size 9 to 14) (size 15 to 20)
#    0.000    2.000    2.500    1.125    1.750    2.500 
#    0.000    0.625    0.000    0.000    0.000    0.000 
#    0.000    0.000    0.000    0.000    0.000    0.000 
#
# Total GULP energy -396480.943636 kJ/mol
# GULP energy per Si atom -12390.029489 kJ/mol
# Density = 1.932643 g / cm^3
# Si number density = 19.370513 Si / 1000 Ang^3
#
#
#
# Elastic Constant Matrix: (Units=GPa)
#
#
# Indices 1 2 3 4 5 6 
#
# 1 45.9354 38.3654 26.6617 0.0000 0.0000 0.0000
# 2 38.3654 186.4091 62.8139 0.0000 0.0000 0.0000
# 3 26.6617 62.8139 80.1361 0.0000 0.0000 0.0000
# 4 0.0000 0.0000 0.0000 33.4984 0.0000 0.0000
# 5 0.0000 0.0000 0.0000 0.0000 37.8750 0.0000
# 6 0.0000 0.0000 0.0000 0.0000 0.0000 29.5863
#
#
#
# Elastic Compliance Matrix: (Units=1/GPa)
#
#
# Indices 1 2 3 4 5 6 
#
# 1 0.028702 -0.003655 -0.006685 0.000000 0.000000 0.000000
# 2 -0.003655 0.007755 -0.004863 0.000000 0.000000 0.000000
# 3 -0.006685 -0.004863 0.018515 0.000000 0.000000 0.000000
# 4 0.000000 0.000000 0.000000 0.029852 0.000000 0.000000
# 5 0.000000 0.000000 0.000000 0.000000 0.026403 0.000000
# 6 0.000000 0.000000 0.000000 0.000000 0.000000 0.033799
#
#
# Mechanical properties :
#
#
# Convention : Reuss Voigt Hill
#
# Bulk Modulus (GPa) = 40.70453 63.12919 51.91686
# Shear Modulus (GPa) = 27.23013 32.50125 29.86569
#
# Velocity S-wave (km/s) = 3.75340 4.10063 3.93085
# Velocity P-wave (km/s) = 6.31216 7.42168 6.88929
#
# Compressibility (1/GPa) = 0.02456729
#
# Stress axis : x y z
#
# Youngs Moduli (GPa) = 34.84080 128.94168 54.01139
#
# Poissons Ratio (x) = 0.47125 0.36104
# Poissons Ratio (y) = 0.12733 0.26266
# Poissons Ratio (z) = 0.23289 0.62705
#
# Static dielectric constant tensor:
#      x y z
#    x 3.323430 0.000000 0.000000 
#    y 0.000000 3.813790 0.000000 
#    z 0.000000 0.000000 3.380520 
# 
# 
# High freq. dielectric constant tensor:
#      x y z
#    x 1.735480 0.000000 0.000000 
#    y 0.000000 1.776680 0.000000 
#    z 0.000000 0.000000 1.726890 
# 
# From -- ./inp_files/69802.got.cif
#   From: 2010.03.12/outbox.cif.g09.slc.cpg/sg74_35_cif.got.tgz:69802.got - 2010.04.16 15:46:19.
