data_PCOD8299762
_publ_section_title
;
Structure prediction by ZEFSAII (Michael W. Deem and Ramdas Pophale) SiO2 
 PCOD8299762
Probable space group: I M M A
;
_chemical_formula_sum "Si O2"
_cell_formula_units_Z 104
_cell_length_a 20.132288
_cell_length_b 9.084737
_cell_length_c 32.116985
_cell_angle_alpha 90.000000
_cell_angle_beta 90.000000
_cell_angle_gamma 90.000000
_cell_volume 5874.085486
_symmetry_space_group_name_H-M "I M M A"
_symmetry_group_IT_number 74
_symmetry_cell_setting 'orthorhombic'
loop_
_space_group_symop_operation_xyz
x,y,z
-x,1/2-y,z
x,-y,-z
-x,1/2+y,-z
-x,-y,-z
x,1/2+y,-z
-x,y,z
x,1/2-y,z
1/2+x,1/2+y,1/2+z
1/2-x,-y,1/2+z
1/2+x,1/2-y,1/2-z
1/2-x,y,1/2-z
1/2-x,1/2-y,1/2-z
1/2+x,y,1/2-z
1/2-x,1/2+y,1/2+z
1/2+x,-y,1/2+z
loop_
_atom_site_type_symbol
_atom_site_label
_atom_site_fract_x
_atom_site_fract_y
_atom_site_fract_z
Si Si1 0.168771 0.921605 0.661799
Si Si2 0.076617 0.077863 0.726101
Si Si3 0.311693 0.918375 0.631431
Si Si4 0.638445 0.077978 0.921463
Si Si5 0.758252 0.924403 0.958623
Si Si6 0.073479 0.077417 0.821776
Si Si7 0.000000 0.582596 0.457929
O O1 0.151960 0.750000 0.654184
O O2 0.248810 0.942553 0.662391
O O3 0.131090 0.978381 0.702726
O O4 0.143431 0.023340 0.625202
O O5 0.090420 0.250000 0.717602
O O6 0.088538 0.036948 0.774085
O O7 0.000000 0.040848 0.713371
O O8 0.333248 0.750000 0.631570
O O9 0.297111 0.967717 0.583718
O O10 0.373410 0.009977 0.647292
O O11 0.656484 0.250000 0.924712
O O12 0.563265 0.040219 0.931249
O O13 0.684069 0.987298 0.953456
O O14 0.755720 0.750000 0.964926
O O15 0.790358 0.000000 0.000000
O O16 0.076271 0.250000 0.827739
O O17 0.000000 0.018895 0.833748
O O18 0.000000 0.500000 0.500000
O O19 0.000000 0.750000 0.470788
#
# Coordination Sequence:
#
# PCOD8299762 Si02
#       7
#    16  16  16  16  16  16   8
#     4  10  21  35  50  75 106 137 177 221 263 308
#     4   9  19  35  53  74 104 141 179 220 262 310
#     4   9  20  36  53  77 109 138 169 212 261 312
#     4  10  20  34  50  70  98 135 174 217 267 311
#     4  10  20  35  54  78 105 134 171 213 257 309
#     4   9  19  36  57  81 106 134 172 214 258 312
#     4  10  22  34  46  66  92 126 170 216 262 310
#
# _framework density 17.704884
#
# number of rings (size 3 to 8) (size 9 to 14) (size 15 to 20)
#    0.000    2.462    0.000    3.692    1.077    8.000 
#    0.000    4.615    0.000    0.462    0.000    0.000 
#    0.000    0.000    0.000    0.000    0.000    0.000 
#
# Total GULP energy -644569.096762 kJ/mol
# GULP energy per Si atom -12395.559553 kJ/mol
# Density = 1.766459 g / cm^3
# Si number density = 17.704884 Si / 1000 Ang^3
#
#
#
# Elastic Constant Matrix: (Units=GPa)
#
#
# Indices 1 2 3 4 5 6 
#
# 1 101.2470 42.1508 60.7781 0.0000 0.0000 0.0000
# 2 42.1508 51.5320 40.9152 0.0000 0.0000 0.0000
# 3 60.7781 40.9152 94.7442 0.0000 0.0000 0.0000
# 4 0.0000 0.0000 0.0000 34.9030 0.0000 0.0000
# 5 0.0000 0.0000 0.0000 0.0000 44.5807 0.0000
# 6 0.0000 0.0000 0.0000 0.0000 0.0000 29.5501
#
#
#
# Elastic Compliance Matrix: (Units=1/GPa)
#
#
# Indices 1 2 3 4 5 6 
#
# 1 0.018252 -0.008572 -0.008007 0.000000 0.000000 0.000000
# 2 -0.008572 0.033557 -0.008993 0.000000 0.000000 0.000000
# 3 -0.008007 -0.008993 0.019574 0.000000 0.000000 0.000000
# 4 0.000000 0.000000 0.000000 0.028651 0.000000 0.000000
# 5 0.000000 0.000000 0.000000 0.000000 0.022431 0.000000
# 6 0.000000 0.000000 0.000000 0.000000 0.000000 0.033841
#
#
# Mechanical properties :
#
#
# Convention : Reuss Voigt Hill
#
# Bulk Modulus (GPa) = 49.40577 59.46794 54.43685
# Shear Modulus (GPa) = 23.34315 28.71869 26.03092
#
# Velocity S-wave (km/s) = 3.63500 4.03187 3.83857
# Velocity P-wave (km/s) = 6.75154 7.43882 7.10350
#
# Compressibility (1/GPa) = 0.02024055
#
# Stress axis : x y z
#
# Youngs Moduli (GPa) = 54.78873 29.80015 51.08711
#
# Poissons Ratio (x) = 0.25545 0.40904
# Poissons Ratio (y) = 0.46966 0.45940
# Poissons Ratio (z) = 0.43868 0.26798
#
# Static dielectric constant tensor:
#      x y z
#    x 3.390130 0.000000 0.000000 
#    y 0.000000 3.275030 0.000000 
#    z 0.000000 0.000000 3.280460 
# 
# 
# High freq. dielectric constant tensor:
#      x y z
#    x 1.673370 0.000000 0.000000 
#    y 0.000000 1.690480 0.000000 
#    z 0.000000 0.000000 1.684000 
# 
# From -- ./inp_files/73335.got.cif
#   From: 2010.03.12/outbox.cif.g09.slc.cpg/sg74_37_cif.got.tgz:73335.got - 2010.04.16 15:46:19.
