data_PCOD8299988
_publ_section_title
;
Structure prediction by ZEFSAII (Michael W. Deem and Ramdas Pophale) SiO2 
 PCOD8299988
Probable space group: I M M A
;
_chemical_formula_sum "Si O2"
_cell_formula_units_Z 112
_cell_length_a 14.113095
_cell_length_b 24.107640
_cell_length_c 16.218039
_cell_angle_alpha 90.000000
_cell_angle_beta 90.000000
_cell_angle_gamma 90.000000
_cell_volume 5517.918770
_symmetry_space_group_name_H-M "I M M A"
_symmetry_group_IT_number 74
_symmetry_cell_setting 'orthorhombic'
loop_
_space_group_symop_operation_xyz
x,y,z
-x,1/2-y,z
x,-y,-z
-x,1/2+y,-z
-x,-y,-z
x,1/2+y,-z
-x,y,z
x,1/2-y,z
1/2+x,1/2+y,1/2+z
1/2-x,-y,1/2+z
1/2+x,1/2-y,1/2-z
1/2-x,y,1/2-z
1/2-x,1/2-y,1/2-z
1/2+x,y,1/2-z
1/2-x,1/2+y,1/2+z
1/2+x,-y,1/2+z
loop_
_atom_site_type_symbol
_atom_site_label
_atom_site_fract_x
_atom_site_fract_y
_atom_site_fract_z
Si Si1 0.610139 0.396028 0.665521
Si Si2 0.767694 0.354670 0.551380
Si Si3 0.892029 0.688743 0.308321
Si Si4 0.387037 0.871100 0.747084
Si Si5 0.246703 0.814574 0.629989
Si Si6 0.394700 0.544241 0.070485
Si Si7 0.610613 0.496685 0.238914
O O1 0.500000 0.389728 0.643418
O O2 0.667543 0.376231 0.586188
O O3 0.638075 0.357492 0.742734
O O4 0.635912 0.459756 0.688606
O O5 0.821705 0.314468 0.614452
O O6 0.748844 0.321872 0.467747
O O7 0.833199 0.406909 0.533021
O O8 0.881103 0.750000 0.268680
O O9 0.000000 0.679026 0.337734
O O10 0.500000 0.864264 0.747268
O O11 0.343144 0.838989 0.669170
O O12 0.344752 0.845495 0.831348
O O13 0.352925 0.935303 0.739238
O O14 0.239463 0.750000 0.651691
O O15 0.500000 0.566758 0.092630
O O16 0.345473 0.519010 0.152771
O O17 0.402283 0.500000 0.000000
O O18 0.500000 0.492606 0.224092
#
# Coordination Sequence:
#
# PCOD8299988 Si02
#       7
#    16  16  16  16  16  16  16
#     4  10  22  39  58  87 125 168 210 248 293 355
#     4  12  23  36  59  88 121 163 203 249 306 366
#     4  10  21  38  59  85 120 162 208 252 295 352
#     4  10  22  44  70  89 114 159 201 250 320 381
#     4  11  26  43  60  92 125 150 202 265 304 371
#     4  10  20  34  55  88 127 159 195 250 310 367
#     4   9  18  36  61  89 122 157 204 252 297 363
#
# _framework density 20.297508000000001
#
# number of rings (size 3 to 8) (size 9 to 14) (size 15 to 20)
#    0.000    1.714    1.429    3.000    0.000    9.143 
#    0.000    0.000    0.000    3.000    0.000    0.000 
#    0.000    0.000    0.000    0.000    0.000    0.000 
#
# Total GULP energy -694357.964818 kJ/mol
# GULP energy per Si atom -12399.249372 kJ/mol
# Density = 2.025131 g / cm^3
# Si number density = 20.297508 Si / 1000 Ang^3
#
#
#
# Elastic Constant Matrix: (Units=GPa)
#
#
# Indices 1 2 3 4 5 6 
#
# 1 106.8618 38.2643 45.0943 0.0000 0.0000 0.0000
# 2 38.2643 153.1120 36.1147 0.0002 0.0002 0.0003
# 3 45.0943 36.1147 88.8747 0.0002 0.0002 0.0004
# 4 0.0000 0.0002 0.0002 30.8162 0.0002 0.0003
# 5 0.0000 0.0002 0.0002 0.0002 24.7269 0.0000
# 6 0.0000 0.0003 0.0004 0.0003 0.0000 21.9973
#
#
#
# Elastic Compliance Matrix: (Units=1/GPa)
#
#
# Indices 1 2 3 4 5 6 
#
# 1 0.012329 -0.001776 -0.005534 0.000000 0.000000 0.000000
# 2 -0.001776 0.007479 -0.002138 0.000000 0.000000 0.000000
# 3 -0.005534 -0.002138 0.014929 0.000000 0.000000 0.000000
# 4 0.000000 0.000000 0.000000 0.032450 0.000000 0.000000
# 5 0.000000 0.000000 0.000000 0.000000 0.040442 0.000000
# 6 0.000000 0.000000 0.000000 0.000000 0.000000 0.045460
#
#
# Mechanical properties :
#
#
# Convention : Reuss Voigt Hill
#
# Bulk Modulus (GPa) = 63.12823 65.31059 64.21941
# Shear Modulus (GPa) = 28.20624 30.79975 29.50299
#
# Velocity S-wave (km/s) = 3.73183 3.89963 3.81665
# Velocity P-wave (km/s) = 7.05250 7.24725 7.15054
#
# Compressibility (1/GPa) = 0.01584077
#
# Stress axis : x y z
#
# Youngs Moduli (GPa) = 81.10926 133.70214 66.98557
#
# Poissons Ratio (x) = 0.23743 0.37070
# Poissons Ratio (y) = 0.14404 0.14323
# Poissons Ratio (z) = 0.44886 0.28588
#
# Static dielectric constant tensor:
#      x y z
#    x 3.684520 0.000000 0.000000 
#    y 0.000000 3.940130 0.000000 
#    z 0.000000 0.000000 3.433190 
# 
# 
# High freq. dielectric constant tensor:
#      x y z
#    x 1.796110 0.000000 0.000000 
#    y 0.000000 1.808700 0.000000 
#    z 0.000000 0.000000 1.773620 
# 
# From -- ./inp_files/32757.got.cif
#   From: 2010.03.12/outbox.cif.g09.slc.cpg/sg74_17_cif.got.tgz:32757.got - 2010.04.16 15:46:19.
