data_PCOD8299670
_publ_section_title
;
Structure prediction by ZEFSAII (Michael W. Deem and Ramdas Pophale) SiO2 
 PCOD8299670
Probable space group: I M M A
;
_chemical_formula_sum "Si O2"
_cell_formula_units_Z 80
_cell_length_a 27.039702
_cell_length_b 9.494733
_cell_length_c 16.758750
_cell_angle_alpha 90.000000
_cell_angle_beta 90.000000
_cell_angle_gamma 90.000000
_cell_volume 4302.553506
_symmetry_space_group_name_H-M "I M M A"
_symmetry_group_IT_number 74
_symmetry_cell_setting 'orthorhombic'
loop_
_space_group_symop_operation_xyz
x,y,z
-x,1/2-y,z
x,-y,-z
-x,1/2+y,-z
-x,-y,-z
x,1/2+y,-z
-x,y,z
x,1/2-y,z
1/2+x,1/2+y,1/2+z
1/2-x,-y,1/2+z
1/2+x,1/2-y,1/2-z
1/2-x,y,1/2-z
1/2-x,1/2-y,1/2-z
1/2+x,y,1/2-z
1/2-x,1/2+y,1/2+z
1/2+x,-y,1/2+z
loop_
_atom_site_type_symbol
_atom_site_label
_atom_site_fract_x
_atom_site_fract_y
_atom_site_fract_z
Si Si1 0.441852 0.750000 0.620309
Si Si2 0.212473 0.096297 0.177565
Si Si3 0.557599 0.750000 0.445264
Si Si4 0.557640 0.039199 0.688936
Si Si5 0.195726 0.582565 0.580443
Si Si6 0.149181 0.909618 0.279172
O O1 0.500000 0.750000 0.605663
O O2 0.415930 0.750000 0.532292
O O3 0.426468 0.620097 0.674626
O O4 0.186301 0.250000 0.164980
O O5 0.250000 0.111259 0.250000
O O6 0.246241 0.058098 0.100812
O O7 0.173802 0.972483 0.197720
O O8 0.500000 0.750000 0.461701
O O9 0.572160 0.885984 0.393967
O O10 0.500000 0.062816 0.710631
O O11 0.590193 0.096098 0.762796
O O12 0.183225 0.500000 0.500000
O O13 0.183689 0.750000 0.573900
O O14 0.160735 0.512043 0.647345
O O15 0.168495 0.750000 0.294935
#
# Coordination Sequence:
#
# PCOD8299670 Si02
#       6
#     8  16   8  16  16  16
#     4   9  18  30  50  72  96 137 185 229 272 314
#     4   8  17  34  55  77 103 136 169 214 271 320
#     4   9  16  32  50  68 100 137 179 225 268 312
#     4  10  20  33  51  78 109 147 189 228 270 318
#     4  10  21  38  60  83 109 140 177 225 276 329
#     4  11  21  33  55  82 110 147 185 224 268 320
#
# _framework density 18.593610000000002
#
# number of rings (size 3 to 8) (size 9 to 14) (size 15 to 20)
#    0.000    2.400    1.000    3.000    2.800    6.800 
#    0.000    2.000    0.000    0.600    0.000    0.000 
#    0.000    0.000    0.000    0.000    0.000    0.000 
#
# Total GULP energy -495638.147701 kJ/mol
# GULP energy per Si atom -12390.953693 kJ/mol
# Density = 1.855129 g / cm^3
# Si number density = 18.593610 Si / 1000 Ang^3
#
#
#
# Elastic Constant Matrix: (Units=GPa)
#
#
# Indices 1 2 3 4 5 6 
#
# 1 59.8943 33.3409 31.2185 0.0000 0.0000 0.0000
# 2 33.3409 144.5901 38.2924 0.0000 0.0000 0.0000
# 3 31.2185 38.2924 78.1991 0.0000 0.0000 0.0000
# 4 0.0000 0.0000 0.0000 32.7541 0.0000 0.0000
# 5 0.0000 0.0000 0.0000 0.0000 21.0399 0.0000
# 6 0.0000 0.0000 0.0000 0.0000 0.0000 20.7845
#
#
#
# Elastic Compliance Matrix: (Units=1/GPa)
#
#
# Indices 1 2 3 4 5 6 
#
# 1 0.022301 -0.003199 -0.007336 0.000000 0.000000 0.000000
# 2 -0.003199 0.008406 -0.002839 0.000000 0.000000 0.000000
# 3 -0.007336 -0.002839 0.017107 0.000000 0.000000 0.000000
# 4 0.000000 0.000000 0.000000 0.030531 0.000000 0.000000
# 5 0.000000 0.000000 0.000000 0.000000 0.047529 0.000000
# 6 0.000000 0.000000 0.000000 0.000000 0.000000 0.048113
#
#
# Mechanical properties :
#
#
# Convention : Reuss Voigt Hill
#
# Bulk Modulus (GPa) = 47.47357 54.26523 50.86940
# Shear Modulus (GPa) = 24.06671 26.90448 25.48559
#
# Velocity S-wave (km/s) = 3.60162 3.80804 3.70626
# Velocity P-wave (km/s) = 6.54852 6.97016 6.76263
#
# Compressibility (1/GPa) = 0.02106435
#
# Stress axis : x y z
#
# Youngs Moduli (GPa) = 44.84118 118.96733 58.45648
#
# Poissons Ratio (x) = 0.38063 0.42885
# Poissons Ratio (y) = 0.14347 0.16595
# Poissons Ratio (z) = 0.32897 0.33772
#
# Static dielectric constant tensor:
#      x y z
#    x 3.273400 0.000000 0.000000 
#    y 0.000000 16.135040 0.000000 
#    z 0.000000 0.000000 3.271390 
# 
# 
# High freq. dielectric constant tensor:
#      x y z
#    x 1.695440 0.000000 0.000000 
#    y 0.000000 1.743710 0.000000 
#    z 0.000000 0.000000 1.693420 
# 
# From -- ./inp_files/46955.got.cif
#   From: 2010.03.12/outbox.cif.g09.slc.cpg/sg74_24_cif.got.tgz:46955.got - 2010.04.16 15:46:19.
