data_PCOD8299464
_publ_section_title
;
Structure prediction by ZEFSAII (Michael W. Deem and Ramdas Pophale) SiO2 
 PCOD8299464
Probable space group: I M M A
;
_chemical_formula_sum "Si O2"
_cell_formula_units_Z 72
_cell_length_a 21.169864
_cell_length_b 9.306784
_cell_length_c 20.841352
_cell_angle_alpha 90.000000
_cell_angle_beta 90.000000
_cell_angle_gamma 90.000000
_cell_volume 4106.233022
_symmetry_space_group_name_H-M "I M M A"
_symmetry_group_IT_number 74
_symmetry_cell_setting 'orthorhombic'
loop_
_space_group_symop_operation_xyz
x,y,z
-x,1/2-y,z
x,-y,-z
-x,1/2+y,-z
-x,-y,-z
x,1/2+y,-z
-x,y,z
x,1/2-y,z
1/2+x,1/2+y,1/2+z
1/2-x,-y,1/2+z
1/2+x,1/2-y,1/2-z
1/2-x,y,1/2-z
1/2-x,1/2-y,1/2-z
1/2+x,y,1/2-z
1/2-x,1/2+y,1/2+z
1/2+x,-y,1/2+z
loop_
_atom_site_type_symbol
_atom_site_label
_atom_site_fract_x
_atom_site_fract_y
_atom_site_fract_z
Si Si1 0.928576 0.919160 0.301878
Si Si2 0.138046 0.090898 0.825237
Si Si3 0.801576 0.578882 0.934224
Si Si4 0.676316 0.908132 0.864156
Si Si5 0.250000 0.498264 0.750000
O O1 0.919388 0.750000 0.308067
O O2 0.911650 0.965890 0.228569
O O3 0.000000 0.967757 0.315993
O O4 0.884174 0.988039 0.357175
O O5 0.118822 0.250000 0.850876
O O6 0.145925 0.978078 0.883395
O O7 0.205381 0.106958 0.790328
O O8 0.809312 0.750000 0.940235
O O9 0.729390 0.537157 0.914714
O O10 0.817327 0.500000 0.000000
O O11 0.652132 0.750000 0.883852
O O12 0.710092 0.896648 0.795333
#
# Coordination Sequence:
#
# PCOD8299464 Si02
#       5
#    16  16  16  16   8
#     4   9  18  31  47  69  96 125 154 184 222 269
#     4   9  16  27  45  67  92 120 150 184 224 270
#     4  10  20  32  47  68  94 121 152 189 230 274
#     4   9  17  28  44  67  92 118 148 186 229 271
#     4   8  14  24  42  66  92 116 142 178 228 280
#
# _framework density 17.534319
#
# number of rings (size 3 to 8) (size 9 to 14) (size 15 to 20)
#    0.000    2.889    0.000    1.333    0.000   12.000 
#    0.000    0.000    0.000    1.333    0.000    0.000 
#    0.000    0.000    0.000    0.000    0.000    0.000 
#
# Total GULP energy -445998.852335 kJ/mol
# GULP energy per Si atom -12388.857009 kJ/mol
# Density = 1.749441 g / cm^3
# Si number density = 17.534319 Si / 1000 Ang^3
#
#
#
# Elastic Constant Matrix: (Units=GPa)
#
#
# Indices 1 2 3 4 5 6 
#
# 1 32.0263 0.9163 -24.4895 0.0000 0.0000 0.0000
# 2 0.9163 58.5743 7.2752 0.0000 0.0000 0.0000
# 3 -24.4895 7.2752 28.3468 0.0000 0.0000 0.0000
# 4 0.0000 0.0000 0.0000 23.7487 0.0000 0.0000
# 5 0.0000 0.0000 0.0000 0.0000 18.8825 0.0000
# 6 0.0000 0.0000 0.0000 0.0000 0.0000 20.6814
#
#
#
# Elastic Compliance Matrix: (Units=1/GPa)
#
#
# Indices 1 2 3 4 5 6 
#
# 1 0.100455 -0.012757 0.090060 0.000000 0.000000 0.000000
# 2 -0.012757 0.019255 -0.015963 0.000000 0.000000 0.000000
# 3 0.090060 -0.015963 0.117179 0.000000 0.000000 0.000000
# 4 0.000000 0.000000 0.000000 0.042108 0.000000 0.000000
# 5 0.000000 0.000000 0.000000 0.000000 0.052959 0.000000
# 6 0.000000 0.000000 0.000000 0.000000 0.000000 0.048353
#
#
# Mechanical properties :
#
#
# Convention : Reuss Voigt Hill
#
# Bulk Modulus (GPa) = 2.78112 9.59463 6.18787
# Shear Modulus (GPa) = 13.24554 21.67886 17.46220
#
# Velocity S-wave (km/s) = 2.75145 3.52002 3.15919
# Velocity P-wave (km/s) = 3.41811 4.69089 4.10414
#
# Compressibility (1/GPa) = 0.35956718
#
# Stress axis : x y z
#
# Youngs Moduli (GPa) = 9.95469 51.93557 8.53395
#
# Poissons Ratio (x) = 0.66257 -0.76857
# Poissons Ratio (y) = 0.12700 0.13623
# Poissons Ratio (z) = -0.89652 0.82906
#
# Static dielectric constant tensor:
#      x y z
#    x 3.174950 0.000000 0.000000 
#    y 0.000000 3.122760 0.000000 
#    z 0.000000 0.000000 3.109310 
# 
# 
# High freq. dielectric constant tensor:
#      x y z
#    x 1.651190 0.000000 0.000000 
#    y 0.000000 1.675320 0.000000 
#    z 0.000000 0.000000 1.651710 
# 
# From -- ./inp_files/48392.got.cif
#   From: 2010.03.12/outbox.cif.g09.slc.cpg/sg74_25_cif.got.tgz:48392.got - 2010.04.16 15:46:19.
