data_PCOD8299443
_publ_section_title
;
Structure prediction by ZEFSAII (Michael W. Deem and Ramdas Pophale) SiO2 
 PCOD8299443
Probable space group: I M M A
;
_chemical_formula_sum "Si O2"
_cell_formula_units_Z 104
_cell_length_a 31.853243
_cell_length_b 8.765020
_cell_length_c 20.791778
_cell_angle_alpha 90.000000
_cell_angle_beta 90.000000
_cell_angle_gamma 90.000000
_cell_volume 5804.946153
_symmetry_space_group_name_H-M "I M M A"
_symmetry_group_IT_number 74
_symmetry_cell_setting 'orthorhombic'
loop_
_space_group_symop_operation_xyz
x,y,z
-x,1/2-y,z
x,-y,-z
-x,1/2+y,-z
-x,-y,-z
x,1/2+y,-z
-x,y,z
x,1/2-y,z
1/2+x,1/2+y,1/2+z
1/2-x,-y,1/2+z
1/2+x,1/2-y,1/2-z
1/2-x,y,1/2-z
1/2-x,1/2-y,1/2-z
1/2+x,y,1/2-z
1/2-x,1/2+y,1/2+z
1/2+x,-y,1/2+z
loop_
_atom_site_type_symbol
_atom_site_label
_atom_site_fract_x
_atom_site_fract_y
_atom_site_fract_z
Si Si1 0.688814 0.429692 0.933176
Si Si2 0.362460 0.432062 0.182770
Si Si3 0.572782 0.423250 0.343781
Si Si4 0.285800 0.071365 0.567038
Si Si5 0.843266 0.571803 0.183596
Si Si6 0.954634 0.577423 0.701622
Si Si7 0.500000 0.069800 0.431690
O O1 0.680855 0.250000 0.932864
O O2 0.662863 0.508246 0.877315
O O3 0.737322 0.471680 0.922550
O O4 0.672665 0.500000 0.000000
O O5 0.363596 0.250000 0.185096
O O6 0.339128 0.486826 0.247857
O O7 0.410715 0.497369 0.176494
O O8 0.588673 0.250000 0.356659
O O9 0.611180 0.539657 0.345182
O O10 0.546843 0.427203 0.278207
O O11 0.542041 0.488030 0.397707
O O12 0.292964 0.250000 0.560332
O O13 0.310022 0.009991 0.630442
O O14 0.302631 0.000000 0.500000
O O15 0.836388 0.750000 0.196287
O O16 0.955933 0.750000 0.676250
O O17 0.000000 0.500088 0.680600
O O18 0.500000 0.250000 0.431930
O O19 0.500000 0.000000 0.500000
#
# Coordination Sequence:
#
# PCOD8299443 Si02
#       7
#    16  16  16  16  16  16   8
#     4  10  20  37  58  78 104 136 172 212 258 312
#     4  10  20  33  53  82 109 136 173 211 257 310
#     4   9  17  31  49  67  91 128 170 210 257 305
#     4   9  20  36  54  74  99 138 179 216 261 314
#     4  10  20  34  51  75 106 135 170 218 267 308
#     4   8  13  26  50  73  94 124 163 203 243 293
#     4  10  20  32  46  64  92 130 173 216 259 310
#
# _framework density 17.915755999999998
#
# number of rings (size 3 to 8) (size 9 to 14) (size 15 to 20)
#    0.000    2.615    0.769    2.308    0.000    3.692 
#    0.000    6.154    0.000    1.846    0.000    0.000 
#    0.000    0.000    0.000    0.000    0.000    0.000 
#
# Total GULP energy -644352.091140 kJ/mol
# GULP energy per Si atom -12391.386368 kJ/mol
# Density = 1.787498 g / cm^3
# Si number density = 17.915756 Si / 1000 Ang^3
#
#
#
# Elastic Constant Matrix: (Units=GPa)
#
#
# Indices 1 2 3 4 5 6 
#
# 1 99.6711 30.1374 78.1332 0.0000 0.0000 0.0000
# 2 30.1374 45.2858 37.2621 0.0000 0.0000 0.0000
# 3 78.1332 37.2621 140.4307 0.0000 0.0000 0.0000
# 4 0.0000 0.0000 0.0000 31.7342 0.0000 0.0000
# 5 0.0000 0.0000 0.0000 0.0000 32.9510 0.0000
# 6 0.0000 0.0000 0.0000 0.0000 0.0000 21.1852
#
#
#
# Elastic Compliance Matrix: (Units=1/GPa)
#
#
# Indices 1 2 3 4 5 6 
#
# 1 0.018622 -0.004948 -0.009048 0.000000 0.000000 0.000000
# 2 -0.004948 0.029564 -0.005092 0.000000 0.000000 0.000000
# 3 -0.009048 -0.005092 0.013506 0.000000 0.000000 0.000000
# 4 0.000000 0.000000 0.000000 0.031512 0.000000 0.000000
# 5 0.000000 0.000000 0.000000 0.000000 0.030348 0.000000
# 6 0.000000 0.000000 0.000000 0.000000 0.000000 0.047203
#
#
# Mechanical properties :
#
#
# Convention : Reuss Voigt Hill
#
# Bulk Modulus (GPa) = 42.52215 64.05035 53.28625
# Shear Modulus (GPa) = 23.06597 26.49772 24.78185
#
# Velocity S-wave (km/s) = 3.59202 3.84997 3.72323
# Velocity P-wave (km/s) = 6.40231 7.45597 6.94914
#
# Compressibility (1/GPa) = 0.02351715
#
# Stress axis : x y z
#
# Youngs Moduli (GPa) = 53.70012 33.82450 74.04018
#
# Poissons Ratio (x) = 0.16736 0.66992
# Poissons Ratio (y) = 0.26570 0.37699
# Poissons Ratio (z) = 0.48588 0.17223
#
# Static dielectric constant tensor:
#      x y z
#    x 3.475210 0.000000 0.000000 
#    y 0.000000 3.174330 0.000000 
#    z 0.000000 0.000000 3.252440 
# 
# 
# High freq. dielectric constant tensor:
#      x y z
#    x 1.699530 0.000000 0.000000 
#    y 0.000000 1.676860 0.000000 
#    z 0.000000 0.000000 1.681150 
# 
# From -- ./inp_files/55640.got.cif
#   From: 2010.03.12/outbox.cif.g09.slc.cpg/sg74_28_cif.got.tgz:55640.got - 2010.04.16 15:46:19.
