data_PCOD8299152
_publ_section_title
;
Structure prediction by ZEFSAII (Michael W. Deem and Ramdas Pophale) SiO2 
 PCOD8299152
Probable space group: I M M A
;
_chemical_formula_sum "Si O2"
_cell_formula_units_Z 88
_cell_length_a 14.543546
_cell_length_b 25.300374
_cell_length_c 11.708654
_cell_angle_alpha 90.000000
_cell_angle_beta 90.000000
_cell_angle_gamma 90.000000
_cell_volume 4308.282992
_symmetry_space_group_name_H-M "I M M A"
_symmetry_group_IT_number 74
_symmetry_cell_setting 'orthorhombic'
loop_
_space_group_symop_operation_xyz
x,y,z
-x,1/2-y,z
x,-y,-z
-x,1/2+y,-z
-x,-y,-z
x,1/2+y,-z
-x,y,z
x,1/2-y,z
1/2+x,1/2+y,1/2+z
1/2-x,-y,1/2+z
1/2+x,1/2-y,1/2-z
1/2-x,y,1/2-z
1/2-x,1/2-y,1/2-z
1/2+x,y,1/2-z
1/2-x,1/2+y,1/2+z
1/2+x,-y,1/2+z
loop_
_atom_site_type_symbol
_atom_site_label
_atom_site_fract_x
_atom_site_fract_y
_atom_site_fract_z
Si Si1 0.147030 0.809526 0.211667
Si Si2 0.000000 0.889683 0.297776
Si Si3 0.500000 0.559104 0.956748
Si Si4 0.849725 0.631451 0.988303
Si Si5 0.896010 0.308675 0.235973
Si Si6 0.000000 0.054599 0.930917
Si Si7 0.312706 0.100471 0.144459
O O1 0.109437 0.750000 0.232369
O O2 0.250000 0.815739 0.250000
O O3 0.088130 0.852727 0.278574
O O4 0.146806 0.820794 0.077125
O O5 0.000000 0.905343 0.430071
O O6 0.000000 0.940831 0.210052
O O7 0.592443 0.568540 0.880007
O O8 0.500000 0.500000 0.000000
O O9 0.893066 0.655141 0.874987
O O10 0.749377 0.605073 0.968854
O O11 0.908523 0.582738 0.029968
O O12 0.856109 0.250000 0.215266
O O13 0.835678 0.338061 0.330819
O O14 0.000000 0.305539 0.280274
O O15 0.000000 0.000000 0.000000
O O16 0.250000 0.076295 0.250000
#
# Coordination Sequence:
#
# PCOD8299152 Si02
#       7
#    16   8   8  16  16   8  16
#     4  10  20  36  58  86 121 160 200 242 296 368
#     4  10  23  40  60  88 122 160 201 258 308 371
#     4  12  26  47  66  89 124 165 207 265 327 370
#     4  10  20  36  59  89 122 162 204 255 306 365
#     4  10  19  34  58  89 124 160 199 248 309 373
#     4  10  22  39  62  91 122 161 211 263 312 361
#     4  10  23  40  64  91 126 162 209 260 309 379
#
# _framework density 20.425771999999998
#
# number of rings (size 3 to 8) (size 9 to 14) (size 15 to 20)
#    0.000    1.818    1.818    1.909    0.000    7.636 
#    0.000    4.545    0.000    0.000    0.000    0.000 
#    0.000    0.000    0.000    0.000    0.000    0.000 
#
# Total GULP energy -545200.945964 kJ/mol
# GULP energy per Si atom -12390.930590 kJ/mol
# Density = 2.037928 g / cm^3
# Si number density = 20.425772 Si / 1000 Ang^3
#
#
#
# Elastic Constant Matrix: (Units=GPa)
#
#
# Indices 1 2 3 4 5 6 
#
# 1 127.2785 38.3596 42.2616 -0.0001 0.0000 -0.0003
# 2 38.3596 97.9942 34.1082 0.0000 -0.0001 -0.0002
# 3 42.2616 34.1082 87.8688 -0.0008 -0.0001 -0.0022
# 4 -0.0001 0.0000 -0.0008 27.1503 -0.0001 -0.0008
# 5 0.0000 -0.0001 -0.0001 -0.0001 19.4353 0.0001
# 6 -0.0003 -0.0002 -0.0022 -0.0008 0.0001 30.8710
#
#
#
# Elastic Compliance Matrix: (Units=1/GPa)
#
#
# Indices 1 2 3 4 5 6 
#
# 1 0.009875 -0.002558 -0.003757 0.000000 0.000000 0.000000
# 2 -0.002558 0.012461 -0.003607 0.000000 0.000000 0.000000
# 3 -0.003757 -0.003607 0.014587 0.000000 0.000000 0.000001
# 4 0.000000 0.000000 0.000000 0.036832 0.000000 0.000001
# 5 0.000000 0.000000 0.000000 0.000000 0.051453 0.000000
# 6 0.000000 0.000000 0.000001 0.000001 0.000000 0.032393
#
#
# Mechanical properties :
#
#
# Convention : Reuss Voigt Hill
#
# Bulk Modulus (GPa) = 58.54455 60.28892 59.41673
# Shear Modulus (GPa) = 27.30177 28.71879 28.01028
#
# Velocity S-wave (km/s) = 3.65997 3.75374 3.70715
# Velocity P-wave (km/s) = 6.82530 6.95469 6.89030
#
# Compressibility (1/GPa) = 0.01708101
#
# Stress axis : x y z
#
# Youngs Moduli (GPa) = 101.26507 80.24749 68.55205
#
# Poissons Ratio (x) = 0.20528 0.25752
# Poissons Ratio (y) = 0.25904 0.24726
# Poissons Ratio (z) = 0.38041 0.28944
#
# Static dielectric constant tensor:
#      x y z
#    x 3.997080 0.000000 0.000000 
#    y 0.000000 3.627010 0.000000 
#    z 0.000000 0.000000 3.443650 
# 
# 
# High freq. dielectric constant tensor:
#      x y z
#    x 1.819760 0.000000 0.000000 
#    y 0.000000 1.783190 0.000000 
#    z 0.000000 0.000000 1.792600 
# 
# From -- ./inp_files/20710.got.cif
#   From: 2010.03.12/outbox.cif.g09.slc.cpg/sg74_11_cif.got.tgz:20710.got - 2010.04.16 15:46:19.
