data_PCOD8299955
_publ_section_title
;
Structure prediction by ZEFSAII (Michael W. Deem and Ramdas Pophale) SiO2 
 PCOD8299955
Probable space group: I M M A
;
_chemical_formula_sum "Si O2"
_cell_formula_units_Z 72
_cell_length_a 9.057430
_cell_length_b 15.839983
_cell_length_c 27.212893
_cell_angle_alpha 90.000000
_cell_angle_beta 90.000000
_cell_angle_gamma 90.000000
_cell_volume 3904.221165
_symmetry_space_group_name_H-M "I M M A"
_symmetry_group_IT_number 74
_symmetry_cell_setting 'orthorhombic'
loop_
_space_group_symop_operation_xyz
x,y,z
-x,1/2-y,z
x,-y,-z
-x,1/2+y,-z
-x,-y,-z
x,1/2+y,-z
-x,y,z
x,1/2-y,z
1/2+x,1/2+y,1/2+z
1/2-x,-y,1/2+z
1/2+x,1/2-y,1/2-z
1/2-x,y,1/2-z
1/2-x,1/2-y,1/2-z
1/2+x,y,1/2-z
1/2-x,1/2+y,1/2+z
1/2+x,-y,1/2+z
loop_
_atom_site_type_symbol
_atom_site_label
_atom_site_fract_x
_atom_site_fract_y
_atom_site_fract_z
Si Si1 0.330745 0.421438 0.199587
Si Si2 0.330351 0.515796 0.943185
Si Si3 0.168468 0.404095 0.646270
Si Si4 0.175746 0.750000 0.196220
Si Si5 0.668308 0.154399 0.388314
O O1 0.500000 0.397425 0.206287
O O2 0.250000 0.406707 0.250000
O O3 0.310311 0.517524 0.182604
O O4 0.261774 0.357252 0.160827
O O5 0.500000 0.539378 0.931507
O O6 0.289054 0.434551 0.909209
O O7 0.229351 0.595476 0.931345
O O8 0.303261 0.500000 0.000000
O O9 0.277381 0.331286 0.664558
O O10 0.000000 0.370567 0.647800
O O11 0.250000 0.750000 0.250000
O O12 0.000000 0.750000 0.203279
O O13 0.500000 0.129606 0.377149
O O14 0.682765 0.250000 0.406882
#
# Coordination Sequence:
#
# PCOD8299955 Si02
#       5
#    16  16  16   8  16
#     4  10  20  34  55  80 107 143 183 223 269 322
#     4   9  19  38  62  84 106 139 183 227 276 328
#     4   9  19  36  56  79 109 141 180 227 272 325
#     4  12  24  36  54  80 112 150 188 228 277 332
#     4  10  21  36  54  79 111 144 178 219 267 319
#
# _framework density 18.441578
#
# number of rings (size 3 to 8) (size 9 to 14) (size 15 to 20)
#    0.000    2.222    0.000    4.333    0.000    8.889 
#    2.000    0.000    0.000    0.000    0.000    0.000 
#    0.000    0.000    0.000    0.000    0.000    0.000 
#
# Total GULP energy -446426.526530 kJ/mol
# GULP energy per Si atom -12400.736848 kJ/mol
# Density = 1.839960 g / cm^3
# Si number density = 18.441578 Si / 1000 Ang^3
#
#
#
# Elastic Constant Matrix: (Units=GPa)
#
#
# Indices 1 2 3 4 5 6 
#
# 1 140.0608 66.4457 61.8223 0.0000 0.0000 0.0000
# 2 66.4457 95.5110 47.1658 0.0000 0.0000 0.0000
# 3 61.8223 47.1658 120.8952 0.0000 0.0000 0.0000
# 4 0.0000 0.0000 0.0000 14.8935 0.0000 0.0000
# 5 0.0000 0.0000 0.0000 0.0000 31.3619 0.0000
# 6 0.0000 0.0000 0.0000 0.0000 0.0000 32.5901
#
#
#
# Elastic Compliance Matrix: (Units=1/GPa)
#
#
# Indices 1 2 3 4 5 6 
#
# 1 0.011735 -0.006442 -0.003488 0.000000 0.000000 0.000000
# 2 -0.006442 0.016504 -0.003145 0.000000 0.000000 0.000000
# 3 -0.003488 -0.003145 0.011282 0.000000 0.000000 0.000000
# 4 0.000000 0.000000 0.000000 0.067143 0.000000 0.000000
# 5 0.000000 0.000000 0.000000 0.000000 0.031886 0.000000
# 6 0.000000 0.000000 0.000000 0.000000 0.000000 0.030684
#
#
# Mechanical properties :
#
#
# Convention : Reuss Voigt Hill
#
# Bulk Modulus (GPa) = 74.77829 78.59275 76.68552
# Shear Modulus (GPa) = 25.01979 27.83798 26.42888
#
# Velocity S-wave (km/s) = 3.68734 3.88947 3.78976
# Velocity P-wave (km/s) = 7.66586 7.92971 7.79890
#
# Compressibility (1/GPa) = 0.01337287
#
# Stress axis : x y z
#
# Youngs Moduli (GPa) = 85.21315 60.58990 88.63500
#
# Poissons Ratio (x) = 0.39030 0.30916
# Poissons Ratio (y) = 0.54891 0.27875
# Poissons Ratio (z) = 0.29722 0.19055
#
# Static dielectric constant tensor:
#      x y z
#    x 3.524110 0.000000 0.000000 
#    y 0.000000 3.284570 0.000000 
#    z 0.000000 0.000000 3.791630 
# 
# 
# High freq. dielectric constant tensor:
#      x y z
#    x 1.723570 0.000000 0.000000 
#    y 0.000000 1.708180 0.000000 
#    z 0.000000 0.000000 1.716200 
# 
# From -- ./inp_files/63606.got.cif
#   From: 2010.03.12/outbox.cif.g09.slc.cpg/sg74_32_cif.got.tgz:63606.got - 2010.04.16 15:46:19.
