data_PCOD8299651
_publ_section_title
;
Structure prediction by ZEFSAII (Michael W. Deem and Ramdas Pophale) SiO2 
 PCOD8299651
Probable space group: I M M A
;
_chemical_formula_sum "Si O2"
_cell_formula_units_Z 112
_cell_length_a 14.322103
_cell_length_b 15.992604
_cell_length_c 25.562058
_cell_angle_alpha 90.000000
_cell_angle_beta 90.000000
_cell_angle_gamma 90.000000
_cell_volume 5854.931148
_symmetry_space_group_name_H-M "I M M A"
_symmetry_group_IT_number 74
_symmetry_cell_setting 'orthorhombic'
loop_
_space_group_symop_operation_xyz
x,y,z
-x,1/2-y,z
x,-y,-z
-x,1/2+y,-z
-x,-y,-z
x,1/2+y,-z
-x,y,z
x,1/2-y,z
1/2+x,1/2+y,1/2+z
1/2-x,-y,1/2+z
1/2+x,1/2-y,1/2-z
1/2-x,y,1/2-z
1/2-x,1/2-y,1/2-z
1/2+x,y,1/2-z
1/2-x,1/2+y,1/2+z
1/2+x,-y,1/2+z
loop_
_atom_site_type_symbol
_atom_site_label
_atom_site_fract_x
_atom_site_fract_y
_atom_site_fract_z
Si Si1 0.894801 0.151047 0.502158
Si Si2 0.891985 0.995149 0.211958
Si Si3 0.291230 0.654684 0.902504
Si Si4 0.395217 0.886375 0.117165
Si Si5 0.396401 0.050086 0.176052
Si Si6 0.227627 0.158948 0.810425
Si Si7 0.603603 0.155736 0.356670
O O1 0.889042 0.250000 0.502699
O O2 0.832453 0.112241 0.455048
O O3 0.856966 0.119630 0.558001
O O4 0.000000 0.119393 0.492626
O O5 0.854271 0.006145 0.271672
O O6 0.877226 0.086074 0.186916
O O7 0.000000 0.968086 0.212885
O O8 0.838547 0.922054 0.179399
O O9 0.322842 0.750000 0.903402
O O10 0.329869 0.621189 0.846949
O O11 0.178956 0.643899 0.902971
O O12 0.500000 0.845510 0.121882
O O13 0.322582 0.842689 0.156032
O O14 0.402547 0.983293 0.130035
O O15 0.500000 0.086270 0.188730
O O16 0.179913 0.250000 0.823256
O O17 0.250000 0.157238 0.750000
O O18 0.500000 0.144015 0.380730
O O19 0.613830 0.250000 0.332488
#
# Coordination Sequence:
#
# PCOD8299651 Si02
#       7
#    16  16  16  16  16  16  16
#     4   9  18  33  52  75 105 138 172 213 264 321
#     4  10  21  38  56  76 110 146 178 227 273 314
#     4  10  20  33  52  77 106 138 173 220 268 316
#     4  10  20  35  54  78 109 143 177 217 266 320
#     4  10  20  33  51  75 105 141 178 217 264 319
#     4  11  22  34  54  81 107 140 183 225 263 316
#     4   9  19  35  56  81 106 139 182 222 268 323
#
# _framework density 19.129175
#
# number of rings (size 3 to 8) (size 9 to 14) (size 15 to 20)
#    0.000    2.143    1.429    1.714    0.000    3.143 
#    0.000    6.429    0.000    0.857    0.000    5.000 
#    0.000    0.000    0.000    0.000    0.000    0.000 
#
# Total GULP energy -693906.778333 kJ/mol
# GULP energy per Si atom -12391.192470 kJ/mol
# Density = 1.908564 g / cm^3
# Si number density = 19.129175 Si / 1000 Ang^3
#
#
#
# Elastic Constant Matrix: (Units=GPa)
#
#
# Indices 1 2 3 4 5 6 
#
# 1 101.0004 46.5673 70.1408 0.0000 0.0000 0.0000
# 2 46.5673 86.5364 39.2003 0.0000 0.0000 0.0000
# 3 70.1408 39.2003 112.3435 0.0000 0.0000 0.0000
# 4 0.0000 0.0000 0.0000 25.6255 0.0000 0.0000
# 5 0.0000 0.0000 0.0000 0.0000 29.9105 0.0000
# 6 0.0000 0.0000 0.0000 0.0000 0.0000 22.5043
#
#
#
# Elastic Compliance Matrix: (Units=1/GPa)
#
#
# Indices 1 2 3 4 5 6 
#
# 1 0.019798 -0.006004 -0.010266 0.000000 0.000000 0.000000
# 2 -0.006004 0.015546 -0.001676 0.000000 0.000000 0.000000
# 3 -0.010266 -0.001676 0.015896 0.000000 0.000000 0.000000
# 4 0.000000 0.000000 0.000000 0.039024 0.000000 0.000000
# 5 0.000000 0.000000 0.000000 0.000000 0.033433 0.000000
# 6 0.000000 0.000000 0.000000 0.000000 0.000000 0.044436
#
#
# Mechanical properties :
#
#
# Convention : Reuss Voigt Hill
#
# Bulk Modulus (GPa) = 65.15417 67.96633 66.56025
# Shear Modulus (GPa) = 23.90741 25.20618 24.55679
#
# Velocity S-wave (km/s) = 3.53907 3.63393 3.58681
# Velocity P-wave (km/s) = 7.12980 7.29483 7.21279
#
# Compressibility (1/GPa) = 0.01534821
#
# Stress axis : x y z
#
# Youngs Moduli (GPa) = 50.50922 64.32627 62.90998
#
# Poissons Ratio (x) = 0.38618 0.64584
# Poissons Ratio (y) = 0.30323 0.10545
# Poissons Ratio (z) = 0.51853 0.10782
#
# Static dielectric constant tensor:
#      x y z
#    x 3.675420 0.000000 0.000000 
#    y 0.000000 3.643250 0.000000 
#    z 0.000000 0.000000 3.444040 
# 
# 
# High freq. dielectric constant tensor:
#      x y z
#    x 1.738030 0.000000 0.000000 
#    y 0.000000 1.747140 0.000000 
#    z 0.000000 0.000000 1.722060 
# 
# From -- ./inp_files/60149.got.cif
#   From: 2010.03.12/outbox.cif.g09.slc.cpg/sg74_31_cif.got.tgz:60149.got - 2010.04.16 15:46:19.
