data_PCOD8299395
_publ_section_title
;
Structure prediction by ZEFSAII (Michael W. Deem and Ramdas Pophale) SiO2 
 PCOD8299395
Probable space group: I M M A
;
_chemical_formula_sum "Si O2"
_cell_formula_units_Z 96
_cell_length_a 18.474383
_cell_length_b 9.030405
_cell_length_c 32.209734
_cell_angle_alpha 90.000000
_cell_angle_beta 90.000000
_cell_angle_gamma 90.000000
_cell_volume 5373.587306
_symmetry_space_group_name_H-M "I M M A"
_symmetry_group_IT_number 74
_symmetry_cell_setting 'orthorhombic'
loop_
_space_group_symop_operation_xyz
x,y,z
-x,1/2-y,z
x,-y,-z
-x,1/2+y,-z
-x,-y,-z
x,1/2+y,-z
-x,y,z
x,1/2-y,z
1/2+x,1/2+y,1/2+z
1/2-x,-y,1/2+z
1/2+x,1/2-y,1/2-z
1/2-x,y,1/2-z
1/2-x,1/2-y,1/2-z
1/2+x,y,1/2-z
1/2-x,1/2+y,1/2+z
1/2+x,-y,1/2+z
loop_
_atom_site_type_symbol
_atom_site_label
_atom_site_fract_x
_atom_site_fract_y
_atom_site_fract_z
Si Si1 0.417947 0.577177 0.826468
Si Si2 0.284429 0.074557 0.542425
Si Si3 0.210656 0.079801 0.383426
Si Si4 0.851598 0.417888 0.166980
Si Si5 0.417610 0.923643 0.257454
Si Si6 0.582410 0.078021 0.419328
O O1 0.500000 0.531486 0.838064
O O2 0.411240 0.750000 0.816897
O O3 0.367288 0.533336 0.865263
O O4 0.390568 0.493740 0.785518
O O5 0.283647 0.250000 0.538069
O O6 0.257832 0.000000 0.500000
O O7 0.228480 0.025377 0.578003
O O8 0.365979 0.021327 0.552238
O O9 0.211810 0.250000 0.398799
O O10 0.269108 0.058028 0.346964
O O11 0.865482 0.250000 0.181454
O O12 0.866725 0.524533 0.205295
O O13 0.904750 0.459185 0.128976
O O14 0.500000 0.973573 0.266606
O O15 0.410640 0.750000 0.252966
O O16 0.500000 0.040731 0.431097
O O17 0.601405 0.250000 0.427480
#
# Coordination Sequence:
#
# PCOD8299395 Si02
#       6
#    16  16  16  16  16  16
#     4   9  18  34  56  77  97 127 165 203 248 304
#     4  11  22  36  55  77 102 132 165 202 247 298
#     4   9  19  36  55  76 101 127 161 205 252 302
#     4   9  17  30  48  69  97 135 173 207 244 287
#     4  10  20  31  44  67 101 137 172 212 250 284
#     4   9  18  33  52  74 102 137 176 215 252 290
#
# _framework density 17.865161000000001
#
# number of rings (size 3 to 8) (size 9 to 14) (size 15 to 20)
#    0.000    2.500    0.000    3.500    0.000    6.333 
#    0.000    3.333    0.000    0.500    0.000    0.000 
#    0.000    0.000    0.000    0.000    0.000    0.000 
#
# Total GULP energy -595301.584623 kJ/mol
# GULP energy per Si atom -12402.116346 kJ/mol
# Density = 1.782450 g / cm^3
# Si number density = 17.865161 Si / 1000 Ang^3
#
#
#
# Elastic Constant Matrix: (Units=GPa)
#
#
# Indices 1 2 3 4 5 6 
#
# 1 72.5737 36.1282 53.6629 0.0000 0.0000 0.0000
# 2 36.1282 92.2333 60.0169 0.0000 0.0000 0.0000
# 3 53.6629 60.0169 108.0084 0.0000 0.0000 0.0000
# 4 0.0000 0.0000 0.0000 30.9897 0.0000 0.0000
# 5 0.0000 0.0000 0.0000 0.0000 14.2302 0.0000
# 6 0.0000 0.0000 0.0000 0.0000 0.0000 21.2269
#
#
#
# Elastic Compliance Matrix: (Units=1/GPa)
#
#
# Indices 1 2 3 4 5 6 
#
# 1 0.022106 -0.002369 -0.009667 0.000000 0.000000 0.000000
# 2 -0.002369 0.017236 -0.008401 0.000000 0.000000 0.000000
# 3 -0.009667 -0.008401 0.018730 0.000000 0.000000 0.000000
# 4 0.000000 0.000000 0.000000 0.032269 0.000000 0.000000
# 5 0.000000 0.000000 0.000000 0.000000 0.070273 0.000000
# 6 0.000000 0.000000 0.000000 0.000000 0.000000 0.047110
#
#
# Mechanical properties :
#
#
# Convention : Reuss Voigt Hill
#
# Bulk Modulus (GPa) = 58.14272 63.60350 60.87311
# Shear Modulus (GPa) = 19.65942 21.48984 20.57463
#
# Velocity S-wave (km/s) = 3.32088 3.47203 3.39730
# Velocity P-wave (km/s) = 6.87897 7.19393 7.03821
#
# Compressibility (1/GPa) = 0.01719906
#
# Stress axis : x y z
#
# Youngs Moduli (GPa) = 45.23574 58.01668 53.39121
#
# Poissons Ratio (x) = 0.13742 0.51614
# Poissons Ratio (y) = 0.10715 0.44853
# Poissons Ratio (z) = 0.43730 0.48739
#
# Static dielectric constant tensor:
#      x y z
#    x 3.336110 0.000000 0.000000 
#    y 0.000000 3.202630 0.000000 
#    z 0.000000 0.000000 3.184470 
# 
# 
# High freq. dielectric constant tensor:
#      x y z
#    x 1.679890 0.000000 0.000000 
#    y 0.000000 1.687690 0.000000 
#    z 0.000000 0.000000 1.682480 
# 
# From -- ./inp_files/68101.got.cif
#   From: 2010.03.12/outbox.cif.g09.slc.cpg/sg74_35_cif.got.tgz:68101.got - 2010.04.16 15:46:19.
