data_PCOD8299192
_publ_section_title
;
Structure prediction by ZEFSAII (Michael W. Deem and Ramdas Pophale) SiO2 
 PCOD8299192
Probable space group: I M M A
;
_chemical_formula_sum "Si O2"
_cell_formula_units_Z 104
_cell_length_a 21.570380
_cell_length_b 8.980017
_cell_length_c 27.119816
_cell_angle_alpha 90.000000
_cell_angle_beta 90.000000
_cell_angle_gamma 90.000000
_cell_volume 5253.172880
_symmetry_space_group_name_H-M "I M M A"
_symmetry_group_IT_number 74
_symmetry_cell_setting 'orthorhombic'
loop_
_space_group_symop_operation_xyz
x,y,z
-x,1/2-y,z
x,-y,-z
-x,1/2+y,-z
-x,-y,-z
x,1/2+y,-z
-x,y,z
x,1/2-y,z
1/2+x,1/2+y,1/2+z
1/2-x,-y,1/2+z
1/2+x,1/2-y,1/2-z
1/2-x,y,1/2-z
1/2-x,1/2-y,1/2-z
1/2+x,y,1/2-z
1/2-x,1/2+y,1/2+z
1/2+x,-y,1/2+z
loop_
_atom_site_type_symbol
_atom_site_label
_atom_site_fract_x
_atom_site_fract_y
_atom_site_fract_z
Si Si1 0.386096 0.574545 0.383088
Si Si2 0.500000 0.922679 0.448812
Si Si3 0.212516 0.426306 0.051763
Si Si4 0.568446 0.421484 0.951373
Si Si5 0.684594 0.922889 0.107370
Si Si6 0.309331 0.927040 0.219106
Si Si7 0.429804 0.073138 0.724298
O O1 0.371025 0.750000 0.383515
O O2 0.440220 0.527315 0.419422
O O3 0.327063 0.484147 0.401775
O O4 0.406807 0.520891 0.329292
O O5 0.500000 0.750000 0.458438
O O6 0.500000 0.000000 0.500000
O O7 0.207458 0.250000 0.045958
O O8 0.281286 0.477223 0.066398
O O9 0.191607 0.500000 0.000000
O O10 0.500000 0.483317 0.937810
O O11 0.565265 0.250000 0.965202
O O12 0.611944 0.446772 0.903908
O O13 0.595442 0.500000 0.000000
O O14 0.704085 0.750000 0.101134
O O15 0.698427 0.979023 0.162707
O O16 0.310102 0.750000 0.223055
O O17 0.250000 0.989164 0.250000
O O18 0.376334 0.986928 0.238559
O O19 0.500000 0.010736 0.735565
O O20 0.433686 0.250000 0.726000
#
# Coordination Sequence:
#
# PCOD8299192 Si02
#       7
#    16   8  16  16  16  16  16
#     4  10  19  35  56  80 111 145 184 227 275 325
#     4  10  20  32  50  76 106 140 178 222 269 320
#     4  12  25  39  56  80 109 145 187 231 281 335
#     4   9  18  32  51  76 106 138 172 212 262 322
#     4  10  20  35  55  80 111 146 183 227 276 328
#     4   9  17  29  49  79 110 142 181 226 275 323
#     4   9  16  29  53  84 115 147 186 232 279 328
#
# _framework density 19.797559
#
# number of rings (size 3 to 8) (size 9 to 14) (size 15 to 20)
#    0.000    2.154    0.769    3.231    0.000    6.769 
#    0.000    3.077    0.000    4.154    0.000    0.000 
#    0.000    0.000    0.000    0.000    0.000    0.000 
#
# Total GULP energy -644571.529048 kJ/mol
# GULP energy per Si atom -12395.606328 kJ/mol
# Density = 1.975250 g / cm^3
# Si number density = 19.797559 Si / 1000 Ang^3
#
#
#
# Elastic Constant Matrix: (Units=GPa)
#
#
# Indices 1 2 3 4 5 6 
#
# 1 117.9816 23.2382 39.1068 0.0000 0.0000 0.0000
# 2 23.2382 43.5503 20.6183 0.0000 0.0000 0.0000
# 3 39.1068 20.6183 90.6211 0.0000 0.0000 0.0000
# 4 0.0000 0.0000 0.0000 19.6317 0.0000 0.0000
# 5 0.0000 0.0000 0.0000 0.0000 40.9250 0.0000
# 6 0.0000 0.0000 0.0000 0.0000 0.0000 9.9407
#
#
#
# Elastic Compliance Matrix: (Units=1/GPa)
#
#
# Indices 1 2 3 4 5 6 
#
# 1 0.010437 -0.003852 -0.003628 0.000000 0.000000 0.000000
# 2 -0.003852 0.027155 -0.004516 0.000000 0.000000 0.000000
# 3 -0.003628 -0.004516 0.013628 0.000000 0.000000 0.000000
# 4 0.000000 0.000000 0.000000 0.050938 0.000000 0.000000
# 5 0.000000 0.000000 0.000000 0.000000 0.024435 0.000000
# 6 0.000000 0.000000 0.000000 0.000000 0.000000 0.100597
#
#
# Mechanical properties :
#
#
# Convention : Reuss Voigt Hill
#
# Bulk Modulus (GPa) = 36.72535 46.45327 41.58931
# Shear Modulus (GPa) = 19.21175 25.37880 22.29527
#
# Velocity S-wave (km/s) = 3.11852 3.58427 3.35948
# Velocity P-wave (km/s) = 5.61762 6.37530 6.00841
#
# Compressibility (1/GPa) = 0.02722915
#
# Stress axis : x y z
#
# Youngs Moduli (GPa) = 95.81316 36.82514 73.37835
#
# Poissons Ratio (x) = 0.14184 0.26619
# Poissons Ratio (y) = 0.36904 0.33140
# Poissons Ratio (z) = 0.34758 0.16631
#
# Static dielectric constant tensor:
#      x y z
#    x 3.987620 0.000000 0.000000 
#    y 0.000000 3.135030 0.000000 
#    z 0.000000 0.000000 3.651970 
# 
# 
# High freq. dielectric constant tensor:
#      x y z
#    x 1.791650 0.000000 0.000000 
#    y 0.000000 1.717540 0.000000 
#    z 0.000000 0.000000 1.774310 
# 
# From -- ./inp_files/68232.got.cif
#   From: 2010.03.12/outbox.cif.g09.slc.cpg/sg74_35_cif.got.tgz:68232.got - 2010.04.16 15:46:19.
