data_PCOD8299439
_publ_section_title
;
Structure prediction by ZEFSAII (Michael W. Deem and Ramdas Pophale) SiO2 
 PCOD8299439
Probable space group: I M M A
;
_chemical_formula_sum "Si O2"
_cell_formula_units_Z 96
_cell_length_a 9.237195
_cell_length_b 22.887168
_cell_length_c 24.275097
_cell_angle_alpha 90.000000
_cell_angle_beta 90.000000
_cell_angle_gamma 90.000000
_cell_volume 5132.076758
_symmetry_space_group_name_H-M "I M M A"
_symmetry_group_IT_number 74
_symmetry_cell_setting 'orthorhombic'
loop_
_space_group_symop_operation_xyz
x,y,z
-x,1/2-y,z
x,-y,-z
-x,1/2+y,-z
-x,-y,-z
x,1/2+y,-z
-x,y,z
x,1/2-y,z
1/2+x,1/2+y,1/2+z
1/2-x,-y,1/2+z
1/2+x,1/2-y,1/2-z
1/2-x,y,1/2-z
1/2-x,1/2-y,1/2-z
1/2+x,y,1/2-z
1/2-x,1/2+y,1/2+z
1/2+x,-y,1/2+z
loop_
_atom_site_type_symbol
_atom_site_label
_atom_site_fract_x
_atom_site_fract_y
_atom_site_fract_z
Si Si1 0.832298 0.528145 0.695043
Si Si2 0.841308 0.816878 0.798861
Si Si3 0.169590 0.105506 0.694584
Si Si4 0.332631 0.316932 0.482393
Si Si5 0.664580 0.182411 0.610082
Si Si6 0.829289 0.871889 0.611455
O O1 0.750000 0.548556 0.750000
O O2 0.793221 0.461561 0.680265
O O3 0.788131 0.567047 0.641694
O O4 0.000000 0.535973 0.708200
O O5 0.865498 0.750000 0.783818
O O6 0.750000 0.847979 0.750000
O O7 0.748967 0.820744 0.854472
O O8 0.000000 0.846980 0.804142
O O9 0.250000 0.125552 0.750000
O O10 0.223450 0.144145 0.644159
O O11 0.000000 0.115538 0.703150
O O12 0.500000 0.324907 0.465864
O O13 0.284664 0.250000 0.469894
O O14 0.308380 0.331039 0.546205
O O15 0.236208 0.364839 0.449715
O O16 0.500000 0.166093 0.626142
O O17 0.694305 0.250000 0.623020
O O18 0.000000 0.861963 0.609281
#
# Coordination Sequence:
#
# PCOD8299439 Si02
#       6
#    16  16  16  16  16  16
#     4   9  20  36  52  74 104 138 175 217 263 306
#     4  10  20  32  45  64  93 127 165 214 269 317
#     4  10  20  36  58  82 109 139 171 208 253 308
#     4   9  19  36  55  75 103 139 176 216 262 308
#     4   9  19  37  59  82 109 138 169 209 256 306
#     4  11  21  32  49  73 100 133 176 219 259 307
#
# _framework density 18.705877999999998
#
# number of rings (size 3 to 8) (size 9 to 14) (size 15 to 20)
#    0.000    2.333    0.000    3.500    0.000    8.000 
#    0.000    2.500    0.000    5.000    0.000    0.000 
#    0.000    0.000    0.000    0.000    0.000    0.000 
#
# Total GULP energy -595087.124789 kJ/mol
# GULP energy per Si atom -12397.648433 kJ/mol
# Density = 1.866330 g / cm^3
# Si number density = 18.705878 Si / 1000 Ang^3
#
#
#
# Elastic Constant Matrix: (Units=GPa)
#
#
# Indices 1 2 3 4 5 6 
#
# 1 115.4465 51.6683 65.6587 0.0000 0.0000 0.0000
# 2 51.6683 78.0346 56.2625 0.0000 0.0000 0.0000
# 3 65.6587 56.2625 106.6977 0.0000 0.0000 0.0000
# 4 0.0000 0.0000 0.0000 30.8980 0.0000 0.0000
# 5 0.0000 0.0000 0.0000 0.0000 39.7981 0.0000
# 6 0.0000 0.0000 0.0000 0.0000 0.0000 25.4055
#
#
#
# Elastic Compliance Matrix: (Units=1/GPa)
#
#
# Indices 1 2 3 4 5 6 
#
# 1 0.014486 -0.005105 -0.006222 0.000000 0.000000 0.000000
# 2 -0.005105 0.022474 -0.008709 0.000000 0.000000 0.000000
# 3 -0.006222 -0.008709 0.017794 0.000000 0.000000 0.000000
# 4 0.000000 0.000000 0.000000 0.032365 0.000000 0.000000
# 5 0.000000 0.000000 0.000000 0.000000 0.025127 0.000000
# 6 0.000000 0.000000 0.000000 0.000000 0.000000 0.039362
#
#
# Mechanical properties :
#
#
# Convention : Reuss Voigt Hill
#
# Bulk Modulus (GPa) = 68.11727 71.92865 70.02296
# Shear Modulus (GPa) = 25.43582 27.65960 26.54771
#
# Velocity S-wave (km/s) = 3.69152 3.84950 3.77134
# Velocity P-wave (km/s) = 7.39349 7.63506 7.51525
#
# Compressibility (1/GPa) = 0.01468056
#
# Stress axis : x y z
#
# Youngs Moduli (GPa) = 69.03453 44.49488 56.19982
#
# Poissons Ratio (x) = 0.22715 0.34967
# Poissons Ratio (y) = 0.35243 0.48947
# Poissons Ratio (z) = 0.42953 0.38752
#
# Static dielectric constant tensor:
#      x y z
#    x 3.599670 0.000000 0.000000 
#    y 0.000000 3.314620 0.000000 
#    z 0.000000 0.000000 3.362930 
# 
# 
# High freq. dielectric constant tensor:
#      x y z
#    x 1.734710 0.000000 0.000000 
#    y 0.000000 1.711810 0.000000 
#    z 0.000000 0.000000 1.719880 
# 
# From -- ./inp_files/57259.got.cif
#   From: 2010.03.12/outbox.cif.g09.slc.cpg/sg74_29_cif.got.tgz:57259.got - 2010.04.16 15:46:19.
