data_PCOD8299884
_publ_section_title
;
Structure prediction by ZEFSAII (Michael W. Deem and Ramdas Pophale) SiO2 
 PCOD8299884
Probable space group: I M M A
;
_chemical_formula_sum "Si O2"
_cell_formula_units_Z 88
_cell_length_a 13.969271
_cell_length_b 20.316128
_cell_length_c 15.266695
_cell_angle_alpha 90.000000
_cell_angle_beta 90.000000
_cell_angle_gamma 90.000000
_cell_volume 4332.710906
_symmetry_space_group_name_H-M "I M M A"
_symmetry_group_IT_number 74
_symmetry_cell_setting 'orthorhombic'
loop_
_space_group_symop_operation_xyz
x,y,z
-x,1/2-y,z
x,-y,-z
-x,1/2+y,-z
-x,-y,-z
x,1/2+y,-z
-x,y,z
x,1/2-y,z
1/2+x,1/2+y,1/2+z
1/2-x,-y,1/2+z
1/2+x,1/2-y,1/2-z
1/2-x,y,1/2-z
1/2-x,1/2-y,1/2-z
1/2+x,y,1/2-z
1/2-x,1/2+y,1/2+z
1/2+x,-y,1/2+z
loop_
_atom_site_type_symbol
_atom_site_label
_atom_site_fract_x
_atom_site_fract_y
_atom_site_fract_z
Si Si1 0.272896 0.000000 0.500000
Si Si2 0.113675 0.175747 0.728915
Si Si3 0.395242 0.826455 0.037295
Si Si4 0.891419 0.084114 0.210808
Si Si5 0.389299 0.060858 0.646497
Si Si6 0.292249 0.607887 0.886720
O O1 0.337998 0.052771 0.552571
O O2 0.203524 0.036982 0.433041
O O3 0.152067 0.250000 0.750100
O O4 0.145549 0.150079 0.632003
O O5 0.154075 0.123406 0.800101
O O6 0.000000 0.175987 0.731221
O O7 0.500000 0.858951 0.017671
O O8 0.410880 0.750000 0.047156
O O9 0.321425 0.838566 0.958545
O O10 0.816620 0.121196 0.146480
O O11 0.868917 0.107279 0.308899
O O12 0.000000 0.104511 0.186356
O O13 0.875913 0.005653 0.203552
O O14 0.500000 0.073627 0.626004
#
# Coordination Sequence:
#
# PCOD8299884 Si02
#       6
#     8  16  16  16  16  16
#     4  10  21  32  47  78 108 140 182 232 276 324
#     4   8  15  29  51  80 111 144 182 222 267 327
#     4   9  18  34  56  82 114 147 180 223 275 328
#     4   9  19  35  53  76 108 145 184 229 283 332
#     4   9  17  32  53  74 105 148 187 227 276 329
#     4  10  20  34  53  79 107 141 180 231 277 329
#
# _framework density 20.31061
#
# number of rings (size 3 to 8) (size 9 to 14) (size 15 to 20)
#    0.000    2.909    0.000    1.909    2.545    0.727 
#    0.000    3.636    0.000    3.818    0.000    0.000 
#    0.000    0.000    0.000    0.000    0.000    0.000 
#
# Total GULP energy -545251.782509 kJ/mol
# GULP energy per Si atom -12392.085966 kJ/mol
# Density = 2.026438 g / cm^3
# Si number density = 20.310610 Si / 1000 Ang^3
#
#
#
# Elastic Constant Matrix: (Units=GPa)
#
#
# Indices 1 2 3 4 5 6 
#
# 1 89.4517 20.9143 43.9227 0.0000 0.0000 0.0000
# 2 20.9143 50.6686 47.1133 -0.0003 -0.0001 -0.0001
# 3 43.9227 47.1133 133.0746 -0.0005 -0.0005 -0.0002
# 4 0.0000 -0.0003 -0.0005 42.1232 -0.0003 -0.0001
# 5 0.0000 -0.0001 -0.0005 -0.0003 12.6151 0.0000
# 6 0.0000 -0.0001 -0.0002 -0.0001 0.0000 12.2945
#
#
#
# Elastic Compliance Matrix: (Units=1/GPa)
#
#
# Indices 1 2 3 4 5 6 
#
# 1 0.013494 -0.002130 -0.003700 0.000000 0.000000 0.000000
# 2 -0.002130 0.029758 -0.009832 0.000000 0.000000 0.000000
# 3 -0.003700 -0.009832 0.012217 0.000000 0.000000 0.000000
# 4 0.000000 0.000000 0.000000 0.023740 0.000000 0.000000
# 5 0.000000 0.000000 0.000000 0.000000 0.079270 0.000000
# 6 0.000000 0.000000 0.000000 0.000000 0.000000 0.081337
#
#
# Mechanical properties :
#
#
# Convention : Reuss Voigt Hill
#
# Bulk Modulus (GPa) = 41.41715 55.23284 48.32500
# Shear Modulus (GPa) = 17.90913 24.15619 21.03266
#
# Velocity S-wave (km/s) = 2.97267 3.45242 3.22149
# Velocity P-wave (km/s) = 5.67613 6.56851 6.13856
#
# Compressibility (1/GPa) = 0.02414459
#
# Stress axis : x y z
#
# Youngs Moduli (GPa) = 74.10796 33.60496 81.85467
#
# Poissons Ratio (x) = 0.07156 0.30285
# Poissons Ratio (y) = 0.15782 0.80483
# Poissons Ratio (z) = 0.27419 0.33042
#
# Static dielectric constant tensor:
#      x y z
#    x 3.670240 0.000000 0.000000 
#    y 0.000000 3.462330 0.000000 
#    z 0.000000 0.000000 3.903360 
# 
# 
# High freq. dielectric constant tensor:
#      x y z
#    x 1.792360 0.000000 0.000000 
#    y 0.000000 1.756050 0.000000 
#    z 0.000000 0.000000 1.801510 
# 
# From -- ./inp_files/32570.got.cif
#   From: 2010.03.12/outbox.cif.g09.slc.cpg/sg74_17_cif.got.tgz:32570.got - 2010.04.16 15:46:19.
