data_PCOD8299383
_publ_section_title
;
Structure prediction by ZEFSAII (Michael W. Deem and Ramdas Pophale) SiO2 
 PCOD8299383
Probable space group: I M M A
;
_chemical_formula_sum "Si O2"
_cell_formula_units_Z 96
_cell_length_a 9.432548
_cell_length_b 30.819111
_cell_length_c 27.165316
_cell_angle_alpha 90.000000
_cell_angle_beta 90.000000
_cell_angle_gamma 90.000000
_cell_volume 7897.031898
_symmetry_space_group_name_H-M "I M M A"
_symmetry_group_IT_number 74
_symmetry_cell_setting 'orthorhombic'
loop_
_space_group_symop_operation_xyz
x,y,z
-x,1/2-y,z
x,-y,-z
-x,1/2+y,-z
-x,-y,-z
x,1/2+y,-z
-x,y,z
x,1/2-y,z
1/2+x,1/2+y,1/2+z
1/2-x,-y,1/2+z
1/2+x,1/2-y,1/2-z
1/2-x,y,1/2-z
1/2-x,1/2-y,1/2-z
1/2+x,y,1/2-z
1/2-x,1/2+y,1/2+z
1/2+x,-y,1/2+z
loop_
_atom_site_type_symbol
_atom_site_label
_atom_site_fract_x
_atom_site_fract_y
_atom_site_fract_z
Si Si1 0.842662 0.995955 0.392914
Si Si2 0.156710 0.084527 0.452724
Si Si3 0.164154 0.699477 0.798910
Si Si4 0.333921 0.453249 0.200610
Si Si5 0.166055 0.866883 0.643037
Si Si6 0.158827 0.955380 0.029952
O O1 0.791110 0.009122 0.338275
O O2 0.736752 0.961389 0.417599
O O3 0.000000 0.975307 0.391056
O O4 0.848859 0.038986 0.425230
O O5 0.203044 0.121056 0.413426
O O6 0.264989 0.082351 0.498325
O O7 0.000000 0.095035 0.473510
O O8 0.178194 0.750000 0.811172
O O9 0.250000 0.687010 0.750000
O O10 0.235642 0.673912 0.843904
O O11 0.000000 0.685932 0.792115
O O12 0.500000 0.455046 0.211674
O O13 0.250000 0.462742 0.250000
O O14 0.292678 0.406337 0.179105
O O15 0.000000 0.855294 0.648342
O O16 0.000000 0.939772 0.040766
O O17 0.160255 0.000000 0.000000
#
# Coordination Sequence:
#
# PCOD8299383 Si02
#       6
#    16  16  16  16  16  16
#     4   8  14  24  34  43  59  83 105 123 149 186
#     4   8  14  24  36  48  63  82 100 119 149 190
#     4  10  20  31  41  52  65  82 104 130 162 199
#     4   9  17  26  35  48  64  82 105 132 162 195
#     4   9  17  28  40  53  66  81 103 129 160 198
#     4   9  15  21  31  48  65  79  99 125 150 178
#
# _framework density 12.156466
#
# number of rings (size 3 to 8) (size 9 to 14) (size 15 to 20)
#    0.000    3.167    0.000    3.500    0.000    6.333 
#    0.000    3.333    0.000    0.000    0.000    0.000 
#    0.000    0.000    0.000    0.000    0.000    0.000 
#
# Total GULP energy -594969.026160 kJ/mol
# GULP energy per Si atom -12395.188045 kJ/mol
# Density = 1.212880 g / cm^3
# Si number density = 12.156466 Si / 1000 Ang^3
#
#
#
# Elastic Constant Matrix: (Units=GPa)
#
#
# Indices 1 2 3 4 5 6 
#
# 1 87.8965 34.3045 50.2227 0.0000 0.0000 0.0000
# 2 34.3045 32.4251 31.8145 0.0000 0.0000 0.0000
# 3 50.2227 31.8145 68.7061 0.0000 0.0000 0.0000
# 4 0.0000 0.0000 0.0000 19.3948 0.0000 0.0000
# 5 0.0000 0.0000 0.0000 0.0000 21.9893 0.0000
# 6 0.0000 0.0000 0.0000 0.0000 0.0000 14.7409
#
#
#
# Elastic Compliance Matrix: (Units=1/GPa)
#
#
# Indices 1 2 3 4 5 6 
#
# 1 0.022581 -0.014101 -0.009977 0.000000 0.000000 0.000000
# 2 -0.014101 0.065324 -0.019941 0.000000 0.000000 0.000000
# 3 -0.009977 -0.019941 0.031081 0.000000 0.000000 0.000000
# 4 0.000000 0.000000 0.000000 0.051560 0.000000 0.000000
# 5 0.000000 0.000000 0.000000 0.000000 0.045477 0.000000
# 6 0.000000 0.000000 0.000000 0.000000 0.000000 0.067839
#
#
# Mechanical properties :
#
#
# Convention : Reuss Voigt Hill
#
# Bulk Modulus (GPa) = 32.31129 46.85680 39.58404
# Shear Modulus (GPa) = 13.08166 16.07071 14.57618
#
# Velocity S-wave (km/s) = 3.28397 3.63986 3.46648
# Velocity P-wave (km/s) = 6.40441 7.50288 6.97530
#
# Compressibility (1/GPa) = 0.03094893
#
# Stress axis : x y z
#
# Youngs Moduli (GPa) = 44.28510 15.30838 32.17383
#
# Poissons Ratio (x) = 0.21586 0.32099
# Poissons Ratio (y) = 0.62446 0.64157
# Poissons Ratio (z) = 0.44182 0.30526
#
# Static dielectric constant tensor:
#      x y z
#    x 2.663760 0.000000 0.000000 
#    y 0.000000 2.183620 0.000000 
#    z 0.000000 0.000000 2.505740 
# 
# 
# High freq. dielectric constant tensor:
#      x y z
#    x 1.472270 0.000000 0.000000 
#    y 0.000000 1.405400 0.000000 
#    z 0.000000 0.000000 1.446430 
# 
# From -- ./inp_files/64680.got.cif
#   From: 2010.03.12/outbox.cif.g09.slc.cpg/sg74_33_cif.got.tgz:64680.got - 2010.04.16 15:46:19.
