data_PCOD8299211
_publ_section_title
;
Structure prediction by ZEFSAII (Michael W. Deem and Ramdas Pophale) SiO2 
 PCOD8299211
Probable space group: I M M A
;
_chemical_formula_sum "Si O2"
_cell_formula_units_Z 88
_cell_length_a 8.502002
_cell_length_b 22.552528
_cell_length_c 22.883558
_cell_angle_alpha 90.000000
_cell_angle_beta 90.000000
_cell_angle_gamma 90.000000
_cell_volume 4387.730898
_symmetry_space_group_name_H-M "I M M A"
_symmetry_group_IT_number 74
_symmetry_cell_setting 'orthorhombic'
loop_
_space_group_symop_operation_xyz
x,y,z
-x,1/2-y,z
x,-y,-z
-x,1/2+y,-z
-x,-y,-z
x,1/2+y,-z
-x,y,z
x,1/2-y,z
1/2+x,1/2+y,1/2+z
1/2-x,-y,1/2+z
1/2+x,1/2-y,1/2-z
1/2-x,y,1/2-z
1/2-x,1/2-y,1/2-z
1/2+x,y,1/2-z
1/2-x,1/2+y,1/2+z
1/2+x,-y,1/2+z
loop_
_atom_site_type_symbol
_atom_site_label
_atom_site_fract_x
_atom_site_fract_y
_atom_site_fract_z
Si Si1 0.813656 0.815181 0.810712
Si Si2 0.180775 0.081698 0.112043
Si Si3 0.319725 0.436272 0.516223
Si Si4 0.185088 0.481671 0.688888
Si Si5 0.685652 0.750000 0.183776
Si Si6 0.813951 0.629329 0.131190
O O1 0.744277 0.750000 0.823919
O O2 0.750000 0.839634 0.750000
O O3 0.747152 0.860257 0.858200
O O4 0.000000 0.813454 0.810160
O O5 0.000000 0.070360 0.129358
O O6 0.273328 0.023569 0.133738
O O7 0.196895 0.098979 0.044152
O O8 0.239562 0.500000 0.500000
O O9 0.500000 0.449150 0.534620
O O10 0.246140 0.397211 0.569076
O O11 0.250000 0.508652 0.750000
O O12 0.266969 0.417829 0.680718
O O13 0.000000 0.473382 0.692378
O O14 0.500000 0.750000 0.188585
O O15 0.750000 0.750000 0.250000
O O16 0.738877 0.692468 0.147026
O O17 0.000000 0.638442 0.128540
#
# Coordination Sequence:
#
# PCOD8299211 Si02
#       6
#    16  16  16  16   8  16
#     4   9  18  32  51  76 107 144 185 232 284 337
#     4  10  19  35  57  83 115 151 194 244 293 351
#     4   9  17  34  61  89 117 151 190 238 290 348
#     4  12  24  37  56  86 119 154 194 245 304 362
#     4  12  26  46  68  94 128 164 209 260 317 374
#     4  11  22  41  66  92 122 159 204 249 304 366
#
# _framework density 20.055924000000001
#
# number of rings (size 3 to 8) (size 9 to 14) (size 15 to 20)
#    0.000    1.636    1.818    4.091    0.000    2.182 
#    1.636    2.727    0.000    0.000    0.000    0.000 
#    0.000    0.000    0.000    0.000    0.000    0.000 
#
# Total GULP energy -545360.511995 kJ/mol
# GULP energy per Si atom -12394.557091 kJ/mol
# Density = 2.001028 g / cm^3
# Si number density = 20.055924 Si / 1000 Ang^3
#
#
#
# Elastic Constant Matrix: (Units=GPa)
#
#
# Indices 1 2 3 4 5 6 
#
# 1 70.1453 32.9555 28.2708 0.0000 0.0000 0.0000
# 2 32.9555 130.9630 70.6018 0.0000 0.0000 0.0000
# 3 28.2708 70.6018 122.9271 0.0000 0.0000 0.0000
# 4 0.0000 0.0000 0.0000 38.0601 0.0000 0.0000
# 5 0.0000 0.0000 0.0000 0.0000 24.4659 0.0000
# 6 0.0000 0.0000 0.0000 0.0000 0.0000 10.6152
#
#
#
# Elastic Compliance Matrix: (Units=1/GPa)
#
#
# Indices 1 2 3 4 5 6 
#
# 1 0.016515 -0.003054 -0.002044 0.000000 0.000000 0.000000
# 2 -0.003054 0.011625 -0.005974 0.000000 0.000000 0.000000
# 3 -0.002044 -0.005974 0.012036 0.000000 0.000000 0.000000
# 4 0.000000 0.000000 0.000000 0.026274 0.000000 0.000000
# 5 0.000000 0.000000 0.000000 0.000000 0.040873 0.000000
# 6 0.000000 0.000000 0.000000 0.000000 0.000000 0.094204
#
#
# Mechanical properties :
#
#
# Convention : Reuss Voigt Hill
#
# Bulk Modulus (GPa) = 55.45872 65.29906 60.37889
# Shear Modulus (GPa) = 21.76917 27.44206 24.60562
#
# Velocity S-wave (km/s) = 3.29815 3.70304 3.50644
# Velocity P-wave (km/s) = 6.49737 7.13530 6.82379
#
# Compressibility (1/GPa) = 0.01803143
#
# Stress axis : x y z
#
# Youngs Moduli (GPa) = 60.55211 86.02189 83.08193
#
# Poissons Ratio (x) = 0.26269 0.16983
# Poissons Ratio (y) = 0.18491 0.49636
# Poissons Ratio (z) = 0.12378 0.51392
#
# Static dielectric constant tensor:
#      x y z
#    x 3.392720 0.000000 0.000000 
#    y 0.000000 3.905940 0.000000 
#    z 0.000000 0.000000 3.863850 
# 
# 
# High freq. dielectric constant tensor:
#      x y z
#    x 1.756700 0.000000 0.000000 
#    y 0.000000 1.785220 0.000000 
#    z 0.000000 0.000000 1.792530 
# 
# From -- ./inp_files/56993.got.cif
#   From: 2010.03.12/outbox.cif.g09.slc.cpg/sg74_29_cif.got.tgz:56993.got - 2010.04.16 15:46:19.
