data_PCOD8299520
_publ_section_title
;
Structure prediction by ZEFSAII (Michael W. Deem and Ramdas Pophale) SiO2 
 PCOD8299520
Probable space group: I M M A
;
_chemical_formula_sum "Si O2"
_cell_formula_units_Z 80
_cell_length_a 12.982388
_cell_length_b 13.575024
_cell_length_c 27.584216
_cell_angle_alpha 90.000000
_cell_angle_beta 90.000000
_cell_angle_gamma 90.000000
_cell_volume 4861.338199
_symmetry_space_group_name_H-M "I M M A"
_symmetry_group_IT_number 74
_symmetry_cell_setting 'orthorhombic'
loop_
_space_group_symop_operation_xyz
x,y,z
-x,1/2-y,z
x,-y,-z
-x,1/2+y,-z
-x,-y,-z
x,1/2+y,-z
-x,y,z
x,1/2-y,z
1/2+x,1/2+y,1/2+z
1/2-x,-y,1/2+z
1/2+x,1/2-y,1/2-z
1/2-x,y,1/2-z
1/2-x,1/2-y,1/2-z
1/2+x,y,1/2-z
1/2-x,1/2+y,1/2+z
1/2+x,-y,1/2+z
loop_
_atom_site_type_symbol
_atom_site_label
_atom_site_fract_x
_atom_site_fract_y
_atom_site_fract_z
Si Si1 0.380350 0.857880 0.633462
Si Si2 0.776409 0.633892 0.383344
Si Si3 0.000000 0.632572 0.253316
Si Si4 0.619615 0.014541 0.556389
Si Si5 0.500000 0.865869 0.136646
Si Si6 0.184988 0.522726 0.204928
O O1 0.500000 0.839539 0.634659
O O2 0.325253 0.750000 0.634740
O O3 0.350639 0.913458 0.583636
O O4 0.351687 0.922882 0.679614
O O5 0.764495 0.750000 0.380365
O O6 0.698082 0.597862 0.424957
O O7 0.896466 0.602667 0.392962
O O8 0.750910 0.588879 0.331363
O O9 0.095967 0.592811 0.223623
O O10 0.000000 0.750000 0.251778
O O11 0.000000 0.590882 0.308450
O O12 0.500000 0.044532 0.567268
O O13 0.638272 0.000000 0.500000
O O14 0.500000 0.750000 0.143223
O O15 0.250000 0.484895 0.250000
#
# Coordination Sequence:
#
# PCOD8299520 Si02
#       6
#    16  16   8  16   8  16
#     4   9  18  33  50  68  95 130 165 206 254 298
#     4  10  20  32  49  75 104 134 165 204 251 303
#     4  11  20  30  45  70 105 137 165 204 252 301
#     4   9  19  35  53  76 101 125 162 210 258 313
#     4   9  18  32  47  68 102 139 170 196 240 303
#     4  11  20  31  48  72 100 135 173 206 245 296
#
# _framework density 16.456374
#
# number of rings (size 3 to 8) (size 9 to 14) (size 15 to 20)
#    0.000    2.200    3.000    0.600    1.400    2.400 
#    0.000    2.500    0.000    0.000    0.000    6.300 
#    0.000    0.000    0.000    0.000    0.000    0.000 
#
# Total GULP energy -495714.008248 kJ/mol
# GULP energy per Si atom -12392.850206 kJ/mol
# Density = 1.641892 g / cm^3
# Si number density = 16.456374 Si / 1000 Ang^3
#
#
#
# Elastic Constant Matrix: (Units=GPa)
#
#
# Indices 1 2 3 4 5 6 
#
# 1 -177.6317 -137.2159 -167.0853 0.0000 0.0000 0.0000
# 2 -137.2159 -1.9496 -90.6739 0.0000 0.0000 0.0000
# 3 -167.0853 -90.6739 -51.9852 0.0000 0.0000 0.0000
# 4 0.0000 0.0000 0.0000 14.4997 0.0000 0.0000
# 5 0.0000 0.0000 0.0000 0.0000 29.7134 0.0000
# 6 0.0000 0.0000 0.0000 0.0000 0.0000 15.4579
#
#
#
# Elastic Compliance Matrix: (Units=1/GPa)
#
#
# Indices 1 2 3 4 5 6 
#
# 1 0.004828 -0.004766 -0.007203 0.000000 0.000000 0.000000
# 2 -0.004766 0.011107 -0.004055 0.000000 0.000000 0.000000
# 3 -0.007203 -0.004055 0.010988 0.000000 0.000000 0.000000
# 4 0.000000 0.000000 0.000000 0.068967 0.000000 0.000000
# 5 0.000000 0.000000 0.000000 0.000000 0.033655 0.000000
# 6 0.000000 0.000000 0.000000 0.000000 0.000000 0.064692
#
#
# Mechanical properties :
#
#
# Convention : Reuss Voigt Hill
#
# Bulk Modulus (GPa) = -195.10539 -113.50187 -154.30363
# Shear Modulus (GPa) = 22.26421 22.82812 22.54617
#
# Velocity S-wave (km/s) = 3.68220 3.72854 3.70544
# Velocity P-wave (km/s) = 10.03685 7.11232 8.69838
#
# Compressibility (1/GPa) = -0.00512544
#
# Stress axis : x y z
#
# Youngs Moduli (GPa) = 207.14007 90.03027 91.01133
#
# Poissons Ratio (x) = 0.42910 0.65557
# Poissons Ratio (y) = 0.98728 0.36902
# Poissons Ratio (z) = 1.49206 0.36504
#
# Static dielectric constant tensor:
#      x y z
#    x 3.136070 0.000000 0.000000 
#    y 0.000000 3.151720 0.000000 
#    z 0.000000 0.000000 3.117170 
# 
# 
# High freq. dielectric constant tensor:
#      x y z
#    x 1.634100 0.000000 0.000000 
#    y 0.000000 1.623130 0.000000 
#    z 0.000000 0.000000 1.626880 
# 
# From -- ./inp_files/65868.got.cif
#   From: 2010.03.12/outbox.cif.g09.slc.cpg/sg74_33_cif.got.tgz:65868.got - 2010.04.16 15:46:19.
