data_PCOD8299591
_publ_section_title
;
Structure prediction by ZEFSAII (Michael W. Deem and Ramdas Pophale) SiO2 
 PCOD8299591
Probable space group: I M M A
;
_chemical_formula_sum "Si O2"
_cell_formula_units_Z 80
_cell_length_a 18.104588
_cell_length_b 13.335384
_cell_length_c 18.138503
_cell_angle_alpha 90.000000
_cell_angle_beta 90.000000
_cell_angle_gamma 90.000000
_cell_volume 4379.208402
_symmetry_space_group_name_H-M "I M M A"
_symmetry_group_IT_number 74
_symmetry_cell_setting 'orthorhombic'
loop_
_space_group_symop_operation_xyz
x,y,z
-x,1/2-y,z
x,-y,-z
-x,1/2+y,-z
-x,-y,-z
x,1/2+y,-z
-x,y,z
x,1/2-y,z
1/2+x,1/2+y,1/2+z
1/2-x,-y,1/2+z
1/2+x,1/2-y,1/2-z
1/2-x,y,1/2-z
1/2-x,1/2-y,1/2-z
1/2+x,y,1/2-z
1/2-x,1/2+y,1/2+z
1/2+x,-y,1/2+z
loop_
_atom_site_type_symbol
_atom_site_label
_atom_site_fract_x
_atom_site_fract_y
_atom_site_fract_z
Si Si1 0.306801 0.976777 0.082027
Si Si2 0.586218 0.364892 0.811636
Si Si3 0.804761 0.865257 0.882702
Si Si4 0.838144 0.136534 0.949018
Si Si5 0.084420 0.513868 0.166705
O O1 0.374295 0.933067 0.127715
O O2 0.241882 0.894944 0.080952
O O3 0.274440 0.078545 0.119420
O O4 0.336177 0.000000 0.000000
O O5 0.500000 0.370686 0.829270
O O6 0.614154 0.250000 0.814561
O O7 0.604424 0.408851 0.731467
O O8 0.792187 0.750000 0.860764
O O9 0.862853 0.916125 0.826310
O O10 0.840914 0.878748 0.963408
O O11 0.853157 0.250000 0.926634
O O12 0.901138 0.069879 0.910780
O O13 0.000000 0.477841 0.170721
#
# Coordination Sequence:
#
# PCOD8299591 Si02
#       5
#    16  16  16  16  16
#     4   9  18  34  55  76 100 127 161 208 254 300
#     4  10  21  36  54  77 103 130 161 201 253 306
#     4   9  19  34  51  73 101 136 175 210 246 289
#     4   9  17  30  50  76 103 133 170 209 251 297
#     4  10  20  33  48  72 107 139 169 208 248 290
#
# _framework density 18.268142000000001
#
# number of rings (size 3 to 8) (size 9 to 14) (size 15 to 20)
#    0.000    2.600    0.000    3.000    0.000    7.600 
#    0.000    9.000    0.000    1.800    0.000    0.000 
#    0.000    0.000    0.000    0.000    0.000    0.000 
#
# Total GULP energy -495957.697344 kJ/mol
# GULP energy per Si atom -12398.942434 kJ/mol
# Density = 1.822656 g / cm^3
# Si number density = 18.268142 Si / 1000 Ang^3
#
#
#
# Elastic Constant Matrix: (Units=GPa)
#
#
# Indices 1 2 3 4 5 6 
#
# 1 66.1552 54.6073 41.7489 0.0000 0.0000 0.0000
# 2 54.6073 151.8145 42.0338 0.0000 0.0000 0.0000
# 3 41.7489 42.0338 59.9438 0.0000 0.0000 0.0000
# 4 0.0000 0.0000 0.0000 28.9578 0.0000 0.0000
# 5 0.0000 0.0000 0.0000 0.0000 26.7474 0.0000
# 6 0.0000 0.0000 0.0000 0.0000 0.0000 26.0362
#
#
#
# Elastic Compliance Matrix: (Units=1/GPa)
#
#
# Indices 1 2 3 4 5 6 
#
# 1 0.031414 -0.006505 -0.017318 0.000000 0.000000 0.000000
# 2 -0.006505 0.009521 -0.002146 0.000000 0.000000 0.000000
# 3 -0.017318 -0.002146 0.030248 0.000000 0.000000 0.000000
# 4 0.000000 0.000000 0.000000 0.034533 0.000000 0.000000
# 5 0.000000 0.000000 0.000000 0.000000 0.037387 0.000000
# 6 0.000000 0.000000 0.000000 0.000000 0.000000 0.038408
#
#
# Mechanical properties :
#
#
# Convention : Reuss Voigt Hill
#
# Bulk Modulus (GPa) = 51.95720 61.63262 56.79491
# Shear Modulus (GPa) = 20.84528 25.64985 23.24756
#
# Velocity S-wave (km/s) = 3.38164 3.75116 3.57119
# Velocity P-wave (km/s) = 6.61442 7.25070 6.93985
#
# Compressibility (1/GPa) = 0.01924661
#
# Stress axis : x y z
#
# Youngs Moduli (GPa) = 31.83309 105.03262 33.05989
#
# Poissons Ratio (x) = 0.68320 0.57252
# Poissons Ratio (y) = 0.20706 0.07094
# Poissons Ratio (z) = 0.55127 0.22539
#
# Static dielectric constant tensor:
#      x y z
#    x 3.133220 0.000000 0.000000 
#    y 0.000000 3.611000 0.000000 
#    z 0.000000 0.000000 3.246810 
# 
# 
# High freq. dielectric constant tensor:
#      x y z
#    x 1.688420 0.000000 0.000000 
#    y 0.000000 1.717880 0.000000 
#    z 0.000000 0.000000 1.696200 
# 
# From -- ./inp_files/42668.got.cif
#   From: 2010.03.12/outbox.cif.g09.slc.cpg/sg74_22_cif.got.tgz:42668.got - 2010.04.16 15:46:19.
