data_PCOD8299551
_publ_section_title
;
Structure prediction by ZEFSAII (Michael W. Deem and Ramdas Pophale) SiO2 
 PCOD8299551
Probable space group: I M M A
;
_chemical_formula_sum "Si O2"
_cell_formula_units_Z 104
_cell_length_a 9.409159
_cell_length_b 27.249760
_cell_length_c 20.897877
_cell_angle_alpha 90.000000
_cell_angle_beta 90.000000
_cell_angle_gamma 90.000000
_cell_volume 5358.159752
_symmetry_space_group_name_H-M "I M M A"
_symmetry_group_IT_number 74
_symmetry_cell_setting 'orthorhombic'
loop_
_space_group_symop_operation_xyz
x,y,z
-x,1/2-y,z
x,-y,-z
-x,1/2+y,-z
-x,-y,-z
x,1/2+y,-z
-x,y,z
x,1/2-y,z
1/2+x,1/2+y,1/2+z
1/2-x,-y,1/2+z
1/2+x,1/2-y,1/2-z
1/2-x,y,1/2-z
1/2-x,1/2-y,1/2-z
1/2+x,y,1/2-z
1/2-x,1/2+y,1/2+z
1/2+x,-y,1/2+z
loop_
_atom_site_type_symbol
_atom_site_label
_atom_site_fract_x
_atom_site_fract_y
_atom_site_fract_z
Si Si1 0.168618 0.582277 0.190891
Si Si2 0.154829 0.446008 0.056543
Si Si3 0.335887 0.380727 0.552785
Si Si4 0.662296 0.693597 0.968887
Si Si5 0.750000 0.096059 0.250000
Si Si6 0.160204 0.512150 0.660463
Si Si7 0.650956 0.153023 0.367229
O O1 0.250000 0.609197 0.250000
O O2 0.204842 0.612305 0.126925
O O3 0.233200 0.527560 0.189472
O O4 0.000000 0.578368 0.203314
O O5 0.280989 0.475863 0.089536
O O6 0.142139 0.392875 0.086437
O O7 0.000000 0.473009 0.063356
O O8 0.190144 0.434027 0.981992
O O9 0.500000 0.365098 0.545787
O O10 0.240620 0.337652 0.523464
O O11 0.500000 0.675949 0.965575
O O12 0.674710 0.750000 0.989307
O O13 0.726109 0.687315 0.896778
O O14 0.665907 0.133586 0.295071
O O15 0.845385 0.060816 0.294981
O O16 0.000000 0.491712 0.654103
O O17 0.500000 0.181574 0.369877
#
# Coordination Sequence:
#
# PCOD8299551 Si02
#       7
#    16  16  16  16   8  16  16
#     4  11  23  38  55  78 109 143 184 225 268 322
#     4   8  16  32  51  73 103 137 179 227 271 312
#     4   9  20  38  59  81 106 141 179 220 271 328
#     4  10  21  37  59  87 113 136 170 223 283 339
#     4  10  20  32  51  76 110 150 199 236 264 306
#     4  11  21  32  50  75 106 147 191 229 269 314
#     4   9  18  32  52  78 108 147 189 228 273 325
#
# _framework density 19.409648000000001
#
# number of rings (size 3 to 8) (size 9 to 14) (size 15 to 20)
#    0.000    2.308    0.769    2.769    0.000   10.462 
#    0.000    3.462    0.000    0.462    0.000    0.000 
#    0.000    0.000    0.000    0.000    0.000    0.000 
#
# Total GULP energy -644263.913760 kJ/mol
# GULP energy per Si atom -12389.690649 kJ/mol
# Density = 1.936547 g / cm^3
# Si number density = 19.409648 Si / 1000 Ang^3
#
#
#
# Elastic Constant Matrix: (Units=GPa)
#
#
# Indices 1 2 3 4 5 6 
#
# 1 147.2701 40.7682 67.6782 0.0001 0.0000 0.0000
# 2 40.7682 38.7334 43.6323 0.0001 0.0000 0.0000
# 3 67.6782 43.6323 131.0059 0.0004 0.0001 0.0000
# 4 0.0001 0.0001 0.0004 12.5571 0.0001 0.0000
# 5 0.0000 0.0000 0.0001 0.0001 20.1569 0.0000
# 6 0.0000 0.0000 0.0000 0.0000 0.0000 22.5256
#
#
#
# Elastic Compliance Matrix: (Units=1/GPa)
#
#
# Indices 1 2 3 4 5 6 
#
# 1 0.010144 -0.007640 -0.002696 0.000000 0.000000 0.000000
# 2 -0.007640 0.047074 -0.011731 0.000000 0.000000 0.000000
# 3 -0.002696 -0.011731 0.012933 0.000000 0.000000 0.000000
# 4 0.000000 0.000000 0.000000 0.079637 0.000000 0.000000
# 5 0.000000 0.000000 0.000000 0.000000 0.049611 0.000000
# 6 0.000000 0.000000 0.000000 0.000000 0.000000 0.044394
#
#
# Mechanical properties :
#
#
# Convention : Reuss Voigt Hill
#
# Bulk Modulus (GPa) = 38.43705 69.01850 53.72777
# Shear Modulus (GPa) = 16.85774 22.04331 19.45052
#
# Velocity S-wave (km/s) = 2.95027 3.37365 3.16904
# Velocity P-wave (km/s) = 5.60816 7.12821 6.41338
#
# Compressibility (1/GPa) = 0.02601657
#
# Stress axis : x y z
#
# Youngs Moduli (GPa) = 98.57899 21.24308 77.32063
#
# Poissons Ratio (x) = 0.16230 0.20845
# Poissons Ratio (y) = 0.75316 0.90708
# Poissons Ratio (z) = 0.26576 0.24921
#
# Static dielectric constant tensor:
#      x y z
#    x 3.693260 0.000000 0.000000 
#    y 0.000000 3.109680 0.000000 
#    z 0.000000 0.000000 4.150780 
# 
# 
# High freq. dielectric constant tensor:
#      x y z
#    x 1.759510 0.000000 0.000000 
#    y 0.000000 1.710020 0.000000 
#    z 0.000000 0.000000 1.765440 
# 
# From -- ./inp_files/49571.got.cif
#   From: 2010.03.12/outbox.cif.g09.slc.cpg/sg74_25_cif.got.tgz:49571.got - 2010.04.16 15:46:19.
