data_PCOD8299797
_publ_section_title
;
Structure prediction by ZEFSAII (Michael W. Deem and Ramdas Pophale) SiO2 
 PCOD8299797
Probable space group: I M M A
;
_chemical_formula_sum "Si O2"
_cell_formula_units_Z 64
_cell_length_a 9.217473
_cell_length_b 14.047596
_cell_length_c 28.028790
_cell_angle_alpha 90.000000
_cell_angle_beta 90.000000
_cell_angle_gamma 90.000000
_cell_volume 3629.261257
_symmetry_space_group_name_H-M "I M M A"
_symmetry_group_IT_number 74
_symmetry_cell_setting 'orthorhombic'
loop_
_space_group_symop_operation_xyz
x,y,z
-x,1/2-y,z
x,-y,-z
-x,1/2+y,-z
-x,-y,-z
x,1/2+y,-z
-x,y,z
x,1/2-y,z
1/2+x,1/2+y,1/2+z
1/2-x,-y,1/2+z
1/2+x,1/2-y,1/2-z
1/2-x,y,1/2-z
1/2-x,1/2-y,1/2-z
1/2+x,y,1/2-z
1/2-x,1/2+y,1/2+z
1/2+x,-y,1/2+z
loop_
_atom_site_type_symbol
_atom_site_label
_atom_site_fract_x
_atom_site_fract_y
_atom_site_fract_z
Si Si1 0.830727 0.487050 0.446646
Si Si2 0.168156 0.641968 0.877594
Si Si3 0.332322 0.859285 0.130863
Si Si4 0.670365 0.488141 0.700516
O O1 0.769756 0.500000 0.500000
O O2 0.754222 0.396249 0.423238
O O3 0.795318 0.582606 0.417067
O O4 0.000000 0.464243 0.447635
O O5 0.215434 0.750000 0.867203
O O6 0.205977 0.581162 0.830761
O O7 0.000000 0.633740 0.890266
O O8 0.500000 0.873107 0.145411
O O9 0.294838 0.750000 0.120391
O O10 0.233616 0.894954 0.174475
O O11 0.500000 0.473525 0.708858
O O12 0.750000 0.503893 0.750000
#
# Coordination Sequence:
#
# PCOD8299797 Si02
#       4
#    16  16  16  16
#     4   9  18  32  51  76 103 130 163 203 245 288
#     4   9  19  35  52  72 100 132 165 201 241 288
#     4   9  18  33  51  71  98 131 165 201 241 287
#     4  10  20  34  52  73  98 127 161 202 246 292
#
# _framework density 17.634443000000001
#
# number of rings (size 3 to 8) (size 9 to 14) (size 15 to 20)
#    0.000    2.750    0.000    0.750    0.000    4.500 
#    0.000    2.500    0.000    0.000    0.000    0.000 
#    0.000    0.000    0.000    0.000    0.000    0.000 
#
# Total GULP energy -396881.869749 kJ/mol
# GULP energy per Si atom -12402.558430 kJ/mol
# Density = 1.759431 g / cm^3
# Si number density = 17.634443 Si / 1000 Ang^3
#
#
#
# Elastic Constant Matrix: (Units=GPa)
#
#
# Indices 1 2 3 4 5 6 
#
# 1 65.4999 44.3361 58.9960 0.0000 0.0000 0.0000
# 2 44.3361 126.9834 54.2234 0.0000 0.0000 0.0000
# 3 58.9960 54.2234 142.7367 0.0000 0.0000 0.0000
# 4 0.0000 0.0000 0.0000 13.9913 0.0000 0.0000
# 5 0.0000 0.0000 0.0000 0.0000 25.2115 0.0000
# 6 0.0000 0.0000 0.0000 0.0000 0.0000 27.8832
#
#
#
# Elastic Compliance Matrix: (Units=1/GPa)
#
#
# Indices 1 2 3 4 5 6 
#
# 1 0.027324 -0.005631 -0.009155 0.000000 0.000000 0.000000
# 2 -0.005631 0.010560 -0.001684 0.000000 0.000000 0.000000
# 3 -0.009155 -0.001684 0.011429 0.000000 0.000000 0.000000
# 4 0.000000 0.000000 0.000000 0.071473 0.000000 0.000000
# 5 0.000000 0.000000 0.000000 0.000000 0.039664 0.000000
# 6 0.000000 0.000000 0.000000 0.000000 0.000000 0.035864
#
#
# Mechanical properties :
#
#
# Convention : Reuss Voigt Hill
#
# Bulk Modulus (GPa) = 61.07121 72.25900 66.66510
# Shear Modulus (GPa) = 21.30259 25.26152 23.28206
#
# Velocity S-wave (km/s) = 3.47942 3.78896 3.63748
# Velocity P-wave (km/s) = 7.13083 7.75929 7.45169
#
# Compressibility (1/GPa) = 0.01637433
#
# Stress axis : x y z
#
# Youngs Moduli (GPa) = 36.59737 94.69386 87.49316
#
# Poissons Ratio (x) = 0.53324 0.80096
# Poissons Ratio (y) = 0.20609 0.14736
# Poissons Ratio (z) = 0.33503 0.15949
#
# Static dielectric constant tensor:
#      x y z
#    x 3.278800 0.000000 0.000000 
#    y 0.000000 3.351590 0.000000 
#    z 0.000000 0.000000 3.302700 
# 
# 
# High freq. dielectric constant tensor:
#      x y z
#    x 1.681620 0.000000 0.000000 
#    y 0.000000 1.682260 0.000000 
#    z 0.000000 0.000000 1.682010 
# 
# From -- ./inp_files/56402.got.cif
#   From: 2010.03.12/outbox.cif.g09.slc.cpg/sg74_29_cif.got.tgz:56402.got - 2010.04.16 15:46:19.
