data_PCOD8299428
_publ_section_title
;
Structure prediction by ZEFSAII (Michael W. Deem and Ramdas Pophale) SiO2 
 PCOD8299428
Probable space group: I M M A
;
_chemical_formula_sum "Si O2"
_cell_formula_units_Z 88
_cell_length_a 9.990038
_cell_length_b 26.697431
_cell_length_c 18.156999
_cell_angle_alpha 90.000000
_cell_angle_beta 90.000000
_cell_angle_gamma 90.000000
_cell_volume 4842.623248
_symmetry_space_group_name_H-M "I M M A"
_symmetry_group_IT_number 74
_symmetry_cell_setting 'orthorhombic'
loop_
_space_group_symop_operation_xyz
x,y,z
-x,1/2-y,z
x,-y,-z
-x,1/2+y,-z
-x,-y,-z
x,1/2+y,-z
-x,y,z
x,1/2-y,z
1/2+x,1/2+y,1/2+z
1/2-x,-y,1/2+z
1/2+x,1/2-y,1/2-z
1/2-x,y,1/2-z
1/2-x,1/2-y,1/2-z
1/2+x,y,1/2-z
1/2-x,1/2+y,1/2+z
1/2+x,-y,1/2+z
loop_
_atom_site_type_symbol
_atom_site_label
_atom_site_fract_x
_atom_site_fract_y
_atom_site_fract_z
Si Si1 0.148250 0.661213 0.920849
Si Si2 0.153766 0.004819 0.682696
Si Si3 0.154861 0.806992 0.083619
Si Si4 0.153890 0.896162 0.399456
Si Si5 0.143868 0.250000 0.188909
Si Si6 0.346751 0.922116 0.935139
O O1 0.161401 0.701173 0.858309
O O2 0.253783 0.619287 0.898314
O O3 0.000000 0.637163 0.924133
O O4 0.180396 0.689106 0.996873
O O5 0.250000 0.988580 0.750000
O O6 0.179321 0.062862 0.663634
O O7 0.000000 0.996203 0.707470
O O8 0.183572 0.973799 0.607592
O O9 0.191706 0.750000 0.108497
O O10 0.251694 0.848611 0.120389
O O11 0.000000 0.818537 0.104034
O O12 0.187722 0.923312 0.477590
O O13 0.000000 0.877697 0.399246
O O14 0.250000 0.250000 0.250000
O O15 0.000000 0.250000 0.227698
O O16 0.500000 0.906326 0.923618
#
# Coordination Sequence:
#
# PCOD8299428 Si02
#       6
#    16  16  16  16   8  16
#     4   9  17  31  48  67  94 127 162 202 247 292
#     4  10  21  36  53  73 102 136 168 205 252 303
#     4   9  16  29  51  76 101 127 157 199 251 300
#     4   9  18  33  53  77 102 131 167 208 251 295
#     4  10  20  32  44  60  90 132 169 202 243 290
#     4   9  18  33  53  75  98 128 167 209 250 293
#
# _framework density 18.171970000000002
#
# number of rings (size 3 to 8) (size 9 to 14) (size 15 to 20)
#    0.000    2.727    0.909    0.545    0.000    5.455 
#    0.000    3.636    0.000    6.000    0.000    0.000 
#    0.000    0.000    0.000    0.000    0.000    0.000 
#
# Total GULP energy -545320.981005 kJ/mol
# GULP energy per Si atom -12393.658659 kJ/mol
# Density = 1.813061 g / cm^3
# Si number density = 18.171970 Si / 1000 Ang^3
#
#
#
# Elastic Constant Matrix: (Units=GPa)
#
#
# Indices 1 2 3 4 5 6 
#
# 1 84.8487 55.7618 22.1741 0.0000 0.0000 0.0000
# 2 55.7618 97.8189 11.3525 0.0000 0.0000 0.0000
# 3 22.1741 11.3525 30.3048 0.0005 -0.0001 0.0001
# 4 0.0000 0.0000 0.0005 10.0148 0.0000 0.0000
# 5 0.0000 0.0000 -0.0001 0.0000 24.4104 0.0000
# 6 0.0000 0.0000 0.0001 0.0000 0.0000 34.5960
#
#
#
# Elastic Compliance Matrix: (Units=1/GPa)
#
#
# Indices 1 2 3 4 5 6 
#
# 1 0.022444 -0.011383 -0.012158 0.000001 0.000000 0.000000
# 2 -0.011383 0.016461 0.002163 0.000000 0.000000 0.000000
# 3 -0.012158 0.002163 0.041084 -0.000002 0.000000 0.000000
# 4 0.000001 0.000000 -0.000002 0.099852 0.000000 0.000000
# 5 0.000000 0.000000 0.000000 0.000000 0.040966 0.000000
# 6 0.000000 0.000000 0.000000 0.000000 0.000000 0.028905
#
#
# Mechanical properties :
#
#
# Convention : Reuss Voigt Hill
#
# Bulk Modulus (GPa) = 26.85880 43.50547 35.18213
# Shear Modulus (GPa) = 16.39990 22.04984 19.22487
#
# Velocity S-wave (km/s) = 3.00740 3.48717 3.25613
# Velocity P-wave (km/s) = 5.18379 6.34088 5.79130
#
# Compressibility (1/GPa) = 0.03723175
#
# Stress axis : x y z
#
# Youngs Moduli (GPa) = 44.55546 60.74972 24.34041
#
# Poissons Ratio (x) = 0.69152 0.29593
# Poissons Ratio (y) = 0.50718 -0.05264
# Poissons Ratio (z) = 0.54171 -0.13138
#
# Static dielectric constant tensor:
#      x y z
#    x 3.522660 0.000000 0.000000 
#    y 0.000000 3.434900 0.000000 
#    z 0.000000 0.000000 2.947610 
# 
# 
# High freq. dielectric constant tensor:
#      x y z
#    x 1.707340 0.000000 0.000000 
#    y 0.000000 1.702600 0.000000 
#    z 0.000000 0.000000 1.676700 
# 
# From -- ./inp_files/30820.got.cif
#   From: 2010.03.12/outbox.cif.g09.slc.cpg/sg74_16_cif.got.tgz:30820.got - 2010.04.16 15:46:19.
