data_PCOD8299410
_publ_section_title
;
Structure prediction by ZEFSAII (Michael W. Deem and Ramdas Pophale) SiO2 
 PCOD8299410
Probable space group: I M M A
;
_chemical_formula_sum "Si O2"
_cell_formula_units_Z 112
_cell_length_a 17.498111
_cell_length_b 19.982062
_cell_length_c 17.588363
_cell_angle_alpha 90.000000
_cell_angle_beta 90.000000
_cell_angle_gamma 90.000000
_cell_volume 6149.741907
_symmetry_space_group_name_H-M "I M M A"
_symmetry_group_IT_number 74
_symmetry_cell_setting 'orthorhombic'
loop_
_space_group_symop_operation_xyz
x,y,z
-x,1/2-y,z
x,-y,-z
-x,1/2+y,-z
-x,-y,-z
x,1/2+y,-z
-x,y,z
x,1/2-y,z
1/2+x,1/2+y,1/2+z
1/2-x,-y,1/2+z
1/2+x,1/2-y,1/2-z
1/2-x,y,1/2-z
1/2-x,1/2-y,1/2-z
1/2+x,y,1/2-z
1/2-x,1/2+y,1/2+z
1/2+x,-y,1/2+z
loop_
_atom_site_type_symbol
_atom_site_label
_atom_site_fract_x
_atom_site_fract_y
_atom_site_fract_z
Si Si1 0.414079 0.325487 0.407338
Si Si2 0.910634 0.034824 0.813369
Si Si3 0.315469 0.078568 0.986521
Si Si4 0.415570 0.935894 0.148602
Si Si5 0.141470 0.075356 0.971893
Si Si6 0.162587 0.396202 0.224436
Si Si7 0.414601 0.093968 0.124123
O O1 0.500000 0.332430 0.374272
O O2 0.397598 0.250000 0.434657
O O3 0.409549 0.374246 0.479732
O O4 0.352532 0.342928 0.342060
O O5 0.895333 0.078089 0.736896
O O6 0.883837 0.079799 0.884078
O O7 0.000000 0.015219 0.819474
O O8 0.860647 0.967575 0.811101
O O9 0.355399 0.099635 0.907125
O O10 0.228092 0.100469 0.982252
O O11 0.358298 0.115950 0.055819
O O12 0.322560 0.000000 0.000000
O O13 0.500000 0.908398 0.129056
O O14 0.413393 0.014908 0.135610
O O15 0.128625 0.000000 0.000000
O O16 0.250000 0.398712 0.250000
O O17 0.113133 0.373602 0.297129
O O18 0.500000 0.119141 0.105047
#
# Coordination Sequence:
#
# PCOD8299410 Si02
#       7
#    16  16  16  16  16  16  16
#     4  11  24  41  57  75 106 149 191 227 271 326
#     4  10  20  31  49  76 108 142 178 221 272 325
#     4   9  17  27  43  71 103 135 170 214 269 314
#     4   8  15  26  41  66 103 137 168 206 262 326
#     4  11  21  32  54  79 107 136 178 231 275 322
#     4  11  21  32  52  77 109 139 180 224 268 324
#     4   9  16  27  44  65  97 139 176 212 261 320
#
# _framework density 18.212147000000002
#
# number of rings (size 3 to 8) (size 9 to 14) (size 15 to 20)
#    0.000    2.143    1.429    3.857    6.000    2.571 
#    0.000    0.000    0.000    0.000    0.000    2.000 
#    0.000    2.857    0.000    0.571    0.000    0.000 
#
# Total GULP energy -694302.075750 kJ/mol
# GULP energy per Si atom -12398.251353 kJ/mol
# Density = 1.817070 g / cm^3
# Si number density = 18.212147 Si / 1000 Ang^3
#
#
#
# Elastic Constant Matrix: (Units=GPa)
#
#
# Indices 1 2 3 4 5 6 
#
# 1 108.0324 27.4914 49.4637 0.0000 0.0000 0.0000
# 2 27.4914 48.9362 31.2421 0.0000 0.0000 0.0000
# 3 49.4637 31.2421 137.3879 0.0000 0.0000 0.0000
# 4 0.0000 0.0000 0.0000 12.1150 0.0000 0.0000
# 5 0.0000 0.0000 0.0000 0.0000 36.5619 0.0000
# 6 0.0000 0.0000 0.0000 0.0000 0.0000 8.6731
#
#
#
# Elastic Compliance Matrix: (Units=1/GPa)
#
#
# Indices 1 2 3 4 5 6 
#
# 1 0.011917 -0.004627 -0.003238 0.000000 0.000000 0.000000
# 2 -0.004627 0.025702 -0.004179 0.000000 0.000000 0.000000
# 3 -0.003238 -0.004179 0.009395 0.000000 0.000000 0.000000
# 4 0.000000 0.000000 0.000000 0.082542 0.000000 0.000000
# 5 0.000000 0.000000 0.000000 0.000000 0.027351 0.000000
# 6 0.000000 0.000000 0.000000 0.000000 0.000000 0.115299
#
#
# Mechanical properties :
#
#
# Convention : Reuss Voigt Hill
#
# Bulk Modulus (GPa) = 43.61999 56.75009 50.18504
# Shear Modulus (GPa) = 16.45088 23.88062 20.16575
#
# Velocity S-wave (km/s) = 3.00874 3.62504 3.33118
# Velocity P-wave (km/s) = 6.00609 6.98208 6.51239
#
# Compressibility (1/GPa) = 0.02292527
#
# Stress axis : x y z
#
# Youngs Moduli (GPa) = 83.91670 38.90739 106.44288
#
# Poissons Ratio (x) = 0.18003 0.34467
# Poissons Ratio (y) = 0.38830 0.44480
# Poissons Ratio (z) = 0.27173 0.16258
#
# Static dielectric constant tensor:
#      x y z
#    x 3.538000 0.000000 0.000000 
#    y 0.000000 2.668430 0.000000 
#    z 0.000000 0.000000 3.718790 
# 
# 
# High freq. dielectric constant tensor:
#      x y z
#    x 1.721560 0.000000 0.000000 
#    y 0.000000 1.618560 0.000000 
#    z 0.000000 0.000000 1.724740 
# 
# From -- ./inp_files/44384.got.cif
#   From: 2010.03.12/outbox.cif.g09.slc.cpg/sg74_23_cif.got.tgz:44384.got - 2010.04.16 15:46:19.
