data_PCOD8299854
_publ_section_title
;
Structure prediction by ZEFSAII (Michael W. Deem and Ramdas Pophale) SiO2 
 PCOD8299854
Probable space group: I M M A
;
_chemical_formula_sum "Si O2"
_cell_formula_units_Z 72
_cell_length_a 9.740099
_cell_length_b 12.275119
_cell_length_c 32.146193
_cell_angle_alpha 90.000000
_cell_angle_beta 90.000000
_cell_angle_gamma 90.000000
_cell_volume 3843.426940
_symmetry_space_group_name_H-M "I M M A"
_symmetry_group_IT_number 74
_symmetry_cell_setting 'orthorhombic'
loop_
_space_group_symop_operation_xyz
x,y,z
-x,1/2-y,z
x,-y,-z
-x,1/2+y,-z
-x,-y,-z
x,1/2+y,-z
-x,y,z
x,1/2-y,z
1/2+x,1/2+y,1/2+z
1/2-x,-y,1/2+z
1/2+x,1/2-y,1/2-z
1/2-x,y,1/2-z
1/2-x,1/2-y,1/2-z
1/2+x,y,1/2-z
1/2-x,1/2+y,1/2+z
1/2+x,-y,1/2+z
loop_
_atom_site_type_symbol
_atom_site_label
_atom_site_fract_x
_atom_site_fract_y
_atom_site_fract_z
Si Si1 0.159733 0.374968 0.024421
Si Si2 0.156058 0.582818 0.359369
Si Si3 0.351371 0.626800 0.433467
Si Si4 0.339198 0.750000 0.209013
Si Si5 0.842736 0.872357 0.599654
O O1 0.212040 0.250000 0.023897
O O2 0.247053 0.426073 0.063372
O O3 0.000000 0.382481 0.035881
O O4 0.186696 0.431280 0.978258
O O5 0.239074 0.628084 0.398087
O O6 0.203252 0.640882 0.316736
O O7 0.172817 0.450713 0.359513
O O8 0.000000 0.618029 0.367365
O O9 0.500000 0.581681 0.417433
O O10 0.373233 0.750000 0.448288
O O11 0.500000 0.750000 0.220703
O O12 0.250000 0.750000 0.250000
O O13 0.797830 0.750000 0.612496
O O14 0.000000 0.874016 0.583776
#
# Coordination Sequence:
#
# PCOD8299854 Si02
#       5
#    16  16  16   8  16
#     4   8  15  28  44  65  98 139 178 216 252 286
#     4  10  20  34  53  76 101 129 163 207 256 302
#     4   9  17  29  46  70 101 136 175 214 254 299
#     4  10  22  40  60  82 104 126 156 202 262 322
#     4   9  18  32  49  71 100 136 176 209 242 290
#
# _framework density 18.733281999999999
#
# number of rings (size 3 to 8) (size 9 to 14) (size 15 to 20)
#    0.000    2.889    1.111    1.333    0.000    3.556 
#    0.000    6.667    0.000    0.667    0.000    0.000 
#    0.000    0.000    0.000    0.000    0.000    0.000 
#
# Total GULP energy -446030.527773 kJ/mol
# GULP energy per Si atom -12389.736883 kJ/mol
# Density = 1.869064 g / cm^3
# Si number density = 18.733282 Si / 1000 Ang^3
#
#
#
# Elastic Constant Matrix: (Units=GPa)
#
#
# Indices 1 2 3 4 5 6 
#
# 1 68.4118 31.0800 64.6408 0.0000 0.0000 0.0000
# 2 31.0800 92.0143 64.2943 0.0000 0.0000 0.0000
# 3 64.6408 64.2943 134.9882 0.0000 0.0000 0.0000
# 4 0.0000 0.0000 0.0000 22.7787 0.0000 0.0000
# 5 0.0000 0.0000 0.0000 0.0000 31.1207 0.0000
# 6 0.0000 0.0000 0.0000 0.0000 0.0000 16.4844
#
#
#
# Elastic Compliance Matrix: (Units=1/GPa)
#
#
# Indices 1 2 3 4 5 6 
#
# 1 0.026698 -0.000127 -0.012724 0.000000 0.000000 0.000000
# 2 -0.000127 0.016290 -0.007698 0.000000 0.000000 0.000000
# 3 -0.012724 -0.007698 0.017168 0.000000 0.000000 0.000000
# 4 0.000000 0.000000 0.000000 0.043901 0.000000 0.000000
# 5 0.000000 0.000000 0.000000 0.000000 0.032133 0.000000
# 6 0.000000 0.000000 0.000000 0.000000 0.000000 0.060663
#
#
# Mechanical properties :
#
#
# Convention : Reuss Voigt Hill
#
# Bulk Modulus (GPa) = 52.47376 68.38273 60.42824
# Shear Modulus (GPa) = 20.46645 23.10338 21.78492
#
# Velocity S-wave (km/s) = 3.30891 3.51562 3.41383
# Velocity P-wave (km/s) = 6.53225 7.28437 6.91854
#
# Compressibility (1/GPa) = 0.01905714
#
# Stress axis : x y z
#
# Youngs Moduli (GPa) = 37.45630 61.38894 58.24917
#
# Poissons Ratio (x) = 0.00779 0.74117
# Poissons Ratio (y) = 0.00475 0.44839
# Poissons Ratio (z) = 0.47660 0.47256
#
# Static dielectric constant tensor:
#      x y z
#    x 3.377720 0.000000 0.000000 
#    y 0.000000 4.136840 0.000000 
#    z 0.000000 0.000000 3.037920 
# 
# 
# High freq. dielectric constant tensor:
#      x y z
#    x 1.723060 0.000000 0.000000 
#    y 0.000000 1.771520 0.000000 
#    z 0.000000 0.000000 1.675790 
# 
# From -- ./inp_files/66735.got.cif
#   From: 2010.03.12/outbox.cif.g09.slc.cpg/sg74_34_cif.got.tgz:66735.got - 2010.04.16 15:46:19.
