data_PCOD8299735
_publ_section_title
;
Structure prediction by ZEFSAII (Michael W. Deem and Ramdas Pophale) SiO2 
 PCOD8299735
Probable space group: I M M A
;
_chemical_formula_sum "Si O2"
_cell_formula_units_Z 96
_cell_length_a 24.029314
_cell_length_b 15.321883
_cell_length_c 13.736961
_cell_angle_alpha 90.000000
_cell_angle_beta 90.000000
_cell_angle_gamma 90.000000
_cell_volume 5057.596518
_symmetry_space_group_name_H-M "I M M A"
_symmetry_group_IT_number 74
_symmetry_cell_setting 'orthorhombic'
loop_
_space_group_symop_operation_xyz
x,y,z
-x,1/2-y,z
x,-y,-z
-x,1/2+y,-z
-x,-y,-z
x,1/2+y,-z
-x,y,z
x,1/2-y,z
1/2+x,1/2+y,1/2+z
1/2-x,-y,1/2+z
1/2+x,1/2-y,1/2-z
1/2-x,y,1/2-z
1/2-x,1/2-y,1/2-z
1/2+x,y,1/2-z
1/2-x,1/2+y,1/2+z
1/2+x,-y,1/2+z
loop_
_atom_site_type_symbol
_atom_site_label
_atom_site_fract_x
_atom_site_fract_y
_atom_site_fract_z
Si Si1 0.290564 0.152064 0.659628
Si Si2 0.852672 0.514891 0.890122
Si Si3 0.435442 0.040907 0.228263
Si Si4 0.364228 0.651454 0.916067
Si Si5 0.241458 0.850887 0.940554
Si Si6 0.939484 0.414834 0.566820
O O1 0.317139 0.250000 0.665877
O O2 0.250000 0.137201 0.750000
O O3 0.258839 0.141550 0.557247
O O4 0.336149 0.075773 0.662238
O O5 0.906945 0.547253 0.833336
O O6 0.803767 0.587610 0.887709
O O7 0.871981 0.500000 0.000000
O O8 0.500000 0.065774 0.239791
O O9 0.405999 0.111029 0.160400
O O10 0.428223 0.945371 0.178021
O O11 0.356648 0.750000 0.886525
O O12 0.302081 0.611137 0.910564
O O13 0.390131 0.645739 0.025700
O O14 0.231504 0.750000 0.908506
O O15 0.941028 0.500000 0.500000
O O16 0.000000 0.367599 0.560955
#
# Coordination Sequence:
#
# PCOD8299735 Si02
#       6
#    16  16  16  16  16  16
#     4   9  19  34  55  83 112 142 183 229 272 335
#     4  10  22  37  58  81 109 150 188 234 283 328
#     4  10  22  37  54  78 107 146 194 235 272 326
#     4  10  20  33  54  83 115 146 176 220 278 344
#     4   9  20  36  52  83 120 146 180 225 280 339
#     4   8  16  31  49  71 101 136 173 216 262 313
#
# _framework density 18.981348000000001
#
# number of rings (size 3 to 8) (size 9 to 14) (size 15 to 20)
#    0.000    2.667    0.000    1.500    4.667    7.000 
#    0.000    1.667    0.000    1.500    0.000    4.667 
#    0.000    0.000    0.000    0.000    0.000    0.000 
#
# Total GULP energy -594776.795305 kJ/mol
# GULP energy per Si atom -12391.183236 kJ/mol
# Density = 1.893815 g / cm^3
# Si number density = 18.981348 Si / 1000 Ang^3
#
#
#
# Elastic Constant Matrix: (Units=GPa)
#
#
# Indices 1 2 3 4 5 6 
#
# 1 144.1240 38.1757 64.7527 0.0000 0.0000 0.0000
# 2 38.1757 66.1698 28.7964 0.0000 0.0000 0.0000
# 3 64.7527 28.7964 83.2934 0.0000 0.0000 0.0000
# 4 0.0000 0.0000 0.0000 13.6392 0.0000 0.0000
# 5 0.0000 0.0000 0.0000 0.0000 32.8553 0.0000
# 6 0.0000 0.0000 0.0000 0.0000 0.0000 13.4090
#
#
#
# Elastic Compliance Matrix: (Units=1/GPa)
#
#
# Indices 1 2 3 4 5 6 
#
# 1 0.011192 -0.003144 -0.007614 0.000000 0.000000 0.000000
# 2 -0.003144 0.018672 -0.004012 0.000000 0.000000 0.000000
# 3 -0.007614 -0.004012 0.019312 0.000000 0.000000 0.000000
# 4 0.000000 0.000000 0.000000 0.073318 0.000000 0.000000
# 5 0.000000 0.000000 0.000000 0.000000 0.030436 0.000000
# 6 0.000000 0.000000 0.000000 0.000000 0.000000 0.074577
#
#
# Mechanical properties :
#
#
# Convention : Reuss Voigt Hill
#
# Bulk Modulus (GPa) = 50.92229 61.89297 56.40763
# Shear Modulus (GPa) = 18.96881 22.77155 20.87018
#
# Velocity S-wave (km/s) = 3.16466 3.46740 3.31948
# Velocity P-wave (km/s) = 6.34344 6.97915 6.66887
#
# Compressibility (1/GPa) = 0.01963776
#
# Stress axis : x y z
#
# Youngs Moduli (GPa) = 89.35008 53.55608 51.78212
#
# Poissons Ratio (x) = 0.16836 0.39426
# Poissons Ratio (y) = 0.28088 0.20772
# Poissons Ratio (z) = 0.68030 0.21484
#
# Static dielectric constant tensor:
#      x y z
#    x 3.507790 0.000000 0.000000 
#    y 0.000000 3.530500 0.000000 
#    z 0.000000 0.000000 3.517450 
# 
# 
# High freq. dielectric constant tensor:
#      x y z
#    x 1.727510 0.000000 0.000000 
#    y 0.000000 1.726810 0.000000 
#    z 0.000000 0.000000 1.730740 
# 
# From -- ./inp_files/35304.got.cif
#   From: 2010.03.12/outbox.cif.g09.slc.cpg/sg74_18_cif.got.tgz:35304.got - 2010.04.16 15:46:19.
