data_PCOD8299784
_publ_section_title
;
Structure prediction by ZEFSAII (Michael W. Deem and Ramdas Pophale) SiO2 
 PCOD8299784
Probable space group: I M M A
;
_chemical_formula_sum "Si O2"
_cell_formula_units_Z 88
_cell_length_a 8.974793
_cell_length_b 27.220457
_cell_length_c 18.946558
_cell_angle_alpha 90.000000
_cell_angle_beta 90.000000
_cell_angle_gamma 90.000000
_cell_volume 4628.605600
_symmetry_space_group_name_H-M "I M M A"
_symmetry_group_IT_number 74
_symmetry_cell_setting 'orthorhombic'
loop_
_space_group_symop_operation_xyz
x,y,z
-x,1/2-y,z
x,-y,-z
-x,1/2+y,-z
-x,-y,-z
x,1/2+y,-z
-x,y,z
x,1/2-y,z
1/2+x,1/2+y,1/2+z
1/2-x,-y,1/2+z
1/2+x,1/2-y,1/2-z
1/2-x,y,1/2-z
1/2-x,1/2-y,1/2-z
1/2+x,y,1/2-z
1/2-x,1/2+y,1/2+z
1/2+x,-y,1/2+z
loop_
_atom_site_type_symbol
_atom_site_label
_atom_site_fract_x
_atom_site_fract_y
_atom_site_fract_z
Si Si1 0.331996 0.822275 0.418485
Si Si2 0.329189 0.410945 0.084542
Si Si3 0.169905 0.066094 0.940513
Si Si4 0.673374 0.999948 0.175509
Si Si5 0.173236 0.750000 0.323290
Si Si6 0.329088 0.196562 0.060080
O O1 0.500000 0.803501 0.406645
O O2 0.321345 0.880080 0.407795
O O3 0.221262 0.799240 0.362525
O O4 0.281614 0.804474 0.494890
O O5 0.500000 0.416423 0.060455
O O6 0.298371 0.442966 0.154625
O O7 0.293775 0.353401 0.104489
O O8 0.232899 0.432701 0.020079
O O9 0.000000 0.047136 0.944342
O O10 0.263430 0.031922 0.888716
O O11 0.500000 0.987888 0.184091
O O12 0.750000 0.988182 0.250000
O O13 0.250000 0.750000 0.250000
O O14 0.000000 0.750000 0.312359
O O15 0.500000 0.194143 0.033622
O O16 0.303690 0.250000 0.099522
#
# Coordination Sequence:
#
# PCOD8299784 Si02
#       6
#    16  16  16  16   8  16
#     4  10  20  34  51  74 104 133 167 214 262 310
#     4   9  19  35  55  82 112 142 180 225 273 321
#     4  10  21  36  57  83 109 140 178 223 272 323
#     4  11  23  38  56  77 107 146 184 228 276 327
#     4  12  24  36  50  68  96 138 179 216 259 310
#     4   9  16  29  53  81 106 134 170 213 261 313
#
# _framework density 19.012205000000002
#
# number of rings (size 3 to 8) (size 9 to 14) (size 15 to 20)
#    0.000    2.000    0.909    3.000    0.000    6.545 
#    0.000    0.000    0.000    0.545    0.000    0.000 
#    0.000    0.000    0.000    0.000    0.000    0.182 
#
# Total GULP energy -545263.062641 kJ/mol
# GULP energy per Si atom -12392.342333 kJ/mol
# Density = 1.896893 g / cm^3
# Si number density = 19.012205 Si / 1000 Ang^3
#
#
#
# Elastic Constant Matrix: (Units=GPa)
#
#
# Indices 1 2 3 4 5 6 
#
# 1 112.8698 29.6555 22.8400 0.0001 0.0000 0.0000
# 2 29.6555 106.6847 22.5647 0.0000 0.0000 0.0000
# 3 22.8400 22.5647 40.4980 0.0004 0.0000 0.0000
# 4 0.0001 0.0000 0.0004 3.1124 0.0000 0.0000
# 5 0.0000 0.0000 0.0000 0.0000 23.3375 0.0000
# 6 0.0000 0.0000 0.0000 0.0000 0.0000 25.0161
#
#
#
# Elastic Compliance Matrix: (Units=1/GPa)
#
#
# Indices 1 2 3 4 5 6 
#
# 1 0.010315 -0.001856 -0.004784 0.000000 0.000000 0.000000
# 2 -0.001856 0.010959 -0.005060 0.000001 0.000000 0.000000
# 3 -0.004784 -0.005060 0.030210 -0.000003 0.000000 0.000000
# 4 0.000000 0.000001 -0.000003 0.321295 0.000000 0.000000
# 5 0.000000 0.000000 0.000000 0.000000 0.042849 0.000000
# 6 0.000000 0.000000 0.000000 0.000000 0.000000 0.039974
#
#
# Mechanical properties :
#
#
# Convention : Reuss Voigt Hill
#
# Bulk Modulus (GPa) = 35.60477 45.57478 40.58978
# Shear Modulus (GPa) = 10.23827 22.62603 16.43215
#
# Velocity S-wave (km/s) = 2.32310 3.45349 2.94308
# Velocity P-wave (km/s) = 5.09546 6.31867 5.73974
#
# Compressibility (1/GPa) = 0.02808612
#
# Stress axis : x y z
#
# Youngs Moduli (GPa) = 96.94318 91.24566 33.10193
#
# Poissons Ratio (x) = 0.16931 0.15835
# Poissons Ratio (y) = 0.17989 0.16749
# Poissons Ratio (z) = 0.46375 0.46169
#
# Static dielectric constant tensor:
#      x y z
#    x 3.593260 0.000000 0.000000 
#    y 0.000000 3.944740 0.000000 
#    z 0.000000 0.000000 3.050080 
# 
# 
# High freq. dielectric constant tensor:
#      x y z
#    x 1.751360 0.000000 0.000000 
#    y 0.000000 1.763260 0.000000 
#    z 0.000000 0.000000 1.692660 
# 
# From -- ./inp_files/40095.got.cif
#   From: 2010.03.12/outbox.cif.g09.slc.cpg/sg74_21_cif.got.tgz:40095.got - 2010.04.16 15:46:19.
