data_PCOD8299976
_publ_section_title
;
Structure prediction by ZEFSAII (Michael W. Deem and Ramdas Pophale) SiO2 
 PCOD8299976
Probable space group: I M M A
;
_chemical_formula_sum "Si O2"
_cell_formula_units_Z 88
_cell_length_a 8.717155
_cell_length_b 27.307601
_cell_length_c 19.060338
_cell_angle_alpha 90.000000
_cell_angle_beta 90.000000
_cell_angle_gamma 90.000000
_cell_volume 4537.210356
_symmetry_space_group_name_H-M "I M M A"
_symmetry_group_IT_number 74
_symmetry_cell_setting 'orthorhombic'
loop_
_space_group_symop_operation_xyz
x,y,z
-x,1/2-y,z
x,-y,-z
-x,1/2+y,-z
-x,-y,-z
x,1/2+y,-z
-x,y,z
x,1/2-y,z
1/2+x,1/2+y,1/2+z
1/2-x,-y,1/2+z
1/2+x,1/2-y,1/2-z
1/2-x,y,1/2-z
1/2-x,1/2-y,1/2-z
1/2+x,y,1/2-z
1/2-x,1/2+y,1/2+z
1/2+x,-y,1/2+z
loop_
_atom_site_type_symbol
_atom_site_label
_atom_site_fract_x
_atom_site_fract_y
_atom_site_fract_z
Si Si1 0.180952 0.750000 0.326427
Si Si2 0.679892 0.806308 0.554239
Si Si3 0.819091 0.632628 0.672509
Si Si4 0.822883 0.536004 0.825392
Si Si5 0.318627 0.657299 0.084855
Si Si6 0.178539 0.927614 0.172977
O O1 0.250000 0.750000 0.250000
O O2 0.239608 0.702141 0.367239
O O3 0.000000 0.750000 0.319612
O O4 0.500000 0.814122 0.562199
O O5 0.723345 0.750000 0.540133
O O6 0.760350 0.822527 0.626027
O O7 0.741412 0.839191 0.490874
O O8 0.750000 0.637695 0.750000
O O9 0.764415 0.581012 0.636412
O O10 0.000000 0.634173 0.677142
O O11 0.750000 0.530414 0.750000
O O12 0.802555 0.482377 0.860103
O O13 0.000000 0.550654 0.819127
O O14 0.500000 0.658315 0.075190
O O15 0.267147 0.606985 0.119711
O O16 0.250000 0.922377 0.250000
O O17 0.000000 0.913152 0.178182
#
# Coordination Sequence:
#
# PCOD8299976 Si02
#       6
#     8  16  16  16  16  16
#     4  10  22  36  54  80 111 148 193 240 284 330
#     4  11  24  42  63  85 113 152 192 235 291 350
#     4  11  22  38  63  91 119 149 187 235 284 344
#     4   9  17  32  55  83 117 151 188 235 285 340
#     4  11  22  38  57  81 115 154 195 240 289 344
#     4  10  20  34  55  85 118 155 197 241 288 337
#
# _framework density 19.395178000000001
#
# number of rings (size 3 to 8) (size 9 to 14) (size 15 to 20)
#    0.000    1.636    0.909    5.455    0.000    6.545 
#    0.000    0.909    0.000    5.455    0.000    0.000 
#    0.000    0.000    0.000    0.000    0.000    0.000 
#
# Total GULP energy -545580.800691 kJ/mol
# GULP energy per Si atom -12399.563652 kJ/mol
# Density = 1.935103 g / cm^3
# Si number density = 19.395178 Si / 1000 Ang^3
#
#
#
# Elastic Constant Matrix: (Units=GPa)
#
#
# Indices 1 2 3 4 5 6 
#
# 1 123.4488 48.4116 41.1882 0.0000 0.0000 0.0000
# 2 48.4116 82.9847 42.5659 0.0002 0.0000 0.0000
# 3 41.1882 42.5659 95.1732 0.0002 0.0000 0.0000
# 4 0.0000 0.0002 0.0002 25.8875 0.0000 0.0000
# 5 0.0000 0.0000 0.0000 0.0000 34.5683 0.0000
# 6 0.0000 0.0000 0.0000 0.0000 0.0000 32.9049
#
#
#
# Elastic Compliance Matrix: (Units=1/GPa)
#
#
# Indices 1 2 3 4 5 6 
#
# 1 0.010922 -0.005122 -0.002436 0.000000 0.000000 0.000000
# 2 -0.005122 0.018040 -0.005852 0.000000 0.000000 0.000000
# 3 -0.002436 -0.005852 0.014178 0.000000 0.000000 0.000000
# 4 0.000000 0.000000 0.000000 0.038629 0.000000 0.000000
# 5 0.000000 0.000000 0.000000 0.000000 0.028928 0.000000
# 6 0.000000 0.000000 0.000000 0.000000 0.000000 0.030391
#
#
# Mechanical properties :
#
#
# Convention : Reuss Voigt Hill
#
# Bulk Modulus (GPa) = 61.27008 62.88198 62.07603
# Shear Modulus (GPa) = 28.84377 29.96823 29.40600
#
# Velocity S-wave (km/s) = 3.86056 3.93509 3.89800
# Velocity P-wave (km/s) = 7.17850 7.28961 7.23427
#
# Compressibility (1/GPa) = 0.01632118
#
# Stress axis : x y z
#
# Youngs Moduli (GPa) = 91.55876 55.43194 70.52969
#
# Poissons Ratio (x) = 0.28394 0.17180
# Poissons Ratio (y) = 0.46899 0.41271
# Poissons Ratio (z) = 0.22302 0.32437
#
# Static dielectric constant tensor:
#      x y z
#    x 3.673230 0.000000 0.000000 
#    y 0.000000 4.174780 0.000000 
#    z 0.000000 0.000000 3.280860 
# 
# 
# High freq. dielectric constant tensor:
#      x y z
#    x 1.771610 0.000000 0.000000 
#    y 0.000000 1.770180 0.000000 
#    z 0.000000 0.000000 1.729920 
# 
# From -- ./inp_files/40124.got.cif
#   From: 2010.03.12/outbox.cif.g09.slc.cpg/sg74_21_cif.got.tgz:40124.got - 2010.04.16 15:46:19.
