data_PCOD8299459
_publ_section_title
;
Structure prediction by ZEFSAII (Michael W. Deem and Ramdas Pophale) SiO2 
 PCOD8299459
Probable space group: I M M A
;
_chemical_formula_sum "Si O2"
_cell_formula_units_Z 80
_cell_length_a 8.993786
_cell_length_b 18.454882
_cell_length_c 23.789404
_cell_angle_alpha 90.000000
_cell_angle_beta 90.000000
_cell_angle_gamma 90.000000
_cell_volume 3948.547657
_symmetry_space_group_name_H-M "I M M A"
_symmetry_group_IT_number 74
_symmetry_cell_setting 'orthorhombic'
loop_
_space_group_symop_operation_xyz
x,y,z
-x,1/2-y,z
x,-y,-z
-x,1/2+y,-z
-x,-y,-z
x,1/2+y,-z
-x,y,z
x,1/2-y,z
1/2+x,1/2+y,1/2+z
1/2-x,-y,1/2+z
1/2+x,1/2-y,1/2-z
1/2-x,y,1/2-z
1/2-x,1/2-y,1/2-z
1/2+x,y,1/2-z
1/2-x,1/2+y,1/2+z
1/2+x,-y,1/2+z
loop_
_atom_site_type_symbol
_atom_site_label
_atom_site_fract_x
_atom_site_fract_y
_atom_site_fract_z
Si Si1 0.328104 0.892479 0.983277
Si Si2 0.675907 0.962949 0.612584
Si Si3 0.326065 0.168624 0.308759
Si Si4 0.167421 0.750000 0.984880
Si Si5 0.327941 0.605323 0.116028
Si Si6 0.667757 0.250000 0.618666
O O1 0.500000 0.893973 0.966531
O O2 0.245663 0.957047 0.950121
O O3 0.253229 0.818954 0.961059
O O4 0.306186 0.898844 0.049362
O O5 0.500000 0.971652 0.608244
O O6 0.726797 0.892123 0.647150
O O7 0.744492 0.035105 0.641605
O O8 0.500000 0.161951 0.298677
O O9 0.284143 0.250000 0.330195
O O10 0.250000 0.151348 0.250000
O O11 0.000000 0.750000 0.960225
O O12 0.165263 0.750000 0.051787
O O13 0.500000 0.605113 0.133586
O O14 0.253502 0.678460 0.140386
O O15 0.500000 0.250000 0.642642
#
# Coordination Sequence:
#
# PCOD8299459 Si02
#       6
#    16  16  16   8  16   8
#     4  10  20  32  46  69 102 140 179 219 260 308
#     4  11  22  33  51  77 104 135 175 220 267 318
#     4   9  20  39  59  79 104 135 173 222 274 322
#     4   9  17  29  45  65  92 131 174 215 255 301
#     4  10  20  34  50  72 106 143 179 219 260 308
#     4   9  17  31  51  71  96 133 176 213 253 303
#
# _framework density 20.260615000000001
#
# number of rings (size 3 to 8) (size 9 to 14) (size 15 to 20)
#    0.000    2.200    0.000    3.000    1.400    8.800 
#    0.000    0.000    0.000    0.000    0.000    0.700 
#    0.000    0.000    0.000    0.000    0.000    0.000 
#
# Total GULP energy -495962.535365 kJ/mol
# GULP energy per Si atom -12399.063384 kJ/mol
# Density = 2.021450 g / cm^3
# Si number density = 20.260615 Si / 1000 Ang^3
#
#
#
# Elastic Constant Matrix: (Units=GPa)
#
#
# Indices 1 2 3 4 5 6 
#
# 1 124.3401 68.2434 18.8792 0.0000 0.0000 0.0000
# 2 68.2434 154.2387 16.9717 0.0000 0.0000 0.0000
# 3 18.8792 16.9717 24.5846 0.0000 0.0000 0.0000
# 4 0.0000 0.0000 0.0000 12.8771 0.0000 0.0000
# 5 0.0000 0.0000 0.0000 0.0000 19.6500 0.0000
# 6 0.0000 0.0000 0.0000 0.0000 0.0000 40.3435
#
#
#
# Elastic Compliance Matrix: (Units=1/GPa)
#
#
# Indices 1 2 3 4 5 6 
#
# 1 0.011305 -0.004379 -0.005658 0.000000 0.000000 0.000000
# 2 -0.004379 0.008713 -0.002652 0.000000 0.000000 0.000000
# 3 -0.005658 -0.002652 0.046852 0.000000 0.000000 0.000000
# 4 0.000000 0.000000 0.000000 0.077658 0.000000 0.000000
# 5 0.000000 0.000000 0.000000 0.000000 0.050891 0.000000
# 6 0.000000 0.000000 0.000000 0.000000 0.000000 0.024787
#
#
# Mechanical properties :
#
#
# Convention : Reuss Voigt Hill
#
# Bulk Modulus (GPa) = 24.10172 56.81688 40.45930
# Shear Modulus (GPa) = 19.27419 27.84540 23.55979
#
# Velocity S-wave (km/s) = 3.08768 3.71126 3.41374
# Velocity P-wave (km/s) = 4.96320 6.81678 5.96246
#
# Compressibility (1/GPa) = 0.04149081
#
# Stress axis : x y z
#
# Youngs Moduli (GPa) = 88.45490 114.77198 21.34394
#
# Poissons Ratio (x) = 0.50263 0.12077
# Poissons Ratio (y) = 0.38738 0.05660
# Poissons Ratio (z) = 0.50050 0.30435
#
# Static dielectric constant tensor:
#      x y z
#    x 3.725120 0.000000 0.000000 
#    y 0.000000 4.801170 0.000000 
#    z 0.000000 0.000000 3.106170 
# 
# 
# High freq. dielectric constant tensor:
#      x y z
#    x 1.799690 0.000000 0.000000 
#    y 0.000000 1.814230 0.000000 
#    z 0.000000 0.000000 1.729410 
# 
# From -- ./inp_files/64017.got.cif
#   From: 2010.03.12/outbox.cif.g09.slc.cpg/sg74_33_cif.got.tgz:64017.got - 2010.04.16 15:46:19.
