data_PCOD8299935
_publ_section_title
;
Structure prediction by ZEFSAII (Michael W. Deem and Ramdas Pophale) SiO2 
 PCOD8299935
Probable space group: I M M A
;
_chemical_formula_sum "Si O2"
_cell_formula_units_Z 104
_cell_length_a 9.293780
_cell_length_b 28.125452
_cell_length_c 19.678901
_cell_angle_alpha 90.000000
_cell_angle_beta 90.000000
_cell_angle_gamma 90.000000
_cell_volume 5143.902632
_symmetry_space_group_name_H-M "I M M A"
_symmetry_group_IT_number 74
_symmetry_cell_setting 'orthorhombic'
loop_
_space_group_symop_operation_xyz
x,y,z
-x,1/2-y,z
x,-y,-z
-x,1/2+y,-z
-x,-y,-z
x,1/2+y,-z
-x,y,z
x,1/2-y,z
1/2+x,1/2+y,1/2+z
1/2-x,-y,1/2+z
1/2+x,1/2-y,1/2-z
1/2-x,y,1/2-z
1/2-x,1/2-y,1/2-z
1/2+x,y,1/2-z
1/2-x,1/2+y,1/2+z
1/2+x,-y,1/2+z
loop_
_atom_site_type_symbol
_atom_site_label
_atom_site_fract_x
_atom_site_fract_y
_atom_site_fract_z
Si Si1 0.166994 0.160962 0.910881
Si Si2 0.337053 0.535963 0.559408
Si Si3 0.830809 0.194731 0.319408
Si Si4 0.838427 0.102665 0.685998
Si Si5 0.160119 0.990127 0.687573
Si Si6 0.667532 0.250000 0.679729
Si Si7 0.663106 0.853880 0.560073
O O1 0.261736 0.116855 0.884342
O O2 0.212842 0.205162 0.865086
O O3 0.000000 0.147191 0.902862
O O4 0.200662 0.173204 0.989698
O O5 0.290677 0.500000 0.500000
O O6 0.500000 0.524086 0.582436
O O7 0.227852 0.528483 0.619470
O O8 0.321933 0.590908 0.538927
O O9 0.801767 0.250000 0.336340
O O10 0.750000 0.180217 0.250000
O O11 0.770454 0.162714 0.380869
O O12 0.000000 0.184430 0.310725
O O13 0.750000 0.123867 0.750000
O O14 0.000000 0.123433 0.689115
O O15 0.840980 0.046470 0.689420
O O16 0.250000 0.968856 0.750000
O O17 0.000000 0.969392 0.693247
O O18 0.500000 0.250000 0.696192
O O19 0.750000 0.250000 0.750000
O O20 0.500000 0.842440 0.583905
#
# Coordination Sequence:
#
# PCOD8299935 Si02
#       7
#    16  16  16  16  16   8  16
#     4  10  21  37  57  82 112 148 191 234 282 339
#     4  10  21  38  59  85 118 155 196 242 294 352
#     4  10  22  41  65  92 121 155 197 247 304 366
#     4  10  20  34  54  80 110 147 193 240 287 339
#     4  10  21  36  56  82 111 148 191 237 288 340
#     4  10  22  38  56  82 113 148 187 228 275 328
#     4  10  22  38  61  90 118 154 196 242 296 352
#
# _framework density 20.218111
#
# number of rings (size 3 to 8) (size 9 to 14) (size 15 to 20)
#    0.000    2.000    0.000    2.769    1.077    8.000 
#    0.000    0.000    0.000    0.000    0.000    0.000 
#    0.000    0.000    0.000    0.000    0.000    0.000 
#
# Total GULP energy -644870.873783 kJ/mol
# GULP energy per Si atom -12401.362957 kJ/mol
# Density = 2.017209 g / cm^3
# Si number density = 20.218111 Si / 1000 Ang^3
#
#
#
# Elastic Constant Matrix: (Units=GPa)
#
#
# Indices 1 2 3 4 5 6 
#
# 1 110.8515 33.9222 71.3487 0.0001 0.0000 0.0000
# 2 33.9222 52.1082 43.7553 0.0001 0.0000 0.0000
# 3 71.3487 43.7553 146.8141 0.0005 0.0000 0.0001
# 4 0.0001 0.0001 0.0005 30.4366 0.0000 0.0000
# 5 0.0000 0.0000 0.0000 0.0000 41.6257 0.0000
# 6 0.0000 0.0000 0.0001 0.0000 0.0000 28.5313
#
#
#
# Elastic Compliance Matrix: (Units=1/GPa)
#
#
# Indices 1 2 3 4 5 6 
#
# 1 0.013874 -0.004495 -0.005403 0.000000 0.000000 0.000000
# 2 -0.004495 0.027053 -0.005878 0.000000 0.000000 0.000000
# 3 -0.005403 -0.005878 0.011189 0.000000 0.000000 0.000000
# 4 0.000000 0.000000 0.000000 0.032855 0.000000 0.000000
# 5 0.000000 0.000000 0.000000 0.000000 0.024024 0.000000
# 6 0.000000 0.000000 0.000000 0.000000 0.000000 0.035049
#
#
# Mechanical properties :
#
#
# Convention : Reuss Voigt Hill
#
# Bulk Modulus (GPa) = 48.62925 67.53625 58.08275
# Shear Modulus (GPa) = 27.40461 30.83524 29.11992
#
# Velocity S-wave (km/s) = 3.68564 3.90953 3.79923
# Velocity P-wave (km/s) = 6.49742 7.33863 6.93080
#
# Compressibility (1/GPa) = 0.02056375
#
# Stress axis : x y z
#
# Youngs Moduli (GPa) = 72.07626 36.96437 89.37465
#
# Poissons Ratio (x) = 0.16617 0.48288
# Poissons Ratio (y) = 0.32400 0.52535
# Poissons Ratio (z) = 0.38942 0.21728
#
# Static dielectric constant tensor:
#      x y z
#    x 3.830870 0.000000 0.000000 
#    y 0.000000 3.752700 0.000000 
#    z 0.000000 0.000000 3.716690 
# 
# 
# High freq. dielectric constant tensor:
#      x y z
#    x 1.791960 0.000000 0.000000 
#    y 0.000000 1.780870 0.000000 
#    z 0.000000 0.000000 1.797000 
# 
# From -- ./inp_files/49311.got.cif
#   From: 2010.03.12/outbox.cif.g09.slc.cpg/sg74_25_cif.got.tgz:49311.got - 2010.04.16 15:46:19.
