data_PCOD8299846
_publ_section_title
;
Structure prediction by ZEFSAII (Michael W. Deem and Ramdas Pophale) SiO2 
 PCOD8299846
Probable space group: I M M A
;
_chemical_formula_sum "Si O2"
_cell_formula_units_Z 80
_cell_length_a 18.134173
_cell_length_b 9.089919
_cell_length_c 27.428309
_cell_angle_alpha 90.000000
_cell_angle_beta 90.000000
_cell_angle_gamma 90.000000
_cell_volume 4521.232089
_symmetry_space_group_name_H-M "I M M A"
_symmetry_group_IT_number 74
_symmetry_cell_setting 'orthorhombic'
loop_
_space_group_symop_operation_xyz
x,y,z
-x,1/2-y,z
x,-y,-z
-x,1/2+y,-z
-x,-y,-z
x,1/2+y,-z
-x,y,z
x,1/2-y,z
1/2+x,1/2+y,1/2+z
1/2-x,-y,1/2+z
1/2+x,1/2-y,1/2-z
1/2-x,y,1/2-z
1/2-x,1/2-y,1/2-z
1/2+x,y,1/2-z
1/2-x,1/2+y,1/2+z
1/2+x,-y,1/2+z
loop_
_atom_site_type_symbol
_atom_site_label
_atom_site_fract_x
_atom_site_fract_y
_atom_site_fract_z
Si Si1 0.083984 0.581441 0.782369
Si Si2 0.854891 0.424227 0.689658
Si Si3 0.716562 0.079452 0.348631
Si Si4 0.918112 0.580601 0.599015
Si Si5 0.771517 0.580188 0.548271
O O1 0.093480 0.750000 0.764683
O O2 0.108650 0.473238 0.739924
O O3 0.133700 0.551498 0.830210
O O4 0.000000 0.547911 0.797396
O O5 0.850106 0.250000 0.688138
O O6 0.772694 0.489416 0.685371
O O7 0.906688 0.480128 0.646160
O O8 0.739687 0.250000 0.344884
O O9 0.723696 0.027807 0.404933
O O10 0.908347 0.750000 0.615404
O O11 0.857730 0.541943 0.557923
O O12 0.000000 0.551430 0.577806
O O13 0.743230 0.500000 0.500000
O O14 0.759335 0.750000 0.538132
#
# Coordination Sequence:
#
# PCOD8299846 Si02
#       5
#    16  16  16  16  16
#     4  10  20  34  53  74  96 127 165 201 238 282
#     4  11  21  31  47  74 105 134 163 195 234 281
#     4   9  19  36  54  71  95 128 165 201 235 281
#     4   9  18  33  50  68  96 134 170 200 232 277
#     4   9  18  32  50  71  93 121 159 202 245 287
#
# _framework density 17.694292000000001
#
# number of rings (size 3 to 8) (size 9 to 14) (size 15 to 20)
#    0.000    2.400    0.000    4.200    0.000   10.000 
#    0.000    0.000    0.000    0.600    0.000    0.000 
#    0.000    0.000    0.000    0.000    0.000    0.400 
#
# Total GULP energy -495973.056359 kJ/mol
# GULP energy per Si atom -12399.326409 kJ/mol
# Density = 1.765402 g / cm^3
# Si number density = 17.694292 Si / 1000 Ang^3
#
#
#
# Elastic Constant Matrix: (Units=GPa)
#
#
# Indices 1 2 3 4 5 6 
#
# 1 104.9407 36.4310 52.4381 0.0000 0.0000 0.0000
# 2 36.4310 76.4512 40.3277 0.0000 0.0000 0.0000
# 3 52.4381 40.3277 94.4831 0.0000 0.0000 0.0000
# 4 0.0000 0.0000 0.0000 26.6539 0.0000 0.0000
# 5 0.0000 0.0000 0.0000 0.0000 11.8462 0.0000
# 6 0.0000 0.0000 0.0000 0.0000 0.0000 6.0673
#
#
#
# Elastic Compliance Matrix: (Units=1/GPa)
#
#
# Indices 1 2 3 4 5 6 
#
# 1 0.013792 -0.003271 -0.006258 0.000000 0.000000 0.000000
# 2 -0.003271 0.017657 -0.005721 0.000000 0.000000 0.000000
# 3 -0.006258 -0.005721 0.016499 0.000000 0.000000 0.000000
# 4 0.000000 0.000000 0.000000 0.037518 0.000000 0.000000
# 5 0.000000 0.000000 0.000000 0.000000 0.084415 0.000000
# 6 0.000000 0.000000 0.000000 0.000000 0.000000 0.164817
#
#
# Mechanical properties :
#
#
# Convention : Reuss Voigt Hill
#
# Bulk Modulus (GPa) = 57.31569 59.36319 58.33944
# Shear Modulus (GPa) = 13.47655 18.69203 16.08429
#
# Velocity S-wave (km/s) = 2.76276 3.25374 3.01825
# Velocity P-wave (km/s) = 6.52991 6.90926 6.72226
#
# Compressibility (1/GPa) = 0.01744723
#
# Stress axis : x y z
#
# Youngs Moduli (GPa) = 72.50556 56.63567 60.60902
#
# Poissons Ratio (x) = 0.18525 0.37932
# Poissons Ratio (y) = 0.23716 0.34674
# Poissons Ratio (z) = 0.45377 0.32401
#
# Static dielectric constant tensor:
#      x y z
#    x 3.375000 0.000000 0.000000 
#    y 0.000000 3.170650 0.000000 
#    z 0.000000 0.000000 3.153230 
# 
# 
# High freq. dielectric constant tensor:
#      x y z
#    x 1.675280 0.000000 0.000000 
#    y 0.000000 1.676020 0.000000 
#    z 0.000000 0.000000 1.669910 
# 
# From -- ./inp_files/63926.got.cif
#   From: 2010.03.12/outbox.cif.g09.slc.cpg/sg74_32_cif.got.tgz:63926.got - 2010.04.16 15:46:19.
