data_PCOD8299504
_publ_section_title
;
Structure prediction by ZEFSAII (Michael W. Deem and Ramdas Pophale) SiO2 
 PCOD8299504
Probable space group: I M M A
;
_chemical_formula_sum "Si O2"
_cell_formula_units_Z 88
_cell_length_a 19.935349
_cell_length_b 9.301884
_cell_length_c 26.993570
_cell_angle_alpha 90.000000
_cell_angle_beta 90.000000
_cell_angle_gamma 90.000000
_cell_volume 5005.587850
_symmetry_space_group_name_H-M "I M M A"
_symmetry_group_IT_number 74
_symmetry_cell_setting 'orthorhombic'
loop_
_space_group_symop_operation_xyz
x,y,z
-x,1/2-y,z
x,-y,-z
-x,1/2+y,-z
-x,-y,-z
x,1/2+y,-z
-x,y,z
x,1/2-y,z
1/2+x,1/2+y,1/2+z
1/2-x,-y,1/2+z
1/2+x,1/2-y,1/2-z
1/2-x,y,1/2-z
1/2-x,1/2-y,1/2-z
1/2+x,y,1/2-z
1/2-x,1/2+y,1/2+z
1/2+x,-y,1/2+z
loop_
_atom_site_type_symbol
_atom_site_label
_atom_site_fract_x
_atom_site_fract_y
_atom_site_fract_z
Si Si1 0.645649 0.918852 0.052156
Si Si2 0.000000 0.913038 0.450796
Si Si3 0.500000 0.411970 0.667834
Si Si4 0.728440 0.415494 0.131264
Si Si5 0.500000 0.411509 0.785766
Si Si6 0.628278 0.416450 0.329346
Si Si7 0.626866 0.084883 0.216038
O O1 0.659540 0.750000 0.044077
O O2 0.570932 0.945288 0.076875
O O3 0.700795 0.981375 0.088934
O O4 0.651675 0.000000 0.000000
O O5 0.000000 0.750000 0.468371
O O6 0.000000 0.000000 0.500000
O O7 0.500000 0.250000 0.647177
O O8 0.500000 0.415460 0.726803
O O9 0.566656 0.491996 0.648515
O O10 0.717807 0.250000 0.115421
O O11 0.806593 0.451789 0.138062
O O12 0.692349 0.446039 0.183497
O O13 0.500000 0.250000 0.807019
O O14 0.433975 0.490707 0.805760
O O15 0.608384 0.250000 0.333112
O O16 0.643879 0.458092 0.272421
O O17 0.604232 0.250000 0.212832
#
# Coordination Sequence:
#
# PCOD8299504 Si02
#       7
#    16   8   8  16   8  16  16
#     4  10  20  35  53  72  96 126 161 201 243 285
#     4   8  16  31  50  69  89 119 158 197 236 277
#     4   9  17  29  46  68  94 124 160 200 238 279
#     4  10  20  32  48  72  98 125 160 200 242 286
#     4   9  17  28  42  63  93 129 166 203 240 276
#     4   9  17  31  50  70  95 128 163 197 235 282
#     4   9  17  30  47  67  94 129 166 201 236 278
#
# _framework density 17.580352000000001
#
# number of rings (size 3 to 8) (size 9 to 14) (size 15 to 20)
#    0.000    2.727    0.000    1.636    0.000    7.273 
#    0.000    1.818    0.000    5.455    0.000    0.636 
#    0.000    0.000    0.000    0.000    0.000    0.000 
#
# Total GULP energy -545390.217801 kJ/mol
# GULP energy per Si atom -12395.232223 kJ/mol
# Density = 1.754034 g / cm^3
# Si number density = 17.580352 Si / 1000 Ang^3
#
#
#
# Elastic Constant Matrix: (Units=GPa)
#
#
# Indices 1 2 3 4 5 6 
#
# 1 141.8656 73.0311 42.0675 0.0000 0.0000 0.0000
# 2 73.0311 99.6778 37.2759 0.0000 0.0000 0.0000
# 3 42.0675 37.2759 53.7127 0.0000 0.0000 0.0000
# 4 0.0000 0.0000 0.0000 23.3002 0.0000 0.0000
# 5 0.0000 0.0000 0.0000 0.0000 13.1175 0.0000
# 6 0.0000 0.0000 0.0000 0.0000 0.0000 26.4390
#
#
#
# Elastic Compliance Matrix: (Units=1/GPa)
#
#
# Indices 1 2 3 4 5 6 
#
# 1 0.012065 -0.007166 -0.004476 0.000000 0.000000 0.000000
# 2 -0.007166 0.017804 -0.006744 0.000000 0.000000 0.000000
# 3 -0.004476 -0.006744 0.026804 0.000000 0.000000 0.000000
# 4 0.000000 0.000000 0.000000 0.042918 0.000000 0.000000
# 5 0.000000 0.000000 0.000000 0.000000 0.076234 0.000000
# 6 0.000000 0.000000 0.000000 0.000000 0.000000 0.037823
#
#
# Mechanical properties :
#
#
# Convention : Reuss Voigt Hill
#
# Bulk Modulus (GPa) = 50.24840 66.66724 58.45782
# Shear Modulus (GPa) = 19.45114 22.09678 20.77396
#
# Velocity S-wave (km/s) = 3.32989 3.54913 3.44125
# Velocity P-wave (km/s) = 6.59002 7.40262 7.00811
#
# Compressibility (1/GPa) = 0.01990113
#
# Stress axis : x y z
#
# Youngs Moduli (GPa) = 82.88284 56.16565 37.30836
#
# Poissons Ratio (x) = 0.40247 0.16701
# Poissons Ratio (y) = 0.59392 0.25160
# Poissons Ratio (z) = 0.37102 0.37877
#
# Static dielectric constant tensor:
#      x y z
#    x 3.456760 0.000000 0.000000 
#    y 0.000000 3.322890 0.000000 
#    z 0.000000 0.000000 2.769580 
# 
# 
# High freq. dielectric constant tensor:
#      x y z
#    x 1.684990 0.000000 0.000000 
#    y 0.000000 1.683740 0.000000 
#    z 0.000000 0.000000 1.632710 
# 
# From -- ./inp_files/73022.got.cif
#   From: 2010.03.12/outbox.cif.g09.slc.cpg/sg74_37_cif.got.tgz:73022.got - 2010.04.16 15:46:19.
