data_PCOD8299708
_publ_section_title
;
Structure prediction by ZEFSAII (Michael W. Deem and Ramdas Pophale) SiO2 
 PCOD8299708
Probable space group: I M M A
;
_chemical_formula_sum "Si O2"
_cell_formula_units_Z 96
_cell_length_a 23.339246
_cell_length_b 9.109828
_cell_length_c 23.364095
_cell_angle_alpha 90.000000
_cell_angle_beta 90.000000
_cell_angle_gamma 90.000000
_cell_volume 4967.592495
_symmetry_space_group_name_H-M "I M M A"
_symmetry_group_IT_number 74
_symmetry_cell_setting 'orthorhombic'
loop_
_space_group_symop_operation_xyz
x,y,z
-x,1/2-y,z
x,-y,-z
-x,1/2+y,-z
-x,-y,-z
x,1/2+y,-z
-x,y,z
x,1/2-y,z
1/2+x,1/2+y,1/2+z
1/2-x,-y,1/2+z
1/2+x,1/2-y,1/2-z
1/2-x,y,1/2-z
1/2-x,1/2-y,1/2-z
1/2+x,y,1/2-z
1/2-x,1/2+y,1/2+z
1/2+x,-y,1/2+z
loop_
_atom_site_type_symbol
_atom_site_label
_atom_site_fract_x
_atom_site_fract_y
_atom_site_fract_z
Si Si1 0.375949 0.574865 0.744812
Si Si2 0.125090 0.918794 0.365356
Si Si3 0.064545 0.078421 0.941401
Si Si4 0.500000 0.079094 0.254958
Si Si5 0.729455 0.577944 0.059622
Si Si6 0.000000 0.914775 0.357838
Si Si7 0.666060 0.577812 0.360047
O O1 0.370524 0.750000 0.747443
O O2 0.365250 0.512417 0.808018
O O3 0.439121 0.520706 0.720918
O O4 0.330501 0.508516 0.700175
O O5 0.138625 0.750000 0.349605
O O6 0.168795 0.973747 0.413919
O O7 0.060243 0.934694 0.391838
O O8 0.070353 0.250000 0.953179
O O9 0.108813 0.027075 0.893175
O O10 0.000000 0.036058 0.921644
O O11 0.081187 0.000000 0.000000
O O12 0.500000 0.250000 0.262539
O O13 0.500000 0.041561 0.188394
O O14 0.731049 0.750000 0.047871
O O15 0.779034 0.530721 0.103418
O O16 0.740311 0.500000 0.000000
O O17 0.000000 0.750000 0.330266
O O18 0.665693 0.750000 0.346922
#
# Coordination Sequence:
#
# PCOD8299708 Si02
#       7
#    16  16  16   8  16   8  16
#     4  10  20  33  52  80 110 141 175 216 263 312
#     4   9  18  35  57  80 107 139 174 212 260 316
#     4   9  18  32  49  70  96 130 174 221 263 303
#     4   8  16  30  46  71 108 139 167 206 256 306
#     4  10  22  39  58  78 103 138 178 220 265 315
#     4   8  14  28  53  79 101 131 169 206 247 304
#     4  10  21  35  51  74 105 141 178 216 261 313
#
# _framework density 19.325257000000001
#
# number of rings (size 3 to 8) (size 9 to 14) (size 15 to 20)
#    0.000    2.667    0.000    1.000    1.167    3.333 
#    0.000    3.750    0.000    0.000    0.000    0.000 
#    0.000    0.000    0.000    0.000    0.000    0.000 
#
# Total GULP energy -594789.683358 kJ/mol
# GULP energy per Si atom -12391.451737 kJ/mol
# Density = 1.928127 g / cm^3
# Si number density = 19.325257 Si / 1000 Ang^3
#
#
#
# Elastic Constant Matrix: (Units=GPa)
#
#
# Indices 1 2 3 4 5 6 
#
# 1 105.3864 25.0447 36.1504 0.0000 0.0000 0.0000
# 2 25.0447 33.0851 29.5566 0.0000 0.0000 0.0000
# 3 36.1504 29.5566 55.9077 0.0000 0.0000 0.0000
# 4 0.0000 0.0000 0.0000 28.1025 0.0000 0.0000
# 5 0.0000 0.0000 0.0000 0.0000 26.3162 0.0000
# 6 0.0000 0.0000 0.0000 0.0000 0.0000 15.2701
#
#
#
# Elastic Compliance Matrix: (Units=1/GPa)
#
#
# Indices 1 2 3 4 5 6 
#
# 1 0.012501 -0.004248 -0.005837 0.000000 0.000000 0.000000
# 2 -0.004248 0.058719 -0.028296 0.000000 0.000000 0.000000
# 3 -0.005837 -0.028296 0.036620 0.000000 0.000000 0.000000
# 4 0.000000 0.000000 0.000000 0.035584 0.000000 0.000000
# 5 0.000000 0.000000 0.000000 0.000000 0.037999 0.000000
# 6 0.000000 0.000000 0.000000 0.000000 0.000000 0.065487
#
#
# Mechanical properties :
#
#
# Convention : Reuss Voigt Hill
#
# Bulk Modulus (GPa) = 32.17780 41.76474 36.97127
# Shear Modulus (GPa) = 14.96858 20.84626 17.90742
#
# Velocity S-wave (km/s) = 2.78611 3.28793 3.04737
# Velocity P-wave (km/s) = 5.19968 6.00603 5.61734
#
# Compressibility (1/GPa) = 0.03107732
#
# Stress axis : x y z
#
# Youngs Moduli (GPa) = 79.99500 17.03021 27.30728
#
# Poissons Ratio (x) = 0.07235 0.15940
# Poissons Ratio (y) = 0.33983 0.77269
# Poissons Ratio (z) = 0.46695 0.48189
#
# Static dielectric constant tensor:
#      x y z
#    x 4.012230 0.000000 0.000000 
#    y 0.000000 3.396770 0.000000 
#    z 0.000000 0.000000 3.207590 
# 
# 
# High freq. dielectric constant tensor:
#      x y z
#    x 1.767690 0.000000 0.000000 
#    y 0.000000 1.742320 0.000000 
#    z 0.000000 0.000000 1.724180 
# 
# From -- ./inp_files/61943.got.cif
#   From: 2010.03.12/outbox.cif.g09.slc.cpg/sg74_31_cif.got.tgz:61943.got - 2010.04.16 15:46:19.
