data_PCOD8299529
_publ_section_title
;
Structure prediction by ZEFSAII (Michael W. Deem and Ramdas Pophale) SiO2 
 PCOD8299529
Probable space group: I M M A
;
_chemical_formula_sum "Si O2"
_cell_formula_units_Z 64
_cell_length_a 23.951373
_cell_length_b 24.949457
_cell_length_c 5.125926
_cell_angle_alpha 90.000000
_cell_angle_beta 90.000000
_cell_angle_gamma 90.000000
_cell_volume 3063.118826
_symmetry_space_group_name_H-M "I M M A"
_symmetry_group_IT_number 74
_symmetry_cell_setting 'orthorhombic'
loop_
_space_group_symop_operation_xyz
x,y,z
-x,1/2-y,z
x,-y,-z
-x,1/2+y,-z
-x,-y,-z
x,1/2+y,-z
-x,y,z
x,1/2-y,z
1/2+x,1/2+y,1/2+z
1/2-x,-y,1/2+z
1/2+x,1/2-y,1/2-z
1/2-x,y,1/2-z
1/2-x,1/2-y,1/2-z
1/2+x,y,1/2-z
1/2-x,1/2+y,1/2+z
1/2+x,-y,1/2+z
loop_
_atom_site_type_symbol
_atom_site_label
_atom_site_fract_x
_atom_site_fract_y
_atom_site_fract_z
Si Si1 0.564791 0.311109 0.064219
Si Si2 0.104767 0.132222 0.915422
Si Si3 0.712949 0.438425 0.500731
Si Si4 0.063162 0.025264 0.751186
O O1 0.500000 0.319983 0.988804
O O2 0.575984 0.250000 0.147145
O O3 0.579690 0.347601 0.312792
O O4 0.604338 0.322424 0.810668
O O5 0.163551 0.104817 0.978764
O O6 0.064868 0.088932 0.771952
O O7 0.691257 0.500000 0.500000
O O8 0.750000 0.427958 0.750000
O O9 0.750000 0.425061 0.250000
O O10 0.000000 0.003899 0.742098
O O11 0.094861 0.000000 0.500000
O O12 0.094357 0.000000 0.000000
#
# Coordination Sequence:
#
# PCOD8299529 Si02
#       4
#    16  16  16  16
#     4  11  24  41  62  90 122 158 204 253 301 359
#     4  12  22  38  64  86 117 161 204 246 301 358
#     4  10  22  40  62  90 122 157 201 249 298 359
#     4  10  20  32  49  81 121 152 182 225 285 360
#
# _framework density 20.893736000000001
#
# number of rings (size 3 to 8) (size 9 to 14) (size 15 to 20)
#    0.000    1.250    0.000    6.750    0.000    7.000 
#    0.000    0.000    0.000   15.000    0.000    0.000 
#    0.000    0.000    0.000    0.000    0.000    0.000 
#
# Total GULP energy -396587.229721 kJ/mol
# GULP energy per Si atom -12393.350929 kJ/mol
# Density = 2.084618 g / cm^3
# Si number density = 20.893736 Si / 1000 Ang^3
#
#
#
# Elastic Constant Matrix: (Units=GPa)
#
#
# Indices 1 2 3 4 5 6 
#
# 1 99.5481 53.7215 57.1948 0.0000 0.0000 0.0000
# 2 53.7215 102.1964 47.6497 0.0000 0.0000 0.0000
# 3 57.1948 47.6497 185.8572 0.0000 0.0000 0.0000
# 4 0.0000 0.0000 0.0000 45.0553 0.0000 0.0000
# 5 0.0000 0.0000 0.0000 0.0000 45.7971 0.0000
# 6 0.0000 0.0000 0.0000 0.0000 0.0000 24.4118
#
#
#
# Elastic Compliance Matrix: (Units=1/GPa)
#
#
# Indices 1 2 3 4 5 6 
#
# 1 0.015386 -0.006679 -0.003023 0.000000 0.000000 0.000000
# 2 -0.006679 0.014013 -0.001537 0.000000 0.000000 0.000000
# 3 -0.003023 -0.001537 0.006705 0.000000 0.000000 0.000000
# 4 0.000000 0.000000 0.000000 0.022195 0.000000 0.000000
# 5 0.000000 0.000000 0.000000 0.000000 0.021835 0.000000
# 6 0.000000 0.000000 0.000000 0.000000 0.000000 0.040964
#
#
# Mechanical properties :
#
#
# Convention : Reuss Voigt Hill
#
# Bulk Modulus (GPa) = 73.38685 78.30375 75.84530
# Shear Modulus (GPa) = 33.75704 38.32187 36.03946
#
# Velocity S-wave (km/s) = 4.02388 4.28732 4.15769
# Velocity P-wave (km/s) = 7.53584 7.87824 7.70894
#
# Compressibility (1/GPa) = 0.01362642
#
# Stress axis : x y z
#
# Youngs Moduli (GPa) = 64.99316 71.36406 149.14807
#
# Poissons Ratio (x) = 0.47662 0.45081
# Poissons Ratio (y) = 0.43407 0.22928
# Poissons Ratio (z) = 0.19645 0.10970
#
# Static dielectric constant tensor:
#      x y z
#    x 3.487180 0.000000 0.000000 
#    y 0.000000 3.839450 0.000000 
#    z 0.000000 0.000000 3.646140 
# 
# 
# High freq. dielectric constant tensor:
#      x y z
#    x 1.800060 0.000000 0.000000 
#    y 0.000000 1.811230 0.000000 
#    z 0.000000 0.000000 1.847970 
# 
# From -- ./inp_files/2888.got.cif
#   From: 2010.03.12/outbox.cif.g09.slc.cpg/sg74_2_cif.got.tgz:2888.got - 2010.04.16 15:46:19.
