data_PCOD8299999
_publ_section_title
;
Structure prediction by ZEFSAII (Michael W. Deem and Ramdas Pophale) SiO2 
 PCOD8299999
Probable space group: I M M A
;
_chemical_formula_sum "Si O2"
_cell_formula_units_Z 104
_cell_length_a 9.363993
_cell_length_b 25.758174
_cell_length_c 22.227611
_cell_angle_alpha 90.000000
_cell_angle_beta 90.000000
_cell_angle_gamma 90.000000
_cell_volume 5361.285570
_symmetry_space_group_name_H-M "I M M A"
_symmetry_group_IT_number 74
_symmetry_cell_setting 'orthorhombic'
loop_
_space_group_symop_operation_xyz
x,y,z
-x,1/2-y,z
x,-y,-z
-x,1/2+y,-z
-x,-y,-z
x,1/2+y,-z
-x,y,z
x,1/2-y,z
1/2+x,1/2+y,1/2+z
1/2-x,-y,1/2+z
1/2+x,1/2-y,1/2-z
1/2-x,y,1/2-z
1/2-x,1/2-y,1/2-z
1/2+x,y,1/2-z
1/2-x,1/2+y,1/2+z
1/2+x,-y,1/2+z
loop_
_atom_site_type_symbol
_atom_site_label
_atom_site_fract_x
_atom_site_fract_y
_atom_site_fract_z
Si Si1 0.158281 0.896280 0.065315
Si Si2 0.252293 0.000000 0.500000
Si Si3 0.335438 0.054086 0.690972
Si Si4 0.157248 0.189983 0.112451
Si Si5 0.337748 0.128572 0.194553
Si Si6 0.668157 0.189840 0.995644
Si Si7 0.154811 0.027478 0.372734
O O1 0.183848 0.906016 0.136158
O O2 0.275224 0.851864 0.052527
O O3 0.000000 0.873189 0.055033
O O4 0.162420 0.949914 0.026190
O O5 0.160148 0.020539 0.444430
O O6 0.500000 0.046407 0.708743
O O7 0.250000 0.073439 0.750000
O O8 0.276382 0.999404 0.666776
O O9 0.129478 0.250000 0.111025
O O10 0.248372 0.178166 0.172226
O O11 0.000000 0.162336 0.112014
O O12 0.250027 0.172935 0.055546
O O13 0.500000 0.143592 0.212609
O O14 0.250000 0.104379 0.250000
O O15 0.334461 0.088401 0.139593
O O16 0.500000 0.182100 0.005198
O O17 0.700591 0.250000 0.977062
O O18 0.000000 0.006206 0.351311
#
# Coordination Sequence:
#
# PCOD8299999 Si02
#       7
#    16   8  16  16  16  16  16
#     4  10  21  36  56  83 114 148 184 225 274 327
#     4  10  20  34  56  86 118 146 180 224 276 330
#     4  10  21  36  55  79 108 143 181 220 265 318
#     4  10  21  37  57  79 103 135 175 221 274 327
#     4  11  23  37  53  75 104 141 184 227 271 320
#     4  10  21  37  58  85 115 146 182 226 275 327
#     4  10  21  35  53  78 108 142 179 218 264 320
#
# _framework density 19.398332
#
# number of rings (size 3 to 8) (size 9 to 14) (size 15 to 20)
#    0.000    1.846    0.000    3.692    0.000   10.154 
#    0.000    0.000    0.000    0.462    0.000    0.000 
#    0.000    0.000    0.000    0.000    0.000    0.000 
#
# Total GULP energy -644388.811310 kJ/mol
# GULP energy per Si atom -12392.092525 kJ/mol
# Density = 1.935418 g / cm^3
# Si number density = 19.398332 Si / 1000 Ang^3
#
#
#
# Elastic Constant Matrix: (Units=GPa)
#
#
# Indices 1 2 3 4 5 6 
#
# 1 171.4567 43.6238 62.8971 0.0000 0.0000 0.0000
# 2 43.6238 50.6052 34.2284 0.0001 0.0000 0.0000
# 3 62.8971 34.2284 112.3811 0.0000 0.0000 0.0000
# 4 0.0000 0.0001 0.0000 25.9286 0.0000 0.0000
# 5 0.0000 0.0000 0.0000 0.0000 21.3902 0.0000
# 6 0.0000 0.0000 0.0000 0.0000 0.0000 28.6749
#
#
#
# Elastic Compliance Matrix: (Units=1/GPa)
#
#
# Indices 1 2 3 4 5 6 
#
# 1 0.008240 -0.005018 -0.003084 0.000000 0.000000 0.000000
# 2 -0.005018 0.027943 -0.005703 0.000000 0.000000 0.000000
# 3 -0.003084 -0.005703 0.012361 0.000000 0.000000 0.000000
# 4 0.000000 0.000000 0.000000 0.038567 0.000000 0.000000
# 5 0.000000 0.000000 0.000000 0.000000 0.046750 0.000000
# 6 0.000000 0.000000 0.000000 0.000000 0.000000 0.034874
#
#
# Mechanical properties :
#
#
# Convention : Reuss Voigt Hill
#
# Bulk Modulus (GPa) = 47.76264 68.43794 58.10029
# Shear Modulus (GPa) = 24.59146 28.11167 26.35156
#
# Velocity S-wave (km/s) = 3.56435 3.81094 3.68971
# Velocity P-wave (km/s) = 6.45097 7.39738 6.94033
#
# Compressibility (1/GPa) = 0.02093687
#
# Stress axis : x y z
#
# Youngs Moduli (GPa) = 121.35599 35.78665 80.89992
#
# Poissons Ratio (x) = 0.17957 0.24946
# Poissons Ratio (y) = 0.60893 0.46133
# Poissons Ratio (z) = 0.37421 0.20407
#
# Static dielectric constant tensor:
#      x y z
#    x 3.803790 0.000000 0.000000 
#    y 0.000000 3.300050 0.000000 
#    z 0.000000 0.000000 3.637620 
# 
# 
# High freq. dielectric constant tensor:
#      x y z
#    x 1.773540 0.000000 0.000000 
#    y 0.000000 1.732660 0.000000 
#    z 0.000000 0.000000 1.752790 
# 
# From -- ./inp_files/49317.got.cif
#   From: 2010.03.12/outbox.cif.g09.slc.cpg/sg74_25_cif.got.tgz:49317.got - 2010.04.16 15:46:19.
