data_PCOD8299703
_publ_section_title
;
Structure prediction by ZEFSAII (Michael W. Deem and Ramdas Pophale) SiO2 
 PCOD8299703
Probable space group: I M M A
;
_chemical_formula_sum "Si O2"
_cell_formula_units_Z 104
_cell_length_a 9.335177
_cell_length_b 27.044736
_cell_length_c 21.576814
_cell_angle_alpha 90.000000
_cell_angle_beta 90.000000
_cell_angle_gamma 90.000000
_cell_volume 5447.442076
_symmetry_space_group_name_H-M "I M M A"
_symmetry_group_IT_number 74
_symmetry_cell_setting 'orthorhombic'
loop_
_space_group_symop_operation_xyz
x,y,z
-x,1/2-y,z
x,-y,-z
-x,1/2+y,-z
-x,-y,-z
x,1/2+y,-z
-x,y,z
x,1/2-y,z
1/2+x,1/2+y,1/2+z
1/2-x,-y,1/2+z
1/2+x,1/2-y,1/2-z
1/2-x,y,1/2-z
1/2-x,1/2-y,1/2-z
1/2+x,y,1/2-z
1/2-x,1/2+y,1/2+z
1/2+x,-y,1/2+z
loop_
_atom_site_type_symbol
_atom_site_label
_atom_site_fract_x
_atom_site_fract_y
_atom_site_fract_z
Si Si1 0.836316 0.804953 0.486982
Si Si2 0.164084 0.558753 0.057867
Si Si3 0.843186 0.536607 0.864526
Si Si4 0.333409 0.097158 0.054506
Si Si5 0.659492 0.108151 0.835324
Si Si6 0.750000 0.526348 0.250000
Si Si7 0.832863 0.806267 0.138952
O O1 0.811922 0.750000 0.514911
O O2 0.805169 0.844756 0.541411
O O3 0.729415 0.814038 0.430187
O O4 0.000000 0.810938 0.463348
O O5 0.168560 0.502373 0.079684
O O6 0.246343 0.592170 0.106716
O O7 0.000000 0.576997 0.051085
O O8 0.247370 0.563532 0.993784
O O9 0.727927 0.580364 0.877807
O O10 0.826118 0.509162 0.798892
O O11 0.000000 0.561103 0.864212
O O12 0.500000 0.083731 0.051839
O O13 0.500000 0.122286 0.856784
O O14 0.643435 0.064453 0.784753
O O15 0.744452 0.157928 0.813637
O O16 0.809350 0.750000 0.160900
O O17 0.000000 0.820415 0.139365
#
# Coordination Sequence:
#
# PCOD8299703 Si02
#       7
#    16  16  16  16  16   8  16
#     4   9  18  33  52  77 112 148 179 214 261 318
#     4  10  20  34  52  76 109 145 178 216 268 325
#     4  10  22  38  55  75 104 142 179 223 276 325
#     4  11  21  32  52  83 112 141 178 219 265 319
#     4  11  21  35  57  80 104 139 183 230 277 323
#     4  10  24  42  59  76  99 138 190 232 272 328
#     4  10  20  33  52  79 109 143 182 222 268 323
#
# _framework density 19.091529000000001
#
# number of rings (size 3 to 8) (size 9 to 14) (size 15 to 20)
#    0.000    1.846    1.538    2.769    0.000    8.923 
#    0.000    0.385    0.000    0.000    0.000    0.538 
#    0.000    0.000    0.000    0.000    0.000    0.000 
#
# Total GULP energy -644356.308142 kJ/mol
# GULP energy per Si atom -12391.467464 kJ/mol
# Density = 1.904808 g / cm^3
# Si number density = 19.091529 Si / 1000 Ang^3
#
#
#
# Elastic Constant Matrix: (Units=GPa)
#
#
# Indices 1 2 3 4 5 6 
#
# 1 152.5676 51.2771 40.2662 0.0000 0.0000 0.0000
# 2 51.2771 87.9515 50.5415 0.0000 0.0000 0.0000
# 3 40.2662 50.5415 65.8915 0.0001 0.0000 0.0000
# 4 0.0000 0.0000 0.0001 27.3819 0.0000 0.0000
# 5 0.0000 0.0000 0.0000 0.0000 9.0909 0.0000
# 6 0.0000 0.0000 0.0000 0.0000 0.0000 26.2474
#
#
#
# Elastic Compliance Matrix: (Units=1/GPa)
#
#
# Indices 1 2 3 4 5 6 
#
# 1 0.008368 -0.003469 -0.002452 0.000000 0.000000 0.000000
# 2 -0.003469 0.021770 -0.014579 0.000000 0.000000 0.000000
# 3 -0.002452 -0.014579 0.027857 0.000000 0.000000 0.000000
# 4 0.000000 0.000000 0.000000 0.036520 0.000000 0.000000
# 5 0.000000 0.000000 0.000000 0.000000 0.110000 0.000000
# 6 0.000000 0.000000 0.000000 0.000000 0.000000 0.038099
#
#
# Mechanical properties :
#
#
# Convention : Reuss Voigt Hill
#
# Bulk Modulus (GPa) = 58.84121 65.62002 62.23061
# Shear Modulus (GPa) = 17.28431 23.49911 20.39171
#
# Velocity S-wave (km/s) = 3.01215 3.51218 3.27173
# Velocity P-wave (km/s) = 6.55629 7.13394 6.85120
#
# Compressibility (1/GPa) = 0.01699489
#
# Stress axis : x y z
#
# Youngs Moduli (GPa) = 119.50692 45.93466 35.89700
#
# Poissons Ratio (x) = 0.15936 0.08804
# Poissons Ratio (y) = 0.41459 0.52332
# Poissons Ratio (z) = 0.29309 0.66966
#
# Static dielectric constant tensor:
#      x y z
#    x 3.604620 0.000000 0.000000 
#    y 0.000000 3.793990 0.000000 
#    z 0.000000 0.000000 3.277240 
# 
# 
# High freq. dielectric constant tensor:
#      x y z
#    x 1.754840 0.000000 0.000000 
#    y 0.000000 1.742500 0.000000 
#    z 0.000000 0.000000 1.701180 
# 
# From -- ./inp_files/49585.got.cif
#   From: 2010.03.12/outbox.cif.g09.slc.cpg/sg74_25_cif.got.tgz:49585.got - 2010.04.16 15:46:19.
