data_PCOD8299111
_publ_section_title
;
Structure prediction by ZEFSAII (Michael W. Deem and Ramdas Pophale) SiO2 
 PCOD8299111
Probable space group: I M M A
;
_chemical_formula_sum "Si O2"
_cell_formula_units_Z 48
_cell_length_a 15.190396
_cell_length_b 15.540585
_cell_length_c 8.711822
_cell_angle_alpha 90.000000
_cell_angle_beta 90.000000
_cell_angle_gamma 90.000000
_cell_volume 2056.579262
_symmetry_space_group_name_H-M "I M M A"
_symmetry_group_IT_number 74
_symmetry_cell_setting 'orthorhombic'
loop_
_space_group_symop_operation_xyz
x,y,z
-x,1/2-y,z
x,-y,-z
-x,1/2+y,-z
-x,-y,-z
x,1/2+y,-z
-x,y,z
x,1/2-y,z
1/2+x,1/2+y,1/2+z
1/2-x,-y,1/2+z
1/2+x,1/2-y,1/2-z
1/2-x,y,1/2-z
1/2-x,1/2-y,1/2-z
1/2+x,y,1/2-z
1/2-x,1/2+y,1/2+z
1/2+x,-y,1/2+z
loop_
_atom_site_type_symbol
_atom_site_label
_atom_site_fract_x
_atom_site_fract_y
_atom_site_fract_z
Si Si1 0.102610 0.905490 0.563896
Si Si2 0.605092 0.417100 0.413483
Si Si3 0.403512 0.750000 0.435363
Si Si4 0.666794 0.750000 0.130875
O O1 0.135894 0.909579 0.738571
O O2 0.160997 0.835262 0.473836
O O3 0.000000 0.879053 0.552577
O O4 0.119100 0.000000 0.500000
O O5 0.645565 0.500000 0.500000
O O6 0.500000 0.421350 0.424974
O O7 0.645651 0.334949 0.502826
O O8 0.500000 0.750000 0.510043
O O9 0.413811 0.750000 0.251093
O O10 0.750000 0.750000 0.250000
#
# Coordination Sequence:
#
# PCOD8299111 Si02
#       4
#    16  16   8   8
#     4  10  20  38  66  94 121 161 217 276 328 388
#     4   9  17  31  56  90 118 144 194 265 327 372
#     4  10  19  34  57  80 107 150 203 258 310 373
#     4  12  25  40  56  88 134 176 211 258 331 401
#
# _framework density 23.339725999999999
#
# number of rings (size 3 to 8) (size 9 to 14) (size 15 to 20)
#    0.000    2.000    0.000    4.500    0.000    8.000 
#    0.000    8.333    0.000    0.000    0.000    0.000 
#    0.000    0.000    0.000    0.000    0.000    1.333 
#
# Total GULP energy -297442.518254 kJ/mol
# GULP energy per Si atom -12393.438261 kJ/mol
# Density = 2.328660 g / cm^3
# Si number density = 23.339726 Si / 1000 Ang^3
#
#
#
# Elastic Constant Matrix: (Units=GPa)
#
#
# Indices 1 2 3 4 5 6 
#
# 1 59.1966 23.4247 18.0355 0.0000 0.0000 0.0000
# 2 23.4247 227.3400 123.0400 0.0000 0.0000 0.0000
# 3 18.0355 123.0400 223.9466 0.0000 0.0000 0.0000
# 4 0.0000 0.0000 0.0000 59.5188 0.0000 0.0000
# 5 0.0000 0.0000 0.0000 0.0000 23.4631 0.0000
# 6 0.0000 0.0000 0.0000 0.0000 0.0000 1.3785
#
#
#
# Elastic Compliance Matrix: (Units=1/GPa)
#
#
# Indices 1 2 3 4 5 6 
#
# 1 0.017668 -0.001495 -0.000602 0.000000 0.000000 0.000000
# 2 -0.001495 0.006387 -0.003389 0.000000 0.000000 0.000000
# 3 -0.000602 -0.003389 0.006376 0.000000 0.000000 0.000000
# 4 0.000000 0.000000 0.000000 0.016801 0.000000 0.000000
# 5 0.000000 0.000000 0.000000 0.000000 0.042620 0.000000
# 6 0.000000 0.000000 0.000000 0.000000 0.000000 0.725442
#
#
# Mechanical properties :
#
#
# Convention : Reuss Voigt Hill
#
# Bulk Modulus (GPa) = 51.38773 93.27596 72.33185
# Shear Modulus (GPa) = 6.00421 39.93760 22.97090
#
# Velocity S-wave (km/s) = 1.60565 4.14108 3.14060
# Velocity P-wave (km/s) = 5.05001 7.93196 6.64901
#
# Compressibility (1/GPa) = 0.01945990
#
# Stress axis : x y z
#
# Youngs Moduli (GPa) = 56.60057 156.57624 156.84990
#
# Poissons Ratio (x) = 0.23406 0.09435
# Poissons Ratio (y) = 0.08461 0.53149
# Poissons Ratio (z) = 0.03405 0.53057
#
# Static dielectric constant tensor:
#      x y z
#    x 3.798910 0.000000 0.000000 
#    y 0.000000 4.334600 0.000000 
#    z 0.000000 0.000000 4.492240 
# 
# 
# High freq. dielectric constant tensor:
#      x y z
#    x 1.891090 0.000000 0.000000 
#    y 0.000000 1.939420 0.000000 
#    z 0.000000 0.000000 1.937720 
# 
# From -- ./inp_files/8103.got.cif
#   From: 2010.03.12/outbox.cif.g09.slc.cpg/sg74_5_cif.got.tgz:8103.got - 2010.04.16 15:46:19.
