data_PCOD8299274
_publ_section_title
;
Structure prediction by ZEFSAII (Michael W. Deem and Ramdas Pophale) SiO2 
 PCOD8299274
Probable space group: I M M A
;
_chemical_formula_sum "Si O2"
_cell_formula_units_Z 104
_cell_length_a 26.345308
_cell_length_b 8.664212
_cell_length_c 22.146011
_cell_angle_alpha 90.000000
_cell_angle_beta 90.000000
_cell_angle_gamma 90.000000
_cell_volume 5055.078007
_symmetry_space_group_name_H-M "I M M A"
_symmetry_group_IT_number 74
_symmetry_cell_setting 'orthorhombic'
loop_
_space_group_symop_operation_xyz
x,y,z
-x,1/2-y,z
x,-y,-z
-x,1/2+y,-z
-x,-y,-z
x,1/2+y,-z
-x,y,z
x,1/2-y,z
1/2+x,1/2+y,1/2+z
1/2-x,-y,1/2+z
1/2+x,1/2-y,1/2-z
1/2-x,y,1/2-z
1/2-x,1/2-y,1/2-z
1/2+x,y,1/2-z
1/2-x,1/2+y,1/2+z
1/2+x,-y,1/2+z
loop_
_atom_site_type_symbol
_atom_site_label
_atom_site_fract_x
_atom_site_fract_y
_atom_site_fract_z
Si Si1 0.944234 0.927429 0.935302
Si Si2 0.266362 0.066455 0.682276
Si Si3 0.000000 0.931525 0.436053
Si Si4 0.706811 0.431859 0.066017
Si Si5 0.443458 0.431740 0.769962
Si Si6 0.893412 0.930008 0.388175
Si Si7 0.879579 0.067938 0.838126
O O1 0.928784 0.750000 0.939620
O O2 0.000000 0.947682 0.904309
O O3 0.898923 0.016944 0.902958
O O4 0.947467 0.000000 0.000000
O O5 0.260844 0.250000 0.678105
O O6 0.250000 0.010910 0.750000
O O7 0.323370 0.004195 0.673687
O O8 0.234847 0.999910 0.625296
O O9 0.050914 0.990540 0.405338
O O10 0.000000 0.750000 0.435167
O O11 0.000000 0.000000 0.500000
O O12 0.716063 0.250000 0.063292
O O13 0.647537 0.468362 0.076557
O O14 0.723961 0.500000 0.000000
O O15 0.500000 0.502832 0.783897
O O16 0.451501 0.250000 0.765613
O O17 0.397009 0.462844 0.816741
O O18 0.420789 0.502064 0.708509
O O19 0.883035 0.750000 0.403245
O O20 0.877804 0.250000 0.832562
#
# Coordination Sequence:
#
# PCOD8299274 Si02
#       7
#    16  16   8  16  16  16  16
#     4  10  21  37  57  82 116 156 194 235 287 349
#     4  10  22  43  68  94 122 158 204 257 314 372
#     4  10  20  32  52  80 112 150 191 234 283 338
#     4  12  26  43  64  90 121 163 209 260 314 369
#     4   9  16  30  56  89 122 156 195 236 284 346
#     4  10  19  36  59  86 119 157 198 243 293 350
#     4  10  20  34  59  90 116 148 192 241 293 352
#
# _framework density 20.573371000000002
#
# number of rings (size 3 to 8) (size 9 to 14) (size 15 to 20)
#    0.000    1.846    0.769    3.692    0.000    7.385 
#    0.000    2.308    0.000    0.923    0.000    0.000 
#    0.000    0.000    0.000    0.000    0.000    0.000 
#
# Total GULP energy -644192.361640 kJ/mol
# GULP energy per Si atom -12388.314647 kJ/mol
# Density = 2.052655 g / cm^3
# Si number density = 20.573371 Si / 1000 Ang^3
#
#
#
# Elastic Constant Matrix: (Units=GPa)
#
#
# Indices 1 2 3 4 5 6 
#
# 1 115.2484 31.0165 57.8649 0.0000 0.0000 0.0000
# 2 31.0165 32.4842 27.8873 0.0000 0.0000 0.0000
# 3 57.8649 27.8873 130.2476 0.0000 0.0000 0.0000
# 4 0.0000 0.0000 0.0000 26.0377 0.0000 0.0000
# 5 0.0000 0.0000 0.0000 0.0000 26.7667 0.0000
# 6 0.0000 0.0000 0.0000 0.0000 0.0000 25.0220
#
#
#
# Elastic Compliance Matrix: (Units=1/GPa)
#
#
# Indices 1 2 3 4 5 6 
#
# 1 0.013080 -0.009189 -0.003843 0.000000 0.000000 0.000000
# 2 -0.009189 0.044173 -0.005375 0.000000 0.000000 0.000000
# 3 -0.003843 -0.005375 0.010536 0.000000 0.000000 0.000000
# 4 0.000000 0.000000 0.000000 0.038406 0.000000 0.000000
# 5 0.000000 0.000000 0.000000 0.000000 0.037360 0.000000
# 6 0.000000 0.000000 0.000000 0.000000 0.000000 0.039965
#
#
# Mechanical properties :
#
#
# Convention : Reuss Voigt Hill
#
# Bulk Modulus (GPa) = 32.28647 56.83530 44.56088
# Shear Modulus (GPa) = 21.67698 26.31271 23.99484
#
# Velocity S-wave (km/s) = 3.24951 3.58015 3.41883
# Velocity P-wave (km/s) = 5.45953 6.69146 6.10664
#
# Compressibility (1/GPa) = 0.03097273
#
# Stress axis : x y z
#
# Youngs Moduli (GPa) = 76.45434 22.63832 94.91165
#
# Poissons Ratio (x) = 0.20803 0.36478
# Poissons Ratio (y) = 0.70255 0.51019
# Poissons Ratio (z) = 0.29384 0.12169
#
# Static dielectric constant tensor:
#      x y z
#    x 4.067040 0.000000 0.000000 
#    y 0.000000 3.404780 0.000000 
#    z 0.000000 0.000000 4.019010 
# 
# 
# High freq. dielectric constant tensor:
#      x y z
#    x 1.813720 0.000000 0.000000 
#    y 0.000000 1.768460 0.000000 
#    z 0.000000 0.000000 1.819840 
# 
# From -- ./inp_files/55248.got.cif
#   From: 2010.03.12/outbox.cif.g09.slc.cpg/sg74_28_cif.got.tgz:55248.got - 2010.04.16 15:46:19.
