data_PCOD8299582
_publ_section_title
;
Structure prediction by ZEFSAII (Michael W. Deem and Ramdas Pophale) SiO2 
 PCOD8299582
Probable space group: I M M A
;
_chemical_formula_sum "Si O2"
_cell_formula_units_Z 80
_cell_length_a 8.770874
_cell_length_b 19.521101
_cell_length_c 32.670149
_cell_angle_alpha 90.000000
_cell_angle_beta 90.000000
_cell_angle_gamma 90.000000
_cell_volume 5593.688731
_symmetry_space_group_name_H-M "I M M A"
_symmetry_group_IT_number 74
_symmetry_cell_setting 'orthorhombic'
loop_
_space_group_symop_operation_xyz
x,y,z
-x,1/2-y,z
x,-y,-z
-x,1/2+y,-z
-x,-y,-z
x,1/2+y,-z
-x,y,z
x,1/2-y,z
1/2+x,1/2+y,1/2+z
1/2-x,-y,1/2+z
1/2+x,1/2-y,1/2-z
1/2-x,y,1/2-z
1/2-x,1/2-y,1/2-z
1/2+x,y,1/2-z
1/2-x,1/2+y,1/2+z
1/2+x,-y,1/2+z
loop_
_atom_site_type_symbol
_atom_site_label
_atom_site_fract_x
_atom_site_fract_y
_atom_site_fract_z
Si Si1 0.329460 0.250000 0.510827
Si Si2 0.679895 0.379403 0.127180
Si Si3 0.672086 0.250000 0.413901
Si Si4 0.678521 0.670962 0.706924
Si Si5 0.319907 0.028197 0.436036
Si Si6 0.819236 0.897202 0.017611
O O1 0.500000 0.250000 0.528695
O O2 0.332825 0.250000 0.462202
O O3 0.248398 0.320939 0.525815
O O4 0.500000 0.376079 0.130362
O O5 0.741056 0.316779 0.100716
O O6 0.748899 0.377564 0.172608
O O7 0.732261 0.449390 0.104963
O O8 0.500000 0.250000 0.395644
O O9 0.500000 0.658148 0.709147
O O10 0.717278 0.750000 0.696278
O O11 0.750000 0.649624 0.750000
O O12 0.500000 0.037837 0.429559
O O13 0.259891 0.073131 0.474385
O O14 0.278089 0.948642 0.445346
O O15 0.000000 0.890919 0.013110
#
# Coordination Sequence:
#
# PCOD8299582 Si02
#       6
#     8  16   8  16  16  16
#     4   9  14  23  43  64  78 101 142 188 221 248
#     4  12  22  30  42  61  86 111 141 178 214 252
#     4  11  19  29  44  60  79 107 145 182 215 250
#     4  10  20  33  48  63  83 109 138 172 211 249
#     4   9  16  28  43  59  80 109 143 177 214 254
#     4   8  14  24  41  62  81 104 142 184 216 250
#
# _framework density 14.301833
#
# number of rings (size 3 to 8) (size 9 to 14) (size 15 to 20)
#    0.000    2.200    3.000    3.900    0.000    0.800 
#    0.000    2.000    0.000    0.000    0.000    0.000 
#    0.000    0.000    0.000    0.900    0.000    9.000 
#
# Total GULP energy -495790.257248 kJ/mol
# GULP energy per Si atom -12394.756431 kJ/mol
# Density = 1.426928 g / cm^3
# Si number density = 14.301833 Si / 1000 Ang^3
#
#
#
# Elastic Constant Matrix: (Units=GPa)
#
#
# Indices 1 2 3 4 5 6 
#
# 1 65.5615 25.6378 37.6136 0.0000 0.0000 0.0000
# 2 25.6378 111.8204 47.5109 0.0000 0.0000 0.0000
# 3 37.6136 47.5109 86.5376 0.0000 0.0000 0.0000
# 4 0.0000 0.0000 0.0000 22.4773 0.0000 0.0000
# 5 0.0000 0.0000 0.0000 0.0000 19.4814 0.0000
# 6 0.0000 0.0000 0.0000 0.0000 0.0000 11.3674
#
#
#
# Elastic Compliance Matrix: (Units=1/GPa)
#
#
# Indices 1 2 3 4 5 6 
#
# 1 0.020440 -0.001189 -0.008232 0.000000 0.000000 0.000000
# 2 -0.001189 0.011733 -0.005925 0.000000 0.000000 0.000000
# 3 -0.008232 -0.005925 0.018386 0.000000 0.000000 0.000000
# 4 0.000000 0.000000 0.000000 0.044489 0.000000 0.000000
# 5 0.000000 0.000000 0.000000 0.000000 0.051331 0.000000
# 6 0.000000 0.000000 0.000000 0.000000 0.000000 0.087971
#
#
# Mechanical properties :
#
#
# Convention : Reuss Voigt Hill
#
# Bulk Modulus (GPa) = 50.33014 53.93824 52.13419
# Shear Modulus (GPa) = 18.40502 20.87570 19.64036
#
# Velocity S-wave (km/s) = 3.59123 3.82468 3.70979
# Velocity P-wave (km/s) = 7.24318 7.56970 7.40824
#
# Compressibility (1/GPa) = 0.01986881
#
# Stress axis : x y z
#
# Youngs Moduli (GPa) = 48.92265 85.23058 54.38809
#
# Poissons Ratio (x) = 0.10134 0.44770
# Poissons Ratio (y) = 0.05817 0.32224
# Poissons Ratio (z) = 0.40271 0.50497
#
# Static dielectric constant tensor:
#      x y z
#    x 2.635540 0.000000 0.000000 
#    y 0.000000 3.036460 0.000000 
#    z 0.000000 0.000000 2.686710 
# 
# 
# High freq. dielectric constant tensor:
#      x y z
#    x 1.531630 0.000000 0.000000 
#    y 0.000000 1.529070 0.000000 
#    z 0.000000 0.000000 1.520770 
# 
# From -- ./inp_files/70398.got.cif
#   From: 2010.03.12/outbox.cif.g09.slc.cpg/sg74_36_cif.got.tgz:70398.got - 2010.04.16 15:46:19.
