data_PCOD8299579
_publ_section_title
;
Structure prediction by ZEFSAII (Michael W. Deem and Ramdas Pophale) SiO2 
 PCOD8299579
Probable space group: I M M A
;
_chemical_formula_sum "Si O2"
_cell_formula_units_Z 64
_cell_length_a 17.041176
_cell_length_b 24.704027
_cell_length_c 7.292562
_cell_angle_alpha 90.000000
_cell_angle_beta 90.000000
_cell_angle_gamma 90.000000
_cell_volume 3070.064114
_symmetry_space_group_name_H-M "I M M A"
_symmetry_group_IT_number 74
_symmetry_cell_setting 'orthorhombic'
loop_
_space_group_symop_operation_xyz
x,y,z
-x,1/2-y,z
x,-y,-z
-x,1/2+y,-z
-x,-y,-z
x,1/2+y,-z
-x,y,z
x,1/2-y,z
1/2+x,1/2+y,1/2+z
1/2-x,-y,1/2+z
1/2+x,1/2-y,1/2-z
1/2-x,y,1/2-z
1/2-x,1/2-y,1/2-z
1/2+x,y,1/2-z
1/2-x,1/2+y,1/2+z
1/2+x,-y,1/2+z
loop_
_atom_site_type_symbol
_atom_site_label
_atom_site_fract_x
_atom_site_fract_y
_atom_site_fract_z
Si Si1 0.908476 0.860333 0.323223
Si Si2 0.908655 0.438307 0.003830
Si Si3 0.340107 0.857353 0.779262
Si Si4 0.090393 0.750000 0.692614
Si Si5 0.159010 0.750000 0.297837
O O1 0.889880 0.910443 0.190589
O O2 0.859097 0.869036 0.508122
O O3 0.882020 0.804638 0.221036
O O4 0.000000 0.856876 0.373783
O O5 0.000000 0.434197 0.051045
O O6 0.879888 0.500000 0.000000
O O7 0.861710 0.410301 0.166423
O O8 0.250000 0.843667 0.750000
O O9 0.389004 0.805389 0.700237
O O10 0.147105 0.750000 0.516408
O O11 0.000000 0.750000 0.633311
O O12 0.250000 0.750000 0.250000
#
# Coordination Sequence:
#
# PCOD8299579 Si02
#       5
#    16  16  16   8   8
#     4  10  22  41  65  89 126 169 206 253 312 374
#     4  10  23  43  65  91 122 165 222 261 296 370
#     4  11  23  39  63  95 128 165 202 260 320 370
#     4  10  21  40  64  90 127 166 208 248 308 389
#     4  10  20  32  60  92 126 159 196 254 307 375
#
# _framework density 20.846471000000001
#
# number of rings (size 3 to 8) (size 9 to 14) (size 15 to 20)
#    0.000    1.750    0.000    5.250    7.000    2.000 
#    4.500    5.000    0.000    0.000    0.000    0.000 
#    0.000    0.000    0.000    0.000    0.000    0.000 
#
# Total GULP energy -396802.713614 kJ/mol
# GULP energy per Si atom -12400.084800 kJ/mol
# Density = 2.079902 g / cm^3
# Si number density = 20.846471 Si / 1000 Ang^3
#
#
#
# Elastic Constant Matrix: (Units=GPa)
#
#
# Indices 1 2 3 4 5 6 
#
# 1 124.6133 57.1247 59.6960 0.0000 0.0000 0.0000
# 2 57.1247 185.9229 59.7731 0.0000 0.0000 0.0000
# 3 59.6960 59.7731 86.1133 0.0000 0.0000 0.0000
# 4 0.0000 0.0000 0.0000 32.0449 0.0000 0.0000
# 5 0.0000 0.0000 0.0000 0.0000 30.9505 0.0000
# 6 0.0000 0.0000 0.0000 0.0000 0.0000 20.9794
#
#
#
# Elastic Compliance Matrix: (Units=1/GPa)
#
#
# Indices 1 2 3 4 5 6 
#
# 1 0.012266 -0.001332 -0.007578 0.000000 0.000000 0.000000
# 2 -0.001332 0.007068 -0.003983 0.000000 0.000000 0.000000
# 3 -0.007578 -0.003983 0.019631 0.000000 0.000000 0.000000
# 4 0.000000 0.000000 0.000000 0.031206 0.000000 0.000000
# 5 0.000000 0.000000 0.000000 0.000000 0.032310 0.000000
# 6 0.000000 0.000000 0.000000 0.000000 0.000000 0.047666
#
#
# Mechanical properties :
#
#
# Convention : Reuss Voigt Hill
#
# Bulk Modulus (GPa) = 75.88264 83.31523 79.59893
# Shear Modulus (GPa) = 27.72758 31.46533 29.59645
#
# Velocity S-wave (km/s) = 3.65099 3.88929 3.77202
# Velocity P-wave (km/s) = 7.36564 7.76026 7.56553
#
# Compressibility (1/GPa) = 0.01317825
#
# Stress axis : x y z
#
# Youngs Moduli (GPa) = 81.52632 141.47598 50.94099
#
# Poissons Ratio (x) = 0.18849 0.38605
# Poissons Ratio (y) = 0.10862 0.20288
# Poissons Ratio (z) = 0.61783 0.56345
#
# Static dielectric constant tensor:
#      x y z
#    x 3.675390 0.000000 0.000000 
#    y 0.000000 4.243780 0.000000 
#    z 0.000000 0.000000 3.542380 
# 
# 
# High freq. dielectric constant tensor:
#      x y z
#    x 1.816750 0.000000 0.000000 
#    y 0.000000 1.825810 0.000000 
#    z 0.000000 0.000000 1.805160 
# 
# From -- ./inp_files/8837.got.cif
#   From: 2010.03.12/outbox.cif.g09.slc.cpg/sg74_5_cif.got.tgz:8837.got - 2010.04.16 15:46:19.
