data_PCOD8299000
_publ_section_title
;
Structure prediction by ZEFSAII (Michael W. Deem and Ramdas Pophale) SiO2 
 PCOD8299000
Probable space group: I M M A
;
_chemical_formula_sum "Si O2"
_cell_formula_units_Z 88
_cell_length_a 15.439310
_cell_length_b 10.518129
_cell_length_c 25.006833
_cell_angle_alpha 90.000000
_cell_angle_beta 90.000000
_cell_angle_gamma 90.000000
_cell_volume 4060.925985
_symmetry_space_group_name_H-M "I M M A"
_symmetry_group_IT_number 74
_symmetry_cell_setting 'orthorhombic'
loop_
_space_group_symop_operation_xyz
x,y,z
-x,1/2-y,z
x,-y,-z
-x,1/2+y,-z
-x,-y,-z
x,1/2+y,-z
-x,y,z
x,1/2-y,z
1/2+x,1/2+y,1/2+z
1/2-x,-y,1/2+z
1/2+x,1/2-y,1/2-z
1/2-x,y,1/2-z
1/2-x,1/2-y,1/2-z
1/2+x,y,1/2-z
1/2-x,1/2+y,1/2+z
1/2+x,-y,1/2+z
loop_
_atom_site_type_symbol
_atom_site_label
_atom_site_fract_x
_atom_site_fract_y
_atom_site_fract_z
Si Si1 0.597534 0.605431 0.266403
Si Si2 0.662556 0.390277 0.846131
Si Si3 0.153076 0.965060 0.123971
Si Si4 0.095198 0.108844 0.416435
Si Si5 0.226731 0.111573 0.037047
Si Si6 0.500000 0.607736 0.453166
O O1 0.500000 0.582378 0.245666
O O2 0.609018 0.750000 0.287707
O O3 0.663054 0.579254 0.217448
O O4 0.615610 0.511798 0.316600
O O5 0.620724 0.250000 0.855353
O O6 0.759328 0.382562 0.869814
O O7 0.604896 0.499041 0.872751
O O8 0.083315 0.900524 0.085274
O O9 0.184270 0.097124 0.096084
O O10 0.103872 0.250000 0.389805
O O11 0.169191 0.096935 0.461527
O O12 0.000000 0.094712 0.443105
O O13 0.200829 0.250000 0.014069
O O14 0.187713 0.000000 0.000000
O O15 0.500000 0.750000 0.479255
O O16 0.500000 0.500000 0.500000
#
# Coordination Sequence:
#
# PCOD8299000 Si02
#       6
#    16  16  16  16  16   8
#     4  10  19  33  56  88 125 157 195 244 297 355
#     4  10  20  34  58  91 122 154 197 248 296 350
#     4  11  22  38  60  83 118 158 197 242 303 364
#     4   9  19  37  58  82 119 160 193 231 289 361
#     4  10  23  41  61  86 115 150 195 247 301 358
#     4  12  26  42  62  86 116 158 208 258 307 360
#
# _framework density 21.669934999999999
#
# number of rings (size 3 to 8) (size 9 to 14) (size 15 to 20)
#    0.000    1.818    0.909    3.273    0.000    9.455 
#    0.000    0.909    0.000    5.455    0.000    0.000 
#    0.000    0.000    0.000    0.000    0.000    0.000 
#
# Total GULP energy -545107.257837 kJ/mol
# GULP energy per Si atom -12388.801314 kJ/mol
# Density = 2.162061 g / cm^3
# Si number density = 21.669935 Si / 1000 Ang^3
#
#
#
# Elastic Constant Matrix: (Units=GPa)
#
#
# Indices 1 2 3 4 5 6 
#
# 1 103.6038 23.9821 30.7796 0.0000 0.0000 0.0000
# 2 23.9821 141.1845 59.8129 0.0000 0.0000 0.0000
# 3 30.7796 59.8129 96.5311 0.0000 0.0000 0.0000
# 4 0.0000 0.0000 0.0000 30.7432 0.0000 0.0000
# 5 0.0000 0.0000 0.0000 0.0000 34.2367 0.0000
# 6 0.0000 0.0000 0.0000 0.0000 0.0000 14.1712
#
#
#
# Elastic Compliance Matrix: (Units=1/GPa)
#
#
# Indices 1 2 3 4 5 6 
#
# 1 0.010689 -0.000504 -0.003096 0.000000 0.000000 0.000000
# 2 -0.000504 0.009628 -0.005805 0.000000 0.000000 0.000000
# 3 -0.003096 -0.005805 0.014943 0.000000 0.000000 0.000000
# 4 0.000000 0.000000 0.000000 0.032528 0.000000 0.000000
# 5 0.000000 0.000000 0.000000 0.000000 0.029208 0.000000
# 6 0.000000 0.000000 0.000000 0.000000 0.000000 0.070566
#
#
# Mechanical properties :
#
#
# Convention : Reuss Voigt Hill
#
# Bulk Modulus (GPa) = 60.78954 63.38539 62.08747
# Shear Modulus (GPa) = 26.06147 30.94654 28.50400
#
# Velocity S-wave (km/s) = 3.47169 3.78310 3.63074
# Velocity P-wave (km/s) = 6.64707 6.95675 6.80367
#
# Compressibility (1/GPa) = 0.01645020
#
# Stress axis : x y z
#
# Youngs Moduli (GPa) = 93.55797 103.86602 66.91966
#
# Poissons Ratio (x) = 0.05236 0.20717
# Poissons Ratio (y) = 0.04716 0.38846
# Poissons Ratio (z) = 0.28964 0.60293
#
# Static dielectric constant tensor:
#      x y z
#    x 4.161260 0.000000 0.000000 
#    y 0.000000 3.852830 0.000000 
#    z 0.000000 0.000000 3.767910 
# 
# 
# High freq. dielectric constant tensor:
#      x y z
#    x 1.871430 0.000000 0.000000 
#    y 0.000000 1.827930 0.000000 
#    z 0.000000 0.000000 1.833780 
# 
# From -- ./inp_files/58622.got.cif
#   From: 2010.03.12/outbox.cif.g09.slc.cpg/sg74_30_cif.got.tgz:58622.got - 2010.04.16 15:46:19.
