data_PCOD8299723
_publ_section_title
;
Structure prediction by ZEFSAII (Michael W. Deem and Ramdas Pophale) SiO2 
 PCOD8299723
Probable space group: I M M A
;
_chemical_formula_sum "Si O2"
_cell_formula_units_Z 96
_cell_length_a 8.915498
_cell_length_b 29.693980
_cell_length_c 19.485345
_cell_angle_alpha 90.000000
_cell_angle_beta 90.000000
_cell_angle_gamma 90.000000
_cell_volume 5158.484361
_symmetry_space_group_name_H-M "I M M A"
_symmetry_group_IT_number 74
_symmetry_cell_setting 'orthorhombic'
loop_
_space_group_symop_operation_xyz
x,y,z
-x,1/2-y,z
x,-y,-z
-x,1/2+y,-z
-x,-y,-z
x,1/2+y,-z
-x,y,z
x,1/2-y,z
1/2+x,1/2+y,1/2+z
1/2-x,-y,1/2+z
1/2+x,1/2-y,1/2-z
1/2-x,y,1/2-z
1/2-x,1/2-y,1/2-z
1/2+x,y,1/2-z
1/2-x,1/2+y,1/2+z
1/2+x,-y,1/2+z
loop_
_atom_site_type_symbol
_atom_site_label
_atom_site_fract_x
_atom_site_fract_y
_atom_site_fract_z
Si Si1 0.675994 0.485348 0.179751
Si Si2 0.826473 0.302950 0.456036
Si Si3 0.323425 0.589178 0.179645
Si Si4 0.676096 0.873036 0.452456
Si Si5 0.675481 0.457953 0.455025
Si Si6 0.668780 0.803570 0.682535
O O1 0.500000 0.478515 0.185854
O O2 0.750000 0.467835 0.250000
O O3 0.720347 0.537262 0.166554
O O4 0.738267 0.456066 0.116977
O O5 0.802916 0.250000 0.465208
O O6 0.737205 0.326403 0.517451
O O7 0.759690 0.319922 0.383791
O O8 0.000000 0.316554 0.458406
O O9 0.500000 0.596121 0.183987
O O10 0.250000 0.606333 0.250000
O O11 0.257244 0.619260 0.119324
O O12 0.500000 0.869742 0.439370
O O13 0.716617 0.912711 0.505026
O O14 0.733170 0.500000 0.500000
O O15 0.500000 0.462712 0.439778
O O16 0.500000 0.822900 0.678671
O O17 0.665448 0.750000 0.686316
O O18 0.750000 0.823270 0.750000
#
# Coordination Sequence:
#
# PCOD8299723 Si02
#       6
#    16  16  16  16  16  16
#     4  10  20  33  53  78 109 148 187 226 269 320
#     4  10  21  37  56  79 109 144 183 230 280 329
#     4  10  20  34  54  81 111 143 182 225 268 321
#     4  11  22  36  57  83 111 145 183 226 274 326
#     4  10  20  35  54  78 111 145 178 220 268 320
#     4   9  16  28  49  76 104 135 174 219 267 320
#
# _framework density 18.610116999999999
#
# number of rings (size 3 to 8) (size 9 to 14) (size 15 to 20)
#    0.000    2.000    1.667    2.500    0.000    6.000 
#    0.000    0.833    0.000    4.500    0.000    0.000 
#    0.000    0.000    0.000    0.000    0.000    0.000 
#
# Total GULP energy -595440.159777 kJ/mol
# GULP energy per Si atom -12405.003329 kJ/mol
# Density = 1.856776 g / cm^3
# Si number density = 18.610117 Si / 1000 Ang^3
#
#
#
# Elastic Constant Matrix: (Units=GPa)
#
#
# Indices 1 2 3 4 5 6 
#
# 1 96.1647 30.6433 63.7656 0.0004 0.0000 -0.0001
# 2 30.6433 38.4345 35.4473 0.0001 0.0000 0.0000
# 3 63.7656 35.4473 156.4693 0.0008 0.0001 -0.0001
# 4 0.0004 0.0001 0.0008 17.7742 0.0000 -0.0001
# 5 0.0000 0.0000 0.0001 0.0000 42.4800 0.0001
# 6 -0.0001 0.0000 -0.0001 -0.0001 0.0001 19.1640
#
#
#
# Elastic Compliance Matrix: (Units=1/GPa)
#
#
# Indices 1 2 3 4 5 6 
#
# 1 0.016247 -0.008656 -0.004660 0.000000 0.000000 0.000000
# 2 -0.008656 0.037501 -0.004968 0.000000 0.000000 0.000000
# 3 -0.004660 -0.004968 0.009416 0.000000 0.000000 0.000000
# 4 0.000000 0.000000 0.000000 0.056261 0.000000 0.000000
# 5 0.000000 0.000000 0.000000 0.000000 0.023540 0.000000
# 6 0.000000 0.000000 0.000000 0.000000 0.000000 0.052181
#
#
# Mechanical properties :
#
#
# Convention : Reuss Voigt Hill
#
# Bulk Modulus (GPa) = 37.59973 61.19789 49.39881
# Shear Modulus (GPa) = 20.78304 26.63115 23.70710
#
# Velocity S-wave (km/s) = 3.34542 3.78697 3.57302
# Velocity P-wave (km/s) = 5.93045 7.21644 6.60482
#
# Compressibility (1/GPa) = 0.02659594
#
# Stress axis : x y z
#
# Youngs Moduli (GPa) = 61.54934 26.66565 106.20460
#
# Poissons Ratio (x) = 0.23081 0.49494
# Poissons Ratio (y) = 0.53274 0.52767
# Poissons Ratio (z) = 0.28684 0.13249
#
# Static dielectric constant tensor:
#      x y z
#    x 3.486500 0.000000 0.000000 
#    y 0.000000 3.082780 0.000000 
#    z 0.000000 0.000000 3.509230 
# 
# 
# High freq. dielectric constant tensor:
#      x y z
#    x 1.736450 0.000000 0.000000 
#    y 0.000000 1.685170 0.000000 
#    z 0.000000 0.000000 1.730480 
# 
# From -- ./inp_files/49131.got.cif
#   From: 2010.03.12/outbox.cif.g09.slc.cpg/sg74_25_cif.got.tgz:49131.got - 2010.04.16 15:46:19.
