data_PCOD8299425
_publ_section_title
;
Structure prediction by ZEFSAII (Michael W. Deem and Ramdas Pophale) SiO2 
 PCOD8299425
Probable space group: I M M A
;
_chemical_formula_sum "Si O2"
_cell_formula_units_Z 104
_cell_length_a 8.964927
_cell_length_b 31.722236
_cell_length_c 20.781345
_cell_angle_alpha 90.000000
_cell_angle_beta 90.000000
_cell_angle_gamma 90.000000
_cell_volume 5909.955375
_symmetry_space_group_name_H-M "I M M A"
_symmetry_group_IT_number 74
_symmetry_cell_setting 'orthorhombic'
loop_
_space_group_symop_operation_xyz
x,y,z
-x,1/2-y,z
x,-y,-z
-x,1/2+y,-z
-x,-y,-z
x,1/2+y,-z
-x,y,z
x,1/2-y,z
1/2+x,1/2+y,1/2+z
1/2-x,-y,1/2+z
1/2+x,1/2-y,1/2-z
1/2-x,y,1/2-z
1/2-x,1/2-y,1/2-z
1/2+x,y,1/2-z
1/2-x,1/2+y,1/2+z
1/2+x,-y,1/2+z
loop_
_atom_site_type_symbol
_atom_site_label
_atom_site_fract_x
_atom_site_fract_y
_atom_site_fract_z
Si Si1 0.170670 0.750000 0.315444
Si Si2 0.175618 0.961078 0.183240
Si Si3 0.824666 0.795709 0.955255
Si Si4 0.671866 0.589365 0.069034
Si Si5 0.169088 0.684830 0.417485
Si Si6 0.673314 0.558993 0.685637
Si Si7 0.822117 0.111353 0.063535
O O1 0.250000 0.750000 0.250000
O O2 0.216855 0.707994 0.352933
O O3 0.000000 0.750000 0.299221
O O4 0.250000 0.944630 0.250000
O O5 0.243592 0.940147 0.119574
O O6 0.000000 0.951670 0.186704
O O7 0.211287 0.010260 0.174710
O O8 0.763441 0.750000 0.927258
O O9 0.766430 0.839897 0.924105
O O10 0.000000 0.794791 0.948264
O O11 0.781945 0.798368 0.029448
O O12 0.500000 0.574704 0.062092
O O13 0.684050 0.635857 0.097785
O O14 0.747968 0.589471 0.998682
O O15 0.000000 0.696462 0.438842
O O16 0.500000 0.566874 0.694362
O O17 0.750000 0.576436 0.750000
O O18 0.733766 0.585145 0.624836
O O19 0.000000 0.109427 0.054048
#
# Coordination Sequence:
#
# PCOD8299425 Si02
#       7
#     8  16  16  16  16  16  16
#     4  10  20  32  44  60  84 118 157 196 235 278
#     4  10  20  35  53  72  96 131 171 209 251 299
#     4   9  16  27  48  74  96 121 156 195 237 287
#     4  10  20  33  50  75 102 129 165 208 251 296
#     4   9  18  32  47  63  89 123 157 195 241 286
#     4   9  19  35  55  75  98 131 168 204 247 300
#     4   9  18  33  51  75 104 132 164 204 251 298
#
# _framework density 17.597425999999999
#
# number of rings (size 3 to 8) (size 9 to 14) (size 15 to 20)
#    0.000    2.615    0.769    0.923    0.000    3.692 
#    0.000    4.615    0.000    0.462    0.000    0.000 
#    0.000    0.000    0.000    0.000    0.000    0.000 
#
# Total GULP energy -644348.413041 kJ/mol
# GULP energy per Si atom -12391.315635 kJ/mol
# Density = 1.755737 g / cm^3
# Si number density = 17.597426 Si / 1000 Ang^3
#
#
#
# Elastic Constant Matrix: (Units=GPa)
#
#
# Indices 1 2 3 4 5 6 
#
# 1 45.9798 36.3045 44.2776 -0.0001 0.0000 0.0000
# 2 36.3045 94.2236 73.9249 0.0000 0.0000 0.0000
# 3 44.2776 73.9249 137.4266 0.0003 0.0001 0.0000
# 4 -0.0001 0.0000 0.0003 35.4514 0.0000 0.0000
# 5 0.0000 0.0000 0.0001 0.0000 28.5230 0.0001
# 6 0.0000 0.0000 0.0000 0.0000 0.0001 20.0415
#
#
#
# Elastic Compliance Matrix: (Units=1/GPa)
#
#
# Indices 1 2 3 4 5 6 
#
# 1 0.034661 -0.007947 -0.006892 0.000000 0.000000 0.000000
# 2 -0.007947 0.020185 -0.008297 0.000000 0.000000 0.000000
# 3 -0.006892 -0.008297 0.013961 0.000000 0.000000 0.000000
# 4 0.000000 0.000000 0.000000 0.028208 0.000000 0.000000
# 5 0.000000 0.000000 0.000000 0.000000 0.035059 0.000000
# 6 0.000000 0.000000 0.000000 0.000000 0.000000 0.049897
#
#
# Mechanical properties :
#
#
# Convention : Reuss Voigt Hill
#
# Bulk Modulus (GPa) = 44.38074 65.18266 54.78170
# Shear Modulus (GPa) = 21.20842 25.01138 23.10990
#
# Velocity S-wave (km/s) = 3.47537 3.77412 3.62782
# Velocity P-wave (km/s) = 6.43265 7.49089 6.98185
#
# Compressibility (1/GPa) = 0.02253230
#
# Stress axis : x y z
#
# Youngs Moduli (GPa) = 28.85096 49.54145 71.62983
#
# Poissons Ratio (x) = 0.39372 0.49370
# Poissons Ratio (y) = 0.22929 0.59435
# Poissons Ratio (z) = 0.19885 0.41107
#
# Static dielectric constant tensor:
#      x y z
#    x 3.429620 0.000000 0.000000 
#    y 0.000000 3.724810 0.000000 
#    z 0.000000 0.000000 3.144890 
# 
# 
# High freq. dielectric constant tensor:
#      x y z
#    x 1.678570 0.000000 0.000000 
#    y 0.000000 1.689410 0.000000 
#    z 0.000000 0.000000 1.660620 
# 
# From -- ./inp_files/49613.got.cif
#   From: 2010.03.12/outbox.cif.g09.slc.cpg/sg74_25_cif.got.tgz:49613.got - 2010.04.16 15:46:19.
