data_PCOD8299605
_publ_section_title
;
Structure prediction by ZEFSAII (Michael W. Deem and Ramdas Pophale) SiO2 
 PCOD8299605
Probable space group: I M M A
;
_chemical_formula_sum "Si O2"
_cell_formula_units_Z 80
_cell_length_a 16.734469
_cell_length_b 18.272197
_cell_length_c 13.887782
_cell_angle_alpha 90.000000
_cell_angle_beta 90.000000
_cell_angle_gamma 90.000000
_cell_volume 4246.543683
_symmetry_space_group_name_H-M "I M M A"
_symmetry_group_IT_number 74
_symmetry_cell_setting 'orthorhombic'
loop_
_space_group_symop_operation_xyz
x,y,z
-x,1/2-y,z
x,-y,-z
-x,1/2+y,-z
-x,-y,-z
x,1/2+y,-z
-x,y,z
x,1/2-y,z
1/2+x,1/2+y,1/2+z
1/2-x,-y,1/2+z
1/2+x,1/2-y,1/2-z
1/2-x,y,1/2-z
1/2-x,1/2-y,1/2-z
1/2+x,y,1/2-z
1/2-x,1/2+y,1/2+z
1/2+x,-y,1/2+z
loop_
_atom_site_type_symbol
_atom_site_label
_atom_site_fract_x
_atom_site_fract_y
_atom_site_fract_z
Si Si1 0.835516 0.667195 0.793479
Si Si2 0.595537 0.831011 0.085598
Si Si3 0.094538 0.464331 0.099729
Si Si4 0.094461 0.963648 0.293888
Si Si5 0.407672 0.391635 0.112985
O O1 0.836049 0.750000 0.834238
O O2 0.750000 0.645025 0.750000
O O3 0.860230 0.612456 0.880064
O O4 0.897238 0.661564 0.704556
O O5 0.500000 0.829255 0.081971
O O6 0.628945 0.750000 0.107834
O O7 0.627294 0.885604 0.169064
O O8 0.631815 0.857937 0.983121
O O9 0.117939 0.522554 0.182982
O O10 0.000000 0.448214 0.098237
O O11 0.123700 0.500000 0.000000
O O12 0.000000 0.965319 0.304799
O O13 0.129987 0.028914 0.360752
O O14 0.500000 0.401395 0.090731
#
# Coordination Sequence:
#
# PCOD8299605 Si02
#       5
#    16  16  16  16  16
#     4  10  20  33  49  72 101 127 156 204 262 311
#     4   9  15  22  36  62  94 121 144 177 225 282
#     4   9  18  34  54  72  94 129 173 216 251 292
#     4   8  14  25  41  62  89 118 148 188 236 280
#     4   9  16  27  45  66  89 120 157 194 236 293
#
# _framework density 18.838850000000001
#
# number of rings (size 3 to 8) (size 9 to 14) (size 15 to 20)
#    0.000    3.000    0.000    3.000    0.000    4.800 
#    0.000    5.000    0.000    3.600    0.000    0.000 
#    0.000   18.400    0.000    0.000    0.000    0.000 
#
# Total GULP energy -495680.966284 kJ/mol
# GULP energy per Si atom -12392.024157 kJ/mol
# Density = 1.879597 g / cm^3
# Si number density = 18.838850 Si / 1000 Ang^3
#
#
#
# Elastic Constant Matrix: (Units=GPa)
#
#
# Indices 1 2 3 4 5 6 
#
# 1 16.7096 29.6578 19.3769 0.0000 0.0000 0.0000
# 2 29.6578 174.3164 95.2569 0.0000 0.0000 0.0000
# 3 19.3769 95.2569 130.2088 0.0000 0.0000 0.0000
# 4 0.0000 0.0000 0.0000 26.5190 0.0000 0.0000
# 5 0.0000 0.0000 0.0000 0.0000 11.5825 0.0000
# 6 0.0000 0.0000 0.0000 0.0000 0.0000 16.6768
#
#
#
# Elastic Compliance Matrix: (Units=1/GPa)
#
#
# Indices 1 2 3 4 5 6 
#
# 1 0.086692 -0.012828 -0.003516 0.000000 0.000000 0.000000
# 2 -0.012828 0.011456 -0.006472 0.000000 0.000000 0.000000
# 3 -0.003516 -0.006472 0.012938 0.000000 0.000000 0.000000
# 4 0.000000 0.000000 0.000000 0.037709 0.000000 0.000000
# 5 0.000000 0.000000 0.000000 0.000000 0.086337 0.000000
# 6 0.000000 0.000000 0.000000 0.000000 0.000000 0.059963
#
#
# Mechanical properties :
#
#
# Convention : Reuss Voigt Hill
#
# Bulk Modulus (GPa) = 15.27802 67.75758 41.51780
# Shear Modulus (GPa) = 13.79138 22.75188 18.27163
#
# Velocity S-wave (km/s) = 2.70862 3.47898 3.11769
# Velocity P-wave (km/s) = 4.23197 7.22377 5.91998
#
# Compressibility (1/GPa) = 0.06545351
#
# Stress axis : x y z
#
# Youngs Moduli (GPa) = 11.53504 87.29237 77.29317
#
# Poissons Ratio (x) = 1.11979 0.27179
# Poissons Ratio (y) = 0.14797 0.50022
# Poissons Ratio (z) = 0.04056 0.56493
#
# Static dielectric constant tensor:
#      x y z
#    x 2.982440 0.000000 0.000000 
#    y 0.000000 3.749930 0.000000 
#    z 0.000000 0.000000 3.475750 
# 
# 
# High freq. dielectric constant tensor:
#      x y z
#    x 1.678390 0.000000 0.000000 
#    y 0.000000 1.735110 0.000000 
#    z 0.000000 0.000000 1.719980 
# 
# From -- ./inp_files/33976.got.cif
#   From: 2010.03.12/outbox.cif.g09.slc.cpg/sg74_17_cif.got.tgz:33976.got - 2010.04.16 15:46:19.
