data_PCOD8299849
_publ_section_title
;
Structure prediction by ZEFSAII (Michael W. Deem and Ramdas Pophale) SiO2 
 PCOD8299849
Probable space group: I M M A
;
_chemical_formula_sum "Si O2"
_cell_formula_units_Z 64
_cell_length_a 8.804154
_cell_length_b 14.182618
_cell_length_c 28.500781
_cell_angle_alpha 90.000000
_cell_angle_beta 90.000000
_cell_angle_gamma 90.000000
_cell_volume 3558.777181
_symmetry_space_group_name_H-M "I M M A"
_symmetry_group_IT_number 74
_symmetry_cell_setting 'orthorhombic'
loop_
_space_group_symop_operation_xyz
x,y,z
-x,1/2-y,z
x,-y,-z
-x,1/2+y,-z
-x,-y,-z
x,1/2+y,-z
-x,y,z
x,1/2-y,z
1/2+x,1/2+y,1/2+z
1/2-x,-y,1/2+z
1/2+x,1/2-y,1/2-z
1/2-x,y,1/2-z
1/2-x,1/2-y,1/2-z
1/2+x,y,1/2-z
1/2-x,1/2+y,1/2+z
1/2+x,-y,1/2+z
loop_
_atom_site_type_symbol
_atom_site_label
_atom_site_fract_x
_atom_site_fract_y
_atom_site_fract_z
Si Si1 0.677406 0.640352 0.374435
Si Si2 0.679368 0.506698 0.053459
Si Si3 0.320150 0.007978 0.800961
Si Si4 0.679200 0.354188 0.126533
O O1 0.500000 0.620214 0.369069
O O2 0.715310 0.750000 0.376920
O O3 0.737351 0.594402 0.422464
O O4 0.762061 0.598751 0.329128
O O5 0.500000 0.524195 0.057533
O O6 0.727259 0.409761 0.079416
O O7 0.733942 0.500000 0.000000
O O8 0.500000 0.014245 0.797396
O O9 0.250000 0.005962 0.750000
O O10 0.266632 0.913343 0.828131
O O11 0.500000 0.343560 0.127904
O O12 0.755098 0.250000 0.126862
#
# Coordination Sequence:
#
# PCOD8299849 Si02
#       4
#    16  16  16  16
#     4  10  21  36  53  74 102 136 172 210 252 298
#     4   9  18  32  52  78 105 135 170 208 252 298
#     4  10  20  34  53  75 100 131 167 209 257 306
#     4   8  15  29  48  71 100 132 166 204 245 293
#
# _framework density 17.983706000000002
#
# number of rings (size 3 to 8) (size 9 to 14) (size 15 to 20)
#    0.000    2.750    0.000    3.000    0.000    4.500 
#    0.000    2.500    0.000   18.000    0.000    0.000 
#    0.000    0.000    0.000    0.000    0.000    0.000 
#
# Total GULP energy -396759.975712 kJ/mol
# GULP energy per Si atom -12398.749241 kJ/mol
# Density = 1.794277 g / cm^3
# Si number density = 17.983706 Si / 1000 Ang^3
#
#
#
# Elastic Constant Matrix: (Units=GPa)
#
#
# Indices 1 2 3 4 5 6 
#
# 1 58.3609 50.4859 47.4486 0.0000 0.0000 0.0000
# 2 50.4859 159.5276 87.5763 0.0000 0.0000 0.0000
# 3 47.4486 87.5763 187.8603 0.0000 0.0000 0.0000
# 4 0.0000 0.0000 0.0000 5.3416 0.0000 0.0000
# 5 0.0000 0.0000 0.0000 0.0000 27.6105 0.0000
# 6 0.0000 0.0000 0.0000 0.0000 0.0000 21.6257
#
#
#
# Elastic Compliance Matrix: (Units=1/GPa)
#
#
# Indices 1 2 3 4 5 6 
#
# 1 0.025254 -0.006035 -0.003565 0.000000 0.000000 0.000000
# 2 -0.006035 0.009867 -0.003075 0.000000 0.000000 0.000000
# 3 -0.003565 -0.003075 0.007657 0.000000 0.000000 0.000000
# 4 0.000000 0.000000 0.000000 0.187208 0.000000 0.000000
# 5 0.000000 0.000000 0.000000 0.000000 0.036218 0.000000
# 6 0.000000 0.000000 0.000000 0.000000 0.000000 0.046241
#
#
# Mechanical properties :
#
#
# Convention : Reuss Voigt Hill
#
# Bulk Modulus (GPa) = 57.38249 86.30785 71.84517
# Shear Modulus (GPa) = 14.55158 25.59810 20.07484
#
# Velocity S-wave (km/s) = 2.84765 3.77690 3.34470
# Velocity P-wave (km/s) = 6.54136 8.19246 7.41302
#
# Compressibility (1/GPa) = 0.01742692
#
# Stress axis : x y z
#
# Youngs Moduli (GPa) = 39.59785 101.35108 130.59576
#
# Poissons Ratio (x) = 0.61165 0.46559
# Poissons Ratio (y) = 0.23897 0.40163
# Poissons Ratio (z) = 0.14117 0.31169
#
# Static dielectric constant tensor:
#      x y z
#    x 3.161770 0.000000 0.000000 
#    y 0.000000 3.597440 0.000000 
#    z 0.000000 0.000000 3.485300 
# 
# 
# High freq. dielectric constant tensor:
#      x y z
#    x 1.679530 0.000000 0.000000 
#    y 0.000000 1.700630 0.000000 
#    z 0.000000 0.000000 1.701440 
# 
# From -- ./inp_files/69902.got.cif
#   From: 2010.03.12/outbox.cif.g09.slc.cpg/sg74_35_cif.got.tgz:69902.got - 2010.04.16 15:46:19.
