data_PCOD8299174
_publ_section_title
;
Structure prediction by ZEFSAII (Michael W. Deem and Ramdas Pophale) SiO2 
 PCOD8299174
Probable space group: I M M A
;
_chemical_formula_sum "Si O2"
_cell_formula_units_Z 72
_cell_length_a 9.050195
_cell_length_b 29.159023
_cell_length_c 14.495582
_cell_angle_alpha 90.000000
_cell_angle_beta 90.000000
_cell_angle_gamma 90.000000
_cell_volume 3825.309353
_symmetry_space_group_name_H-M "I M M A"
_symmetry_group_IT_number 74
_symmetry_cell_setting 'orthorhombic'
loop_
_space_group_symop_operation_xyz
x,y,z
-x,1/2-y,z
x,-y,-z
-x,1/2+y,-z
-x,-y,-z
x,1/2+y,-z
-x,y,z
x,1/2-y,z
1/2+x,1/2+y,1/2+z
1/2-x,-y,1/2+z
1/2+x,1/2-y,1/2-z
1/2-x,y,1/2-z
1/2-x,1/2-y,1/2-z
1/2+x,y,1/2-z
1/2-x,1/2+y,1/2+z
1/2+x,-y,1/2+z
loop_
_atom_site_type_symbol
_atom_site_label
_atom_site_fract_x
_atom_site_fract_y
_atom_site_fract_z
Si Si1 0.828970 0.196341 0.156303
Si Si2 0.833521 0.530325 0.579800
Si Si3 0.250000 0.026428 0.750000
Si Si4 0.675719 0.372561 0.026406
Si Si5 0.335322 0.885462 0.335571
O O1 0.807269 0.250000 0.138841
O O2 0.750000 0.180525 0.250000
O O3 0.753370 0.171170 0.070929
O O4 0.000000 0.182701 0.163356
O O5 0.752371 0.500000 0.500000
O O6 0.834583 0.506899 0.679718
O O7 0.768730 0.581996 0.582171
O O8 0.000000 0.537252 0.545415
O O9 0.354439 0.060023 0.689121
O O10 0.500000 0.365193 0.027330
O O11 0.731475 0.377524 0.922461
O O12 0.500000 0.865044 0.350513
O O13 0.250000 0.860867 0.250000
#
# Coordination Sequence:
#
# PCOD8299174 Si02
#       5
#    16  16   8  16  16
#     4  10  22  42  65  88 116 148 186 234 288 345
#     4  10  19  35  52  75 113 155 194 234 279 330
#     4  10  20  32  54  76 108 154 200 242 278 330
#     4  11  22  36  59  86 116 152 192 239 286 339
#     4  10  20  35  56  79 110 151 196 238 282 335
#
# _framework density 18.822008
#
# number of rings (size 3 to 8) (size 9 to 14) (size 15 to 20)
#    0.667    1.111    2.222    2.667    1.556    1.333 
#    0.000    4.444    0.000    0.667    0.000    0.000 
#    0.000    0.000    0.000    0.000    0.000    0.000 
#
# Total GULP energy -446071.558258 kJ/mol
# GULP energy per Si atom -12390.876618 kJ/mol
# Density = 1.877917 g / cm^3
# Si number density = 18.822008 Si / 1000 Ang^3
#
#
#
# Elastic Constant Matrix: (Units=GPa)
#
#
# Indices 1 2 3 4 5 6 
#
# 1 111.5567 39.7262 42.4460 0.0000 0.0000 0.0000
# 2 39.7262 62.3108 51.3761 0.0003 0.0000 0.0000
# 3 42.4460 51.3761 131.2833 0.0009 0.0000 -0.0001
# 4 0.0000 0.0003 0.0009 27.1207 0.0000 0.0000
# 5 0.0000 0.0000 0.0000 0.0000 32.6594 0.0001
# 6 0.0000 0.0000 -0.0001 0.0000 0.0001 17.6184
#
#
#
# Elastic Compliance Matrix: (Units=1/GPa)
#
#
# Indices 1 2 3 4 5 6 
#
# 1 0.011741 -0.006430 -0.001280 0.000000 0.000000 0.000000
# 2 -0.006430 0.027215 -0.008571 0.000000 0.000000 0.000000
# 3 -0.001280 -0.008571 0.011385 0.000000 0.000000 0.000000
# 4 0.000000 0.000000 0.000000 0.036872 0.000000 0.000000
# 5 0.000000 0.000000 0.000000 0.000000 0.030619 0.000000
# 6 0.000000 0.000000 0.000000 0.000000 0.000000 0.056759
#
#
# Mechanical properties :
#
#
# Convention : Reuss Voigt Hill
#
# Bulk Modulus (GPa) = 56.24671 63.58304 59.91488
# Shear Modulus (GPa) = 23.46532 26.91987 25.19259
#
# Velocity S-wave (km/s) = 3.53469 3.78595 3.66247
# Velocity P-wave (km/s) = 6.82694 7.27776 7.05595
#
# Compressibility (1/GPa) = 0.01777882
#
# Stress axis : x y z
#
# Youngs Moduli (GPa) = 85.17315 36.74382 87.83379
#
# Poissons Ratio (x) = 0.23627 0.11239
# Poissons Ratio (y) = 0.54769 0.75286
# Poissons Ratio (z) = 0.10898 0.31495
#
# Static dielectric constant tensor:
#      x y z
#    x 3.301840 0.000000 0.000000 
#    y 0.000000 3.319650 0.000000 
#    z 0.000000 0.000000 3.349980 
# 
# 
# High freq. dielectric constant tensor:
#      x y z
#    x 1.723510 0.000000 0.000000 
#    y 0.000000 1.706910 0.000000 
#    z 0.000000 0.000000 1.736940 
# 
# From -- ./inp_files/29204.got.cif
#   From: 2010.03.12/outbox.cif.g09.slc.cpg/sg74_15_cif.got.tgz:29204.got - 2010.04.16 15:46:19.
