data_PCOD8299834
_publ_section_title
;
Structure prediction by ZEFSAII (Michael W. Deem and Ramdas Pophale) SiO2 
 PCOD8299834
Probable space group: I M M A
;
_chemical_formula_sum "Si O2"
_cell_formula_units_Z 96
_cell_length_a 8.765068
_cell_length_b 22.744419
_cell_length_c 26.792704
_cell_angle_alpha 90.000000
_cell_angle_beta 90.000000
_cell_angle_gamma 90.000000
_cell_volume 5341.296457
_symmetry_space_group_name_H-M "I M M A"
_symmetry_group_IT_number 74
_symmetry_cell_setting 'orthorhombic'
loop_
_space_group_symop_operation_xyz
x,y,z
-x,1/2-y,z
x,-y,-z
-x,1/2+y,-z
-x,-y,-z
x,1/2+y,-z
-x,y,z
x,1/2-y,z
1/2+x,1/2+y,1/2+z
1/2-x,-y,1/2+z
1/2+x,1/2-y,1/2-z
1/2-x,y,1/2-z
1/2-x,1/2-y,1/2-z
1/2+x,y,1/2-z
1/2-x,1/2+y,1/2+z
1/2+x,-y,1/2+z
loop_
_atom_site_type_symbol
_atom_site_label
_atom_site_fract_x
_atom_site_fract_y
_atom_site_fract_z
Si Si1 0.318950 0.250000 0.876531
Si Si2 0.819607 0.479358 0.698071
Si Si3 0.318482 0.250000 0.990387
Si Si4 0.175583 0.546596 0.891028
Si Si5 0.824261 0.631436 0.149931
Si Si6 0.670625 0.566729 0.452694
Si Si7 0.322586 0.870131 0.961848
O O1 0.500000 0.250000 0.876098
O O2 0.258063 0.193977 0.846190
O O3 0.255377 0.250000 0.933606
O O4 0.750000 0.501617 0.750000
O O5 0.772567 0.526853 0.656530
O O6 0.755728 0.414521 0.686719
O O7 0.000000 0.476323 0.701345
O O8 0.500000 0.250000 0.987963
O O9 0.258499 0.193108 0.020453
O O10 0.197315 0.500175 0.935973
O O11 0.235341 0.609158 0.911706
O O12 0.000000 0.550852 0.874525
O O13 0.807190 0.609570 0.093721
O O14 0.000000 0.637113 0.165970
O O15 0.500000 0.573842 0.475137
O O16 0.794828 0.583556 0.493737
O O17 0.500000 0.867282 0.949389
#
# Coordination Sequence:
#
# PCOD8299834 Si02
#       7
#     8  16   8  16  16  16  16
#     4  11  19  33  52  74 105 148 192 229 264 311
#     4  11  22  39  61  83 105 134 170 217 274 328
#     4   9  20  33  47  72 109 148 185 225 261 301
#     4  10  21  36  52  76 107 137 172 219 268 318
#     4  10  20  34  52  77 107 142 182 226 268 315
#     4   9  18  31  47  69 103 140 173 215 265 311
#     4  11  20  32  49  73 105 143 183 220 260 311
#
# _framework density 17.973165000000002
#
# number of rings (size 3 to 8) (size 9 to 14) (size 15 to 20)
#    0.000    1.833    1.667    4.750    0.000    5.333 
#    0.000    2.083    0.000    0.000    0.000    0.583 
#    0.000    0.000    0.000    0.000    0.000    0.000 
#
# Total GULP energy -595291.799223 kJ/mol
# GULP energy per Si atom -12401.912484 kJ/mol
# Density = 1.793226 g / cm^3
# Si number density = 17.973165 Si / 1000 Ang^3
#
#
#
# Elastic Constant Matrix: (Units=GPa)
#
#
# Indices 1 2 3 4 5 6 
#
# 1 105.2002 24.7021 35.3826 0.0000 0.0000 0.0000
# 2 24.7021 50.5441 40.7255 0.0000 0.0000 0.0000
# 3 35.3826 40.7255 69.2689 0.0000 0.0000 0.0000
# 4 0.0000 0.0000 0.0000 8.1747 0.0000 0.0000
# 5 0.0000 0.0000 0.0000 0.0000 29.6884 0.0000
# 6 0.0000 0.0000 0.0000 0.0000 0.0000 26.3473
#
#
#
# Elastic Compliance Matrix: (Units=1/GPa)
#
#
# Indices 1 2 3 4 5 6 
#
# 1 0.011553 -0.001694 -0.004906 0.000000 0.000000 0.000000
# 2 -0.001694 0.037842 -0.021383 0.000000 0.000000 0.000000
# 3 -0.004906 -0.021383 0.029514 0.000000 0.000000 0.000000
# 4 0.000000 0.000000 0.000000 0.122329 0.000000 0.000000
# 5 0.000000 0.000000 0.000000 0.000000 0.033683 0.000000
# 6 0.000000 0.000000 0.000000 0.000000 0.000000 0.037955
#
#
# Mechanical properties :
#
#
# Convention : Reuss Voigt Hill
#
# Bulk Modulus (GPa) = 43.58424 47.40375 45.49400
# Shear Modulus (GPa) = 14.85929 21.12227 17.99078
#
# Velocity S-wave (km/s) = 2.87844 3.43186 3.16726
# Velocity P-wave (km/s) = 5.94555 6.49119 6.22435
#
# Compressibility (1/GPa) = 0.02294407
#
# Stress axis : x y z
#
# Youngs Moduli (GPa) = 86.55509 26.42574 33.88186
#
# Poissons Ratio (x) = 0.04476 0.16621
# Poissons Ratio (y) = 0.14659 0.72451
# Poissons Ratio (z) = 0.42461 0.56507
#
# Static dielectric constant tensor:
#      x y z
#    x 3.300720 0.000000 0.000000 
#    y 0.000000 3.367870 0.000000 
#    z 0.000000 0.000000 3.137470 
# 
# 
# High freq. dielectric constant tensor:
#      x y z
#    x 1.701520 0.000000 0.000000 
#    y 0.000000 1.683310 0.000000 
#    z 0.000000 0.000000 1.673420 
# 
# From -- ./inp_files/64719.got.cif
#   From: 2010.03.12/outbox.cif.g09.slc.cpg/sg74_33_cif.got.tgz:64719.got - 2010.04.16 15:46:19.
