data_PCOD8299950
_publ_section_title
;
Structure prediction by ZEFSAII (Michael W. Deem and Ramdas Pophale) SiO2 
 PCOD8299950
Probable space group: I M M A
;
_chemical_formula_sum "Si O2"
_cell_formula_units_Z 88
_cell_length_a 18.061331
_cell_length_b 8.753838
_cell_length_c 28.868300
_cell_angle_alpha 90.000000
_cell_angle_beta 90.000000
_cell_angle_gamma 90.000000
_cell_volume 4564.250448
_symmetry_space_group_name_H-M "I M M A"
_symmetry_group_IT_number 74
_symmetry_cell_setting 'orthorhombic'
loop_
_space_group_symop_operation_xyz
x,y,z
-x,1/2-y,z
x,-y,-z
-x,1/2+y,-z
-x,-y,-z
x,1/2+y,-z
-x,y,z
x,1/2-y,z
1/2+x,1/2+y,1/2+z
1/2-x,-y,1/2+z
1/2+x,1/2-y,1/2-z
1/2-x,y,1/2-z
1/2-x,1/2-y,1/2-z
1/2+x,y,1/2-z
1/2-x,1/2+y,1/2+z
1/2+x,-y,1/2+z
loop_
_atom_site_type_symbol
_atom_site_label
_atom_site_fract_x
_atom_site_fract_y
_atom_site_fract_z
Si Si1 0.500000 0.567526 0.948576
Si Si2 0.316442 0.430141 0.280871
Si Si3 0.917145 0.570025 0.951673
Si Si4 0.914164 0.075920 0.710181
Si Si5 0.634259 0.068350 0.890207
Si Si6 0.788892 0.568275 0.883765
O O1 0.500000 0.750000 0.950793
O O2 0.426553 0.511355 0.922327
O O3 0.500000 0.500000 0.000000
O O4 0.315253 0.250000 0.282929
O O5 0.250000 0.496981 0.250000
O O6 0.391646 0.481797 0.255807
O O7 0.307617 0.494683 0.332528
O O8 0.915521 0.750000 0.956670
O O9 0.859118 0.514394 0.913487
O O10 0.000000 0.514108 0.937939
O O11 0.891722 0.500000 0.000000
O O12 0.892451 0.250000 0.719372
O O13 0.875572 0.015870 0.663209
O O14 0.000000 0.053175 0.701895
O O15 0.625727 0.250000 0.895713
O O16 0.715910 0.012058 0.904764
O O17 0.776984 0.750000 0.884773
#
# Coordination Sequence:
#
# PCOD8299950 Si02
#       6
#     8  16  16  16  16  16
#     4  12  26  44  66  90 120 156 200 254 307 356
#     4  10  20  34  54  83 115 148 193 239 282 338
#     4   9  19  37  60  83 111 148 187 235 295 352
#     4  10  21  37  56  80 113 154 197 238 286 348
#     4  11  22  39  61  86 118 157 200 242 295 356
#     4  10  21  37  58  87 121 154 195 246 298 352
#
# _framework density 19.280273000000001
#
# number of rings (size 3 to 8) (size 9 to 14) (size 15 to 20)
#    0.000    1.818    2.727    1.364    0.000    4.364 
#    0.000    3.636    0.000    2.182    0.000    0.000 
#    0.000    0.000    0.000    0.000    0.000    0.000 
#
# Total GULP energy -545636.734307 kJ/mol
# GULP energy per Si atom -12400.834871 kJ/mol
# Density = 1.923639 g / cm^3
# Si number density = 19.280273 Si / 1000 Ang^3
#
#
#
# Elastic Constant Matrix: (Units=GPa)
#
#
# Indices 1 2 3 4 5 6 
#
# 1 122.2160 41.4799 90.4754 0.0000 0.0000 0.0000
# 2 41.4799 50.0114 40.9385 0.0000 0.0000 0.0000
# 3 90.4754 40.9385 144.5417 0.0000 0.0000 0.0000
# 4 0.0000 0.0000 0.0000 28.7591 0.0000 0.0000
# 5 0.0000 0.0000 0.0000 0.0000 29.1210 0.0000
# 6 0.0000 0.0000 0.0000 0.0000 0.0000 32.4997
#
#
#
# Elastic Compliance Matrix: (Units=1/GPa)
#
#
# Indices 1 2 3 4 5 6 
#
# 1 0.016938 -0.006990 -0.008622 0.000000 0.000000 0.000000
# 2 -0.006990 0.028916 -0.003814 0.000000 0.000000 0.000000
# 3 -0.008622 -0.003814 0.013396 0.000000 0.000000 0.000000
# 4 0.000000 0.000000 0.000000 0.034772 0.000000 0.000000
# 5 0.000000 0.000000 0.000000 0.000000 0.034339 0.000000
# 6 0.000000 0.000000 0.000000 0.000000 0.000000 0.030770
#
#
# Mechanical properties :
#
#
# Convention : Reuss Voigt Hill
#
# Bulk Modulus (GPa) = 49.03028 73.61744 61.32386
# Shear Modulus (GPa) = 24.41626 27.66763 26.04195
#
# Velocity S-wave (km/s) = 3.56249 3.79228 3.67918
# Velocity P-wave (km/s) = 6.51209 7.57897 7.06570
#
# Compressibility (1/GPa) = 0.02039556
#
# Stress axis : x y z
#
# Youngs Moduli (GPa) = 59.03991 34.58352 74.65031
#
# Poissons Ratio (x) = 0.24175 0.64365
# Poissons Ratio (y) = 0.41270 0.28473
# Poissons Ratio (z) = 0.50906 0.13191
#
# Static dielectric constant tensor:
#      x y z
#    x 3.670130 0.000000 0.000000 
#    y 0.000000 3.380080 0.000000 
#    z 0.000000 0.000000 3.667930 
# 
# 
# High freq. dielectric constant tensor:
#      x y z
#    x 1.760060 0.000000 0.000000 
#    y 0.000000 1.740630 0.000000 
#    z 0.000000 0.000000 1.751360 
# 
# From -- ./inp_files/72964.got.cif
#   From: 2010.03.12/outbox.cif.g09.slc.cpg/sg74_37_cif.got.tgz:72964.got - 2010.04.16 15:46:19.
