data_PCOD8299151
_publ_section_title
;
Structure prediction by ZEFSAII (Michael W. Deem and Ramdas Pophale) SiO2 
 PCOD8299151
Probable space group: I M M A
;
_chemical_formula_sum "Si O2"
_cell_formula_units_Z 88
_cell_length_a 17.947545
_cell_length_b 16.657937
_cell_length_c 13.905331
_cell_angle_alpha 90.000000
_cell_angle_beta 90.000000
_cell_angle_gamma 90.000000
_cell_volume 4157.263932
_symmetry_space_group_name_H-M "I M M A"
_symmetry_group_IT_number 74
_symmetry_cell_setting 'orthorhombic'
loop_
_space_group_symop_operation_xyz
x,y,z
-x,1/2-y,z
x,-y,-z
-x,1/2+y,-z
-x,-y,-z
x,1/2+y,-z
-x,y,z
x,1/2-y,z
1/2+x,1/2+y,1/2+z
1/2-x,-y,1/2+z
1/2+x,1/2-y,1/2-z
1/2-x,y,1/2-z
1/2-x,1/2-y,1/2-z
1/2+x,y,1/2-z
1/2-x,1/2+y,1/2+z
1/2+x,-y,1/2+z
loop_
_atom_site_type_symbol
_atom_site_label
_atom_site_fract_x
_atom_site_fract_y
_atom_site_fract_z
Si Si1 0.200972 0.841406 0.068030
Si Si2 0.583865 0.655785 0.914133
Si Si3 0.914828 0.584410 0.202292
Si Si4 0.263955 0.500000 0.000000
Si Si5 0.324915 0.954778 0.798492
Si Si6 0.860959 0.160433 0.614036
O O1 0.196201 0.750000 0.021259
O O2 0.125110 0.856156 0.126943
O O3 0.272736 0.841494 0.139757
O O4 0.213617 0.917182 0.994403
O O5 0.500000 0.623671 0.918940
O O6 0.587888 0.750000 0.903987
O O7 0.623711 0.621095 0.820274
O O8 0.627493 0.621638 0.007839
O O9 0.866686 0.503859 0.213947
O O10 0.914654 0.621792 0.308083
O O11 0.000000 0.568666 0.169497
O O12 0.310921 0.505389 0.101506
O O13 0.250000 0.923362 0.750000
O O14 0.891608 0.250000 0.604654
#
# Coordination Sequence:
#
# PCOD8299151 Si02
#       6
#    16  16  16   8  16  16
#     4  11  23  41  65  91 127 171 217 269 322 381
#     4  10  21  37  58  90 130 167 207 266 334 390
#     4  12  23  37  59  93 128 164 210 268 334 393
#     4  12  22  42  66  92 128 160 220 272 312 382
#     4  12  22  39  64  91 123 168 216 263 322 393
#     4  10  19  34  58  88 123 165 208 257 320 391
#
# _framework density 21.167769
#
# number of rings (size 3 to 8) (size 9 to 14) (size 15 to 20)
#    0.000    0.909    5.455    2.182    0.000    4.000 
#    0.000    3.182    0.000    0.000    0.000    0.000 
#    0.000    0.000    0.000    0.000    0.000    0.000 
#
# Total GULP energy -545219.596218 kJ/mol
# GULP energy per Si atom -12391.354460 kJ/mol
# Density = 2.111959 g / cm^3
# Si number density = 21.167769 Si / 1000 Ang^3
#
#
#
# Elastic Constant Matrix: (Units=GPa)
#
#
# Indices 1 2 3 4 5 6 
#
# 1 147.6062 36.5125 28.3405 0.0000 0.0000 0.0000
# 2 36.5125 87.5181 19.0625 0.0000 0.0000 0.0000
# 3 28.3405 19.0625 31.8305 0.0000 0.0000 0.0000
# 4 0.0000 0.0000 0.0000 33.3445 0.0000 0.0000
# 5 0.0000 0.0000 0.0000 0.0000 26.9965 0.0000
# 6 0.0000 0.0000 0.0000 0.0000 0.0000 23.3891
#
#
#
# Elastic Compliance Matrix: (Units=1/GPa)
#
#
# Indices 1 2 3 4 5 6 
#
# 1 0.008521 -0.002188 -0.006277 0.000000 0.000000 0.000000
# 2 -0.002188 0.013702 -0.006258 0.000000 0.000000 0.000000
# 3 -0.006277 -0.006258 0.040752 0.000000 0.000000 0.000000
# 4 0.000000 0.000000 0.000000 0.029990 0.000000 0.000000
# 5 0.000000 0.000000 0.000000 0.000000 0.037042 0.000000
# 6 0.000000 0.000000 0.000000 0.000000 0.000000 0.042755
#
#
# Mechanical properties :
#
#
# Convention : Reuss Voigt Hill
#
# Bulk Modulus (GPa) = 29.82309 48.30953 39.06631
# Shear Modulus (GPa) = 23.43196 28.94865 26.19030
#
# Velocity S-wave (km/s) = 3.33072 3.70209 3.52130
# Velocity P-wave (km/s) = 5.37690 6.41450 5.91848
#
# Compressibility (1/GPa) = 0.03353107
#
# Stress axis : x y z
#
# Youngs Moduli (GPa) = 117.35593 72.98193 24.53840
#
# Poissons Ratio (x) = 0.15968 0.15402
# Poissons Ratio (y) = 0.25676 0.15356
# Poissons Ratio (z) = 0.73659 0.45671
#
# Static dielectric constant tensor:
#      x y z
#    x 3.731280 0.000000 0.000000 
#    y 0.000000 4.083220 0.000000 
#    z 0.000000 0.000000 3.464770 
# 
# 
# High freq. dielectric constant tensor:
#      x y z
#    x 1.821620 0.000000 0.000000 
#    y 0.000000 1.845290 0.000000 
#    z 0.000000 0.000000 1.786420 
# 
# From -- ./inp_files/34105.got.cif
#   From: 2010.03.12/outbox.cif.g09.slc.cpg/sg74_18_cif.got.tgz:34105.got - 2010.04.16 15:46:19.
