data_PCOD8299070
_publ_section_title
;
Structure prediction by ZEFSAII (Michael W. Deem and Ramdas Pophale) SiO2 
 PCOD8299070
Probable space group: I M M A
;
_chemical_formula_sum "Si O2"
_cell_formula_units_Z 80
_cell_length_a 8.719648
_cell_length_b 25.652900
_cell_length_c 19.465866
_cell_angle_alpha 90.000000
_cell_angle_beta 90.000000
_cell_angle_gamma 90.000000
_cell_volume 4354.207796
_symmetry_space_group_name_H-M "I M M A"
_symmetry_group_IT_number 74
_symmetry_cell_setting 'orthorhombic'
loop_
_space_group_symop_operation_xyz
x,y,z
-x,1/2-y,z
x,-y,-z
-x,1/2+y,-z
-x,-y,-z
x,1/2+y,-z
-x,y,z
x,1/2-y,z
1/2+x,1/2+y,1/2+z
1/2-x,-y,1/2+z
1/2+x,1/2-y,1/2-z
1/2-x,y,1/2-z
1/2-x,1/2-y,1/2-z
1/2+x,y,1/2-z
1/2-x,1/2+y,1/2+z
1/2+x,-y,1/2+z
loop_
_atom_site_type_symbol
_atom_site_label
_atom_site_fract_x
_atom_site_fract_y
_atom_site_fract_z
Si Si1 0.674465 0.250000 0.918418
Si Si2 0.319066 0.643041 0.419349
Si Si3 0.820624 0.355131 0.077471
Si Si4 0.681662 0.557098 0.176818
Si Si5 0.317550 0.446574 0.323146
Si Si6 0.171106 0.250000 0.418308
O O1 0.500000 0.250000 0.890808
O O2 0.763564 0.199109 0.891057
O O3 0.679034 0.250000 0.999997
O O4 0.500000 0.637283 0.407595
O O5 0.271617 0.636152 0.498753
O O6 0.227844 0.599020 0.379385
O O7 0.762920 0.404275 0.121224
O O8 0.750571 0.302369 0.109360
O O9 0.000000 0.348232 0.083191
O O10 0.500000 0.552898 0.183077
O O11 0.750000 0.574091 0.250000
O O12 0.749709 0.501775 0.153178
O O13 0.500000 0.450937 0.318305
O O14 0.250000 0.429582 0.250000
O O15 0.000000 0.250000 0.389823
#
# Coordination Sequence:
#
# PCOD8299070 Si02
#       6
#     8  16  16  16  16   8
#     4   9  17  31  50  77 108 137 168 208 256 305
#     4  10  19  34  55  79 105 137 173 211 253 304
#     4   9  19  34  54  77 105 138 173 210 255 308
#     4  11  22  37  55  76 103 137 172 212 258 308
#     4  10  20  36  55  76 102 137 175 214 258 308
#     4   9  17  29  50  77 106 135 169 212 257 301
#
# _framework density 18.373033
#
# number of rings (size 3 to 8) (size 9 to 14) (size 15 to 20)
#    0.000    2.200    0.000    4.800    0.000    5.600 
#    0.000    5.000    0.000    0.000    0.000    0.000 
#    0.000    0.000    0.000    0.000    0.000    0.000 
#
# Total GULP energy -496052.647402 kJ/mol
# GULP energy per Si atom -12401.316185 kJ/mol
# Density = 1.833122 g / cm^3
# Si number density = 18.373033 Si / 1000 Ang^3
#
#
#
# Elastic Constant Matrix: (Units=GPa)
#
#
# Indices 1 2 3 4 5 6 
#
# 1 90.7889 59.8149 37.2412 0.0001 0.0000 0.0000
# 2 59.8149 164.8760 77.8073 0.0003 0.0000 0.0000
# 3 37.2412 77.8073 68.5342 0.0009 0.0000 0.0000
# 4 0.0001 0.0003 0.0009 -0.2822 0.0000 0.0000
# 5 0.0000 0.0000 0.0000 0.0000 26.1046 0.0000
# 6 0.0000 0.0000 0.0000 0.0000 0.0000 35.7698
#
#
#
# Elastic Compliance Matrix: (Units=1/GPa)
#
#
# Indices 1 2 3 4 5 6 
#
# 1 0.015030 -0.003443 -0.004258 -0.000012 0.000000 0.000000
# 2 -0.003443 0.013854 -0.013857 -0.000034 0.000000 0.000000
# 3 -0.004258 -0.013857 0.032637 0.000093 0.000000 0.000000
# 4 -0.000012 -0.000034 0.000093 -3.544180 0.000000 -0.000004
# 5 0.000000 0.000000 0.000000 0.000000 0.038307 0.000000
# 6 0.000000 0.000000 0.000000 -0.000004 0.000000 0.027957
#
#
# Mechanical properties :
#
#
# Convention : Reuss Voigt Hill
#
# Bulk Modulus (GPa) = 54.33660 74.88067 64.60863
# Shear Modulus (GPa) = -1.48494 22.27417 10.39461
#
# Velocity S-wave (km/s) = -0.89998 3.48563 2.38114
# Velocity P-wave (km/s) = 5.34400 7.55273 6.54225
#
# Compressibility (1/GPa) = 0.01840380
#
# Stress axis : x y z
#
# Youngs Moduli (GPa) = 66.53516 72.18298 30.63991
#
# Poissons Ratio (x) = 0.24854 0.13047
# Poissons Ratio (y) = 0.22909 0.42458
# Poissons Ratio (z) = 0.28331 1.00025
#
# Static dielectric constant tensor:
#      x y z
#    x 3.481280 0.000000 0.000000 
#    y 0.000000 3.622370 0.000000 
#    z 0.000000 0.000000 3.235140 
# 
# 
# High freq. dielectric constant tensor:
#      x y z
#    x 1.726110 0.000000 0.000000 
#    y 0.000000 1.726790 0.000000 
#    z 0.000000 0.000000 1.684840 
# 
# From -- ./inp_files/39833.got.cif
#   From: 2010.03.12/outbox.cif.g09.slc.cpg/sg74_20_cif.got.tgz:39833.got - 2010.04.16 15:46:19.
