data_PCOD8299461
_publ_section_title
;
Structure prediction by ZEFSAII (Michael W. Deem and Ramdas Pophale) SiO2 
 PCOD8299461
Probable space group: I M M A
;
_chemical_formula_sum "Si O2"
_cell_formula_units_Z 80
_cell_length_a 18.398116
_cell_length_b 21.220227
_cell_length_c 11.734420
_cell_angle_alpha 90.000000
_cell_angle_beta 90.000000
_cell_angle_gamma 90.000000
_cell_volume 4581.260703
_symmetry_space_group_name_H-M "I M M A"
_symmetry_group_IT_number 74
_symmetry_cell_setting 'orthorhombic'
loop_
_space_group_symop_operation_xyz
x,y,z
-x,1/2-y,z
x,-y,-z
-x,1/2+y,-z
-x,-y,-z
x,1/2+y,-z
-x,y,z
x,1/2-y,z
1/2+x,1/2+y,1/2+z
1/2-x,-y,1/2+z
1/2+x,1/2-y,1/2-z
1/2-x,y,1/2-z
1/2-x,1/2-y,1/2-z
1/2+x,y,1/2-z
1/2-x,1/2+y,1/2+z
1/2+x,-y,1/2+z
loop_
_atom_site_type_symbol
_atom_site_label
_atom_site_fract_x
_atom_site_fract_y
_atom_site_fract_z
Si Si1 0.671534 0.822709 0.220571
Si Si2 0.086695 0.442803 0.078847
Si Si3 0.585612 0.820555 0.447212
Si Si4 0.915416 0.464483 0.328957
Si Si5 0.914857 0.095942 0.557760
O O1 0.683114 0.750000 0.194201
O O2 0.750000 0.853397 0.250000
O O3 0.617597 0.835671 0.324225
O O4 0.636065 0.849405 0.105539
O O5 0.120346 0.449973 0.205952
O O6 0.000000 0.446358 0.081698
O O7 0.116450 0.500000 0.000000
O O8 0.113273 0.374493 0.033642
O O9 0.500000 0.824759 0.432917
O O10 0.608801 0.750000 0.489321
O O11 0.901154 0.536460 0.360824
O O12 0.886554 0.418917 0.429641
O O13 0.000000 0.451287 0.319981
O O14 0.000000 0.115007 0.558632
#
# Coordination Sequence:
#
# PCOD8299461 Si02
#       5
#    16  16  16  16  16
#     4  10  20  32  47  66  91 125 160 196 238 282
#     4   9  15  24  43  71  97 120 151 189 232 284
#     4   9  17  29  46  68  92 118 153 196 235 274
#     4   8  15  27  47  74  97 120 149 186 239 288
#     4   9  16  29  50  71  94 122 153 194 237 281
#
# _framework density 17.462441999999999
#
# number of rings (size 3 to 8) (size 9 to 14) (size 15 to 20)
#    0.000    3.000    0.000    3.000    0.000    4.400 
#    0.000    1.000   13.200    3.600    0.000    4.200 
#    0.000    0.000    0.000    0.000    0.000    0.000 
#
# Total GULP energy -495733.448828 kJ/mol
# GULP energy per Si atom -12393.336221 kJ/mol
# Density = 1.742270 g / cm^3
# Si number density = 17.462442 Si / 1000 Ang^3
#
#
#
# Elastic Constant Matrix: (Units=GPa)
#
#
# Indices 1 2 3 4 5 6 
#
# 1 29.8441 25.3486 23.1161 0.0000 0.0000 0.0000
# 2 25.3486 89.7796 69.8244 0.0000 0.0000 0.0000
# 3 23.1161 69.8244 140.7718 0.0000 0.0000 0.0000
# 4 0.0000 0.0000 0.0000 32.7469 0.0000 0.0000
# 5 0.0000 0.0000 0.0000 0.0000 7.5732 0.0000
# 6 0.0000 0.0000 0.0000 0.0000 0.0000 12.4994
#
#
#
# Elastic Compliance Matrix: (Units=1/GPa)
#
#
# Indices 1 2 3 4 5 6 
#
# 1 0.044340 -0.011162 -0.001744 0.000000 0.000000 0.000000
# 2 -0.011162 0.020944 -0.008555 0.000000 0.000000 0.000000
# 3 -0.001744 -0.008555 0.011634 0.000000 0.000000 0.000000
# 4 0.000000 0.000000 0.000000 0.030537 0.000000 0.000000
# 5 0.000000 0.000000 0.000000 0.000000 0.132045 0.000000
# 6 0.000000 0.000000 0.000000 0.000000 0.000000 0.080004
#
#
# Mechanical properties :
#
#
# Convention : Reuss Voigt Hill
#
# Bulk Modulus (GPa) = 29.41790 55.21931 42.31860
# Shear Modulus (GPa) = 13.37763 20.03765 16.70764
#
# Velocity S-wave (km/s) = 2.77082 3.39111 3.09653
# Velocity P-wave (km/s) = 5.20764 6.85735 6.08863
#
# Compressibility (1/GPa) = 0.03399291
#
# Stress axis : x y z
#
# Youngs Moduli (GPa) = 22.55325 47.74685 85.95708
#
# Poissons Ratio (x) = 0.53296 0.14994
# Poissons Ratio (y) = 0.25175 0.73540
# Poissons Ratio (z) = 0.03934 0.40849
#
# Static dielectric constant tensor:
#      x y z
#    x 2.844160 0.000000 0.000000 
#    y 0.000000 3.306490 0.000000 
#    z 0.000000 0.000000 3.557110 
# 
# 
# High freq. dielectric constant tensor:
#      x y z
#    x 1.629510 0.000000 0.000000 
#    y 0.000000 1.670670 0.000000 
#    z 0.000000 0.000000 1.676540 
# 
# From -- ./inp_files/20469.got.cif
#   From: 2010.03.12/outbox.cif.g09.slc.cpg/sg74_11_cif.got.tgz:20469.got - 2010.04.16 15:46:19.
