data_PCOD8299423
_publ_section_title
;
Structure prediction by ZEFSAII (Michael W. Deem and Ramdas Pophale) SiO2 
 PCOD8299423
Probable space group: I M M A
;
_chemical_formula_sum "Si O2"
_cell_formula_units_Z 88
_cell_length_a 8.990354
_cell_length_b 26.619119
_cell_length_c 27.052285
_cell_angle_alpha 90.000000
_cell_angle_beta 90.000000
_cell_angle_gamma 90.000000
_cell_volume 6474.025781
_symmetry_space_group_name_H-M "I M M A"
_symmetry_group_IT_number 74
_symmetry_cell_setting 'orthorhombic'
loop_
_space_group_symop_operation_xyz
x,y,z
-x,1/2-y,z
x,-y,-z
-x,1/2+y,-z
-x,-y,-z
x,1/2+y,-z
-x,y,z
x,1/2-y,z
1/2+x,1/2+y,1/2+z
1/2-x,-y,1/2+z
1/2+x,1/2-y,1/2-z
1/2-x,y,1/2-z
1/2-x,1/2-y,1/2-z
1/2+x,y,1/2-z
1/2-x,1/2+y,1/2+z
1/2+x,-y,1/2+z
loop_
_atom_site_type_symbol
_atom_site_label
_atom_site_fract_x
_atom_site_fract_y
_atom_site_fract_z
Si Si1 0.166305 0.448433 0.530195
Si Si2 0.826028 0.250000 0.197472
Si Si3 0.175795 0.145895 0.150073
Si Si4 0.166251 0.998058 0.112495
Si Si5 0.836076 0.599827 0.948551
Si Si6 0.177422 0.051418 0.301793
O O1 0.169310 0.500000 0.500000
O O2 0.263328 0.453114 0.580036
O O3 0.228218 0.403344 0.495768
O O4 0.000000 0.434044 0.545763
O O5 0.750000 0.250000 0.250000
O O6 0.776902 0.298665 0.166576
O O7 0.000000 0.250000 0.207009
O O8 0.219059 0.140587 0.091985
O O9 0.266849 0.106653 0.182987
O O10 0.000000 0.134989 0.157306
O O11 0.157890 0.046927 0.078891
O O12 0.269911 0.009037 0.159549
O O13 0.000000 0.982527 0.129505
O O14 0.000000 0.614015 0.968173
O O15 0.250000 0.036601 0.250000
O O16 0.000000 0.051590 0.298285
#
# Coordination Sequence:
#
# PCOD8299423 Si02
#       6
#    16   8  16  16  16  16
#     4   9  15  22  34  53  73  90 109 134 166 205
#     4  10  20  32  44  56  70  90 118 154 193 232
#     4   9  18  31  43  55  70  89 116 150 189 228
#     4   9  16  26  38  52  70  91 114 139 170 207
#     4   8  14  24  37  51  68  89 110 136 173 215
#     4  11  20  29  40  53  70  92 119 150 183 217
#
# _framework density 13.592777999999999
#
# number of rings (size 3 to 8) (size 9 to 14) (size 15 to 20)
#    0.000    2.727    0.000    4.364    0.000    8.727 
#    0.000    0.000    0.000    0.000    0.000    0.000 
#    0.000    0.000    0.000    0.000    0.000    0.000 
#
# Total GULP energy -545408.802902 kJ/mol
# GULP energy per Si atom -12395.654611 kJ/mol
# Density = 1.356184 g / cm^3
# Si number density = 13.592778 Si / 1000 Ang^3
#
#
#
# Elastic Constant Matrix: (Units=GPa)
#
#
# Indices 1 2 3 4 5 6 
#
# 1 95.3402 24.9857 50.3127 0.0000 0.0000 0.0000
# 2 24.9857 39.1933 46.4116 0.0000 0.0000 0.0000
# 3 50.3127 46.4116 93.4160 0.0000 0.0000 0.0000
# 4 0.0000 0.0000 0.0000 21.8165 0.0000 0.0000
# 5 0.0000 0.0000 0.0000 0.0000 25.2643 0.0000
# 6 0.0000 0.0000 0.0000 0.0000 0.0000 11.1848
#
#
#
# Elastic Compliance Matrix: (Units=1/GPa)
#
#
# Indices 1 2 3 4 5 6 
#
# 1 0.014654 0.000010 -0.007897 0.000000 0.000000 0.000000
# 2 0.000010 0.061978 -0.030798 0.000000 0.000000 0.000000
# 3 -0.007897 -0.030798 0.030259 0.000000 0.000000 0.000000
# 4 0.000000 0.000000 0.000000 0.045837 0.000000 0.000000
# 5 0.000000 0.000000 0.000000 0.000000 0.039581 0.000000
# 6 0.000000 0.000000 0.000000 0.000000 0.000000 0.089407
#
#
# Mechanical properties :
#
#
# Convention : Reuss Voigt Hill
#
# Bulk Modulus (GPa) = 33.87412 52.37438 43.12425
# Shear Modulus (GPa) = 13.55281 18.73577 16.14429
#
# Velocity S-wave (km/s) = 3.16105 3.71666 3.45006
# Velocity P-wave (km/s) = 6.18852 7.55200 6.90400
#
# Compressibility (1/GPa) = 0.02952106
#
# Stress axis : x y z
#
# Youngs Moduli (GPa) = 68.24235 16.13472 33.04759
#
# Poissons Ratio (x) = -0.00016 0.26099
# Poissons Ratio (y) = -0.00069 1.01779
# Poissons Ratio (z) = 0.53893 0.49691
#
# Static dielectric constant tensor:
#      x y z
#    x 2.866050 0.000000 0.000000 
#    y 0.000000 2.409500 0.000000 
#    z 0.000000 0.000000 2.945790 
# 
# 
# High freq. dielectric constant tensor:
#      x y z
#    x 1.531540 0.000000 0.000000 
#    y 0.000000 1.453640 0.000000 
#    z 0.000000 0.000000 1.511930 
# 
# From -- ./inp_files/49464.got.cif
#   From: 2010.03.12/outbox.cif.g09.slc.cpg/sg74_25_cif.got.tgz:49464.got - 2010.04.16 15:46:19.
