data_PCOD8299023
_publ_section_title
;
Structure prediction by ZEFSAII (Michael W. Deem and Ramdas Pophale) SiO2 
 PCOD8299023
Probable space group: I M M A
;
_chemical_formula_sum "Si O2"
_cell_formula_units_Z 56
_cell_length_a 25.105026
_cell_length_b 21.293976
_cell_length_c 4.967697
_cell_angle_alpha 90.000000
_cell_angle_beta 90.000000
_cell_angle_gamma 90.000000
_cell_volume 2655.660380
_symmetry_space_group_name_H-M "I M M A"
_symmetry_group_IT_number 74
_symmetry_cell_setting 'orthorhombic'
loop_
_space_group_symop_operation_xyz
x,y,z
-x,1/2-y,z
x,-y,-z
-x,1/2+y,-z
-x,-y,-z
x,1/2+y,-z
-x,y,z
x,1/2-y,z
1/2+x,1/2+y,1/2+z
1/2-x,-y,1/2+z
1/2+x,1/2-y,1/2-z
1/2-x,y,1/2-z
1/2-x,1/2-y,1/2-z
1/2+x,y,1/2-z
1/2-x,1/2+y,1/2+z
1/2+x,-y,1/2+z
loop_
_atom_site_type_symbol
_atom_site_label
_atom_site_fract_x
_atom_site_fract_y
_atom_site_fract_z
Si Si1 0.302444 0.065754 0.624195
Si Si2 0.939152 0.678817 0.318070
Si Si3 0.105482 0.613415 0.811724
Si Si4 0.381105 0.000000 0.000000
O O1 0.250000 0.099512 0.750000
O O2 0.331756 0.109095 0.399810
O O3 0.282374 0.000000 0.500000
O O4 0.346110 0.052697 0.851846
O O5 0.926822 0.750000 0.228057
O O6 0.901419 0.662935 0.570840
O O7 0.000000 0.670845 0.413124
O O8 0.929759 0.633187 0.066140
O O9 0.085818 0.543227 0.711658
#
# Coordination Sequence:
#
# PCOD8299023 Si02
#       4
#    16  16  16   8
#     4  10  19  33  62  92 129 165 200 241 297 377
#     4  11  24  44  67  87 113 163 224 268 305 361
#     4  11  22  39  63  95 128 156 204 261 314 366
#     4  10  20  38  59  96 132 160 193 246 314 378
#
# _framework density 21.087032000000001
#
# number of rings (size 3 to 8) (size 9 to 14) (size 15 to 20)
#    0.000    1.429    4.286    1.714    0.000    2.286 
#    0.000    4.286    0.000    5.143    0.000    0.000 
#    0.000    0.000    0.000    0.000    0.000    0.000 
#
# Total GULP energy -346980.840958 kJ/mol
# GULP energy per Si atom -12392.172891 kJ/mol
# Density = 2.103904 g / cm^3
# Si number density = 21.087032 Si / 1000 Ang^3
#
#
#
# Elastic Constant Matrix: (Units=GPa)
#
#
# Indices 1 2 3 4 5 6 
#
# 1 85.5661 68.2336 51.0205 0.0000 0.0000 0.0000
# 2 68.2336 91.1105 55.9416 0.0000 0.0000 0.0000
# 3 51.0205 55.9416 143.1932 0.0000 0.0000 0.0000
# 4 0.0000 0.0000 0.0000 40.8035 0.0000 0.0000
# 5 0.0000 0.0000 0.0000 0.0000 30.7252 0.0000
# 6 0.0000 0.0000 0.0000 0.0000 0.0000 9.2808
#
#
#
# Elastic Compliance Matrix: (Units=1/GPa)
#
#
# Indices 1 2 3 4 5 6 
#
# 1 0.029673 -0.020695 -0.002488 0.000000 0.000000 0.000000
# 2 -0.020695 0.028873 -0.003906 0.000000 0.000000 0.000000
# 3 -0.002488 -0.003906 0.009396 0.000000 0.000000 0.000000
# 4 0.000000 0.000000 0.000000 0.024508 0.000000 0.000000
# 5 0.000000 0.000000 0.000000 0.000000 0.032547 0.000000
# 6 0.000000 0.000000 0.000000 0.000000 0.000000 0.107750
#
#
# Mechanical properties :
#
#
# Convention : Reuss Voigt Hill
#
# Bulk Modulus (GPa) = 72.65215 74.47348 73.56282
# Shear Modulus (GPa) = 17.15194 25.80683 21.47939
#
# Velocity S-wave (km/s) = 2.85509 3.50212 3.19502
# Velocity P-wave (km/s) = 6.73773 7.19354 6.96936
#
# Compressibility (1/GPa) = 0.01376422
#
# Stress axis : x y z
#
# Youngs Moduli (GPa) = 33.70024 34.63464 106.42909
#
# Poissons Ratio (x) = 0.71677 0.26477
# Poissons Ratio (y) = 0.69743 0.41571
# Poissons Ratio (z) = 0.08384 0.13528
#
# Static dielectric constant tensor:
#      x y z
#    x 3.594670 0.000000 0.000000 
#    y 0.000000 3.694810 0.000000 
#    z 0.000000 0.000000 4.250550 
# 
# 
# High freq. dielectric constant tensor:
#      x y z
#    x 1.794320 0.000000 0.000000 
#    y 0.000000 1.790300 0.000000 
#    z 0.000000 0.000000 1.857740 
# 
# From -- ./inp_files/3618.got.cif
#   From: 2010.03.12/outbox.cif.g09.slc.cpg/sg74_2_cif.got.tgz:3618.got - 2010.04.16 15:46:19.
