data_PCOD8299761
_publ_section_title
;
Structure prediction by ZEFSAII (Michael W. Deem and Ramdas Pophale) SiO2 
 PCOD8299761
Probable space group: I M M A
;
_chemical_formula_sum "Si O2"
_cell_formula_units_Z 104
_cell_length_a 8.979679
_cell_length_b 31.522797
_cell_length_c 20.654270
_cell_angle_alpha 90.000000
_cell_angle_beta 90.000000
_cell_angle_gamma 90.000000
_cell_volume 5846.492640
_symmetry_space_group_name_H-M "I M M A"
_symmetry_group_IT_number 74
_symmetry_cell_setting 'orthorhombic'
loop_
_space_group_symop_operation_xyz
x,y,z
-x,1/2-y,z
x,-y,-z
-x,1/2+y,-z
-x,-y,-z
x,1/2+y,-z
-x,y,z
x,1/2-y,z
1/2+x,1/2+y,1/2+z
1/2-x,-y,1/2+z
1/2+x,1/2-y,1/2-z
1/2-x,y,1/2-z
1/2-x,1/2-y,1/2-z
1/2+x,y,1/2-z
1/2-x,1/2+y,1/2+z
1/2+x,-y,1/2+z
loop_
_atom_site_type_symbol
_atom_site_label
_atom_site_fract_x
_atom_site_fract_y
_atom_site_fract_z
Si Si1 0.326867 0.750000 0.317212
Si Si2 0.174751 0.961882 0.183240
Si Si3 0.830723 0.796230 0.967945
Si Si4 0.670909 0.591009 0.072226
Si Si5 0.168021 0.686889 0.403672
Si Si6 0.673181 0.560551 0.685127
Si Si7 0.826560 0.111047 0.061628
O O1 0.500000 0.750000 0.307152
O O2 0.250000 0.750000 0.250000
O O3 0.279466 0.707325 0.353080
O O4 0.250000 0.945332 0.250000
O O5 0.241763 0.940365 0.119492
O O6 0.000000 0.952075 0.187469
O O7 0.209140 0.011368 0.174215
O O8 0.809575 0.750000 0.931964
O O9 0.799909 0.838337 0.925035
O O10 0.000000 0.799072 0.994899
O O11 0.714509 0.797423 0.025830
O O12 0.500000 0.576050 0.065389
O O13 0.681349 0.636820 0.104903
O O14 0.742547 0.592853 0.001027
O O15 0.000000 0.702444 0.391220
O O16 0.500000 0.569213 0.693218
O O17 0.750000 0.577758 0.750000
O O18 0.736920 0.586664 0.624084
O O19 0.000000 0.101008 0.051066
#
# Coordination Sequence:
#
# PCOD8299761 Si02
#       7
#     8  16  16  16  16  16  16
#     4  12  24  36  50  68  92 126 169 210 251 298
#     4  10  20  35  54  74  99 135 177 217 261 311
#     4   9  16  28  50  76  99 128 165 204 247 298
#     4  10  21  35  52  77 106 135 170 212 260 309
#     4  10  20  34  50  69  96 128 161 203 252 298
#     4   9  19  35  55  77 102 136 174 213 259 313
#     4   9  18  33  52  77 107 136 171 214 261 309
#
# _framework density 17.788443999999998
#
# number of rings (size 3 to 8) (size 9 to 14) (size 15 to 20)
#    0.000    2.308    0.769    2.077    0.000    4.308 
#    0.000    3.077    0.000    0.462    0.000    0.000 
#    0.000    0.000    0.000    0.000    0.000    0.000 
#
# Total GULP energy -644566.920252 kJ/mol
# GULP energy per Si atom -12395.517697 kJ/mol
# Density = 1.774796 g / cm^3
# Si number density = 17.788444 Si / 1000 Ang^3
#
#
#
# Elastic Constant Matrix: (Units=GPa)
#
#
# Indices 1 2 3 4 5 6 
#
# 1 101.4538 43.9754 55.6052 0.0006 0.0000 0.0000
# 2 43.9754 91.3425 68.7199 0.0000 0.0000 0.0000
# 3 55.6052 68.7199 125.9774 -0.0049 0.0001 0.0001
# 4 0.0006 0.0000 -0.0049 -98.7776 -0.0002 -0.0004
# 5 0.0000 0.0000 0.0001 -0.0002 28.7157 0.0000
# 6 0.0000 0.0000 0.0001 -0.0004 0.0000 21.5040
#
#
#
# Elastic Compliance Matrix: (Units=1/GPa)
#
#
# Indices 1 2 3 4 5 6 
#
# 1 0.013614 -0.003449 -0.004128 0.000000 0.000000 0.000000
# 2 -0.003449 0.019442 -0.009083 0.000000 0.000000 0.000000
# 3 -0.004128 -0.009083 0.014715 -0.000001 0.000000 0.000000
# 4 0.000000 0.000000 -0.000001 -0.010124 0.000000 0.000000
# 5 0.000000 0.000000 0.000000 0.000000 0.034824 0.000000
# 6 0.000000 0.000000 0.000000 0.000000 0.000000 0.046503
#
#
# Mechanical properties :
#
#
# Convention : Reuss Voigt Hill
#
# Bulk Modulus (GPa) = 69.19915 72.81942 71.00928
# Shear Modulus (GPa) = 31.82490 0.31997 16.07243
#
# Velocity S-wave (km/s) = 4.23434 0.42458 3.00914
# Velocity P-wave (km/s) = 7.93043 6.42383 7.21656
#
# Compressibility (1/GPa) = 0.01445104
#
# Stress axis : x y z
#
# Youngs Moduli (GPa) = 73.45403 51.43599 67.95951
#
# Poissons Ratio (x) = 0.17739 0.28052
# Poissons Ratio (y) = 0.25333 0.61728
# Poissons Ratio (z) = 0.30320 0.46720
#
# Static dielectric constant tensor:
#      x y z
#    x 3.364000 0.000000 0.000000 
#    y 0.000000 3.468270 0.000000 
#    z 0.000000 0.000000 3.133340 
# 
# 
# High freq. dielectric constant tensor:
#      x y z
#    x 1.697060 0.000000 0.000000 
#    y 0.000000 1.694090 0.000000 
#    z 0.000000 0.000000 1.664060 
# 
# From -- ./inp_files/49612.got.cif
#   From: 2010.03.12/outbox.cif.g09.slc.cpg/sg74_25_cif.got.tgz:49612.got - 2010.04.16 15:46:19.
