data_PCOD8299851
_publ_section_title
;
Structure prediction by ZEFSAII (Michael W. Deem and Ramdas Pophale) SiO2 
 PCOD8299851
Probable space group: I M M A
;
_chemical_formula_sum "Si O2"
_cell_formula_units_Z 88
_cell_length_a 8.887971
_cell_length_b 18.103198
_cell_length_c 29.973438
_cell_angle_alpha 90.000000
_cell_angle_beta 90.000000
_cell_angle_gamma 90.000000
_cell_volume 4822.747121
_symmetry_space_group_name_H-M "I M M A"
_symmetry_group_IT_number 74
_symmetry_cell_setting 'orthorhombic'
loop_
_space_group_symop_operation_xyz
x,y,z
-x,1/2-y,z
x,-y,-z
-x,1/2+y,-z
-x,-y,-z
x,1/2+y,-z
-x,y,z
x,1/2-y,z
1/2+x,1/2+y,1/2+z
1/2-x,-y,1/2+z
1/2+x,1/2-y,1/2-z
1/2-x,y,1/2-z
1/2-x,1/2-y,1/2-z
1/2+x,y,1/2-z
1/2-x,1/2+y,1/2+z
1/2+x,-y,1/2+z
loop_
_atom_site_type_symbol
_atom_site_label
_atom_site_fract_x
_atom_site_fract_y
_atom_site_fract_z
Si Si1 0.822524 0.589678 0.798208
Si Si2 0.170967 0.952436 0.544397
Si Si3 0.676844 0.166301 0.898351
Si Si4 0.829877 0.165150 0.992486
Si Si5 0.675089 0.750000 0.702844
Si Si6 0.321459 0.025480 0.628563
O O1 0.750000 0.577677 0.750000
O O2 0.780252 0.671074 0.819858
O O3 0.762311 0.526517 0.831421
O O4 0.000000 0.582477 0.792189
O O5 0.253544 0.875366 0.534319
O O6 0.000000 0.938147 0.559768
O O7 0.177977 0.000000 0.500000
O O8 0.260788 0.994375 0.582382
O O9 0.500000 0.151734 0.898210
O O10 0.715786 0.250000 0.883121
O O11 0.734757 0.151091 0.948025
O O12 0.756577 0.108589 0.864707
O O13 0.830303 0.250000 0.006115
O O14 0.000000 0.136438 0.984481
O O15 0.500000 0.750000 0.711359
O O16 0.750000 0.750000 0.750000
O O17 0.500000 0.028444 0.627310
#
# Coordination Sequence:
#
# PCOD8299851 Si02
#       6
#    16  16  16  16   8  16
#     4   9  19  35  57  83 108 138 174 216 262 314
#     4  11  22  35  52  75 106 144 181 219 265 311
#     4  10  20  34  53  77 104 137 178 221 266 319
#     4  10  20  34  53  75 100 136 179 222 267 313
#     4   8  14  30  54  78 106 136 170 208 252 302
#     4  11  22  35  54  81 109 139 180 221 267 319
#
# _framework density 18.246862
#
# number of rings (size 3 to 8) (size 9 to 14) (size 15 to 20)
#    0.000    2.000    1.818    2.182    0.000    4.364 
#    1.636    0.000    0.000    0.545    0.000    0.000 
#    0.000    0.000    0.000    0.000    0.000    0.000 
#
# Total GULP energy -545376.676889 kJ/mol
# GULP energy per Si atom -12394.924475 kJ/mol
# Density = 1.820533 g / cm^3
# Si number density = 18.246862 Si / 1000 Ang^3
#
#
#
# Elastic Constant Matrix: (Units=GPa)
#
#
# Indices 1 2 3 4 5 6 
#
# 1 82.6512 58.0986 31.5639 0.0000 0.0000 0.0000
# 2 58.0986 154.5514 59.7025 0.0000 0.0000 0.0000
# 3 31.5639 59.7025 61.5239 0.0000 0.0000 0.0000
# 4 0.0000 0.0000 0.0000 30.1769 0.0000 0.0000
# 5 0.0000 0.0000 0.0000 0.0000 22.6178 0.0000
# 6 0.0000 0.0000 0.0000 0.0000 0.0000 24.4765
#
#
#
# Elastic Compliance Matrix: (Units=1/GPa)
#
#
# Indices 1 2 3 4 5 6 
#
# 1 0.017051 -0.004848 -0.004043 0.000000 0.000000 0.000000
# 2 -0.004848 0.011728 -0.008894 0.000000 0.000000 0.000000
# 3 -0.004043 -0.008894 0.026959 0.000000 0.000000 0.000000
# 4 0.000000 0.000000 0.000000 0.033138 0.000000 0.000000
# 5 0.000000 0.000000 0.000000 0.000000 0.044213 0.000000
# 6 0.000000 0.000000 0.000000 0.000000 0.000000 0.040855
#
#
# Mechanical properties :
#
#
# Convention : Reuss Voigt Hill
#
# Bulk Modulus (GPa) = 49.58421 66.38405 57.98413
# Shear Modulus (GPa) = 23.12266 25.41169 24.26718
#
# Velocity S-wave (km/s) = 3.56366 3.73589 3.65079
# Velocity P-wave (km/s) = 6.64575 7.42086 7.04397
#
# Compressibility (1/GPa) = 0.02016771
#
# Stress axis : x y z
#
# Youngs Moduli (GPa) = 58.64807 85.26250 37.09319
#
# Poissons Ratio (x) = 0.41333 0.14998
# Poissons Ratio (y) = 0.28431 0.32991
# Poissons Ratio (z) = 0.23714 0.75834
#
# Static dielectric constant tensor:
#      x y z
#    x 3.649760 0.000000 0.000000 
#    y 0.000000 4.031090 0.000000 
#    z 0.000000 0.000000 3.064890 
# 
# 
# High freq. dielectric constant tensor:
#      x y z
#    x 1.719420 0.000000 0.000000 
#    y 0.000000 1.728680 0.000000 
#    z 0.000000 0.000000 1.659740 
# 
# From -- ./inp_files/57021.got.cif
#   From: 2010.03.12/outbox.cif.g09.slc.cpg/sg74_29_cif.got.tgz:57021.got - 2010.04.16 15:46:19.
