data_PCOD8299449
_publ_section_title
;
Structure prediction by ZEFSAII (Michael W. Deem and Ramdas Pophale) SiO2 
 PCOD8299449
Probable space group: I M M A
;
_chemical_formula_sum "Si O2"
_cell_formula_units_Z 104
_cell_length_a 20.251673
_cell_length_b 9.297374
_cell_length_c 32.016199
_cell_angle_alpha 90.000000
_cell_angle_beta 90.000000
_cell_angle_gamma 90.000000
_cell_volume 6028.246163
_symmetry_space_group_name_H-M "I M M A"
_symmetry_group_IT_number 74
_symmetry_cell_setting 'orthorhombic'
loop_
_space_group_symop_operation_xyz
x,y,z
-x,1/2-y,z
x,-y,-z
-x,1/2+y,-z
-x,-y,-z
x,1/2+y,-z
-x,y,z
x,1/2-y,z
1/2+x,1/2+y,1/2+z
1/2-x,-y,1/2+z
1/2+x,1/2-y,1/2-z
1/2-x,y,1/2-z
1/2-x,1/2-y,1/2-z
1/2+x,y,1/2-z
1/2-x,1/2+y,1/2+z
1/2+x,-y,1/2+z
loop_
_atom_site_type_symbol
_atom_site_label
_atom_site_fract_x
_atom_site_fract_y
_atom_site_fract_z
Si Si1 0.766875 0.912790 0.959282
Si Si2 0.500000 0.414810 0.041481
Si Si3 0.924974 0.419162 0.729200
Si Si4 0.634587 0.586671 0.917084
Si Si5 0.196151 0.418684 0.132661
Si Si6 0.425731 0.915683 0.687289
Si Si7 0.681106 0.420234 0.839730
O O1 0.789786 0.750000 0.967082
O O2 0.687615 0.924509 0.954583
O O3 0.799110 0.970819 0.915722
O O4 0.790821 0.000000 0.000000
O O5 0.500000 0.250000 0.028983
O O6 0.563334 0.458140 0.067598
O O7 0.500000 0.500000 0.000000
O O8 0.920980 0.250000 0.735727
O O9 0.905943 0.491731 0.772733
O O10 0.869982 0.470615 0.696125
O O11 0.000000 0.463399 0.715304
O O12 0.636011 0.750000 0.898845
O O13 0.649258 0.467650 0.882904
O O14 0.213971 0.250000 0.134617
O O15 0.122851 0.452772 0.149022
O O16 0.247796 0.501088 0.163123
O O17 0.500000 0.951672 0.672193
O O18 0.418918 0.750000 0.700432
O O19 0.692258 0.250000 0.838667
#
# Coordination Sequence:
#
# PCOD8299449 Si02
#       7
#    16   8  16  16  16  16  16
#     4   9  17  30  48  68  93 124 156 193 238 285
#     4  10  20  32  46  66  92 126 168 212 258 304
#     4   9  19  34  49  69 101 135 165 204 249 286
#     4   9  19  33  46  65  95 128 163 207 254 290
#     4   9  19  35  52  73 103 129 155 202 252 289
#     4   9  18  34  56  78  96 124 166 200 236 295
#     4  10  20  32  49  72  97 130 171 206 242 293
#
# _framework density 17.252116999999998
#
# number of rings (size 3 to 8) (size 9 to 14) (size 15 to 20)
#    0.000    2.769    0.000    1.846    1.077    5.538 
#    0.000    3.077    0.000    0.462    0.000    0.000 
#    0.000    0.000    0.000    0.000    0.000    0.308 
#
# Total GULP energy -644545.990123 kJ/mol
# GULP energy per Si atom -12395.115195 kJ/mol
# Density = 1.721285 g / cm^3
# Si number density = 17.252117 Si / 1000 Ang^3
#
#
#
# Elastic Constant Matrix: (Units=GPa)
#
#
# Indices 1 2 3 4 5 6 
#
# 1 109.2410 32.7182 62.8074 0.0000 0.0000 0.0000
# 2 32.7182 38.5013 35.3749 0.0000 0.0000 0.0000
# 3 62.8074 35.3749 95.7370 0.0000 0.0000 0.0000
# 4 0.0000 0.0000 0.0000 31.8070 0.0000 0.0000
# 5 0.0000 0.0000 0.0000 0.0000 -34.5227 0.0000
# 6 0.0000 0.0000 0.0000 0.0000 0.0000 21.6388
#
#
#
# Elastic Compliance Matrix: (Units=1/GPa)
#
#
# Indices 1 2 3 4 5 6 
#
# 1 0.015509 -0.005800 -0.008031 0.000000 0.000000 0.000000
# 2 -0.005800 0.041493 -0.011526 0.000000 0.000000 0.000000
# 3 -0.008031 -0.011526 0.019973 0.000000 0.000000 0.000000
# 4 0.000000 0.000000 0.000000 0.031440 0.000000 0.000000
# 5 0.000000 0.000000 0.000000 0.000000 -0.028966 0.000000
# 6 0.000000 0.000000 0.000000 0.000000 0.000000 0.046213
#
#
# Mechanical properties :
#
#
# Convention : Reuss Voigt Hill
#
# Bulk Modulus (GPa) = 38.08243 56.14228 47.11235
# Shear Modulus (GPa) = 27.00815 11.28986 19.14901
#
# Velocity S-wave (km/s) = 3.96093 2.56091 3.33521
# Velocity P-wave (km/s) = 6.56053 6.43096 6.49607
#
# Compressibility (1/GPa) = 0.02625883
#
# Stress axis : x y z
#
# Youngs Moduli (GPa) = 64.47978 24.10073 50.06741
#
# Poissons Ratio (x) = 0.13979 0.40210
# Poissons Ratio (y) = 0.37400 0.57710
# Poissons Ratio (z) = 0.51785 0.27779
#
# Static dielectric constant tensor:
#      x y z
#    x 3.407850 0.000000 0.000000 
#    y 0.000000 3.180140 0.000000 
#    z 0.000000 0.000000 3.066560 
# 
# 
# High freq. dielectric constant tensor:
#      x y z
#    x 1.662630 0.000000 0.000000 
#    y 0.000000 1.663290 0.000000 
#    z 0.000000 0.000000 1.653470 
# 
# From -- ./inp_files/73433.got.cif
#   From: 2010.03.12/outbox.cif.g09.slc.cpg/sg74_37_cif.got.tgz:73433.got - 2010.04.16 15:46:19.
