data_PCOD8299329
_publ_section_title
;
Structure prediction by ZEFSAII (Michael W. Deem and Ramdas Pophale) SiO2 
 PCOD8299329
Probable space group: I M M A
;
_chemical_formula_sum "Si O2"
_cell_formula_units_Z 80
_cell_length_a 19.981471
_cell_length_b 16.108999
_cell_length_c 11.153115
_cell_angle_alpha 90.000000
_cell_angle_beta 90.000000
_cell_angle_gamma 90.000000
_cell_volume 3589.981345
_symmetry_space_group_name_H-M "I M M A"
_symmetry_group_IT_number 74
_symmetry_cell_setting 'orthorhombic'
loop_
_space_group_symop_operation_xyz
x,y,z
-x,1/2-y,z
x,-y,-z
-x,1/2+y,-z
-x,-y,-z
x,1/2+y,-z
-x,y,z
x,1/2-y,z
1/2+x,1/2+y,1/2+z
1/2-x,-y,1/2+z
1/2+x,1/2-y,1/2-z
1/2-x,y,1/2-z
1/2-x,1/2-y,1/2-z
1/2+x,y,1/2-z
1/2-x,1/2+y,1/2+z
1/2+x,-y,1/2+z
loop_
_atom_site_type_symbol
_atom_site_label
_atom_site_fract_x
_atom_site_fract_y
_atom_site_fract_z
Si Si1 0.146990 0.575440 0.743944
Si Si2 0.423235 0.839364 0.941463
Si Si3 0.261131 0.407518 0.449971
Si Si4 0.221182 0.250000 0.886705
Si Si5 0.575752 0.918421 0.175500
Si Si6 0.573650 0.250000 0.681213
O O1 0.083446 0.626647 0.694618
O O2 0.202252 0.599487 0.645401
O O3 0.169043 0.603371 0.876119
O O4 0.127318 0.478203 0.744897
O O5 0.500000 0.826909 0.972952
O O6 0.386815 0.750000 0.953863
O O7 0.395968 0.905884 0.039554
O O8 0.261243 0.500000 0.500000
O O9 0.253686 0.334621 0.548435
O O10 0.250000 0.250000 0.750000
O O11 0.140106 0.250000 0.900115
O O12 0.500000 0.955244 0.176368
O O13 0.577625 0.829663 0.235894
O O14 0.500000 0.250000 0.613766
#
# Coordination Sequence:
#
# PCOD8299329 Si02
#       6
#    16  16  16   8  16   8
#     4  11  24  39  67  90 140 168 216 282 344 401
#     4  10  20  34  58  95 132 169 219 275 334 397
#     4  11  27  46  65 101 133 177 235 281 340 419
#     4  12  30  47  78  97 136 191 239 284 356 427
#     4  10  19  37  65 101 136 177 225 286 349 408
#     4  10  22  42  70 101 133 172 235 291 338 407
#
# _framework density 22.284237000000001
#
# number of rings (size 3 to 8) (size 9 to 14) (size 15 to 20)
#    0.000    1.400    1.000    3.600   11.200    2.400 
#    0.000    2.000    0.000    5.400    0.000    0.000 
#    0.000    0.000    0.000    0.000    0.000    0.000 
#
# Total GULP energy -495598.723360 kJ/mol
# GULP energy per Si atom -12389.968084 kJ/mol
# Density = 2.223352 g / cm^3
# Si number density = 22.284237 Si / 1000 Ang^3
#
#
#
# Elastic Constant Matrix: (Units=GPa)
#
#
# Indices 1 2 3 4 5 6 
#
# 1 53.4258 32.8142 12.1664 0.0000 0.0000 0.0000
# 2 32.8142 146.2528 55.4612 0.0000 0.0000 0.0000
# 3 12.1664 55.4612 92.4421 0.0000 0.0000 0.0000
# 4 0.0000 0.0000 0.0000 3.4969 0.0000 0.0000
# 5 0.0000 0.0000 0.0000 0.0000 41.1364 0.0000
# 6 0.0000 0.0000 0.0000 0.0000 0.0000 32.2892
#
#
#
# Elastic Compliance Matrix: (Units=1/GPa)
#
#
# Indices 1 2 3 4 5 6 
#
# 1 0.021710 -0.004903 0.000084 0.000000 0.000000 0.000000
# 2 -0.004903 0.009959 -0.005329 0.000000 0.000000 0.000000
# 3 0.000084 -0.005329 0.014004 0.000000 0.000000 0.000000
# 4 0.000000 0.000000 0.000000 0.285964 0.000000 0.000000
# 5 0.000000 0.000000 0.000000 0.000000 0.024309 0.000000
# 6 0.000000 0.000000 0.000000 0.000000 0.000000 0.030970
#
#
# Mechanical properties :
#
#
# Convention : Reuss Voigt Hill
#
# Bulk Modulus (GPa) = 39.40713 54.77825 47.09269
# Shear Modulus (GPa) = 12.02875 28.16311 20.09593
#
# Velocity S-wave (km/s) = 2.32585 3.55887 3.00626
# Velocity P-wave (km/s) = 4.99350 6.44379 5.76444
#
# Compressibility (1/GPa) = 0.02537612
#
# Stress axis : x y z
#
# Youngs Moduli (GPa) = 46.06231 100.41670 71.40872
#
# Poissons Ratio (x) = 0.49233 -0.00602
# Poissons Ratio (y) = 0.22584 0.38056
# Poissons Ratio (z) = -0.00388 0.53516
#
# Static dielectric constant tensor:
#      x y z
#    x 4.524440 0.000000 0.000000 
#    y 0.000000 4.297170 0.000000 
#    z 0.000000 0.000000 4.018780 
# 
# 
# High freq. dielectric constant tensor:
#      x y z
#    x 1.883910 0.000000 0.000000 
#    y 0.000000 1.893180 0.000000 
#    z 0.000000 0.000000 1.848360 
# 
# From -- ./inp_files/23603.got.cif
#   From: 2010.03.12/outbox.cif.g09.slc.cpg/sg74_12_cif.got.tgz:23603.got - 2010.04.16 15:46:19.
