data_PCOD8299828
_publ_section_title
;
Structure prediction by ZEFSAII (Michael W. Deem and Ramdas Pophale) SiO2 
 PCOD8299828
Probable space group: I M M A
;
_chemical_formula_sum "Si O2"
_cell_formula_units_Z 104
_cell_length_a 20.903774
_cell_length_b 9.332733
_cell_length_c 26.741348
_cell_angle_alpha 90.000000
_cell_angle_beta 90.000000
_cell_angle_gamma 90.000000
_cell_volume 5216.951970
_symmetry_space_group_name_H-M "I M M A"
_symmetry_group_IT_number 74
_symmetry_cell_setting 'orthorhombic'
loop_
_space_group_symop_operation_xyz
x,y,z
-x,1/2-y,z
x,-y,-z
-x,1/2+y,-z
-x,-y,-z
x,1/2+y,-z
-x,y,z
x,1/2-y,z
1/2+x,1/2+y,1/2+z
1/2-x,-y,1/2+z
1/2+x,1/2-y,1/2-z
1/2-x,y,1/2-z
1/2-x,1/2-y,1/2-z
1/2+x,y,1/2-z
1/2-x,1/2+y,1/2+z
1/2+x,-y,1/2+z
loop_
_atom_site_type_symbol
_atom_site_label
_atom_site_fract_x
_atom_site_fract_y
_atom_site_fract_z
Si Si1 0.574147 0.918604 0.272565
Si Si2 0.119332 0.415883 0.883008
Si Si3 0.835243 0.409859 0.390746
Si Si4 0.210419 0.913941 0.949319
Si Si5 0.000000 0.412963 0.950412
Si Si6 0.074601 0.912420 0.450961
Si Si7 0.313389 0.583279 0.778564
O O1 0.500000 0.966938 0.265111
O O2 0.580077 0.750000 0.262606
O O3 0.597659 0.958621 0.327799
O O4 0.621400 0.001294 0.235413
O O5 0.140070 0.250000 0.885848
O O6 0.176629 0.515646 0.901347
O O7 0.061280 0.452714 0.918800
O O8 0.864728 0.250000 0.389154
O O9 0.784845 0.420722 0.435916
O O10 0.891404 0.521831 0.402286
O O11 0.802568 0.444110 0.337476
O O12 0.187380 0.750000 0.956649
O O13 0.195606 0.000000 0.000000
O O14 0.000000 0.250000 0.966600
O O15 0.000000 0.500000 0.000000
O O16 0.097549 0.750000 0.458916
O O17 0.000000 0.921361 0.440042
O O18 0.094077 0.000000 0.500000
O O19 0.322687 0.750000 0.765414
O O20 0.250000 0.523722 0.750000
#
# Coordination Sequence:
#
# PCOD8299828 Si02
#       7
#    16  16  16  16   8  16  16
#     4  10  21  39  62  88 119 155 196 246 299 351
#     4  10  20  37  58  80 112 152 191 234 285 336
#     4  10  22  39  59  83 114 151 190 237 290 343
#     4  11  23  38  57  84 116 151 192 237 286 342
#     4  10  20  34  52  76 108 144 184 228 275 326
#     4  10  21  37  59  87 118 151 188 231 281 342
#     4  10  22  41  62  86 118 154 196 249 301 351
#
# _framework density 19.935013000000001
#
# number of rings (size 3 to 8) (size 9 to 14) (size 15 to 20)
#    0.000    1.846    0.769    2.769    0.000    8.923 
#    0.000    3.077    0.000    0.000    0.000    0.000 
#    0.000    0.000    0.000    0.000    0.000    0.000 
#
# Total GULP energy -644875.075036 kJ/mol
# GULP energy per Si atom -12401.443751 kJ/mol
# Density = 1.988964 g / cm^3
# Si number density = 19.935013 Si / 1000 Ang^3
#
#
#
# Elastic Constant Matrix: (Units=GPa)
#
#
# Indices 1 2 3 4 5 6 
#
# 1 90.9484 51.3194 35.4298 0.0000 0.0000 0.0000
# 2 51.3194 96.1382 43.4086 0.0000 0.0000 0.0000
# 3 35.4298 43.4086 77.5274 0.0000 0.0000 0.0000
# 4 0.0000 0.0000 0.0000 33.7944 0.0000 0.0000
# 5 0.0000 0.0000 0.0000 0.0000 44.6526 0.0000
# 6 0.0000 0.0000 0.0000 0.0000 0.0000 10.0686
#
#
#
# Elastic Compliance Matrix: (Units=1/GPa)
#
#
# Indices 1 2 3 4 5 6 
#
# 1 0.016404 -0.007189 -0.003471 0.000000 0.000000 0.000000
# 2 -0.007189 0.017072 -0.006273 0.000000 0.000000 0.000000
# 3 -0.003471 -0.006273 0.017998 0.000000 0.000000 0.000000
# 4 0.000000 0.000000 0.000000 0.029591 0.000000 0.000000
# 5 0.000000 0.000000 0.000000 0.000000 0.022395 0.000000
# 6 0.000000 0.000000 0.000000 0.000000 0.000000 0.099319
#
#
# Mechanical properties :
#
#
# Convention : Reuss Voigt Hill
#
# Bulk Modulus (GPa) = 56.79922 58.32550 57.56236
# Shear Modulus (GPa) = 20.61726 26.66684 23.64205
#
# Velocity S-wave (km/s) = 3.21942 3.66141 3.44751
# Velocity P-wave (km/s) = 6.50950 6.86993 6.69214
#
# Compressibility (1/GPa) = 0.01760587
#
# Stress axis : x y z
#
# Youngs Moduli (GPa) = 60.95974 58.57542 55.56312
#
# Poissons Ratio (x) = 0.42112 0.19287
# Poissons Ratio (y) = 0.43826 0.34857
# Poissons Ratio (z) = 0.21161 0.36746
#
# Static dielectric constant tensor:
#      x y z
#    x 3.621440 0.000000 0.000000 
#    y 0.000000 3.090740 0.000000 
#    z 0.000000 0.000000 3.596750 
# 
# 
# High freq. dielectric constant tensor:
#      x y z
#    x 1.780850 0.000000 0.000000 
#    y 0.000000 1.775360 0.000000 
#    z 0.000000 0.000000 1.781750 
# 
# From -- ./inp_files/64419.got.cif
#   From: 2010.03.12/outbox.cif.g09.slc.cpg/sg74_33_cif.got.tgz:64419.got - 2010.04.16 15:46:19.
