data_PCOD8299061
_publ_section_title
;
Structure prediction by ZEFSAII (Michael W. Deem and Ramdas Pophale) SiO2 
 PCOD8299061
Probable space group: I M M A
;
_chemical_formula_sum "Si O2"
_cell_formula_units_Z 120
_cell_length_a 27.188942
_cell_length_b 9.313655
_cell_length_c 25.615908
_cell_angle_alpha 90.000000
_cell_angle_beta 90.000000
_cell_angle_gamma 90.000000
_cell_volume 6486.676053
_symmetry_space_group_name_H-M "I M M A"
_symmetry_group_IT_number 74
_symmetry_cell_setting 'orthorhombic'
loop_
_space_group_symop_operation_xyz
x,y,z
-x,1/2-y,z
x,-y,-z
-x,1/2+y,-z
-x,-y,-z
x,1/2+y,-z
-x,y,z
x,1/2-y,z
1/2+x,1/2+y,1/2+z
1/2-x,-y,1/2+z
1/2+x,1/2-y,1/2-z
1/2-x,y,1/2-z
1/2-x,1/2-y,1/2-z
1/2+x,y,1/2-z
1/2-x,1/2+y,1/2+z
1/2+x,-y,1/2+z
loop_
_atom_site_type_symbol
_atom_site_label
_atom_site_fract_x
_atom_site_fract_y
_atom_site_fract_z
Si Si1 0.554179 0.580915 0.695075
Si Si2 0.705578 0.918738 0.641642
Si Si3 0.844326 0.915090 0.049550
Si Si4 0.181604 0.919216 0.642537
Si Si5 0.500000 0.586786 0.948146
Si Si6 0.651836 0.419819 0.253957
Si Si7 0.607360 0.081244 0.054916
Si Si8 0.446057 0.411089 0.591526
O O1 0.500000 0.535769 0.716236
O O2 0.558299 0.750000 0.688535
O O3 0.596478 0.525005 0.733979
O O4 0.564329 0.518939 0.638305
O O5 0.695209 0.750000 0.632252
O O6 0.762125 0.958209 0.631309
O O7 0.689773 0.964390 0.700232
O O8 0.674358 0.013525 0.602303
O O9 0.826965 0.750000 0.046546
O O10 0.903707 0.928783 0.048273
O O11 0.822588 0.000000 0.000000
O O12 0.173769 0.750000 0.645405
O O13 0.167371 0.988638 0.698593
O O14 0.146873 0.980741 0.596410
O O15 0.500000 0.750000 0.965884
O O16 0.447633 0.554083 0.919588
O O17 0.500000 0.500000 0.000000
O O18 0.652963 0.250000 0.248764
O O19 0.616036 0.250000 0.044599
O O20 0.614161 0.000000 0.000000
O O21 0.500000 0.441573 0.566392
O O22 0.444166 0.250000 0.614682
#
# Coordination Sequence:
#
# PCOD8299061 Si02
#       8
#    16  16  16  16   8  16  16  16
#     4   9  16  27  47  76 105 133 166 206 252 300
#     4  10  19  34  55  74  98 136 175 211 252 301
#     4  11  23  37  54  76 103 133 170 215 261 308
#     4   9  18  31  50  78 104 130 170 212 250 296
#     4   8  14  26  46  70  94 126 160 192 239 294
#     4   9  16  29  50  76 104 133 167 207 251 299
#     4   9  17  31  50  72  99 129 162 200 244 295
#     4   9  18  33  52  73  99 133 169 206 253 307
#
# _framework density 18.499459000000002
#
# number of rings (size 3 to 8) (size 9 to 14) (size 15 to 20)
#    0.000    2.667    1.333    0.800    0.000    2.933 
#    1.200    2.000    0.000    4.000    0.000    0.000 
#    0.000    0.000    0.000    0.000    0.000    0.000 
#
# Total GULP energy -743456.621400 kJ/mol
# GULP energy per Si atom -12390.943690 kJ/mol
# Density = 1.845735 g / cm^3
# Si number density = 18.499459 Si / 1000 Ang^3
#
#
#
# Elastic Constant Matrix: (Units=GPa)
#
#
# Indices 1 2 3 4 5 6 
#
# 1 127.4545 29.8926 57.0280 0.0000 0.0000 0.0000
# 2 29.8926 39.9152 28.7483 0.0000 0.0000 0.0000
# 3 57.0280 28.7483 101.7793 0.0000 0.0000 0.0000
# 4 0.0000 0.0000 0.0000 13.1996 0.0000 0.0000
# 5 0.0000 0.0000 0.0000 0.0000 20.7888 0.0000
# 6 0.0000 0.0000 0.0000 0.0000 0.0000 17.1597
#
#
#
# Elastic Compliance Matrix: (Units=1/GPa)
#
#
# Indices 1 2 3 4 5 6 
#
# 1 0.011170 -0.004843 -0.004891 0.000000 0.000000 0.000000
# 2 -0.004843 0.033551 -0.006763 0.000000 0.000000 0.000000
# 3 -0.004891 -0.006763 0.014476 0.000000 0.000000 0.000000
# 4 0.000000 0.000000 0.000000 0.075760 0.000000 0.000000
# 5 0.000000 0.000000 0.000000 0.000000 0.048103 0.000000
# 6 0.000000 0.000000 0.000000 0.000000 0.000000 0.058276
#
#
# Mechanical properties :
#
#
# Convention : Reuss Voigt Hill
#
# Bulk Modulus (GPa) = 38.16318 55.60965 46.88642
# Shear Modulus (GPa) = 17.66385 20.46162 19.06274
#
# Velocity S-wave (km/s) = 3.09339 3.32936 3.21354
# Velocity P-wave (km/s) = 5.78211 6.70112 6.25851
#
# Compressibility (1/GPa) = 0.02620327
#
# Stress axis : x y z
#
# Youngs Moduli (GPa) = 89.52478 29.80531 69.08026
#
# Poissons Ratio (x) = 0.14434 0.33786
# Poissons Ratio (y) = 0.43355 0.46721
# Poissons Ratio (z) = 0.43785 0.20158
#
# Static dielectric constant tensor:
#      x y z
#    x 3.936680 0.000000 0.000000 
#    y 0.000000 3.098070 0.000000 
#    z 0.000000 0.000000 3.268960 
# 
# 
# High freq. dielectric constant tensor:
#      x y z
#    x 1.736620 0.000000 0.000000 
#    y 0.000000 1.684070 0.000000 
#    z 0.000000 0.000000 1.696380 
# 
# From -- ./inp_files/68984.got.cif
#   From: 2010.03.12/outbox.cif.g09.slc.cpg/sg74_35_cif.got.tgz:68984.got - 2010.04.16 15:46:19.
