data_PCOD8299263
_publ_section_title
;
Structure prediction by ZEFSAII (Michael W. Deem and Ramdas Pophale) SiO2 
 PCOD8299263
Probable space group: I M M A
;
_chemical_formula_sum "Si O2"
_cell_formula_units_Z 104
_cell_length_a 32.808709
_cell_length_b 8.959441
_cell_length_c 20.205879
_cell_angle_alpha 90.000000
_cell_angle_beta 90.000000
_cell_angle_gamma 90.000000
_cell_volume 5939.471508
_symmetry_space_group_name_H-M "I M M A"
_symmetry_group_IT_number 74
_symmetry_cell_setting 'orthorhombic'
loop_
_space_group_symop_operation_xyz
x,y,z
-x,1/2-y,z
x,-y,-z
-x,1/2+y,-z
-x,-y,-z
x,1/2+y,-z
-x,y,z
x,1/2-y,z
1/2+x,1/2+y,1/2+z
1/2-x,-y,1/2+z
1/2+x,1/2-y,1/2-z
1/2-x,y,1/2-z
1/2-x,1/2-y,1/2-z
1/2+x,y,1/2-z
1/2-x,1/2+y,1/2+z
1/2+x,-y,1/2+z
loop_
_atom_site_type_symbol
_atom_site_label
_atom_site_fract_x
_atom_site_fract_y
_atom_site_fract_z
Si Si1 0.768248 0.575085 0.678929
Si Si2 0.296763 0.424629 0.430634
Si Si3 0.500000 0.573860 0.929407
Si Si4 0.456290 0.924388 0.686612
Si Si5 0.929204 0.424362 0.333241
Si Si6 0.349719 0.426582 0.796256
Si Si7 0.869202 0.072864 0.158781
O O1 0.778109 0.750000 0.674566
O O2 0.750000 0.533135 0.750000
O O3 0.736567 0.523942 0.622722
O O4 0.809176 0.481661 0.666664
O O5 0.287617 0.500000 0.500000
O O6 0.294503 0.250000 0.441839
O O7 0.341779 0.470889 0.404228
O O8 0.500000 0.750000 0.936763
O O9 0.540359 0.522077 0.890542
O O10 0.500000 0.500000 0.000000
O O11 0.500000 0.996745 0.663582
O O12 0.459578 0.750000 0.674618
O O13 0.450622 0.960042 0.763682
O O14 0.416140 0.982937 0.646980
O O15 0.918552 0.250000 0.338703
O O16 0.887872 0.518582 0.339995
O O17 0.350180 0.250000 0.790715
O O18 0.350549 0.496638 0.723297
O O19 0.867858 0.250000 0.172490
#
# Coordination Sequence:
#
# PCOD8299263 Si02
#       7
#    16  16   8  16  16  16  16
#     4  10  19  36  58  77 102 138 180 218 263 322
#     4  10  21  36  55  78 104 140 176 216 266 316
#     4  10  20  34  54  76 100 138 183 222 263 316
#     4   8  12  22  47  77  98 120 164 217 248 284
#     4   9  17  32  51  72 100 136 175 210 257 316
#     4  11  21  31  50  81 109 132 166 219 273 307
#     4   9  17  32  52  74 104 141 176 209 254 314
#
# _framework density 17.509976000000002
#
# number of rings (size 3 to 8) (size 9 to 14) (size 15 to 20)
#    0.000    2.462    2.308    2.308    0.000    2.154 
#    0.000    0.769    0.000    0.462    0.000    0.000 
#    0.000    0.000    0.000    0.000    0.000    0.000 
#
# Total GULP energy -644540.788425 kJ/mol
# GULP energy per Si atom -12395.015162 kJ/mol
# Density = 1.747012 g / cm^3
# Si number density = 17.509976 Si / 1000 Ang^3
#
#
#
# Elastic Constant Matrix: (Units=GPa)
#
#
# Indices 1 2 3 4 5 6 
#
# 1 162.9703 44.7273 63.4042 0.0000 0.0000 0.0000
# 2 44.7273 47.2622 29.1666 0.0000 0.0000 0.0000
# 3 63.4042 29.1666 103.0004 0.0000 0.0000 0.0000
# 4 0.0000 0.0000 0.0000 22.7596 0.0000 0.0000
# 5 0.0000 0.0000 0.0000 0.0000 24.8517 0.0000
# 6 0.0000 0.0000 0.0000 0.0000 0.0000 12.2102
#
#
#
# Elastic Compliance Matrix: (Units=1/GPa)
#
#
# Indices 1 2 3 4 5 6 
#
# 1 0.009473 -0.006503 -0.003990 0.000000 0.000000 0.000000
# 2 -0.006503 0.030103 -0.004521 0.000000 0.000000 0.000000
# 3 -0.003990 -0.004521 0.013445 0.000000 0.000000 0.000000
# 4 0.000000 0.000000 0.000000 0.043937 0.000000 0.000000
# 5 0.000000 0.000000 0.000000 0.000000 0.040239 0.000000
# 6 0.000000 0.000000 0.000000 0.000000 0.000000 0.081898
#
#
# Mechanical properties :
#
#
# Convention : Reuss Voigt Hill
#
# Bulk Modulus (GPa) = 43.49166 65.31434 54.40300
# Shear Modulus (GPa) = 19.47134 23.69331 21.58232
#
# Velocity S-wave (km/s) = 3.33831 3.68248 3.51461
# Velocity P-wave (km/s) = 6.30485 7.44736 6.89979
#
# Compressibility (1/GPa) = 0.02299291
#
# Stress axis : x y z
#
# Youngs Moduli (GPa) = 105.56242 33.21971 74.37631
#
# Poissons Ratio (x) = 0.21602 0.29676
# Poissons Ratio (y) = 0.68643 0.33628
# Poissons Ratio (z) = 0.42120 0.15020
#
# Static dielectric constant tensor:
#      x y z
#    x 3.785190 0.000000 0.000000 
#    y 0.000000 2.976420 0.000000 
#    z 0.000000 0.000000 2.963240 
# 
# 
# High freq. dielectric constant tensor:
#      x y z
#    x 1.700350 0.000000 0.000000 
#    y 0.000000 1.650380 0.000000 
#    z 0.000000 0.000000 1.640000 
# 
# From -- ./inp_files/62650.got.cif
#   From: 2010.03.12/outbox.cif.g09.slc.cpg/sg74_32_cif.got.tgz:62650.got - 2010.04.16 15:46:19.
