data_PCOD8299526
_publ_section_title
;
Structure prediction by ZEFSAII (Michael W. Deem and Ramdas Pophale) SiO2 
 PCOD8299526
Probable space group: I M M A
;
_chemical_formula_sum "Si O2"
_cell_formula_units_Z 80
_cell_length_a 16.454955
_cell_length_b 15.870290
_cell_length_c 16.079688
_cell_angle_alpha 90.000000
_cell_angle_beta 90.000000
_cell_angle_gamma 90.000000
_cell_volume 4199.128640
_symmetry_space_group_name_H-M "I M M A"
_symmetry_group_IT_number 74
_symmetry_cell_setting 'orthorhombic'
loop_
_space_group_symop_operation_xyz
x,y,z
-x,1/2-y,z
x,-y,-z
-x,1/2+y,-z
-x,-y,-z
x,1/2+y,-z
-x,y,z
x,1/2-y,z
1/2+x,1/2+y,1/2+z
1/2-x,-y,1/2+z
1/2+x,1/2-y,1/2-z
1/2-x,y,1/2-z
1/2-x,1/2-y,1/2-z
1/2+x,y,1/2-z
1/2-x,1/2+y,1/2+z
1/2+x,-y,1/2+z
loop_
_atom_site_type_symbol
_atom_site_label
_atom_site_fract_x
_atom_site_fract_y
_atom_site_fract_z
Si Si1 0.406664 0.015807 0.227979
Si Si2 0.316299 0.155723 0.321139
Si Si3 0.843112 0.843910 0.272416
Si Si4 0.803118 0.562024 0.570787
Si Si5 0.911408 0.844461 0.449374
O O1 0.500000 0.027240 0.201120
O O2 0.386147 0.089966 0.293618
O O3 0.344357 0.016707 0.150050
O O4 0.393124 0.922068 0.268861
O O5 0.352339 0.250000 0.337783
O O6 0.250000 0.162185 0.250000
O O7 0.272095 0.121485 0.403911
O O8 0.874651 0.750000 0.243948
O O9 0.750000 0.854917 0.250000
O O10 0.851366 0.851889 0.371654
O O11 0.768169 0.500000 0.500000
O O12 0.876801 0.612479 0.530836
O O13 0.923750 0.750000 0.477546
O O14 0.000000 0.883728 0.425897
#
# Coordination Sequence:
#
# PCOD8299526 Si02
#       5
#    16  16  16  16  16
#     4  11  22  35  56  83 112 147 187 232 283 331
#     4   9  20  38  56  78 110 152 199 237 272 328
#     4  10  20  34  51  75 111 152 188 220 268 339
#     4  11  20  32  55  81 115 146 182 225 284 344
#     4  10  20  32  49  78 112 143 176 223 286 344
#
# _framework density 19.051570999999999
#
# number of rings (size 3 to 8) (size 9 to 14) (size 15 to 20)
#    0.000    1.800    2.000    3.600    0.000    3.200 
#    0.000    0.000    0.000    0.600    0.000    0.000 
#    0.000    0.000    0.000    0.000    0.000    0.000 
#
# Total GULP energy -495605.552778 kJ/mol
# GULP energy per Si atom -12390.138819 kJ/mol
# Density = 1.900821 g / cm^3
# Si number density = 19.051571 Si / 1000 Ang^3
#
#
#
# Elastic Constant Matrix: (Units=GPa)
#
#
# Indices 1 2 3 4 5 6 
#
# 1 56.6871 46.7896 34.4481 0.0000 0.0000 0.0000
# 2 46.7896 170.9965 39.9374 0.0000 0.0000 0.0000
# 3 34.4481 39.9374 67.1725 0.0000 0.0000 0.0000
# 4 0.0000 0.0000 0.0000 23.6904 0.0000 0.0000
# 5 0.0000 0.0000 0.0000 0.0000 23.9983 0.0000
# 6 0.0000 0.0000 0.0000 0.0000 0.0000 14.8820
#
#
#
# Elastic Compliance Matrix: (Units=1/GPa)
#
#
# Indices 1 2 3 4 5 6 
#
# 1 0.029137 -0.005206 -0.011847 0.000000 0.000000 0.000000
# 2 -0.005206 0.007721 -0.001921 0.000000 0.000000 0.000000
# 3 -0.011847 -0.001921 0.022105 0.000000 0.000000 0.000000
# 4 0.000000 0.000000 0.000000 0.042211 0.000000 0.000000
# 5 0.000000 0.000000 0.000000 0.000000 0.041670 0.000000
# 6 0.000000 0.000000 0.000000 0.000000 0.000000 0.067195
#
#
# Mechanical properties :
#
#
# Convention : Reuss Voigt Hill
#
# Bulk Modulus (GPa) = 47.58502 59.68960 53.63731
# Shear Modulus (GPa) = 19.60846 24.09287 21.85066
#
# Velocity S-wave (km/s) = 3.21164 3.56000 3.39030
# Velocity P-wave (km/s) = 6.22768 6.94958 6.59851
#
# Compressibility (1/GPa) = 0.02101502
#
# Stress axis : x y z
#
# Youngs Moduli (GPa) = 34.32072 129.51422 45.23903
#
# Poissons Ratio (x) = 0.67421 0.53596
# Poissons Ratio (y) = 0.17866 0.08690
# Poissons Ratio (z) = 0.40661 0.24879
#
# Static dielectric constant tensor:
#      x y z
#    x 3.348880 0.000000 0.000000 
#    y 0.000000 4.213390 0.000000 
#    z 0.000000 0.000000 3.237170 
# 
# 
# High freq. dielectric constant tensor:
#      x y z
#    x 1.714100 0.000000 0.000000 
#    y 0.000000 1.774560 0.000000 
#    z 0.000000 0.000000 1.701740 
# 
# From -- ./inp_files/42693.got.cif
#   From: 2010.03.12/outbox.cif.g09.slc.cpg/sg74_22_cif.got.tgz:42693.got - 2010.04.16 15:46:19.
