data_PCOD8299194
_publ_section_title
;
Structure prediction by ZEFSAII (Michael W. Deem and Ramdas Pophale) SiO2 
 PCOD8299194
Probable space group: I M M A
;
_chemical_formula_sum "Si O2"
_cell_formula_units_Z 96
_cell_length_a 9.023121
_cell_length_b 29.927770
_cell_length_c 19.514986
_cell_angle_alpha 90.000000
_cell_angle_beta 90.000000
_cell_angle_gamma 90.000000
_cell_volume 5269.863702
_symmetry_space_group_name_H-M "I M M A"
_symmetry_group_IT_number 74
_symmetry_cell_setting 'orthorhombic'
loop_
_space_group_symop_operation_xyz
x,y,z
-x,1/2-y,z
x,-y,-z
-x,1/2+y,-z
-x,-y,-z
x,1/2+y,-z
-x,y,z
x,1/2-y,z
1/2+x,1/2+y,1/2+z
1/2-x,-y,1/2+z
1/2+x,1/2-y,1/2-z
1/2-x,y,1/2-z
1/2-x,1/2-y,1/2-z
1/2+x,y,1/2-z
1/2-x,1/2+y,1/2+z
1/2+x,-y,1/2+z
loop_
_atom_site_type_symbol
_atom_site_label
_atom_site_fract_x
_atom_site_fract_y
_atom_site_fract_z
Si Si1 0.827564 0.046328 0.536126
Si Si2 0.671236 0.513079 0.182796
Si Si3 0.337566 0.697097 0.186218
Si Si4 0.675940 0.910728 0.819843
Si Si5 0.673609 0.198100 0.965629
Si Si6 0.824387 0.122996 0.046441
O O1 0.791325 0.043034 0.616826
O O2 0.725771 0.084915 0.506311
O O3 0.000000 0.057865 0.522753
O O4 0.786667 0.000000 0.500000
O O5 0.500000 0.513711 0.199766
O O6 0.750000 0.533007 0.250000
O O7 0.721098 0.462279 0.167836
O O8 0.500000 0.675750 0.189877
O O9 0.347381 0.750000 0.195069
O O10 0.250000 0.675487 0.250000
O O11 0.269547 0.686226 0.111512
O O12 0.500000 0.903719 0.817479
O O13 0.750000 0.893166 0.750000
O O14 0.744982 0.882310 0.880935
O O15 0.500000 0.185738 0.972823
O O16 0.698446 0.250000 0.981748
O O17 0.774005 0.170857 0.018103
O O18 0.000000 0.121419 0.055760
#
# Coordination Sequence:
#
# PCOD8299194 Si02
#       6
#    16  16  16  16  16  16
#     4  10  19  36  56  76 106 146 184 221 270 323
#     4   9  18  32  53  77 105 143 182 223 270 319
#     4   8  14  26  47  74 100 128 167 214 264 316
#     4  10  19  35  56  81 110 142 181 224 268 321
#     4   9  19  37  58  78 104 143 187 229 276 330
#     4  12  24  35  53  84 114 144 181 226 276 326
#
# _framework density 18.216788999999999
#
# number of rings (size 3 to 8) (size 9 to 14) (size 15 to 20)
#    0.000    2.333    1.667    3.000    0.000    2.667 
#    0.000    2.500    0.000    0.500    0.000    0.000 
#    0.000    0.000    0.000    0.000    0.000    0.000 
#
# Total GULP energy -595124.019667 kJ/mol
# GULP energy per Si atom -12398.417076 kJ/mol
# Density = 1.817533 g / cm^3
# Si number density = 18.216789 Si / 1000 Ang^3
#
#
#
# Elastic Constant Matrix: (Units=GPa)
#
#
# Indices 1 2 3 4 5 6 
#
# 1 91.9122 35.1280 62.2582 0.0000 0.0000 0.0000
# 2 35.1280 56.4998 44.0384 0.0000 0.0000 0.0000
# 3 62.2582 44.0384 141.7988 0.0000 0.0000 0.0000
# 4 0.0000 0.0000 0.0000 22.7122 0.0000 0.0000
# 5 0.0000 0.0000 0.0000 0.0000 37.4064 0.0000
# 6 0.0000 0.0000 0.0000 0.0000 0.0000 23.4858
#
#
#
# Elastic Compliance Matrix: (Units=1/GPa)
#
#
# Indices 1 2 3 4 5 6 
#
# 1 0.017020 -0.006277 -0.005524 0.000000 0.000000 0.000000
# 2 -0.006277 0.025667 -0.005215 0.000000 0.000000 0.000000
# 3 -0.005524 -0.005215 0.011097 0.000000 0.000000 0.000000
# 4 0.000000 0.000000 0.000000 0.044029 0.000000 0.000000
# 5 0.000000 0.000000 0.000000 0.000000 0.026733 0.000000
# 6 0.000000 0.000000 0.000000 0.000000 0.000000 0.042579
#
#
# Mechanical properties :
#
#
# Convention : Reuss Voigt Hill
#
# Bulk Modulus (GPa) = 50.62605 63.67334 57.14970
# Shear Modulus (GPa) = 24.06832 26.63996 25.35414
#
# Velocity S-wave (km/s) = 3.63880 3.82826 3.73473
# Velocity P-wave (km/s) = 6.74579 7.38714 7.07373
#
# Compressibility (1/GPa) = 0.01975268
#
# Stress axis : x y z
#
# Youngs Moduli (GPa) = 58.75302 38.96074 90.11312
#
# Poissons Ratio (x) = 0.24455 0.49775
# Poissons Ratio (y) = 0.36879 0.46998
# Poissons Ratio (z) = 0.32453 0.20320
#
# Static dielectric constant tensor:
#      x y z
#    x 3.387340 0.000000 0.000000 
#    y 0.000000 3.064560 0.000000 
#    z 0.000000 0.000000 3.580280 
# 
# 
# High freq. dielectric constant tensor:
#      x y z
#    x 1.699410 0.000000 0.000000 
#    y 0.000000 1.671140 0.000000 
#    z 0.000000 0.000000 1.718480 
# 
# From -- ./inp_files/49096.got.cif
#   From: 2010.03.12/outbox.cif.g09.slc.cpg/sg74_25_cif.got.tgz:49096.got - 2010.04.16 15:46:19.
