data_PCOD8299347
_publ_section_title
;
Structure prediction by ZEFSAII (Michael W. Deem and Ramdas Pophale) SiO2 
 PCOD8299347
Probable space group: I M M A
;
_chemical_formula_sum "Si O2"
_cell_formula_units_Z 112
_cell_length_a 22.826116
_cell_length_b 18.579847
_cell_length_c 13.763049
_cell_angle_alpha 90.000000
_cell_angle_beta 90.000000
_cell_angle_gamma 90.000000
_cell_volume 5836.988120
_symmetry_space_group_name_H-M "I M M A"
_symmetry_group_IT_number 74
_symmetry_cell_setting 'orthorhombic'
loop_
_space_group_symop_operation_xyz
x,y,z
-x,1/2-y,z
x,-y,-z
-x,1/2+y,-z
-x,-y,-z
x,1/2+y,-z
-x,y,z
x,1/2-y,z
1/2+x,1/2+y,1/2+z
1/2-x,-y,1/2+z
1/2+x,1/2-y,1/2-z
1/2-x,y,1/2-z
1/2-x,1/2-y,1/2-z
1/2+x,y,1/2-z
1/2-x,1/2+y,1/2+z
1/2+x,-y,1/2+z
loop_
_atom_site_type_symbol
_atom_site_label
_atom_site_fract_x
_atom_site_fract_y
_atom_site_fract_z
Si Si1 0.623711 0.668295 0.184675
Si Si2 0.231332 0.832294 0.440660
Si Si3 0.638015 0.331122 0.100638
Si Si4 0.810124 0.167423 0.199002
Si Si5 0.067451 0.576171 0.476601
Si Si6 0.160844 0.413984 0.005158
Si Si7 0.068331 0.666731 0.109458
O O1 0.604322 0.750000 0.157992
O O2 0.692655 0.658712 0.157826
O O3 0.588882 0.610505 0.122856
O O4 0.607938 0.652389 0.295571
O O5 0.253122 0.750000 0.450587
O O6 0.194722 0.856111 0.537197
O O7 0.288163 0.883319 0.434575
O O8 0.626915 0.250000 0.069587
O O9 0.642320 0.340145 0.215909
O O10 0.580688 0.373972 0.068832
O O11 0.806336 0.250000 0.159904
O O12 0.750000 0.144703 0.250000
O O13 0.826748 0.112718 0.114349
O O14 0.098652 0.500000 0.500000
O O15 0.000000 0.563564 0.463807
O O16 0.159768 0.500000 0.000000
O O17 0.097447 0.382816 0.973480
O O18 0.072305 0.750000 0.077979
O O19 0.000000 0.645060 0.125285
#
# Coordination Sequence:
#
# PCOD8299347 Si02
#       7
#    16  16  16  16  16  16  16
#     4   9  19  36  60  85 109 148 197 243 291 341
#     4   9  17  34  57  84 116 145 185 238 289 345
#     4   9  18  33  56  81 102 142 196 243 285 328
#     4  10  19  38  63  80 106 152 199 237 280 346
#     4  10  20  32  49  79 119 156 187 226 289 355
#     4  12  25  38  55  90 123 157 187 236 304 358
#     4  10  22  42  65  85 110 154 211 256 289 341
#
# _framework density 19.187978000000001
#
# number of rings (size 3 to 8) (size 9 to 14) (size 15 to 20)
#    0.000    2.143    1.429    3.000    0.000    6.000 
#    2.571    2.857    0.000    0.857    0.000    0.000 
#    0.000    0.000    0.000    0.000    0.000    0.000 
#
# Total GULP energy -694090.149748 kJ/mol
# GULP energy per Si atom -12394.466960 kJ/mol
# Density = 1.914431 g / cm^3
# Si number density = 19.187978 Si / 1000 Ang^3
#
#
#
# Elastic Constant Matrix: (Units=GPa)
#
#
# Indices 1 2 3 4 5 6 
#
# 1 64.6896 35.6548 31.9312 0.0000 0.0000 0.0000
# 2 35.6548 102.8737 44.4603 0.0000 0.0000 0.0000
# 3 31.9312 44.4603 93.8385 0.0000 0.0000 0.0000
# 4 0.0000 0.0000 0.0000 8.3062 0.0000 0.0000
# 5 0.0000 0.0000 0.0000 0.0000 23.2050 0.0000
# 6 0.0000 0.0000 0.0000 0.0000 0.0000 25.8931
#
#
#
# Elastic Compliance Matrix: (Units=1/GPa)
#
#
# Indices 1 2 3 4 5 6 
#
# 1 0.020545 -0.005155 -0.004549 0.000000 0.000000 0.000000
# 2 -0.005155 0.013517 -0.004650 0.000000 0.000000 0.000000
# 3 -0.004549 -0.004650 0.014408 0.000000 0.000000 0.000000
# 4 0.000000 0.000000 0.000000 0.120392 0.000000 0.000000
# 5 0.000000 0.000000 0.000000 0.000000 0.043094 0.000000
# 6 0.000000 0.000000 0.000000 0.000000 0.000000 0.038620
#
#
# Mechanical properties :
#
#
# Convention : Reuss Voigt Hill
#
# Bulk Modulus (GPa) = 50.60166 53.94382 52.27274
# Shear Modulus (GPa) = 17.49044 21.43790 19.46417
#
# Velocity S-wave (km/s) = 3.02243 3.34617 3.18841
# Velocity P-wave (km/s) = 6.21361 6.56532 6.39189
#
# Compressibility (1/GPa) = 0.01976220
#
# Stress axis : x y z
#
# Youngs Moduli (GPa) = 48.67415 73.98107 69.40743
#
# Poissons Ratio (x) = 0.38135 0.31571
# Poissons Ratio (y) = 0.25090 0.32276
# Poissons Ratio (z) = 0.22140 0.34403
#
# Static dielectric constant tensor:
#      x y z
#    x 3.445060 0.000000 0.000000 
#    y 0.000000 3.603760 0.000000 
#    z 0.000000 0.000000 3.559060 
# 
# 
# High freq. dielectric constant tensor:
#      x y z
#    x 1.734290 0.000000 0.000000 
#    y 0.000000 1.736120 0.000000 
#    z 0.000000 0.000000 1.742380 
# 
# From -- ./inp_files/36560.got.cif
#   From: 2010.03.12/outbox.cif.g09.slc.cpg/sg74_19_cif.got.tgz:36560.got - 2010.04.16 15:46:19.
