data_PCOD8299922
_publ_section_title
;
Structure prediction by ZEFSAII (Michael W. Deem and Ramdas Pophale) SiO2 
 PCOD8299922
Probable space group: I M M A
;
_chemical_formula_sum "Si O2"
_cell_formula_units_Z 88
_cell_length_a 9.650822
_cell_length_b 23.140771
_cell_length_c 19.612285
_cell_angle_alpha 90.000000
_cell_angle_beta 90.000000
_cell_angle_gamma 90.000000
_cell_volume 4379.961830
_symmetry_space_group_name_H-M "I M M A"
_symmetry_group_IT_number 74
_symmetry_cell_setting 'orthorhombic'
loop_
_space_group_symop_operation_xyz
x,y,z
-x,1/2-y,z
x,-y,-z
-x,1/2+y,-z
-x,-y,-z
x,1/2+y,-z
-x,y,z
x,1/2-y,z
1/2+x,1/2+y,1/2+z
1/2-x,-y,1/2+z
1/2+x,1/2-y,1/2-z
1/2-x,y,1/2-z
1/2-x,1/2-y,1/2-z
1/2+x,y,1/2-z
1/2-x,1/2+y,1/2+z
1/2+x,-y,1/2+z
loop_
_atom_site_type_symbol
_atom_site_label
_atom_site_fract_x
_atom_site_fract_y
_atom_site_fract_z
Si Si1 0.344380 0.515008 0.421847
Si Si2 0.163426 0.750000 0.180213
Si Si3 0.343917 0.816480 0.957388
Si Si4 0.656898 0.648224 0.422134
Si Si5 0.154186 0.526508 0.691382
Si Si6 0.347371 0.160970 0.192360
O O1 0.313667 0.500000 0.500000
O O2 0.500000 0.493596 0.403487
O O3 0.331220 0.581909 0.399370
O O4 0.228929 0.480184 0.380890
O O5 0.250000 0.750000 0.250000
O O6 0.205221 0.807569 0.137317
O O7 0.000000 0.750000 0.197739
O O8 0.500000 0.841976 0.960749
O O9 0.343130 0.750000 0.977638
O O10 0.282285 0.826073 0.881793
O O11 0.249555 0.849209 0.010866
O O12 0.500000 0.664242 0.442798
O O13 0.250000 0.497259 0.750000
O O14 0.138280 0.593553 0.706705
O O15 0.000000 0.497990 0.690824
O O16 0.500000 0.189840 0.196392
O O17 0.250000 0.189477 0.250000
#
# Coordination Sequence:
#
# PCOD8299922 Si02
#       6
#    16   8  16  16  16  16
#     4  10  21  36  56  84 115 145 182 230 282 336
#     4  10  22  40  60  82 109 142 185 232 279 334
#     4  10  20  34  54  79 108 141 180 226 271 320
#     4  10  21  38  58  81 111 144 181 227 278 337
#     4  10  20  35  55  77 107 145 183 224 271 327
#     4   9  19  34  51  76 109 145 184 224 267 316
#
# _framework density 20.091498999999999
#
# number of rings (size 3 to 8) (size 9 to 14) (size 15 to 20)
#    0.000    2.182    0.909    1.636    0.000    4.364 
#    0.000    1.818    0.000    0.000    0.000    0.000 
#    0.000    0.000    0.000    0.000    0.000    0.000 
#
# Total GULP energy -545494.953053 kJ/mol
# GULP energy per Si atom -12397.612569 kJ/mol
# Density = 2.004577 g / cm^3
# Si number density = 20.091499 Si / 1000 Ang^3
#
#
#
# Elastic Constant Matrix: (Units=GPa)
#
#
# Indices 1 2 3 4 5 6 
#
# 1 118.3199 11.0964 72.8216 0.0000 0.0000 0.0000
# 2 11.0964 51.4936 11.3452 0.0000 0.0000 0.0000
# 3 72.8216 11.3452 121.0162 0.0000 0.0000 0.0000
# 4 0.0000 0.0000 0.0000 28.1634 0.0000 0.0000
# 5 0.0000 0.0000 0.0000 0.0000 42.0232 0.0000
# 6 0.0000 0.0000 0.0000 0.0000 0.0000 3.9590
#
#
#
# Elastic Compliance Matrix: (Units=1/GPa)
#
#
# Indices 1 2 3 4 5 6 
#
# 1 0.013488 -0.001142 -0.008010 0.000000 0.000000 0.000000
# 2 -0.001142 0.019926 -0.001181 0.000000 0.000000 0.000000
# 3 -0.008010 -0.001181 0.013194 0.000000 0.000000 0.000000
# 4 0.000000 0.000000 0.000000 0.035507 0.000000 0.000000
# 5 0.000000 0.000000 0.000000 0.000000 0.023796 0.000000
# 6 0.000000 0.000000 0.000000 0.000000 0.000000 0.252592
#
#
# Mechanical properties :
#
#
# Convention : Reuss Voigt Hill
#
# Bulk Modulus (GPa) = 38.54527 53.48401 46.01464
# Shear Modulus (GPa) = 12.89269 27.86690 20.37979
#
# Velocity S-wave (km/s) = 2.53593 3.72828 3.18834
# Velocity P-wave (km/s) = 5.27267 6.72395 6.04204
#
# Compressibility (1/GPa) = 0.02594352
#
# Stress axis : x y z
#
# Youngs Moduli (GPa) = 74.13795 50.18532 75.79294
#
# Poissons Ratio (x) = 0.05731 0.60707
# Poissons Ratio (y) = 0.08466 0.08950
# Poissons Ratio (z) = 0.59381 0.05926
#
# Static dielectric constant tensor:
#      x y z
#    x 3.951190 0.000000 0.000000 
#    y 0.000000 3.505770 0.000000 
#    z 0.000000 0.000000 3.510530 
# 
# 
# High freq. dielectric constant tensor:
#      x y z
#    x 1.786540 0.000000 0.000000 
#    y 0.000000 1.772820 0.000000 
#    z 0.000000 0.000000 1.782200 
# 
# From -- ./inp_files/48723.got.cif
#   From: 2010.03.12/outbox.cif.g09.slc.cpg/sg74_25_cif.got.tgz:48723.got - 2010.04.16 15:46:19.
