data_PCOD8299057
_publ_section_title
;
Structure prediction by ZEFSAII (Michael W. Deem and Ramdas Pophale) SiO2 
 PCOD8299057
Probable space group: I M M A
;
_chemical_formula_sum "Si O2"
_cell_formula_units_Z 96
_cell_length_a 30.231067
_cell_length_b 8.872607
_cell_length_c 19.432578
_cell_angle_alpha 90.000000
_cell_angle_beta 90.000000
_cell_angle_gamma 90.000000
_cell_volume 5212.368852
_symmetry_space_group_name_H-M "I M M A"
_symmetry_group_IT_number 74
_symmetry_cell_setting 'orthorhombic'
loop_
_space_group_symop_operation_xyz
x,y,z
-x,1/2-y,z
x,-y,-z
-x,1/2+y,-z
-x,-y,-z
x,1/2+y,-z
-x,y,z
x,1/2-y,z
1/2+x,1/2+y,1/2+z
1/2-x,-y,1/2+z
1/2+x,1/2-y,1/2-z
1/2-x,y,1/2-z
1/2-x,1/2-y,1/2-z
1/2+x,y,1/2-z
1/2-x,1/2+y,1/2+z
1/2+x,-y,1/2+z
loop_
_atom_site_type_symbol
_atom_site_label
_atom_site_fract_x
_atom_site_fract_y
_atom_site_fract_z
Si Si1 0.449814 0.926784 0.793993
Si Si2 0.166183 0.426797 0.931060
Si Si3 0.739263 0.570790 0.928888
Si Si4 0.447316 0.419078 0.932480
Si Si5 0.622311 0.576460 0.289824
Si Si6 0.708392 0.573176 0.204068
O O1 0.500000 0.981098 0.780097
O O2 0.447771 0.750000 0.803320
O O3 0.430442 0.998770 0.863884
O O4 0.420039 0.977657 0.730089
O O5 0.175811 0.250000 0.941661
O O6 0.211965 0.508035 0.912949
O O7 0.131704 0.454422 0.869901
O O8 0.145545 0.500000 0.000000
O O9 0.740233 0.750000 0.934803
O O10 0.707485 0.519181 0.867026
O O11 0.721194 0.500000 0.000000
O O12 0.500000 0.423041 0.935235
O O13 0.428897 0.250000 0.931324
O O14 0.427618 0.500000 0.000000
O O15 0.610718 0.750000 0.276753
O O16 0.664447 0.528280 0.244984
O O17 0.710980 0.750000 0.187587
O O18 0.750000 0.522988 0.250000
#
# Coordination Sequence:
#
# PCOD8299057 Si02
#       6
#    16  16  16  16  16  16
#     4  10  21  36  54  78 109 142 179 227 277 322
#     4  10  19  34  54  80 109 141 179 221 269 318
#     4  11  21  33  52  78 109 147 187 223 265 316
#     4   9  16  28  49  75 102 133 172 216 262 314
#     4  10  21  36  57  81 108 143 180 220 270 324
#     4  10  19  36  56  77 110 144 174 217 268 319
#
# _framework density 18.417729000000001
#
# number of rings (size 3 to 8) (size 9 to 14) (size 15 to 20)
#    0.000    2.000    1.667    4.000    0.000    5.333 
#    0.000    0.833    0.000    4.500    0.000    0.000 
#    0.000    0.000    0.000    0.000    0.000    0.000 
#
# Total GULP energy -595312.725792 kJ/mol
# GULP energy per Si atom -12402.348454 kJ/mol
# Density = 1.837581 g / cm^3
# Si number density = 18.417729 Si / 1000 Ang^3
#
#
#
# Elastic Constant Matrix: (Units=GPa)
#
#
# Indices 1 2 3 4 5 6 
#
# 1 63.1785 35.9314 46.2416 0.0000 0.0000 0.0000
# 2 35.9314 112.1941 61.2357 0.0000 0.0000 0.0000
# 3 46.2416 61.2357 136.1291 0.0000 0.0000 0.0000
# 4 0.0000 0.0000 0.0000 36.9103 0.0000 0.0000
# 5 0.0000 0.0000 0.0000 0.0000 25.0285 0.0000
# 6 0.0000 0.0000 0.0000 0.0000 0.0000 22.7685
#
#
#
# Elastic Compliance Matrix: (Units=1/GPa)
#
#
# Indices 1 2 3 4 5 6 
#
# 1 0.022338 -0.003993 -0.005792 0.000000 0.000000 0.000000
# 2 -0.003993 0.012527 -0.004279 0.000000 0.000000 0.000000
# 3 -0.005792 -0.004279 0.011238 0.000000 0.000000 0.000000
# 4 0.000000 0.000000 0.000000 0.027093 0.000000 0.000000
# 5 0.000000 0.000000 0.000000 0.000000 0.039954 0.000000
# 6 0.000000 0.000000 0.000000 0.000000 0.000000 0.043920
#
#
# Mechanical properties :
#
#
# Convention : Reuss Voigt Hill
#
# Bulk Modulus (GPa) = 55.62840 66.47989 61.05414
# Shear Modulus (GPa) = 26.15190 28.14766 27.14978
#
# Velocity S-wave (km/s) = 3.77228 3.91358 3.84358
# Velocity P-wave (km/s) = 7.01732 7.52299 7.27455
#
# Compressibility (1/GPa) = 0.01797643
#
# Stress axis : x y z
#
# Youngs Moduli (GPa) = 44.76630 79.82566 88.98193
#
# Poissons Ratio (x) = 0.31873 0.51538
# Poissons Ratio (y) = 0.17874 0.38075
# Poissons Ratio (z) = 0.25928 0.34157
#
# Static dielectric constant tensor:
#      x y z
#    x 3.058240 0.000000 0.000000 
#    y 0.000000 3.416550 0.000000 
#    z 0.000000 0.000000 3.581530 
# 
# 
# High freq. dielectric constant tensor:
#      x y z
#    x 1.674930 0.000000 0.000000 
#    y 0.000000 1.721870 0.000000 
#    z 0.000000 0.000000 1.723770 
# 
# From -- ./inp_files/49077.got.cif
#   From: 2010.03.12/outbox.cif.g09.slc.cpg/sg74_25_cif.got.tgz:49077.got - 2010.04.16 15:46:19.
