data_PCOD8299134
_publ_section_title
;
Structure prediction by ZEFSAII (Michael W. Deem and Ramdas Pophale) SiO2 
 PCOD8299134
Probable space group: I M M A
;
_chemical_formula_sum "Si O2"
_cell_formula_units_Z 96
_cell_length_a 28.334206
_cell_length_b 17.539324
_cell_length_c 10.245866
_cell_angle_alpha 90.000000
_cell_angle_beta 90.000000
_cell_angle_gamma 90.000000
_cell_volume 5091.814454
_symmetry_space_group_name_H-M "I M M A"
_symmetry_group_IT_number 74
_symmetry_cell_setting 'orthorhombic'
loop_
_space_group_symop_operation_xyz
x,y,z
-x,1/2-y,z
x,-y,-z
-x,1/2+y,-z
-x,-y,-z
x,1/2+y,-z
-x,y,z
x,1/2-y,z
1/2+x,1/2+y,1/2+z
1/2-x,-y,1/2+z
1/2+x,1/2-y,1/2-z
1/2-x,y,1/2-z
1/2-x,1/2-y,1/2-z
1/2+x,y,1/2-z
1/2-x,1/2+y,1/2+z
1/2+x,-y,1/2+z
loop_
_atom_site_type_symbol
_atom_site_label
_atom_site_fract_x
_atom_site_fract_y
_atom_site_fract_z
Si Si1 0.145365 0.089414 0.983604
Si Si2 0.803329 0.159286 0.227739
Si Si3 0.446680 0.839441 0.403250
Si Si4 0.448639 0.840763 0.105817
Si Si5 0.804528 0.338937 0.742066
Si Si6 0.355467 0.659913 0.980517
O O1 0.177234 0.128361 0.092764
O O2 0.090956 0.117015 0.994246
O O3 0.166044 0.111905 0.843825
O O4 0.147327 0.000000 0.000000
O O5 0.804683 0.250000 0.223409
O O6 0.750000 0.130526 0.250000
O O7 0.835388 0.125925 0.345786
O O8 0.500000 0.858846 0.449918
O O9 0.436987 0.750000 0.416168
O O10 0.439449 0.866972 0.254191
O O11 0.500000 0.870426 0.057548
O O12 0.447934 0.750000 0.104549
O O13 0.407841 0.873474 0.010915
O O14 0.814094 0.250000 0.771173
O O15 0.750000 0.359848 0.750000
O O16 0.820637 0.362330 0.597591
O O17 0.358335 0.750000 0.967218
#
# Coordination Sequence:
#
# PCOD8299134 Si02
#       6
#    16  16  16  16  16  16
#     4  12  24  36  53  81 119 157 185 222 280 346
#     4  10  21  38  58  80 110 146 184 232 286 331
#     4   9  17  33  59  84 106 140 190 243 282 318
#     4   8  13  24  48  80 106 128 165 225 283 319
#     4  10  19  34  58  81 100 133 191 246 274 317
#     4   9  16  29  52  79 102 129 174 232 283 319
#
# _framework density 18.853788999999999
#
# number of rings (size 3 to 8) (size 9 to 14) (size 15 to 20)
#    0.000    2.333    1.667    3.500    0.000    3.667 
#    0.000    1.667    0.000    3.000    0.000    2.333 
#    0.000    0.000    0.000    0.000    0.000    0.000 
#
# Total GULP energy -595069.507255 kJ/mol
# GULP energy per Si atom -12397.281401 kJ/mol
# Density = 1.881088 g / cm^3
# Si number density = 18.853789 Si / 1000 Ang^3
#
#
#
# Elastic Constant Matrix: (Units=GPa)
#
#
# Indices 1 2 3 4 5 6 
#
# 1 146.1372 17.4613 30.0940 0.0000 0.0000 0.0000
# 2 17.4613 30.4723 2.1062 0.0000 0.0000 0.0000
# 3 30.0940 2.1062 52.7654 0.0000 0.0000 0.0000
# 4 0.0000 0.0000 0.0000 4.8675 0.0000 0.0000
# 5 0.0000 0.0000 0.0000 0.0000 37.8447 0.0000
# 6 0.0000 0.0000 0.0000 0.0000 0.0000 8.9922
#
#
#
# Elastic Compliance Matrix: (Units=1/GPa)
#
#
# Indices 1 2 3 4 5 6 
#
# 1 0.008314 -0.004449 -0.004564 0.000000 0.000000 0.000000
# 2 -0.004449 0.035288 0.001129 0.000000 0.000000 0.000000
# 3 -0.004564 0.001129 0.021510 0.000000 0.000000 0.000000
# 4 0.000000 0.000000 0.000000 0.205444 0.000000 0.000000
# 5 0.000000 0.000000 0.000000 0.000000 0.026424 0.000000
# 6 0.000000 0.000000 0.000000 0.000000 0.000000 0.111207
#
#
# Mechanical properties :
#
#
# Convention : Reuss Voigt Hill
#
# Bulk Modulus (GPa) = 20.26615 36.52198 28.39406
# Shear Modulus (GPa) = 11.35320 22.32178 16.83749
#
# Velocity S-wave (km/s) = 2.45658 3.44458 2.99165
# Velocity P-wave (km/s) = 4.33807 5.93577 5.19866
#
# Compressibility (1/GPa) = 0.04934337
#
# Stress axis : x y z
#
# Youngs Moduli (GPa) = 120.27310 28.33831 46.48999
#
# Poissons Ratio (x) = 0.12607 0.21220
# Poissons Ratio (y) = 0.53508 -0.05248
# Poissons Ratio (z) = 0.54898 -0.03199
#
# Static dielectric constant tensor:
#      x y z
#    x 4.031320 0.000000 0.000000 
#    y 0.000000 3.013400 0.000000 
#    z 0.000000 0.000000 3.483820 
# 
# 
# High freq. dielectric constant tensor:
#      x y z
#    x 1.757250 0.000000 0.000000 
#    y 0.000000 1.678030 0.000000 
#    z 0.000000 0.000000 1.722890 
# 
# From -- ./inp_files/15116.got.cif
#   From: 2010.03.12/outbox.cif.g09.slc.cpg/sg74_8_cif.got.tgz:15116.got - 2010.04.16 15:46:19.
