data_PCOD8299568
_publ_section_title
;
Structure prediction by ZEFSAII (Michael W. Deem and Ramdas Pophale) SiO2 
 PCOD8299568
Probable space group: I M M A
;
_chemical_formula_sum "Si O2"
_cell_formula_units_Z 72
_cell_length_a 10.012995
_cell_length_b 32.879396
_cell_length_c 13.822326
_cell_angle_alpha 90.000000
_cell_angle_beta 90.000000
_cell_angle_gamma 90.000000
_cell_volume 4550.603136
_symmetry_space_group_name_H-M "I M M A"
_symmetry_group_IT_number 74
_symmetry_cell_setting 'orthorhombic'
loop_
_space_group_symop_operation_xyz
x,y,z
-x,1/2-y,z
x,-y,-z
-x,1/2+y,-z
-x,-y,-z
x,1/2+y,-z
-x,y,z
x,1/2-y,z
1/2+x,1/2+y,1/2+z
1/2-x,-y,1/2+z
1/2+x,1/2-y,1/2-z
1/2-x,y,1/2-z
1/2-x,1/2-y,1/2-z
1/2+x,y,1/2-z
1/2-x,1/2+y,1/2+z
1/2+x,-y,1/2+z
loop_
_atom_site_type_symbol
_atom_site_label
_atom_site_fract_x
_atom_site_fract_y
_atom_site_fract_z
Si Si1 0.000000 0.019695 0.239964
Si Si2 0.500000 0.453903 0.043337
Si Si3 0.647971 0.750000 0.335051
Si Si4 0.341798 0.161613 0.653850
Si Si5 0.245610 0.415601 0.557740
Si Si6 0.750000 0.463648 0.750000
Si Si7 0.000000 0.454292 0.035023
O O1 0.000000 0.043297 0.340954
O O2 0.000000 0.051278 0.151220
O O3 0.126797 0.991591 0.224759
O O4 0.500000 0.500000 0.000000
O O5 0.375662 0.426451 0.012447
O O6 0.500000 0.750000 0.288860
O O7 0.750000 0.750000 0.250000
O O8 0.666783 0.707349 0.392773
O O9 0.500000 0.150373 0.674719
O O10 0.250000 0.158915 0.750000
O O11 0.274459 0.132163 0.574375
O O12 0.213294 0.435408 0.660591
O O13 0.372714 0.433196 0.507098
O O14 0.000000 0.500000 0.000000
#
# Coordination Sequence:
#
# PCOD8299568 Si02
#       7
#     8   8   8  16  16   8   8
#     4  12  24  36  52  66  96 132 180 214 268 290
#     4  12  24  38  50  73  99 137 175 221 261 303
#     4   8  16  32  48  74 106 137 167 200 252 307
#     4  10  20  32  53  77 107 140 171 209 252 307
#     4  12  22  34  52  76 103 133 180 209 252 306
#     4  12  20  32  52  71  96 136 166 217 248 302
#     4  12  22  36  52  71  95 133 175 225 253 303
#
# _framework density 15.822079
#
# number of rings (size 3 to 8) (size 9 to 14) (size 15 to 20)
#    0.000    0.889    6.667    2.000    1.556    0.000 
#    0.000    0.000    0.000    0.000    0.000    0.000 
#    0.000    5.333    0.000    0.000    0.000    0.000 
#
# Total GULP energy -446057.252499 kJ/mol
# GULP energy per Si atom -12390.479236 kJ/mol
# Density = 1.578607 g / cm^3
# Si number density = 15.822079 Si / 1000 Ang^3
#
#
#
# Elastic Constant Matrix: (Units=GPa)
#
#
# Indices 1 2 3 4 5 6 
#
# 1 78.7442 38.1711 -7.1723 -0.0019 -0.0003 0.0017
# 2 38.1711 128.1519 29.7974 0.0005 0.0002 0.0008
# 3 -7.1723 29.7974 67.9220 -0.0064 -0.0016 0.0051
# 4 -0.0019 0.0005 -0.0064 14.0288 -0.0006 0.0016
# 5 -0.0003 0.0002 -0.0016 -0.0006 18.1258 -0.0001
# 6 0.0017 0.0008 0.0051 0.0016 -0.0001 -74.8091
#
#
#
# Elastic Compliance Matrix: (Units=1/GPa)
#
#
# Indices 1 2 3 4 5 6 
#
# 1 0.015835 -0.005685 0.004166 0.000004 0.000001 0.000001
# 2 -0.005685 0.010731 -0.005308 -0.000004 -0.000001 0.000000
# 3 0.004166 -0.005308 0.017491 0.000009 0.000002 0.000001
# 4 0.000004 -0.000004 0.000009 0.071282 0.000002 0.000002
# 5 0.000001 -0.000001 0.000002 0.000002 0.055170 0.000000
# 6 0.000001 0.000000 0.000001 0.000002 0.000000 -0.013367
#
#
# Mechanical properties :
#
#
# Convention : Reuss Voigt Hill
#
# Bulk Modulus (GPa) = 32.89162 44.04563 38.46863
# Shear Modulus (GPa) = 27.63502 5.73721 16.68612
#
# Velocity S-wave (km/s) = 4.18378 1.90629 3.25100
# Velocity P-wave (km/s) = 6.64622 5.72222 6.20145
#
# Compressibility (1/GPa) = 0.03040288
#
# Stress axis : x y z
#
# Youngs Moduli (GPa) = 63.15235 93.18963 57.17130
#
# Poissons Ratio (x) = 0.52980 -0.23819
# Poissons Ratio (y) = 0.35903 0.30346
# Poissons Ratio (z) = -0.26310 0.49465
#
# Static dielectric constant tensor:
#      x y z
#    x 3.293990 0.000000 0.000000 
#    y 0.000000 4.131830 0.000000 
#    z 0.000000 0.000000 2.970360 
# 
# 
# High freq. dielectric constant tensor:
#      x y z
#    x 1.635560 0.000000 0.000000 
#    y 0.000000 1.600860 0.000000 
#    z 0.000000 0.000000 1.575930 
# 
# From -- ./inp_files/29460.got.cif
#   From: 2010.03.12/outbox.cif.g09.slc.cpg/sg74_15_cif.got.tgz:29460.got - 2010.04.16 15:46:19.
