data_PCOD8299543
_publ_section_title
;
Structure prediction by ZEFSAII (Michael W. Deem and Ramdas Pophale) SiO2 
 PCOD8299543
Probable space group: I M M A
;
_chemical_formula_sum "Si O2"
_cell_formula_units_Z 96
_cell_length_a 23.432822
_cell_length_b 9.276717
_cell_length_c 25.085755
_cell_angle_alpha 90.000000
_cell_angle_beta 90.000000
_cell_angle_gamma 90.000000
_cell_volume 5453.132848
_symmetry_space_group_name_H-M "I M M A"
_symmetry_group_IT_number 74
_symmetry_cell_setting 'orthorhombic'
loop_
_space_group_symop_operation_xyz
x,y,z
-x,1/2-y,z
x,-y,-z
-x,1/2+y,-z
-x,-y,-z
x,1/2+y,-z
-x,y,z
x,1/2-y,z
1/2+x,1/2+y,1/2+z
1/2-x,-y,1/2+z
1/2+x,1/2-y,1/2-z
1/2-x,y,1/2-z
1/2-x,1/2-y,1/2-z
1/2+x,y,1/2-z
1/2-x,1/2+y,1/2+z
1/2+x,-y,1/2+z
loop_
_atom_site_type_symbol
_atom_site_label
_atom_site_fract_x
_atom_site_fract_y
_atom_site_fract_z
Si Si1 0.882217 0.584948 0.354383
Si Si2 0.500000 0.918726 0.197693
Si Si3 0.500000 0.084132 0.308240
Si Si4 0.821780 0.080989 0.446254
Si Si5 0.690429 0.581938 0.553221
Si Si6 0.877228 0.418028 0.155745
Si Si7 0.314025 0.084743 0.747434
O O1 0.881988 0.750000 0.374919
O O2 0.862476 0.478308 0.400411
O O3 0.839656 0.566209 0.305567
O O4 0.945122 0.536181 0.336517
O O5 0.500000 0.750000 0.210332
O O6 0.500000 0.993571 0.254596
O O7 0.500000 0.250000 0.290410
O O8 0.444821 0.048717 0.344448
O O9 0.832696 0.250000 0.453665
O O10 0.755969 0.048171 0.431674
O O11 0.839109 0.000000 0.500000
O O12 0.671631 0.500000 0.500000
O O13 0.680950 0.750000 0.542591
O O14 0.650640 0.524007 0.601089
O O15 0.863916 0.250000 0.161550
O O16 0.850165 0.494050 0.206243
O O17 0.315025 0.250000 0.728318
O O18 0.250000 0.024276 0.750000
#
# Coordination Sequence:
#
# PCOD8299543 Si02
#       7
#    16   8   8  16  16  16  16
#     4  10  20  34  52  76 106 137 173 215 259 309
#     4  10  20  36  55  74 103 144 180 215 260 309
#     4  10  20  34  53  76 104 142 182 219 259 309
#     4  10  20  35  56  79 104 136 173 214 263 317
#     4   9  19  35  54  77 105 138 174 215 265 315
#     4  10  20  34  52  76 106 139 177 219 263 311
#     4  10  20  32  50  78 108 137 171 214 264 317
#
# _framework density 17.604558999999998
#
# number of rings (size 3 to 8) (size 9 to 14) (size 15 to 20)
#    0.000    2.167    1.667    1.500    0.000    3.000 
#    0.000    0.833    0.000    0.000    0.000    0.000 
#    0.000    0.000    0.000    0.000    0.000    0.000 
#
# Total GULP energy -595333.015306 kJ/mol
# GULP energy per Si atom -12402.771152 kJ/mol
# Density = 1.756449 g / cm^3
# Si number density = 17.604559 Si / 1000 Ang^3
#
#
#
# Elastic Constant Matrix: (Units=GPa)
#
#
# Indices 1 2 3 4 5 6 
#
# 1 112.0001 29.1007 40.5074 0.0000 0.0000 0.0000
# 2 29.1007 53.7812 39.3985 0.0000 0.0000 0.0000
# 3 40.5074 39.3985 88.3879 0.0000 0.0000 0.0000
# 4 0.0000 0.0000 0.0000 35.5361 0.0000 0.0000
# 5 0.0000 0.0000 0.0000 0.0000 165.1109 0.0000
# 6 0.0000 0.0000 0.0000 0.0000 0.0000 36.7141
#
#
#
# Elastic Compliance Matrix: (Units=1/GPa)
#
#
# Indices 1 2 3 4 5 6 
#
# 1 0.011103 -0.003386 -0.003579 0.000000 0.000000 0.000000
# 2 -0.003386 0.028642 -0.011215 0.000000 0.000000 0.000000
# 3 -0.003579 -0.011215 0.017953 0.000000 0.000000 0.000000
# 4 0.000000 0.000000 0.000000 0.028140 0.000000 0.000000
# 5 0.000000 0.000000 0.000000 0.000000 0.006057 0.000000
# 6 0.000000 0.000000 0.000000 0.000000 0.000000 0.027238
#
#
# Mechanical properties :
#
#
# Convention : Reuss Voigt Hill
#
# Bulk Modulus (GPa) = 46.86579 52.46470 49.66524
# Shear Modulus (GPa) = 30.74931 57.14970 43.94951
#
# Velocity S-wave (km/s) = 4.18385 5.70381 5.00190
# Velocity P-wave (km/s) = 7.07239 8.55830 7.85058
#
# Compressibility (1/GPa) = 0.02133753
#
# Stress axis : x y z
#
# Youngs Moduli (GPa) = 90.06794 34.91388 55.70017
#
# Poissons Ratio (x) = 0.11821 0.19936
# Poissons Ratio (y) = 0.30494 0.62470
# Poissons Ratio (z) = 0.32237 0.39157
#
# Static dielectric constant tensor:
#      x y z
#    x 3.613100 0.000000 0.000000 
#    y 0.000000 3.379320 0.000000 
#    z 0.000000 0.000000 3.210550 
# 
# 
# High freq. dielectric constant tensor:
#      x y z
#    x 1.686610 0.000000 0.000000 
#    y 0.000000 1.679080 0.000000 
#    z 0.000000 0.000000 1.676860 
# 
# From -- ./inp_files/57320.got.cif
#   From: 2010.03.12/outbox.cif.g09.slc.cpg/sg74_29_cif.got.tgz:57320.got - 2010.04.16 15:46:19.
