data_PCOD8299367
_publ_section_title
;
Structure prediction by ZEFSAII (Michael W. Deem and Ramdas Pophale) SiO2 
 PCOD8299367
Probable space group: I M M A
;
_chemical_formula_sum "Si O2"
_cell_formula_units_Z 96
_cell_length_a 7.827278
_cell_length_b 30.576144
_cell_length_c 33.584560
_cell_angle_alpha 90.000000
_cell_angle_beta 90.000000
_cell_angle_gamma 90.000000
_cell_volume 8037.724879
_symmetry_space_group_name_H-M "I M M A"
_symmetry_group_IT_number 74
_symmetry_cell_setting 'orthorhombic'
loop_
_space_group_symop_operation_xyz
x,y,z
-x,1/2-y,z
x,-y,-z
-x,1/2+y,-z
-x,-y,-z
x,1/2+y,-z
-x,y,z
x,1/2-y,z
1/2+x,1/2+y,1/2+z
1/2-x,-y,1/2+z
1/2+x,1/2-y,1/2-z
1/2-x,y,1/2-z
1/2-x,1/2-y,1/2-z
1/2+x,y,1/2-z
1/2-x,1/2+y,1/2+z
1/2+x,-y,1/2+z
loop_
_atom_site_type_symbol
_atom_site_label
_atom_site_fract_x
_atom_site_fract_y
_atom_site_fract_z
Si Si1 0.197576 0.151408 0.130104
Si Si2 0.500000 0.015964 0.063803
Si Si3 0.702354 0.201886 0.444409
Si Si4 0.191613 0.066492 0.090775
Si Si5 0.309468 0.880850 0.508966
Si Si6 0.699958 0.798925 0.793477
Si Si7 0.000000 0.430918 0.518030
O O1 0.281496 0.184286 0.097607
O O2 0.260752 0.101323 0.123901
O O3 0.226350 0.167362 0.174758
O O4 0.000000 0.149766 0.119775
O O5 0.328392 0.027075 0.088839
O O6 0.500000 0.964353 0.054896
O O7 0.500000 0.043406 0.023354
O O8 0.500000 0.205249 0.440559
O O9 0.780546 0.250000 0.453132
O O10 0.748910 0.168669 0.480195
O O11 0.000000 0.048337 0.100627
O O12 0.184940 0.091547 0.049156
O O13 0.500000 0.881486 0.489475
O O14 0.170552 0.901154 0.478769
O O15 0.500000 0.797225 0.798489
O O16 0.777526 0.750000 0.799651
O O17 0.750000 0.816689 0.750000
#
# Coordination Sequence:
#
# PCOD8299367 Si02
#       7
#    16   8  16  16  16  16   8
#     4   9  16  26  40  52  63  80  99 126 162 195
#     4   9  16  24  36  48  64  82  98 126 150 180
#     4   8  13  22  36  50  63  82 105 128 159 193
#     4   8  15  25  36  51  65  79  99 122 153 188
#     4   8  14  24  34  45  64  84 102 126 151 182
#     4  10  20  30  38  49  64  82 104 128 154 189
#     4   9  16  24  33  48  62  82 105 120 152 185
#
# _framework density 11.943678999999999
#
# number of rings (size 3 to 8) (size 9 to 14) (size 15 to 20)
#    0.000    3.333    0.000    3.000    1.167    2.333 
#    1.500    3.750    0.000    0.000    0.000    0.000 
#    0.000    0.000    0.000    0.000    0.000    0.000 
#
# Total GULP energy -594715.749472 kJ/mol
# GULP energy per Si atom -12389.911447 kJ/mol
# Density = 1.191649 g / cm^3
# Si number density = 11.943679 Si / 1000 Ang^3
#
#
#
# Elastic Constant Matrix: (Units=GPa)
#
#
# Indices 1 2 3 4 5 6 
#
# 1 53.4464 34.0125 19.0439 0.0000 0.0000 0.0000
# 2 34.0125 75.0223 39.3643 0.0000 0.0000 0.0000
# 3 19.0439 39.3643 33.9418 0.0000 0.0000 0.0000
# 4 0.0000 0.0000 0.0000 19.3162 0.0000 0.0000
# 5 0.0000 0.0000 0.0000 0.0000 11.8454 0.0000
# 6 0.0000 0.0000 0.0000 0.0000 0.0000 15.0179
#
#
#
# Elastic Compliance Matrix: (Units=1/GPa)
#
#
# Indices 1 2 3 4 5 6 
#
# 1 0.026372 -0.010709 -0.002377 0.000000 0.000000 0.000000
# 2 -0.010709 0.038398 -0.038524 0.000000 0.000000 0.000000
# 3 -0.002377 -0.038524 0.075474 0.000000 0.000000 0.000000
# 4 0.000000 0.000000 0.000000 0.051770 0.000000 0.000000
# 5 0.000000 0.000000 0.000000 0.000000 0.084421 0.000000
# 6 0.000000 0.000000 0.000000 0.000000 0.000000 0.066587
#
#
# Mechanical properties :
#
#
# Convention : Reuss Voigt Hill
#
# Bulk Modulus (GPa) = 27.00887 38.58352 32.79619
# Shear Modulus (GPa) = 10.90316 13.90189 12.40253
#
# Velocity S-wave (km/s) = 3.02467 3.41538 3.22594
# Velocity P-wave (km/s) = 5.90430 6.92299 6.43384
#
# Compressibility (1/GPa) = 0.03702488
#
# Stress axis : x y z
#
# Youngs Moduli (GPa) = 37.91840 26.04312 13.24966
#
# Poissons Ratio (x) = 0.27890 0.03149
# Poissons Ratio (y) = 0.40608 0.51042
# Poissons Ratio (z) = 0.09012 1.00327
#
# Static dielectric constant tensor:
#      x y z
#    x 2.615770 0.000000 0.000000 
#    y 0.000000 2.592050 0.000000 
#    z 0.000000 0.000000 2.067880 
# 
# 
# High freq. dielectric constant tensor:
#      x y z
#    x 1.462210 0.000000 0.000000 
#    y 0.000000 1.431650 0.000000 
#    z 0.000000 0.000000 1.391360 
# 
# From -- ./inp_files/71103.got.cif
#   From: 2010.03.12/outbox.cif.g09.slc.cpg/sg74_36_cif.got.tgz:71103.got - 2010.04.16 15:46:19.
