data_PCOD8299562
_publ_section_title
;
Structure prediction by ZEFSAII (Michael W. Deem and Ramdas Pophale) SiO2 
 PCOD8299562
Probable space group: I M M A
;
_chemical_formula_sum "Si O2"
_cell_formula_units_Z 88
_cell_length_a 9.368787
_cell_length_b 22.024898
_cell_length_c 22.526170
_cell_angle_alpha 90.000000
_cell_angle_beta 90.000000
_cell_angle_gamma 90.000000
_cell_volume 4648.198096
_symmetry_space_group_name_H-M "I M M A"
_symmetry_group_IT_number 74
_symmetry_cell_setting 'orthorhombic'
loop_
_space_group_symop_operation_xyz
x,y,z
-x,1/2-y,z
x,-y,-z
-x,1/2+y,-z
-x,-y,-z
x,1/2+y,-z
-x,y,z
x,1/2-y,z
1/2+x,1/2+y,1/2+z
1/2-x,-y,1/2+z
1/2+x,1/2-y,1/2-z
1/2-x,y,1/2-z
1/2-x,1/2-y,1/2-z
1/2+x,y,1/2-z
1/2-x,1/2+y,1/2+z
1/2+x,-y,1/2+z
loop_
_atom_site_type_symbol
_atom_site_label
_atom_site_fract_x
_atom_site_fract_y
_atom_site_fract_z
Si Si1 0.662325 0.008253 0.691972
Si Si2 0.162643 0.911753 0.902283
Si Si3 0.836717 0.374268 0.876968
Si Si4 0.160810 0.682425 0.802323
Si Si5 0.168692 0.069877 0.512970
Si Si6 0.168834 0.250000 0.812910
O O1 0.500000 0.988309 0.704675
O O2 0.750000 0.991415 0.750000
O O3 0.675404 0.079512 0.678204
O O4 0.717997 0.970077 0.635178
O O5 0.175125 0.852176 0.863351
O O6 0.000000 0.923037 0.924207
O O7 0.265977 0.895865 0.956631
O O8 0.736421 0.399676 0.928875
O O9 0.786989 0.308767 0.852173
O O10 0.000000 0.371300 0.900291
O O11 0.220196 0.750000 0.813774
O O12 0.250000 0.650032 0.750000
O O13 0.000000 0.683322 0.779545
O O14 0.000000 0.078600 0.517221
O O15 0.211677 0.000000 0.500000
O O16 0.250000 0.250000 0.750000
O O17 0.000000 0.250000 0.799475
#
# Coordination Sequence:
#
# PCOD8299562 Si02
#       6
#    16  16  16  16  16   8
#     4  10  20  32  52  81 110 142 180 225 279 334
#     4  10  20  35  55  78 108 147 186 225 276 339
#     4  10  21  39  60  83 114 153 193 231 283 347
#     4   9  18  33  53  78 108 142 179 219 266 321
#     4  11  23  38  58  84 111 144 187 236 287 336
#     4  10  22  40  64  92 120 156 199 242 293 352
#
# _framework density 18.932068000000001
#
# number of rings (size 3 to 8) (size 9 to 14) (size 15 to 20)
#    0.000    2.000    1.818    1.636    0.000    3.636 
#    1.636    0.000    0.000    0.000    0.000    0.000 
#    0.000    0.000    0.000    0.000    0.000    0.000 
#
# Total GULP energy -545501.385716 kJ/mol
# GULP energy per Si atom -12397.758766 kJ/mol
# Density = 1.888898 g / cm^3
# Si number density = 18.932068 Si / 1000 Ang^3
#
#
#
# Elastic Constant Matrix: (Units=GPa)
#
#
# Indices 1 2 3 4 5 6 
#
# 1 86.6463 36.5945 69.7009 0.0000 0.0000 0.0000
# 2 36.5945 99.2091 40.1729 0.0000 0.0000 0.0000
# 3 69.7009 40.1729 119.2603 0.0000 0.0000 0.0000
# 4 0.0000 0.0000 0.0000 23.2765 0.0000 0.0000
# 5 0.0000 0.0000 0.0000 0.0000 42.6357 0.0000
# 6 0.0000 0.0000 0.0000 0.0000 0.0000 14.2020
#
#
#
# Elastic Compliance Matrix: (Units=1/GPa)
#
#
# Indices 1 2 3 4 5 6 
#
# 1 0.022778 -0.003487 -0.012138 0.000000 0.000000 0.000000
# 2 -0.003487 0.012206 -0.002074 0.000000 0.000000 0.000000
# 3 -0.012138 -0.002074 0.016177 0.000000 0.000000 0.000000
# 4 0.000000 0.000000 0.000000 0.042962 0.000000 0.000000
# 5 0.000000 0.000000 0.000000 0.000000 0.023455 0.000000
# 6 0.000000 0.000000 0.000000 0.000000 0.000000 0.070413
#
#
# Mechanical properties :
#
#
# Convention : Reuss Voigt Hill
#
# Bulk Modulus (GPa) = 63.43469 66.45027 64.94248
# Shear Modulus (GPa) = 21.86833 26.59932 24.23383
#
# Velocity S-wave (km/s) = 3.40236 3.75238 3.58165
# Velocity P-wave (km/s) = 7.00099 7.34502 7.17507
#
# Compressibility (1/GPa) = 0.01576425
#
# Stress axis : x y z
#
# Youngs Moduli (GPa) = 43.90230 81.92993 61.81483
#
# Poissons Ratio (x) = 0.28568 0.75030
# Poissons Ratio (y) = 0.15308 0.12818
# Poissons Ratio (z) = 0.53288 0.16989
#
# Static dielectric constant tensor:
#      x y z
#    x 3.450010 0.000000 0.000000 
#    y 0.000000 3.597850 0.000000 
#    z 0.000000 0.000000 3.317010 
# 
# 
# High freq. dielectric constant tensor:
#      x y z
#    x 1.728880 0.000000 0.000000 
#    y 0.000000 1.739540 0.000000 
#    z 0.000000 0.000000 1.732910 
# 
# From -- ./inp_files/48695.got.cif
#   From: 2010.03.12/outbox.cif.g09.slc.cpg/sg74_25_cif.got.tgz:48695.got - 2010.04.16 15:46:19.
