data_PCOD8299967
_publ_section_title
;
Structure prediction by ZEFSAII (Michael W. Deem and Ramdas Pophale) SiO2 
 PCOD8299967
Probable space group: I M M A
;
_chemical_formula_sum "Si O2"
_cell_formula_units_Z 112
_cell_length_a 26.300574
_cell_length_b 14.286050
_cell_length_c 16.074336
_cell_angle_alpha 90.000000
_cell_angle_beta 90.000000
_cell_angle_gamma 90.000000
_cell_volume 6039.631406
_symmetry_space_group_name_H-M "I M M A"
_symmetry_group_IT_number 74
_symmetry_cell_setting 'orthorhombic'
loop_
_space_group_symop_operation_xyz
x,y,z
-x,1/2-y,z
x,-y,-z
-x,1/2+y,-z
-x,-y,-z
x,1/2+y,-z
-x,y,z
x,1/2-y,z
1/2+x,1/2+y,1/2+z
1/2-x,-y,1/2+z
1/2+x,1/2-y,1/2-z
1/2-x,y,1/2-z
1/2-x,1/2-y,1/2-z
1/2+x,y,1/2-z
1/2-x,1/2+y,1/2+z
1/2+x,-y,1/2+z
loop_
_atom_site_type_symbol
_atom_site_label
_atom_site_fract_x
_atom_site_fract_y
_atom_site_fract_z
Si Si1 0.306232 0.143431 0.780683
Si Si2 0.861890 0.141145 0.283012
Si Si3 0.941641 0.047038 0.168008
Si Si4 0.784216 0.853181 0.859087
Si Si5 0.308878 0.521022 0.904056
Si Si6 0.396118 0.352656 0.656825
Si Si7 0.870936 0.600523 0.976623
O O1 0.312464 0.250000 0.811591
O O2 0.250000 0.123132 0.750000
O O3 0.344325 0.120716 0.704935
O O4 0.317255 0.077259 0.858317
O O5 0.873000 0.250000 0.293685
O O6 0.911221 0.094550 0.242823
O O7 0.810380 0.121275 0.229281
O O8 0.851864 0.093768 0.372435
O O9 0.921138 0.084825 0.079815
O O10 0.000000 0.075734 0.176514
O O11 0.936845 0.934041 0.173863
O O12 0.757742 0.750000 0.853589
O O13 0.746154 0.934166 0.886266
O O14 0.828948 0.842466 0.926370
O O15 0.316901 0.500000 0.000000
O O16 0.416440 0.250000 0.685952
O O17 0.384882 0.342991 0.558944
O O18 0.847455 0.500000 0.000000
#
# Coordination Sequence:
#
# PCOD8299967 Si02
#       7
#    16  16  16  16  16  16  16
#     4  10  22  37  55  79 113 155 193 226 267 329
#     4  10  21  40  60  81 113 152 190 231 285 341
#     4  10  21  38  60  86 115 145 187 240 288 337
#     4  10  20  34  55  82 115 154 190 226 269 328
#     4  12  24  35  56  83 114 145 188 238 284 328
#     4  10  20  36  57  81 118 160 191 224 273 333
#     4   9  19  32  52  83 117 155 188 225 270 326
#
# _framework density 18.544177999999999
#
# number of rings (size 3 to 8) (size 9 to 14) (size 15 to 20)
#    0.000    1.857    1.429    2.571    6.000    6.000 
#    0.000    0.000    0.000    0.429    0.000    0.000 
#    0.000    0.000    0.000    0.000    0.000    0.000 
#
# Total GULP energy -694375.413426 kJ/mol
# GULP energy per Si atom -12399.560954 kJ/mol
# Density = 1.850197 g / cm^3
# Si number density = 18.544178 Si / 1000 Ang^3
#
#
#
# Elastic Constant Matrix: (Units=GPa)
#
#
# Indices 1 2 3 4 5 6 
#
# 1 80.7473 38.4437 51.7894 0.0000 0.0000 0.0000
# 2 38.4437 110.4039 59.0391 0.0000 0.0000 0.0000
# 3 51.7894 59.0391 119.7590 0.0000 0.0000 0.0000
# 4 0.0000 0.0000 0.0000 14.1071 0.0000 0.0000
# 5 0.0000 0.0000 0.0000 0.0000 7.8172 0.0000
# 6 0.0000 0.0000 0.0000 0.0000 0.0000 17.0791
#
#
#
# Elastic Compliance Matrix: (Units=1/GPa)
#
#
# Indices 1 2 3 4 5 6 
#
# 1 0.017762 -0.002821 -0.006290 0.000000 0.000000 0.000000
# 2 -0.002821 0.012748 -0.005065 0.000000 0.000000 0.000000
# 3 -0.006290 -0.005065 0.013567 0.000000 0.000000 0.000000
# 4 0.000000 0.000000 0.000000 0.070887 0.000000 0.000000
# 5 0.000000 0.000000 0.000000 0.000000 0.127922 0.000000
# 6 0.000000 0.000000 0.000000 0.000000 0.000000 0.058551
#
#
# Mechanical properties :
#
#
# Convention : Reuss Voigt Hill
#
# Bulk Modulus (GPa) = 63.59254 67.71718 65.65486
# Shear Modulus (GPa) = 14.92397 18.57655 16.75026
#
# Velocity S-wave (km/s) = 2.83994 3.16847 3.00869
# Velocity P-wave (km/s) = 6.71719 7.06976 6.89573
#
# Compressibility (1/GPa) = 0.01572512
#
# Stress axis : x y z
#
# Youngs Moduli (GPa) = 56.30029 78.44127 73.70726
#
# Poissons Ratio (x) = 0.22129 0.46364
# Poissons Ratio (y) = 0.15883 0.37331
# Poissons Ratio (z) = 0.35415 0.39729
#
# Static dielectric constant tensor:
#      x y z
#    x 3.062400 0.000000 0.000000 
#    y 0.000000 3.572090 0.000000 
#    z 0.000000 0.000000 3.370840 
# 
# 
# High freq. dielectric constant tensor:
#      x y z
#    x 1.684500 0.000000 0.000000 
#    y 0.000000 1.743820 0.000000 
#    z 0.000000 0.000000 1.704600 
# 
# From -- ./inp_files/32753.got.cif
#   From: 2010.03.12/outbox.cif.g09.slc.cpg/sg74_17_cif.got.tgz:32753.got - 2010.04.16 15:46:19.
