data_PCOD8299390
_publ_section_title
;
Structure prediction by ZEFSAII (Michael W. Deem and Ramdas Pophale) SiO2 
 PCOD8299390
Probable space group: I M M A
;
_chemical_formula_sum "Si O2"
_cell_formula_units_Z 80
_cell_length_a 9.036683
_cell_length_b 18.090594
_cell_length_c 31.532689
_cell_angle_alpha 90.000000
_cell_angle_beta 90.000000
_cell_angle_gamma 90.000000
_cell_volume 5154.931307
_symmetry_space_group_name_H-M "I M M A"
_symmetry_group_IT_number 74
_symmetry_cell_setting 'orthorhombic'
loop_
_space_group_symop_operation_xyz
x,y,z
-x,1/2-y,z
x,-y,-z
-x,1/2+y,-z
-x,-y,-z
x,1/2+y,-z
-x,y,z
x,1/2-y,z
1/2+x,1/2+y,1/2+z
1/2-x,-y,1/2+z
1/2+x,1/2-y,1/2-z
1/2-x,y,1/2-z
1/2-x,1/2-y,1/2-z
1/2+x,y,1/2-z
1/2-x,1/2+y,1/2+z
1/2+x,-y,1/2+z
loop_
_atom_site_type_symbol
_atom_site_label
_atom_site_fract_x
_atom_site_fract_y
_atom_site_fract_z
Si Si1 0.673603 0.395867 0.454237
Si Si2 0.672470 0.833349 0.455407
Si Si3 0.167200 0.469910 0.571964
Si Si4 0.332208 0.600216 0.872484
Si Si5 0.672731 0.164512 0.293537
O O1 0.500000 0.398659 0.445240
O O2 0.712358 0.348176 0.495509
O O3 0.736275 0.479514 0.460540
O O4 0.754715 0.359284 0.413076
O O5 0.500000 0.846225 0.447373
O O6 0.719687 0.750000 0.444124
O O7 0.762022 0.888525 0.424755
O O8 0.169408 0.511384 0.617909
O O9 0.000000 0.463376 0.554819
O O10 0.500000 0.629655 0.867433
O O11 0.240631 0.614587 0.830303
O O12 0.500000 0.147901 0.289457
O O13 0.704350 0.250000 0.304080
O O14 0.750000 0.141044 0.250000
#
# Coordination Sequence:
#
# PCOD8299390 Si02
#       5
#    16  16  16  16  16
#     4   9  17  30  47  64  87 120 155 193 231 270
#     4  10  20  31  44  64  89 118 154 194 234 275
#     4   9  19  32  46  64  87 117 153 191 230 272
#     4   9  19  32  47  67  90 118 154 191 225 269
#     4  10  20  33  50  71  95 123 152 184 225 269
#
# _framework density 15.519121
#
# number of rings (size 3 to 8) (size 9 to 14) (size 15 to 20)
#    1.200    1.400    0.000    2.400    0.000    6.400 
#    0.000    2.000    0.000    0.000    0.000    0.000 
#    0.000    0.800    0.000    2.600    0.000    3.800 
#
# Total GULP energy -495654.939301 kJ/mol
# GULP energy per Si atom -12391.373483 kJ/mol
# Density = 1.548380 g / cm^3
# Si number density = 15.519121 Si / 1000 Ang^3
#
#
#
# Elastic Constant Matrix: (Units=GPa)
#
#
# Indices 1 2 3 4 5 6 
#
# 1 99.3738 41.4553 43.5464 0.0000 0.0000 0.0000
# 2 41.4553 63.0582 32.6824 0.0000 0.0000 0.0000
# 3 43.5464 32.6824 74.4289 0.0000 0.0000 0.0000
# 4 0.0000 0.0000 0.0000 13.7795 0.0000 0.0000
# 5 0.0000 0.0000 0.0000 0.0000 26.2145 0.0000
# 6 0.0000 0.0000 0.0000 0.0000 0.0000 20.1464
#
#
#
# Elastic Compliance Matrix: (Units=1/GPa)
#
#
# Indices 1 2 3 4 5 6 
#
# 1 0.015710 -0.007203 -0.006028 0.000000 0.000000 0.000000
# 2 -0.007203 0.023834 -0.006251 0.000000 0.000000 0.000000
# 3 -0.006028 -0.006251 0.019708 0.000000 0.000000 0.000000
# 4 0.000000 0.000000 0.000000 0.072572 0.000000 0.000000
# 5 0.000000 0.000000 0.000000 0.000000 0.038147 0.000000
# 6 0.000000 0.000000 0.000000 0.000000 0.000000 0.049637
#
#
# Mechanical properties :
#
#
# Convention : Reuss Voigt Hill
#
# Bulk Modulus (GPa) = 49.29625 52.46989 50.88307
# Shear Modulus (GPa) = 18.84420 19.97319 19.40869
#
# Velocity S-wave (km/s) = 3.48840 3.59138 3.54026
# Velocity P-wave (km/s) = 6.93246 7.14707 7.04058
#
# Compressibility (1/GPa) = 0.02028552
#
# Stress axis : x y z
#
# Youngs Moduli (GPa) = 63.65528 41.95714 50.74203
#
# Poissons Ratio (x) = 0.30223 0.30588
# Poissons Ratio (y) = 0.45853 0.31720
# Poissons Ratio (z) = 0.38373 0.26228
#
# Static dielectric constant tensor:
#      x y z
#    x 3.069870 0.000000 0.000000 
#    y 0.000000 2.807340 0.000000 
#    z 0.000000 0.000000 2.683570 
# 
# 
# High freq. dielectric constant tensor:
#      x y z
#    x 1.614780 0.000000 0.000000 
#    y 0.000000 1.570430 0.000000 
#    z 0.000000 0.000000 1.562910 
# 
# From -- ./inp_files/70384.got.cif
#   From: 2010.03.12/outbox.cif.g09.slc.cpg/sg74_36_cif.got.tgz:70384.got - 2010.04.16 15:46:19.
