data_PCOD8299697
_publ_section_title
;
Structure prediction by ZEFSAII (Michael W. Deem and Ramdas Pophale) SiO2 
 PCOD8299697
Probable space group: I M M A
;
_chemical_formula_sum "Si O2"
_cell_formula_units_Z 96
_cell_length_a 23.666402
_cell_length_b 8.922701
_cell_length_c 24.255993
_cell_angle_alpha 90.000000
_cell_angle_beta 90.000000
_cell_angle_gamma 90.000000
_cell_volume 5122.095079
_symmetry_space_group_name_H-M "I M M A"
_symmetry_group_IT_number 74
_symmetry_cell_setting 'orthorhombic'
loop_
_space_group_symop_operation_xyz
x,y,z
-x,1/2-y,z
x,-y,-z
-x,1/2+y,-z
-x,-y,-z
x,1/2+y,-z
-x,y,z
x,1/2-y,z
1/2+x,1/2+y,1/2+z
1/2-x,-y,1/2+z
1/2+x,1/2-y,1/2-z
1/2-x,y,1/2-z
1/2-x,1/2-y,1/2-z
1/2+x,y,1/2-z
1/2-x,1/2+y,1/2+z
1/2+x,-y,1/2+z
loop_
_atom_site_type_symbol
_atom_site_label
_atom_site_fract_x
_atom_site_fract_y
_atom_site_fract_z
Si Si1 0.271924 0.423667 0.346148
Si Si2 0.564757 0.926125 0.942957
Si Si3 0.857712 0.427387 0.772203
Si Si4 0.061882 0.573478 0.130882
Si Si5 0.360771 0.423057 0.159986
Si Si6 0.338218 0.573474 0.442287
O O1 0.288837 0.250000 0.349435
O O2 0.298978 0.492896 0.290296
O O3 0.205364 0.446839 0.347985
O O4 0.293740 0.512276 0.398831
O O5 0.500000 0.971831 0.929706
O O6 0.571123 0.750000 0.950614
O O7 0.604707 0.982841 0.893143
O O8 0.585319 0.000000 0.000000
O O9 0.848156 0.250000 0.773694
O O10 0.906096 0.481766 0.814447
O O11 0.879070 0.479523 0.712563
O O12 0.055139 0.750000 0.134262
O O13 0.098427 0.529523 0.077122
O O14 0.000000 0.497057 0.126880
O O15 0.375818 0.250000 0.171047
O O16 0.324716 0.500000 0.500000
O O17 0.330297 0.750000 0.446618
#
# Coordination Sequence:
#
# PCOD8299697 Si02
#       6
#    16  16  16  16  16  16
#     4  10  20  35  53  73 103 139 172 211 256 301
#     4   9  19  37  57  76 102 133 166 208 255 302
#     4  10  20  33  52  78 106 136 170 210 254 301
#     4   8  16  32  51  72 101 135 170 210 253 295
#     4  10  21  35  53  78 104 134 170 206 251 306
#     4  10  20  34  53  76 103 136 173 214 258 304
#
# _framework density 18.742329999999999
#
# number of rings (size 3 to 8) (size 9 to 14) (size 15 to 20)
#    0.000    2.500    0.000    3.000    0.000    5.667 
#    0.000    1.667    0.000   17.000    0.000    0.000 
#    0.000    0.000    0.000    0.000    0.000    0.000 
#
# Total GULP energy -595157.339527 kJ/mol
# GULP energy per Si atom -12399.111240 kJ/mol
# Density = 1.869967 g / cm^3
# Si number density = 18.742330 Si / 1000 Ang^3
#
#
#
# Elastic Constant Matrix: (Units=GPa)
#
#
# Indices 1 2 3 4 5 6 
#
# 1 43.1943 10.7723 17.8518 0.0000 0.0000 0.0000
# 2 10.7723 60.4851 32.1664 0.0000 0.0000 0.0000
# 3 17.8518 32.1664 126.5832 0.0000 0.0000 0.0000
# 4 0.0000 0.0000 0.0000 37.0905 0.0000 0.0000
# 5 0.0000 0.0000 0.0000 0.0000 27.7498 0.0000
# 6 0.0000 0.0000 0.0000 0.0000 0.0000 21.3542
#
#
#
# Elastic Compliance Matrix: (Units=1/GPa)
#
#
# Indices 1 2 3 4 5 6 
#
# 1 0.025042 -0.002985 -0.002773 0.000000 0.000000 0.000000
# 2 -0.002985 0.019472 -0.004527 0.000000 0.000000 0.000000
# 3 -0.002773 -0.004527 0.009441 0.000000 0.000000 0.000000
# 4 0.000000 0.000000 0.000000 0.026961 0.000000 0.000000
# 5 0.000000 0.000000 0.000000 0.000000 0.036036 0.000000
# 6 0.000000 0.000000 0.000000 0.000000 0.000000 0.046829
#
#
# Mechanical properties :
#
#
# Convention : Reuss Voigt Hill
#
# Bulk Modulus (GPa) = 29.95385 39.09373 34.52379
# Shear Modulus (GPa) = 25.57794 28.53704 27.05749
#
# Velocity S-wave (km/s) = 3.69821 3.90628 3.80367
# Velocity P-wave (km/s) = 5.85255 6.42255 6.14416
#
# Compressibility (1/GPa) = 0.03338469
#
# Stress axis : x y z
#
# Youngs Moduli (GPa) = 39.93332 51.35519 105.91624
#
# Poissons Ratio (x) = 0.15330 0.29371
# Poissons Ratio (y) = 0.11921 0.47950
# Poissons Ratio (z) = 0.11074 0.23249
#
# Static dielectric constant tensor:
#      x y z
#    x 3.639430 0.000000 0.000000 
#    y 0.000000 3.335170 0.000000 
#    z 0.000000 0.000000 3.528120 
# 
# 
# High freq. dielectric constant tensor:
#      x y z
#    x 1.726530 0.000000 0.000000 
#    y 0.000000 1.717730 0.000000 
#    z 0.000000 0.000000 1.733630 
# 
# From -- ./inp_files/57288.got.cif
#   From: 2010.03.12/outbox.cif.g09.slc.cpg/sg74_29_cif.got.tgz:57288.got - 2010.04.16 15:46:19.
