data_PCOD8299978
_publ_section_title
;
Structure prediction by ZEFSAII (Michael W. Deem and Ramdas Pophale) SiO2 
 PCOD8299978
Probable space group: I M M A
;
_chemical_formula_sum "Si O2"
_cell_formula_units_Z 80
_cell_length_a 14.236616
_cell_length_b 8.872359
_cell_length_c 30.773072
_cell_angle_alpha 90.000000
_cell_angle_beta 90.000000
_cell_angle_gamma 90.000000
_cell_volume 3887.019598
_symmetry_space_group_name_H-M "I M M A"
_symmetry_group_IT_number 74
_symmetry_cell_setting 'orthorhombic'
loop_
_space_group_symop_operation_xyz
x,y,z
-x,1/2-y,z
x,-y,-z
-x,1/2+y,-z
-x,-y,-z
x,1/2+y,-z
-x,y,z
x,1/2-y,z
1/2+x,1/2+y,1/2+z
1/2-x,-y,1/2+z
1/2+x,1/2-y,1/2-z
1/2-x,y,1/2-z
1/2-x,1/2-y,1/2-z
1/2+x,y,1/2-z
1/2-x,1/2+y,1/2+z
1/2+x,-y,1/2+z
loop_
_atom_site_type_symbol
_atom_site_label
_atom_site_fract_x
_atom_site_fract_y
_atom_site_fract_z
Si Si1 0.206431 0.072918 0.957255
Si Si2 0.896522 0.583292 0.352650
Si Si3 0.751490 0.080249 0.301159
Si Si4 0.607355 0.574813 0.625395
Si Si5 0.605793 0.575836 0.939983
O O1 0.191780 0.250000 0.958810
O O2 0.163180 0.011689 0.912499
O O3 0.317176 0.031752 0.961898
O O4 0.156431 0.000000 0.000000
O O5 0.871944 0.750000 0.371707
O O6 0.827260 0.542739 0.314302
O O7 0.888377 0.455216 0.388867
O O8 0.000000 0.584454 0.332316
O O9 0.783256 0.250000 0.312812
O O10 0.750000 0.060109 0.250000
O O11 0.654685 0.045009 0.327343
O O12 0.500000 0.516571 0.627783
O O13 0.610533 0.750000 0.613283
O O14 0.500000 0.536980 0.956865
O O15 0.631053 0.750000 0.948511
#
# Coordination Sequence:
#
# PCOD8299978 Si02
#       5
#    16  16  16  16  16
#     4  12  25  41  64  92 124 163 208 260 315 375
#     4  10  20  34  55  85 120 158 197 241 297 359
#     4  10  21  37  61  92 124 161 205 252 304 365
#     4  10  22  42  65  89 123 165 210 262 315 367
#     4  10  20  36  60  89 122 160 200 245 301 364
#
# _framework density 20.581320999999999
#
# number of rings (size 3 to 8) (size 9 to 14) (size 15 to 20)
#    0.000    1.600    2.000    3.000    0.000    4.800 
#    0.000    2.000    0.000    0.000    0.000    0.000 
#    0.000    0.000    0.000    0.000    0.000    0.000 
#
# Total GULP energy -495767.377284 kJ/mol
# GULP energy per Si atom -12394.184432 kJ/mol
# Density = 2.053448 g / cm^3
# Si number density = 20.581321 Si / 1000 Ang^3
#
#
#
# Elastic Constant Matrix: (Units=GPa)
#
#
# Indices 1 2 3 4 5 6 
#
# 1 106.9920 44.7884 50.6118 0.0000 0.0000 0.0000
# 2 44.7884 97.6335 44.6018 0.0000 0.0000 0.0000
# 3 50.6118 44.6018 123.4532 0.0000 0.0000 0.0000
# 4 0.0000 0.0000 0.0000 28.6272 0.0000 0.0000
# 5 0.0000 0.0000 0.0000 0.0000 7.4065 0.0000
# 6 0.0000 0.0000 0.0000 0.0000 0.0000 26.1470
#
#
#
# Elastic Compliance Matrix: (Units=1/GPa)
#
#
# Indices 1 2 3 4 5 6 
#
# 1 0.012882 -0.004188 -0.003768 0.000000 0.000000 0.000000
# 2 -0.004188 0.013629 -0.003207 0.000000 0.000000 0.000000
# 3 -0.003768 -0.003207 0.010804 0.000000 0.000000 0.000000
# 4 0.000000 0.000000 0.000000 0.034932 0.000000 0.000000
# 5 0.000000 0.000000 0.000000 0.000000 0.135017 0.000000
# 6 0.000000 0.000000 0.000000 0.000000 0.000000 0.038245
#
#
# Mechanical properties :
#
#
# Convention : Reuss Voigt Hill
#
# Bulk Modulus (GPa) = 66.71922 67.56475 67.14199
# Shear Modulus (GPa) = 18.32636 24.97457 21.65046
#
# Velocity S-wave (km/s) = 2.98726 3.48725 3.24689
# Velocity P-wave (km/s) = 6.66228 7.00814 6.83740
#
# Compressibility (1/GPa) = 0.01498818
#
# Stress axis : x y z
#
# Youngs Moduli (GPa) = 77.62631 73.37497 92.56147
#
# Poissons Ratio (x) = 0.30731 0.34879
# Poissons Ratio (y) = 0.32511 0.29683
# Poissons Ratio (z) = 0.29251 0.23530
#
# Static dielectric constant tensor:
#      x y z
#    x 3.887660 0.000000 0.000000 
#    y 0.000000 3.718880 0.000000 
#    z 0.000000 0.000000 3.628040 
# 
# 
# High freq. dielectric constant tensor:
#      x y z
#    x 1.800020 0.000000 0.000000 
#    y 0.000000 1.806210 0.000000 
#    z 0.000000 0.000000 1.802690 
# 
# From -- ./inp_files/72862.got.cif
#   From: 2010.03.12/outbox.cif.g09.slc.cpg/sg74_37_cif.got.tgz:72862.got - 2010.04.16 15:46:19.
