data_PCOD8299862
_publ_section_title
;
Structure prediction by ZEFSAII (Michael W. Deem and Ramdas Pophale) SiO2 
 PCOD8299862
Probable space group: I M M A
;
_chemical_formula_sum "Si O2"
_cell_formula_units_Z 104
_cell_length_a 9.272279
_cell_length_b 20.860493
_cell_length_c 27.797657
_cell_angle_alpha 90.000000
_cell_angle_beta 90.000000
_cell_angle_gamma 90.000000
_cell_volume 5376.742657
_symmetry_space_group_name_H-M "I M M A"
_symmetry_group_IT_number 74
_symmetry_cell_setting 'orthorhombic'
loop_
_space_group_symop_operation_xyz
x,y,z
-x,1/2-y,z
x,-y,-z
-x,1/2+y,-z
-x,-y,-z
x,1/2+y,-z
-x,y,z
x,1/2-y,z
1/2+x,1/2+y,1/2+z
1/2-x,-y,1/2+z
1/2+x,1/2-y,1/2-z
1/2-x,y,1/2-z
1/2-x,1/2-y,1/2-z
1/2+x,y,1/2-z
1/2-x,1/2+y,1/2+z
1/2+x,-y,1/2+z
loop_
_atom_site_type_symbol
_atom_site_label
_atom_site_fract_x
_atom_site_fract_y
_atom_site_fract_z
Si Si1 0.835505 0.937730 0.702128
Si Si2 0.836888 0.322481 0.362245
Si Si3 0.667141 0.250000 0.699452
Si Si4 0.666910 0.390272 0.443707
Si Si5 0.665845 0.654973 0.383840
Si Si6 0.665323 0.821168 0.023289
Si Si7 0.663760 0.994714 0.378474
O O1 0.750000 0.950970 0.750000
O O2 0.816794 0.864119 0.685899
O O3 0.000000 0.956115 0.711553
O O4 0.776370 0.983926 0.661211
O O5 0.805572 0.250000 0.346987
O O6 0.723464 0.343404 0.402227
O O7 0.000000 0.331215 0.382715
O O8 0.500000 0.250000 0.713172
O O9 0.750000 0.250000 0.750000
O O10 0.706138 0.313509 0.667851
O O11 0.500000 0.375294 0.453015
O O12 0.751922 0.375043 0.492524
O O13 0.690626 0.464419 0.427591
O O14 0.500000 0.671708 0.395696
O O15 0.766987 0.685358 0.424018
O O16 0.692762 0.579471 0.386273
O O17 0.500000 0.842949 0.027673
O O18 0.676156 0.750000 0.999306
O O19 0.500000 0.007432 0.360767
#
# Coordination Sequence:
#
# PCOD8299862 Si02
#       7
#    16  16   8  16  16  16  16
#     4  10  20  34  53  76 105 142 183 229 280 333
#     4   9  18  33  51  73 105 143 185 233 280 326
#     4  10  22  40  64  90 116 146 182 230 285 342
#     4  10  20  34  54  81 112 149 188 228 276 331
#     4  10  21  40  63  86 112 144 184 229 279 333
#     4  11  23  37  56  83 116 152 188 230 276 327
#     4   9  20  38  58  81 111 144 184 233 282 336
#
# _framework density 19.342566000000001
#
# number of rings (size 3 to 8) (size 9 to 14) (size 15 to 20)
#    0.000    2.154    0.769    1.846    0.000    7.077 
#    0.000    4.615    0.000    0.000    0.000    0.000 
#    0.000    0.000    0.000    0.000    0.000    0.000 
#
# Total GULP energy -644761.323218 kJ/mol
# GULP energy per Si atom -12399.256216 kJ/mol
# Density = 1.929854 g / cm^3
# Si number density = 19.342566 Si / 1000 Ang^3
#
#
#
# Elastic Constant Matrix: (Units=GPa)
#
#
# Indices 1 2 3 4 5 6 
#
# 1 125.3958 49.1718 68.4429 0.0000 0.0000 0.0000
# 2 49.1718 117.7395 37.4608 0.0000 0.0000 0.0000
# 3 68.4429 37.4608 112.6742 0.0000 0.0000 0.0000
# 4 0.0000 0.0000 0.0000 16.3964 0.0000 0.0000
# 5 0.0000 0.0000 0.0000 0.0000 39.7948 0.0000
# 6 0.0000 0.0000 0.0000 0.0000 0.0000 23.1160
#
#
#
# Elastic Compliance Matrix: (Units=1/GPa)
#
#
# Indices 1 2 3 4 5 6 
#
# 1 0.012955 -0.003250 -0.006789 0.000000 0.000000 0.000000
# 2 -0.003250 0.010314 -0.001455 0.000000 0.000000 0.000000
# 3 -0.006789 -0.001455 0.013482 0.000000 0.000000 0.000000
# 4 0.000000 0.000000 0.000000 0.060989 0.000000 0.000000
# 5 0.000000 0.000000 0.000000 0.000000 0.025129 0.000000
# 6 0.000000 0.000000 0.000000 0.000000 0.000000 0.043260
#
#
# Mechanical properties :
#
#
# Convention : Reuss Voigt Hill
#
# Bulk Modulus (GPa) = 72.65497 73.99561 73.32529
# Shear Modulus (GPa) = 25.81268 29.24371 27.52820
#
# Velocity S-wave (km/s) = 3.65705 3.89251 3.77662
# Velocity P-wave (km/s) = 7.44820 7.65118 7.55038
#
# Compressibility (1/GPa) = 0.01376368
#
# Stress axis : x y z
#
# Youngs Moduli (GPa) = 77.19266 96.95957 74.17099
#
# Poissons Ratio (x) = 0.31516 0.50351
# Poissons Ratio (y) = 0.25091 0.10789
# Poissons Ratio (z) = 0.52402 0.14103
#
# Static dielectric constant tensor:
#      x y z
#    x 3.615000 0.000000 0.000000 
#    y 0.000000 3.631670 0.000000 
#    z 0.000000 0.000000 3.346440 
# 
# 
# High freq. dielectric constant tensor:
#      x y z
#    x 1.759410 0.000000 0.000000 
#    y 0.000000 1.756910 0.000000 
#    z 0.000000 0.000000 1.740360 
# 
# From -- ./inp_files/64424.got.cif
#   From: 2010.03.12/outbox.cif.g09.slc.cpg/sg74_33_cif.got.tgz:64424.got - 2010.04.16 15:46:19.
