data_PCOD8299742
_publ_section_title
;
Structure prediction by ZEFSAII (Michael W. Deem and Ramdas Pophale) SiO2 
 PCOD8299742
Probable space group: I M M A
;
_chemical_formula_sum "Si O2"
_cell_formula_units_Z 96
_cell_length_a 15.761466
_cell_length_b 20.493803
_cell_length_c 15.808980
_cell_angle_alpha 90.000000
_cell_angle_beta 90.000000
_cell_angle_gamma 90.000000
_cell_volume 5106.496242
_symmetry_space_group_name_H-M "I M M A"
_symmetry_group_IT_number 74
_symmetry_cell_setting 'orthorhombic'
loop_
_space_group_symop_operation_xyz
x,y,z
-x,1/2-y,z
x,-y,-z
-x,1/2+y,-z
-x,-y,-z
x,1/2+y,-z
-x,y,z
x,1/2-y,z
1/2+x,1/2+y,1/2+z
1/2-x,-y,1/2+z
1/2+x,1/2-y,1/2-z
1/2-x,y,1/2-z
1/2-x,1/2-y,1/2-z
1/2+x,y,1/2-z
1/2-x,1/2+y,1/2+z
1/2+x,-y,1/2+z
loop_
_atom_site_type_symbol
_atom_site_label
_atom_site_fract_x
_atom_site_fract_y
_atom_site_fract_z
Si Si1 0.753796 0.422647 0.002120
Si Si2 0.899841 0.250000 0.101259
Si Si3 0.098021 0.502267 0.755713
Si Si4 0.592885 0.949770 0.075170
Si Si5 0.901161 0.609776 0.118017
Si Si6 0.192724 0.628115 0.825525
Si Si7 0.402148 0.250000 0.587485
O O1 0.748622 0.392129 0.095182
O O2 0.746270 0.500000 0.000000
O O3 0.669304 0.399035 0.949199
O O4 0.844791 0.404738 0.963860
O O5 0.871608 0.185036 0.150051
O O6 0.000000 0.250000 0.100531
O O7 0.859031 0.250000 0.006244
O O8 0.120817 0.490164 0.658274
O O9 0.125350 0.436416 0.805068
O O10 0.146625 0.563410 0.792918
O O11 0.000000 0.517072 0.769311
O O12 0.500000 0.915076 0.090862
O O13 0.579707 0.000000 0.000000
O O14 0.880367 0.685335 0.142089
O O15 0.000000 0.600410 0.092682
O O16 0.250000 0.656026 0.750000
O O17 0.500000 0.250000 0.565068
#
# Coordination Sequence:
#
# PCOD8299742 Si02
#       7
#    16   8  16  16  16  16   8
#     4  11  20  33  54  82 113 151 183 239 294 340
#     4  11  23  39  57  76 112 160 194 231 292 357
#     4  10  21  36  58  87 117 147 188 245 290 340
#     4   9  19  36  55  79 112 151 193 234 287 344
#     4  10  20  33  55  87 117 147 184 230 292 358
#     4  12  23  36  55  84 114 147 195 241 288 345
#     4   9  18  35  55  79 116 155 185 220 282 360
#
# _framework density 18.799582999999998
#
# number of rings (size 3 to 8) (size 9 to 14) (size 15 to 20)
#    0.000    1.667    3.333    2.750    0.000    1.000 
#    0.000    0.833    0.000    3.000    0.000    5.250 
#    0.000    6.667    0.000    0.000    0.000    0.000 
#
# Total GULP energy -594784.588797 kJ/mol
# GULP energy per Si atom -12391.345600 kJ/mol
# Density = 1.875679 g / cm^3
# Si number density = 18.799583 Si / 1000 Ang^3
#
#
#
# Elastic Constant Matrix: (Units=GPa)
#
#
# Indices 1 2 3 4 5 6 
#
# 1 90.8200 34.7418 34.7240 0.0000 0.0000 0.0000
# 2 34.7418 109.5405 50.3883 0.0000 0.0000 0.0000
# 3 34.7240 50.3883 106.9797 -0.0002 0.0000 0.0000
# 4 0.0000 0.0000 -0.0002 1.8950 0.0000 0.0000
# 5 0.0000 0.0000 0.0000 0.0000 29.1013 0.0000
# 6 0.0000 0.0000 0.0000 0.0000 0.0000 21.4761
#
#
#
# Elastic Compliance Matrix: (Units=1/GPa)
#
#
# Indices 1 2 3 4 5 6 
#
# 1 0.013226 -0.002834 -0.002958 0.000000 0.000000 0.000000
# 2 -0.002834 0.012261 -0.004855 0.000000 0.000000 0.000000
# 3 -0.002958 -0.004855 0.012595 0.000001 0.000000 0.000000
# 4 0.000000 0.000000 0.000001 0.527712 0.000000 0.000000
# 5 0.000000 0.000000 0.000000 0.000000 0.034363 0.000000
# 6 0.000000 0.000000 0.000000 0.000000 0.000000 0.046563
#
#
# Mechanical properties :
#
#
# Convention : Reuss Voigt Hill
#
# Bulk Modulus (GPa) = 59.56986 60.78316 60.17651
# Shear Modulus (GPa) = 7.42268 22.99355 15.20812
#
# Velocity S-wave (km/s) = 1.98919 3.50106 2.84731
# Velocity P-wave (km/s) = 6.08535 6.98181 6.54893
#
# Compressibility (1/GPa) = 0.01678701
#
# Stress axis : x y z
#
# Youngs Moduli (GPa) = 75.60932 81.55744 79.39915
#
# Poissons Ratio (x) = 0.23113 0.23487
# Poissons Ratio (y) = 0.21428 0.38551
# Poissons Ratio (z) = 0.22366 0.39598
#
# Static dielectric constant tensor:
#      x y z
#    x 4.250330 0.000000 0.000000 
#    y 0.000000 3.456190 0.000000 
#    z 0.000000 0.000000 3.593630 
# 
# 
# High freq. dielectric constant tensor:
#      x y z
#    x 1.737620 0.000000 0.000000 
#    y 0.000000 1.705070 0.000000 
#    z 0.000000 0.000000 1.732610 
# 
# From -- ./inp_files/32459.got.cif
#   From: 2010.03.12/outbox.cif.g09.slc.cpg/sg74_17_cif.got.tgz:32459.got - 2010.04.16 15:46:19.
