data_PCOD8299767
_publ_section_title
;
Structure prediction by ZEFSAII (Michael W. Deem and Ramdas Pophale) SiO2 
 PCOD8299767
Probable space group: I M M A
;
_chemical_formula_sum "Si O2"
_cell_formula_units_Z 80
_cell_length_a 9.173543
_cell_length_b 18.003850
_cell_length_c 27.709244
_cell_angle_alpha 90.000000
_cell_angle_beta 90.000000
_cell_angle_gamma 90.000000
_cell_volume 4576.433583
_symmetry_space_group_name_H-M "I M M A"
_symmetry_group_IT_number 74
_symmetry_cell_setting 'orthorhombic'
loop_
_space_group_symop_operation_xyz
x,y,z
-x,1/2-y,z
x,-y,-z
-x,1/2+y,-z
-x,-y,-z
x,1/2+y,-z
-x,y,z
x,1/2-y,z
1/2+x,1/2+y,1/2+z
1/2-x,-y,1/2+z
1/2+x,1/2-y,1/2-z
1/2-x,y,1/2-z
1/2-x,1/2-y,1/2-z
1/2+x,y,1/2-z
1/2-x,1/2+y,1/2+z
1/2+x,-y,1/2+z
loop_
_atom_site_type_symbol
_atom_site_label
_atom_site_fract_x
_atom_site_fract_y
_atom_site_fract_z
Si Si1 0.673220 0.333509 0.539184
Si Si2 0.669034 0.111780 0.436916
Si Si3 0.330233 0.957895 0.388874
Si Si4 0.327737 0.019001 0.200932
Si Si5 0.667517 0.168130 0.152009
O O1 0.500000 0.334449 0.536972
O O2 0.733323 0.250000 0.546285
O O3 0.734331 0.368219 0.489369
O O4 0.723961 0.383400 0.584362
O O5 0.500000 0.131783 0.434805
O O6 0.744723 0.163331 0.397471
O O7 0.697012 0.025313 0.425997
O O8 0.500000 0.954265 0.373810
O O9 0.232408 0.966358 0.341339
O O10 0.500000 0.007904 0.206068
O O11 0.250000 0.994831 0.250000
O O12 0.283576 0.104677 0.189725
O O13 0.500000 0.155349 0.138531
O O14 0.694026 0.250000 0.174914
#
# Coordination Sequence:
#
# PCOD8299767 Si02
#       5
#    16  16  16  16  16
#     4   9  16  26  44  71  99 125 155 191 227 264
#     4   9  16  27  45  69  96 127 161 190 217 258
#     4   9  17  30  48  69  94 124 156 190 228 270
#     4  10  20  34  51  69  89 116 152 193 235 278
#     4   9  18  31  45  65  96 128 154 184 224 268
#
# _framework density 17.480861000000001
#
# number of rings (size 3 to 8) (size 9 to 14) (size 15 to 20)
#    0.000    2.800    0.000    1.800    0.000    4.800 
#    0.000    1.000    0.000    7.200    0.000    0.000 
#    0.000    0.000    0.000    0.000    0.000    0.000 
#
# Total GULP energy -495930.088439 kJ/mol
# GULP energy per Si atom -12398.252211 kJ/mol
# Density = 1.744107 g / cm^3
# Si number density = 17.480861 Si / 1000 Ang^3
#
#
#
# Elastic Constant Matrix: (Units=GPa)
#
#
# Indices 1 2 3 4 5 6 
#
# 1 45.9806 24.9555 43.7140 0.0000 0.0000 0.0000
# 2 24.9555 91.8553 58.6103 0.0000 0.0000 0.0000
# 3 43.7140 58.6103 130.8406 0.0000 0.0000 0.0000
# 4 0.0000 0.0000 0.0000 14.8666 0.0000 0.0000
# 5 0.0000 0.0000 0.0000 0.0000 25.0973 0.0000
# 6 0.0000 0.0000 0.0000 0.0000 0.0000 14.9147
#
#
#
# Elastic Compliance Matrix: (Units=1/GPa)
#
#
# Indices 1 2 3 4 5 6 
#
# 1 0.032325 -0.002648 -0.009614 0.000000 0.000000 0.000000
# 2 -0.002648 0.015461 -0.006041 0.000000 0.000000 0.000000
# 3 -0.009614 -0.006041 0.013561 0.000000 0.000000 0.000000
# 4 0.000000 0.000000 0.000000 0.067265 0.000000 0.000000
# 5 0.000000 0.000000 0.000000 0.000000 0.039845 0.000000
# 6 0.000000 0.000000 0.000000 0.000000 0.000000 0.067048
#
#
# Mechanical properties :
#
#
# Convention : Reuss Voigt Hill
#
# Bulk Modulus (GPa) = 40.41788 58.13735 49.27762
# Shear Modulus (GPa) = 17.83439 20.40216 19.11828
#
# Velocity S-wave (km/s) = 3.19756 3.42001 3.31065
# Velocity P-wave (km/s) = 6.06662 6.99466 6.54710
#
# Compressibility (1/GPa) = 0.02474153
#
# Stress axis : x y z
#
# Youngs Moduli (GPa) = 30.93552 64.68034 73.74139
#
# Poissons Ratio (x) = 0.17127 0.70893
# Poissons Ratio (y) = 0.08192 0.44547
# Poissons Ratio (z) = 0.29741 0.39073
#
# Static dielectric constant tensor:
#      x y z
#    x 3.035150 0.000000 0.000000 
#    y 0.000000 3.351050 0.000000 
#    z 0.000000 0.000000 3.165730 
# 
# 
# High freq. dielectric constant tensor:
#      x y z
#    x 1.652720 0.000000 0.000000 
#    y 0.000000 1.666590 0.000000 
#    z 0.000000 0.000000 1.666630 
# 
# From -- ./inp_files/63891.got.cif
#   From: 2010.03.12/outbox.cif.g09.slc.cpg/sg74_32_cif.got.tgz:63891.got - 2010.04.16 15:46:19.
