data_PCOD8299049
_publ_section_title
;
Structure prediction by ZEFSAII (Michael W. Deem and Ramdas Pophale) SiO2 
 PCOD8299049
Probable space group: I M M A
;
_chemical_formula_sum "Si O2"
_cell_formula_units_Z 72
_cell_length_a 15.514888
_cell_length_b 8.692889
_cell_length_c 26.882373
_cell_angle_alpha 90.000000
_cell_angle_beta 90.000000
_cell_angle_gamma 90.000000
_cell_volume 3625.604120
_symmetry_space_group_name_H-M "I M M A"
_symmetry_group_IT_number 74
_symmetry_cell_setting 'orthorhombic'
loop_
_space_group_symop_operation_xyz
x,y,z
-x,1/2-y,z
x,-y,-z
-x,1/2+y,-z
-x,-y,-z
x,1/2+y,-z
-x,y,z
x,1/2-y,z
1/2+x,1/2+y,1/2+z
1/2-x,-y,1/2+z
1/2+x,1/2-y,1/2-z
1/2-x,y,1/2-z
1/2-x,1/2-y,1/2-z
1/2+x,y,1/2-z
1/2-x,1/2+y,1/2+z
1/2+x,-y,1/2+z
loop_
_atom_site_type_symbol
_atom_site_label
_atom_site_fract_x
_atom_site_fract_y
_atom_site_fract_z
Si Si1 0.659577 0.568182 0.273399
Si Si2 0.500000 0.067559 0.101634
Si Si3 0.000000 0.067058 0.945545
Si Si4 0.829731 0.067021 0.553811
Si Si5 0.664424 0.567517 0.385498
Si Si6 0.000000 0.068733 0.284453
O O1 0.646354 0.750000 0.271972
O O2 0.750000 0.518541 0.250000
O O3 0.657055 0.503522 0.329538
O O4 0.584623 0.493127 0.241799
O O5 0.500000 0.250000 0.096729
O O6 0.500000 0.011829 0.158611
O O7 0.582337 0.000712 0.074180
O O8 0.083958 0.003970 0.916949
O O9 0.000000 0.250000 0.948251
O O10 0.000000 0.000000 0.000000
O O11 0.836070 0.250000 0.550957
O O12 0.753226 0.010738 0.590019
O O13 0.808967 0.000000 0.500000
O O14 0.662334 0.750000 0.384264
O O15 0.000000 0.250000 0.281481
#
# Coordination Sequence:
#
# PCOD8299049 Si02
#       6
#    16   8   8  16  16   8
#     4  10  20  37  62  87 111 146 193 237 279 336
#     4  11  24  41  58  80 113 152 191 232 283 340
#     4  10  19  34  54  77 109 144 179 220 267 319
#     4  11  22  38  60  86 115 148 189 234 283 336
#     4   9  19  35  57  84 113 146 183 227 276 327
#     4  11  24  39  57  85 120 154 187 234 296 349
#
# _framework density 19.858758999999999
#
# number of rings (size 3 to 8) (size 9 to 14) (size 15 to 20)
#    0.000    1.778    0.000    4.333    0.000    5.778 
#    0.000    5.556    0.000    0.000    0.000    0.000 
#    0.000    0.000    0.000    0.000    0.000    0.000 
#
# Total GULP energy -446534.873524 kJ/mol
# GULP energy per Si atom -12403.746487 kJ/mol
# Density = 1.981356 g / cm^3
# Si number density = 19.858759 Si / 1000 Ang^3
#
#
#
# Elastic Constant Matrix: (Units=GPa)
#
#
# Indices 1 2 3 4 5 6 
#
# 1 108.5983 19.9462 21.5692 0.0000 0.0000 0.0000
# 2 19.9462 42.8443 21.2693 0.0000 0.0000 0.0000
# 3 21.5692 21.2693 123.4933 0.0000 0.0000 0.0000
# 4 0.0000 0.0000 0.0000 31.8866 0.0000 0.0000
# 5 0.0000 0.0000 0.0000 0.0000 48.8807 0.0000
# 6 0.0000 0.0000 0.0000 0.0000 0.0000 14.9893
#
#
#
# Elastic Compliance Matrix: (Units=1/GPa)
#
#
# Indices 1 2 3 4 5 6 
#
# 1 0.010193 -0.004223 -0.001053 0.000000 0.000000 0.000000
# 2 -0.004223 0.027272 -0.003960 0.000000 0.000000 0.000000
# 3 -0.001053 -0.003960 0.008963 0.000000 0.000000 0.000000
# 4 0.000000 0.000000 0.000000 0.031361 0.000000 0.000000
# 5 0.000000 0.000000 0.000000 0.000000 0.020458 0.000000
# 6 0.000000 0.000000 0.000000 0.000000 0.000000 0.066714
#
#
# Mechanical properties :
#
#
# Convention : Reuss Voigt Hill
#
# Bulk Modulus (GPa) = 35.76801 44.50060 40.13430
# Shear Modulus (GPa) = 25.94020 33.29473 29.61746
#
# Velocity S-wave (km/s) = 3.61811 4.09904 3.86606
# Velocity P-wave (km/s) = 5.95857 6.69777 6.33895
#
# Compressibility (1/GPa) = 0.02795794
#
# Stress axis : x y z
#
# Youngs Moduli (GPa) = 98.10703 36.66799 111.56385
#
# Poissons Ratio (x) = 0.15483 0.11748
# Poissons Ratio (y) = 0.41426 0.44174
# Poissons Ratio (z) = 0.10331 0.14519
#
# Static dielectric constant tensor:
#      x y z
#    x 3.511110 0.000000 0.000000 
#    y 0.000000 3.400210 0.000000 
#    z 0.000000 0.000000 3.995520 
# 
# 
# High freq. dielectric constant tensor:
#      x y z
#    x 1.795950 0.000000 0.000000 
#    y 0.000000 1.750840 0.000000 
#    z 0.000000 0.000000 1.797040 
# 
# From -- ./inp_files/63655.got.cif
#   From: 2010.03.12/outbox.cif.g09.slc.cpg/sg74_32_cif.got.tgz:63655.got - 2010.04.16 15:46:19.
