data_PCOD8299399
_publ_section_title
;
Structure prediction by ZEFSAII (Michael W. Deem and Ramdas Pophale) SiO2 
 PCOD8299399
Probable space group: I M M A
;
_chemical_formula_sum "Si O2"
_cell_formula_units_Z 104
_cell_length_a 31.630899
_cell_length_b 9.322456
_cell_length_c 21.533945
_cell_angle_alpha 90.000000
_cell_angle_beta 90.000000
_cell_angle_gamma 90.000000
_cell_volume 6349.879402
_symmetry_space_group_name_H-M "I M M A"
_symmetry_group_IT_number 74
_symmetry_cell_setting 'orthorhombic'
loop_
_space_group_symop_operation_xyz
x,y,z
-x,1/2-y,z
x,-y,-z
-x,1/2+y,-z
-x,-y,-z
x,1/2+y,-z
-x,y,z
x,1/2-y,z
1/2+x,1/2+y,1/2+z
1/2-x,-y,1/2+z
1/2+x,1/2-y,1/2-z
1/2-x,y,1/2-z
1/2-x,1/2-y,1/2-z
1/2+x,y,1/2-z
1/2-x,1/2+y,1/2+z
1/2+x,-y,1/2+z
loop_
_atom_site_type_symbol
_atom_site_label
_atom_site_fract_x
_atom_site_fract_y
_atom_site_fract_z
Si Si1 0.549751 0.093130 0.555129
Si Si2 0.375223 0.580516 0.737667
Si Si3 0.186182 0.907795 0.157594
Si Si4 0.758644 0.579940 0.435226
Si Si5 0.750000 0.500323 0.250000
Si Si6 0.548271 0.080781 0.693952
Si Si7 0.812789 0.091489 0.344373
O O1 0.500000 0.106070 0.544362
O O2 0.570577 0.250000 0.550374
O O3 0.558186 0.028784 0.623443
O O4 0.570685 0.000000 0.500000
O O5 0.378813 0.750000 0.729060
O O6 0.350234 0.519693 0.677043
O O7 0.421421 0.508003 0.739723
O O8 0.353534 0.541326 0.803859
O O9 0.166076 0.750000 0.146096
O O10 0.213897 0.957420 0.098076
O O11 0.218314 0.893562 0.214917
O O12 0.757535 0.500000 0.500000
O O13 0.764220 0.750000 0.443474
O O14 0.799852 0.522213 0.397457
O O15 0.774004 0.394434 0.296662
O O16 0.500000 0.044455 0.711772
O O17 0.556505 0.250000 0.700472
O O18 0.820520 0.250000 0.373420
#
# Coordination Sequence:
#
# PCOD8299399 Si02
#       7
#    16  16  16  16   8  16  16
#     4   8  14  25  41  60  79 101 133 172 215 263
#     4  10  20  31  46  69  93 119 152 192 235 275
#     4   9  17  29  45  64  87 116 149 184 221 265
#     4  10  20  32  48  69  93 124 158 190 227 268
#     4   8  14  24  44  68  86 110 146 182 218 256
#     4   9  18  32  48  65  88 119 153 193 241 287
#     4   9  17  29  45  66  93 121 150 185 225 270
#
# _framework density 16.378264000000001
#
# number of rings (size 3 to 8) (size 9 to 14) (size 15 to 20)
#    0.000    2.923    0.000    2.308    0.000    9.538 
#    0.000    2.308    0.000    0.000    0.000    0.000 
#    0.000    0.615    0.000    2.000    0.000    2.923 
#
# Total GULP energy -644260.332761 kJ/mol
# GULP energy per Si atom -12389.621784 kJ/mol
# Density = 1.634099 g / cm^3
# Si number density = 16.378264 Si / 1000 Ang^3
#
#
#
# Elastic Constant Matrix: (Units=GPa)
#
#
# Indices 1 2 3 4 5 6 
#
# 1 81.9893 44.0642 35.8269 0.0000 0.0000 0.0000
# 2 44.0642 87.7297 44.0437 0.0000 0.0000 0.0000
# 3 35.8269 44.0437 76.0969 0.0000 0.0000 0.0000
# 4 0.0000 0.0000 0.0000 23.8401 0.0000 0.0000
# 5 0.0000 0.0000 0.0000 0.0000 19.5305 0.0000
# 6 0.0000 0.0000 0.0000 0.0000 0.0000 21.9904
#
#
#
# Elastic Compliance Matrix: (Units=1/GPa)
#
#
# Indices 1 2 3 4 5 6 
#
# 1 0.017737 -0.006648 -0.004503 0.000000 0.000000 0.000000
# 2 -0.006648 0.018559 -0.007612 0.000000 0.000000 0.000000
# 3 -0.004503 -0.007612 0.019667 0.000000 0.000000 0.000000
# 4 0.000000 0.000000 0.000000 0.041946 0.000000 0.000000
# 5 0.000000 0.000000 0.000000 0.000000 0.051202 0.000000
# 6 0.000000 0.000000 0.000000 0.000000 0.000000 0.045474
#
#
# Mechanical properties :
#
#
# Convention : Reuss Voigt Hill
#
# Bulk Modulus (GPa) = 54.23763 54.85391 54.54577
# Shear Modulus (GPa) = 20.98566 21.19761 21.09164
#
# Velocity S-wave (km/s) = 3.58342 3.60148 3.59246
# Velocity P-wave (km/s) = 7.09287 7.13153 7.11223
#
# Compressibility (1/GPa) = 0.01843738
#
# Stress axis : x y z
#
# Youngs Moduli (GPa) = 56.37786 53.88120 50.84737
#
# Poissons Ratio (x) = 0.35822 0.22896
# Poissons Ratio (y) = 0.37482 0.38704
# Poissons Ratio (z) = 0.25386 0.41013
#
# Static dielectric constant tensor:
#      x y z
#    x 2.953340 0.000000 0.000000 
#    y 0.000000 3.130200 0.000000 
#    z 0.000000 0.000000 2.974170 
# 
# 
# High freq. dielectric constant tensor:
#      x y z
#    x 1.603830 0.000000 0.000000 
#    y 0.000000 1.634070 0.000000 
#    z 0.000000 0.000000 1.602550 
# 
# From -- ./inp_files/62668.got.cif
#   From: 2010.03.12/outbox.cif.g09.slc.cpg/sg74_32_cif.got.tgz:62668.got - 2010.04.16 15:46:19.
