data_PCOD8299748
_publ_section_title
;
Structure prediction by ZEFSAII (Michael W. Deem and Ramdas Pophale) SiO2 
 PCOD8299748
Probable space group: I M M A
;
_chemical_formula_sum "Si O2"
_cell_formula_units_Z 72
_cell_length_a 26.076971
_cell_length_b 16.398957
_cell_length_c 7.704926
_cell_angle_alpha 90.000000
_cell_angle_beta 90.000000
_cell_angle_gamma 90.000000
_cell_volume 3294.897002
_symmetry_space_group_name_H-M "I M M A"
_symmetry_group_IT_number 74
_symmetry_cell_setting 'orthorhombic'
loop_
_space_group_symop_operation_xyz
x,y,z
-x,1/2-y,z
x,-y,-z
-x,1/2+y,-z
-x,-y,-z
x,1/2+y,-z
-x,y,z
x,1/2-y,z
1/2+x,1/2+y,1/2+z
1/2-x,-y,1/2+z
1/2+x,1/2-y,1/2-z
1/2-x,y,1/2-z
1/2-x,1/2-y,1/2-z
1/2+x,y,1/2-z
1/2-x,1/2+y,1/2+z
1/2+x,-y,1/2+z
loop_
_atom_site_type_symbol
_atom_site_label
_atom_site_fract_x
_atom_site_fract_y
_atom_site_fract_z
Si Si1 0.358204 0.659173 0.899580
Si Si2 0.650415 0.342927 0.509902
Si Si3 0.917744 0.500000 0.500000
Si Si4 0.443996 0.065095 0.645659
Si Si5 0.756235 0.089480 0.452438
O O1 0.380266 0.750000 0.943279
O O2 0.361146 0.645695 0.692862
O O3 0.387950 0.585033 0.984823
O O4 0.301361 0.655003 0.985266
O O5 0.660137 0.250000 0.557773
O O6 0.603342 0.371955 0.632251
O O7 0.703447 0.390474 0.555061
O O8 0.949782 0.516094 0.326411
O O9 0.500000 0.107266 0.613270
O O10 0.431514 0.000000 0.500000
O O11 0.750000 0.092810 0.250000
O O12 0.775965 0.000000 0.500000
#
# Coordination Sequence:
#
# PCOD8299748 Si02
#       5
#    16  16   8  16  16
#     4  10  21  38  61  96 135 172 215 264 326 398
#     4  10  21  39  63  92 130 172 217 271 325 386
#     4  12  23  42  68  98 132 172 209 276 334 394
#     4  11  24  43  67  93 123 167 219 270 330 392
#     4  10  20  33  58  91 128 173 213 261 323 390
#
# _framework density 21.851972
#
# number of rings (size 3 to 8) (size 9 to 14) (size 15 to 20)
#    0.000    1.556    3.333    1.667    3.111    4.000 
#    0.000    0.000    0.000    6.000    0.000    0.000 
#    0.000    0.000    0.000    0.000    0.000    0.000 
#
# Total GULP energy -445970.127770 kJ/mol
# GULP energy per Si atom -12388.059105 kJ/mol
# Density = 2.180224 g / cm^3
# Si number density = 21.851972 Si / 1000 Ang^3
#
#
#
# Elastic Constant Matrix: (Units=GPa)
#
#
# Indices 1 2 3 4 5 6 
#
# 1 109.2375 39.8464 17.9156 0.0000 0.0000 0.0000
# 2 39.8464 133.9205 23.5223 0.0000 0.0000 0.0000
# 3 17.9156 23.5223 58.4717 0.0000 0.0000 0.0000
# 4 0.0000 0.0000 0.0000 27.7072 0.0000 0.0000
# 5 0.0000 0.0000 0.0000 0.0000 -208.5063 0.0000
# 6 0.0000 0.0000 0.0000 0.0000 0.0000 22.1621
#
#
#
# Elastic Compliance Matrix: (Units=1/GPa)
#
#
# Indices 1 2 3 4 5 6 
#
# 1 0.010505 -0.002755 -0.002111 0.000000 0.000000 0.000000
# 2 -0.002755 0.008757 -0.002679 0.000000 0.000000 0.000000
# 3 -0.002111 -0.002679 0.018827 0.000000 0.000000 0.000000
# 4 0.000000 0.000000 0.000000 0.036092 0.000000 0.000000
# 5 0.000000 0.000000 0.000000 0.000000 -0.004796 0.000000
# 6 0.000000 0.000000 0.000000 0.000000 0.000000 0.045122
#
#
# Mechanical properties :
#
#
# Convention : Reuss Voigt Hill
#
# Bulk Modulus (GPa) = 43.47709 51.57756 47.52733
# Shear Modulus (GPa) = 36.42646 -17.03769 9.69438
#
# Velocity S-wave (km/s) = 4.08728 -2.79532 2.10856
# Velocity P-wave (km/s) = 6.49722 3.63813 5.26545
#
# Compressibility (1/GPa) = 0.02300062
#
# Stress axis : x y z
#
# Youngs Moduli (GPa) = 95.18854 114.18953 53.11639
#
# Poissons Ratio (x) = 0.31460 0.11210
# Poissons Ratio (y) = 0.26225 0.14229
# Poissons Ratio (z) = 0.20090 0.30589
#
# Static dielectric constant tensor:
#      x y z
#    x 4.053360 0.000000 0.000000 
#    y 0.000000 3.853080 0.000000 
#    z 0.000000 0.000000 4.059030 
# 
# 
# High freq. dielectric constant tensor:
#      x y z
#    x 1.850900 0.000000 0.000000 
#    y 0.000000 1.853890 0.000000 
#    z 0.000000 0.000000 1.858070 
# 
# From -- ./inp_files/15934.got.cif
#   From: 2010.03.12/outbox.cif.g09.slc.cpg/sg74_8_cif.got.tgz:15934.got - 2010.04.16 15:46:19.
