data_PCOD8299548
_publ_section_title
;
Structure prediction by ZEFSAII (Michael W. Deem and Ramdas Pophale) SiO2 
 PCOD8299548
Probable space group: I M M A
;
_chemical_formula_sum "Si O2"
_cell_formula_units_Z 88
_cell_length_a 9.246732
_cell_length_b 21.592835
_cell_length_c 23.935598
_cell_angle_alpha 90.000000
_cell_angle_beta 90.000000
_cell_angle_gamma 90.000000
_cell_volume 4779.057094
_symmetry_space_group_name_H-M "I M M A"
_symmetry_group_IT_number 74
_symmetry_cell_setting 'orthorhombic'
loop_
_space_group_symop_operation_xyz
x,y,z
-x,1/2-y,z
x,-y,-z
-x,1/2+y,-z
-x,-y,-z
x,1/2+y,-z
-x,y,z
x,1/2-y,z
1/2+x,1/2+y,1/2+z
1/2-x,-y,1/2+z
1/2+x,1/2-y,1/2-z
1/2-x,y,1/2-z
1/2-x,1/2-y,1/2-z
1/2+x,y,1/2-z
1/2-x,1/2+y,1/2+z
1/2+x,-y,1/2+z
loop_
_atom_site_type_symbol
_atom_site_label
_atom_site_fract_x
_atom_site_fract_y
_atom_site_fract_z
Si Si1 0.827736 0.401363 0.394266
Si Si2 0.166421 0.318870 0.192610
Si Si3 0.330160 0.250000 0.690694
Si Si4 0.160753 0.317291 0.493365
Si Si5 0.331627 0.013890 0.564904
Si Si6 0.168039 0.653741 0.097346
O O1 0.749729 0.368463 0.343739
O O2 0.775357 0.367165 0.450630
O O3 0.769489 0.470941 0.397080
O O4 0.000000 0.399188 0.386285
O O5 0.172842 0.250000 0.165694
O O6 0.250000 0.317902 0.250000
O O7 0.000000 0.339452 0.200952
O O8 0.500000 0.250000 0.703311
O O9 0.250000 0.250000 0.750000
O O10 0.287109 0.312888 0.655944
O O11 0.158003 0.250000 0.463635
O O12 0.255345 0.309794 0.548161
O O13 0.000000 0.337978 0.511159
O O14 0.500000 0.999305 0.575094
O O15 0.290980 0.081580 0.589049
O O16 0.292904 0.000000 0.500000
O O17 0.000000 0.663603 0.088327
#
# Coordination Sequence:
#
# PCOD8299548 Si02
#       6
#    16  16   8  16  16  16
#     4  11  22  35  54  82 119 156 193 233 278 341
#     4  10  21  38  60  84 112 149 192 238 286 335
#     4  10  22  40  62  86 112 146 189 240 293 344
#     4  10  20  32  50  80 115 148 183 229 283 337
#     4  10  20  35  56  82 115 154 191 232 289 349
#     4  10  20  36  58  83 110 142 186 238 289 345
#
# _framework density 18.413674
#
# number of rings (size 3 to 8) (size 9 to 14) (size 15 to 20)
#    0.000    1.818    2.727    1.636    0.000    4.364 
#    0.000    0.909    0.000    2.182    0.000    0.000 
#    0.000    0.000    0.000    0.000    0.000    0.000 
#
# Total GULP energy -545318.696495 kJ/mol
# GULP energy per Si atom -12393.606739 kJ/mol
# Density = 1.837176 g / cm^3
# Si number density = 18.413674 Si / 1000 Ang^3
#
#
#
# Elastic Constant Matrix: (Units=GPa)
#
#
# Indices 1 2 3 4 5 6 
#
# 1 74.1976 51.7100 42.4806 0.0000 0.0000 0.0000
# 2 51.7100 131.1133 59.2693 0.0000 0.0000 0.0000
# 3 42.4806 59.2693 94.6193 0.0000 0.0000 0.0000
# 4 0.0000 0.0000 0.0000 1.6145 0.0000 0.0000
# 5 0.0000 0.0000 0.0000 0.0000 33.4450 0.0000
# 6 0.0000 0.0000 0.0000 0.0000 0.0000 29.1587
#
#
#
# Elastic Compliance Matrix: (Units=1/GPa)
#
#
# Indices 1 2 3 4 5 6 
#
# 1 0.020652 -0.005515 -0.005817 0.000000 0.000000 0.000000
# 2 -0.005515 0.012113 -0.005111 0.000000 0.000000 0.000000
# 3 -0.005817 -0.005111 0.016382 0.000000 0.000000 0.000000
# 4 0.000000 0.000000 0.000000 0.619403 0.000000 0.000000
# 5 0.000000 0.000000 0.000000 0.000000 0.029900 0.000000
# 6 0.000000 0.000000 0.000000 0.000000 0.000000 0.034295
#
#
# Mechanical properties :
#
#
# Convention : Reuss Voigt Hill
#
# Bulk Modulus (GPa) = 61.50357 67.42777 64.46567
# Shear Modulus (GPa) = 6.48465 22.60833 14.54649
#
# Velocity S-wave (km/s) = 1.87864 3.50780 2.81371
# Velocity P-wave (km/s) = 6.17894 7.28725 6.75586
#
# Compressibility (1/GPa) = 0.01625922
#
# Stress axis : x y z
#
# Youngs Moduli (GPa) = 48.42207 82.55822 61.04267
#
# Poissons Ratio (x) = 0.45533 0.35509
# Poissons Ratio (y) = 0.26706 0.31200
# Poissons Ratio (z) = 0.28168 0.42197
#
# Static dielectric constant tensor:
#      x y z
#    x 3.383490 0.000000 0.000000 
#    y 0.000000 3.679350 0.000000 
#    z 0.000000 0.000000 6.416400 
# 
# 
# High freq. dielectric constant tensor:
#      x y z
#    x 1.719320 0.000000 0.000000 
#    y 0.000000 1.724480 0.000000 
#    z 0.000000 0.000000 1.691980 
# 
# From -- ./inp_files/48714.got.cif
#   From: 2010.03.12/outbox.cif.g09.slc.cpg/sg74_25_cif.got.tgz:48714.got - 2010.04.16 15:46:19.
