data_PCOD8299358
_publ_section_title
;
Structure prediction by ZEFSAII (Michael W. Deem and Ramdas Pophale) SiO2 
 PCOD8299358
Probable space group: I M M A
;
_chemical_formula_sum "Si O2"
_cell_formula_units_Z 120
_cell_length_a 20.348641
_cell_length_b 19.564947
_cell_length_c 15.756504
_cell_angle_alpha 90.000000
_cell_angle_beta 90.000000
_cell_angle_gamma 90.000000
_cell_volume 6272.980675
_symmetry_space_group_name_H-M "I M M A"
_symmetry_group_IT_number 74
_symmetry_cell_setting 'orthorhombic'
loop_
_space_group_symop_operation_xyz
x,y,z
-x,1/2-y,z
x,-y,-z
-x,1/2+y,-z
-x,-y,-z
x,1/2+y,-z
-x,y,z
x,1/2-y,z
1/2+x,1/2+y,1/2+z
1/2-x,-y,1/2+z
1/2+x,1/2-y,1/2-z
1/2-x,y,1/2-z
1/2-x,1/2-y,1/2-z
1/2+x,y,1/2-z
1/2-x,1/2+y,1/2+z
1/2+x,-y,1/2+z
loop_
_atom_site_type_symbol
_atom_site_label
_atom_site_fract_x
_atom_site_fract_y
_atom_site_fract_z
Si Si1 0.823662 0.044379 0.625231
Si Si2 0.925831 0.452964 0.772953
Si Si3 0.076461 0.902919 0.841305
Si Si4 0.183347 0.102442 0.443564
Si Si5 0.322450 0.171197 0.460992
Si Si6 0.750000 0.870157 0.250000
Si Si7 0.366731 0.674990 0.349622
Si Si8 0.074758 0.829743 0.666348
O O1 0.886308 0.050145 0.685857
O O2 0.838537 0.084174 0.538592
O O3 0.762222 0.080495 0.669862
O O4 0.804806 0.966003 0.610157
O O5 0.905503 0.517070 0.831691
O O6 0.918589 0.384410 0.829074
O O7 0.000000 0.461886 0.743148
O O8 0.121314 0.872051 0.914724
O O9 0.093810 0.866597 0.753283
O O10 0.000000 0.891913 0.866084
O O11 0.250050 0.145435 0.437404
O O12 0.123274 0.146196 0.407316
O O13 0.328530 0.250000 0.433223
O O14 0.332669 0.161462 0.560695
O O15 0.688478 0.823703 0.275670
O O16 0.401022 0.750000 0.348606
O O17 0.083616 0.750000 0.681727
O O18 0.000000 0.847862 0.639553
#
# Coordination Sequence:
#
# PCOD8299358 Si02
#       8
#    16  16  16  16  16   8  16  16
#     4  10  22  35  61  89 119 156 196 248 306 352
#     4  10  22  41  63  89 119 157 207 256 302 365
#     4  10  22  41  63  87 120 164 210 251 305 369
#     4  11  22  37  58  95 124 157 201 255 302 360
#     4  11  24  39  59  91 128 161 201 254 307 364
#     4  10  19  40  58  84 111 158 194 234 293 362
#     4  10  22  39  61  86 117 159 199 248 310 364
#     4  10  21  39  61  85 121 168 209 250 305 366
#
# _framework density 19.129662
#
# number of rings (size 3 to 8) (size 9 to 14) (size 15 to 20)
#    0.000    1.733    2.667    1.000    3.733    3.200 
#    0.000    6.000    0.000    0.000    0.000    0.000 
#    0.000    0.000    0.000    0.000    0.000    0.000 
#
# Total GULP energy -744059.211348 kJ/mol
# GULP energy per Si atom -12400.986856 kJ/mol
# Density = 1.908612 g / cm^3
# Si number density = 19.129662 Si / 1000 Ang^3
#
#
#
# Elastic Constant Matrix: (Units=GPa)
#
#
# Indices 1 2 3 4 5 6 
#
# 1 78.6950 45.6970 35.6748 0.0000 0.0000 0.0000
# 2 45.6970 138.9244 56.3595 0.0000 0.0000 0.0000
# 3 35.6748 56.3595 82.8223 0.0000 0.0000 0.0000
# 4 0.0000 0.0000 0.0000 27.8356 0.0000 0.0000
# 5 0.0000 0.0000 0.0000 0.0000 25.1504 0.0000
# 6 0.0000 0.0000 0.0000 0.0000 0.0000 27.8873
#
#
#
# Elastic Compliance Matrix: (Units=1/GPa)
#
#
# Indices 1 2 3 4 5 6 
#
# 1 0.017017 -0.003624 -0.004863 0.000000 0.000000 0.000000
# 2 -0.003624 0.010715 -0.005730 0.000000 0.000000 0.000000
# 3 -0.004863 -0.005730 0.018068 0.000000 0.000000 0.000000
# 4 0.000000 0.000000 0.000000 0.035925 0.000000 0.000000
# 5 0.000000 0.000000 0.000000 0.000000 0.039761 0.000000
# 6 0.000000 0.000000 0.000000 0.000000 0.000000 0.035859
#
#
# Mechanical properties :
#
#
# Convention : Reuss Voigt Hill
#
# Bulk Modulus (GPa) = 57.59087 63.98936 60.79011
# Shear Modulus (GPa) = 26.10031 27.02201 26.56116
#
# Velocity S-wave (km/s) = 3.69777 3.76250 3.73027
# Velocity P-wave (km/s) = 6.95717 7.23865 7.09931
#
# Compressibility (1/GPa) = 0.01736386
#
# Stress axis : x y z
#
# Youngs Moduli (GPa) = 58.76612 93.32687 55.34559
#
# Poissons Ratio (x) = 0.33825 0.26917
# Poissons Ratio (y) = 0.21299 0.31715
# Poissons Ratio (z) = 0.28580 0.53479
#
# Static dielectric constant tensor:
#      x y z
#    x 3.397790 0.000000 0.000000 
#    y 0.000000 3.757560 0.000000 
#    z 0.000000 0.000000 3.493840 
# 
# 
# High freq. dielectric constant tensor:
#      x y z
#    x 1.739590 0.000000 0.000000 
#    y 0.000000 1.760980 0.000000 
#    z 0.000000 0.000000 1.743140 
# 
# From -- ./inp_files/35719.got.cif
#   From: 2010.03.12/outbox.cif.g09.slc.cpg/sg74_18_cif.got.tgz:35719.got - 2010.04.16 15:46:19.
