data_PCOD8299696
_publ_section_title
;
Structure prediction by ZEFSAII (Michael W. Deem and Ramdas Pophale) SiO2 
 PCOD8299696
Probable space group: I M M A
;
_chemical_formula_sum "Si O2"
_cell_formula_units_Z 112
_cell_length_a 29.571108
_cell_length_b 14.280969
_cell_length_c 13.761403
_cell_angle_alpha 90.000000
_cell_angle_beta 90.000000
_cell_angle_gamma 90.000000
_cell_volume 5811.496587
_symmetry_space_group_name_H-M "I M M A"
_symmetry_group_IT_number 74
_symmetry_cell_setting 'orthorhombic'
loop_
_space_group_symop_operation_xyz
x,y,z
-x,1/2-y,z
x,-y,-z
-x,1/2+y,-z
-x,-y,-z
x,1/2+y,-z
-x,y,z
x,1/2-y,z
1/2+x,1/2+y,1/2+z
1/2-x,-y,1/2+z
1/2+x,1/2-y,1/2-z
1/2-x,y,1/2-z
1/2-x,1/2-y,1/2-z
1/2+x,y,1/2-z
1/2-x,1/2+y,1/2+z
1/2+x,-y,1/2+z
loop_
_atom_site_type_symbol
_atom_site_label
_atom_site_fract_x
_atom_site_fract_y
_atom_site_fract_z
Si Si1 0.899509 0.362206 0.234748
Si Si2 0.312335 0.146310 0.376230
Si Si3 0.132597 0.005347 0.387461
Si Si4 0.052607 0.992253 0.112028
Si Si5 0.882367 0.360904 0.773553
Si Si6 0.199517 0.853305 0.089711
Si Si7 0.737632 0.501437 0.854099
O O1 0.906610 0.250000 0.238230
O O2 0.853077 0.398272 0.184742
O O3 0.895856 0.407213 0.342417
O O4 0.938738 0.410285 0.170515
O O5 0.305100 0.250000 0.336965
O O6 0.327790 0.144583 0.488540
O O7 0.264634 0.097939 0.359494
O O8 0.118592 0.000000 0.500000
O O9 0.119184 0.908961 0.332737
O O10 0.186094 0.022651 0.377897
O O11 0.077901 0.905297 0.162306
O O12 0.000000 0.968955 0.117746
O O13 0.068377 0.000000 0.000000
O O14 0.890668 0.250000 0.762329
O O15 0.834649 0.383355 0.825406
O O16 0.219260 0.750000 0.109945
O O17 0.241734 0.923525 0.073538
O O18 0.750000 0.456232 0.750000
#
# Coordination Sequence:
#
# PCOD8299696 Si02
#       7
#    16  16  16  16  16  16  16
#     4  10  21  38  58  81 113 151 187 228 276 332
#     4  10  20  33  52  77 105 142 185 225 272 333
#     4  11  23  37  54  79 109 150 201 249 287 321
#     4  10  21  37  61  95 126 146 169 209 268 344
#     4  10  21  38  58  81 113 151 187 228 276 332
#     4  10  20  33  52  77 105 142 185 225 272 333
#     4  12  20  34  52  73 107 148 187 235 288 327
#
# _framework density 19.272144999999998
#
# number of rings (size 3 to 8) (size 9 to 14) (size 15 to 20)
#    0.000    1.571    2.857    3.000    0.000    4.571 
#    0.000    1.429    0.000    6.857    0.000    8.000 
#    0.000    0.000    0.000    0.000    0.000    0.000 
#
# Total GULP energy -694187.853278 kJ/mol
# GULP energy per Si atom -12396.211666 kJ/mol
# Density = 1.922828 g / cm^3
# Si number density = 19.272145 Si / 1000 Ang^3
#
#
#
# Elastic Constant Matrix: (Units=GPa)
#
#
# Indices 1 2 3 4 5 6 
#
# 1 57.8307 22.0724 22.7715 0.0000 0.0000 0.0000
# 2 22.0724 98.6312 24.4320 0.0000 0.0000 0.0000
# 3 22.7715 24.4320 115.6448 0.0000 0.0000 0.0000
# 4 0.0000 0.0000 0.0000 23.4877 0.0000 0.0000
# 5 0.0000 0.0000 0.0000 0.0000 24.6148 0.0000
# 6 0.0000 0.0000 0.0000 0.0000 0.0000 7.6006
#
#
#
# Elastic Compliance Matrix: (Units=1/GPa)
#
#
# Indices 1 2 3 4 5 6 
#
# 1 0.019937 -0.003682 -0.003148 0.000000 0.000000 0.000000
# 2 -0.003682 0.011379 -0.001679 0.000000 0.000000 0.000000
# 3 -0.003148 -0.001679 0.009622 0.000000 0.000000 0.000000
# 4 0.000000 0.000000 0.000000 0.042575 0.000000 0.000000
# 5 0.000000 0.000000 0.000000 0.000000 0.040626 0.000000
# 6 0.000000 0.000000 0.000000 0.000000 0.000000 0.131569
#
#
# Mechanical properties :
#
#
# Convention : Reuss Voigt Hill
#
# Bulk Modulus (GPa) = 41.80652 45.62874 43.71763
# Shear Modulus (GPa) = 17.81273 24.66266 21.23769
#
# Velocity S-wave (km/s) = 3.04348 3.58118 3.32322
# Velocity P-wave (km/s) = 5.83868 6.38961 6.12035
#
# Compressibility (1/GPa) = 0.02391971
#
# Stress axis : x y z
#
# Youngs Moduli (GPa) = 50.15901 87.88420 103.93157
#
# Poissons Ratio (x) = 0.32357 0.32716
# Poissons Ratio (y) = 0.18468 0.17450
# Poissons Ratio (z) = 0.15789 0.14755
#
# Static dielectric constant tensor:
#      x y z
#    x 3.236980 0.000000 0.000000 
#    y 0.000000 3.523220 0.000000 
#    z 0.000000 0.000000 3.727820 
# 
# 
# High freq. dielectric constant tensor:
#      x y z
#    x 1.717520 0.000000 0.000000 
#    y 0.000000 1.758410 0.000000 
#    z 0.000000 0.000000 1.755560 
# 
# From -- ./inp_files/36558.got.cif
#   From: 2010.03.12/outbox.cif.g09.slc.cpg/sg74_19_cif.got.tgz:36558.got - 2010.04.16 15:46:19.
