data_PCOD8299292
_publ_section_title
;
Structure prediction by ZEFSAII (Michael W. Deem and Ramdas Pophale) SiO2 
 PCOD8299292
Probable space group: I M M A
;
_chemical_formula_sum "Si O2"
_cell_formula_units_Z 64
_cell_length_a 9.581228
_cell_length_b 24.099688
_cell_length_c 14.162181
_cell_angle_alpha 90.000000
_cell_angle_beta 90.000000
_cell_angle_gamma 90.000000
_cell_volume 3270.112816
_symmetry_space_group_name_H-M "I M M A"
_symmetry_group_IT_number 74
_symmetry_cell_setting 'orthorhombic'
loop_
_space_group_symop_operation_xyz
x,y,z
-x,1/2-y,z
x,-y,-z
-x,1/2+y,-z
-x,-y,-z
x,1/2+y,-z
-x,y,z
x,1/2-y,z
1/2+x,1/2+y,1/2+z
1/2-x,-y,1/2+z
1/2+x,1/2-y,1/2-z
1/2-x,y,1/2-z
1/2-x,1/2-y,1/2-z
1/2+x,y,1/2-z
1/2-x,1/2+y,1/2+z
1/2+x,-y,1/2+z
loop_
_atom_site_type_symbol
_atom_site_label
_atom_site_fract_x
_atom_site_fract_y
_atom_site_fract_z
Si Si1 0.208118 0.750000 0.358212
Si Si2 0.845268 0.628447 0.342263
Si Si3 0.840265 0.250000 0.050659
Si Si4 0.159213 0.436122 0.990554
Si Si5 0.839764 0.643481 0.842103
O O1 0.250000 0.750000 0.250000
O O2 0.127231 0.807677 0.374773
O O3 0.330123 0.750000 0.436762
O O4 0.750000 0.625319 0.250000
O O5 0.767487 0.593753 0.422059
O O6 0.000000 0.603118 0.323829
O O7 0.775081 0.304786 0.098782
O O8 0.000000 0.250000 0.075897
O O9 0.000000 0.428218 0.952888
O O10 0.200280 0.500000 0.000000
O O11 0.173145 0.411161 0.094682
O O12 0.750000 0.633238 0.750000
O O13 0.000000 0.654120 0.812826
#
# Coordination Sequence:
#
# PCOD8299292 Si02
#       5
#     8  16   8  16  16
#     4  10  21  36  59  93 123 154 198 245 303 366
#     4  11  23  39  61  90 123 158 198 245 302 364
#     4  10  19  36  62  87 118 157 196 242 299 365
#     4  10  22  41  63  87 118 158 204 251 301 355
#     4  10  21  38  60  87 117 154 196 244 298 354
#
# _framework density 19.571192
#
# number of rings (size 3 to 8) (size 9 to 14) (size 15 to 20)
#    0.000    1.750    2.500    1.500    0.000    6.500 
#    0.000    2.500    0.000    0.000    0.000    0.000 
#    0.000    0.000    0.000    0.000    0.000    0.000 
#
# Total GULP energy -396534.284101 kJ/mol
# GULP energy per Si atom -12391.696378 kJ/mol
# Density = 1.952665 g / cm^3
# Si number density = 19.571192 Si / 1000 Ang^3
#
#
#
# Elastic Constant Matrix: (Units=GPa)
#
#
# Indices 1 2 3 4 5 6 
#
# 1 128.0282 52.5183 71.0166 0.0000 0.0000 0.0000
# 2 52.5183 137.5616 61.2059 -0.0002 0.0000 0.0001
# 3 71.0166 61.2059 127.5490 -0.0006 -0.0002 0.0003
# 4 0.0000 -0.0002 -0.0006 21.5552 0.0001 0.0002
# 5 0.0000 0.0000 -0.0002 0.0001 36.0529 -0.0001
# 6 0.0000 0.0001 0.0003 0.0002 -0.0001 -7.5429
#
#
#
# Elastic Compliance Matrix: (Units=1/GPa)
#
#
# Indices 1 2 3 4 5 6 
#
# 1 0.011717 -0.001997 -0.005566 0.000000 0.000000 0.000000
# 2 -0.001997 0.009583 -0.003487 0.000000 0.000000 0.000000
# 3 -0.005566 -0.003487 0.012612 0.000000 0.000000 0.000000
# 4 0.000000 0.000000 0.000000 0.046393 0.000000 0.000002
# 5 0.000000 0.000000 0.000000 0.000000 0.027737 0.000000
# 6 0.000000 0.000000 0.000000 0.000002 0.000000 -0.132575
#
#
# Mechanical properties :
#
#
# Convention : Reuss Voigt Hill
#
# Bulk Modulus (GPa) = 84.64675 84.73559 84.69117
# Shear Modulus (GPa) = 3324.65872 23.90624 1674.28248
#
# Velocity S-wave (km/s) = 41.26062 3.49879 29.28037
# Velocity P-wave (km/s) = 48.09640 7.72736 34.44543
#
# Compressibility (1/GPa) = 0.01181380
#
# Stress axis : x y z
#
# Youngs Moduli (GPa) = 85.34473 104.34846 79.28924
#
# Poissons Ratio (x) = 0.20839 0.44129
# Poissons Ratio (y) = 0.17044 0.27646
# Poissons Ratio (z) = 0.47499 0.36383
#
# Static dielectric constant tensor:
#      x y z
#    x 3.429590 0.000000 0.000000 
#    y 0.000000 3.952980 0.000000 
#    z 0.000000 0.000000 3.448550 
# 
# 
# High freq. dielectric constant tensor:
#      x y z
#    x 1.748910 0.000000 0.000000 
#    y 0.000000 1.769080 0.000000 
#    z 0.000000 0.000000 1.761500 
# 
# From -- ./inp_files/28871.got.cif
#   From: 2010.03.12/outbox.cif.g09.slc.cpg/sg74_15_cif.got.tgz:28871.got - 2010.04.16 15:46:19.
