data_PCOD8299928
_publ_section_title
;
Structure prediction by ZEFSAII (Michael W. Deem and Ramdas Pophale) SiO2 
 PCOD8299928
Probable space group: I M M A
;
_chemical_formula_sum "Si O2"
_cell_formula_units_Z 96
_cell_length_a 18.762886
_cell_length_b 19.276642
_cell_length_c 14.863828
_cell_angle_alpha 90.000000
_cell_angle_beta 90.000000
_cell_angle_gamma 90.000000
_cell_volume 5376.030115
_symmetry_space_group_name_H-M "I M M A"
_symmetry_group_IT_number 74
_symmetry_cell_setting 'orthorhombic'
loop_
_space_group_symop_operation_xyz
x,y,z
-x,1/2-y,z
x,-y,-z
-x,1/2+y,-z
-x,-y,-z
x,1/2+y,-z
-x,y,z
x,1/2-y,z
1/2+x,1/2+y,1/2+z
1/2-x,-y,1/2+z
1/2+x,1/2-y,1/2-z
1/2-x,y,1/2-z
1/2-x,1/2-y,1/2-z
1/2+x,y,1/2-z
1/2-x,1/2+y,1/2+z
1/2+x,-y,1/2+z
loop_
_atom_site_type_symbol
_atom_site_label
_atom_site_fract_x
_atom_site_fract_y
_atom_site_fract_z
Si Si1 0.175636 0.330076 0.209566
Si Si2 0.917342 0.917590 0.668545
Si Si3 0.082425 0.077291 0.683159
Si Si4 0.830869 0.580885 0.492014
Si Si5 0.082287 0.329978 0.849143
Si Si6 0.306866 0.329394 0.497505
O O1 0.168923 0.250000 0.235870
O O2 0.250000 0.359741 0.250000
O O3 0.108419 0.369339 0.250894
O O4 0.169373 0.343165 0.104014
O O5 0.873940 0.895714 0.579933
O O6 0.000000 0.904644 0.648288
O O7 0.903401 0.996219 0.699883
O O8 0.122493 0.101028 0.593914
O O9 0.110385 0.121415 0.768215
O O10 0.000000 0.093273 0.666680
O O11 0.813367 0.500000 0.500000
O O12 0.758184 0.621535 0.478895
O O13 0.092531 0.250000 0.820145
O O14 0.000000 0.346122 0.871725
O O15 0.127145 0.347844 0.938042
O O16 0.282365 0.250000 0.510257
#
# Coordination Sequence:
#
# PCOD8299928 Si02
#       6
#    16  16  16  16  16  16
#     4  10  20  36  55  75 105 142 175 216 268 316
#     4  10  20  35  56  81 107 139 179 220 263 317
#     4   9  19  36  55  78 109 142 176 220 266 309
#     4  10  20  34  54  80 108 142 176 214 264 323
#     4   9  19  37  57  77 105 143 183 221 265 317
#     4  10  21  36  55  78 107 140 175 221 270 316
#
# _framework density 17.857043000000001
#
# number of rings (size 3 to 8) (size 9 to 14) (size 15 to 20)
#    0.000    2.333    1.667    0.500    0.000    5.667 
#    0.000    3.333    0.000    6.500    0.000    0.000 
#    0.000    0.000    0.000    0.000    0.000    0.000 
#
# Total GULP energy -595321.946339 kJ/mol
# GULP energy per Si atom -12402.540549 kJ/mol
# Density = 1.781640 g / cm^3
# Si number density = 17.857043 Si / 1000 Ang^3
#
#
#
# Elastic Constant Matrix: (Units=GPa)
#
#
# Indices 1 2 3 4 5 6 
#
# 1 83.9884 45.8204 61.1326 0.0000 0.0000 0.0000
# 2 45.8204 56.1774 60.5426 0.0000 0.0000 0.0000
# 3 61.1326 60.5426 140.4379 0.0000 0.0000 0.0000
# 4 0.0000 0.0000 0.0000 32.9049 0.0000 0.0000
# 5 0.0000 0.0000 0.0000 0.0000 32.3430 0.0000
# 6 0.0000 0.0000 0.0000 0.0000 0.0000 32.9464
#
#
#
# Elastic Compliance Matrix: (Units=1/GPa)
#
#
# Indices 1 2 3 4 5 6 
#
# 1 0.022332 -0.014453 -0.003490 0.000000 0.000000 0.000000
# 2 -0.014453 0.042602 -0.012074 0.000000 0.000000 0.000000
# 3 -0.003490 -0.012074 0.013845 0.000000 0.000000 0.000000
# 4 0.000000 0.000000 0.000000 0.030391 0.000000 0.000000
# 5 0.000000 0.000000 0.000000 0.000000 0.030919 0.000000
# 6 0.000000 0.000000 0.000000 0.000000 0.000000 0.030352
#
#
# Mechanical properties :
#
#
# Convention : Reuss Voigt Hill
#
# Bulk Modulus (GPa) = 53.35210 68.39944 60.87577
# Shear Modulus (GPa) = 21.12173 27.17939 24.15056
#
# Velocity S-wave (km/s) = 3.44295 3.90558 3.68154
# Velocity P-wave (km/s) = 6.76368 7.66324 7.22747
#
# Compressibility (1/GPa) = 0.01874341
#
# Stress axis : x y z
#
# Youngs Moduli (GPa) = 44.77889 23.47331 72.22823
#
# Poissons Ratio (x) = 0.33927 0.25210
# Poissons Ratio (y) = 0.64720 0.87208
# Poissons Ratio (z) = 0.15629 0.28342
#
# Static dielectric constant tensor:
#      x y z
#    x 3.252160 0.000000 0.000000 
#    y 0.000000 3.298800 0.000000 
#    z 0.000000 0.000000 3.412090 
# 
# 
# High freq. dielectric constant tensor:
#      x y z
#    x 1.690230 0.000000 0.000000 
#    y 0.000000 1.687430 0.000000 
#    z 0.000000 0.000000 1.698700 
# 
# From -- ./inp_files/32330.got.cif
#   From: 2010.03.12/outbox.cif.g09.slc.cpg/sg74_17_cif.got.tgz:32330.got - 2010.04.16 15:46:19.
