data_PCOD8299857
_publ_section_title
;
Structure prediction by ZEFSAII (Michael W. Deem and Ramdas Pophale) SiO2 
 PCOD8299857
Probable space group: I M M A
;
_chemical_formula_sum "Si O2"
_cell_formula_units_Z 80
_cell_length_a 9.074570
_cell_length_b 25.239535
_cell_length_c 18.540163
_cell_angle_alpha 90.000000
_cell_angle_beta 90.000000
_cell_angle_gamma 90.000000
_cell_volume 4246.400502
_symmetry_space_group_name_H-M "I M M A"
_symmetry_group_IT_number 74
_symmetry_cell_setting 'orthorhombic'
loop_
_space_group_symop_operation_xyz
x,y,z
-x,1/2-y,z
x,-y,-z
-x,1/2+y,-z
-x,-y,-z
x,1/2+y,-z
-x,y,z
x,1/2-y,z
1/2+x,1/2+y,1/2+z
1/2-x,-y,1/2+z
1/2+x,1/2-y,1/2-z
1/2-x,y,1/2-z
1/2-x,1/2-y,1/2-z
1/2+x,y,1/2-z
1/2-x,1/2+y,1/2+z
1/2+x,-y,1/2+z
loop_
_atom_site_type_symbol
_atom_site_label
_atom_site_fract_x
_atom_site_fract_y
_atom_site_fract_z
Si Si1 0.673744 0.395067 0.916142
Si Si2 0.671105 0.688376 0.323441
Si Si3 0.674436 0.095516 0.078153
Si Si4 0.326954 0.690238 0.823705
Si Si5 0.673757 0.998537 0.173287
O O1 0.500000 0.383568 0.915952
O O2 0.757750 0.342996 0.889499
O O3 0.715870 0.443959 0.865407
O O4 0.732794 0.407469 0.996466
O O5 0.500000 0.674252 0.315848
O O6 0.697162 0.750000 0.339245
O O7 0.750000 0.670562 0.250000
O O8 0.500000 0.091399 0.077069
O O9 0.726866 0.150844 0.113506
O O10 0.736633 0.046287 0.124146
O O11 0.500000 0.685317 0.810724
O O12 0.281994 0.750000 0.846023
O O13 0.250000 0.672850 0.750000
O O14 0.500000 0.003804 0.184556
O O15 0.750000 0.000875 0.250000
#
# Coordination Sequence:
#
# PCOD8299857 Si02
#       5
#    16  16  16  16  16
#     4  10  20  34  54  78 104 135 171 213 259 306
#     4  10  21  37  56  78 105 137 173 212 254 303
#     4   9  18  33  52  74 102 136 172 209 252 305
#     4   9  17  30  49  72  97 128 168 210 250 297
#     4  10  20  34  53  76 102 134 173 214 257 306
#
# _framework density 18.839485
#
# number of rings (size 3 to 8) (size 9 to 14) (size 15 to 20)
#    0.000    2.400    0.000    2.400    0.000    6.800 
#    0.000    4.000    0.000    4.800    0.000    0.000 
#    0.000    0.000    0.000    0.000    0.000    0.000 
#
# Total GULP energy -496084.419771 kJ/mol
# GULP energy per Si atom -12402.110494 kJ/mol
# Density = 1.879661 g / cm^3
# Si number density = 18.839485 Si / 1000 Ang^3
#
#
#
# Elastic Constant Matrix: (Units=GPa)
#
#
# Indices 1 2 3 4 5 6 
#
# 1 43.9925 40.7700 45.9009 0.0000 0.0000 0.0000
# 2 40.7700 110.6394 81.1385 0.0000 0.0000 0.0000
# 3 45.9009 81.1385 174.1099 0.0005 0.0000 0.0000
# 4 0.0000 0.0000 0.0005 33.9482 0.0000 0.0000
# 5 0.0000 0.0000 0.0000 0.0000 30.8821 0.0000
# 6 0.0000 0.0000 0.0000 0.0000 0.0000 21.5521
#
#
#
# Elastic Compliance Matrix: (Units=1/GPa)
#
#
# Indices 1 2 3 4 5 6 
#
# 1 0.037405 -0.009953 -0.005223 0.000000 0.000000 0.000000
# 2 -0.009953 0.016380 -0.005009 0.000000 0.000000 0.000000
# 3 -0.005223 -0.005009 0.009455 0.000000 0.000000 0.000000
# 4 0.000000 0.000000 0.000000 0.029457 0.000000 0.000000
# 5 0.000000 0.000000 0.000000 0.000000 0.032381 0.000000
# 6 0.000000 0.000000 0.000000 0.000000 0.000000 0.046399
#
#
# Mechanical properties :
#
#
# Convention : Reuss Voigt Hill
#
# Bulk Modulus (GPa) = 43.72798 73.81786 58.77292
# Shear Modulus (GPa) = 22.78225 28.00531 25.39378
#
# Velocity S-wave (km/s) = 3.48125 3.85973 3.67536
# Velocity P-wave (km/s) = 6.27853 7.68966 7.01965
#
# Compressibility (1/GPa) = 0.02286865
#
# Stress axis : x y z
#
# Youngs Moduli (GPa) = 26.73474 61.05123 105.76702
#
# Poissons Ratio (x) = 0.60766 0.55238
# Poissons Ratio (y) = 0.26610 0.52981
# Poissons Ratio (z) = 0.13962 0.30582
#
# Static dielectric constant tensor:
#      x y z
#    x 3.201680 0.000000 0.000000 
#    y 0.000000 3.637850 0.000000 
#    z 0.000000 0.000000 3.594970 
# 
# 
# High freq. dielectric constant tensor:
#      x y z
#    x 1.703550 0.000000 0.000000 
#    y 0.000000 1.746300 0.000000 
#    z 0.000000 0.000000 1.737470 
# 
# From -- ./inp_files/39697.got.cif
#   From: 2010.03.12/outbox.cif.g09.slc.cpg/sg74_20_cif.got.tgz:39697.got - 2010.04.16 15:46:19.
