data_PCOD8299041
_publ_section_title
;
Structure prediction by ZEFSAII (Michael W. Deem and Ramdas Pophale) SiO2 
 PCOD8299041
Probable space group: I M M A
;
_chemical_formula_sum "Si O2"
_cell_formula_units_Z 72
_cell_length_a 15.222600
_cell_length_b 12.621016
_cell_length_c 22.285750
_cell_angle_alpha 90.000000
_cell_angle_beta 90.000000
_cell_angle_gamma 90.000000
_cell_volume 4281.642546
_symmetry_space_group_name_H-M "I M M A"
_symmetry_group_IT_number 74
_symmetry_cell_setting 'orthorhombic'
loop_
_space_group_symop_operation_xyz
x,y,z
-x,1/2-y,z
x,-y,-z
-x,1/2+y,-z
-x,-y,-z
x,1/2+y,-z
-x,y,z
x,1/2-y,z
1/2+x,1/2+y,1/2+z
1/2-x,-y,1/2+z
1/2+x,1/2-y,1/2-z
1/2-x,y,1/2-z
1/2-x,1/2-y,1/2-z
1/2+x,y,1/2-z
1/2-x,1/2+y,1/2+z
1/2+x,-y,1/2+z
loop_
_atom_site_type_symbol
_atom_site_label
_atom_site_fract_x
_atom_site_fract_y
_atom_site_fract_z
Si Si1 0.353579 0.500000 0.000000
Si Si2 0.000000 0.868212 0.702590
Si Si3 0.404987 0.627186 0.336803
Si Si4 0.841912 0.520055 0.276598
Si Si5 0.000000 0.867513 0.561403
Si Si6 0.228507 0.877086 0.393746
O O1 0.412419 0.574277 0.958860
O O2 0.294493 0.425170 0.958216
O O3 0.000000 0.750000 0.730104
O O4 0.000000 0.862859 0.631855
O O5 0.088692 0.924947 0.724019
O O6 0.500000 0.572435 0.350792
O O7 0.415432 0.750000 0.347068
O O8 0.377326 0.610275 0.267920
O O9 0.328808 0.585917 0.381178
O O10 0.750000 0.475559 0.250000
O O11 0.833570 0.573401 0.342079
O O12 0.000000 0.750000 0.533190
O O13 0.217113 0.750000 0.394006
#
# Coordination Sequence:
#
# PCOD8299041 Si02
#       6
#     8   8  16  16   8  16
#     4  11  20  34  51  72 100 132 167 204 254 295
#     4  11  21  35  51  73 104 135 173 207 240 298
#     4   9  17  31  54  79 103 128 159 205 257 303
#     4  10  19  34  53  77 105 132 166 206 255 300
#     4  10  21  35  49  68  98 134 169 204 240 292
#     4  10  20  33  51  77 104 131 166 207 251 300
#
# _framework density 16.815977
#
# number of rings (size 3 to 8) (size 9 to 14) (size 15 to 20)
#    0.000    2.000    3.333    1.333    0.000    3.111 
#    0.000    1.667    0.000    0.000    0.000    0.000 
#    0.000    0.000    0.000    0.000    0.000    0.000 
#
# Total GULP energy -446219.411013 kJ/mol
# GULP energy per Si atom -12394.983639 kJ/mol
# Density = 1.677770 g / cm^3
# Si number density = 16.815977 Si / 1000 Ang^3
#
#
#
# Elastic Constant Matrix: (Units=GPa)
#
#
# Indices 1 2 3 4 5 6 
#
# 1 129.3976 40.3504 37.2487 0.0000 0.0000 0.0000
# 2 40.3504 74.6186 23.5098 0.0000 0.0000 0.0000
# 3 37.2487 23.5098 70.6780 0.0000 0.0000 0.0000
# 4 0.0000 0.0000 0.0000 26.0816 0.0000 0.0000
# 5 0.0000 0.0000 0.0000 0.0000 -104.4085 0.0000
# 6 0.0000 0.0000 0.0000 0.0000 0.0000 24.0495
#
#
#
# Elastic Compliance Matrix: (Units=1/GPa)
#
#
# Indices 1 2 3 4 5 6 
#
# 1 0.010197 -0.004268 -0.003954 0.000000 0.000000 0.000000
# 2 -0.004268 0.016757 -0.003324 0.000000 0.000000 0.000000
# 3 -0.003954 -0.003324 0.017339 0.000000 0.000000 0.000000
# 4 0.000000 0.000000 0.000000 0.038341 0.000000 0.000000
# 5 0.000000 0.000000 0.000000 0.000000 -0.009578 0.000000
# 6 0.000000 0.000000 0.000000 0.000000 0.000000 0.041581
#
#
# Mechanical properties :
#
#
# Convention : Reuss Voigt Hill
#
# Bulk Modulus (GPa) = 47.17307 52.99023 50.08165
# Shear Modulus (GPa) = 34.53080 0.71687 17.62384
#
# Velocity S-wave (km/s) = 4.53642 0.65363 3.24086
# Velocity P-wave (km/s) = 7.45334 5.67009 6.62201
#
# Compressibility (1/GPa) = 0.02119854
#
# Stress axis : x y z
#
# Youngs Moduli (GPa) = 98.06329 59.67631 57.67489
#
# Poissons Ratio (x) = 0.25472 0.22807
# Poissons Ratio (y) = 0.41858 0.19173
# Poissons Ratio (z) = 0.38779 0.19839
#
# Static dielectric constant tensor:
#      x y z
#    x 5.711430 0.000000 0.000000 
#    y 0.000000 3.145520 0.000000 
#    z 0.000000 0.000000 3.012730 
# 
# 
# High freq. dielectric constant tensor:
#      x y z
#    x 1.662160 0.000000 0.000000 
#    y 0.000000 1.634100 0.000000 
#    z 0.000000 0.000000 1.635950 
# 
# From -- ./inp_files/58423.got.cif
#   From: 2010.03.12/outbox.cif.g09.slc.cpg/sg74_30_cif.got.tgz:58423.got - 2010.04.16 15:46:19.
