data_PCOD8299062
_publ_section_title
;
Structure prediction by ZEFSAII (Michael W. Deem and Ramdas Pophale) SiO2 
 PCOD8299062
Probable space group: I M M A
;
_chemical_formula_sum "Si O2"
_cell_formula_units_Z 88
_cell_length_a 9.663710
_cell_length_b 15.392092
_cell_length_c 33.693439
_cell_angle_alpha 90.000000
_cell_angle_beta 90.000000
_cell_angle_gamma 90.000000
_cell_volume 5011.720927
_symmetry_space_group_name_H-M "I M M A"
_symmetry_group_IT_number 74
_symmetry_cell_setting 'orthorhombic'
loop_
_space_group_symop_operation_xyz
x,y,z
-x,1/2-y,z
x,-y,-z
-x,1/2+y,-z
-x,-y,-z
x,1/2+y,-z
-x,y,z
x,1/2-y,z
1/2+x,1/2+y,1/2+z
1/2-x,-y,1/2+z
1/2+x,1/2-y,1/2-z
1/2-x,y,1/2-z
1/2-x,1/2-y,1/2-z
1/2+x,y,1/2-z
1/2-x,1/2+y,1/2+z
1/2+x,-y,1/2+z
loop_
_atom_site_type_symbol
_atom_site_label
_atom_site_fract_x
_atom_site_fract_y
_atom_site_fract_z
Si Si1 0.345641 0.750000 0.213148
Si Si2 0.341137 0.651666 0.414280
Si Si3 0.658603 0.560757 0.211071
Si Si4 0.341595 0.846810 0.925575
Si Si5 0.340452 0.900593 0.502688
Si Si6 0.337820 0.006278 0.872460
O O1 0.500000 0.750000 0.229948
O O2 0.250000 0.750000 0.250000
O O3 0.318378 0.842130 0.191375
O O4 0.500000 0.626992 0.404945
O O5 0.308580 0.750000 0.400323
O O6 0.313795 0.646368 0.461160
O O7 0.243525 0.585678 0.391578
O O8 0.500000 0.547788 0.224416
O O9 0.750000 0.542086 0.250000
O O10 0.697714 0.497451 0.174579
O O11 0.500000 0.865335 0.937638
O O12 0.325194 0.750000 0.907511
O O13 0.250145 0.852347 0.964759
O O14 0.291975 0.915996 0.892622
O O15 0.500000 0.894435 0.515840
O O16 0.292058 0.000000 0.500000
O O17 0.500000 0.025474 0.878117
#
# Coordination Sequence:
#
# PCOD8299062 Si02
#       6
#     8  16  16  16  16  16
#     4   8  14  26  44  66  92 120 154 192 230 286
#     4  10  21  35  50  73 105 138 171 208 252 301
#     4   9  18  32  50  72  98 130 166 205 251 303
#     4  10  21  36  54  77 104 136 176 219 261 305
#     4  10  19  34  55  75 101 137 175 214 255 301
#     4  10  21  35  53  76 103 134 170 213 258 304
#
# _framework density 17.55884
#
# number of rings (size 3 to 8) (size 9 to 14) (size 15 to 20)
#    0.000    2.364    1.818    0.545    1.273    3.273 
#    0.000    0.000    0.000    0.545    0.000    0.000 
#    0.000    0.000    0.000    0.000    0.000    0.000 
#
# Total GULP energy -545316.176462 kJ/mol
# GULP energy per Si atom -12393.549465 kJ/mol
# Density = 1.751888 g / cm^3
# Si number density = 17.558840 Si / 1000 Ang^3
#
#
#
# Elastic Constant Matrix: (Units=GPa)
#
#
# Indices 1 2 3 4 5 6 
#
# 1 61.3125 43.9340 50.1836 0.0000 0.0000 0.0000
# 2 43.9340 98.0338 53.9862 0.0000 0.0000 0.0000
# 3 50.1836 53.9862 100.6505 0.0000 0.0000 0.0000
# 4 0.0000 0.0000 0.0000 17.2871 0.0000 0.0000
# 5 0.0000 0.0000 0.0000 0.0000 26.2227 0.0000
# 6 0.0000 0.0000 0.0000 0.0000 0.0000 22.4765
#
#
#
# Elastic Compliance Matrix: (Units=1/GPa)
#
#
# Indices 1 2 3 4 5 6 
#
# 1 0.031153 -0.007675 -0.011416 0.000000 0.000000 0.000000
# 2 -0.007675 0.016367 -0.004952 0.000000 0.000000 0.000000
# 3 -0.011416 -0.004952 0.018284 0.000000 0.000000 0.000000
# 4 0.000000 0.000000 0.000000 0.057847 0.000000 0.000000
# 5 0.000000 0.000000 0.000000 0.000000 0.038135 0.000000
# 6 0.000000 0.000000 0.000000 0.000000 0.000000 0.044491
#
#
# Mechanical properties :
#
#
# Convention : Reuss Voigt Hill
#
# Bulk Modulus (GPa) = 56.44103 61.80049 59.12076
# Shear Modulus (GPa) = 19.21086 20.65679 19.93383
#
# Velocity S-wave (km/s) = 3.31128 3.43364 3.37302
# Velocity P-wave (km/s) = 6.84348 7.14090 6.99377
#
# Compressibility (1/GPa) = 0.01771761
#
# Stress axis : x y z
#
# Youngs Moduli (GPa) = 32.09932 61.09788 54.69303
#
# Poissons Ratio (x) = 0.46890 0.62440
# Poissons Ratio (y) = 0.24635 0.27086
# Poissons Ratio (z) = 0.36646 0.30258
#
# Static dielectric constant tensor:
#      x y z
#    x 3.272270 0.000000 0.000000 
#    y 0.000000 3.033680 0.000000 
#    z 0.000000 0.000000 3.054830 
# 
# 
# High freq. dielectric constant tensor:
#      x y z
#    x 1.679700 0.000000 0.000000 
#    y 0.000000 1.674750 0.000000 
#    z 0.000000 0.000000 1.662840 
# 
# From -- ./inp_files/65919.got.cif
#   From: 2010.03.12/outbox.cif.g09.slc.cpg/sg74_33_cif.got.tgz:65919.got - 2010.04.16 15:46:19.
