data_PCOD8299491
_publ_section_title
;
Structure prediction by ZEFSAII (Michael W. Deem and Ramdas Pophale) SiO2 
 PCOD8299491
Probable space group: I M M A
;
_chemical_formula_sum "Si O2"
_cell_formula_units_Z 112
_cell_length_a 15.034029
_cell_length_b 13.107224
_cell_length_c 31.527893
_cell_angle_alpha 90.000000
_cell_angle_beta 90.000000
_cell_angle_gamma 90.000000
_cell_volume 6212.709588
_symmetry_space_group_name_H-M "I M M A"
_symmetry_group_IT_number 74
_symmetry_cell_setting 'orthorhombic'
loop_
_space_group_symop_operation_xyz
x,y,z
-x,1/2-y,z
x,-y,-z
-x,1/2+y,-z
-x,-y,-z
x,1/2+y,-z
-x,y,z
x,1/2-y,z
1/2+x,1/2+y,1/2+z
1/2-x,-y,1/2+z
1/2+x,1/2-y,1/2-z
1/2-x,y,1/2-z
1/2-x,1/2-y,1/2-z
1/2+x,y,1/2-z
1/2-x,1/2+y,1/2+z
1/2+x,-y,1/2+z
loop_
_atom_site_type_symbol
_atom_site_label
_atom_site_fract_x
_atom_site_fract_y
_atom_site_fract_z
Si Si1 0.398314 0.633793 0.102484
Si Si2 0.245740 0.539736 0.452475
Si Si3 0.397795 0.866949 0.399311
Si Si4 0.397160 0.450469 0.340569
Si Si5 0.753763 0.640017 0.608070
Si Si6 0.602862 0.550640 0.837429
Si Si7 0.104041 0.365770 0.248121
O O1 0.500000 0.616019 0.088163
O O2 0.382654 0.750000 0.117514
O O3 0.336829 0.611994 0.061226
O O4 0.374679 0.561699 0.143107
O O5 0.247987 0.500000 0.500000
O O6 0.337695 0.594108 0.438531
O O7 0.228643 0.435405 0.429318
O O8 0.500000 0.878462 0.414000
O O9 0.374383 0.750000 0.388286
O O10 0.379579 0.932946 0.356468
O O11 0.500000 0.421007 0.345835
O O12 0.341302 0.375731 0.370006
O O13 0.363210 0.430933 0.292628
O O14 0.752764 0.750000 0.586852
O O15 0.835720 0.634257 0.640545
O O16 0.500000 0.578647 0.845186
O O17 0.628135 0.561456 0.787849
O O18 0.146019 0.250000 0.250138
O O19 0.000000 0.350413 0.245277
#
# Coordination Sequence:
#
# PCOD8299491 Si02
#       7
#    16  16  16  16  16  16  16
#     4   9  18  34  55  75  98 132 168 201 244 295
#     4  10  21  35  53  75 100 125 156 204 250 294
#     4   9  18  34  55  75  98 132 168 201 244 295
#     4   9  18  32  48  70 100 130 164 204 242 286
#     4  10  20  32  48  70  94 126 163 195 240 298
#     4   9  18  32  48  70 100 130 164 204 242 286
#     4   9  16  27  46  70  98 134 169 203 246 288
#
# _framework density 18.027560999999999
#
# number of rings (size 3 to 8) (size 9 to 14) (size 15 to 20)
#    0.000    2.714    0.000    1.286    0.000    4.000 
#    0.000    2.143    0.000    4.286    0.000    6.000 
#    0.000    0.000    0.000    0.000    0.000    0.000 
#
# Total GULP energy -693822.013349 kJ/mol
# GULP energy per Si atom -12389.678810 kJ/mol
# Density = 1.798653 g / cm^3
# Si number density = 18.027561 Si / 1000 Ang^3
#
#
#
# Elastic Constant Matrix: (Units=GPa)
#
#
# Indices 1 2 3 4 5 6 
#
# 1 72.3463 30.4347 26.9867 0.0000 0.0000 0.0000
# 2 30.4347 113.6917 36.8444 0.0000 0.0000 0.0000
# 3 26.9867 36.8444 104.5113 0.0000 0.0000 0.0000
# 4 0.0000 0.0000 0.0000 15.3347 0.0000 0.0000
# 5 0.0000 0.0000 0.0000 0.0000 15.5611 0.0000
# 6 0.0000 0.0000 0.0000 0.0000 0.0000 -24.7889
#
#
#
# Elastic Compliance Matrix: (Units=1/GPa)
#
#
# Indices 1 2 3 4 5 6 
#
# 1 0.016385 -0.003404 -0.003031 0.000000 0.000000 0.000000
# 2 -0.003404 0.010637 -0.002871 0.000000 0.000000 0.000000
# 3 -0.003031 -0.002871 0.011363 0.000000 0.000000 0.000000
# 4 0.000000 0.000000 0.000000 0.065211 0.000000 0.000000
# 5 0.000000 0.000000 0.000000 0.000000 0.064263 0.000000
# 6 0.000000 0.000000 0.000000 0.000000 0.000000 -0.040341
#
#
# Mechanical properties :
#
#
# Convention : Reuss Voigt Hill
#
# Bulk Modulus (GPa) = 50.57249 53.23122 51.90185
# Shear Modulus (GPa) = 32.73921 14.30697 23.52309
#
# Velocity S-wave (km/s) = 4.26615 2.82018 3.61618
# Velocity P-wave (km/s) = 7.23744 6.34006 6.80356
#
# Compressibility (1/GPa) = 0.01977360
#
# Stress axis : x y z
#
# Youngs Moduli (GPa) = 61.03161 94.00797 88.00369
#
# Poissons Ratio (x) = 0.32000 0.26673
# Poissons Ratio (y) = 0.20775 0.25267
# Poissons Ratio (z) = 0.18498 0.26991
#
# Static dielectric constant tensor:
#      x y z
#    x 3.462910 0.000000 0.000000 
#    y 0.000000 5.850710 0.000000 
#    z 0.000000 0.000000 3.571480 
# 
# 
# High freq. dielectric constant tensor:
#      x y z
#    x 1.708620 0.000000 0.000000 
#    y 0.000000 1.700000 0.000000 
#    z 0.000000 0.000000 1.675450 
# 
# From -- ./inp_files/72522.got.cif
#   From: 2010.03.12/outbox.cif.g09.slc.cpg/sg74_37_cif.got.tgz:72522.got - 2010.04.16 15:46:19.
