data_PCOD8299995
_publ_section_title
;
Structure prediction by ZEFSAII (Michael W. Deem and Ramdas Pophale) SiO2 
 PCOD8299995
Probable space group: I M M A
;
_chemical_formula_sum "Si O2"
_cell_formula_units_Z 96
_cell_length_a 22.031336
_cell_length_b 9.914178
_cell_length_c 21.110003
_cell_angle_alpha 90.000000
_cell_angle_beta 90.000000
_cell_angle_gamma 90.000000
_cell_volume 4610.901460
_symmetry_space_group_name_H-M "I M M A"
_symmetry_group_IT_number 74
_symmetry_cell_setting 'orthorhombic'
loop_
_space_group_symop_operation_xyz
x,y,z
-x,1/2-y,z
x,-y,-z
-x,1/2+y,-z
-x,-y,-z
x,1/2+y,-z
-x,y,z
x,1/2-y,z
1/2+x,1/2+y,1/2+z
1/2-x,-y,1/2+z
1/2+x,1/2-y,1/2-z
1/2-x,y,1/2-z
1/2-x,1/2-y,1/2-z
1/2+x,y,1/2-z
1/2-x,1/2+y,1/2+z
1/2+x,-y,1/2+z
loop_
_atom_site_type_symbol
_atom_site_label
_atom_site_fract_x
_atom_site_fract_y
_atom_site_fract_z
Si Si1 0.307402 0.599364 0.053018
Si Si2 0.066490 0.403608 0.605857
Si Si3 0.391319 0.602843 0.795981
Si Si4 0.132285 0.899527 0.845146
Si Si5 0.070119 0.093438 0.939887
Si Si6 0.738430 0.502821 0.819327
O O1 0.301118 0.750000 0.026024
O O2 0.378495 0.556804 0.059325
O O3 0.273561 0.597101 0.121262
O O4 0.278368 0.500000 0.000000
O O5 0.075712 0.250000 0.627830
O O6 0.068639 0.491474 0.669341
O O7 0.000000 0.423849 0.573421
O O8 0.414371 0.750000 0.817560
O O9 0.401526 0.583654 0.721515
O O10 0.320244 0.596454 0.813262
O O11 0.116674 0.750000 0.873668
O O12 0.110414 0.026408 0.885707
O O13 0.204534 0.904797 0.836594
O O14 0.089945 0.250000 0.951335
O O15 0.000000 0.087689 0.920003
O O16 0.082430 0.000000 0.000000
O O17 0.750000 0.429842 0.750000
#
# Coordination Sequence:
#
# PCOD8299995 Si02
#       6
#    16  16  16  16  16  16
#     4  10  22  38  57  83 114 149 188 234 287 337
#     4   9  19  36  55  76 107 147 189 231 275 325
#     4   9  18  33  54  82 113 143 180 227 276 326
#     4  10  20  34  56  84 111 141 178 222 273 331
#     4  10  22  40  59  78 104 140 181 226 277 332
#     4   9  19  37  60  84 113 150 191 233 278 330
#
# _framework density 20.820222999999999
#
# number of rings (size 3 to 8) (size 9 to 14) (size 15 to 20)
#    0.000    2.500    0.000    1.000    0.000   10.000 
#    0.000    6.667    0.000    0.000    0.000    0.000 
#    0.000    0.000    0.000    0.000    0.000    0.000 
#
# Total GULP energy -594753.474186 kJ/mol
# GULP energy per Si atom -12390.697379 kJ/mol
# Density = 2.077284 g / cm^3
# Si number density = 20.820223 Si / 1000 Ang^3
#
#
#
# Elastic Constant Matrix: (Units=GPa)
#
#
# Indices 1 2 3 4 5 6 
#
# 1 41.4587 22.1723 26.4527 0.0000 0.0000 0.0000
# 2 22.1723 130.9002 62.5929 0.0000 0.0000 0.0000
# 3 26.4527 62.5929 104.5078 0.0000 0.0000 0.0000
# 4 0.0000 0.0000 0.0000 33.9473 0.0000 0.0000
# 5 0.0000 0.0000 0.0000 0.0000 19.5368 0.0000
# 6 0.0000 0.0000 0.0000 0.0000 0.0000 21.2218
#
#
#
# Elastic Compliance Matrix: (Units=1/GPa)
#
#
# Indices 1 2 3 4 5 6 
#
# 1 0.029125 -0.001973 -0.006190 0.000000 0.000000 0.000000
# 2 -0.001973 0.010839 -0.005992 0.000000 0.000000 0.000000
# 3 -0.006190 -0.005992 0.014725 0.000000 0.000000 0.000000
# 4 0.000000 0.000000 0.000000 0.029457 0.000000 0.000000
# 5 0.000000 0.000000 0.000000 0.000000 0.051185 0.000000
# 6 0.000000 0.000000 0.000000 0.000000 0.000000 0.047121
#
#
# Mechanical properties :
#
#
# Convention : Reuss Voigt Hill
#
# Bulk Modulus (GPa) = 37.91166 55.47806 46.69486
# Shear Modulus (GPa) = 22.77310 25.98444 24.37877
#
# Velocity S-wave (km/s) = 3.31085 3.53659 3.42558
# Velocity P-wave (km/s) = 5.73273 6.58640 6.17434
#
# Compressibility (1/GPa) = 0.02637711
#
# Stress axis : x y z
#
# Youngs Moduli (GPa) = 34.33423 92.25909 67.91392
#
# Poissons Ratio (x) = 0.18206 0.42040
# Poissons Ratio (y) = 0.06775 0.40696
# Poissons Ratio (z) = 0.21254 0.55285
#
# Static dielectric constant tensor:
#      x y z
#    x 3.759130 0.000000 0.000000 
#    y 0.000000 3.682900 0.000000 
#    z 0.000000 0.000000 3.690880 
# 
# 
# High freq. dielectric constant tensor:
#      x y z
#    x 1.808930 0.000000 0.000000 
#    y 0.000000 1.811070 0.000000 
#    z 0.000000 0.000000 1.803540 
# 
# From -- ./inp_files/55104.got.cif
#   From: 2010.03.12/outbox.cif.g09.slc.cpg/sg74_28_cif.got.tgz:55104.got - 2010.04.16 15:46:19.
