data_PCOD8299391
_publ_section_title
;
Structure prediction by ZEFSAII (Michael W. Deem and Ramdas Pophale) SiO2 
 PCOD8299391
Probable space group: I M M A
;
_chemical_formula_sum "Si O2"
_cell_formula_units_Z 96
_cell_length_a 20.657030
_cell_length_b 9.063313
_cell_length_c 30.489016
_cell_angle_alpha 90.000000
_cell_angle_beta 90.000000
_cell_angle_gamma 90.000000
_cell_volume 5708.187984
_symmetry_space_group_name_H-M "I M M A"
_symmetry_group_IT_number 74
_symmetry_cell_setting 'orthorhombic'
loop_
_space_group_symop_operation_xyz
x,y,z
-x,1/2-y,z
x,-y,-z
-x,1/2+y,-z
-x,-y,-z
x,1/2+y,-z
-x,y,z
x,1/2-y,z
1/2+x,1/2+y,1/2+z
1/2-x,-y,1/2+z
1/2+x,1/2-y,1/2-z
1/2-x,y,1/2-z
1/2-x,1/2-y,1/2-z
1/2+x,y,1/2-z
1/2-x,1/2+y,1/2+z
1/2+x,-y,1/2+z
loop_
_atom_site_type_symbol
_atom_site_label
_atom_site_fract_x
_atom_site_fract_y
_atom_site_fract_z
Si Si1 0.428124 0.580446 0.929330
Si Si2 0.242302 0.583541 0.362989
Si Si3 0.302504 0.924515 0.042677
Si Si4 0.904245 0.915304 0.344543
Si Si5 0.697202 0.575803 0.714529
Si Si6 0.071688 0.080492 0.753704
O O1 0.500000 0.560528 0.949792
O O2 0.405439 0.750000 0.932254
O O3 0.376794 0.479014 0.954651
O O4 0.431704 0.533369 0.878525
O O5 0.269575 0.750000 0.361555
O O6 0.237346 0.529381 0.413737
O O7 0.172737 0.574525 0.340535
O O8 0.288608 0.479392 0.334753
O O9 0.303532 0.750000 0.037114
O O10 0.269673 0.000000 0.000000
O O11 0.923971 0.750000 0.359913
O O12 0.933918 0.953286 0.297767
O O13 0.698840 0.750000 0.714512
O O14 0.750000 0.514954 0.750000
O O15 0.624832 0.524186 0.724945
O O16 0.092393 0.250000 0.761575
O O17 0.000000 0.049560 0.773831
#
# Coordination Sequence:
#
# PCOD8299391 Si02
#       6
#    16  16  16  16  16  16
#     4  10  20  31  44  64  91 125 163 204 251 299
#     4   9  18  33  53  73  94 126 166 206 247 295
#     4  10  21  36  53  72  92 120 157 203 256 302
#     4   9  17  30  48  68  92 125 167 212 252 292
#     4  11  22  33  49  75 104 136 172 210 254 299
#     4  10  20  33  50  71  98 135 175 213 254 299
#
# _framework density 16.817945999999999
#
# number of rings (size 3 to 8) (size 9 to 14) (size 15 to 20)
#    0.000    2.167    1.667    3.000    0.000    7.333 
#    0.000    0.000    0.000    0.000    0.000    0.000 
#    0.000    0.667    0.000    2.167    0.000    2.667 
#
# Total GULP energy -595053.762649 kJ/mol
# GULP energy per Si atom -12396.953389 kJ/mol
# Density = 1.677967 g / cm^3
# Si number density = 16.817946 Si / 1000 Ang^3
#
#
#
# Elastic Constant Matrix: (Units=GPa)
#
#
# Indices 1 2 3 4 5 6 
#
# 1 64.0957 27.5677 38.5459 0.0000 0.0000 0.0000
# 2 27.5677 70.0312 43.7988 0.0000 0.0000 0.0000
# 3 38.5459 43.7988 91.7885 0.0000 0.0000 0.0000
# 4 0.0000 0.0000 0.0000 28.1542 0.0000 0.0000
# 5 0.0000 0.0000 0.0000 0.0000 17.2861 0.0000
# 6 0.0000 0.0000 0.0000 0.0000 0.0000 23.0522
#
#
#
# Elastic Compliance Matrix: (Units=1/GPa)
#
#
# Indices 1 2 3 4 5 6 
#
# 1 0.021647 -0.004042 -0.007162 0.000000 0.000000 0.000000
# 2 -0.004042 0.021108 -0.008375 0.000000 0.000000 0.000000
# 3 -0.007162 -0.008375 0.017898 0.000000 0.000000 0.000000
# 4 0.000000 0.000000 0.000000 0.035519 0.000000 0.000000
# 5 0.000000 0.000000 0.000000 0.000000 0.057850 0.000000
# 6 0.000000 0.000000 0.000000 0.000000 0.000000 0.043380
#
#
# Mechanical properties :
#
#
# Convention : Reuss Voigt Hill
#
# Bulk Modulus (GPa) = 46.51968 49.52668 48.02318
# Shear Modulus (GPa) = 20.51494 21.43206 20.97350
#
# Velocity S-wave (km/s) = 3.49639 3.57369 3.53525
# Velocity P-wave (km/s) = 6.63479 6.82209 6.72909
#
# Compressibility (1/GPa) = 0.02149628
#
# Stress axis : x y z
#
# Youngs Moduli (GPa) = 46.19537 47.37473 55.87131
#
# Poissons Ratio (x) = 0.19151 0.40013
# Poissons Ratio (y) = 0.18674 0.46791
# Poissons Ratio (z) = 0.33084 0.39675
#
# Static dielectric constant tensor:
#      x y z
#    x 3.722280 0.000000 0.000000 
#    y 0.000000 3.140710 0.000000 
#    z 0.000000 0.000000 3.129350 
# 
# 
# High freq. dielectric constant tensor:
#      x y z
#    x 1.613330 0.000000 0.000000 
#    y 0.000000 1.651400 0.000000 
#    z 0.000000 0.000000 1.635520 
# 
# From -- ./inp_files/68126.got.cif
#   From: 2010.03.12/outbox.cif.g09.slc.cpg/sg74_35_cif.got.tgz:68126.got - 2010.04.16 15:46:19.
