data_PCOD8299518
_publ_section_title
;
Structure prediction by ZEFSAII (Michael W. Deem and Ramdas Pophale) SiO2 
 PCOD8299518
Probable space group: I M M A
;
_chemical_formula_sum "Si O2"
_cell_formula_units_Z 80
_cell_length_a 18.628542
_cell_length_b 9.049526
_cell_length_c 26.036623
_cell_angle_alpha 90.000000
_cell_angle_beta 90.000000
_cell_angle_gamma 90.000000
_cell_volume 4389.240241
_symmetry_space_group_name_H-M "I M M A"
_symmetry_group_IT_number 74
_symmetry_cell_setting 'orthorhombic'
loop_
_space_group_symop_operation_xyz
x,y,z
-x,1/2-y,z
x,-y,-z
-x,1/2+y,-z
-x,-y,-z
x,1/2+y,-z
-x,y,z
x,1/2-y,z
1/2+x,1/2+y,1/2+z
1/2-x,-y,1/2+z
1/2+x,1/2-y,1/2-z
1/2-x,y,1/2-z
1/2-x,1/2-y,1/2-z
1/2+x,y,1/2-z
1/2-x,1/2+y,1/2+z
1/2+x,-y,1/2+z
loop_
_atom_site_type_symbol
_atom_site_label
_atom_site_fract_x
_atom_site_fract_y
_atom_site_fract_z
Si Si1 0.182971 0.921798 0.047466
Si Si2 0.164164 0.921730 0.547226
Si Si3 0.338661 0.921274 0.838826
Si Si4 0.313175 0.578012 0.339500
Si Si5 0.581841 0.577249 0.250043
O O1 0.188889 0.750000 0.034698
O O2 0.150077 0.948617 0.104294
O O3 0.260429 0.995671 0.049499
O O4 0.139395 0.000000 0.000000
O O5 0.174474 0.750000 0.534526
O O6 0.129269 0.943616 0.603455
O O7 0.119896 0.000000 0.500000
O O8 0.330795 0.750000 0.825612
O O9 0.260326 0.990825 0.831510
O O10 0.395980 0.994066 0.801450
O O11 0.294511 0.750000 0.332486
O O12 0.370077 0.522235 0.297649
O O13 0.500000 0.537885 0.263232
O O14 0.592432 0.750000 0.240446
#
# Coordination Sequence:
#
# PCOD8299518 Si02
#       5
#    16  16  16  16  16
#     4   9  15  24  41  66  95 123 151 188 233 277
#     4   9  16  26  42  67  97 124 151 186 229 277
#     4  10  20  32  49  75 102 126 155 195 241 285
#     4   9  18  32  50  72  97 126 161 199 236 278
#     4  10  21  36  52  69  92 126 166 203 239 282
#
# _framework density 18.226388
#
# number of rings (size 3 to 8) (size 9 to 14) (size 15 to 20)
#    0.000    2.600    0.000    3.600    0.000    6.800 
#    0.000    0.000    0.000    1.200    0.000    0.000 
#    0.000    0.000    0.000    0.000    0.000    5.400 
#
# Total GULP energy -495590.961321 kJ/mol
# GULP energy per Si atom -12389.774033 kJ/mol
# Density = 1.818490 g / cm^3
# Si number density = 18.226388 Si / 1000 Ang^3
#
#
#
# Elastic Constant Matrix: (Units=GPa)
#
#
# Indices 1 2 3 4 5 6 
#
# 1 38.9392 21.3028 24.0994 0.0000 0.0000 0.0000
# 2 21.3028 88.0537 51.8472 0.0000 0.0000 0.0000
# 3 24.0994 51.8472 135.5976 0.0000 0.0000 0.0000
# 4 0.0000 0.0000 0.0000 34.3397 0.0000 0.0000
# 5 0.0000 0.0000 0.0000 0.0000 3.7566 0.0000
# 6 0.0000 0.0000 0.0000 0.0000 0.0000 7.5423
#
#
#
# Elastic Compliance Matrix: (Units=1/GPa)
#
#
# Indices 1 2 3 4 5 6 
#
# 1 0.030756 -0.005449 -0.003383 0.000000 0.000000 0.000000
# 2 -0.005449 0.015622 -0.005005 0.000000 0.000000 0.000000
# 3 -0.003383 -0.005005 0.009890 0.000000 0.000000 0.000000
# 4 0.000000 0.000000 0.000000 0.029121 0.000000 0.000000
# 5 0.000000 0.000000 0.000000 0.000000 0.266200 0.000000
# 6 0.000000 0.000000 0.000000 0.000000 0.000000 0.132586
#
#
# Mechanical properties :
#
#
# Convention : Reuss Voigt Hill
#
# Bulk Modulus (GPa) = 34.97197 50.78767 42.87982
# Shear Modulus (GPa) = 9.58997 20.15044 14.87021
#
# Velocity S-wave (km/s) = 2.29630 3.32861 2.85943
# Velocity P-wave (km/s) = 5.12444 6.53439 5.87189
#
# Compressibility (1/GPa) = 0.02859433
#
# Stress axis : x y z
#
# Youngs Moduli (GPa) = 32.51441 64.01300 101.11670
#
# Poissons Ratio (x) = 0.34880 0.34204
# Poissons Ratio (y) = 0.17717 0.50606
# Poissons Ratio (z) = 0.10998 0.32037
#
# Static dielectric constant tensor:
#      x y z
#    x 2.810200 0.000000 0.000000 
#    y 0.000000 3.473970 0.000000 
#    z 0.000000 0.000000 4.796150 
# 
# 
# High freq. dielectric constant tensor:
#      x y z
#    x 1.636530 0.000000 0.000000 
#    y 0.000000 1.715250 0.000000 
#    z 0.000000 0.000000 1.739960 
# 
# From -- ./inp_files/63895.got.cif
#   From: 2010.03.12/outbox.cif.g09.slc.cpg/sg74_32_cif.got.tgz:63895.got - 2010.04.16 15:46:19.
