data_PCOD8299663
_publ_section_title
;
Structure prediction by ZEFSAII (Michael W. Deem and Ramdas Pophale) SiO2 
 PCOD8299663
Probable space group: I M M A
;
_chemical_formula_sum "Si O2"
_cell_formula_units_Z 80
_cell_length_a 27.217084
_cell_length_b 8.858973
_cell_length_c 17.621225
_cell_angle_alpha 90.000000
_cell_angle_beta 90.000000
_cell_angle_gamma 90.000000
_cell_volume 4248.748931
_symmetry_space_group_name_H-M "I M M A"
_symmetry_group_IT_number 74
_symmetry_cell_setting 'orthorhombic'
loop_
_space_group_symop_operation_xyz
x,y,z
-x,1/2-y,z
x,-y,-z
-x,1/2+y,-z
-x,-y,-z
x,1/2+y,-z
-x,y,z
x,1/2-y,z
1/2+x,1/2+y,1/2+z
1/2-x,-y,1/2+z
1/2+x,1/2-y,1/2-z
1/2-x,y,1/2-z
1/2-x,1/2-y,1/2-z
1/2+x,y,1/2-z
1/2-x,1/2+y,1/2+z
1/2+x,-y,1/2+z
loop_
_atom_site_type_symbol
_atom_site_label
_atom_site_fract_x
_atom_site_fract_y
_atom_site_fract_z
Si Si1 0.943938 0.576727 0.226281
Si Si2 0.357663 0.425655 0.192542
Si Si3 0.803584 0.578413 0.847801
Si Si4 0.906081 0.425543 0.079155
Si Si5 0.286825 0.572721 0.081304
O O1 0.927245 0.750000 0.220043
O O2 0.910848 0.494025 0.288995
O O3 0.938496 0.501392 0.144166
O O4 0.000000 0.561839 0.253286
O O5 0.364388 0.250000 0.175484
O O6 0.320786 0.453476 0.262373
O O7 0.336188 0.506952 0.118585
O O8 0.784168 0.750000 0.855663
O O9 0.848460 0.549236 0.905056
O O10 0.760027 0.464467 0.866584
O O11 0.919315 0.250000 0.077334
O O12 0.920708 0.500000 0.000000
O O13 0.292326 0.750000 0.072447
O O14 0.278337 0.500000 0.000000
#
# Coordination Sequence:
#
# PCOD8299663 Si02
#       5
#    16  16  16  16  16
#     4  10  21  37  57  80 105 136 177 223 270 322
#     4  10  21  38  59  81 108 141 178 221 266 316
#     4   9  19  35  54  78 109 145 182 218 259 310
#     4  10  20  33  51  76 109 147 184 224 267 313
#     4  12  24  36  54  80 111 145 180 219 264 315
#
# _framework density 18.829070999999999
#
# number of rings (size 3 to 8) (size 9 to 14) (size 15 to 20)
#    0.000    1.800    0.000    6.000    0.000   10.800 
#    0.000    0.000    0.000    0.600    0.000    0.000 
#    0.000    0.000    0.000    0.000    0.000    0.000 
#
# Total GULP energy -496216.406385 kJ/mol
# GULP energy per Si atom -12405.410160 kJ/mol
# Density = 1.878621 g / cm^3
# Si number density = 18.829071 Si / 1000 Ang^3
#
#
#
# Elastic Constant Matrix: (Units=GPa)
#
#
# Indices 1 2 3 4 5 6 
#
# 1 86.2607 53.5133 25.7044 0.0000 0.0000 0.0000
# 2 53.5133 151.8607 31.9488 0.0000 0.0000 0.0000
# 3 25.7044 31.9488 39.4466 0.0000 0.0000 0.0000
# 4 0.0000 0.0000 0.0000 32.7983 0.0000 0.0000
# 5 0.0000 0.0000 0.0000 0.0000 13.7387 0.0000
# 6 0.0000 0.0000 0.0000 0.0000 0.0000 31.9283
#
#
#
# Elastic Compliance Matrix: (Units=1/GPa)
#
#
# Indices 1 2 3 4 5 6 
#
# 1 0.016386 -0.004252 -0.007234 0.000000 0.000000 0.000000
# 2 -0.004252 0.009041 -0.004552 0.000000 0.000000 0.000000
# 3 -0.007234 -0.004552 0.033751 0.000000 0.000000 0.000000
# 4 0.000000 0.000000 0.000000 0.030489 0.000000 0.000000
# 5 0.000000 0.000000 0.000000 0.000000 0.072787 0.000000
# 6 0.000000 0.000000 0.000000 0.000000 0.000000 0.031320
#
#
# Mechanical properties :
#
#
# Convention : Reuss Voigt Hill
#
# Bulk Modulus (GPa) = 36.89640 55.54454 46.22047
# Shear Modulus (GPa) = 21.28708 26.78649 24.03679
#
# Velocity S-wave (km/s) = 3.36600 3.77585 3.57680
# Velocity P-wave (km/s) = 5.89446 6.96942 6.45435
#
# Compressibility (1/GPa) = 0.02710291
#
# Stress axis : x y z
#
# Youngs Moduli (GPa) = 61.02633 110.60656 29.62900
#
# Poissons Ratio (x) = 0.47035 0.21432
# Poissons Ratio (y) = 0.25951 0.13486
# Poissons Ratio (z) = 0.44144 0.50343
#
# Static dielectric constant tensor:
#      x y z
#    x 3.341030 0.000000 0.000000 
#    y 0.000000 3.564650 0.000000 
#    z 0.000000 0.000000 3.352180 
# 
# 
# High freq. dielectric constant tensor:
#      x y z
#    x 1.723180 0.000000 0.000000 
#    y 0.000000 1.746120 0.000000 
#    z 0.000000 0.000000 1.717230 
# 
# From -- ./inp_files/39701.got.cif
#   From: 2010.03.12/outbox.cif.g09.slc.cpg/sg74_20_cif.got.tgz:39701.got - 2010.04.16 15:46:19.
