data_PCOD8299776
_publ_section_title
;
Structure prediction by ZEFSAII (Michael W. Deem and Ramdas Pophale) SiO2 
 PCOD8299776
Probable space group: I M M A
;
_chemical_formula_sum "Si O2"
_cell_formula_units_Z 80
_cell_length_a 17.286402
_cell_length_b 10.149979
_cell_length_c 24.904109
_cell_angle_alpha 90.000000
_cell_angle_beta 90.000000
_cell_angle_gamma 90.000000
_cell_volume 4369.590722
_symmetry_space_group_name_H-M "I M M A"
_symmetry_group_IT_number 74
_symmetry_cell_setting 'orthorhombic'
loop_
_space_group_symop_operation_xyz
x,y,z
-x,1/2-y,z
x,-y,-z
-x,1/2+y,-z
-x,-y,-z
x,1/2+y,-z
-x,y,z
x,1/2-y,z
1/2+x,1/2+y,1/2+z
1/2-x,-y,1/2+z
1/2+x,1/2-y,1/2-z
1/2-x,y,1/2-z
1/2-x,1/2-y,1/2-z
1/2+x,y,1/2-z
1/2-x,1/2+y,1/2+z
1/2+x,-y,1/2+z
loop_
_atom_site_type_symbol
_atom_site_label
_atom_site_fract_x
_atom_site_fract_y
_atom_site_fract_z
Si Si1 0.208226 0.520112 0.116219
Si Si2 0.410255 0.750000 0.769627
Si Si3 0.585089 0.750000 0.531106
Si Si4 0.864346 0.250000 0.147029
Si Si5 0.318582 0.000000 0.500000
Si Si6 0.182675 0.005256 0.707809
Si Si7 0.587133 0.750000 0.367396
Si Si8 0.084403 0.750000 0.257507
O O1 0.187574 0.379702 0.142279
O O2 0.234083 0.511339 0.053621
O O3 0.282288 0.560613 0.151518
O O4 0.135457 0.619412 0.117353
O O5 0.500000 0.750000 0.786041
O O6 0.406376 0.750000 0.704555
O O7 0.369123 0.625028 0.797013
O O8 0.500000 0.750000 0.506924
O O9 0.578204 0.750000 0.596006
O O10 0.627342 0.624909 0.507185
O O11 0.250000 0.976268 0.750000
O O12 0.128859 0.119928 0.727798
O O13 0.500000 0.750000 0.394062
O O14 0.573575 0.750000 0.305181
O O15 0.000000 0.750000 0.285395
#
# Coordination Sequence:
#
# PCOD8299776 Si02
#       8
#    16   8   8   8   8  16   8   8
#     4  11  22  37  56  78 107 146 187 224 267 318
#     4  12  23  36  56  85 115 143 177 221 273 328
#     4  10  20  34  51  71 104 146 182 219 256 303
#     4  10  20  35  53  78 111 141 183 217 260 313
#     4  10  23  36  50  74 103 136 188 228 256 310
#     4  12  21  37  59  82 109 147 183 219 272 325
#     4  11  22  35  53  80 113 147 183 223 263 311
#     4  11  22  36  55  86 117 142 178 222 272 327
#
# _framework density 18.308350999999998
#
# number of rings (size 3 to 8) (size 9 to 14) (size 15 to 20)
#    0.000    1.000    4.000    3.600    0.000    7.200 
#    0.000    0.000    0.000    0.000    0.000    4.200 
#    0.000    0.000    0.000    0.000    0.000    0.000 
#
# Total GULP energy -495792.747307 kJ/mol
# GULP energy per Si atom -12394.818683 kJ/mol
# Density = 1.826668 g / cm^3
# Si number density = 18.308351 Si / 1000 Ang^3
#
#
#
# Elastic Constant Matrix: (Units=GPa)
#
#
# Indices 1 2 3 4 5 6 
#
# 1 93.2457 24.0458 36.0864 0.0000 0.0000 0.0000
# 2 24.0458 106.2189 4.9819 0.0000 0.0000 0.0000
# 3 36.0864 4.9819 113.1116 0.0000 0.0000 0.0000
# 4 0.0000 0.0000 0.0000 26.2140 0.0000 0.0000
# 5 0.0000 0.0000 0.0000 0.0000 13.6369 0.0000
# 6 0.0000 0.0000 0.0000 0.0000 0.0000 43.3194
#
#
#
# Elastic Compliance Matrix: (Units=1/GPa)
#
#
# Indices 1 2 3 4 5 6 
#
# 1 0.012991 -0.002752 -0.004023 0.000000 0.000000 0.000000
# 2 -0.002752 0.010017 0.000437 0.000000 0.000000 0.000000
# 3 -0.004023 0.000437 0.010105 0.000000 0.000000 0.000000
# 4 0.000000 0.000000 0.000000 0.038148 0.000000 0.000000
# 5 0.000000 0.000000 0.000000 0.000000 0.073330 0.000000
# 6 0.000000 0.000000 0.000000 0.000000 0.000000 0.023084
#
#
# Mechanical properties :
#
#
# Convention : Reuss Voigt Hill
#
# Bulk Modulus (GPa) = 48.93353 49.20051 49.06702
# Shear Modulus (GPa) = 26.71439 33.13153 29.92296
#
# Velocity S-wave (km/s) = 3.82401 4.25860 4.04714
# Velocity P-wave (km/s) = 6.80315 7.14930 6.97837
#
# Compressibility (1/GPa) = 0.02043588
#
# Stress axis : x y z
#
# Youngs Moduli (GPa) = 76.97546 99.82945 98.95910
#
# Poissons Ratio (x) = 0.27475 0.39815
# Poissons Ratio (y) = 0.21185 -0.04323
# Poissons Ratio (z) = 0.30970 -0.04361
#
# Static dielectric constant tensor:
#      x y z
#    x 3.340950 0.000000 0.000000 
#    y 0.000000 3.419530 0.000000 
#    z 0.000000 0.000000 3.630700 
# 
# 
# High freq. dielectric constant tensor:
#      x y z
#    x 1.681300 0.000000 0.000000 
#    y 0.000000 1.733400 0.000000 
#    z 0.000000 0.000000 1.708350 
# 
# From -- ./inp_files/67618.got.cif
#   From: 2010.03.12/outbox.cif.g09.slc.cpg/sg74_34_cif.got.tgz:67618.got - 2010.04.16 15:46:19.
