data_PCOD8299636
_publ_section_title
;
Structure prediction by ZEFSAII (Michael W. Deem and Ramdas Pophale) SiO2 
 PCOD8299636
Probable space group: I M M A
;
_chemical_formula_sum "Si O2"
_cell_formula_units_Z 96
_cell_length_a 8.831489
_cell_length_b 19.624673
_cell_length_c 30.666527
_cell_angle_alpha 90.000000
_cell_angle_beta 90.000000
_cell_angle_gamma 90.000000
_cell_volume 5314.971695
_symmetry_space_group_name_H-M "I M M A"
_symmetry_group_IT_number 74
_symmetry_cell_setting 'orthorhombic'
loop_
_space_group_symop_operation_xyz
x,y,z
-x,1/2-y,z
x,-y,-z
-x,1/2+y,-z
-x,-y,-z
x,1/2+y,-z
-x,y,z
x,1/2-y,z
1/2+x,1/2+y,1/2+z
1/2-x,-y,1/2+z
1/2+x,1/2-y,1/2-z
1/2-x,y,1/2-z
1/2-x,1/2-y,1/2-z
1/2+x,y,1/2-z
1/2-x,1/2+y,1/2+z
1/2+x,-y,1/2+z
loop_
_atom_site_type_symbol
_atom_site_label
_atom_site_fract_x
_atom_site_fract_y
_atom_site_fract_z
Si Si1 0.675327 0.327612 0.414845
Si Si2 0.822488 0.964633 0.456625
Si Si3 0.678973 0.952919 0.874419
Si Si4 0.820969 0.469413 0.797584
Si Si5 0.822954 0.321781 0.796729
Si Si6 0.174697 0.674453 0.493437
O O1 0.500000 0.346858 0.410311
O O2 0.706492 0.250000 0.400486
O O3 0.774284 0.375230 0.383558
O O4 0.722711 0.338667 0.464743
O O5 0.785912 0.883401 0.457570
O O6 0.000000 0.978990 0.455842
O O7 0.753180 0.000000 0.500000
O O8 0.754160 0.998751 0.413121
O O9 0.500000 0.958819 0.870156
O O10 0.753100 0.973934 0.829031
O O11 0.750000 0.478919 0.750000
O O12 0.776673 0.394318 0.818245
O O13 0.000000 0.479316 0.793985
O O14 0.778003 0.250000 0.821891
O O15 0.750000 0.319181 0.750000
O O16 0.000000 0.323194 0.789082
O O17 0.205442 0.750000 0.473610
O O18 0.000000 0.667098 0.508232
#
# Coordination Sequence:
#
# PCOD8299636 Si02
#       6
#    16  16  16  16  16  16
#     4  10  20  33  50  75 105 133 167 214 262 310
#     4   9  16  29  48  73 103 133 168 213 254 296
#     4  11  21  34  54  77 104 138 177 216 261 313
#     4  10  20  35  54  77 106 137 176 221 268 315
#     4   8  14  26  46  70  95 126 164 206 250 297
#     4   9  16  29  50  72  98 138 181 215 253 304
#
# _framework density 18.062184999999999
#
# number of rings (size 3 to 8) (size 9 to 14) (size 15 to 20)
#    0.000    2.500    1.667    1.500    0.000    1.667 
#    0.000    3.333    0.000    1.500    0.000    0.000 
#    0.000    0.000    0.000    0.000    0.000    0.000 
#
# Total GULP energy -594683.630018 kJ/mol
# GULP energy per Si atom -12389.242292 kJ/mol
# Density = 1.802107 g / cm^3
# Si number density = 18.062185 Si / 1000 Ang^3
#
#
#
# Elastic Constant Matrix: (Units=GPa)
#
#
# Indices 1 2 3 4 5 6 
#
# 1 52.2513 34.3187 29.2352 0.0000 0.0000 0.0000
# 2 34.3187 127.9262 50.8477 0.0000 0.0000 0.0000
# 3 29.2352 50.8477 78.0790 0.0000 0.0000 0.0000
# 4 0.0000 0.0000 0.0000 25.9119 0.0000 0.0000
# 5 0.0000 0.0000 0.0000 0.0000 20.2708 0.0000
# 6 0.0000 0.0000 0.0000 0.0000 0.0000 22.1796
#
#
#
# Elastic Compliance Matrix: (Units=1/GPa)
#
#
# Indices 1 2 3 4 5 6 
#
# 1 0.025745 -0.004149 -0.006938 0.000000 0.000000 0.000000
# 2 -0.004149 0.011216 -0.005751 0.000000 0.000000 0.000000
# 3 -0.006938 -0.005751 0.019150 0.000000 0.000000 0.000000
# 4 0.000000 0.000000 0.000000 0.038592 0.000000 0.000000
# 5 0.000000 0.000000 0.000000 0.000000 0.049332 0.000000
# 6 0.000000 0.000000 0.000000 0.000000 0.000000 0.045087
#
#
# Mechanical properties :
#
#
# Convention : Reuss Voigt Hill
#
# Bulk Modulus (GPa) = 44.57046 54.11774 49.34410
# Shear Modulus (GPa) = 21.71312 23.26280 22.48796
#
# Velocity S-wave (km/s) = 3.47094 3.59266 3.53233
# Velocity P-wave (km/s) = 6.38693 6.87289 6.63436
#
# Compressibility (1/GPa) = 0.02243638
#
# Stress axis : x y z
#
# Youngs Moduli (GPa) = 38.84227 89.16009 52.21870
#
# Poissons Ratio (x) = 0.36993 0.36228
# Poissons Ratio (y) = 0.16116 0.30029
# Poissons Ratio (z) = 0.26948 0.51272
#
# Static dielectric constant tensor:
#      x y z
#    x 3.200570 0.000000 0.000000 
#    y 0.000000 3.875620 0.000000 
#    z 0.000000 0.000000 2.971300 
# 
# 
# High freq. dielectric constant tensor:
#      x y z
#    x 1.690120 0.000000 0.000000 
#    y 0.000000 1.719670 0.000000 
#    z 0.000000 0.000000 1.651830 
# 
# From -- ./inp_files/64328.got.cif
#   From: 2010.03.12/outbox.cif.g09.slc.cpg/sg74_33_cif.got.tgz:64328.got - 2010.04.16 15:46:19.
