data_PCOD8299420
_publ_section_title
;
Structure prediction by ZEFSAII (Michael W. Deem and Ramdas Pophale) SiO2 
 PCOD8299420
Probable space group: I M M A
;
_chemical_formula_sum "Si O2"
_cell_formula_units_Z 72
_cell_length_a 10.002344
_cell_length_b 22.169965
_cell_length_c 23.131899
_cell_angle_alpha 90.000000
_cell_angle_beta 90.000000
_cell_angle_gamma 90.000000
_cell_volume 5129.535994
_symmetry_space_group_name_H-M "I M M A"
_symmetry_group_IT_number 74
_symmetry_cell_setting 'orthorhombic'
loop_
_space_group_symop_operation_xyz
x,y,z
-x,1/2-y,z
x,-y,-z
-x,1/2+y,-z
-x,-y,-z
x,1/2+y,-z
-x,y,z
x,1/2-y,z
1/2+x,1/2+y,1/2+z
1/2-x,-y,1/2+z
1/2+x,1/2-y,1/2-z
1/2-x,y,1/2-z
1/2-x,1/2-y,1/2-z
1/2+x,y,1/2-z
1/2-x,1/2+y,1/2+z
1/2+x,-y,1/2+z
loop_
_atom_site_type_symbol
_atom_site_label
_atom_site_fract_x
_atom_site_fract_y
_atom_site_fract_z
Si Si1 0.347048 0.357545 0.890160
Si Si2 0.345447 0.250000 0.804460
Si Si3 0.652820 0.318731 0.019609
Si Si4 0.149887 0.915755 0.951896
Si Si5 0.849987 0.455596 0.916188
O O1 0.500000 0.379125 0.886224
O O2 0.312533 0.309033 0.841578
O O3 0.317587 0.327096 0.951830
O O4 0.254128 0.416023 0.879231
O O5 0.500000 0.250000 0.784851
O O6 0.250000 0.250000 0.750000
O O7 0.500000 0.335428 0.033645
O O8 0.684468 0.250000 0.036404
O O9 0.746310 0.361494 0.058953
O O10 0.000000 0.893148 0.937587
O O11 0.186603 0.973288 0.911633
O O12 0.158840 0.936244 0.017692
O O13 0.000000 0.444447 0.892506
#
# Coordination Sequence:
#
# PCOD8299420 Si02
#       5
#    16   8  16  16  16
#     4   9  16  27  40  51  66  88 115 149 187 220
#     4  10  20  32  42  54  72  92 118 156 196 230
#     4   9  15  23  35  50  69  93 120 148 177 210
#     4   8  14  23  33  48  70  91 111 142 176 206
#     4   8  14  24  36  50  68  87 111 143 177 212
#
# _framework density 14.036357000000001
#
# number of rings (size 3 to 8) (size 9 to 14) (size 15 to 20)
#    0.000    3.333    1.111    1.333    0.000    2.222 
#    0.000    4.444    0.000    0.000    0.000    0.000 
#    0.000    0.000    0.000    0.000    0.000    1.111 
#
# Total GULP energy -446180.683381 kJ/mol
# GULP energy per Si atom -12393.907872 kJ/mol
# Density = 1.400441 g / cm^3
# Si number density = 14.036357 Si / 1000 Ang^3
#
#
#
# Elastic Constant Matrix: (Units=GPa)
#
#
# Indices 1 2 3 4 5 6 
#
# 1 106.3545 88.7774 29.1498 0.0000 0.0000 0.0000
# 2 88.7774 120.3083 28.1992 0.0000 0.0000 0.0000
# 3 29.1498 28.1992 24.1286 0.0000 0.0000 0.0000
# 4 0.0000 0.0000 0.0000 9.9240 0.0000 0.0000
# 5 0.0000 0.0000 0.0000 0.0000 15.1185 0.0000
# 6 0.0000 0.0000 0.0000 0.0000 0.0000 32.8496
#
#
#
# Elastic Compliance Matrix: (Units=1/GPa)
#
#
# Indices 1 2 3 4 5 6 
#
# 1 0.027120 -0.016986 -0.012912 0.000000 0.000000 0.000000
# 2 -0.016986 0.022087 -0.005292 0.000000 0.000000 0.000000
# 3 -0.012912 -0.005292 0.063229 0.000000 0.000000 0.000000
# 4 0.000000 0.000000 0.000000 0.100766 0.000000 0.000000
# 5 0.000000 0.000000 0.000000 0.000000 0.066144 0.000000
# 6 0.000000 0.000000 0.000000 0.000000 0.000000 0.030442
#
#
# Mechanical properties :
#
#
# Convention : Reuss Voigt Hill
#
# Bulk Modulus (GPa) = 23.77841 60.33826 42.05834
# Shear Modulus (GPa) = 12.68434 18.55606 15.62020
#
# Velocity S-wave (km/s) = 3.00938 3.63988 3.33954
# Velocity P-wave (km/s) = 5.39004 7.79393 6.70067
#
# Compressibility (1/GPa) = 0.04205495
#
# Stress axis : x y z
#
# Youngs Moduli (GPa) = 36.87279 45.27639 15.81556
#
# Poissons Ratio (x) = 0.76906 0.20422
# Poissons Ratio (y) = 0.62632 0.08370
# Poissons Ratio (z) = 0.47612 0.23960
#
# Static dielectric constant tensor:
#      x y z
#    x 2.944330 0.000000 0.000000 
#    y 0.000000 3.028770 0.000000 
#    z 0.000000 0.000000 2.198490 
# 
# 
# High freq. dielectric constant tensor:
#      x y z
#    x 1.545400 0.000000 0.000000 
#    y 0.000000 1.541270 0.000000 
#    z 0.000000 0.000000 1.457600 
# 
# From -- ./inp_files/40969.got.cif
#   From: 2010.03.12/outbox.cif.g09.slc.cpg/sg74_21_cif.got.tgz:40969.got - 2010.04.16 15:46:19.
