data_PCOD8299119
_publ_section_title
;
Structure prediction by ZEFSAII (Michael W. Deem and Ramdas Pophale) SiO2 
 PCOD8299119
Probable space group: I M M A
;
_chemical_formula_sum "Si O2"
_cell_formula_units_Z 96
_cell_length_a 23.633523
_cell_length_b 8.697442
_cell_length_c 25.254874
_cell_angle_alpha 90.000000
_cell_angle_beta 90.000000
_cell_angle_gamma 90.000000
_cell_volume 5191.169544
_symmetry_space_group_name_H-M "I M M A"
_symmetry_group_IT_number 74
_symmetry_cell_setting 'orthorhombic'
loop_
_space_group_symop_operation_xyz
x,y,z
-x,1/2-y,z
x,-y,-z
-x,1/2+y,-z
-x,-y,-z
x,1/2+y,-z
-x,y,z
x,1/2-y,z
1/2+x,1/2+y,1/2+z
1/2-x,-y,1/2+z
1/2+x,1/2-y,1/2-z
1/2-x,y,1/2-z
1/2-x,1/2-y,1/2-z
1/2+x,y,1/2-z
1/2-x,1/2+y,1/2+z
1/2+x,-y,1/2+z
loop_
_atom_site_type_symbol
_atom_site_label
_atom_site_fract_x
_atom_site_fract_y
_atom_site_fract_z
Si Si1 0.882023 0.569523 0.351753
Si Si2 0.500000 0.929228 0.197977
Si Si3 0.500000 0.069193 0.314137
Si Si4 0.814109 0.068658 0.443370
Si Si5 0.694805 0.431502 0.556479
Si Si6 0.885183 0.568628 0.152055
Si Si7 0.312942 0.067401 0.750293
O O1 0.874931 0.750000 0.362638
O O2 0.946144 0.526029 0.337291
O O3 0.864112 0.476190 0.403487
O O4 0.842866 0.513238 0.303745
O O5 0.500000 0.750000 0.212695
O O6 0.500000 0.015556 0.253535
O O7 0.500000 0.250000 0.314761
O O8 0.446002 0.009791 0.346444
O O9 0.808655 0.250000 0.448166
O O10 0.830516 0.000000 0.500000
O O11 0.754286 0.000580 0.423408
O O12 0.677063 0.500000 0.500000
O O13 0.702697 0.250000 0.551739
O O14 0.645728 0.475757 0.597526
O O15 0.893556 0.750000 0.157628
O O16 0.847590 0.503147 0.200329
O O17 0.310655 0.250000 0.746626
O O18 0.250000 0.997232 0.750000
#
# Coordination Sequence:
#
# PCOD8299119 Si02
#       7
#    16   8   8  16  16  16  16
#     4  10  19  34  57  82 110 144 190 235 278 331
#     4  10  20  38  61  80 107 154 197 231 273 341
#     4  12  24  36  55  82 117 152 187 237 285 329
#     4  11  22  37  58  83 116 151 186 229 280 339
#     4  10  20  36  61  87 114 148 188 234 282 337
#     4  10  20  37  59  81 109 150 195 230 274 340
#     4   9  16  28  52  83 110 137 177 227 273 328
#
# _framework density 18.492941999999999
#
# number of rings (size 3 to 8) (size 9 to 14) (size 15 to 20)
#    0.000    1.833    1.667    4.750    0.000    4.667 
#    0.000    0.833    0.000    2.000    0.000    0.000 
#    0.000    0.000    0.000    0.000    0.000    0.000 
#
# Total GULP energy -595339.225563 kJ/mol
# GULP energy per Si atom -12402.900533 kJ/mol
# Density = 1.845085 g / cm^3
# Si number density = 18.492942 Si / 1000 Ang^3
#
#
#
# Elastic Constant Matrix: (Units=GPa)
#
#
# Indices 1 2 3 4 5 6 
#
# 1 163.2222 45.3209 80.8188 0.0000 0.0000 0.0000
# 2 45.3209 79.5362 50.5290 0.0000 0.0000 0.0000
# 3 80.8188 50.5290 123.5725 0.0000 0.0000 0.0000
# 4 0.0000 0.0000 0.0000 28.3490 0.0000 0.0000
# 5 0.0000 0.0000 0.0000 0.0000 20.6221 0.0000
# 6 0.0000 0.0000 0.0000 0.0000 0.0000 21.0902
#
#
#
# Elastic Compliance Matrix: (Units=1/GPa)
#
#
# Indices 1 2 3 4 5 6 
#
# 1 0.009276 -0.001934 -0.005276 0.000000 0.000000 0.000000
# 2 -0.001934 0.017388 -0.005845 0.000000 0.000000 0.000000
# 3 -0.005276 -0.005845 0.013933 0.000000 0.000000 0.000000
# 4 0.000000 0.000000 0.000000 0.035275 0.000000 0.000000
# 5 0.000000 0.000000 0.000000 0.000000 0.048492 0.000000
# 6 0.000000 0.000000 0.000000 0.000000 0.000000 0.047415
#
#
# Mechanical properties :
#
#
# Convention : Reuss Voigt Hill
#
# Bulk Modulus (GPa) = 69.02623 79.96313 74.49468
# Shear Modulus (GPa) = 24.66479 26.65643 25.66061
#
# Velocity S-wave (km/s) = 3.65600 3.80075 3.72908
# Velocity P-wave (km/s) = 7.43159 7.91167 7.67539
#
# Compressibility (1/GPa) = 0.01448725
#
# Stress axis : x y z
#
# Youngs Moduli (GPa) = 107.80643 57.50988 71.77150
#
# Poissons Ratio (x) = 0.11121 0.37866
# Poissons Ratio (y) = 0.20848 0.41953
# Poissons Ratio (z) = 0.56877 0.33617
#
# Static dielectric constant tensor:
#      x y z
#    x 3.570710 0.000000 0.000000 
#    y 0.000000 3.188770 0.000000 
#    z 0.000000 0.000000 3.424220 
# 
# 
# High freq. dielectric constant tensor:
#      x y z
#    x 1.722860 0.000000 0.000000 
#    y 0.000000 1.700110 0.000000 
#    z 0.000000 0.000000 1.719880 
# 
# From -- ./inp_files/61950.got.cif
#   From: 2010.03.12/outbox.cif.g09.slc.cpg/sg74_31_cif.got.tgz:61950.got - 2010.04.16 15:46:19.
