data_PCOD8299045
_publ_section_title
;
Structure prediction by ZEFSAII (Michael W. Deem and Ramdas Pophale) SiO2 
 PCOD8299045
Probable space group: I M M A
;
_chemical_formula_sum "Si O2"
_cell_formula_units_Z 88
_cell_length_a 19.337313
_cell_length_b 18.579559
_cell_length_c 12.886327
_cell_angle_alpha 90.000000
_cell_angle_beta 90.000000
_cell_angle_gamma 90.000000
_cell_volume 4629.783428
_symmetry_space_group_name_H-M "I M M A"
_symmetry_group_IT_number 74
_symmetry_cell_setting 'orthorhombic'
loop_
_space_group_symop_operation_xyz
x,y,z
-x,1/2-y,z
x,-y,-z
-x,1/2+y,-z
-x,-y,-z
x,1/2+y,-z
-x,y,z
x,1/2-y,z
1/2+x,1/2+y,1/2+z
1/2-x,-y,1/2+z
1/2+x,1/2-y,1/2-z
1/2-x,y,1/2-z
1/2-x,1/2-y,1/2-z
1/2+x,y,1/2-z
1/2-x,1/2+y,1/2+z
1/2+x,-y,1/2+z
loop_
_atom_site_type_symbol
_atom_site_label
_atom_site_fract_x
_atom_site_fract_y
_atom_site_fract_z
Si Si1 0.136759 0.469069 0.390321
Si Si2 0.422472 0.894113 0.189298
Si Si3 0.850179 0.331243 0.497258
Si Si4 0.250000 0.078513 0.250000
Si Si5 0.920544 0.665762 0.089491
Si Si6 0.195790 0.667858 0.930895
O O1 0.160963 0.500000 0.500000
O O2 0.079242 0.520055 0.337388
O O3 0.113678 0.385831 0.413147
O O4 0.203289 0.473670 0.317846
O O5 0.500000 0.866443 0.170096
O O6 0.372527 0.849196 0.114199
O O7 0.401163 0.879260 0.307642
O O8 0.872051 0.250000 0.467819
O O9 0.767490 0.341227 0.493330
O O10 0.199721 0.126636 0.178255
O O11 0.909041 0.750000 0.113306
O O12 0.000000 0.650873 0.055365
O O13 0.868397 0.638593 0.999738
O O14 0.181311 0.750000 0.902250
#
# Coordination Sequence:
#
# PCOD8299045 Si02
#       6
#    16  16  16   8  16  16
#     4   9  20  34  50  74 103 135 171 215 262 308
#     4  10  20  34  51  73 106 144 177 216 268 317
#     4   9  18  32  51  77 104 134 177 222 265 314
#     4  10  19  34  54  76 101 136 176 212 260 318
#     4   9  18  33  54  81 110 140 174 212 258 312
#     4   9  18  33  54  80 109 137 171 220 266 307
#
# _framework density 19.007368
#
# number of rings (size 3 to 8) (size 9 to 14) (size 15 to 20)
#    0.000    2.727    0.000    0.818    0.000   10.182 
#    0.000    3.636    0.000    3.273    0.000   15.273 
#    0.000    0.000    0.000    0.000    0.000    0.000 
#
# Total GULP energy -545340.131947 kJ/mol
# GULP energy per Si atom -12394.093908 kJ/mol
# Density = 1.896411 g / cm^3
# Si number density = 19.007368 Si / 1000 Ang^3
#
#
#
# Elastic Constant Matrix: (Units=GPa)
#
#
# Indices 1 2 3 4 5 6 
#
# 1 65.7221 26.6415 51.4777 0.0000 0.0000 0.0000
# 2 26.6415 96.7333 39.1153 0.0000 0.0000 0.0000
# 3 51.4777 39.1153 118.3407 0.0000 0.0000 0.0000
# 4 0.0000 0.0000 0.0000 17.7852 0.0000 0.0000
# 5 0.0000 0.0000 0.0000 0.0000 32.1417 0.0000
# 6 0.0000 0.0000 0.0000 0.0000 0.0000 23.7632
#
#
#
# Elastic Compliance Matrix: (Units=1/GPa)
#
#
# Indices 1 2 3 4 5 6 
#
# 1 0.023683 -0.002720 -0.009403 0.000000 0.000000 0.000000
# 2 -0.002720 0.012245 -0.002864 0.000000 0.000000 0.000000
# 3 -0.009403 -0.002864 0.013487 0.000000 0.000000 0.000000
# 4 0.000000 0.000000 0.000000 0.056227 0.000000 0.000000
# 5 0.000000 0.000000 0.000000 0.000000 0.031112 0.000000
# 6 0.000000 0.000000 0.000000 0.000000 0.000000 0.042082
#
#
# Mechanical properties :
#
#
# Convention : Reuss Voigt Hill
#
# Bulk Modulus (GPa) = 51.43862 57.25168 54.34515
# Shear Modulus (GPa) = 23.22437 25.64213 24.43325
#
# Velocity S-wave (km/s) = 3.49931 3.67694 3.58922
# Velocity P-wave (km/s) = 6.59151 6.94354 6.76981
#
# Compressibility (1/GPa) = 0.01944065
#
# Stress axis : x y z
#
# Youngs Moduli (GPa) = 42.22372 81.66576 74.14510
#
# Poissons Ratio (x) = 0.22217 0.69718
# Poissons Ratio (y) = 0.11487 0.21235
# Poissons Ratio (z) = 0.39703 0.23389
#
# Static dielectric constant tensor:
#      x y z
#    x 3.375170 0.000000 0.000000 
#    y 0.000000 3.799450 0.000000 
#    z 0.000000 0.000000 3.468370 
# 
# 
# High freq. dielectric constant tensor:
#      x y z
#    x 1.719690 0.000000 0.000000 
#    y 0.000000 1.739250 0.000000 
#    z 0.000000 0.000000 1.735520 
# 
# From -- ./inp_files/22182.got.cif
#   From: 2010.03.12/outbox.cif.g09.slc.cpg/sg74_12_cif.got.tgz:22182.got - 2010.04.16 15:46:19.
