data_PCOD8299524
_publ_section_title
;
Structure prediction by ZEFSAII (Michael W. Deem and Ramdas Pophale) SiO2 
 PCOD8299524
Probable space group: I M M A
;
_chemical_formula_sum "Si O2"
_cell_formula_units_Z 96
_cell_length_a 22.944777
_cell_length_b 9.563279
_cell_length_c 25.386788
_cell_angle_alpha 90.000000
_cell_angle_beta 90.000000
_cell_angle_gamma 90.000000
_cell_volume 5570.554449
_symmetry_space_group_name_H-M "I M M A"
_symmetry_group_IT_number 74
_symmetry_cell_setting 'orthorhombic'
loop_
_space_group_symop_operation_xyz
x,y,z
-x,1/2-y,z
x,-y,-z
-x,1/2+y,-z
-x,-y,-z
x,1/2+y,-z
-x,y,z
x,1/2-y,z
1/2+x,1/2+y,1/2+z
1/2-x,-y,1/2+z
1/2+x,1/2-y,1/2-z
1/2-x,y,1/2-z
1/2-x,1/2-y,1/2-z
1/2+x,y,1/2-z
1/2-x,1/2+y,1/2+z
1/2+x,-y,1/2+z
loop_
_atom_site_type_symbol
_atom_site_label
_atom_site_fract_x
_atom_site_fract_y
_atom_site_fract_z
Si Si1 0.858119 0.914289 0.151913
Si Si2 0.747401 0.587617 0.689555
Si Si3 0.067215 0.589833 0.252237
Si Si4 0.067228 0.588508 0.549166
Si Si5 0.622544 0.588526 0.842324
Si Si6 0.432948 0.912524 0.449186
O O1 0.844411 0.750000 0.152191
O O2 0.897308 0.959051 0.201296
O O3 0.892214 0.958313 0.099210
O O4 0.798062 0.998667 0.155539
O O5 0.729314 0.750000 0.687243
O O6 0.750000 0.535886 0.750000
O O7 0.809409 0.558583 0.663418
O O8 0.080918 0.750000 0.266280
O O9 0.084543 0.498006 0.301695
O O10 0.000000 0.567297 0.238617
O O11 0.090462 0.500000 0.500000
O O12 0.076490 0.750000 0.535291
O O13 0.104770 0.542256 0.599284
O O14 0.000000 0.554523 0.561364
O O15 0.607479 0.750000 0.832137
O O16 0.500000 0.944855 0.434072
O O17 0.424747 0.750000 0.462521
O O18 0.413255 0.000000 0.500000
#
# Coordination Sequence:
#
# PCOD8299524 Si02
#       6
#    16  16  16  16  16  16
#     4  10  20  34  53  76 104 137 173 212 257 308
#     4  10  20  35  53  74 103 140 176 212 253 300
#     4  10  20  32  49  76 106 133 164 207 257 307
#     4   9  18  33  53  75  99 129 164 204 251 300
#     4  10  20  35  53  74 102 135 171 209 254 302
#     4   9  18  34  55  78 105 137 173 215 263 313
#
# _framework density 17.233474000000001
#
# number of rings (size 3 to 8) (size 9 to 14) (size 15 to 20)
#    0.000    2.333    1.667    1.000    0.000    5.333 
#    0.000    2.500    0.000    7.000    0.000    0.000 
#    0.000    0.000    0.000    0.000    0.000    0.000 
#
# Total GULP energy -595371.957000 kJ/mol
# GULP energy per Si atom -12403.582438 kJ/mol
# Density = 1.719425 g / cm^3
# Si number density = 17.233474 Si / 1000 Ang^3
#
#
#
# Elastic Constant Matrix: (Units=GPa)
#
#
# Indices 1 2 3 4 5 6 
#
# 1 71.8259 29.9678 53.7896 0.0000 0.0000 0.0000
# 2 29.9678 44.5880 48.3463 0.0000 0.0000 0.0000
# 3 53.7896 48.3463 136.8783 0.0000 0.0000 0.0000
# 4 0.0000 0.0000 0.0000 33.0776 0.0000 0.0000
# 5 0.0000 0.0000 0.0000 0.0000 23.0628 0.0000
# 6 0.0000 0.0000 0.0000 0.0000 0.0000 21.3834
#
#
#
# Elastic Compliance Matrix: (Units=1/GPa)
#
#
# Indices 1 2 3 4 5 6 
#
# 1 0.021591 -0.008609 -0.005444 0.000000 0.000000 0.000000
# 2 -0.008609 0.039780 -0.010668 0.000000 0.000000 0.000000
# 3 -0.005444 -0.010668 0.013213 0.000000 0.000000 0.000000
# 4 0.000000 0.000000 0.000000 0.030232 0.000000 0.000000
# 5 0.000000 0.000000 0.000000 0.000000 0.043360 0.000000
# 6 0.000000 0.000000 0.000000 0.000000 0.000000 0.046765
#
#
# Mechanical properties :
#
#
# Convention : Reuss Voigt Hill
#
# Bulk Modulus (GPa) = 39.77128 57.49996 48.63562
# Shear Modulus (GPa) = 19.78127 23.58399 21.68263
#
# Velocity S-wave (km/s) = 3.39165 3.70334 3.55092
# Velocity P-wave (km/s) = 6.20208 7.19194 6.71527
#
# Compressibility (1/GPa) = 0.02514377
#
# Stress axis : x y z
#
# Youngs Moduli (GPa) = 46.31468 25.13805 75.68229
#
# Poissons Ratio (x) = 0.21640 0.41203
# Poissons Ratio (y) = 0.39870 0.80736
# Poissons Ratio (z) = 0.25215 0.26817
#
# Static dielectric constant tensor:
#      x y z
#    x 3.192640 0.000000 0.000000 
#    y 0.000000 3.184470 0.000000 
#    z 0.000000 0.000000 3.269180 
# 
# 
# High freq. dielectric constant tensor:
#      x y z
#    x 1.664300 0.000000 0.000000 
#    y 0.000000 1.662240 0.000000 
#    z 0.000000 0.000000 1.666640 
# 
# From -- ./inp_files/57240.got.cif
#   From: 2010.03.12/outbox.cif.g09.slc.cpg/sg74_29_cif.got.tgz:57240.got - 2010.04.16 15:46:19.
