data_PCOD8299545
_publ_section_title
;
Structure prediction by ZEFSAII (Michael W. Deem and Ramdas Pophale) SiO2 
 PCOD8299545
Probable space group: I M M A
;
_chemical_formula_sum "Si O2"
_cell_formula_units_Z 104
_cell_length_a 9.366717
_cell_length_b 25.563722
_cell_length_c 21.618281
_cell_angle_alpha 90.000000
_cell_angle_beta 90.000000
_cell_angle_gamma 90.000000
_cell_volume 5176.457380
_symmetry_space_group_name_H-M "I M M A"
_symmetry_group_IT_number 74
_symmetry_cell_setting 'orthorhombic'
loop_
_space_group_symop_operation_xyz
x,y,z
-x,1/2-y,z
x,-y,-z
-x,1/2+y,-z
-x,-y,-z
x,1/2+y,-z
-x,y,z
x,1/2-y,z
1/2+x,1/2+y,1/2+z
1/2-x,-y,1/2+z
1/2+x,1/2-y,1/2-z
1/2-x,y,1/2-z
1/2-x,1/2-y,1/2-z
1/2+x,y,1/2-z
1/2-x,1/2+y,1/2+z
1/2+x,-y,1/2+z
loop_
_atom_site_type_symbol
_atom_site_label
_atom_site_fract_x
_atom_site_fract_y
_atom_site_fract_z
Si Si1 0.337326 0.750000 0.189570
Si Si2 0.338156 0.629646 0.592488
Si Si3 0.164845 0.470225 0.435407
Si Si4 0.333048 0.962576 0.187403
Si Si5 0.839728 0.191350 0.972781
Si Si6 0.165212 0.142667 0.624601
Si Si7 0.163915 0.192037 0.312505
O O1 0.500000 0.750000 0.209042
O O2 0.250000 0.750000 0.250000
O O3 0.296500 0.801548 0.152852
O O4 0.500000 0.618100 0.615280
O O5 0.271525 0.578171 0.562285
O O6 0.340004 0.677341 0.544643
O O7 0.236606 0.646988 0.647758
O O8 0.191788 0.500000 0.500000
O O9 0.203166 0.503492 0.373593
O O10 0.000000 0.452198 0.432010
O O11 0.500000 0.965415 0.203277
O O12 0.250000 0.980507 0.250000
O O13 0.284348 0.903434 0.170189
O O14 0.774476 0.250000 0.965129
O O15 0.749907 0.145150 0.939741
O O16 0.000000 0.190398 0.946005
O O17 0.000000 0.134529 0.608480
O O18 0.171371 0.250000 0.343409
O O19 0.250000 0.193858 0.250000
O O20 0.000000 0.175935 0.300412
#
# Coordination Sequence:
#
# PCOD8299545 Si02
#       7
#     8  16  16  16  16  16  16
#     4  10  20  32  50  78 110 144 183 226 271 328
#     4  11  23  38  59  87 119 154 194 245 299 360
#     4  10  22  42  64  86 115 156 205 258 311 364
#     4  10  22  39  61  87 117 153 195 244 299 355
#     4  10  21  36  55  83 118 154 191 234 289 345
#     4  10  20  36  56  82 113 149 192 234 282 339
#     4  10  21  38  61  89 121 158 197 238 291 356
#
# _framework density 20.090961
#
# number of rings (size 3 to 8) (size 9 to 14) (size 15 to 20)
#    0.000    1.846    0.769    2.769    0.000    6.769 
#    0.000    1.538    0.000    0.000    0.000    0.000 
#    0.000    0.000    0.000    0.000    0.000    0.000 
#
# Total GULP energy -644609.092649 kJ/mol
# GULP energy per Si atom -12396.328705 kJ/mol
# Density = 2.004523 g / cm^3
# Si number density = 20.090961 Si / 1000 Ang^3
#
#
#
# Elastic Constant Matrix: (Units=GPa)
#
#
# Indices 1 2 3 4 5 6 
#
# 1 104.9435 46.6107 52.3412 0.0000 0.0000 0.0000
# 2 46.6107 81.8370 35.3903 0.0000 0.0000 0.0000
# 3 52.3412 35.3903 106.2319 0.0000 0.0000 0.0000
# 4 0.0000 0.0000 0.0000 34.2470 0.0000 0.0000
# 5 0.0000 0.0000 0.0000 0.0000 38.1675 0.0000
# 6 0.0000 0.0000 0.0000 0.0000 0.0000 29.7671
#
#
#
# Elastic Compliance Matrix: (Units=1/GPa)
#
#
# Indices 1 2 3 4 5 6 
#
# 1 0.014924 -0.006216 -0.005283 0.000000 0.000000 0.000000
# 2 -0.006216 0.016865 -0.002556 0.000000 0.000000 0.000000
# 3 -0.005283 -0.002556 0.012868 0.000000 0.000000 0.000000
# 4 0.000000 0.000000 0.000000 0.029200 0.000000 0.000000
# 5 0.000000 0.000000 0.000000 0.000000 0.026200 0.000000
# 6 0.000000 0.000000 0.000000 0.000000 0.000000 0.033594
#
#
# Mechanical properties :
#
#
# Convention : Reuss Voigt Hill
#
# Bulk Modulus (GPa) = 60.42880 62.41079 61.41979
# Shear Modulus (GPa) = 29.89076 31.01434 30.45255
#
# Velocity S-wave (km/s) = 3.86135 3.93325 3.89747
# Velocity P-wave (km/s) = 7.07269 7.19436 7.13378
#
# Compressibility (1/GPa) = 0.01654840
#
# Stress axis : x y z
#
# Youngs Moduli (GPa) = 67.00419 59.29461 77.71453
#
# Poissons Ratio (x) = 0.36857 0.41054
# Poissons Ratio (y) = 0.41649 0.19863
# Poissons Ratio (z) = 0.35396 0.15155
#
# Static dielectric constant tensor:
#      x y z
#    x 3.613590 0.000000 0.000000 
#    y 0.000000 3.718540 0.000000 
#    z 0.000000 0.000000 3.607730 
# 
# 
# High freq. dielectric constant tensor:
#      x y z
#    x 1.784010 0.000000 0.000000 
#    y 0.000000 1.785890 0.000000 
#    z 0.000000 0.000000 1.784930 
# 
# From -- ./inp_files/49246.got.cif
#   From: 2010.03.12/outbox.cif.g09.slc.cpg/sg74_25_cif.got.tgz:49246.got - 2010.04.16 15:46:19.
