data_PCOD8299048
_publ_section_title
;
Structure prediction by ZEFSAII (Michael W. Deem and Ramdas Pophale) SiO2 
 PCOD8299048
Probable space group: I M M A
;
_chemical_formula_sum "Si O2"
_cell_formula_units_Z 112
_cell_length_a 17.452465
_cell_length_b 24.694692
_cell_length_c 14.665176
_cell_angle_alpha 90.000000
_cell_angle_beta 90.000000
_cell_angle_gamma 90.000000
_cell_volume 6320.445182
_symmetry_space_group_name_H-M "I M M A"
_symmetry_group_IT_number 74
_symmetry_cell_setting 'orthorhombic'
loop_
_space_group_symop_operation_xyz
x,y,z
-x,1/2-y,z
x,-y,-z
-x,1/2+y,-z
-x,-y,-z
x,1/2+y,-z
-x,y,z
x,1/2-y,z
1/2+x,1/2+y,1/2+z
1/2-x,-y,1/2+z
1/2+x,1/2-y,1/2-z
1/2-x,y,1/2-z
1/2-x,1/2-y,1/2-z
1/2+x,y,1/2-z
1/2-x,1/2+y,1/2+z
1/2+x,-y,1/2+z
loop_
_atom_site_type_symbol
_atom_site_label
_atom_site_fract_x
_atom_site_fract_y
_atom_site_fract_z
Si Si1 0.834988 0.911672 0.246402
Si Si2 0.911057 0.636365 0.415484
Si Si3 0.409663 0.634171 0.424537
Si Si4 0.909117 0.750000 0.144543
Si Si5 0.334478 0.963170 0.756746
Si Si6 0.651544 0.052502 0.443255
Si Si7 0.590010 0.750000 0.149398
Si Si8 0.665440 0.944977 0.952323
O O1 0.750000 0.885166 0.250000
O O2 0.894859 0.884348 0.314150
O O3 0.868398 0.905738 0.146027
O O4 0.827836 0.973365 0.275286
O O5 0.885804 0.699028 0.412191
O O6 0.860084 0.606970 0.490715
O O7 0.000000 0.628096 0.438946
O O8 0.500000 0.630706 0.412129
O O9 0.381063 0.696203 0.409840
O O10 0.384219 0.609125 0.521282
O O11 0.874043 0.750000 0.247688
O O12 0.000000 0.750000 0.148572
O O13 0.250000 0.937635 0.750000
O O14 0.378550 0.951207 0.661985
O O15 0.371583 0.939525 0.850299
O O16 0.743048 0.053912 0.447250
O O17 0.621645 0.000000 0.500000
O O18 0.500000 0.750000 0.166235
O O19 0.635222 0.000000 0.000000
#
# Coordination Sequence:
#
# PCOD8299048 Si02
#       8
#    16  16  16   8  16  16   8  16
#     4  11  19  32  52  77 107 141 174 208 254 312
#     4  11  21  34  52  77 106 139 176 215 259 308
#     4  11  21  34  52  77 106 139 176 215 259 308
#     4   9  18  34  52  71 104 143 169 204 268 320
#     4   9  18  33  52  73 104 144 171 198 254 317
#     4  10  19  34  54  76 105 140 174 208 257 314
#     4   9  18  34  52  71 104 143 169 204 268 320
#     4  10  19  34  54  76 105 140 174 208 257 314
#
# _framework density 17.720271
#
# number of rings (size 3 to 8) (size 9 to 14) (size 15 to 20)
#    0.000    1.857    4.286    1.286    0.000    0.571 
#    0.000    4.286    0.000    0.857    0.000    6.000 
#    0.000    0.000    0.000    0.000    0.000    0.000 
#
# Total GULP energy -694051.248819 kJ/mol
# GULP energy per Si atom -12393.772300 kJ/mol
# Density = 1.767994 g / cm^3
# Si number density = 17.720271 Si / 1000 Ang^3
#
#
#
# Elastic Constant Matrix: (Units=GPa)
#
#
# Indices 1 2 3 4 5 6 
#
# 1 30.3476 15.1583 20.0758 0.0000 0.0000 0.0000
# 2 15.1583 103.2417 53.9396 0.0000 0.0000 0.0000
# 3 20.0758 53.9396 123.5473 0.0000 0.0000 0.0000
# 4 0.0000 0.0000 0.0000 14.9327 0.0000 0.0000
# 5 0.0000 0.0000 0.0000 0.0000 21.7124 0.0000
# 6 0.0000 0.0000 0.0000 0.0000 0.0000 14.1047
#
#
#
# Elastic Compliance Matrix: (Units=1/GPa)
#
#
# Indices 1 2 3 4 5 6 
#
# 1 0.037633 -0.003019 -0.004797 0.000000 0.000000 0.000000
# 2 -0.003019 0.012790 -0.005094 0.000000 0.000000 0.000000
# 3 -0.004797 -0.005094 0.011097 0.000000 0.000000 0.000000
# 4 0.000000 0.000000 0.000000 0.066967 0.000000 0.000000
# 5 0.000000 0.000000 0.000000 0.000000 0.046057 0.000000
# 6 0.000000 0.000000 0.000000 0.000000 0.000000 0.070898
#
#
# Mechanical properties :
#
#
# Convention : Reuss Voigt Hill
#
# Bulk Modulus (GPa) = 28.01021 48.38710 38.19866
# Shear Modulus (GPa) = 17.65765 21.34747 19.50256
#
# Velocity S-wave (km/s) = 3.16011 3.47463 3.32110
# Velocity P-wave (km/s) = 5.39965 6.59263 6.02574
#
# Compressibility (1/GPa) = 0.03570126
#
# Stress axis : x y z
#
# Youngs Moduli (GPa) = 26.57245 78.18307 90.11130
#
# Poissons Ratio (x) = 0.23604 0.43227
# Poissons Ratio (y) = 0.08023 0.45899
# Poissons Ratio (z) = 0.12747 0.39823
#
# Static dielectric constant tensor:
#      x y z
#    x 3.024380 0.000000 0.000000 
#    y 0.000000 3.368030 0.000000 
#    z 0.000000 0.000000 3.467150 
# 
# 
# High freq. dielectric constant tensor:
#      x y z
#    x 1.660740 0.000000 0.000000 
#    y 0.000000 1.670840 0.000000 
#    z 0.000000 0.000000 1.683960 
# 
# From -- ./inp_files/32998.got.cif
#   From: 2010.03.12/outbox.cif.g09.slc.cpg/sg74_17_cif.got.tgz:32998.got - 2010.04.16 15:46:19.
