data_PCOD8299206
_publ_section_title
;
Structure prediction by ZEFSAII (Michael W. Deem and Ramdas Pophale) SiO2 
 PCOD8299206
Probable space group: I M M A
;
_chemical_formula_sum "Si O2"
_cell_formula_units_Z 96
_cell_length_a 29.582751
_cell_length_b 19.087314
_cell_length_c 9.107091
_cell_angle_alpha 90.000000
_cell_angle_beta 90.000000
_cell_angle_gamma 90.000000
_cell_volume 5142.366812
_symmetry_space_group_name_H-M "I M M A"
_symmetry_group_IT_number 74
_symmetry_cell_setting 'orthorhombic'
loop_
_space_group_symop_operation_xyz
x,y,z
-x,1/2-y,z
x,-y,-z
-x,1/2+y,-z
-x,-y,-z
x,1/2+y,-z
-x,y,z
x,1/2-y,z
1/2+x,1/2+y,1/2+z
1/2-x,-y,1/2+z
1/2+x,1/2-y,1/2-z
1/2-x,y,1/2-z
1/2-x,1/2-y,1/2-z
1/2+x,y,1/2-z
1/2-x,1/2+y,1/2+z
1/2+x,-y,1/2+z
loop_
_atom_site_type_symbol
_atom_site_label
_atom_site_fract_x
_atom_site_fract_y
_atom_site_fract_z
Si Si1 0.642426 0.912506 0.376952
Si Si2 0.182929 0.830198 0.602351
Si Si3 0.231002 0.171480 0.912671
Si Si4 0.948600 0.572995 0.576419
Si Si5 0.369526 0.566534 0.701198
Si Si6 0.102634 0.670423 0.377390
O O1 0.691896 0.885269 0.418382
O O2 0.617719 0.918678 0.532967
O O3 0.612355 0.859471 0.283487
O O4 0.646778 0.985789 0.288033
O O5 0.182103 0.750000 0.661356
O O6 0.231779 0.849347 0.535295
O O7 0.170061 0.882911 0.734701
O O8 0.148063 0.839444 0.469988
O O9 0.212904 0.250000 0.946685
O O10 0.250000 0.170461 0.750000
O O11 0.938376 0.500000 0.500000
O O12 0.916061 0.581135 0.714857
O O13 0.939117 0.632400 0.455641
O O14 0.000000 0.579319 0.631500
O O15 0.088037 0.750000 0.359206
#
# Coordination Sequence:
#
# PCOD8299206 Si02
#       6
#    16  16  16  16  16  16
#     4  11  21  37  53  84 122 154 191 239 290 344
#     4   9  19  36  58  82 110 156 203 241 283 334
#     4  10  19  35  57  82 113 152 202 243 275 327
#     4  10  20  39  66  88 109 145 190 240 293 352
#     4  10  23  39  55  85 123 151 191 239 295 353
#     4  10  19  35  61  86 113 152 193 237 287 343
#
# _framework density 18.668445999999999
#
# number of rings (size 3 to 8) (size 9 to 14) (size 15 to 20)
#    0.000    2.000    3.333    0.500    0.000    2.333 
#    6.000    4.167    0.000    0.000    0.000    0.000 
#    0.000    0.000    0.000    0.000    0.000    0.000 
#
# Total GULP energy -595180.560705 kJ/mol
# GULP energy per Si atom -12399.595015 kJ/mol
# Density = 1.862596 g / cm^3
# Si number density = 18.668446 Si / 1000 Ang^3
#
#
#
# Elastic Constant Matrix: (Units=GPa)
#
#
# Indices 1 2 3 4 5 6 
#
# 1 85.1550 46.5531 37.1361 0.0000 0.0000 0.0000
# 2 46.5531 136.5511 57.6621 0.0000 0.0000 0.0000
# 3 37.1361 57.6621 96.4128 0.0000 0.0000 0.0000
# 4 0.0000 0.0000 0.0000 31.2758 0.0000 0.0000
# 5 0.0000 0.0000 0.0000 0.0000 12.0446 0.0000
# 6 0.0000 0.0000 0.0000 0.0000 0.0000 36.7746
#
#
#
# Elastic Compliance Matrix: (Units=1/GPa)
#
#
# Indices 1 2 3 4 5 6 
#
# 1 0.015374 -0.003667 -0.003729 0.000000 0.000000 0.000000
# 2 -0.003667 0.010672 -0.004970 0.000000 0.000000 0.000000
# 3 -0.003729 -0.004970 0.014781 0.000000 0.000000 0.000000
# 4 0.000000 0.000000 0.000000 0.031974 0.000000 0.000000
# 5 0.000000 0.000000 0.000000 0.000000 0.083025 0.000000
# 6 0.000000 0.000000 0.000000 0.000000 0.000000 0.027193
#
#
# Mechanical properties :
#
#
# Convention : Reuss Voigt Hill
#
# Bulk Modulus (GPa) = 62.12979 66.75796 64.44387
# Shear Modulus (GPa) = 23.46151 27.80352 25.63252
#
# Velocity S-wave (km/s) = 3.54891 3.86337 3.70947
# Velocity P-wave (km/s) = 7.08138 7.46581 7.27613
#
# Compressibility (1/GPa) = 0.01609534
#
# Stress axis : x y z
#
# Youngs Moduli (GPa) = 65.04511 93.70111 67.65456
#
# Poissons Ratio (x) = 0.34358 0.25226
# Poissons Ratio (y) = 0.23851 0.33627
# Poissons Ratio (z) = 0.24253 0.46574
#
# Static dielectric constant tensor:
#      x y z
#    x 3.238080 0.000000 0.000000 
#    y 0.000000 3.668490 0.000000 
#    z 0.000000 0.000000 3.483380 
# 
# 
# High freq. dielectric constant tensor:
#      x y z
#    x 1.702650 0.000000 0.000000 
#    y 0.000000 1.734340 0.000000 
#    z 0.000000 0.000000 1.729160 
# 
# From -- ./inp_files/15140.got.cif
#   From: 2010.03.12/outbox.cif.g09.slc.cpg/sg74_8_cif.got.tgz:15140.got - 2010.04.16 15:46:19.
