data_PCOD8299368
_publ_section_title
;
Structure prediction by ZEFSAII (Michael W. Deem and Ramdas Pophale) SiO2 
 PCOD8299368
Probable space group: I M M A
;
_chemical_formula_sum "Si O2"
_cell_formula_units_Z 96
_cell_length_a 33.593241
_cell_length_b 7.971461
_cell_length_c 30.190086
_cell_angle_alpha 90.000000
_cell_angle_beta 90.000000
_cell_angle_gamma 90.000000
_cell_volume 8084.518915
_symmetry_space_group_name_H-M "I M M A"
_symmetry_group_IT_number 74
_symmetry_cell_setting 'orthorhombic'
loop_
_space_group_symop_operation_xyz
x,y,z
-x,1/2-y,z
x,-y,-z
-x,1/2+y,-z
-x,-y,-z
x,1/2+y,-z
-x,y,z
x,1/2-y,z
1/2+x,1/2+y,1/2+z
1/2-x,-y,1/2+z
1/2+x,1/2-y,1/2-z
1/2-x,y,1/2-z
1/2-x,1/2-y,1/2-z
1/2+x,y,1/2-z
1/2-x,1/2+y,1/2+z
1/2+x,-y,1/2+z
loop_
_atom_site_type_symbol
_atom_site_label
_atom_site_fract_x
_atom_site_fract_y
_atom_site_fract_z
Si Si1 0.306969 0.446345 0.450731
Si Si2 0.258322 0.061893 0.368720
Si Si3 0.882586 0.445903 0.098564
Si Si4 0.543743 0.944590 0.452607
Si Si5 0.839587 0.562777 0.814668
Si Si6 0.732168 0.250000 0.820122
Si Si7 0.186150 0.750000 0.233798
O O1 0.296123 0.500000 0.500000
O O2 0.312615 0.250000 0.448258
O O3 0.270390 0.495718 0.418434
O O4 0.348447 0.528786 0.433145
O O5 0.238735 0.250000 0.368169
O O6 0.297925 0.069234 0.339761
O O7 0.228608 0.919979 0.349496
O O8 0.881762 0.250000 0.090949
O O9 0.926209 0.511209 0.086707
O O10 0.873658 0.488086 0.149920
O O11 0.500000 0.029270 0.444779
O O12 0.537659 0.750000 0.453305
O O13 0.561682 0.000000 0.500000
O O14 0.847825 0.750000 0.794487
O O15 0.838895 0.419310 0.776902
O O16 0.773925 0.250000 0.794866
O O17 0.695674 0.250000 0.785854
#
# Coordination Sequence:
#
# PCOD8299368 Si02
#       7
#    16  16  16  16  16   8   8
#     4   9  17  25  34  49  64  80 105 133 161 193
#     4   8  15  26  34  45  66  85 102 127 154 182
#     4   9  17  28  39  51  64  81 103 127 164 200
#     4  10  20  30  38  49  64  82 105 132 161 196
#     4   8  15  26  37  50  68  82  98 126 154 188
#     4   9  16  24  36  50  64  84 106 122 148 191
#     4   9  16  24  36  54  65  80 106 122 149 188
#
# _framework density 11.874546
#
# number of rings (size 3 to 8) (size 9 to 14) (size 15 to 20)
#    0.000    3.167    0.000    3.000    2.333    3.667 
#    0.000    3.333    0.000    0.000    0.000    0.000 
#    0.000    0.000    0.000    0.000    0.000    0.000 
#
# Total GULP energy -594719.255735 kJ/mol
# GULP energy per Si atom -12389.984494 kJ/mol
# Density = 1.184752 g / cm^3
# Si number density = 11.874546 Si / 1000 Ang^3
#
#
#
# Elastic Constant Matrix: (Units=GPa)
#
#
# Indices 1 2 3 4 5 6 
#
# 1 33.2107 27.4986 33.9857 0.0000 0.0000 0.0000
# 2 27.4986 64.5826 41.6154 0.0000 0.0000 0.0000
# 3 33.9857 41.6154 63.9538 0.0000 0.0000 0.0000
# 4 0.0000 0.0000 0.0000 18.7807 0.0000 0.0000
# 5 0.0000 0.0000 0.0000 0.0000 22.2832 0.0000
# 6 0.0000 0.0000 0.0000 0.0000 0.0000 11.2363
#
#
#
# Elastic Compliance Matrix: (Units=1/GPa)
#
#
# Indices 1 2 3 4 5 6 
#
# 1 0.069553 -0.009985 -0.030464 0.000000 0.000000 0.000000
# 2 -0.009985 0.028098 -0.012978 0.000000 0.000000 0.000000
# 3 -0.030464 -0.012978 0.040270 0.000000 0.000000 0.000000
# 4 0.000000 0.000000 0.000000 0.053246 0.000000 0.000000
# 5 0.000000 0.000000 0.000000 0.000000 0.044877 0.000000
# 6 0.000000 0.000000 0.000000 0.000000 0.000000 0.088997
#
#
# Mechanical properties :
#
#
# Convention : Reuss Voigt Hill
#
# Bulk Modulus (GPa) = 32.18733 40.88294 36.53514
# Shear Modulus (GPa) = 11.30581 14.36985 12.83783
#
# Velocity S-wave (km/s) = 3.08897 3.48248 3.29161
# Velocity P-wave (km/s) = 6.31564 7.11857 6.72909
#
# Compressibility (1/GPa) = 0.03106812
#
# Stress axis : x y z
#
# Youngs Moduli (GPa) = 14.37748 35.58983 24.83244
#
# Poissons Ratio (x) = 0.35535 0.75650
# Poissons Ratio (y) = 0.14355 0.32227
# Poissons Ratio (z) = 0.43800 0.46187
#
# Static dielectric constant tensor:
#      x y z
#    x 0.616550 0.000000 0.000000 
#    y 0.000000 2.702060 0.000000 
#    z 0.000000 0.000000 2.225510 
# 
# 
# High freq. dielectric constant tensor:
#      x y z
#    x 1.392120 0.000000 0.000000 
#    y 0.000000 1.465630 0.000000 
#    z 0.000000 0.000000 1.425070 
# 
# From -- ./inp_files/73995.got.cif
#   From: 2010.03.12/outbox.cif.g09.slc.cpg/sg74_37_cif.got.tgz:73995.got - 2010.04.16 15:46:19.
