data_PCOD8299993
_publ_section_title
;
Structure prediction by ZEFSAII (Michael W. Deem and Ramdas Pophale) SiO2 
 PCOD8299993
Probable space group: I M M A
;
_chemical_formula_sum "Si O2"
_cell_formula_units_Z 112
_cell_length_a 17.393402
_cell_length_b 19.086609
_cell_length_c 17.143746
_cell_angle_alpha 90.000000
_cell_angle_beta 90.000000
_cell_angle_gamma 90.000000
_cell_volume 5691.399024
_symmetry_space_group_name_H-M "I M M A"
_symmetry_group_IT_number 74
_symmetry_cell_setting 'orthorhombic'
loop_
_space_group_symop_operation_xyz
x,y,z
-x,1/2-y,z
x,-y,-z
-x,1/2+y,-z
-x,-y,-z
x,1/2+y,-z
-x,y,z
x,1/2-y,z
1/2+x,1/2+y,1/2+z
1/2-x,-y,1/2+z
1/2+x,1/2-y,1/2-z
1/2-x,y,1/2-z
1/2-x,1/2-y,1/2-z
1/2+x,y,1/2-z
1/2-x,1/2+y,1/2+z
1/2+x,-y,1/2+z
loop_
_atom_site_type_symbol
_atom_site_label
_atom_site_fract_x
_atom_site_fract_y
_atom_site_fract_z
Si Si1 0.162762 0.430507 0.962719
Si Si2 0.086096 0.369231 0.100385
Si Si3 0.910295 0.531932 0.357995
Si Si4 0.183789 0.919937 0.545141
Si Si5 0.088660 0.328222 0.559171
Si Si6 0.266872 0.674049 0.663052
Si Si7 0.913098 0.519245 0.181284
O O1 0.140763 0.428583 0.870693
O O2 0.125291 0.500000 0.000000
O O3 0.120653 0.369312 0.011734
O O4 0.255691 0.434244 0.973858
O O5 0.141303 0.318898 0.150078
O O6 0.088618 0.443174 0.144115
O O7 0.000000 0.338733 0.097935
O O8 0.862639 0.488699 0.424194
O O9 0.897068 0.615179 0.372049
O O10 0.881867 0.515696 0.270290
O O11 0.000000 0.511783 0.368463
O O12 0.126728 0.858328 0.519377
O O13 0.234421 0.890736 0.615084
O O14 0.121247 0.250000 0.580540
O O15 0.000000 0.321083 0.539613
O O16 0.229792 0.750000 0.642920
O O17 0.250000 0.652468 0.750000
O O18 0.000000 0.549456 0.181818
#
# Coordination Sequence:
#
# PCOD8299993 Si02
#       7
#    16  16  16  16  16  16  16
#     4   9  17  29  48  76 106 137 171 211 263 314
#     4   9  17  30  50  74 101 136 177 217 256 309
#     4  10  20  34  56  83 108 135 174 224 268 310
#     4  11  20  34  54  78 106 138 178 219 258 309
#     4  10  21  37  56  77 103 137 174 213 263 319
#     4  10  21  35  50  72 105 141 175 216 269 322
#     4   9  17  31  52  79 107 133 169 221 271 311
#
# _framework density 19.678816999999999
#
# number of rings (size 3 to 8) (size 9 to 14) (size 15 to 20)
#    0.000    2.286    0.000    3.429    0.000    3.143 
#    0.000    5.714    0.000    6.857    0.000    4.000 
#    0.000    0.000    0.000    0.000    0.000    0.000 
#
# Total GULP energy -693799.479343 kJ/mol
# GULP energy per Si atom -12389.276417 kJ/mol
# Density = 1.963403 g / cm^3
# Si number density = 19.678817 Si / 1000 Ang^3
#
#
#
# Elastic Constant Matrix: (Units=GPa)
#
#
# Indices 1 2 3 4 5 6 
#
# 1 80.5667 29.6847 52.4078 0.0000 0.0000 0.0000
# 2 29.6847 86.3259 24.6590 0.0000 0.0000 0.0000
# 3 52.4078 24.6590 112.1815 0.0000 0.0000 0.0000
# 4 0.0000 0.0000 0.0000 -9.6510 0.0000 0.0000
# 5 0.0000 0.0000 0.0000 0.0000 30.1893 0.0000
# 6 0.0000 0.0000 0.0000 0.0000 0.0000 16.7914
#
#
#
# Elastic Compliance Matrix: (Units=1/GPa)
#
#
# Indices 1 2 3 4 5 6 
#
# 1 0.019229 -0.004317 -0.008034 0.000000 0.000000 0.000000
# 2 -0.004317 0.013329 -0.000913 0.000000 0.000000 0.000000
# 3 -0.008034 -0.000913 0.012868 0.000000 0.000000 0.000000
# 4 0.000000 0.000000 0.000000 -0.103616 0.000000 0.000000
# 5 0.000000 0.000000 0.000000 0.000000 0.033124 0.000000
# 6 0.000000 0.000000 0.000000 0.000000 0.000000 0.059554
#
#
# Mechanical properties :
#
#
# Convention : Reuss Voigt Hill
#
# Bulk Modulus (GPa) = 52.91725 54.73081 53.82403
# Shear Modulus (GPa) = 74.27545 18.95411 46.61478
#
# Velocity S-wave (km/s) = 6.15027 3.10687 4.87229
# Velocity P-wave (km/s) = 8.79677 6.38299 7.68524
#
# Compressibility (1/GPa) = 0.01889743
#
# Stress axis : x y z
#
# Youngs Moduli (GPa) = 52.00502 75.02215 77.71111
#
# Poissons Ratio (x) = 0.32389 0.62435
# Poissons Ratio (y) = 0.22452 0.07096
# Poissons Ratio (z) = 0.41782 0.06850
#
# Static dielectric constant tensor:
#      x y z
#    x 3.830220 0.000000 0.000000 
#    y 0.000000 3.482180 0.000000 
#    z 0.000000 0.000000 3.589440 
# 
# 
# High freq. dielectric constant tensor:
#      x y z
#    x 1.772890 0.000000 0.000000 
#    y 0.000000 1.743090 0.000000 
#    z 0.000000 0.000000 1.758280 
# 
# From -- ./inp_files/44445.got.cif
#   From: 2010.03.12/outbox.cif.g09.slc.cpg/sg74_23_cif.got.tgz:44445.got - 2010.04.16 15:46:19.
