data_PCOD8299734
_publ_section_title
;
Structure prediction by ZEFSAII (Michael W. Deem and Ramdas Pophale) SiO2 
 PCOD8299734
Probable space group: I M M A
;
_chemical_formula_sum "Si O2"
_cell_formula_units_Z 96
_cell_length_a 15.010030
_cell_length_b 13.493079
_cell_length_c 21.235594
_cell_angle_alpha 90.000000
_cell_angle_beta 90.000000
_cell_angle_gamma 90.000000
_cell_volume 4300.877143
_symmetry_space_group_name_H-M "I M M A"
_symmetry_group_IT_number 74
_symmetry_cell_setting 'orthorhombic'
loop_
_space_group_symop_operation_xyz
x,y,z
-x,1/2-y,z
x,-y,-z
-x,1/2+y,-z
-x,-y,-z
x,1/2+y,-z
-x,y,z
x,1/2-y,z
1/2+x,1/2+y,1/2+z
1/2-x,-y,1/2+z
1/2+x,1/2-y,1/2-z
1/2-x,y,1/2-z
1/2-x,1/2-y,1/2-z
1/2+x,y,1/2-z
1/2-x,1/2+y,1/2+z
1/2+x,-y,1/2+z
loop_
_atom_site_type_symbol
_atom_site_label
_atom_site_fract_x
_atom_site_fract_y
_atom_site_fract_z
Si Si1 0.396210 0.641758 0.601322
Si Si2 0.851708 0.362061 0.234257
Si Si3 0.900189 0.011659 0.349742
Si Si4 0.717561 0.133582 0.910167
Si Si5 0.898260 0.635473 0.529347
Si Si6 0.099103 0.368475 0.964898
O O1 0.500000 0.655290 0.609308
O O2 0.349340 0.750000 0.598212
O O3 0.360397 0.588188 0.664479
O O4 0.378330 0.584348 0.534730
O O5 0.892733 0.250000 0.235304
O O6 0.750000 0.357383 0.250000
O O7 0.901744 0.431617 0.283615
O O8 0.870490 0.085347 0.405365
O O9 0.000000 0.970171 0.360759
O O10 0.828357 0.921758 0.350892
O O11 0.707150 0.250000 0.898638
O O12 0.822302 0.103377 0.916277
O O13 0.664216 0.098450 0.972589
O O14 0.883044 0.750000 0.541587
O O15 0.000000 0.611160 0.510366
O O16 0.096699 0.250000 0.974708
O O17 0.000000 0.403799 0.941262
#
# Coordination Sequence:
#
# PCOD8299734 Si02
#       6
#    16  16  16  16  16  16
#     4   8  14  27  48  74 105 140 178 221 274 337
#     4  10  21  34  53  82 114 147 186 234 290 347
#     4  11  22  35  53  80 116 156 196 236 282 340
#     4  10  20  33  54  81 115 153 189 234 285 336
#     4   9  18  32  50  74 106 146 190 233 281 335
#     4   8  15  29  52  81 110 143 184 230 284 345
#
# _framework density 22.321028999999999
#
# number of rings (size 3 to 8) (size 9 to 14) (size 15 to 20)
#    0.000    2.667    0.000    3.000    2.333    4.000 
#    0.000    0.000    0.000    4.500    0.000    0.000 
#    0.000    0.000    0.000    0.333    0.000    0.333 
#
# Total GULP energy -594877.604102 kJ/mol
# GULP energy per Si atom -12393.283419 kJ/mol
# Density = 2.227023 g / cm^3
# Si number density = 22.321029 Si / 1000 Ang^3
#
#
#
# Elastic Constant Matrix: (Units=GPa)
#
#
# Indices 1 2 3 4 5 6 
#
# 1 117.7652 35.1337 41.4843 0.0000 0.0000 0.0000
# 2 35.1337 46.6803 41.1769 0.0000 0.0000 0.0000
# 3 41.4843 41.1769 89.6214 0.0000 0.0000 0.0000
# 4 0.0000 0.0000 0.0000 22.8633 0.0000 0.0000
# 5 0.0000 0.0000 0.0000 0.0000 29.4582 0.0000
# 6 0.0000 0.0000 0.0000 0.0000 0.0000 -74.5617
#
#
#
# Elastic Compliance Matrix: (Units=1/GPa)
#
#
# Indices 1 2 3 4 5 6 
#
# 1 0.011204 -0.006487 -0.002206 0.000000 0.000000 0.000000
# 2 -0.006487 0.039777 -0.015273 0.000000 0.000000 0.000000
# 3 -0.002206 -0.015273 0.019196 0.000000 0.000000 0.000000
# 4 0.000000 0.000000 0.000000 0.043738 0.000000 0.000000
# 5 0.000000 0.000000 0.000000 0.000000 0.033946 0.000000
# 6 0.000000 0.000000 0.000000 0.000000 0.000000 -0.013412
#
#
# Mechanical properties :
#
#
# Convention : Reuss Voigt Hill
#
# Bulk Modulus (GPa) = 44.95194 54.40631 49.67913
# Shear Modulus (GPa) = 26.34402 4.63676 15.49039
#
# Velocity S-wave (km/s) = 3.43918 1.44285 2.63721
# Velocity P-wave (km/s) = 5.99609 5.21566 5.61944
#
# Compressibility (1/GPa) = 0.02224598
#
# Stress axis : x y z
#
# Youngs Moduli (GPa) = 89.25625 25.14008 52.09336
#
# Poissons Ratio (x) = 0.16308 0.11490
# Poissons Ratio (y) = 0.57899 0.79563
# Poissons Ratio (z) = 0.19686 0.38397
#
# Static dielectric constant tensor:
#      x y z
#    x 4.084830 0.000000 0.000000 
#    y 0.000000 3.935810 0.000000 
#    z 0.000000 0.000000 4.020280 
# 
# 
# High freq. dielectric constant tensor:
#      x y z
#    x 1.886880 0.000000 0.000000 
#    y 0.000000 1.864960 0.000000 
#    z 0.000000 0.000000 1.848080 
# 
# From -- ./inp_files/51823.got.cif
#   From: 2010.03.12/outbox.cif.g09.slc.cpg/sg74_26_cif.got.tgz:51823.got - 2010.04.16 15:46:19.
