data_PCOD8299635
_publ_section_title
;
Structure prediction by ZEFSAII (Michael W. Deem and Ramdas Pophale) SiO2 
 PCOD8299635
Probable space group: I M M A
;
_chemical_formula_sum "Si O2"
_cell_formula_units_Z 104
_cell_length_a 8.769594
_cell_length_b 27.987273
_cell_length_c 24.051634
_cell_angle_alpha 90.000000
_cell_angle_beta 90.000000
_cell_angle_gamma 90.000000
_cell_volume 5903.161408
_symmetry_space_group_name_H-M "I M M A"
_symmetry_group_IT_number 74
_symmetry_cell_setting 'orthorhombic'
loop_
_space_group_symop_operation_xyz
x,y,z
-x,1/2-y,z
x,-y,-z
-x,1/2+y,-z
-x,-y,-z
x,1/2+y,-z
-x,y,z
x,1/2-y,z
1/2+x,1/2+y,1/2+z
1/2-x,-y,1/2+z
1/2+x,1/2-y,1/2-z
1/2-x,y,1/2-z
1/2-x,1/2-y,1/2-z
1/2+x,y,1/2-z
1/2-x,1/2+y,1/2+z
1/2+x,-y,1/2+z
loop_
_atom_site_type_symbol
_atom_site_label
_atom_site_fract_x
_atom_site_fract_y
_atom_site_fract_z
Si Si1 0.679199 0.377357 0.689066
Si Si2 0.821374 0.338124 0.126139
Si Si3 0.179915 0.250000 0.310557
Si Si4 0.175728 0.194177 0.606360
Si Si5 0.823674 0.470841 0.690263
Si Si6 0.321937 0.923397 0.810868
Si Si7 0.325469 0.195064 0.493605
O O1 0.500000 0.379853 0.694944
O O2 0.750000 0.370946 0.750000
O O3 0.723769 0.332593 0.651664
O O4 0.740078 0.426518 0.659502
O O5 0.731179 0.297088 0.157599
O O6 0.764903 0.389272 0.146762
O O7 0.000000 0.331123 0.137858
O O8 0.785857 0.336087 0.060502
O O9 0.250000 0.250000 0.250000
O O10 0.000000 0.250000 0.305278
O O11 0.211309 0.250000 0.613290
O O12 0.220578 0.177474 0.544315
O O13 0.000000 0.182054 0.616526
O O14 0.750000 0.474646 0.750000
O O15 0.800773 0.523196 0.663136
O O16 0.000000 0.457609 0.695529
O O17 0.500000 0.910080 0.806482
O O18 0.250000 0.918089 0.750000
O O19 0.500000 0.188124 0.511982
O O20 0.292202 0.250000 0.478152
#
# Coordination Sequence:
#
# PCOD8299635 Si02
#       7
#    16  16   8  16  16  16  16
#     4  11  21  34  55  81 110 141 172 207 254 306
#     4  11  21  35  53  74 102 136 174 218 265 314
#     4  12  24  36  50  70 102 138 175 218 269 322
#     4  10  21  36  55  80 108 138 173 211 252 302
#     4   9  17  31  51  74 103 135 172 213 254 305
#     4  10  20  33  50  75 104 137 174 216 264 313
#     4   9  18  35  55  74  99 133 175 216 257 306
#
# _framework density 17.617678999999999
#
# number of rings (size 3 to 8) (size 9 to 14) (size 15 to 20)
#    0.000    1.846    0.769    5.308    0.000    4.308 
#    0.000    0.000    0.000    0.923    0.000    6.462 
#    0.000    0.000    0.000    0.000    0.000    0.000 
#
# Total GULP energy -644729.761296 kJ/mol
# GULP energy per Si atom -12398.649256 kJ/mol
# Density = 1.757758 g / cm^3
# Si number density = 17.617679 Si / 1000 Ang^3
#
#
#
# Elastic Constant Matrix: (Units=GPa)
#
#
# Indices 1 2 3 4 5 6 
#
# 1 134.2856 56.8499 51.3983 0.0000 0.0000 0.0000
# 2 56.8499 99.7398 56.2116 0.0000 0.0000 0.0000
# 3 51.3983 56.2116 85.9454 0.0000 0.0000 0.0000
# 4 0.0000 0.0000 0.0000 -0.9944 0.0000 0.0000
# 5 0.0000 0.0000 0.0000 0.0000 29.6009 0.0000
# 6 0.0000 0.0000 0.0000 0.0000 0.0000 30.8990
#
#
#
# Elastic Compliance Matrix: (Units=1/GPa)
#
#
# Indices 1 2 3 4 5 6 
#
# 1 0.010529 -0.003884 -0.003756 0.000000 0.000000 0.000000
# 2 -0.003884 0.017312 -0.009000 0.000000 0.000000 0.000000
# 3 -0.003756 -0.009000 0.019768 0.000000 0.000000 0.000000
# 4 0.000000 0.000000 0.000000 -1.005681 0.000000 0.000000
# 5 0.000000 0.000000 0.000000 0.000000 0.033783 0.000000
# 6 0.000000 0.000000 0.000000 0.000000 0.000000 0.032364
#
#
# Mechanical properties :
#
#
# Convention : Reuss Voigt Hill
#
# Bulk Modulus (GPa) = 69.79218 72.09892 70.94555
# Shear Modulus (GPa) = -5.85570 22.26851 8.20640
#
# Velocity S-wave (km/s) = -1.82510 3.55912 2.16059
# Velocity P-wave (km/s) = 5.93798 7.60939 6.82504
#
# Compressibility (1/GPa) = 0.01432825
#
# Stress axis : x y z
#
# Youngs Moduli (GPa) = 94.97624 57.76223 50.58711
#
# Poissons Ratio (x) = 0.22437 0.19001
# Poissons Ratio (y) = 0.36893 0.45528
# Poissons Ratio (z) = 0.35674 0.51986
#
# Static dielectric constant tensor:
#      x y z
#    x 3.437750 0.000000 0.000000 
#    y 0.000000 3.713450 0.000000 
#    z 0.000000 0.000000 3.076690 
# 
# 
# High freq. dielectric constant tensor:
#      x y z
#    x 1.700210 0.000000 0.000000 
#    y 0.000000 1.683620 0.000000 
#    z 0.000000 0.000000 1.654610 
# 
# From -- ./inp_files/57871.got.cif
#   From: 2010.03.12/outbox.cif.g09.slc.cpg/sg74_29_cif.got.tgz:57871.got - 2010.04.16 15:46:19.
