data_PCOD8299123
_publ_section_title
;
Structure prediction by ZEFSAII (Michael W. Deem and Ramdas Pophale) SiO2 
 PCOD8299123
Probable space group: I M M A
;
_chemical_formula_sum "Si O2"
_cell_formula_units_Z 80
_cell_length_a 14.057195
_cell_length_b 16.536494
_cell_length_c 17.531923
_cell_angle_alpha 90.000000
_cell_angle_beta 90.000000
_cell_angle_gamma 90.000000
_cell_volume 4075.413329
_symmetry_space_group_name_H-M "I M M A"
_symmetry_group_IT_number 74
_symmetry_cell_setting 'orthorhombic'
loop_
_space_group_symop_operation_xyz
x,y,z
-x,1/2-y,z
x,-y,-z
-x,1/2+y,-z
-x,-y,-z
x,1/2+y,-z
-x,y,z
x,1/2-y,z
1/2+x,1/2+y,1/2+z
1/2-x,-y,1/2+z
1/2+x,1/2-y,1/2-z
1/2-x,y,1/2-z
1/2-x,1/2-y,1/2-z
1/2+x,y,1/2-z
1/2-x,1/2+y,1/2+z
1/2+x,-y,1/2+z
loop_
_atom_site_type_symbol
_atom_site_label
_atom_site_fract_x
_atom_site_fract_y
_atom_site_fract_z
Si Si1 0.891294 0.020287 0.411381
Si Si2 0.230459 0.840931 0.665073
Si Si3 0.393914 0.659461 0.437362
Si Si4 0.390644 0.082135 0.405751
Si Si5 0.732206 0.065110 0.661200
O O1 0.842064 0.104114 0.384290
O O2 0.000000 0.023316 0.384201
O O3 0.882995 0.000000 0.500000
O O4 0.837799 0.945577 0.372097
O O5 0.189128 0.750000 0.668187
O O6 0.250000 0.876195 0.750000
O O7 0.334509 0.839744 0.625895
O O8 0.500000 0.651035 0.402755
O O9 0.379249 0.750000 0.470501
O O10 0.382936 0.589983 0.502345
O O11 0.316589 0.646498 0.370452
O O12 0.500000 0.082562 0.379041
O O13 0.337441 0.005736 0.368847
O O14 0.750000 0.069703 0.750000
#
# Coordination Sequence:
#
# PCOD8299123 Si02
#       5
#    16  16  16  16  16
#     4  10  21  37  55  75 104 147 196 236 267 312
#     4  10  21  35  53  81 114 146 180 224 283 341
#     4  10  21  37  59  86 113 144 183 228 281 337
#     4  10  19  34  57  83 111 142 179 226 278 333
#     4  11  22  35  56  82 111 147 183 225 278 331
#
# _framework density 19.629909999999999
#
# number of rings (size 3 to 8) (size 9 to 14) (size 15 to 20)
#    0.000    1.800    0.000    6.600    0.000    7.600 
#    0.000    2.000    0.000    1.800    0.000    0.000 
#    0.000    0.000    0.000    0.000    0.000    0.000 
#
# Total GULP energy -495552.067042 kJ/mol
# GULP energy per Si atom -12388.801676 kJ/mol
# Density = 1.958523 g / cm^3
# Si number density = 19.629910 Si / 1000 Ang^3
#
#
#
# Elastic Constant Matrix: (Units=GPa)
#
#
# Indices 1 2 3 4 5 6 
#
# 1 162.0670 35.4167 72.1812 0.0000 0.0000 0.0000
# 2 35.4167 65.0834 32.8758 0.0000 0.0000 0.0000
# 3 72.1812 32.8758 123.6987 0.0000 0.0000 0.0000
# 4 0.0000 0.0000 0.0000 28.3890 0.0000 0.0000
# 5 0.0000 0.0000 0.0000 0.0000 15.9763 0.0000
# 6 0.0000 0.0000 0.0000 0.0000 0.0000 -46.8256
#
#
#
# Elastic Compliance Matrix: (Units=1/GPa)
#
#
# Indices 1 2 3 4 5 6 
#
# 1 0.008675 -0.002499 -0.004398 0.000000 0.000000 0.000000
# 2 -0.002499 0.018468 -0.003450 0.000000 0.000000 0.000000
# 3 -0.004398 -0.003450 0.011567 0.000000 0.000000 0.000000
# 4 0.000000 0.000000 0.000000 0.035225 0.000000 0.000000
# 5 0.000000 0.000000 0.000000 0.000000 0.062593 0.000000
# 6 0.000000 0.000000 0.000000 0.000000 0.000000 -0.021356
#
#
# Mechanical properties :
#
#
# Convention : Reuss Voigt Hill
#
# Bulk Modulus (GPa) = 55.50605 70.19962 62.85283
# Shear Modulus (GPa) = 35.24318 13.53295 24.38807
#
# Velocity S-wave (km/s) = 4.24179 2.62850 3.52858
# Velocity P-wave (km/s) = 7.23381 6.71202 6.97780
#
# Compressibility (1/GPa) = 0.01801605
#
# Stress axis : x y z
#
# Youngs Moduli (GPa) = 115.27093 54.14903 86.45030
#
# Poissons Ratio (x) = 0.13533 0.38021
# Poissons Ratio (y) = 0.28809 0.29824
# Poissons Ratio (z) = 0.50696 0.18680
#
# Static dielectric constant tensor:
#      x y z
#    x 3.936290 0.000000 0.000000 
#    y 0.000000 3.550610 0.000000 
#    z 0.000000 0.000000 3.635640 
# 
# 
# High freq. dielectric constant tensor:
#      x y z
#    x 1.769480 0.000000 0.000000 
#    y 0.000000 1.753660 0.000000 
#    z 0.000000 0.000000 1.765100 
# 
# From -- ./inp_files/32128.got.cif
#   From: 2010.03.12/outbox.cif.g09.slc.cpg/sg74_17_cif.got.tgz:32128.got - 2010.04.16 15:46:19.
