data_PCOD8299770
_publ_section_title
;
Structure prediction by ZEFSAII (Michael W. Deem and Ramdas Pophale) SiO2 
 PCOD8299770
Probable space group: I M M A
;
_chemical_formula_sum "Si O2"
_cell_formula_units_Z 80
_cell_length_a 18.896415
_cell_length_b 9.414168
_cell_length_c 25.604734
_cell_angle_alpha 90.000000
_cell_angle_beta 90.000000
_cell_angle_gamma 90.000000
_cell_volume 4554.929201
_symmetry_space_group_name_H-M "I M M A"
_symmetry_group_IT_number 74
_symmetry_cell_setting 'orthorhombic'
loop_
_space_group_symop_operation_xyz
x,y,z
-x,1/2-y,z
x,-y,-z
-x,1/2+y,-z
-x,-y,-z
x,1/2+y,-z
-x,y,z
x,1/2-y,z
1/2+x,1/2+y,1/2+z
1/2-x,-y,1/2+z
1/2+x,1/2-y,1/2-z
1/2-x,y,1/2-z
1/2-x,1/2-y,1/2-z
1/2+x,y,1/2-z
1/2-x,1/2+y,1/2+z
1/2+x,-y,1/2+z
loop_
_atom_site_type_symbol
_atom_site_label
_atom_site_fract_x
_atom_site_fract_y
_atom_site_fract_z
Si Si1 0.081830 0.915749 0.350625
Si Si2 0.330331 0.585766 0.050512
Si Si3 0.415995 0.093115 0.246166
Si Si4 0.334397 0.415828 0.551409
Si Si5 0.916907 0.585840 0.862929
O O1 0.093128 0.750000 0.342651
O O2 0.125673 0.971916 0.400157
O O3 0.000000 0.955152 0.359883
O O4 0.112933 0.987930 0.298298
O O5 0.347009 0.750000 0.039867
O O6 0.248178 0.559610 0.062103
O O7 0.355937 0.500000 0.000000
O O8 0.500000 0.095510 0.245389
O O9 0.386346 0.250000 0.233818
O O10 0.392129 0.046034 0.304116
O O11 0.359036 0.500000 0.500000
O O12 0.352609 0.250000 0.544333
O O13 0.376166 0.478301 0.600059
O O14 0.897874 0.750000 0.875350
O O15 0.000000 0.560776 0.870308
#
# Coordination Sequence:
#
# PCOD8299770 Si02
#       5
#    16  16  16  16  16
#     4   9  17  30  49  72  97 124 156 195 235 276
#     4   9  19  34  49  68  95 126 159 195 236 279
#     4   8  15  29  48  70  96 124 153 188 232 278
#     4  10  20  34  51  69  93 126 160 194 234 281
#     4   9  18  33  52  73  97 123 154 195 236 275
#
# _framework density 17.563390999999999
#
# number of rings (size 3 to 8) (size 9 to 14) (size 15 to 20)
#    0.000    3.000    0.000    1.800    0.000    3.600 
#    0.000    3.000    0.000    6.000    0.000    0.000 
#    0.000    0.000    0.000    0.000    0.000    0.000 
#
# Total GULP energy -495933.645613 kJ/mol
# GULP energy per Si atom -12398.341140 kJ/mol
# Density = 1.752342 g / cm^3
# Si number density = 17.563391 Si / 1000 Ang^3
#
#
#
# Elastic Constant Matrix: (Units=GPa)
#
#
# Indices 1 2 3 4 5 6 
#
# 1 40.5763 39.6612 55.5234 0.0000 0.0000 0.0000
# 2 39.6612 92.3413 88.5195 0.0000 0.0000 0.0000
# 3 55.5234 88.5195 174.8834 0.0000 0.0000 0.0000
# 4 0.0000 0.0000 0.0000 40.8315 0.0000 0.0000
# 5 0.0000 0.0000 0.0000 0.0000 -5.5426 0.0000
# 6 0.0000 0.0000 0.0000 0.0000 0.0000 19.9385
#
#
#
# Elastic Compliance Matrix: (Units=1/GPa)
#
#
# Indices 1 2 3 4 5 6 
#
# 1 0.049656 -0.012073 -0.009654 0.000000 0.000000 0.000000
# 2 -0.012073 0.023972 -0.008301 0.000000 0.000000 0.000000
# 3 -0.009654 -0.008301 0.012985 0.000000 0.000000 0.000000
# 4 0.000000 0.000000 0.000000 0.024491 0.000000 0.000000
# 5 0.000000 0.000000 0.000000 0.000000 -0.180420 0.000000
# 6 0.000000 0.000000 0.000000 0.000000 0.000000 0.050154
#
#
# Mechanical properties :
#
#
# Convention : Reuss Voigt Hill
#
# Bulk Modulus (GPa) = 37.65481 75.02324 56.33903
# Shear Modulus (GPa) = 100.51028 19.31862 59.91445
#
# Velocity S-wave (km/s) = 7.57307 3.32013 5.84699
# Velocity P-wave (km/s) = 9.89719 7.58328 8.81648
#
# Compressibility (1/GPa) = 0.02655703
#
# Stress axis : x y z
#
# Youngs Moduli (GPa) = 20.13841 41.71553 77.01316
#
# Poissons Ratio (x) = 0.50362 0.74352
# Poissons Ratio (y) = 0.24313 0.63926
# Poissons Ratio (z) = 0.19443 0.34627
#
# Static dielectric constant tensor:
#      x y z
#    x 3.017950 0.000000 0.000000 
#    y 0.000000 3.334060 0.000000 
#    z 0.000000 0.000000 3.504130 
# 
# 
# High freq. dielectric constant tensor:
#      x y z
#    x 1.650810 0.000000 0.000000 
#    y 0.000000 1.678880 0.000000 
#    z 0.000000 0.000000 1.690760 
# 
# From -- ./inp_files/63905.got.cif
#   From: 2010.03.12/outbox.cif.g09.slc.cpg/sg74_32_cif.got.tgz:63905.got - 2010.04.16 15:46:19.
