data_PCOD8299290
_publ_section_title
;
Structure prediction by ZEFSAII (Michael W. Deem and Ramdas Pophale) SiO2 
 PCOD8299290
Probable space group: I M M A
;
_chemical_formula_sum "Si O2"
_cell_formula_units_Z 96
_cell_length_a 29.704884
_cell_length_b 17.581363
_cell_length_c 9.410802
_cell_angle_alpha 90.000000
_cell_angle_beta 90.000000
_cell_angle_gamma 90.000000
_cell_volume 4914.813446
_symmetry_space_group_name_H-M "I M M A"
_symmetry_group_IT_number 74
_symmetry_cell_setting 'orthorhombic'
loop_
_space_group_symop_operation_xyz
x,y,z
-x,1/2-y,z
x,-y,-z
-x,1/2+y,-z
-x,-y,-z
x,1/2+y,-z
-x,y,z
x,1/2-y,z
1/2+x,1/2+y,1/2+z
1/2-x,-y,1/2+z
1/2+x,1/2-y,1/2-z
1/2-x,y,1/2-z
1/2-x,1/2-y,1/2-z
1/2+x,y,1/2-z
1/2-x,1/2+y,1/2+z
1/2+x,-y,1/2+z
loop_
_atom_site_type_symbol
_atom_site_label
_atom_site_fract_x
_atom_site_fract_y
_atom_site_fract_z
Si Si1 0.730581 0.834965 0.593585
Si Si2 0.375708 0.926559 0.295696
Si Si3 0.885409 0.665968 0.620971
Si Si4 0.448272 0.162692 0.876761
Si Si5 0.689705 0.084017 0.956469
Si Si6 0.636081 0.902794 0.606004
O O1 0.714855 0.750000 0.548559
O O2 0.750000 0.832325 0.750000
O O3 0.766873 0.862568 0.476058
O O4 0.689805 0.893897 0.604885
O O5 0.419666 0.897625 0.213166
O O6 0.330424 0.909106 0.203722
O O7 0.377663 0.882753 0.445297
O O8 0.377893 0.014878 0.335357
O O9 0.866218 0.750000 0.588801
O O10 0.933099 0.655100 0.541705
O O11 0.849389 0.605430 0.566487
O O12 0.890014 0.655799 0.790581
O O13 0.500000 0.138775 0.865343
O O14 0.440653 0.250000 0.824703
O O15 0.704998 0.000000 0.000000
#
# Coordination Sequence:
#
# PCOD8299290 Si02
#       6
#    16  16  16  16  16  16
#     4  11  22  36  57  84 116 158 209 257 299 351
#     4  10  23  39  59  88 123 161 201 248 314 368
#     4  10  19  36  62  86 115 155 202 249 302 370
#     4   9  20  40  66  93 120 153 197 250 307 373
#     4  11  20  36  60  83 115 159 210 254 303 349
#     4  11  22  39  56  84 124 160 202 253 305 368
#
# _framework density 19.532786999999999
#
# number of rings (size 3 to 8) (size 9 to 14) (size 15 to 20)
#    0.000    1.667    3.333    1.000    2.333    2.667 
#    0.000    5.000    0.000    2.000    0.000    0.000 
#    0.000    0.000    0.000    0.000    0.000    0.000 
#
# Total GULP energy -594905.087979 kJ/mol
# GULP energy per Si atom -12393.856000 kJ/mol
# Density = 1.948833 g / cm^3
# Si number density = 19.532787 Si / 1000 Ang^3
#
#
#
# Elastic Constant Matrix: (Units=GPa)
#
#
# Indices 1 2 3 4 5 6 
#
# 1 113.0738 48.7311 51.1715 0.0000 0.0000 0.0000
# 2 48.7311 80.0788 36.8497 0.0000 0.0000 0.0000
# 3 51.1715 36.8497 144.5846 0.0000 0.0000 0.0000
# 4 0.0000 0.0000 0.0000 34.7972 0.0000 0.0000
# 5 0.0000 0.0000 0.0000 0.0000 22.6001 0.0000
# 6 0.0000 0.0000 0.0000 0.0000 0.0000 31.6289
#
#
#
# Elastic Compliance Matrix: (Units=1/GPa)
#
#
# Indices 1 2 3 4 5 6 
#
# 1 0.012996 -0.006562 -0.002927 0.000000 0.000000 0.000000
# 2 -0.006562 0.017460 -0.002128 0.000000 0.000000 0.000000
# 3 -0.002927 -0.002128 0.008495 0.000000 0.000000 0.000000
# 4 0.000000 0.000000 0.000000 0.028738 0.000000 0.000000
# 5 0.000000 0.000000 0.000000 0.000000 0.044248 0.000000
# 6 0.000000 0.000000 0.000000 0.000000 0.000000 0.031617
#
#
# Mechanical properties :
#
#
# Convention : Reuss Voigt Hill
#
# Bulk Modulus (GPa) = 63.62305 67.91574 65.76940
# Shear Modulus (GPa) = 29.06541 31.20422 30.13481
#
# Velocity S-wave (km/s) = 3.86169 4.00125 3.93209
# Velocity P-wave (km/s) = 7.24753 7.49615 7.37289
#
# Compressibility (1/GPa) = 0.01571757
#
# Stress axis : x y z
#
# Youngs Moduli (GPa) = 76.94402 57.27426 117.72103
#
# Poissons Ratio (x) = 0.37582 0.34461
# Poissons Ratio (y) = 0.50489 0.25046
# Poissons Ratio (z) = 0.22524 0.12186
#
# Static dielectric constant tensor:
#      x y z
#    x 3.333500 0.000000 0.000000 
#    y 0.000000 3.648800 0.000000 
#    z 0.000000 0.000000 3.946310 
# 
# 
# High freq. dielectric constant tensor:
#      x y z
#    x 1.732180 0.000000 0.000000 
#    y 0.000000 1.767480 0.000000 
#    z 0.000000 0.000000 1.765260 
# 
# From -- ./inp_files/15126.got.cif
#   From: 2010.03.12/outbox.cif.g09.slc.cpg/sg74_8_cif.got.tgz:15126.got - 2010.04.16 15:46:19.
