data_PCOD8299716
_publ_section_title
;
Structure prediction by ZEFSAII (Michael W. Deem and Ramdas Pophale) SiO2 
 PCOD8299716
Probable space group: I M M A
;
_chemical_formula_sum "Si O2"
_cell_formula_units_Z 112
_cell_length_a 14.012519
_cell_length_b 14.641531
_cell_length_c 26.091748
_cell_angle_alpha 90.000000
_cell_angle_beta 90.000000
_cell_angle_gamma 90.000000
_cell_volume 5353.106468
_symmetry_space_group_name_H-M "I M M A"
_symmetry_group_IT_number 74
_symmetry_cell_setting 'orthorhombic'
loop_
_space_group_symop_operation_xyz
x,y,z
-x,1/2-y,z
x,-y,-z
-x,1/2+y,-z
-x,-y,-z
x,1/2+y,-z
-x,y,z
x,1/2-y,z
1/2+x,1/2+y,1/2+z
1/2-x,-y,1/2+z
1/2+x,1/2-y,1/2-z
1/2-x,y,1/2-z
1/2-x,1/2-y,1/2-z
1/2+x,y,1/2-z
1/2-x,1/2+y,1/2+z
1/2+x,-y,1/2+z
loop_
_atom_site_type_symbol
_atom_site_label
_atom_site_fract_x
_atom_site_fract_y
_atom_site_fract_z
Si Si1 0.386600 0.146499 0.697321
Si Si2 0.242192 0.094303 0.519623
Si Si3 0.108000 0.147286 0.608776
Si Si4 0.109152 0.648356 0.663685
Si Si5 0.887388 0.030920 0.900536
Si Si6 0.111775 0.039086 0.705461
Si Si7 0.279372 0.650501 0.590154
O O1 0.500000 0.149177 0.700261
O O2 0.345753 0.250000 0.697348
O O3 0.342963 0.088644 0.744968
O O4 0.353923 0.094459 0.646300
O O5 0.168329 0.143094 0.556920
O O6 0.266740 0.156349 0.471064
O O7 0.195394 0.000000 0.500000
O O8 0.341420 0.072284 0.548408
O O9 0.110618 0.250000 0.630268
O O10 0.153335 0.082735 0.652918
O O11 0.000000 0.117406 0.595696
O O12 0.124986 0.750000 0.687671
O O13 0.132682 0.570194 0.706129
O O14 0.175305 0.632477 0.614425
O O15 0.000000 0.636875 0.644794
O O16 0.852273 0.927133 0.891161
O O17 0.000000 0.030261 0.907588
O O18 0.000000 0.059824 0.706196
O O19 0.318547 0.750000 0.607874
#
# Coordination Sequence:
#
# PCOD8299716 Si02
#       7
#    16  16  16  16  16  16  16
#     4   9  18  34  57  82 107 139 180 225 273 324
#     4  10  21  36  55  78 107 142 182 228 272 319
#     4  10  20  33  52  81 116 149 178 213 263 324
#     4   9  18  34  57  84 114 148 183 217 258 315
#     4  10  22  40  58  78 106 140 182 233 284 329
#     4   9  16  30  54  82 112 145 179 216 261 316
#     4  10  21  37  57  81 110 144 181 224 273 323
#
# _framework density 20.922429999999999
#
# number of rings (size 3 to 8) (size 9 to 14) (size 15 to 20)
#    0.000    2.429    0.000    2.571    0.000    6.571 
#    0.000    5.000    0.000    8.571    0.000    0.000 
#    0.000    0.000    0.000    0.000    0.000    0.000 
#
# Total GULP energy -694218.059082 kJ/mol
# GULP energy per Si atom -12396.751055 kJ/mol
# Density = 2.087481 g / cm^3
# Si number density = 20.922430 Si / 1000 Ang^3
#
#
#
# Elastic Constant Matrix: (Units=GPa)
#
#
# Indices 1 2 3 4 5 6 
#
# 1 55.5037 32.0830 12.1998 0.0000 0.0000 0.0000
# 2 32.0830 159.6988 61.4703 0.0000 0.0000 0.0000
# 3 12.1998 61.4703 99.6562 0.0000 0.0000 0.0000
# 4 0.0000 0.0000 0.0000 32.6407 0.0000 0.0000
# 5 0.0000 0.0000 0.0000 0.0000 -93.8471 0.0000
# 6 0.0000 0.0000 0.0000 0.0000 0.0000 22.0209
#
#
#
# Elastic Compliance Matrix: (Units=1/GPa)
#
#
# Indices 1 2 3 4 5 6 
#
# 1 0.020384 -0.004111 0.000040 0.000000 0.000000 0.000000
# 2 -0.004111 0.009040 -0.005073 0.000000 0.000000 0.000000
# 3 0.000040 -0.005073 0.013159 0.000000 0.000000 0.000000
# 4 0.000000 0.000000 0.000000 0.030637 0.000000 0.000000
# 5 0.000000 0.000000 0.000000 0.000000 -0.010656 0.000000
# 6 0.000000 0.000000 0.000000 0.000000 0.000000 0.045411
#
#
# Mechanical properties :
#
#
# Convention : Reuss Voigt Hill
#
# Bulk Modulus (GPa) = 41.15892 58.48500 49.82196
# Shear Modulus (GPa) = 37.21319 6.10329 21.65824
#
# Velocity S-wave (km/s) = 4.22195 1.70981 3.22089
# Velocity P-wave (km/s) = 6.59404 5.64906 6.13976
#
# Compressibility (1/GPa) = 0.02429607
#
# Stress axis : x y z
#
# Youngs Moduli (GPa) = 49.05804 110.61623 75.99495
#
# Poissons Ratio (x) = 0.45469 -0.00305
# Poissons Ratio (y) = 0.20165 0.38553
# Poissons Ratio (z) = -0.00197 0.56116
#
# Static dielectric constant tensor:
#      x y z
#    x 3.514240 0.000000 0.000000 
#    y 0.000000 4.059540 0.000000 
#    z 0.000000 0.000000 3.743120 
# 
# 
# High freq. dielectric constant tensor:
#      x y z
#    x 1.807140 0.000000 0.000000 
#    y 0.000000 1.835200 0.000000 
#    z 0.000000 0.000000 1.804630 
# 
# From -- ./inp_files/67230.got.cif
#   From: 2010.03.12/outbox.cif.g09.slc.cpg/sg74_34_cif.got.tgz:67230.got - 2010.04.16 15:46:19.
