data_PCOD8299530
_publ_section_title
;
Structure prediction by ZEFSAII (Michael W. Deem and Ramdas Pophale) SiO2 
 PCOD8299530
Probable space group: I M M A
;
_chemical_formula_sum "Si O2"
_cell_formula_units_Z 72
_cell_length_a 9.908341
_cell_length_b 28.767179
_cell_length_c 14.551895
_cell_angle_alpha 90.000000
_cell_angle_beta 90.000000
_cell_angle_gamma 90.000000
_cell_volume 4147.799670
_symmetry_space_group_name_H-M "I M M A"
_symmetry_group_IT_number 74
_symmetry_cell_setting 'orthorhombic'
loop_
_space_group_symop_operation_xyz
x,y,z
-x,1/2-y,z
x,-y,-z
-x,1/2+y,-z
-x,-y,-z
x,1/2+y,-z
-x,y,z
x,1/2-y,z
1/2+x,1/2+y,1/2+z
1/2-x,-y,1/2+z
1/2+x,1/2-y,1/2-z
1/2-x,y,1/2-z
1/2-x,1/2-y,1/2-z
1/2+x,y,1/2-z
1/2-x,1/2+y,1/2+z
1/2+x,-y,1/2+z
loop_
_atom_site_type_symbol
_atom_site_label
_atom_site_fract_x
_atom_site_fract_y
_atom_site_fract_z
Si Si1 0.153827 0.534464 0.418169
Si Si2 0.346083 0.302967 0.668124
Si Si3 0.150111 0.388974 0.175868
Si Si4 0.750000 0.478515 0.250000
Si Si5 0.156463 0.616216 0.031438
O O1 0.196431 0.500000 0.500000
O O2 0.164663 0.509790 0.319725
O O3 0.253302 0.578149 0.417637
O O4 0.000000 0.551420 0.432160
O O5 0.500000 0.308117 0.702403
O O6 0.313011 0.250000 0.639952
O O7 0.250000 0.320007 0.750000
O O8 0.319318 0.334321 0.579206
O O9 0.250000 0.364507 0.250000
O O10 0.149345 0.444935 0.192078
O O11 0.000000 0.369044 0.190069
O O12 0.203175 0.378122 0.073836
O O13 0.000000 0.600554 0.036827
#
# Coordination Sequence:
#
# PCOD8299530 Si02
#       5
#    16  16  16   8  16
#     4  11  22  36  51  72 104 142 179 213 251 298
#     4   9  19  37  58  79 104 133 168 211 261 314
#     4   9  18  33  52  71  97 134 172 208 249 298
#     4  10  20  32  50  68  98 138 174 210 246 296
#     4  10  21  35  53  78 103 133 173 216 261 306
#
# _framework density 17.358601
#
# number of rings (size 3 to 8) (size 9 to 14) (size 15 to 20)
#    0.667    1.556    2.222    0.667    1.556    4.000 
#    0.000    0.000    0.000    0.667    0.000    0.000 
#    0.000    0.000    0.000    0.000    0.000    0.000 
#
# Total GULP energy -446317.582381 kJ/mol
# GULP energy per Si atom -12397.710622 kJ/mol
# Density = 1.731909 g / cm^3
# Si number density = 17.358601 Si / 1000 Ang^3
#
#
#
# Elastic Constant Matrix: (Units=GPa)
#
#
# Indices 1 2 3 4 5 6 
#
# 1 68.6014 35.0287 46.6999 -0.0001 0.0000 0.0000
# 2 35.0287 67.8266 52.8811 0.0000 0.0000 0.0000
# 3 46.6999 52.8811 136.7924 -0.0003 0.0002 0.0000
# 4 -0.0001 0.0000 -0.0003 24.6531 0.0000 0.0000
# 5 0.0000 0.0000 0.0002 0.0000 29.8418 -0.0001
# 6 0.0000 0.0000 0.0000 0.0000 -0.0001 20.7136
#
#
#
# Elastic Compliance Matrix: (Units=1/GPa)
#
#
# Indices 1 2 3 4 5 6 
#
# 1 0.021470 -0.007692 -0.004356 0.000000 0.000000 0.000000
# 2 -0.007692 0.023860 -0.006598 0.000000 0.000000 0.000000
# 3 -0.004356 -0.006598 0.011348 0.000000 0.000000 0.000000
# 4 0.000000 0.000000 0.000000 0.040563 0.000000 0.000000
# 5 0.000000 0.000000 0.000000 0.000000 0.033510 0.000000
# 6 0.000000 0.000000 0.000000 0.000000 0.000000 0.048277
#
#
# Mechanical properties :
#
#
# Convention : Reuss Voigt Hill
#
# Bulk Modulus (GPa) = 51.58266 60.27108 55.92687
# Shear Modulus (GPa) = 22.44351 24.28242 23.36296
#
# Velocity S-wave (km/s) = 3.59964 3.74420 3.67263
# Velocity P-wave (km/s) = 6.85981 7.31359 7.09033
#
# Compressibility (1/GPa) = 0.01938636
#
# Stress axis : x y z
#
# Youngs Moduli (GPa) = 46.57689 41.91153 88.12044
#
# Poissons Ratio (x) = 0.32237 0.38387
# Poissons Ratio (y) = 0.35825 0.58140
# Poissons Ratio (z) = 0.20290 0.27652
#
# Static dielectric constant tensor:
#      x y z
#    x 3.196410 0.000000 0.000000 
#    y 0.000000 2.983480 0.000000 
#    z 0.000000 0.000000 3.255150 
# 
# 
# High freq. dielectric constant tensor:
#      x y z
#    x 1.673250 0.000000 0.000000 
#    y 0.000000 1.637200 0.000000 
#    z 0.000000 0.000000 1.676850 
# 
# From -- ./inp_files/29212.got.cif
#   From: 2010.03.12/outbox.cif.g09.slc.cpg/sg74_15_cif.got.tgz:29212.got - 2010.04.16 15:46:19.
