data_PCOD8299389
_publ_section_title
;
Structure prediction by ZEFSAII (Michael W. Deem and Ramdas Pophale) SiO2 
 PCOD8299389
Probable space group: I M M A
;
_chemical_formula_sum "Si O2"
_cell_formula_units_Z 96
_cell_length_a 24.538048
_cell_length_b 8.884974
_cell_length_c 24.542744
_cell_angle_alpha 90.000000
_cell_angle_beta 90.000000
_cell_angle_gamma 90.000000
_cell_volume 5350.807046
_symmetry_space_group_name_H-M "I M M A"
_symmetry_group_IT_number 74
_symmetry_cell_setting 'orthorhombic'
loop_
_space_group_symop_operation_xyz
x,y,z
-x,1/2-y,z
x,-y,-z
-x,1/2+y,-z
-x,-y,-z
x,1/2+y,-z
-x,y,z
x,1/2-y,z
1/2+x,1/2+y,1/2+z
1/2-x,-y,1/2+z
1/2+x,1/2-y,1/2-z
1/2-x,y,1/2-z
1/2-x,1/2-y,1/2-z
1/2+x,y,1/2-z
1/2-x,1/2+y,1/2+z
1/2+x,-y,1/2+z
loop_
_atom_site_type_symbol
_atom_site_label
_atom_site_fract_x
_atom_site_fract_y
_atom_site_fract_z
Si Si1 0.767967 0.583119 0.447497
Si Si2 0.059928 0.072851 0.233431
Si Si3 0.606847 0.410597 0.950664
Si Si4 0.560409 0.917353 0.857327
Si Si5 0.767123 0.930873 0.669114
Si Si6 0.830015 0.570027 0.237331
O O1 0.740007 0.500000 0.500000
O O2 0.741285 0.750000 0.438522
O O3 0.830114 0.609213 0.463522
O O4 0.764313 0.481414 0.393521
O O5 0.070810 0.250000 0.225205
O O6 0.057265 0.025033 0.296158
O O7 0.000000 0.031630 0.207556
O O8 0.111066 0.976555 0.211399
O O9 0.577302 0.250000 0.948327
O O10 0.601852 0.485675 0.892024
O O11 0.578308 0.500000 0.000000
O O12 0.500000 0.924822 0.883307
O O13 0.584191 0.750000 0.858813
O O14 0.767999 0.750000 0.672890
O O15 0.819686 0.998859 0.701969
O O16 0.713812 0.998819 0.697148
O O17 0.824497 0.750000 0.239903
#
# Coordination Sequence:
#
# PCOD8299389 Si02
#       6
#    16  16  16  16  16  16
#     4  10  20  34  50  71  96 123 157 196 240 290
#     4   9  18  33  51  70  94 125 159 194 236 290
#     4  10  20  31  44  60  80 109 145 187 232 277
#     4   9  18  31  45  60  80 109 146 188 232 276
#     4  11  21  34  52  73  99 133 169 205 249 298
#     4  11  21  33  50  74 103 132 165 207 251 297
#
# _framework density 17.941219
#
# number of rings (size 3 to 8) (size 9 to 14) (size 15 to 20)
#    0.000    2.000    0.000    7.000    0.000    6.333 
#    0.000    1.667    0.000    0.000    0.000    0.000 
#    0.000    0.667    0.000    2.500    0.000    3.833 
#
# Total GULP energy -594715.780049 kJ/mol
# GULP energy per Si atom -12389.912084 kJ/mol
# Density = 1.790038 g / cm^3
# Si number density = 17.941219 Si / 1000 Ang^3
#
#
#
# Elastic Constant Matrix: (Units=GPa)
#
#
# Indices 1 2 3 4 5 6 
#
# 1 70.2231 27.3574 1.1964 0.0000 0.0000 0.0000
# 2 27.3574 119.8364 23.5832 0.0000 0.0000 0.0000
# 3 1.1964 23.5832 58.6490 0.0000 0.0000 0.0000
# 4 0.0000 0.0000 0.0000 26.0181 0.0000 0.0000
# 5 0.0000 0.0000 0.0000 0.0000 16.0838 0.0000
# 6 0.0000 0.0000 0.0000 0.0000 0.0000 20.1858
#
#
#
# Elastic Compliance Matrix: (Units=1/GPa)
#
#
# Indices 1 2 3 4 5 6 
#
# 1 0.015710 -0.003826 0.001218 0.000000 0.000000 0.000000
# 2 -0.003826 0.009994 -0.003940 0.000000 0.000000 0.000000
# 3 0.001218 -0.003940 0.018610 0.000000 0.000000 0.000000
# 4 0.000000 0.000000 0.000000 0.038435 0.000000 0.000000
# 5 0.000000 0.000000 0.000000 0.000000 0.062174 0.000000
# 6 0.000000 0.000000 0.000000 0.000000 0.000000 0.049540
#
#
# Mechanical properties :
#
#
# Convention : Reuss Voigt Hill
#
# Bulk Modulus (GPa) = 32.03395 39.22028 35.62712
# Shear Modulus (GPa) = 22.93940 25.56233 24.25086
#
# Velocity S-wave (km/s) = 3.57961 3.77872 3.68051
# Velocity P-wave (km/s) = 5.91427 6.39892 6.16136
#
# Compressibility (1/GPa) = 0.03121688
#
# Stress axis : x y z
#
# Youngs Moduli (GPa) = 63.65303 100.06358 53.73390
#
# Poissons Ratio (x) = 0.38286 -0.06545
# Poissons Ratio (y) = 0.24355 0.21174
# Poissons Ratio (z) = -0.07753 0.39430
#
# Static dielectric constant tensor:
#      x y z
#    x 3.557800 0.000000 0.000000 
#    y 0.000000 3.617090 0.000000 
#    z 0.000000 0.000000 3.072490 
# 
# 
# High freq. dielectric constant tensor:
#      x y z
#    x 1.670760 0.000000 0.000000 
#    y 0.000000 1.708880 0.000000 
#    z 0.000000 0.000000 1.660870 
# 
# From -- ./inp_files/62257.got.cif
#   From: 2010.03.12/outbox.cif.g09.slc.cpg/sg74_32_cif.got.tgz:62257.got - 2010.04.16 15:46:19.
