data_PCOD8299362
_publ_section_title
;
Structure prediction by ZEFSAII (Michael W. Deem and Ramdas Pophale) SiO2 
 PCOD8299362
Probable space group: I M M A
;
_chemical_formula_sum "Si O2"
_cell_formula_units_Z 88
_cell_length_a 9.943089
_cell_length_b 31.988975
_cell_length_c 17.500926
_cell_angle_alpha 90.000000
_cell_angle_beta 90.000000
_cell_angle_gamma 90.000000
_cell_volume 5566.505977
_symmetry_space_group_name_H-M "I M M A"
_symmetry_group_IT_number 74
_symmetry_cell_setting 'orthorhombic'
loop_
_space_group_symop_operation_xyz
x,y,z
-x,1/2-y,z
x,-y,-z
-x,1/2+y,-z
-x,-y,-z
x,1/2+y,-z
-x,y,z
x,1/2-y,z
1/2+x,1/2+y,1/2+z
1/2-x,-y,1/2+z
1/2+x,1/2-y,1/2-z
1/2-x,y,1/2-z
1/2-x,1/2-y,1/2-z
1/2+x,y,1/2-z
1/2-x,1/2+y,1/2+z
1/2+x,-y,1/2+z
loop_
_atom_site_type_symbol
_atom_site_label
_atom_site_fract_x
_atom_site_fract_y
_atom_site_fract_z
Si Si1 0.250000 0.910674 0.750000
Si Si2 0.500000 0.201999 0.312326
Si Si3 0.350371 0.085947 0.494773
Si Si4 0.652152 0.529745 0.073303
Si Si5 0.500000 0.797193 0.869446
Si Si6 0.642471 0.975289 0.645158
Si Si7 0.752044 0.348530 0.120031
O O1 0.360350 0.941800 0.714240
O O2 0.306991 0.882054 0.818635
O O3 0.500000 0.250000 0.341065
O O4 0.500000 0.200257 0.221618
O O5 0.368633 0.178615 0.341706
O O6 0.500000 0.091817 0.531214
O O7 0.237898 0.071936 0.556519
O O8 0.357148 0.049255 0.433856
O O9 0.306170 0.129345 0.455958
O O10 0.500000 0.541426 0.099199
O O11 0.729196 0.506323 0.143589
O O12 0.644148 0.500000 0.000000
O O13 0.500000 0.750000 0.898482
O O14 0.368923 0.818827 0.904751
O O15 0.500000 0.000118 0.650701
#
# Coordination Sequence:
#
# PCOD8299362 Si02
#       7
#     8   8  16  16   8  16  16
#     4  10  20  28  43  62  82 106 144 182 211 242
#     4  11  20  34  46  58  81 111 141 174 221 271
#     4   9  17  29  45  59  76 101 131 168 209 252
#     4   9  17  29  41  61  79  98 124 162 210 253
#     4  11  22  32  44  60  83 111 137 176 227 267
#     4   9  18  29  42  56  79 107 132 163 209 254
#     4  11  20  31  45  63  81 105 142 182 216 258
#
# _framework density 15.80884
#
# number of rings (size 3 to 8) (size 9 to 14) (size 15 to 20)
#    0.000    2.182    2.727    1.091    3.818    4.364 
#    3.273    0.000    0.000    0.000    0.000    0.000 
#    0.000    0.000    0.000    0.000    0.000    0.000 
#
# Total GULP energy -545174.652854 kJ/mol
# GULP energy per Si atom -12390.333019 kJ/mol
# Density = 1.577286 g / cm^3
# Si number density = 15.808840 Si / 1000 Ang^3
#
#
#
# Elastic Constant Matrix: (Units=GPa)
#
#
# Indices 1 2 3 4 5 6 
#
# 1 155.8432 55.4824 21.4474 0.0000 0.0000 0.0000
# 2 55.4824 82.9492 26.0703 0.0000 0.0000 0.0000
# 3 21.4474 26.0703 15.5627 0.0002 -0.0001 0.0001
# 4 0.0000 0.0000 0.0002 21.7124 -0.0001 0.0000
# 5 0.0000 0.0000 -0.0001 -0.0001 5.5985 0.0000
# 6 0.0000 0.0000 0.0001 0.0000 0.0000 22.2552
#
#
#
# Elastic Compliance Matrix: (Units=1/GPa)
#
#
# Indices 1 2 3 4 5 6 
#
# 1 0.008580 -0.004272 -0.004669 0.000000 0.000000 0.000000
# 2 -0.004272 0.027587 -0.040326 0.000000 0.000000 0.000000
# 3 -0.004669 -0.040326 0.138244 -0.000001 0.000002 -0.000001
# 4 0.000000 0.000000 -0.000001 0.046057 0.000001 0.000000
# 5 0.000000 0.000000 0.000002 0.000001 0.178619 0.000000
# 6 0.000000 0.000000 -0.000001 0.000000 0.000000 0.044933
#
#
# Mechanical properties :
#
#
# Convention : Reuss Voigt Hill
#
# Bulk Modulus (GPa) = 13.17910 51.15059 32.16484
# Shear Modulus (GPa) = 8.80521 20.00354 14.40438
#
# Velocity S-wave (km/s) = 2.36260 3.56102 3.02182
# Velocity P-wave (km/s) = 3.97456 7.02380 5.70661
#
# Compressibility (1/GPa) = 0.07587771
#
# Stress axis : x y z
#
# Youngs Moduli (GPa) = 116.55073 36.24901 7.23361
#
# Poissons Ratio (x) = 0.15484 0.03377
# Poissons Ratio (y) = 0.49786 0.29170
# Poissons Ratio (z) = 0.54413 1.46179
#
# Static dielectric constant tensor:
#      x y z
#    x 3.804530 0.000000 0.000000 
#    y 0.000000 3.008400 0.000000 
#    z 0.000000 0.000000 2.627560 
# 
# 
# High freq. dielectric constant tensor:
#      x y z
#    x 1.627750 0.000000 0.000000 
#    y 0.000000 1.584030 0.000000 
#    z 0.000000 0.000000 1.539850 
# 
# From -- ./inp_files/49540.got.cif
#   From: 2010.03.12/outbox.cif.g09.slc.cpg/sg74_25_cif.got.tgz:49540.got - 2010.04.16 15:46:19.
