data_PCOD8299432
_publ_section_title
;
Structure prediction by ZEFSAII (Michael W. Deem and Ramdas Pophale) SiO2 
 PCOD8299432
Probable space group: I M M A
;
_chemical_formula_sum "Si O2"
_cell_formula_units_Z 96
_cell_length_a 9.181402
_cell_length_b 24.592394
_cell_length_c 24.635021
_cell_angle_alpha 90.000000
_cell_angle_beta 90.000000
_cell_angle_gamma 90.000000
_cell_volume 5562.406809
_symmetry_space_group_name_H-M "I M M A"
_symmetry_group_IT_number 74
_symmetry_cell_setting 'orthorhombic'
loop_
_space_group_symop_operation_xyz
x,y,z
-x,1/2-y,z
x,-y,-z
-x,1/2+y,-z
-x,-y,-z
x,1/2+y,-z
-x,y,z
x,1/2-y,z
1/2+x,1/2+y,1/2+z
1/2-x,-y,1/2+z
1/2+x,1/2-y,1/2-z
1/2-x,y,1/2-z
1/2-x,1/2-y,1/2-z
1/2+x,y,1/2-z
1/2-x,1/2+y,1/2+z
1/2+x,-y,1/2+z
loop_
_atom_site_type_symbol
_atom_site_label
_atom_site_fract_x
_atom_site_fract_y
_atom_site_fract_z
Si Si1 0.830900 0.413882 0.984070
Si Si2 0.659728 0.853200 0.798536
Si Si3 0.164237 0.810533 0.893209
Si Si4 0.660538 0.522010 0.800182
Si Si5 0.830457 0.482104 0.087132
Si Si6 0.169979 0.309906 0.505318
O O1 0.791831 0.431769 0.046411
O O2 0.739599 0.361188 0.963080
O O3 0.000000 0.399122 0.980229
O O4 0.791485 0.462479 0.943859
O O5 0.500000 0.825276 0.804397
O O6 0.750000 0.824453 0.750000
O O7 0.751796 0.850342 0.853300
O O8 0.637366 0.915719 0.784324
O O9 0.161780 0.750000 0.868087
O O10 0.248782 0.809762 0.948772
O O11 0.000000 0.832414 0.902168
O O12 0.500000 0.494414 0.804321
O O13 0.750000 0.494388 0.750000
O O14 0.739787 0.517800 0.857858
O O15 0.000000 0.479854 0.102243
O O16 0.194635 0.250000 0.533238
O O17 0.000000 0.320529 0.496689
#
# Coordination Sequence:
#
# PCOD8299432 Si02
#       6
#    16  16  16  16  16  16
#     4   9  18  32  50  71  96 127 158 190 233 282
#     4  10  20  32  45  61  81 108 144 185 228 271
#     4  10  20  32  45  60  79 108 146 186 229 274
#     4  10  20  32  47  67  90 119 153 188 228 274
#     4   9  18  32  49  71  98 125 155 193 235 279
#     4  10  20  32  46  66  92 120 151 189 229 269
#
# _framework density 17.258717000000001
#
# number of rings (size 3 to 8) (size 9 to 14) (size 15 to 20)
#    0.000    2.333    0.000    4.000    0.000    8.333 
#    0.000    1.667    0.000    0.000    0.000    0.000 
#    0.000    0.667    0.000    2.167    0.000    3.167 
#
# Total GULP energy -594816.710733 kJ/mol
# GULP energy per Si atom -12392.014807 kJ/mol
# Density = 1.721944 g / cm^3
# Si number density = 17.258717 Si / 1000 Ang^3
#
#
#
# Elastic Constant Matrix: (Units=GPa)
#
#
# Indices 1 2 3 4 5 6 
#
# 1 112.2198 42.6551 33.7255 0.0000 0.0000 0.0000
# 2 42.6551 66.9050 3.7447 0.0000 0.0000 0.0000
# 3 33.7255 3.7447 59.1491 0.0000 0.0000 0.0000
# 4 0.0000 0.0000 0.0000 34.2115 0.0000 0.0000
# 5 0.0000 0.0000 0.0000 0.0000 26.2227 0.0000
# 6 0.0000 0.0000 0.0000 0.0000 0.0000 23.8659
#
#
#
# Elastic Compliance Matrix: (Units=1/GPa)
#
#
# Indices 1 2 3 4 5 6 
#
# 1 0.014628 -0.008891 -0.007778 0.000000 0.000000 0.000000
# 2 -0.008891 0.020403 0.003778 0.000000 0.000000 0.000000
# 3 -0.007778 0.003778 0.021102 0.000000 0.000000 0.000000
# 4 0.000000 0.000000 0.000000 0.029230 0.000000 0.000000
# 5 0.000000 0.000000 0.000000 0.000000 0.038135 0.000000
# 6 0.000000 0.000000 0.000000 0.000000 0.000000 0.041901
#
#
# Mechanical properties :
#
#
# Convention : Reuss Voigt Hill
#
# Bulk Modulus (GPa) = 32.94717 44.28050 38.61383
# Shear Modulus (GPa) = 24.83889 27.40327 26.12108
#
# Velocity S-wave (km/s) = 3.79781 3.98904 3.89459
# Velocity P-wave (km/s) = 6.19376 6.85048 6.53038
#
# Compressibility (1/GPa) = 0.03035162
#
# Stress axis : x y z
#
# Youngs Moduli (GPa) = 68.36278 49.01162 47.38914
#
# Poissons Ratio (x) = 0.43574 0.36857
# Poissons Ratio (y) = 0.60779 -0.17901
# Poissons Ratio (z) = 0.53170 -0.18514
#
# Static dielectric constant tensor:
#      x y z
#    x 3.605700 0.000000 0.000000 
#    y 0.000000 3.608430 0.000000 
#    z 0.000000 0.000000 2.953710 
# 
# 
# High freq. dielectric constant tensor:
#      x y z
#    x 1.683640 0.000000 0.000000 
#    y 0.000000 1.645210 0.000000 
#    z 0.000000 0.000000 1.631080 
# 
# From -- ./inp_files/55031.got.cif
#   From: 2010.03.12/outbox.cif.g09.slc.cpg/sg74_28_cif.got.tgz:55031.got - 2010.04.16 15:46:19.
