data_PCOD8299971
_publ_section_title
;
Structure prediction by ZEFSAII (Michael W. Deem and Ramdas Pophale) SiO2 
 PCOD8299971
Probable space group: I M M A
;
_chemical_formula_sum "Si O2"
_cell_formula_units_Z 120
_cell_length_a 8.909181
_cell_length_b 26.633324
_cell_length_c 27.507189
_cell_angle_alpha 90.000000
_cell_angle_beta 90.000000
_cell_angle_gamma 90.000000
_cell_volume 6526.936178
_symmetry_space_group_name_H-M "I M M A"
_symmetry_group_IT_number 74
_symmetry_cell_setting 'orthorhombic'
loop_
_space_group_symop_operation_xyz
x,y,z
-x,1/2-y,z
x,-y,-z
-x,1/2+y,-z
-x,-y,-z
x,1/2+y,-z
-x,y,z
x,1/2-y,z
1/2+x,1/2+y,1/2+z
1/2-x,-y,1/2+z
1/2+x,1/2-y,1/2-z
1/2-x,y,1/2-z
1/2-x,1/2-y,1/2-z
1/2+x,y,1/2-z
1/2-x,1/2+y,1/2+z
1/2+x,-y,1/2+z
loop_
_atom_site_type_symbol
_atom_site_label
_atom_site_fract_x
_atom_site_fract_y
_atom_site_fract_z
Si Si1 0.172510 0.848564 0.535641
Si Si2 0.675651 0.954638 0.199853
Si Si3 0.827990 0.447214 0.521775
Si Si4 0.828322 0.193920 0.944904
Si Si5 0.825837 0.597398 0.111720
Si Si6 0.823185 0.569677 0.699246
Si Si7 0.677191 0.846759 0.636965
Si Si8 0.323361 0.750000 0.697696
O O1 0.195131 0.906302 0.520316
O O2 0.223334 0.813004 0.491611
O O3 0.274107 0.836602 0.581921
O O4 0.000000 0.836895 0.548135
O O5 0.500000 0.948436 0.205728
O O6 0.750000 0.937882 0.250000
O O7 0.732156 0.917039 0.158797
O O8 0.718643 0.012117 0.186998
O O9 0.779486 0.500000 0.500000
O O10 0.719848 0.437851 0.567001
O O11 0.000000 0.447418 0.540323
O O12 0.804957 0.250000 0.924271
O O13 0.786216 0.155027 0.902073
O O14 0.000000 0.184548 0.961328
O O15 0.000000 0.589575 0.123104
O O16 0.750000 0.586666 0.750000
O O17 0.758446 0.603342 0.656084
O O18 0.000000 0.577836 0.703324
O O19 0.500000 0.854769 0.639319
O O20 0.729540 0.799245 0.668694
O O21 0.500000 0.750000 0.704488
O O22 0.250000 0.750000 0.750000
#
# Coordination Sequence:
#
# PCOD8299971 Si02
#       8
#    16  16  16  16  16  16  16   8
#     4  10  21  35  52  80 110 140 182 226 270 320
#     4  10  21  37  58  83 115 149 182 222 270 322
#     4   9  19  35  53  74 108 148 181 218 267 321
#     4   9  19  37  59  80 109 147 182 223 273 328
#     4  10  20  34  55  84 112 142 184 226 271 327
#     4  10  21  37  56  79 106 139 179 222 270 324
#     4  11  23  38  56  78 106 140 178 226 281 332
#     4  10  24  42  58  76 100 136 178 226 283 332
#
# _framework density 18.385349000000001
#
# number of rings (size 3 to 8) (size 9 to 14) (size 15 to 20)
#    0.000    2.133    0.000    2.400    2.800    5.333 
#    0.000    0.000    0.000    0.400    0.000    0.000 
#    0.000    0.000    0.000    0.000    0.000    0.000 
#
# Total GULP energy -744258.201581 kJ/mol
# GULP energy per Si atom -12404.303360 kJ/mol
# Density = 1.834350 g / cm^3
# Si number density = 18.385349 Si / 1000 Ang^3
#
#
#
# Elastic Constant Matrix: (Units=GPa)
#
#
# Indices 1 2 3 4 5 6 
#
# 1 67.6807 37.9379 42.9189 0.0000 0.0000 0.0000
# 2 37.9379 115.0200 58.4942 0.0000 0.0000 0.0000
# 3 42.9189 58.4942 108.7944 0.0000 0.0000 0.0000
# 4 0.0000 0.0000 0.0000 20.3611 0.0000 0.0000
# 5 0.0000 0.0000 0.0000 0.0000 38.5238 0.0000
# 6 0.0000 0.0000 0.0000 0.0000 0.0000 24.3003
#
#
#
# Elastic Compliance Matrix: (Units=1/GPa)
#
#
# Indices 1 2 3 4 5 6 
#
# 1 0.020787 -0.003697 -0.006213 0.000000 0.000000 0.000000
# 2 -0.003697 0.012623 -0.005329 0.000000 0.000000 0.000000
# 3 -0.006213 -0.005329 0.014508 0.000000 0.000000 0.000000
# 4 0.000000 0.000000 0.000000 0.049113 0.000000 0.000000
# 5 0.000000 0.000000 0.000000 0.000000 0.025958 0.000000
# 6 0.000000 0.000000 0.000000 0.000000 0.000000 0.041152
#
#
# Mechanical properties :
#
#
# Convention : Reuss Voigt Hill
#
# Bulk Modulus (GPa) = 57.33438 63.35523 60.34480
# Shear Modulus (GPa) = 24.94610 26.77998 25.86304
#
# Velocity S-wave (km/s) = 3.68754 3.82067 3.75470
# Velocity P-wave (km/s) = 7.02731 7.34832 7.18961
#
# Compressibility (1/GPa) = 0.01744154
#
# Stress axis : x y z
#
# Youngs Moduli (GPa) = 48.10627 79.21764 68.92922
#
# Poissons Ratio (x) = 0.29285 0.42825
# Poissons Ratio (y) = 0.17784 0.36730
# Poissons Ratio (z) = 0.29888 0.42213
#
# Static dielectric constant tensor:
#      x y z
#    x 3.445650 0.000000 0.000000 
#    y 0.000000 3.478130 0.000000 
#    z 0.000000 0.000000 3.299660 
# 
# 
# High freq. dielectric constant tensor:
#      x y z
#    x 1.722700 0.000000 0.000000 
#    y 0.000000 1.712410 0.000000 
#    z 0.000000 0.000000 1.704530 
# 
# From -- ./inp_files/65072.got.cif
#   From: 2010.03.12/outbox.cif.g09.slc.cpg/sg74_33_cif.got.tgz:65072.got - 2010.04.16 15:46:19.
