data_PCOD8299989
_publ_section_title
;
Structure prediction by ZEFSAII (Michael W. Deem and Ramdas Pophale) SiO2 
 PCOD8299989
Probable space group: I M M A
;
_chemical_formula_sum "Si O2"
_cell_formula_units_Z 104
_cell_length_a 26.580301
_cell_length_b 17.309409
_cell_length_c 13.079049
_cell_angle_alpha 90.000000
_cell_angle_beta 90.000000
_cell_angle_gamma 90.000000
_cell_volume 6017.530517
_symmetry_space_group_name_H-M "I M M A"
_symmetry_group_IT_number 74
_symmetry_cell_setting 'orthorhombic'
loop_
_space_group_symop_operation_xyz
x,y,z
-x,1/2-y,z
x,-y,-z
-x,1/2+y,-z
-x,-y,-z
x,1/2+y,-z
-x,y,z
x,1/2-y,z
1/2+x,1/2+y,1/2+z
1/2-x,-y,1/2+z
1/2+x,1/2-y,1/2-z
1/2-x,y,1/2-z
1/2-x,1/2-y,1/2-z
1/2+x,y,1/2-z
1/2-x,1/2+y,1/2+z
1/2+x,-y,1/2+z
loop_
_atom_site_type_symbol
_atom_site_label
_atom_site_fract_x
_atom_site_fract_y
_atom_site_fract_z
Si Si1 0.796732 0.453710 0.595009
Si Si2 0.750000 0.565262 0.750000
Si Si3 0.055467 0.658896 0.891653
Si Si4 0.852680 0.080566 0.792510
Si Si5 0.788450 0.659495 0.052237
Si Si6 0.342587 0.090245 0.359610
Si Si7 0.556719 0.662002 0.373836
O O1 0.821190 0.500000 0.500000
O O2 0.757594 0.510378 0.651767
O O3 0.840842 0.429022 0.672365
O O4 0.766432 0.379873 0.551541
O O5 0.700269 0.616308 0.724124
O O6 0.058844 0.750000 0.881063
O O7 0.102005 0.622095 0.828856
O O8 0.000000 0.631196 0.851542
O O9 0.060958 0.633484 0.009437
O O10 0.815111 0.145030 0.838742
O O11 0.909928 0.108396 0.801068
O O12 0.845422 0.002228 0.856811
O O13 0.781323 0.750000 0.031683
O O14 0.826064 0.623038 0.968785
O O15 0.500000 0.654411 0.334001
O O16 0.575620 0.750000 0.366442
#
# Coordination Sequence:
#
# PCOD8299989 Si02
#       7
#    16   8  16  16  16  16  16
#     4  11  20  37  53  71 102 137 173 217 261 302
#     4  10  20  34  56  72 102 144 180 208 260 314
#     4   9  18  32  50  74 106 141 170 207 260 310
#     4  11  21  32  53  76 101 138 177 211 256 313
#     4  12  21  31  50  77 106 136 172 212 257 312
#     4  11  20  33  51  76 106 143 175 213 253 307
#     4   9  18  32  50  78 111 135 164 212 268 318
#
# _framework density 17.282837000000001
#
# number of rings (size 3 to 8) (size 9 to 14) (size 15 to 20)
#    0.000    1.538    6.154    2.308    0.000    2.462 
#    0.000    3.077    0.000    0.462    0.000    0.000 
#    0.000    9.846    0.000    0.000    0.000    0.000 
#
# Total GULP energy -644543.305342 kJ/mol
# GULP energy per Si atom -12395.063564 kJ/mol
# Density = 1.724350 g / cm^3
# Si number density = 17.282837 Si / 1000 Ang^3
#
#
#
# Elastic Constant Matrix: (Units=GPa)
#
#
# Indices 1 2 3 4 5 6 
#
# 1 139.5987 43.5933 35.8370 0.0000 0.0000 0.0000
# 2 43.5933 66.9055 37.1463 0.0000 0.0000 0.0000
# 3 35.8370 37.1463 60.4286 0.0000 0.0000 0.0000
# 4 0.0000 0.0000 0.0000 14.2696 0.0000 0.0000
# 5 0.0000 0.0000 0.0000 0.0000 28.1984 0.0000
# 6 0.0000 0.0000 0.0000 0.0000 0.0000 30.6467
#
#
#
# Elastic Compliance Matrix: (Units=1/GPa)
#
#
# Indices 1 2 3 4 5 6 
#
# 1 0.009277 -0.004539 -0.002711 0.000000 0.000000 0.000000
# 2 -0.004539 0.024912 -0.012622 0.000000 0.000000 0.000000
# 3 -0.002711 -0.012622 0.025915 0.000000 0.000000 0.000000
# 4 0.000000 0.000000 0.000000 0.070079 0.000000 0.000000
# 5 0.000000 0.000000 0.000000 0.000000 0.035463 0.000000
# 6 0.000000 0.000000 0.000000 0.000000 0.000000 0.032630
#
#
# Mechanical properties :
#
#
# Convention : Reuss Voigt Hill
#
# Bulk Modulus (GPa) = 49.11738 55.56513 52.34126
# Shear Modulus (GPa) = 20.42433 24.64668 22.53551
#
# Velocity S-wave (km/s) = 3.44142 3.78044 3.61491
# Velocity P-wave (km/s) = 6.65376 7.16072 6.91189
#
# Compressibility (1/GPa) = 0.02035939
#
# Stress axis : x y z
#
# Youngs Moduli (GPa) = 107.79455 40.14201 38.58761
#
# Poissons Ratio (x) = 0.18221 0.10462
# Poissons Ratio (y) = 0.48930 0.48704
# Poissons Ratio (z) = 0.29227 0.50665
#
# Static dielectric constant tensor:
#      x y z
#    x 3.402180 0.000000 0.000000 
#    y 0.000000 3.133000 0.000000 
#    z 0.000000 0.000000 2.980620 
# 
# 
# High freq. dielectric constant tensor:
#      x y z
#    x 1.669570 0.000000 0.000000 
#    y 0.000000 1.658520 0.000000 
#    z 0.000000 0.000000 1.624960 
# 
# From -- ./inp_files/26352.got.cif
#   From: 2010.03.12/outbox.cif.g09.slc.cpg/sg74_14_cif.got.tgz:26352.got - 2010.04.16 15:46:19.
