data_PCOD8299283
_publ_section_title
;
Structure prediction by ZEFSAII (Michael W. Deem and Ramdas Pophale) SiO2 
 PCOD8299283
Probable space group: I M M A
;
_chemical_formula_sum "Si O2"
_cell_formula_units_Z 88
_cell_length_a 23.636546
_cell_length_b 14.821673
_cell_length_c 11.625182
_cell_angle_alpha 90.000000
_cell_angle_beta 90.000000
_cell_angle_gamma 90.000000
_cell_volume 4072.686695
_symmetry_space_group_name_H-M "I M M A"
_symmetry_group_IT_number 74
_symmetry_cell_setting 'orthorhombic'
loop_
_space_group_symop_operation_xyz
x,y,z
-x,1/2-y,z
x,-y,-z
-x,1/2+y,-z
-x,-y,-z
x,1/2+y,-z
-x,y,z
x,1/2-y,z
1/2+x,1/2+y,1/2+z
1/2-x,-y,1/2+z
1/2+x,1/2-y,1/2-z
1/2-x,y,1/2-z
1/2-x,1/2-y,1/2-z
1/2+x,y,1/2-z
1/2-x,1/2+y,1/2+z
1/2+x,-y,1/2+z
loop_
_atom_site_type_symbol
_atom_site_label
_atom_site_fract_x
_atom_site_fract_y
_atom_site_fract_z
Si Si1 0.264320 0.649590 0.527126
Si Si2 0.333597 0.430721 0.899482
Si Si3 0.118558 0.147947 0.940524
Si Si4 0.935203 0.650449 0.814811
Si Si5 0.250000 0.969730 0.750000
Si Si6 0.434747 0.043993 0.759892
O O1 0.273724 0.750000 0.573040
O O2 0.205713 0.646737 0.454671
O O3 0.314610 0.621925 0.438809
O O4 0.266680 0.587578 0.638644
O O5 0.303679 0.470767 0.785872
O O6 0.395785 0.402271 0.853012
O O7 0.344036 0.500000 0.000000
O O8 0.109169 0.250000 0.894327
O O9 0.102111 0.139992 0.072907
O O10 0.080955 0.079309 0.866931
O O11 0.922863 0.750000 0.756751
O O12 0.922735 0.564830 0.731305
O O13 0.000000 0.645568 0.854463
O O14 0.500000 0.065763 0.787103
#
# Coordination Sequence:
#
# PCOD8299283 Si02
#       6
#    16  16  16  16   8  16
#     4  10  21  37  59  86 115 148 187 234 284 338
#     4  10  22  38  56  81 111 143 183 233 283 335
#     4  10  20  33  53  84 117 147 183 228 279 336
#     4   9  18  33  54  83 115 143 180 232 282 331
#     4  10  19  36  61  84 112 146 182 226 285 350
#     4  11  22  36  56  79 109 153 195 230 279 337
#
# _framework density 21.607357
#
# number of rings (size 3 to 8) (size 9 to 14) (size 15 to 20)
#    0.000    2.000    0.000    3.545    0.000    6.545 
#    0.000    5.909    0.000    0.000    0.000    3.818 
#    0.000    0.000    0.000    0.000    0.000    0.000 
#
# Total GULP energy -545226.574721 kJ/mol
# GULP energy per Si atom -12391.513062 kJ/mol
# Density = 2.155818 g / cm^3
# Si number density = 21.607357 Si / 1000 Ang^3
#
#
#
# Elastic Constant Matrix: (Units=GPa)
#
#
# Indices 1 2 3 4 5 6 
#
# 1 125.3867 18.2975 33.4419 0.0000 0.0000 0.0000
# 2 18.2975 63.3095 13.4559 0.0000 0.0000 0.0000
# 3 33.4419 13.4559 70.4205 0.0000 0.0000 0.0000
# 4 0.0000 0.0000 0.0000 8.1047 0.0000 0.0000
# 5 0.0000 0.0000 0.0000 0.0000 30.9199 0.0000
# 6 0.0000 0.0000 0.0000 0.0000 0.0000 37.9004
#
#
#
# Elastic Compliance Matrix: (Units=1/GPa)
#
#
# Indices 1 2 3 4 5 6 
#
# 1 0.009331 -0.001829 -0.004082 0.000000 0.000000 0.000000
# 2 -0.001829 0.016823 -0.002346 0.000000 0.000000 0.000000
# 3 -0.004082 -0.002346 0.016587 0.000000 0.000000 0.000000
# 4 0.000000 0.000000 0.000000 0.123385 0.000000 0.000000
# 5 0.000000 0.000000 0.000000 0.000000 0.032342 0.000000
# 6 0.000000 0.000000 0.000000 0.000000 0.000000 0.026385
#
#
# Mechanical properties :
#
#
# Convention : Reuss Voigt Hill
#
# Bulk Modulus (GPa) = 38.12829 43.27860 40.70345
# Shear Modulus (GPa) = 19.99138 28.31310 24.15224
#
# Velocity S-wave (km/s) = 3.04503 3.62380 3.34695
# Velocity P-wave (km/s) = 5.48153 6.13044 5.81504
#
# Compressibility (1/GPa) = 0.02622724
#
# Stress axis : x y z
#
# Youngs Moduli (GPa) = 107.17112 59.44355 60.28841
#
# Poissons Ratio (x) = 0.10874 0.24607
# Poissons Ratio (y) = 0.19605 0.14142
# Poissons Ratio (z) = 0.43743 0.13944
#
# Static dielectric constant tensor:
#      x y z
#    x 4.242090 0.000000 0.000000 
#    y 0.000000 4.049200 0.000000 
#    z 0.000000 0.000000 3.544610 
# 
# 
# High freq. dielectric constant tensor:
#      x y z
#    x 1.861940 0.000000 0.000000 
#    y 0.000000 1.840460 0.000000 
#    z 0.000000 0.000000 1.819390 
# 
# From -- ./inp_files/24986.got.cif
#   From: 2010.03.12/outbox.cif.g09.slc.cpg/sg74_13_cif.got.tgz:24986.got - 2010.04.16 15:46:19.
