data_PCOD8299074
_publ_section_title
;
Structure prediction by ZEFSAII (Michael W. Deem and Ramdas Pophale) SiO2 
 PCOD8299074
Probable space group: I M M A
;
_chemical_formula_sum "Si O2"
_cell_formula_units_Z 96
_cell_length_a 22.042376
_cell_length_b 24.896610
_cell_length_c 9.387145
_cell_angle_alpha 90.000000
_cell_angle_beta 90.000000
_cell_angle_gamma 90.000000
_cell_volume 5151.481552
_symmetry_space_group_name_H-M "I M M A"
_symmetry_group_IT_number 74
_symmetry_cell_setting 'orthorhombic'
loop_
_space_group_symop_operation_xyz
x,y,z
-x,1/2-y,z
x,-y,-z
-x,1/2+y,-z
-x,-y,-z
x,1/2+y,-z
-x,y,z
x,1/2-y,z
1/2+x,1/2+y,1/2+z
1/2-x,-y,1/2+z
1/2+x,1/2-y,1/2-z
1/2-x,y,1/2-z
1/2-x,1/2-y,1/2-z
1/2+x,y,1/2-z
1/2-x,1/2+y,1/2+z
1/2+x,-y,1/2+z
loop_
_atom_site_type_symbol
_atom_site_label
_atom_site_fract_x
_atom_site_fract_y
_atom_site_fract_z
Si Si1 0.321823 0.187310 0.257667
Si Si2 0.141655 0.386849 0.475537
Si Si3 0.570992 0.411505 0.755364
Si Si4 0.622335 0.397839 0.457511
Si Si5 0.431457 0.464006 0.219109
Si Si6 0.753725 0.447669 0.078414
O O1 0.332347 0.250000 0.276940
O O2 0.250000 0.172993 0.250000
O O3 0.359388 0.167671 0.118030
O O4 0.352370 0.157495 0.391408
O O5 0.108584 0.378607 0.625548
O O6 0.111373 0.438298 0.399294
O O7 0.212785 0.400020 0.485892
O O8 0.500000 0.402196 0.781735
O O9 0.590973 0.384968 0.607092
O O10 0.588219 0.474492 0.754412
O O11 0.572577 0.428666 0.362128
O O12 0.678107 0.438524 0.473048
O O13 0.500000 0.461908 0.161730
O O14 0.750000 0.451371 0.250000
O O15 0.729008 0.500000 0.000000
#
# Coordination Sequence:
#
# PCOD8299074 Si02
#       6
#    16  16  16  16  16  16
#     4  10  20  42  65  82 106 141 192 246 294 345
#     4  11  21  36  55  85 116 149 193 236 278 338
#     4  11  23  36  55  84 120 160 190 226 276 335
#     4  11  21  36  55  85 116 149 193 236 278 338
#     4  10  19  34  55  79 115 164 200 221 259 330
#     4  12  22  34  52  86 123 156 182 227 285 341
#
# _framework density 18.635414999999998
#
# number of rings (size 3 to 8) (size 9 to 14) (size 15 to 20)
#    0.000    1.167    5.000    4.000    2.333    2.667 
#    0.000    0.833    0.000   21.000    0.000    0.000 
#    0.000    0.000    0.000    0.000    0.000    0.000 
#
# Total GULP energy -595124.737529 kJ/mol
# GULP energy per Si atom -12398.432032 kJ/mol
# Density = 1.859300 g / cm^3
# Si number density = 18.635415 Si / 1000 Ang^3
#
#
#
# Elastic Constant Matrix: (Units=GPa)
#
#
# Indices 1 2 3 4 5 6 
#
# 1 68.9884 23.2312 27.8528 0.0000 0.0000 0.0000
# 2 23.2312 92.8524 30.9286 0.0000 0.0000 0.0000
# 3 27.8528 30.9286 120.8358 0.0000 0.0000 0.0000
# 4 0.0000 0.0000 0.0000 15.0789 0.0000 0.0000
# 5 0.0000 0.0000 0.0000 0.0000 25.2871 0.0000
# 6 0.0000 0.0000 0.0000 0.0000 0.0000 22.4436
#
#
#
# Elastic Compliance Matrix: (Units=1/GPa)
#
#
# Indices 1 2 3 4 5 6 
#
# 1 0.016802 -0.003185 -0.003058 0.000000 0.000000 0.000000
# 2 -0.003185 0.012377 -0.002434 0.000000 0.000000 0.000000
# 3 -0.003058 -0.002434 0.009603 0.000000 0.000000 0.000000
# 4 0.000000 0.000000 0.000000 0.066318 0.000000 0.000000
# 5 0.000000 0.000000 0.000000 0.000000 0.039546 0.000000
# 6 0.000000 0.000000 0.000000 0.000000 0.000000 0.044556
#
#
# Mechanical properties :
#
#
# Convention : Reuss Voigt Hill
#
# Bulk Modulus (GPa) = 46.66467 49.63351 48.14909
# Shear Modulus (GPa) = 23.39729 25.93952 24.66840
#
# Velocity S-wave (km/s) = 3.54719 3.73493 3.64227
# Velocity P-wave (km/s) = 6.47085 6.72989 6.60164
#
# Compressibility (1/GPa) = 0.02142949
#
# Stress axis : x y z
#
# Youngs Moduli (GPa) = 59.51569 80.79215 104.12937
#
# Poissons Ratio (x) = 0.25735 0.31839
# Poissons Ratio (y) = 0.18958 0.25343
# Poissons Ratio (z) = 0.18198 0.19664
#
# Static dielectric constant tensor:
#      x y z
#    x 3.600180 0.000000 0.000000 
#    y 0.000000 3.094980 0.000000 
#    z 0.000000 0.000000 3.468140 
# 
# 
# High freq. dielectric constant tensor:
#      x y z
#    x 1.735370 0.000000 0.000000 
#    y 0.000000 1.687900 0.000000 
#    z 0.000000 0.000000 1.721770 
# 
# From -- ./inp_files/12687.got.cif
#   From: 2010.03.12/outbox.cif.g09.slc.cpg/sg74_7_cif.got.tgz:12687.got - 2010.04.16 15:46:19.
