data_PCOD8299034
_publ_section_title
;
Structure prediction by ZEFSAII (Michael W. Deem and Ramdas Pophale) SiO2 
 PCOD8299034
Probable space group: I M M A
;
_chemical_formula_sum "Si O2"
_cell_formula_units_Z 88
_cell_length_a 20.118701
_cell_length_b 24.208003
_cell_length_c 9.105685
_cell_angle_alpha 90.000000
_cell_angle_beta 90.000000
_cell_angle_gamma 90.000000
_cell_volume 4434.774311
_symmetry_space_group_name_H-M "I M M A"
_symmetry_group_IT_number 74
_symmetry_cell_setting 'orthorhombic'
loop_
_space_group_symop_operation_xyz
x,y,z
-x,1/2-y,z
x,-y,-z
-x,1/2+y,-z
-x,-y,-z
x,1/2+y,-z
-x,y,z
x,1/2-y,z
1/2+x,1/2+y,1/2+z
1/2-x,-y,1/2+z
1/2+x,1/2-y,1/2-z
1/2-x,y,1/2-z
1/2-x,1/2-y,1/2-z
1/2+x,y,1/2-z
1/2-x,1/2+y,1/2+z
1/2+x,-y,1/2+z
loop_
_atom_site_type_symbol
_atom_site_label
_atom_site_fract_x
_atom_site_fract_y
_atom_site_fract_z
Si Si1 0.924832 0.866671 0.365629
Si Si2 0.683856 0.312203 0.657311
Si Si3 0.828817 0.500000 0.000000
Si Si4 0.575972 0.105801 0.181746
Si Si5 0.073341 0.015532 0.747634
Si Si6 0.197925 0.886542 0.877150
O O1 0.876021 0.837484 0.252403
O O2 0.905611 0.857756 0.537280
O O3 0.921248 0.932697 0.358955
O O4 0.000000 0.845566 0.333784
O O5 0.663310 0.250000 0.614987
O O6 0.750000 0.312984 0.750000
O O7 0.702345 0.344960 0.511295
O O8 0.874183 0.526643 0.124641
O O9 0.785929 0.449214 0.066490
O O10 0.500000 0.118312 0.228091
O O11 0.623483 0.121831 0.316164
O O12 0.587003 0.040138 0.154979
O O13 0.000000 0.012535 0.819548
O O14 0.250000 0.871220 0.750000
#
# Coordination Sequence:
#
# PCOD8299034 Si02
#       6
#    16  16   8  16  16  16
#     4  10  19  36  61  89 120 153 192 244 289 340
#     4  11  25  44  64  83 110 155 207 253 295 349
#     4  10  19  34  52  88 121 152 184 234 294 354
#     4   9  19  35  58  90 125 158 191 227 285 360
#     4   9  16  29  54  86 121 157 188 223 279 350
#     4  11  23  40  59  88 119 156 198 246 301 357
#
# _framework density 19.843174000000001
#
# number of rings (size 3 to 8) (size 9 to 14) (size 15 to 20)
#    0.000    2.000    1.818    1.909    0.000    5.091 
#    6.545    0.909    0.000    1.091    0.000    0.000 
#    0.000    0.000    0.000    0.000    0.000    0.000 
#
# Total GULP energy -545331.193880 kJ/mol
# GULP energy per Si atom -12393.890770 kJ/mol
# Density = 1.979801 g / cm^3
# Si number density = 19.843174 Si / 1000 Ang^3
#
#
#
# Elastic Constant Matrix: (Units=GPa)
#
#
# Indices 1 2 3 4 5 6 
#
# 1 76.1881 35.2022 38.5369 0.0000 0.0000 0.0000
# 2 35.2022 90.0148 49.4669 0.0000 0.0000 0.0000
# 3 38.5369 49.4669 104.7881 0.0000 0.0000 0.0000
# 4 0.0000 0.0000 0.0000 20.9427 0.0000 0.0000
# 5 0.0000 0.0000 0.0000 0.0000 31.0315 0.0000
# 6 0.0000 0.0000 0.0000 0.0000 0.0000 16.8601
#
#
#
# Elastic Compliance Matrix: (Units=1/GPa)
#
#
# Indices 1 2 3 4 5 6 
#
# 1 0.017338 -0.004424 -0.004288 0.000000 0.000000 0.000000
# 2 -0.004424 0.016130 -0.005987 0.000000 0.000000 0.000000
# 3 -0.004288 -0.005987 0.013946 0.000000 0.000000 0.000000
# 4 0.000000 0.000000 0.000000 0.047749 0.000000 0.000000
# 5 0.000000 0.000000 0.000000 0.000000 0.032225 0.000000
# 6 0.000000 0.000000 0.000000 0.000000 0.000000 0.059312
#
#
# Mechanical properties :
#
#
# Convention : Reuss Voigt Hill
#
# Bulk Modulus (GPa) = 55.50662 57.48921 56.49792
# Shear Modulus (GPa) = 22.51190 23.61920 23.06555
#
# Velocity S-wave (km/s) = 3.37187 3.45381 3.41309
# Velocity P-wave (km/s) = 6.57212 6.70371 6.63824
#
# Compressibility (1/GPa) = 0.01801587
#
# Stress axis : x y z
#
# Youngs Moduli (GPa) = 57.67534 61.99748 71.70338
#
# Poissons Ratio (x) = 0.27429 0.30745
# Poissons Ratio (y) = 0.25517 0.42930
# Poissons Ratio (z) = 0.24730 0.37119
#
# Static dielectric constant tensor:
#      x y z
#    x 3.654350 0.000000 0.000000 
#    y 0.000000 3.475620 0.000000 
#    z 0.000000 0.000000 3.632320 
# 
# 
# High freq. dielectric constant tensor:
#      x y z
#    x 1.774500 0.000000 0.000000 
#    y 0.000000 1.745800 0.000000 
#    z 0.000000 0.000000 1.780290 
# 
# From -- ./inp_files/12472.got.cif
#   From: 2010.03.12/outbox.cif.g09.slc.cpg/sg74_7_cif.got.tgz:12472.got - 2010.04.16 15:46:19.
