data_PCOD8299326
_publ_section_title
;
Structure prediction by ZEFSAII (Michael W. Deem and Ramdas Pophale) SiO2 
 PCOD8299326
Probable space group: I M M A
;
_chemical_formula_sum "Si O2"
_cell_formula_units_Z 64
_cell_length_a 23.808633
_cell_length_b 17.160877
_cell_length_c 7.664951
_cell_angle_alpha 90.000000
_cell_angle_beta 90.000000
_cell_angle_gamma 90.000000
_cell_volume 3131.722857
_symmetry_space_group_name_H-M "I M M A"
_symmetry_group_IT_number 74
_symmetry_cell_setting 'orthorhombic'
loop_
_space_group_symop_operation_xyz
x,y,z
-x,1/2-y,z
x,-y,-z
-x,1/2+y,-z
-x,-y,-z
x,1/2+y,-z
-x,y,z
x,1/2-y,z
1/2+x,1/2+y,1/2+z
1/2-x,-y,1/2+z
1/2+x,1/2-y,1/2-z
1/2-x,y,1/2-z
1/2-x,1/2-y,1/2-z
1/2+x,y,1/2-z
1/2-x,1/2+y,1/2+z
1/2+x,-y,1/2+z
loop_
_atom_site_type_symbol
_atom_site_label
_atom_site_fract_x
_atom_site_fract_y
_atom_site_fract_z
Si Si1 0.132360 0.088844 0.044347
Si Si2 0.253863 0.339817 0.546883
Si Si3 0.368504 0.158152 0.092084
Si Si4 0.562507 0.341651 0.761713
O O1 0.111888 0.109967 0.238778
O O2 0.198452 0.106542 0.035869
O O3 0.097998 0.140890 0.909733
O O4 0.119682 0.000000 0.000000
O O5 0.270479 0.250000 0.516289
O O6 0.250000 0.358778 0.750000
O O7 0.196039 0.360390 0.452113
O O8 0.377025 0.250000 0.124877
O O9 0.406279 0.126091 0.933380
O O10 0.500000 0.378263 0.749127
O O11 0.558560 0.250000 0.779632
#
# Coordination Sequence:
#
# PCOD8299326 Si02
#       4
#    16  16  16  16
#     4  12  25  38  58  94 131 166 194 244 312 385
#     4  10  19  37  64  89 119 159 205 257 307 357
#     4  10  21  40  66  90 117 159 212 260 307 358
#     4  10  22  43  68  90 116 158 215 266 302 349
#
# _framework density 20.436033999999999
#
# number of rings (size 3 to 8) (size 9 to 14) (size 15 to 20)
#    0.000    1.500    2.500    3.000    0.000    6.500 
#    0.000    3.750    0.000    0.000    0.000    0.000 
#    0.000    0.000    0.000    0.000    0.000    0.000 
#
# Total GULP energy -396924.851513 kJ/mol
# GULP energy per Si atom -12403.901610 kJ/mol
# Density = 2.038952 g / cm^3
# Si number density = 20.436034 Si / 1000 Ang^3
#
#
#
# Elastic Constant Matrix: (Units=GPa)
#
#
# Indices 1 2 3 4 5 6 
#
# 1 114.3570 15.6398 54.3310 0.0000 0.0000 0.0000
# 2 15.6398 31.6785 27.0088 0.0000 0.0000 0.0000
# 3 54.3310 27.0088 172.3408 0.0000 0.0000 0.0000
# 4 0.0000 0.0000 0.0000 14.5874 0.0000 0.0000
# 5 0.0000 0.0000 0.0000 0.0000 4.6401 0.0000
# 6 0.0000 0.0000 0.0000 0.0000 0.0000 2.1486
#
#
#
# Elastic Compliance Matrix: (Units=1/GPa)
#
#
# Indices 1 2 3 4 5 6 
#
# 1 0.010484 -0.002722 -0.002879 0.000000 0.000000 0.000000
# 2 -0.002722 0.037142 -0.004963 0.000000 0.000000 0.000000
# 3 -0.002879 -0.004963 0.007488 0.000000 0.000000 0.000000
# 4 0.000000 0.000000 0.000000 0.068553 0.000000 0.000000
# 5 0.000000 0.000000 0.000000 0.000000 0.215511 0.000000
# 6 0.000000 0.000000 0.000000 0.000000 0.000000 0.465424
#
#
# Mechanical properties :
#
#
# Convention : Reuss Voigt Hill
#
# Bulk Modulus (GPa) = 29.42237 56.92618 43.17427
# Shear Modulus (GPa) = 5.97331 19.03499 12.50415
#
# Velocity S-wave (km/s) = 1.71151 3.05526 2.47628
# Velocity P-wave (km/s) = 4.28185 6.35314 5.41741
#
# Compressibility (1/GPa) = 0.03398775
#
# Stress axis : x y z
#
# Youngs Moduli (GPa) = 95.37916 26.92355 133.55189
#
# Poissons Ratio (x) = 0.07328 0.38446
# Poissons Ratio (y) = 0.25961 0.66279
# Poissons Ratio (z) = 0.27457 0.13361
#
# Static dielectric constant tensor:
#      x y z
#    x 3.907020 0.000000 0.000000 
#    y 0.000000 3.383960 0.000000 
#    z 0.000000 0.000000 3.858650 
# 
# 
# High freq. dielectric constant tensor:
#      x y z
#    x 1.798360 0.000000 0.000000 
#    y 0.000000 1.769940 0.000000 
#    z 0.000000 0.000000 1.816970 
# 
# From -- ./inp_files/8768.got.cif
#   From: 2010.03.12/outbox.cif.g09.slc.cpg/sg74_5_cif.got.tgz:8768.got - 2010.04.16 15:46:19.
