data_PCOD8299889
_publ_section_title
;
Structure prediction by ZEFSAII (Michael W. Deem and Ramdas Pophale) SiO2 
 PCOD8299889
Probable space group: I M M A
;
_chemical_formula_sum "Si O2"
_cell_formula_units_Z 88
_cell_length_a 9.056713
_cell_length_b 20.395473
_cell_length_c 23.319274
_cell_angle_alpha 90.000000
_cell_angle_beta 90.000000
_cell_angle_gamma 90.000000
_cell_volume 4307.441744
_symmetry_space_group_name_H-M "I M M A"
_symmetry_group_IT_number 74
_symmetry_cell_setting 'orthorhombic'
loop_
_space_group_symop_operation_xyz
x,y,z
-x,1/2-y,z
x,-y,-z
-x,1/2+y,-z
-x,-y,-z
x,1/2+y,-z
-x,y,z
x,1/2-y,z
1/2+x,1/2+y,1/2+z
1/2-x,-y,1/2+z
1/2+x,1/2-y,1/2-z
1/2-x,y,1/2-z
1/2-x,1/2-y,1/2-z
1/2+x,y,1/2-z
1/2-x,1/2+y,1/2+z
1/2+x,-y,1/2+z
loop_
_atom_site_type_symbol
_atom_site_label
_atom_site_fract_x
_atom_site_fract_y
_atom_site_fract_z
Si Si1 0.840204 0.676875 0.800145
Si Si2 0.673433 0.002900 0.187879
Si Si3 0.829828 0.250000 0.691120
Si Si4 0.824504 0.327024 0.994401
Si Si5 0.825824 0.876458 0.605507
Si Si6 0.826663 0.874057 0.381953
O O1 0.870832 0.750000 0.778366
O O2 0.750000 0.638209 0.750000
O O3 0.742279 0.682588 0.857396
O O4 0.000000 0.642182 0.809880
O O5 0.500000 0.004788 0.199402
O O6 0.750000 0.006804 0.250000
O O7 0.720557 0.937437 0.154168
O O8 0.720738 0.060205 0.143462
O O9 0.750000 0.250000 0.750000
O O10 0.781578 0.186878 0.656414
O O11 0.000000 0.250000 0.705091
O O12 0.773299 0.250000 0.995234
O O13 0.751769 0.370874 0.044342
O O14 0.000000 0.330830 0.999305
O O15 0.769890 0.365902 0.938793
O O16 0.000000 0.870569 0.596993
O O17 0.000000 0.875253 0.398320
#
# Coordination Sequence:
#
# PCOD8299889 Si02
#       6
#    16  16   8  16  16  16
#     4  10  20  34  53  79 111 147 194 252 306 357
#     4  10  23  41  62  90 124 160 201 249 299 358
#     4  10  20  34  60  92 120 154 195 242 299 356
#     4  11  24  41  62  90 122 157 202 256 307 358
#     4  11  23  38  58  84 117 161 203 244 299 357
#     4  10  21  40  63  89 121 159 201 245 300 362
#
# _framework density 20.429760000000002
#
# number of rings (size 3 to 8) (size 9 to 14) (size 15 to 20)
#    0.000    1.636    0.909    3.273    0.000    9.455 
#    0.000    3.636    0.000    0.000    0.000    0.000 
#    0.000    0.000    0.000    0.000    0.000    0.000 
#
# Total GULP energy -545303.439170 kJ/mol
# GULP energy per Si atom -12393.259981 kJ/mol
# Density = 2.038326 g / cm^3
# Si number density = 20.429760 Si / 1000 Ang^3
#
#
#
# Elastic Constant Matrix: (Units=GPa)
#
#
# Indices 1 2 3 4 5 6 
#
# 1 98.8930 46.7118 82.9487 0.0000 0.0000 0.0000
# 2 46.7118 107.0832 64.6073 0.0000 0.0000 0.0000
# 3 82.9487 64.6073 188.8765 0.0000 0.0000 0.0000
# 4 0.0000 0.0000 0.0000 23.0652 0.0000 0.0000
# 5 0.0000 0.0000 0.0000 0.0000 46.7294 0.0000
# 6 0.0000 0.0000 0.0000 0.0000 0.0000 15.1686
#
#
#
# Elastic Compliance Matrix: (Units=1/GPa)
#
#
# Indices 1 2 3 4 5 6 
#
# 1 0.017092 -0.003688 -0.006245 0.000000 0.000000 0.000000
# 2 -0.003688 0.012563 -0.002678 0.000000 0.000000 0.000000
# 3 -0.006245 -0.002678 0.008953 0.000000 0.000000 0.000000
# 4 0.000000 0.000000 0.000000 0.043355 0.000000 0.000000
# 5 0.000000 0.000000 0.000000 0.000000 0.021400 0.000000
# 6 0.000000 0.000000 0.000000 0.000000 0.000000 0.065926
#
#
# Mechanical properties :
#
#
# Convention : Reuss Voigt Hill
#
# Bulk Modulus (GPa) = 74.70040 87.04314 80.87177
# Shear Modulus (GPa) = 25.12928 30.36499 27.74713
#
# Velocity S-wave (km/s) = 3.51099 3.85945 3.68934
# Velocity P-wave (km/s) = 7.28560 7.90943 7.60391
#
# Compressibility (1/GPa) = 0.01338681
#
# Stress axis : x y z
#
# Youngs Moduli (GPa) = 58.50740 79.59978 111.69710
#
# Poissons Ratio (x) = 0.29358 0.69751
# Poissons Ratio (y) = 0.21579 0.29907
# Poissons Ratio (z) = 0.36536 0.21313
#
# Static dielectric constant tensor:
#      x y z
#    x 3.849220 0.000000 0.000000 
#    y 0.000000 3.811360 0.000000 
#    z 0.000000 0.000000 3.777040 
# 
# 
# High freq. dielectric constant tensor:
#      x y z
#    x 1.803200 0.000000 0.000000 
#    y 0.000000 1.796420 0.000000 
#    z 0.000000 0.000000 1.810030 
# 
# From -- ./inp_files/57013.got.cif
#   From: 2010.03.12/outbox.cif.g09.slc.cpg/sg74_29_cif.got.tgz:57013.got - 2010.04.16 15:46:19.
