data_PCOD8299096
_publ_section_title
;
Structure prediction by ZEFSAII (Michael W. Deem and Ramdas Pophale) SiO2 
 PCOD8299096
Probable space group: I M M A
;
_chemical_formula_sum "Si O2"
_cell_formula_units_Z 112
_cell_length_a 19.144792
_cell_length_b 27.694517
_cell_length_c 11.624918
_cell_angle_alpha 90.000000
_cell_angle_beta 90.000000
_cell_angle_gamma 90.000000
_cell_volume 6163.598570
_symmetry_space_group_name_H-M "I M M A"
_symmetry_group_IT_number 74
_symmetry_cell_setting 'orthorhombic'
loop_
_space_group_symop_operation_xyz
x,y,z
-x,1/2-y,z
x,-y,-z
-x,1/2+y,-z
-x,-y,-z
x,1/2+y,-z
-x,y,z
x,1/2-y,z
1/2+x,1/2+y,1/2+z
1/2-x,-y,1/2+z
1/2+x,1/2-y,1/2-z
1/2-x,y,1/2-z
1/2-x,1/2-y,1/2-z
1/2+x,y,1/2-z
1/2-x,1/2+y,1/2+z
1/2+x,-y,1/2+z
loop_
_atom_site_type_symbol
_atom_site_label
_atom_site_fract_x
_atom_site_fract_y
_atom_site_fract_z
Si Si1 0.674293 0.915571 0.713590
Si Si2 0.080716 0.461921 0.590821
Si Si3 0.173636 0.305205 0.801501
Si Si4 0.190138 0.389245 0.976006
Si Si5 0.580111 0.693670 0.085578
Si Si6 0.351704 0.116866 0.044501
Si Si7 0.176872 0.472267 0.802300
O O1 0.750000 0.896737 0.750000
O O2 0.650010 0.886733 0.599376
O O3 0.628872 0.902341 0.826543
O O4 0.678025 0.970967 0.671187
O O5 0.114541 0.500000 0.500000
O O6 0.095055 0.409368 0.541711
O O7 0.114199 0.465129 0.715023
O O8 0.000000 0.472997 0.607624
O O9 0.162300 0.250000 0.843846
O O10 0.250000 0.311983 0.750000
O O11 0.166865 0.341497 0.908484
O O12 0.116533 0.320090 0.706680
O O13 0.165297 0.438348 0.912791
O O14 0.272745 0.392399 0.003412
O O15 0.500000 0.675969 0.089423
O O16 0.584997 0.750000 0.064347
O O17 0.624004 0.671843 0.977376
O O18 0.250000 0.454673 0.750000
#
# Coordination Sequence:
#
# PCOD8299096 Si02
#       7
#    16  16  16  16  16  16  16
#     4   9  21  32  49  77 110 142 182 223 265 316
#     4  11  22  34  52  79 109 141 181 227 280 325
#     4  10  19  34  56  81 110 137 171 224 277 325
#     4  11  20  32  54  82 107 141 185 222 271 326
#     4  10  21  36  58  85 109 140 181 228 283 335
#     4  11  19  35  53  78 113 144 180 230 276 324
#     4  11  19  33  56  77 107 145 184 231 268 322
#
# _framework density 18.171202999999998
#
# number of rings (size 3 to 8) (size 9 to 14) (size 15 to 20)
#    0.000    1.571    4.286    2.143    0.000    0.000 
#    0.000    0.714    0.000    8.571    0.000    2.000 
#    0.000    0.000    0.000    0.000    0.000    0.000 
#
# Total GULP energy -694046.991935 kJ/mol
# GULP energy per Si atom -12393.696285 kJ/mol
# Density = 1.812984 g / cm^3
# Si number density = 18.171203 Si / 1000 Ang^3
#
#
#
# Elastic Constant Matrix: (Units=GPa)
#
#
# Indices 1 2 3 4 5 6 
#
# 1 65.3896 13.3080 32.8275 0.0000 0.0000 0.0000
# 2 13.3080 69.5486 46.9898 0.0000 0.0000 0.0000
# 3 32.8275 46.9898 118.1303 -0.0001 0.0000 0.0000
# 4 0.0000 0.0000 -0.0001 26.9570 0.0000 0.0000
# 5 0.0000 0.0000 0.0000 0.0000 15.5280 0.0000
# 6 0.0000 0.0000 0.0000 0.0000 0.0000 22.3409
#
#
#
# Elastic Compliance Matrix: (Units=1/GPa)
#
#
# Indices 1 2 3 4 5 6 
#
# 1 0.017773 -0.000087 -0.004904 0.000000 0.000000 0.000000
# 2 -0.000087 0.019663 -0.007797 0.000000 0.000000 0.000000
# 3 -0.004904 -0.007797 0.012930 0.000000 0.000000 0.000000
# 4 0.000000 0.000000 0.000000 0.037096 0.000000 0.000000
# 5 0.000000 0.000000 0.000000 0.000000 0.064400 0.000000
# 6 0.000000 0.000000 0.000000 0.000000 0.000000 0.044761
#
#
# Mechanical properties :
#
#
# Convention : Reuss Voigt Hill
#
# Bulk Modulus (GPa) = 40.34210 48.81325 44.57767
# Shear Modulus (GPa) = 21.69545 23.62808 22.66176
#
# Velocity S-wave (km/s) = 3.45910 3.60988 3.53530
# Velocity P-wave (km/s) = 6.18087 6.65555 6.42260
#
# Compressibility (1/GPa) = 0.02478800
#
# Stress axis : x y z
#
# Youngs Moduli (GPa) = 56.26582 50.85600 77.34129
#
# Poissons Ratio (x) = 0.00444 0.37930
# Poissons Ratio (y) = 0.00491 0.60306
# Poissons Ratio (z) = 0.27594 0.39654
#
# Static dielectric constant tensor:
#      x y z
#    x 3.189990 0.000000 0.000000 
#    y 0.000000 3.452570 0.000000 
#    z 0.000000 0.000000 3.565820 
# 
# 
# High freq. dielectric constant tensor:
#      x y z
#    x 1.677590 0.000000 0.000000 
#    y 0.000000 1.707580 0.000000 
#    z 0.000000 0.000000 1.701220 
# 
# From -- ./inp_files/24335.got.cif
#   From: 2010.03.12/outbox.cif.g09.slc.cpg/sg74_13_cif.got.tgz:24335.got - 2010.04.16 15:46:19.
