data_PCOD8299778
_publ_section_title
;
Structure prediction by ZEFSAII (Michael W. Deem and Ramdas Pophale) SiO2 
 PCOD8299778
Probable space group: I M M A
;
_chemical_formula_sum "Si O2"
_cell_formula_units_Z 96
_cell_length_a 9.131554
_cell_length_b 23.483254
_cell_length_c 24.331006
_cell_angle_alpha 90.000000
_cell_angle_beta 90.000000
_cell_angle_gamma 90.000000
_cell_volume 5217.506912
_symmetry_space_group_name_H-M "I M M A"
_symmetry_group_IT_number 74
_symmetry_cell_setting 'orthorhombic'
loop_
_space_group_symop_operation_xyz
x,y,z
-x,1/2-y,z
x,-y,-z
-x,1/2+y,-z
-x,-y,-z
x,1/2+y,-z
-x,y,z
x,1/2-y,z
1/2+x,1/2+y,1/2+z
1/2-x,-y,1/2+z
1/2+x,1/2-y,1/2-z
1/2-x,y,1/2-z
1/2-x,1/2-y,1/2-z
1/2+x,y,1/2-z
1/2-x,1/2+y,1/2+z
1/2+x,-y,1/2+z
loop_
_atom_site_type_symbol
_atom_site_label
_atom_site_fract_x
_atom_site_fract_y
_atom_site_fract_z
Si Si1 0.326355 0.812727 0.897504
Si Si2 0.666349 0.606825 0.393513
Si Si3 0.672107 0.528848 0.192648
Si Si4 0.173147 0.815428 0.477928
Si Si5 0.839471 0.688039 0.203605
Si Si6 0.829948 0.396657 0.305188
O O1 0.500000 0.813920 0.896474
O O2 0.270095 0.750000 0.879568
O O3 0.263679 0.859926 0.855611
O O4 0.275672 0.825709 0.959485
O O5 0.500000 0.585658 0.407342
O O6 0.756535 0.558405 0.361007
O O7 0.747306 0.632502 0.446476
O O8 0.659517 0.660899 0.355045
O O9 0.500000 0.544214 0.196899
O O10 0.750000 0.546779 0.250000
O O11 0.698275 0.462477 0.181630
O O12 0.216161 0.750000 0.460501
O O13 0.000000 0.823316 0.470117
O O14 0.765864 0.750000 0.195752
O O15 0.750000 0.652785 0.250000
O O16 0.000000 0.693071 0.228268
O O17 0.750000 0.377182 0.250000
O O18 0.000000 0.383888 0.296606
#
# Coordination Sequence:
#
# PCOD8299778 Si02
#       6
#    16  16  16  16  16  16
#     4   8  15  31  55  80 105 133 166 204 247 299
#     4  11  21  32  48  69  95 131 173 213 254 300
#     4  10  20  34  51  72 100 134 172 212 254 301
#     4   9  18  33  53  75  99 131 171 212 253 299
#     4   9  18  30  42  59  84 113 147 192 245 294
#     4   9  18  33  54  79 106 135 165 202 250 302
#
# _framework density 18.399591999999998
#
# number of rings (size 3 to 8) (size 9 to 14) (size 15 to 20)
#    0.000    2.667    0.000    3.000    0.000    4.667 
#    0.000    3.333    0.000    6.000    0.000    0.000 
#    0.000    0.000    0.000    0.000    0.000    0.000 
#
# Total GULP energy -594672.894571 kJ/mol
# GULP energy per Si atom -12389.018637 kJ/mol
# Density = 1.835771 g / cm^3
# Si number density = 18.399592 Si / 1000 Ang^3
#
#
#
# Elastic Constant Matrix: (Units=GPa)
#
#
# Indices 1 2 3 4 5 6 
#
# 1 75.2115 41.8015 47.0973 0.0000 0.0000 0.0000
# 2 41.8015 93.2972 67.7178 0.0000 0.0000 0.0000
# 3 47.0973 67.7178 120.5868 0.0000 0.0000 0.0000
# 4 0.0000 0.0000 0.0000 40.0234 0.0000 0.0000
# 5 0.0000 0.0000 0.0000 0.0000 27.8502 0.0000
# 6 0.0000 0.0000 0.0000 0.0000 0.0000 21.2901
#
#
#
# Elastic Compliance Matrix: (Units=1/GPa)
#
#
# Indices 1 2 3 4 5 6 
#
# 1 0.019029 -0.005286 -0.004464 0.000000 0.000000 0.000000
# 2 -0.005286 0.019562 -0.008921 0.000000 0.000000 0.000000
# 3 -0.004464 -0.008921 0.015046 0.000000 0.000000 0.000000
# 4 0.000000 0.000000 0.000000 0.024985 0.000000 0.000000
# 5 0.000000 0.000000 0.000000 0.000000 0.035906 0.000000
# 6 0.000000 0.000000 0.000000 0.000000 0.000000 0.046970
#
#
# Mechanical properties :
#
#
# Convention : Reuss Voigt Hill
#
# Bulk Modulus (GPa) = 61.36607 66.92541 64.14574
# Shear Modulus (GPa) = 24.47735 26.66469 25.57102
#
# Velocity S-wave (km/s) = 3.65131 3.81097 3.73199
# Velocity P-wave (km/s) = 7.15544 7.47107 7.31496
#
# Compressibility (1/GPa) = 0.01629565
#
# Stress axis : x y z
#
# Youngs Moduli (GPa) = 52.55190 51.12025 66.46409
#
# Poissons Ratio (x) = 0.27022 0.29667
# Poissons Ratio (y) = 0.27779 0.59291
# Poissons Ratio (z) = 0.23457 0.45603
#
# Static dielectric constant tensor:
#      x y z
#    x 3.398380 0.000000 0.000000 
#    y 0.000000 3.482980 0.000000 
#    z 0.000000 0.000000 3.452190 
# 
# 
# High freq. dielectric constant tensor:
#      x y z
#    x 1.699280 0.000000 0.000000 
#    y 0.000000 1.710670 0.000000 
#    z 0.000000 0.000000 1.706800 
# 
# From -- ./inp_files/57260.got.cif
#   From: 2010.03.12/outbox.cif.g09.slc.cpg/sg74_29_cif.got.tgz:57260.got - 2010.04.16 15:46:19.
