data_PCOD8299260
_publ_section_title
;
Structure prediction by ZEFSAII (Michael W. Deem and Ramdas Pophale) SiO2 
 PCOD8299260
Probable space group: I M M A
;
_chemical_formula_sum "Si O2"
_cell_formula_units_Z 104
_cell_length_a 22.909951
_cell_length_b 28.153348
_cell_length_c 8.673802
_cell_angle_alpha 90.000000
_cell_angle_beta 90.000000
_cell_angle_gamma 90.000000
_cell_volume 5594.531366
_symmetry_space_group_name_H-M "I M M A"
_symmetry_group_IT_number 74
_symmetry_cell_setting 'orthorhombic'
loop_
_space_group_symop_operation_xyz
x,y,z
-x,1/2-y,z
x,-y,-z
-x,1/2+y,-z
-x,-y,-z
x,1/2+y,-z
-x,y,z
x,1/2-y,z
1/2+x,1/2+y,1/2+z
1/2-x,-y,1/2+z
1/2+x,1/2-y,1/2-z
1/2-x,y,1/2-z
1/2-x,1/2-y,1/2-z
1/2+x,y,1/2-z
1/2-x,1/2+y,1/2+z
1/2+x,-y,1/2+z
loop_
_atom_site_type_symbol
_atom_site_label
_atom_site_fract_x
_atom_site_fract_y
_atom_site_fract_z
Si Si1 0.348964 0.880127 0.330361
Si Si2 0.750000 0.167758 0.250000
Si Si3 0.432535 0.122495 0.239012
Si Si4 0.259351 0.044981 0.579912
Si Si5 0.360361 0.803547 0.579612
Si Si6 0.066621 0.553008 0.021081
Si Si7 0.168677 0.609530 0.519158
O O1 0.296758 0.906531 0.422739
O O2 0.360877 0.830614 0.415813
O O3 0.402395 0.917490 0.342082
O O4 0.334414 0.867825 0.153159
O O5 0.704682 0.198990 0.348647
O O6 0.788806 0.137466 0.367120
O O7 0.500000 0.130502 0.193741
O O8 0.406399 0.171406 0.305995
O O9 0.424931 0.080444 0.360984
O O10 0.396529 0.107004 0.087351
O O11 0.250000 0.026549 0.750000
O O12 0.197107 0.057117 0.499425
O O13 0.290231 0.000000 0.500000
O O14 0.381974 0.750000 0.550187
O O15 0.000000 0.549529 0.072730
O O16 0.092711 0.500000 0.000000
#
# Coordination Sequence:
#
# PCOD8299260 Si02
#       7
#    16   8  16  16  16  16  16
#     4  10  20  36  52  80 114 142 184 230 278 325
#     4  10  19  36  56  76 112 140 182 218 271 328
#     4   9  20  37  57  80 109 143 181 226 272 327
#     4  10  21  32  51  77 109 146 185 227 276 325
#     4  10  20  35  59  82 106 140 177 223 275 327
#     4   9  18  34  56  79 107 145 187 228 275 329
#     4  10  21  35  55  77 112 147 182 225 275 328
#
# _framework density 18.589582
#
# number of rings (size 3 to 8) (size 9 to 14) (size 15 to 20)
#    0.000    2.308    1.538    0.692    1.077    3.385 
#    0.000    4.615    0.000    3.231    0.000    0.000 
#    0.000    0.000    0.000    0.000    0.000    0.000 
#
# Total GULP energy -644471.159126 kJ/mol
# GULP energy per Si atom -12393.676137 kJ/mol
# Density = 1.854727 g / cm^3
# Si number density = 18.589582 Si / 1000 Ang^3
#
#
#
# Elastic Constant Matrix: (Units=GPa)
#
#
# Indices 1 2 3 4 5 6 
#
# 1 116.0692 36.6220 44.1780 0.0000 0.0000 0.0000
# 2 36.6220 121.1756 43.9678 0.0000 0.0000 0.0000
# 3 44.1780 43.9678 87.1674 0.0000 0.0000 0.0000
# 4 0.0000 0.0000 0.0000 15.1660 0.0000 0.0000
# 5 0.0000 0.0000 0.0000 0.0000 25.4057 0.0000
# 6 0.0000 0.0000 0.0000 0.0000 0.0000 18.0071
#
#
#
# Elastic Compliance Matrix: (Units=1/GPa)
#
#
# Indices 1 2 3 4 5 6 
#
# 1 0.010917 -0.001581 -0.004735 0.000000 0.000000 0.000000
# 2 -0.001581 0.010330 -0.004409 0.000000 0.000000 0.000000
# 3 -0.004735 -0.004409 0.016096 0.000000 0.000000 0.000000
# 4 0.000000 0.000000 0.000000 0.065937 0.000000 0.000000
# 5 0.000000 0.000000 0.000000 0.000000 0.039361 0.000000
# 6 0.000000 0.000000 0.000000 0.000000 0.000000 0.055534
#
#
# Mechanical properties :
#
#
# Convention : Reuss Voigt Hill
#
# Bulk Modulus (GPa) = 62.92564 63.77197 63.34880
# Shear Modulus (GPa) = 22.22975 25.02538 23.62756
#
# Velocity S-wave (km/s) = 3.46181 3.67305 3.56899
# Velocity P-wave (km/s) = 7.06415 7.23658 7.15089
#
# Compressibility (1/GPa) = 0.01589177
#
# Stress axis : x y z
#
# Youngs Moduli (GPa) = 91.60232 96.80340 62.12652
#
# Poissons Ratio (x) = 0.15306 0.29419
# Poissons Ratio (y) = 0.14483 0.27393
# Poissons Ratio (z) = 0.43376 0.42683
#
# Static dielectric constant tensor:
#      x y z
#    x 3.648520 0.000000 0.000000 
#    y 0.000000 3.183410 0.000000 
#    z 0.000000 0.000000 3.341280 
# 
# 
# High freq. dielectric constant tensor:
#      x y z
#    x 1.726830 0.000000 0.000000 
#    y 0.000000 1.704390 0.000000 
#    z 0.000000 0.000000 1.714970 
# 
# From -- ./inp_files/14153.got.cif
#   From: 2010.03.12/outbox.cif.g09.slc.cpg/sg74_8_cif.got.tgz:14153.got - 2010.04.16 15:46:19.
