data_PCOD8299754
_publ_section_title
;
Structure prediction by ZEFSAII (Michael W. Deem and Ramdas Pophale) SiO2 
 PCOD8299754
Probable space group: I M M A
;
_chemical_formula_sum "Si O2"
_cell_formula_units_Z 120
_cell_length_a 9.304240
_cell_length_b 26.569483
_cell_length_c 27.908505
_cell_angle_alpha 90.000000
_cell_angle_beta 90.000000
_cell_angle_gamma 90.000000
_cell_volume 6899.229329
_symmetry_space_group_name_H-M "I M M A"
_symmetry_group_IT_number 74
_symmetry_cell_setting 'orthorhombic'
loop_
_space_group_symop_operation_xyz
x,y,z
-x,1/2-y,z
x,-y,-z
-x,1/2+y,-z
-x,-y,-z
x,1/2+y,-z
-x,y,z
x,1/2-y,z
1/2+x,1/2+y,1/2+z
1/2-x,-y,1/2+z
1/2+x,1/2-y,1/2-z
1/2-x,y,1/2-z
1/2-x,1/2-y,1/2-z
1/2+x,y,1/2-z
1/2-x,1/2+y,1/2+z
1/2+x,-y,1/2+z
loop_
_atom_site_type_symbol
_atom_site_label
_atom_site_fract_x
_atom_site_fract_y
_atom_site_fract_z
Si Si1 0.171091 0.546479 0.857278
Si Si2 0.170661 0.342240 0.135801
Si Si3 0.833546 0.890972 0.109303
Si Si4 0.171621 0.250000 0.199833
Si Si5 0.668099 0.308183 0.939664
Si Si6 0.337757 0.690852 0.533658
Si Si7 0.167154 0.953852 0.202564
Si Si8 0.170329 0.511965 0.052157
O O1 0.225235 0.603058 0.846155
O O2 0.224524 0.508321 0.815949
O O3 0.229977 0.528328 0.909130
O O4 0.000000 0.543934 0.859020
O O5 0.227369 0.299266 0.171458
O O6 0.226675 0.334083 0.081711
O O7 0.000000 0.339055 0.134307
O O8 0.738009 0.841168 0.102508
O O9 0.802808 0.912225 0.162133
O O10 0.787725 0.932069 0.069389
O O11 0.000000 0.876490 0.103601
O O12 0.250000 0.250000 0.250000
O O13 0.000000 0.250000 0.206680
O O14 0.500000 0.318624 0.942299
O O15 0.702294 0.250000 0.928599
O O16 0.737264 0.325161 0.989895
O O17 0.500000 0.671797 0.522872
O O18 0.337686 0.750000 0.542321
O O19 0.250000 0.937575 0.250000
O O20 0.000000 0.956806 0.214900
O O21 0.000000 0.507237 0.049670
O O22 0.238477 0.500000 0.000000
#
# Coordination Sequence:
#
# PCOD8299754 Si02
#       8
#    16  16  16   8  16  16  16  16
#     4   8  15  26  42  69  99 124 157 203 248 285
#     4   9  16  28  47  69  95 126 166 214 252 291
#     4   9  18  32  51  76 101 126 166 210 241 285
#     4  10  20  34  48  68  94 124 168 216 261 302
#     4  10  21  34  48  72 106 139 165 193 237 296
#     4   9  16  28  48  72  94 125 170 212 246 282
#     4   9  18  33  52  75  99 125 162 206 250 296
#     4   8  14  24  41  71 101 123 154 199 246 287
#
# _framework density 17.393246999999999
#
# number of rings (size 3 to 8) (size 9 to 14) (size 15 to 20)
#    0.000    3.067    0.667    2.000    1.867    1.867 
#    0.000    0.667    0.000    1.600    0.000    0.000 
#    0.000    0.000    0.000    0.000    0.000    0.000 
#
# Total GULP energy -743756.176316 kJ/mol
# GULP energy per Si atom -12395.936272 kJ/mol
# Density = 1.735366 g / cm^3
# Si number density = 17.393247 Si / 1000 Ang^3
#
#
#
# Elastic Constant Matrix: (Units=GPa)
#
#
# Indices 1 2 3 4 5 6 
#
# 1 48.0838 42.5970 45.5308 0.0000 0.0000 0.0000
# 2 42.5970 108.4596 62.9456 0.0000 0.0000 0.0000
# 3 45.5308 62.9456 125.3414 0.0000 0.0000 0.0000
# 4 0.0000 0.0000 0.0000 19.6388 0.0000 0.0000
# 5 0.0000 0.0000 0.0000 0.0000 24.8600 0.0000
# 6 0.0000 0.0000 0.0000 0.0000 0.0000 11.6120
#
#
#
# Elastic Compliance Matrix: (Units=1/GPa)
#
#
# Indices 1 2 3 4 5 6 
#
# 1 0.037767 -0.009697 -0.008849 0.000000 0.000000 0.000000
# 2 -0.009697 0.015502 -0.004263 0.000000 0.000000 0.000000
# 3 -0.008849 -0.004263 0.013333 0.000000 0.000000 0.000000
# 4 0.000000 0.000000 0.000000 0.050920 0.000000 0.000000
# 5 0.000000 0.000000 0.000000 0.000000 0.040225 0.000000
# 6 0.000000 0.000000 0.000000 0.000000 0.000000 0.086118
#
#
# Mechanical properties :
#
#
# Convention : Reuss Voigt Hill
#
# Bulk Modulus (GPa) = 47.65352 64.89242 56.27297
# Shear Modulus (GPa) = 16.86464 19.94292 18.40378
#
# Velocity S-wave (km/s) = 3.11723 3.38981 3.25637
# Velocity P-wave (km/s) = 6.35715 7.26024 6.82365
#
# Compressibility (1/GPa) = 0.02098481
#
# Stress axis : x y z
#
# Youngs Moduli (GPa) = 26.47820 64.50618 74.99955
#
# Poissons Ratio (x) = 0.62552 0.66369
# Poissons Ratio (y) = 0.25676 0.31970
# Poissons Ratio (z) = 0.23431 0.27497
#
# Static dielectric constant tensor:
#      x y z
#    x 2.779700 0.000000 0.000000 
#    y 0.000000 3.364120 0.000000 
#    z 0.000000 0.000000 3.238210 
# 
# 
# High freq. dielectric constant tensor:
#      x y z
#    x 1.623030 0.000000 0.000000 
#    y 0.000000 1.674150 0.000000 
#    z 0.000000 0.000000 1.667560 
# 
# From -- ./inp_files/65086.got.cif
#   From: 2010.03.12/outbox.cif.g09.slc.cpg/sg74_33_cif.got.tgz:65086.got - 2010.04.16 15:46:19.
