data_PCOD8299068
_publ_section_title
;
Structure prediction by ZEFSAII (Michael W. Deem and Ramdas Pophale) SiO2 
 PCOD8299068
Probable space group: I M M A
;
_chemical_formula_sum "Si O2"
_cell_formula_units_Z 88
_cell_length_a 17.486959
_cell_length_b 9.346338
_cell_length_c 28.769326
_cell_angle_alpha 90.000000
_cell_angle_beta 90.000000
_cell_angle_gamma 90.000000
_cell_volume 4702.030718
_symmetry_space_group_name_H-M "I M M A"
_symmetry_group_IT_number 74
_symmetry_cell_setting 'orthorhombic'
loop_
_space_group_symop_operation_xyz
x,y,z
-x,1/2-y,z
x,-y,-z
-x,1/2+y,-z
-x,-y,-z
x,1/2+y,-z
-x,y,z
x,1/2-y,z
1/2+x,1/2+y,1/2+z
1/2-x,-y,1/2+z
1/2+x,1/2-y,1/2-z
1/2-x,y,1/2-z
1/2-x,1/2-y,1/2-z
1/2+x,y,1/2-z
1/2-x,1/2+y,1/2+z
1/2+x,-y,1/2+z
loop_
_atom_site_type_symbol
_atom_site_label
_atom_site_fract_x
_atom_site_fract_y
_atom_site_fract_z
Si Si1 0.000000 0.585641 0.047190
Si Si2 0.091193 0.590808 0.300010
Si Si3 0.586167 0.584971 0.887029
Si Si4 0.777431 0.582117 0.548014
Si Si5 0.415262 0.580218 0.300841
Si Si6 0.152066 0.917522 0.103737
O O1 0.925787 0.547017 0.076935
O O2 0.000000 0.750000 0.033024
O O3 0.000000 0.500000 0.000000
O O4 0.123846 0.750000 0.308321
O O5 0.121611 0.494579 0.342235
O O6 0.118308 0.530387 0.249474
O O7 0.000000 0.592547 0.299519
O O8 0.500000 0.531962 0.898603
O O9 0.586533 0.750000 0.873597
O O10 0.637606 0.555092 0.932190
O O11 0.768619 0.500000 0.500000
O O12 0.760873 0.750000 0.540409
O O13 0.718056 0.518014 0.584451
O O14 0.500000 0.514388 0.309367
O O15 0.423878 0.750000 0.299787
O O16 0.358713 0.536128 0.342444
O O17 0.173738 0.750000 0.098794
#
# Coordination Sequence:
#
# PCOD8299068 Si02
#       6
#     8  16  16  16  16  16
#     4  10  20  32  50  74 100 136 180 220 257 300
#     4   8  14  26  50  82 109 134 169 213 255 300
#     4   9  19  37  58  78 103 135 170 211 263 322
#     4  11  24  40  56  76 103 135 172 218 270 318
#     4   8  13  26  50  79 109 140 176 215 252 294
#     4  10  19  34  55  78 106 142 179 215 259 305
#
# _framework density 18.715316999999999
#
# number of rings (size 3 to 8) (size 9 to 14) (size 15 to 20)
#    0.000    2.727    0.909    2.182    0.000    4.000 
#    0.000    1.818    0.000    6.545    0.000    0.000 
#    0.000    0.000    0.000    0.000    0.000    0.000 
#
# Total GULP energy -545397.996721 kJ/mol
# GULP energy per Si atom -12395.409016 kJ/mol
# Density = 1.867272 g / cm^3
# Si number density = 18.715317 Si / 1000 Ang^3
#
#
#
# Elastic Constant Matrix: (Units=GPa)
#
#
# Indices 1 2 3 4 5 6 
#
# 1 66.5522 30.1909 21.6704 0.0000 0.0000 0.0000
# 2 30.1909 55.6248 28.3221 0.0000 0.0000 0.0000
# 3 21.6704 28.3221 73.5905 0.0000 0.0000 0.0000
# 4 0.0000 0.0000 0.0000 30.0707 0.0000 0.0000
# 5 0.0000 0.0000 0.0000 0.0000 24.4443 0.0000
# 6 0.0000 0.0000 0.0000 0.0000 0.0000 22.9274
#
#
#
# Elastic Compliance Matrix: (Units=1/GPa)
#
#
# Indices 1 2 3 4 5 6 
#
# 1 0.020204 -0.009871 -0.002151 0.000000 0.000000 0.000000
# 2 -0.009871 0.027181 -0.007554 0.000000 0.000000 0.000000
# 3 -0.002151 -0.007554 0.017129 0.000000 0.000000 0.000000
# 4 0.000000 0.000000 0.000000 0.033255 0.000000 0.000000
# 5 0.000000 0.000000 0.000000 0.000000 0.040909 0.000000
# 6 0.000000 0.000000 0.000000 0.000000 0.000000 0.043616
#
#
# Mechanical properties :
#
#
# Convention : Reuss Voigt Hill
#
# Bulk Modulus (GPa) = 39.42732 39.57046 39.49889
# Shear Modulus (GPa) = 21.74849 23.19409 22.47129
#
# Velocity S-wave (km/s) = 3.41261 3.52420 3.46886
# Velocity P-wave (km/s) = 6.05314 6.14404 6.09876
#
# Compressibility (1/GPa) = 0.02536312
#
# Stress axis : x y z
#
# Youngs Moduli (GPa) = 49.49538 36.78975 58.37923
#
# Poissons Ratio (x) = 0.36315 0.12555
# Poissons Ratio (y) = 0.48856 0.44102
# Poissons Ratio (z) = 0.10644 0.27792
#
# Static dielectric constant tensor:
#      x y z
#    x 3.312000 0.000000 0.000000 
#    y 0.000000 3.282030 0.000000 
#    z 0.000000 0.000000 3.807580 
# 
# 
# High freq. dielectric constant tensor:
#      x y z
#    x 1.707450 0.000000 0.000000 
#    y 0.000000 1.700120 0.000000 
#    z 0.000000 0.000000 1.741650 
# 
# From -- ./inp_files/72986.got.cif
#   From: 2010.03.12/outbox.cif.g09.slc.cpg/sg74_37_cif.got.tgz:72986.got - 2010.04.16 15:46:19.
