data_PCOD8299661
_publ_section_title
;
Structure prediction by ZEFSAII (Michael W. Deem and Ramdas Pophale) SiO2 
 PCOD8299661
Probable space group: I M M A
;
_chemical_formula_sum "Si O2"
_cell_formula_units_Z 104
_cell_length_a 21.054981
_cell_length_b 8.952932
_cell_length_c 28.305918
_cell_angle_alpha 90.000000
_cell_angle_beta 90.000000
_cell_angle_gamma 90.000000
_cell_volume 5335.773478
_symmetry_space_group_name_H-M "I M M A"
_symmetry_group_IT_number 74
_symmetry_cell_setting 'orthorhombic'
loop_
_space_group_symop_operation_xyz
x,y,z
-x,1/2-y,z
x,-y,-z
-x,1/2+y,-z
-x,-y,-z
x,1/2+y,-z
-x,y,z
x,1/2-y,z
1/2+x,1/2+y,1/2+z
1/2-x,-y,1/2+z
1/2+x,1/2-y,1/2-z
1/2-x,y,1/2-z
1/2-x,1/2-y,1/2-z
1/2+x,y,1/2-z
1/2-x,1/2+y,1/2+z
1/2+x,-y,1/2+z
loop_
_atom_site_type_symbol
_atom_site_label
_atom_site_fract_x
_atom_site_fract_y
_atom_site_fract_z
Si Si1 0.856199 0.925564 0.384919
Si Si2 0.928335 0.426045 0.706217
Si Si3 0.500000 0.424748 0.550058
Si Si4 0.748740 0.073524 0.448454
Si Si5 0.427445 0.920276 0.699057
Si Si6 0.115689 0.577270 0.901937
Si Si7 0.427183 0.085509 0.043417
O O1 0.843363 0.750000 0.389445
O O2 0.873607 0.974296 0.331297
O O3 0.799164 0.015287 0.409684
O O4 0.919859 0.977351 0.411894
O O5 0.933246 0.250000 0.706033
O O6 0.904159 0.479903 0.757247
O O7 0.000000 0.490972 0.695896
O O8 0.500000 0.250000 0.542763
O O9 0.500000 0.500000 0.500000
O O10 0.437518 0.470722 0.577729
O O11 0.756162 0.250000 0.454250
O O12 0.681041 0.030674 0.426467
O O13 0.756777 0.000000 0.500000
O O14 0.500000 0.959071 0.684436
O O15 0.422256 0.750000 0.715712
O O16 0.381474 0.951193 0.654500
O O17 0.098209 0.750000 0.911967
O O18 0.500000 0.109097 0.031610
O O19 0.395471 0.250000 0.050289
O O20 0.392685 0.000000 0.000000
#
# Coordination Sequence:
#
# PCOD8299661 Si02
#       7
#    16  16   8  16  16  16  16
#     4  11  22  37  56  77 109 151 192 238 286 337
#     4   9  19  35  56  84 116 148 188 237 287 339
#     4  12  24  36  58  90 122 154 188 234 287 344
#     4  11  24  41  61  82 111 152 195 240 286 343
#     4   9  17  33  59  87 116 148 183 230 286 341
#     4  10  21  40  62  86 118 152 190 236 287 342
#     4  10  20  33  51  76 105 137 179 232 286 345
#
# _framework density 19.491081999999999
#
# number of rings (size 3 to 8) (size 9 to 14) (size 15 to 20)
#    0.000    1.846    0.769    3.462    0.000    5.846 
#    0.000    2.308    0.000    4.615    0.000    0.000 
#    0.000    0.000    0.000    0.000    0.000    0.000 
#
# Total GULP energy -644461.934335 kJ/mol
# GULP energy per Si atom -12393.498737 kJ/mol
# Density = 1.944672 g / cm^3
# Si number density = 19.491082 Si / 1000 Ang^3
#
#
#
# Elastic Constant Matrix: (Units=GPa)
#
#
# Indices 1 2 3 4 5 6 
#
# 1 101.1260 41.9802 60.7090 0.0000 0.0000 0.0000
# 2 41.9802 73.9399 46.4493 0.0000 0.0000 0.0000
# 3 60.7090 46.4493 135.2509 0.0000 0.0000 0.0000
# 4 0.0000 0.0000 0.0000 36.5217 0.0000 0.0000
# 5 0.0000 0.0000 0.0000 0.0000 23.5763 0.0000
# 6 0.0000 0.0000 0.0000 0.0000 0.0000 18.7929
#
#
#
# Elastic Compliance Matrix: (Units=1/GPa)
#
#
# Indices 1 2 3 4 5 6 
#
# 1 0.015111 -0.005507 -0.004892 0.000000 0.000000 0.000000
# 2 -0.005507 0.019252 -0.004140 0.000000 0.000000 0.000000
# 3 -0.004892 -0.004140 0.011011 0.000000 0.000000 0.000000
# 4 0.000000 0.000000 0.000000 0.027381 0.000000 0.000000
# 5 0.000000 0.000000 0.000000 0.000000 0.042415 0.000000
# 6 0.000000 0.000000 0.000000 0.000000 0.000000 0.053211
#
#
# Mechanical properties :
#
#
# Convention : Reuss Voigt Hill
#
# Bulk Modulus (GPa) = 61.35877 67.62154 64.49015
# Shear Modulus (GPa) = 24.64378 26.52340 25.58359
#
# Velocity S-wave (km/s) = 3.55964 3.69290 3.62688
# Velocity P-wave (km/s) = 6.96014 7.27683 7.12024
#
# Compressibility (1/GPa) = 0.01629759
#
# Stress axis : x y z
#
# Youngs Moduli (GPa) = 66.17589 51.94368 90.81691
#
# Poissons Ratio (x) = 0.28603 0.44425
# Poissons Ratio (y) = 0.36440 0.37597
# Poissons Ratio (z) = 0.32372 0.21504
#
# Static dielectric constant tensor:
#      x y z
#    x 3.499650 0.000000 0.000000 
#    y 0.000000 3.727220 0.000000 
#    z 0.000000 0.000000 4.185490 
# 
# 
# High freq. dielectric constant tensor:
#      x y z
#    x 1.743670 0.000000 0.000000 
#    y 0.000000 1.763030 0.000000 
#    z 0.000000 0.000000 1.766200 
# 
# From -- ./inp_files/68282.got.cif
#   From: 2010.03.12/outbox.cif.g09.slc.cpg/sg74_35_cif.got.tgz:68282.got - 2010.04.16 15:46:19.
