data_PCOD8299737
_publ_section_title
;
Structure prediction by ZEFSAII (Michael W. Deem and Ramdas Pophale) SiO2 
 PCOD8299737
Probable space group: I M M A
;
_chemical_formula_sum "Si O2"
_cell_formula_units_Z 96
_cell_length_a 23.213573
_cell_length_b 14.136929
_cell_length_c 14.777970
_cell_angle_alpha 90.000000
_cell_angle_beta 90.000000
_cell_angle_gamma 90.000000
_cell_volume 4849.666218
_symmetry_space_group_name_H-M "I M M A"
_symmetry_group_IT_number 74
_symmetry_cell_setting 'orthorhombic'
loop_
_space_group_symop_operation_xyz
x,y,z
-x,1/2-y,z
x,-y,-z
-x,1/2+y,-z
-x,-y,-z
x,1/2+y,-z
-x,y,z
x,1/2-y,z
1/2+x,1/2+y,1/2+z
1/2-x,-y,1/2+z
1/2+x,1/2-y,1/2-z
1/2-x,y,1/2-z
1/2-x,1/2-y,1/2-z
1/2+x,y,1/2-z
1/2-x,1/2+y,1/2+z
1/2+x,-y,1/2+z
loop_
_atom_site_type_symbol
_atom_site_label
_atom_site_fract_x
_atom_site_fract_y
_atom_site_fract_z
Si Si1 0.000000 0.638483 0.289252
Si Si2 0.701900 0.361366 0.874135
Si Si3 0.713514 0.146377 0.079117
Si Si4 0.000000 0.358778 0.508997
Si Si5 0.391467 0.531978 0.247530
Si Si6 0.588047 0.855483 0.858375
Si Si7 0.199029 0.008450 0.893929
O O1 0.057388 0.606440 0.236197
O O2 0.000000 0.750000 0.290585
O O3 0.000000 0.592601 0.391728
O O4 0.696146 0.250000 0.850306
O O5 0.654557 0.423550 0.822452
O O6 0.767612 0.397208 0.857349
O O7 0.693109 0.385483 0.979580
O O8 0.742316 0.250000 0.073816
O O9 0.656535 0.148149 0.137855
O O10 0.759046 0.079085 0.128733
O O11 0.942649 0.385305 0.452571
O O12 0.000000 0.250000 0.532730
O O13 0.424165 0.436858 0.214258
O O14 0.361063 0.505475 0.341700
O O15 0.565274 0.750000 0.829753
O O16 0.184688 0.000000 0.000000
#
# Coordination Sequence:
#
# PCOD8299737 Si02
#       7
#     8  16  16   8  16  16  16
#     4  11  25  41  59  86 119 150 192 240 288 350
#     4  10  20  34  56  84 115 149 190 238 291 349
#     4   9  18  34  55  83 118 154 189 234 291 348
#     4   9  19  37  57  84 120 156 184 218 279 345
#     4  12  23  36  58  85 112 155 198 241 290 342
#     4  10  20  33  54  84 120 157 191 228 276 344
#     4  10  22  39  56  80 113 151 194 245 298 348
#
# _framework density 19.795176999999999
#
# number of rings (size 3 to 8) (size 9 to 14) (size 15 to 20)
#    0.000    1.833    1.667    2.500    0.000    8.000 
#    0.000    2.083    0.000    0.000    0.000    1.167 
#    0.000    0.000    0.000    0.000    0.000    0.000 
#
# Total GULP energy -594842.455605 kJ/mol
# GULP energy per Si atom -12392.551158 kJ/mol
# Density = 1.975012 g / cm^3
# Si number density = 19.795177 Si / 1000 Ang^3
#
#
#
# Elastic Constant Matrix: (Units=GPa)
#
#
# Indices 1 2 3 4 5 6 
#
# 1 113.5325 41.0475 49.2290 0.0000 0.0000 0.0000
# 2 41.0475 101.3568 35.6703 0.0000 0.0000 0.0000
# 3 49.2290 35.6703 50.9252 0.0000 0.0000 0.0000
# 4 0.0000 0.0000 0.0000 19.2887 0.0000 0.0000
# 5 0.0000 0.0000 0.0000 0.0000 19.8566 0.0000
# 6 0.0000 0.0000 0.0000 0.0000 0.0000 28.3339
#
#
#
# Elastic Compliance Matrix: (Units=1/GPa)
#
#
# Indices 1 2 3 4 5 6 
#
# 1 0.015295 -0.001315 -0.013865 0.000000 0.000000 0.000000
# 2 -0.001315 0.013207 -0.007980 0.000000 0.000000 0.000000
# 3 -0.013865 -0.007980 0.038629 0.000000 0.000000 0.000000
# 4 0.000000 0.000000 0.000000 0.051844 0.000000 0.000000
# 5 0.000000 0.000000 0.000000 0.000000 0.050361 0.000000
# 6 0.000000 0.000000 0.000000 0.000000 0.000000 0.035293
#
#
# Mechanical properties :
#
#
# Convention : Reuss Voigt Hill
#
# Bulk Modulus (GPa) = 48.04813 57.52313 52.78563
# Shear Modulus (GPa) = 19.38838 22.82034 21.10436
#
# Velocity S-wave (km/s) = 3.13301 3.39901 3.26872
# Velocity P-wave (km/s) = 6.11662 6.67283 6.40077
#
# Compressibility (1/GPa) = 0.02081246
#
# Stress axis : x y z
#
# Youngs Moduli (GPa) = 65.37880 75.71800 25.88717
#
# Poissons Ratio (x) = 0.09956 0.35893
# Poissons Ratio (y) = 0.08596 0.20657
# Poissons Ratio (z) = 0.90648 0.60420
#
# Static dielectric constant tensor:
#      x y z
#    x 3.498090 0.000000 0.000000 
#    y 0.000000 3.978900 0.000000 
#    z 0.000000 0.000000 3.312790 
# 
# 
# High freq. dielectric constant tensor:
#      x y z
#    x 1.758840 0.000000 0.000000 
#    y 0.000000 1.789700 0.000000 
#    z 0.000000 0.000000 1.731460 
# 
# From -- ./inp_files/35320.got.cif
#   From: 2010.03.12/outbox.cif.g09.slc.cpg/sg74_18_cif.got.tgz:35320.got - 2010.04.16 15:46:19.
