data_PCOD8299498
_publ_section_title
;
Structure prediction by ZEFSAII (Michael W. Deem and Ramdas Pophale) SiO2 
 PCOD8299498
Probable space group: I M M A
;
_chemical_formula_sum "Si O2"
_cell_formula_units_Z 96
_cell_length_a 8.944937
_cell_length_b 24.903365
_cell_length_c 25.095990
_cell_angle_alpha 90.000000
_cell_angle_beta 90.000000
_cell_angle_gamma 90.000000
_cell_volume 5590.358415
_symmetry_space_group_name_H-M "I M M A"
_symmetry_group_IT_number 74
_symmetry_cell_setting 'orthorhombic'
loop_
_space_group_symop_operation_xyz
x,y,z
-x,1/2-y,z
x,-y,-z
-x,1/2+y,-z
-x,-y,-z
x,1/2+y,-z
-x,y,z
x,1/2-y,z
1/2+x,1/2+y,1/2+z
1/2-x,-y,1/2+z
1/2+x,1/2-y,1/2-z
1/2-x,y,1/2-z
1/2-x,1/2-y,1/2-z
1/2+x,y,1/2-z
1/2-x,1/2+y,1/2+z
1/2+x,-y,1/2+z
loop_
_atom_site_type_symbol
_atom_site_label
_atom_site_fract_x
_atom_site_fract_y
_atom_site_fract_z
Si Si1 0.677146 0.394433 0.308021
Si Si2 0.825515 0.001789 0.306933
Si Si3 0.330068 0.813532 0.393594
Si Si4 0.673398 0.616657 0.193102
Si Si5 0.674184 0.187394 0.115841
Si Si6 0.334771 0.686291 0.002763
O O1 0.500000 0.398027 0.302670
O O2 0.750000 0.387542 0.250000
O O3 0.741963 0.448831 0.336705
O O4 0.721034 0.343695 0.343334
O O5 0.750000 0.998353 0.250000
O O6 0.000000 0.015675 0.301934
O O7 0.800529 0.942875 0.332735
O O8 0.500000 0.831528 0.386276
O O9 0.309752 0.750000 0.389120
O O10 0.233319 0.839491 0.347381
O O11 0.276750 0.834584 0.451549
O O12 0.500000 0.627257 0.202703
O O13 0.750000 0.623720 0.250000
O O14 0.500000 0.175280 0.126870
O O15 0.708305 0.250000 0.123589
O O16 0.717991 0.168054 0.056031
O O17 0.500000 0.663108 0.014997
O O18 0.342592 0.750000 0.002804
#
# Coordination Sequence:
#
# PCOD8299498 Si02
#       6
#    16  16  16  16  16  16
#     4  11  21  32  49  72  99 130 161 196 239 285
#     4   9  17  31  50  70  92 121 160 200 237 281
#     4  10  20  32  48  72 101 131 161 195 236 283
#     4  10  20  33  51  73  97 127 161 199 242 286
#     4   9  18  33  52  73  98 128 161 198 240 285
#     4   8  15  30  51  71  92 123 162 199 235 279
#
# _framework density 17.172422999999998
#
# number of rings (size 3 to 8) (size 9 to 14) (size 15 to 20)
#    0.000    2.500    0.000    5.000    0.000    4.667 
#    0.000    1.667    0.000    1.000    0.000    7.000 
#    0.000    0.000    0.000    0.000    0.000    0.000 
#
# Total GULP energy -594888.198600 kJ/mol
# GULP energy per Si atom -12393.504137 kJ/mol
# Density = 1.713334 g / cm^3
# Si number density = 17.172423 Si / 1000 Ang^3
#
#
#
# Elastic Constant Matrix: (Units=GPa)
#
#
# Indices 1 2 3 4 5 6 
#
# 1 127.4326 48.2417 54.3778 0.0000 0.0000 0.0000
# 2 48.2417 57.4885 40.6521 0.0000 0.0000 0.0000
# 3 54.3778 40.6521 90.3284 0.0000 0.0000 0.0000
# 4 0.0000 0.0000 0.0000 -0.2479 0.0000 0.0000
# 5 0.0000 0.0000 0.0000 0.0000 29.1224 0.0000
# 6 0.0000 0.0000 0.0000 0.0000 0.0000 25.5340
#
#
#
# Elastic Compliance Matrix: (Units=1/GPa)
#
#
# Indices 1 2 3 4 5 6 
#
# 1 0.012456 -0.007554 -0.004099 0.000000 0.000000 0.000000
# 2 -0.007554 0.030096 -0.008997 0.000000 0.000000 0.000000
# 3 -0.004099 -0.008997 0.017587 -0.000001 0.000000 0.000000
# 4 0.000000 0.000000 -0.000001 -4.033155 0.000000 0.000000
# 5 0.000000 0.000000 0.000000 0.000000 0.034338 0.000000
# 6 0.000000 0.000000 0.000000 0.000000 0.000000 0.039163
#
#
# Mechanical properties :
#
#
# Convention : Reuss Voigt Hill
#
# Bulk Modulus (GPa) = 53.08040 62.42142 57.75091
# Shear Modulus (GPa) = -1.29805 19.68022 9.19108
#
# Velocity S-wave (km/s) = -0.87036 3.38899 2.31600
# Velocity P-wave (km/s) = 5.47424 7.19322 6.39178
#
# Compressibility (1/GPa) = 0.01883934
#
# Stress axis : x y z
#
# Youngs Moduli (GPa) = 80.28206 33.22698 56.85913
#
# Poissons Ratio (x) = 0.25100 0.23306
# Poissons Ratio (y) = 0.60646 0.51156
# Poissons Ratio (z) = 0.32906 0.29894
#
# Static dielectric constant tensor:
#      x y z
#    x 3.435580 0.000000 0.000000 
#    y 0.000000 3.487560 0.000000 
#    z 0.000000 0.000000 3.132140 
# 
# 
# High freq. dielectric constant tensor:
#      x y z
#    x 1.674950 0.000000 0.000000 
#    y 0.000000 1.650420 0.000000 
#    z 0.000000 0.000000 1.642360 
# 
# From -- ./inp_files/57282.got.cif
#   From: 2010.03.12/outbox.cif.g09.slc.cpg/sg74_29_cif.got.tgz:57282.got - 2010.04.16 15:46:19.
