data_PCOD8299616
_publ_section_title
;
Structure prediction by ZEFSAII (Michael W. Deem and Ramdas Pophale) SiO2 
 PCOD8299616
Probable space group: I M M A
;
_chemical_formula_sum "Si O2"
_cell_formula_units_Z 80
_cell_length_a 9.097170
_cell_length_b 19.042853
_cell_length_c 25.808561
_cell_angle_alpha 90.000000
_cell_angle_beta 90.000000
_cell_angle_gamma 90.000000
_cell_volume 4470.973706
_symmetry_space_group_name_H-M "I M M A"
_symmetry_group_IT_number 74
_symmetry_cell_setting 'orthorhombic'
loop_
_space_group_symop_operation_xyz
x,y,z
-x,1/2-y,z
x,-y,-z
-x,1/2+y,-z
-x,-y,-z
x,1/2+y,-z
-x,y,z
x,1/2-y,z
1/2+x,1/2+y,1/2+z
1/2-x,-y,1/2+z
1/2+x,1/2-y,1/2-z
1/2-x,y,1/2-z
1/2-x,1/2-y,1/2-z
1/2+x,y,1/2-z
1/2-x,1/2+y,1/2+z
1/2+x,-y,1/2+z
loop_
_atom_site_type_symbol
_atom_site_label
_atom_site_fract_x
_atom_site_fract_y
_atom_site_fract_z
Si Si1 0.675110 0.828416 0.892977
Si Si2 0.836494 0.333410 0.506669
Si Si3 0.172315 0.572381 0.697700
Si Si4 0.327534 0.089250 0.802650
Si Si5 0.666806 0.333417 0.606336
O O1 0.500000 0.826634 0.892430
O O2 0.736616 0.750000 0.881851
O O3 0.736131 0.881330 0.849522
O O4 0.725141 0.855769 0.949963
O O5 0.846591 0.250000 0.507807
O O6 0.727573 0.361234 0.551157
O O7 0.000000 0.364783 0.516394
O O8 0.250000 0.598046 0.750000
O O9 0.210050 0.491707 0.685590
O O10 0.000000 0.584154 0.704990
O O11 0.500000 0.102200 0.796682
O O12 0.250000 0.114144 0.750000
O O13 0.267506 0.135860 0.848912
O O14 0.500000 0.359902 0.612619
O O15 0.676324 0.250000 0.609409
#
# Coordination Sequence:
#
# PCOD8299616 Si02
#       5
#    16  16  16  16  16
#     4   8  14  27  49  74  98 125 159 197 232 270
#     4   8  14  27  48  71  94 123 157 191 230 275
#     4   9  18  32  49  70  96 127 161 195 234 278
#     4  10  20  34  51  69  93 126 160 194 233 279
#     4  10  20  33  50  72  96 121 152 193 238 283
#
# _framework density 17.893194999999999
#
# number of rings (size 3 to 8) (size 9 to 14) (size 15 to 20)
#    0.000    3.000    0.000    2.400    0.000    2.800 
#    0.000    2.000    0.000    7.200    0.000    0.000 
#    0.000    0.000    0.000    0.000    0.000    0.000 
#
# Total GULP energy -495893.374474 kJ/mol
# GULP energy per Si atom -12397.334362 kJ/mol
# Density = 1.785247 g / cm^3
# Si number density = 17.893195 Si / 1000 Ang^3
#
#
#
# Elastic Constant Matrix: (Units=GPa)
#
#
# Indices 1 2 3 4 5 6 
#
# 1 69.7897 24.8717 54.1836 0.0000 0.0000 0.0000
# 2 24.8717 35.5298 45.6515 0.0000 0.0000 0.0000
# 3 54.1836 45.6515 161.1661 0.0000 0.0000 0.0000
# 4 0.0000 0.0000 0.0000 2.0593 0.0000 0.0000
# 5 0.0000 0.0000 0.0000 0.0000 32.2370 0.0000
# 6 0.0000 0.0000 0.0000 0.0000 0.0000 14.6804
#
#
#
# Elastic Compliance Matrix: (Units=1/GPa)
#
#
# Indices 1 2 3 4 5 6 
#
# 1 0.021026 -0.008861 -0.004559 0.000000 0.000000 0.000000
# 2 -0.008861 0.047985 -0.010613 0.000000 0.000000 0.000000
# 3 -0.004559 -0.010613 0.010744 0.000000 0.000000 0.000000
# 4 0.000000 0.000000 0.000000 0.485597 0.000000 0.000000
# 5 0.000000 0.000000 0.000000 0.000000 0.031020 0.000000
# 6 0.000000 0.000000 0.000000 0.000000 0.000000 0.068118
#
#
# Mechanical properties :
#
#
# Convention : Reuss Voigt Hill
#
# Bulk Modulus (GPa) = 31.55719 57.32214 44.43966
# Shear Modulus (GPa) = 6.91450 19.24726 13.08088
#
# Velocity S-wave (km/s) = 1.96792 3.28331 2.70673
# Velocity P-wave (km/s) = 4.77894 6.81753 5.88715
#
# Compressibility (1/GPa) = 0.03168850
#
# Stress axis : x y z
#
# Youngs Moduli (GPa) = 47.55963 20.84000 93.07803
#
# Poissons Ratio (x) = 0.18467 0.42434
# Poissons Ratio (y) = 0.42143 0.98783
# Poissons Ratio (z) = 0.21682 0.22117
#
# Static dielectric constant tensor:
#      x y z
#    x 3.253560 0.000000 0.000000 
#    y 0.000000 3.144600 0.000000 
#    z 0.000000 0.000000 3.703870 
# 
# 
# High freq. dielectric constant tensor:
#      x y z
#    x 1.675070 0.000000 0.000000 
#    y 0.000000 1.663100 0.000000 
#    z 0.000000 0.000000 1.708340 
# 
# From -- ./inp_files/63953.got.cif
#   From: 2010.03.12/outbox.cif.g09.slc.cpg/sg74_32_cif.got.tgz:63953.got - 2010.04.16 15:46:19.
