data_PCOD8299961
_publ_section_title
;
Structure prediction by ZEFSAII (Michael W. Deem and Ramdas Pophale) SiO2 
 PCOD8299961
Probable space group: I M M A
;
_chemical_formula_sum "Si O2"
_cell_formula_units_Z 96
_cell_length_a 9.386107
_cell_length_b 18.878479
_cell_length_c 29.081991
_cell_angle_alpha 90.000000
_cell_angle_beta 90.000000
_cell_angle_gamma 90.000000
_cell_volume 5153.195723
_symmetry_space_group_name_H-M "I M M A"
_symmetry_group_IT_number 74
_symmetry_cell_setting 'orthorhombic'
loop_
_space_group_symop_operation_xyz
x,y,z
-x,1/2-y,z
x,-y,-z
-x,1/2+y,-z
-x,-y,-z
x,1/2+y,-z
-x,y,z
x,1/2-y,z
1/2+x,1/2+y,1/2+z
1/2-x,-y,1/2+z
1/2+x,1/2-y,1/2-z
1/2-x,y,1/2-z
1/2-x,1/2-y,1/2-z
1/2+x,y,1/2-z
1/2-x,1/2+y,1/2+z
1/2+x,-y,1/2+z
loop_
_atom_site_type_symbol
_atom_site_label
_atom_site_fract_x
_atom_site_fract_y
_atom_site_fract_z
Si Si1 0.841038 0.671364 0.684658
Si Si2 0.334209 0.831868 0.296321
Si Si3 0.837283 0.944178 0.128876
Si Si4 0.334711 0.173595 0.077320
Si Si5 0.660542 0.545926 0.710896
Si Si6 0.332855 0.479295 0.051920
O O1 0.828864 0.750000 0.704930
O O2 0.808282 0.671922 0.631042
O O3 0.723245 0.624712 0.709575
O O4 0.000000 0.640560 0.693179
O O5 0.500000 0.849425 0.286928
O O6 0.309161 0.750000 0.308723
O O7 0.250000 0.852651 0.250000
O O8 0.282283 0.876816 0.340930
O O9 0.000000 0.931380 0.112837
O O10 0.824625 0.012110 0.161246
O O11 0.741978 0.961784 0.084440
O O12 0.500000 0.173555 0.064555
O O13 0.270909 0.250000 0.058584
O O14 0.267992 0.100662 0.057084
O O15 0.500000 0.548971 0.727990
O O16 0.750000 0.503110 0.750000
O O17 0.500000 0.480850 0.064283
O O18 0.301884 0.500000 0.000000
#
# Coordination Sequence:
#
# PCOD8299961 Si02
#       6
#    16  16  16  16  16  16
#     4   9  17  31  51  71  93 130 174 210 249 292
#     4   9  18  34  56  81 109 142 179 216 258 316
#     4  10  21  36  53  76 105 138 172 211 263 314
#     4   8  14  28  51  74  98 132 171 209 251 299
#     4  11  22  33  48  72 102 135 171 209 254 301
#     4  10  20  34  55  82 106 133 174 221 268 316
#
# _framework density 18.629214999999999
#
# number of rings (size 3 to 8) (size 9 to 14) (size 15 to 20)
#    0.000    2.500    1.667    2.000    0.000    2.333 
#    0.000    0.833    0.000    1.500    0.000    0.000 
#    0.000    0.000    0.000    0.000    0.000    0.000 
#
# Total GULP energy -594685.463113 kJ/mol
# GULP energy per Si atom -12389.280482 kJ/mol
# Density = 1.858681 g / cm^3
# Si number density = 18.629215 Si / 1000 Ang^3
#
#
#
# Elastic Constant Matrix: (Units=GPa)
#
#
# Indices 1 2 3 4 5 6 
#
# 1 80.3666 33.9249 47.7634 0.0000 0.0000 0.0000
# 2 33.9249 122.4038 51.1103 0.0000 0.0000 0.0000
# 3 47.7634 51.1103 94.6236 0.0000 0.0000 0.0000
# 4 0.0000 0.0000 0.0000 24.7013 0.0000 0.0000
# 5 0.0000 0.0000 0.0000 0.0000 25.8376 0.0000
# 6 0.0000 0.0000 0.0000 0.0000 0.0000 21.4856
#
#
#
# Elastic Compliance Matrix: (Units=1/GPa)
#
#
# Indices 1 2 3 4 5 6 
#
# 1 0.017998 -0.001543 -0.008252 0.000000 0.000000 0.000000
# 2 -0.001543 0.010681 -0.004991 0.000000 0.000000 0.000000
# 3 -0.008252 -0.004991 0.017429 0.000000 0.000000 0.000000
# 4 0.000000 0.000000 0.000000 0.040484 0.000000 0.000000
# 5 0.000000 0.000000 0.000000 0.000000 0.038703 0.000000
# 6 0.000000 0.000000 0.000000 0.000000 0.000000 0.046543
#
#
# Mechanical properties :
#
#
# Convention : Reuss Voigt Hill
#
# Bulk Modulus (GPa) = 60.46559 62.55457 61.51008
# Shear Modulus (GPa) = 24.16376 25.37792 24.77084
#
# Velocity S-wave (km/s) = 3.60542 3.69489 3.65043
# Velocity P-wave (km/s) = 7.06116 7.20101 7.13143
#
# Compressibility (1/GPa) = 0.01653833
#
# Stress axis : x y z
#
# Youngs Moduli (GPa) = 55.56048 93.62320 57.37544
#
# Poissons Ratio (x) = 0.14444 0.47345
# Poissons Ratio (y) = 0.08572 0.28634
# Poissons Ratio (z) = 0.45847 0.46723
#
# Static dielectric constant tensor:
#      x y z
#    x 3.257640 0.000000 0.000000 
#    y 0.000000 3.732560 0.000000 
#    z 0.000000 0.000000 3.354940 
# 
# 
# High freq. dielectric constant tensor:
#      x y z
#    x 1.697540 0.000000 0.000000 
#    y 0.000000 1.733980 0.000000 
#    z 0.000000 0.000000 1.706140 
# 
# From -- ./inp_files/64370.got.cif
#   From: 2010.03.12/outbox.cif.g09.slc.cpg/sg74_33_cif.got.tgz:64370.got - 2010.04.16 15:46:19.
