data_PCOD8299380
_publ_section_title
;
Structure prediction by ZEFSAII (Michael W. Deem and Ramdas Pophale) SiO2 
 PCOD8299380
Probable space group: I M M A
;
_chemical_formula_sum "Si O2"
_cell_formula_units_Z 88
_cell_length_a 9.224974
_cell_length_b 23.237033
_cell_length_c 23.089613
_cell_angle_alpha 90.000000
_cell_angle_beta 90.000000
_cell_angle_gamma 90.000000
_cell_volume 4949.513116
_symmetry_space_group_name_H-M "I M M A"
_symmetry_group_IT_number 74
_symmetry_cell_setting 'orthorhombic'
loop_
_space_group_symop_operation_xyz
x,y,z
-x,1/2-y,z
x,-y,-z
-x,1/2+y,-z
-x,-y,-z
x,1/2+y,-z
-x,y,z
x,1/2-y,z
1/2+x,1/2+y,1/2+z
1/2-x,-y,1/2+z
1/2+x,1/2-y,1/2-z
1/2-x,y,1/2-z
1/2-x,1/2-y,1/2-z
1/2+x,y,1/2-z
1/2-x,1/2+y,1/2+z
1/2+x,-y,1/2+z
loop_
_atom_site_type_symbol
_atom_site_label
_atom_site_fract_x
_atom_site_fract_y
_atom_site_fract_z
Si Si1 0.167467 0.185652 0.563804
Si Si2 0.335408 0.686816 0.553268
Si Si3 0.833489 0.501573 0.309238
Si Si4 0.157832 0.588174 0.594154
Si Si5 0.163718 0.578380 0.103330
Si Si6 0.747961 0.000000 0.500000
O O1 0.184782 0.250000 0.590222
O O2 0.222133 0.185543 0.498464
O O3 0.266285 0.141203 0.598053
O O4 0.000000 0.165868 0.564868
O O5 0.500000 0.674101 0.532199
O O6 0.329141 0.750000 0.583393
O O7 0.284433 0.635934 0.595493
O O8 0.750000 0.491804 0.250000
O O9 0.823319 0.442737 0.344738
O O10 0.756640 0.550633 0.346087
O O11 0.000000 0.519313 0.297694
O O12 0.160615 0.542903 0.540618
O O13 0.000000 0.617917 0.591090
O O14 0.000000 0.585892 0.124838
O O15 0.158080 0.541318 0.043525
#
# Coordination Sequence:
#
# PCOD8299380 Si02
#       6
#    16  16  16  16  16   8
#     4  10  20  33  50  74 107 144 179 215 258 310
#     4  10  20  32  48  74 108 142 176 214 258 312
#     4  10  22  39  57  79 105 137 178 220 266 314
#     4  10  20  33  53  77 106 139 173 217 263 314
#     4  11  21  33  53  79 109 141 175 217 262 313
#     4  10  20  30  48  78 110 138 174 210 260 316
#
# _framework density 17.779527000000002
#
# number of rings (size 3 to 8) (size 9 to 14) (size 15 to 20)
#    0.000    1.818    1.818    2.727    0.000    7.273 
#    0.000    0.000    0.000    1.091    0.000    0.000 
#    0.000    0.000    0.000    0.000    0.000    0.000 
#
# Total GULP energy -545299.977049 kJ/mol
# GULP energy per Si atom -12393.181297 kJ/mol
# Density = 1.773906 g / cm^3
# Si number density = 17.779527 Si / 1000 Ang^3
#
#
#
# Elastic Constant Matrix: (Units=GPa)
#
#
# Indices 1 2 3 4 5 6 
#
# 1 145.9003 61.0932 41.9024 0.0000 0.0000 0.0000
# 2 61.0932 107.3141 30.5328 0.0000 0.0000 0.0000
# 3 41.9024 30.5328 87.1869 0.0000 0.0000 0.0000
# 4 0.0000 0.0000 0.0000 13.2701 0.0000 0.0000
# 5 0.0000 0.0000 0.0000 0.0000 22.4285 0.0000
# 6 0.0000 0.0000 0.0000 0.0000 0.0000 25.0959
#
#
#
# Elastic Compliance Matrix: (Units=1/GPa)
#
#
# Indices 1 2 3 4 5 6 
#
# 1 0.009665 -0.004643 -0.003019 0.000000 0.000000 0.000000
# 2 -0.004643 0.012580 -0.002174 0.000000 0.000000 0.000000
# 3 -0.003019 -0.002174 0.013682 0.000000 0.000000 0.000000
# 4 0.000000 0.000000 0.000000 0.075357 0.000000 0.000000
# 5 0.000000 0.000000 0.000000 0.000000 0.044586 0.000000
# 6 0.000000 0.000000 0.000000 0.000000 0.000000 0.039847
#
#
# Mechanical properties :
#
#
# Convention : Reuss Voigt Hill
#
# Bulk Modulus (GPa) = 61.52072 67.49536 64.50804
# Shear Modulus (GPa) = 22.64390 25.95043 24.29716
#
# Velocity S-wave (km/s) = 3.57262 3.82457 3.70074
# Velocity P-wave (km/s) = 7.18994 7.58604 7.39064
#
# Compressibility (1/GPa) = 0.01625469
#
# Stress axis : x y z
#
# Youngs Moduli (GPa) = 103.46124 79.48818 73.08900
#
# Poissons Ratio (x) = 0.36910 0.22066
# Poissons Ratio (y) = 0.48042 0.15890
# Poissons Ratio (z) = 0.31236 0.17281
#
# Static dielectric constant tensor:
#      x y z
#    x 3.419720 0.000000 0.000000 
#    y 0.000000 3.602430 0.000000 
#    z 0.000000 0.000000 3.035660 
# 
# 
# High freq. dielectric constant tensor:
#      x y z
#    x 1.706060 0.000000 0.000000 
#    y 0.000000 1.694310 0.000000 
#    z 0.000000 0.000000 1.643260 
# 
# From -- ./inp_files/48750.got.cif
#   From: 2010.03.12/outbox.cif.g09.slc.cpg/sg74_25_cif.got.tgz:48750.got - 2010.04.16 15:46:19.
