data_PCOD8299607
_publ_section_title
;
Structure prediction by ZEFSAII (Michael W. Deem and Ramdas Pophale) SiO2 
 PCOD8299607
Probable space group: I M M A
;
_chemical_formula_sum "Si O2"
_cell_formula_units_Z 104
_cell_length_a 8.858259
_cell_length_b 25.576862
_cell_length_c 23.834165
_cell_angle_alpha 90.000000
_cell_angle_beta 90.000000
_cell_angle_gamma 90.000000
_cell_volume 5400.022582
_symmetry_space_group_name_H-M "I M M A"
_symmetry_group_IT_number 74
_symmetry_cell_setting 'orthorhombic'
loop_
_space_group_symop_operation_xyz
x,y,z
-x,1/2-y,z
x,-y,-z
-x,1/2+y,-z
-x,-y,-z
x,1/2+y,-z
-x,y,z
x,1/2-y,z
1/2+x,1/2+y,1/2+z
1/2-x,-y,1/2+z
1/2+x,1/2-y,1/2-z
1/2-x,y,1/2-z
1/2-x,1/2-y,1/2-z
1/2+x,y,1/2-z
1/2-x,1/2+y,1/2+z
1/2+x,-y,1/2+z
loop_
_atom_site_type_symbol
_atom_site_label
_atom_site_fract_x
_atom_site_fract_y
_atom_site_fract_z
Si Si1 0.824660 0.434743 0.192739
Si Si2 0.177315 0.660827 0.882176
Si Si3 0.822186 0.447757 0.808680
Si Si4 0.177362 0.859289 0.104667
Si Si5 0.178283 0.688933 0.501332
Si Si6 0.678549 0.750000 0.810395
Si Si7 0.335249 0.190521 0.801648
O O1 0.750000 0.413755 0.250000
O O2 0.787565 0.397576 0.140007
O O3 0.768564 0.493164 0.177342
O O4 0.000000 0.435142 0.205811
O O5 0.236385 0.667393 0.944671
O O6 0.268486 0.699081 0.842573
O O7 0.000000 0.673862 0.879890
O O8 0.750000 0.429180 0.750000
O O9 0.770906 0.411610 0.861408
O O10 0.000000 0.443295 0.801699
O O11 0.227903 0.811629 0.144227
O O12 0.000000 0.858332 0.092044
O O13 0.267285 0.850440 0.047228
O O14 0.220776 0.750000 0.489942
O O15 0.000000 0.683379 0.509484
O O16 0.500000 0.750000 0.805582
O O17 0.750000 0.750000 0.750000
O O18 0.500000 0.164016 0.811812
O O19 0.363141 0.250000 0.785655
O O20 0.250000 0.161963 0.750000
#
# Coordination Sequence:
#
# PCOD8299607 Si02
#       7
#    16  16  16  16  16   8  16
#     4   9  19  36  59  87 117 149 184 227 281 340
#     4  11  22  38  61  87 115 150 191 234 282 339
#     4   9  19  36  57  84 116 148 186 233 288 341
#     4  11  22  35  55  80 107 145 191 237 283 339
#     4  11  24  41  59  80 111 152 193 239 290 341
#     4  12  24  38  58  88 124 156 187 230 281 338
#     4  10  20  33  49  72 104 139 177 228 288 345
#
# _framework density 19.259180000000001
#
# number of rings (size 3 to 8) (size 9 to 14) (size 15 to 20)
#    0.000    1.692    0.769    3.923    0.000    8.615 
#    0.000    0.769    0.000    4.615    0.000    0.000 
#    0.000    0.000    0.000    0.000    0.000    0.000 
#
# Total GULP energy -644595.591974 kJ/mol
# GULP energy per Si atom -12396.069076 kJ/mol
# Density = 1.921535 g / cm^3
# Si number density = 19.259180 Si / 1000 Ang^3
#
#
#
# Elastic Constant Matrix: (Units=GPa)
#
#
# Indices 1 2 3 4 5 6 
#
# 1 86.4973 44.2057 44.3366 0.0000 0.0000 0.0000
# 2 44.2057 106.3932 56.8722 0.0000 0.0000 0.0000
# 3 44.3366 56.8722 146.1547 -0.0002 0.0000 0.0000
# 4 0.0000 0.0000 -0.0002 33.7897 0.0000 0.0000
# 5 0.0000 0.0000 0.0000 0.0000 38.4764 0.0000
# 6 0.0000 0.0000 0.0000 0.0000 0.0000 13.6978
#
#
#
# Elastic Compliance Matrix: (Units=1/GPa)
#
#
# Indices 1 2 3 4 5 6 
#
# 1 0.015522 -0.004965 -0.002777 0.000000 0.000000 0.000000
# 2 -0.004965 0.013456 -0.003730 0.000000 0.000000 0.000000
# 3 -0.002777 -0.003730 0.009136 0.000000 0.000000 0.000000
# 4 0.000000 0.000000 0.000000 0.029595 0.000000 0.000000
# 5 0.000000 0.000000 0.000000 0.000000 0.025990 0.000000
# 6 0.000000 0.000000 0.000000 0.000000 0.000000 0.073005
#
#
# Mechanical properties :
#
#
# Convention : Reuss Voigt Hill
#
# Bulk Modulus (GPa) = 65.91758 69.98602 67.95180
# Shear Modulus (GPa) = 25.68026 30.10149 27.89088
#
# Velocity S-wave (km/s) = 3.65554 3.95773 3.80963
# Velocity P-wave (km/s) = 7.21929 7.56986 7.39665
#
# Compressibility (1/GPa) = 0.01517046
#
# Stress axis : x y z
#
# Youngs Moduli (GPa) = 64.42603 74.31756 109.46053
#
# Poissons Ratio (x) = 0.36898 0.30393
# Poissons Ratio (y) = 0.31987 0.40827
# Poissons Ratio (z) = 0.17888 0.27719
#
# Static dielectric constant tensor:
#      x y z
#    x 3.729050 0.000000 0.000000 
#    y 0.000000 3.763380 0.000000 
#    z 0.000000 0.000000 3.510630 
# 
# 
# High freq. dielectric constant tensor:
#      x y z
#    x 1.760540 0.000000 0.000000 
#    y 0.000000 1.747180 0.000000 
#    z 0.000000 0.000000 1.744970 
# 
# From -- ./inp_files/49334.got.cif
#   From: 2010.03.12/outbox.cif.g09.slc.cpg/sg74_25_cif.got.tgz:49334.got - 2010.04.16 15:46:19.
