data_PCOD8299465
_publ_section_title
;
Structure prediction by ZEFSAII (Michael W. Deem and Ramdas Pophale) SiO2 
 PCOD8299465
Probable space group: I M M A
;
_chemical_formula_sum "Si O2"
_cell_formula_units_Z 80
_cell_length_a 9.137385
_cell_length_b 28.549916
_cell_length_c 14.876688
_cell_angle_alpha 90.000000
_cell_angle_beta 90.000000
_cell_angle_gamma 90.000000
_cell_volume 3880.905018
_symmetry_space_group_name_H-M "I M M A"
_symmetry_group_IT_number 74
_symmetry_cell_setting 'orthorhombic'
loop_
_space_group_symop_operation_xyz
x,y,z
-x,1/2-y,z
x,-y,-z
-x,1/2+y,-z
-x,-y,-z
x,1/2+y,-z
-x,y,z
x,1/2-y,z
1/2+x,1/2+y,1/2+z
1/2-x,-y,1/2+z
1/2+x,1/2-y,1/2-z
1/2-x,y,1/2-z
1/2-x,1/2-y,1/2-z
1/2+x,y,1/2-z
1/2-x,1/2+y,1/2+z
1/2+x,-y,1/2+z
loop_
_atom_site_type_symbol
_atom_site_label
_atom_site_fract_x
_atom_site_fract_y
_atom_site_fract_z
Si Si1 0.326408 0.801913 0.027362
Si Si2 0.327092 0.431522 0.337314
Si Si3 0.663923 0.019473 0.901051
Si Si4 0.343956 0.196643 0.173262
Si Si5 0.827651 0.893381 0.033462
O O1 0.500000 0.810661 0.035311
O O2 0.288365 0.750000 0.066969
O O3 0.271471 0.804071 0.924438
O O4 0.234406 0.843798 0.071909
O O5 0.500000 0.435547 0.323440
O O6 0.250000 0.407689 0.250000
O O7 0.259257 0.483508 0.343173
O O8 0.290008 0.401421 0.427324
O O9 0.500000 0.026001 0.860218
O O10 0.749886 0.068481 0.903764
O O11 0.649032 0.000000 0.000000
O O12 0.500000 0.170309 0.170574
O O13 0.369460 0.250000 0.203234
O O14 0.250000 0.170641 0.250000
O O15 0.000000 0.895946 0.049639
#
# Coordination Sequence:
#
# PCOD8299465 Si02
#       5
#    16  16  16  16  16
#     4   9  18  31  44  59  83 117 157 199 238 276
#     4  10  20  33  49  71  98 125 156 195 237 283
#     4   9  17  31  51  71  92 121 154 189 235 289
#     4   8  14  24  36  49  67  95 133 177 223 265
#     4  10  20  32  47  68  94 125 160 198 239 284
#
# _framework density 20.613748000000001
#
# number of rings (size 3 to 8) (size 9 to 14) (size 15 to 20)
#    0.000    2.800    0.000    3.000    0.000    6.800 
#    0.000    6.000    0.000    0.000    0.000    0.000 
#    0.000    0.800    0.000    3.000    0.000    4.600 
#
# Total GULP energy -495563.433026 kJ/mol
# GULP energy per Si atom -12389.085826 kJ/mol
# Density = 2.056683 g / cm^3
# Si number density = 20.613748 Si / 1000 Ang^3
#
#
#
# Elastic Constant Matrix: (Units=GPa)
#
#
# Indices 1 2 3 4 5 6 
#
# 1 115.5855 64.9300 7.8021 0.0000 0.0001 0.0000
# 2 64.9300 146.0453 1.8840 0.0005 0.0000 -0.0001
# 3 7.8021 1.8840 12.9786 0.0019 0.0001 -0.0001
# 4 0.0000 0.0005 0.0019 5.1125 0.0000 -0.0001
# 5 0.0001 0.0000 0.0001 0.0000 21.5380 0.0002
# 6 0.0000 -0.0001 -0.0001 -0.0001 0.0002 29.4624
#
#
#
# Elastic Compliance Matrix: (Units=1/GPa)
#
#
# Indices 1 2 3 4 5 6 
#
# 1 0.012052 -0.005275 -0.006479 0.000003 0.000000 0.000000
# 2 -0.005275 0.009168 0.001840 -0.000002 0.000000 0.000000
# 3 -0.006479 0.001840 0.080678 -0.000030 0.000000 0.000000
# 4 0.000003 -0.000002 -0.000030 0.195600 0.000000 0.000001
# 5 0.000000 0.000000 0.000000 0.000000 0.046430 0.000000
# 6 0.000000 0.000000 0.000000 0.000001 0.000000 0.033942
#
#
# Mechanical properties :
#
#
# Convention : Reuss Voigt Hill
#
# Bulk Modulus (GPa) = 12.18469 47.09351 29.63910
# Shear Modulus (GPa) = 11.76321 24.55547 18.15934
#
# Velocity S-wave (km/s) = 2.39142 3.45515 2.97127
# Velocity P-wave (km/s) = 3.68089 6.22998 5.11672
#
# Compressibility (1/GPa) = 0.08207018
#
# Stress axis : x y z
#
# Youngs Moduli (GPa) = 82.97405 109.06944 12.39498
#
# Poissons Ratio (x) = 0.57530 0.08031
# Poissons Ratio (y) = 0.43765 -0.02281
# Poissons Ratio (z) = 0.53762 -0.20068
#
# Static dielectric constant tensor:
#      x y z
#    x 3.902910 0.000000 0.000000 
#    y 0.000000 3.780670 0.000000 
#    z 0.000000 0.000000 3.251130 
# 
# 
# High freq. dielectric constant tensor:
#      x y z
#    x 1.810350 0.000000 0.000000 
#    y 0.000000 1.812150 0.000000 
#    z 0.000000 0.000000 1.741230 
# 
# From -- ./inp_files/39747.got.cif
#   From: 2010.03.12/outbox.cif.g09.slc.cpg/sg74_20_cif.got.tgz:39747.got - 2010.04.16 15:46:19.
