data_PCOD8299442
_publ_section_title
;
Structure prediction by ZEFSAII (Michael W. Deem and Ramdas Pophale) SiO2 
 PCOD8299442
Probable space group: I M M A
;
_chemical_formula_sum "Si O2"
_cell_formula_units_Z 88
_cell_length_a 18.514253
_cell_length_b 8.459974
_cell_length_c 29.159773
_cell_angle_alpha 90.000000
_cell_angle_beta 90.000000
_cell_angle_gamma 90.000000
_cell_volume 4567.298132
_symmetry_space_group_name_H-M "I M M A"
_symmetry_group_IT_number 74
_symmetry_cell_setting 'orthorhombic'
loop_
_space_group_symop_operation_xyz
x,y,z
-x,1/2-y,z
x,-y,-z
-x,1/2+y,-z
-x,-y,-z
x,1/2+y,-z
-x,y,z
x,1/2-y,z
1/2+x,1/2+y,1/2+z
1/2-x,-y,1/2+z
1/2+x,1/2-y,1/2-z
1/2-x,y,1/2-z
1/2-x,1/2-y,1/2-z
1/2+x,y,1/2-z
1/2-x,1/2+y,1/2+z
1/2+x,-y,1/2+z
loop_
_atom_site_type_symbol
_atom_site_label
_atom_site_fract_x
_atom_site_fract_y
_atom_site_fract_z
Si Si1 0.686704 0.062306 0.218270
Si Si2 0.134821 0.562505 0.888978
Si Si3 0.419054 0.937297 0.950349
Si Si4 0.000000 0.561845 0.948618
Si Si5 0.579296 0.061960 0.292559
Si Si6 0.295282 0.061481 0.116260
O O1 0.693658 0.250000 0.214790
O O2 0.750000 0.993840 0.250000
O O3 0.613934 0.008951 0.244276
O O4 0.690721 0.991380 0.167149
O O5 0.130119 0.750000 0.889812
O O6 0.072447 0.496581 0.923060
O O7 0.122201 0.499843 0.837182
O O8 0.216161 0.507059 0.902713
O O9 0.500000 0.994400 0.936237
O O10 0.416069 0.750000 0.950895
O O11 0.359193 0.006937 0.915603
O O12 0.398062 0.000000 0.000000
O O13 0.000000 0.750000 0.948555
O O14 0.000000 0.500000 0.000000
O O15 0.500000 0.987659 0.294028
O O16 0.576775 0.250000 0.294969
O O17 0.298570 0.250000 0.117410
#
# Coordination Sequence:
#
# PCOD8299442 Si02
#       6
#    16  16  16   8  16  16
#     4   9  14  20  32  53  82 114 142 168 205 255
#     4   9  15  25  40  57  80 114 149 178 214 261
#     4   9  18  32  48  65  88 117 147 182 224 265
#     4  10  20  32  46  64  88 116 150 192 227 258
#     4   9  14  20  32  51  77 112 148 172 200 256
#     4   9  16  25  40  61  87 117 147 180 219 263
#
# _framework density 19.267408
#
# number of rings (size 3 to 8) (size 9 to 14) (size 15 to 20)
#    0.000    2.909    2.727    0.000    0.000    1.455 
#    0.000    3.636    0.000    0.000    0.000    0.000 
#    0.000    2.182    0.000    0.182    0.000    0.000 
#
# Total GULP energy -545169.296353 kJ/mol
# GULP energy per Si atom -12390.211281 kJ/mol
# Density = 1.922355 g / cm^3
# Si number density = 19.267408 Si / 1000 Ang^3
#
#
#
# Elastic Constant Matrix: (Units=GPa)
#
#
# Indices 1 2 3 4 5 6 
#
# 1 189.2532 4.9179 107.0265 0.0000 0.0000 0.0000
# 2 4.9179 1.0253 4.4429 0.0000 0.0000 0.0000
# 3 107.0265 4.4429 162.0491 0.0000 0.0000 0.0000
# 4 0.0000 0.0000 0.0000 14.0652 0.0000 0.0000
# 5 0.0000 0.0000 0.0000 0.0000 40.4785 0.0000
# 6 0.0000 0.0000 0.0000 0.0000 0.0000 5.0488
#
#
#
# Elastic Compliance Matrix: (Units=1/GPa)
#
#
# Indices 1 2 3 4 5 6 
#
# 1 0.008756 -0.019224 -0.005256 0.000000 0.000000 0.000000
# 2 -0.019224 1.149061 -0.018807 0.000000 0.000000 0.000000
# 3 -0.005256 -0.018807 0.010158 0.000000 0.000000 0.000000
# 4 0.000000 0.000000 0.000000 0.071097 0.000000 0.000000
# 5 0.000000 0.000000 0.000000 0.000000 0.024704 0.000000
# 6 0.000000 0.000000 0.000000 0.000000 0.000000 0.198068
#
#
# Mechanical properties :
#
#
# Convention : Reuss Voigt Hill
#
# Bulk Modulus (GPa) = 0.92473 65.01135 32.96804
# Shear Modulus (GPa) = 2.61933 27.64784 15.13359
#
# Velocity S-wave (km/s) = 1.16722 3.79219 2.80563
# Velocity P-wave (km/s) = 1.51576 7.27936 5.25769
#
# Compressibility (1/GPa) = 1.08140099
#
# Stress axis : x y z
#
# Youngs Moduli (GPa) = 114.21160 0.87028 98.44683
#
# Poissons Ratio (x) = 0.01673 0.51741
# Poissons Ratio (y) = 2.19557 1.85151
# Poissons Ratio (z) = 0.60026 0.01637
#
# Static dielectric constant tensor:
#      x y z
#    x 4.007910 0.000000 0.000000 
#    y 0.000000 2.699780 0.000000 
#    z 0.000000 0.000000 3.687380 
# 
# 
# High freq. dielectric constant tensor:
#      x y z
#    x 1.767590 0.000000 0.000000 
#    y 0.000000 1.663720 0.000000 
#    z 0.000000 0.000000 1.750610 
# 
# From -- ./inp_files/72927.got.cif
#   From: 2010.03.12/outbox.cif.g09.slc.cpg/sg74_37_cif.got.tgz:72927.got - 2010.04.16 15:46:19.
