data_PCOD8299109
_publ_section_title
;
Structure prediction by ZEFSAII (Michael W. Deem and Ramdas Pophale) SiO2 
 PCOD8299109
Probable space group: I M M A
;
_chemical_formula_sum "Si O2"
_cell_formula_units_Z 92
_cell_length_a 21.331364
_cell_length_b 26.113128
_cell_length_c 8.591118
_cell_angle_alpha 90.000000
_cell_angle_beta 90.000000
_cell_angle_gamma 90.000000
_cell_volume 4785.498763
_symmetry_space_group_name_H-M "I M M A"
_symmetry_group_IT_number 74
_symmetry_cell_setting 'orthorhombic'
loop_
_space_group_symop_operation_xyz
x,y,z
-x,1/2-y,z
x,-y,-z
-x,1/2+y,-z
-x,-y,-z
x,1/2+y,-z
-x,y,z
x,1/2-y,z
1/2+x,1/2+y,1/2+z
1/2-x,-y,1/2+z
1/2+x,1/2-y,1/2-z
1/2-x,y,1/2-z
1/2-x,1/2-y,1/2-z
1/2+x,y,1/2-z
1/2-x,1/2+y,1/2+z
1/2+x,-y,1/2+z
loop_
_atom_site_type_symbol
_atom_site_label
_atom_site_fract_x
_atom_site_fract_y
_atom_site_fract_z
Si Si1 0.866466 0.750000 0.649245
Si Si2 0.629434 0.846140 0.354681
Si Si3 0.500000 0.750000 0.776922
Si Si4 0.181544 0.053031 0.320208
Si Si5 0.000000 0.307278 0.975099
Si Si6 0.680621 0.346884 0.319896
Si Si7 0.819430 0.440282 0.682775
Si Si8 0.319779 0.250000 0.814544
O O1 0.940308 0.750000 0.607290
O O2 0.856727 0.701161 0.757016
O O3 0.820368 0.750000 0.502173
O O4 0.560079 0.839970 0.423147
O O5 0.680800 0.844349 0.493073
O O6 0.634164 0.899567 0.262168
O O7 0.643880 0.800362 0.237501
O O8 0.500000 0.800156 0.663034
O O9 0.250000 0.047778 0.250000
O O10 0.146605 0.099676 0.231330
O O11 0.184948 0.069174 0.499514
O O12 0.150754 0.997176 0.290344
O O13 0.000000 0.250000 0.898040
O O14 0.750000 0.345709 0.250000
O O15 0.750000 0.433855 0.750000
O O16 0.250000 0.250000 0.750000
#
# Coordination Sequence:
#
# PCOD8299109 Si02
#       8
#     8  16   4  16   8  16  16   8
#     4  12  22  36  59  82 116 151 198 242 291 351
#     4  12  22  37  61  82 120 157 198 247 286 355
#     4  10  20  42  60  82 110 160 208 244 278 348
#     4   9  19  34  54  82 124 157 189 236 297 368
#     4  10  20  43  60  78 118 158 209 235 296 339
#     4  11  20  34  56  85 115 154 189 239 306 355
#     4  10  19  34  56  89 117 153 197 241 299 358
#     4  12  24  37  54  90 125 147 183 243 308 358
#
# _framework density 19.224747000000001
#
# number of rings (size 3 to 8) (size 9 to 14) (size 15 to 20)
#    0.261    1.043    2.609    5.478    0.000    2.783 
#    0.000    0.000    0.000    5.217    0.000    0.000 
#    0.000    0.000    0.000    0.000    0.000    0.000 
#
# Total GULP energy -570169.063108 kJ/mol
# GULP energy per Si atom -12394.979633 kJ/mol
# Density = 1.918099 g / cm^3
# Si number density = 19.224747 Si / 1000 Ang^3
#
#
#
# Elastic Constant Matrix: (Units=GPa)
#
#
# Indices 1 2 3 4 5 6 
#
# 1 73.7225 21.5068 13.8099 0.0000 0.0000 0.0000
# 2 21.5068 151.5126 45.2971 0.0000 0.0000 0.0000
# 3 13.8099 45.2971 105.3686 0.0000 0.0000 0.0000
# 4 0.0000 0.0000 0.0000 22.4303 0.0000 0.0000
# 5 0.0000 0.0000 0.0000 0.0000 25.2548 0.0000
# 6 0.0000 0.0000 0.0000 0.0000 0.0000 13.7738
#
#
#
# Elastic Compliance Matrix: (Units=1/GPa)
#
#
# Indices 1 2 3 4 5 6 
#
# 1 0.014270 -0.001683 -0.001147 0.000000 0.000000 0.000000
# 2 -0.001683 0.007772 -0.003121 0.000000 0.000000 0.000000
# 3 -0.001147 -0.003121 0.010982 0.000000 0.000000 0.000000
# 4 0.000000 0.000000 0.000000 0.044583 0.000000 0.000000
# 5 0.000000 0.000000 0.000000 0.000000 0.039596 0.000000
# 6 0.000000 0.000000 0.000000 0.000000 0.000000 0.072602
#
#
# Mechanical properties :
#
#
# Convention : Reuss Voigt Hill
#
# Bulk Modulus (GPa) = 47.33948 54.64791 50.99370
# Shear Modulus (GPa) = 23.95246 28.95776 26.45511
#
# Velocity S-wave (km/s) = 3.53359 3.88529 3.71360
# Velocity P-wave (km/s) = 6.42853 6.97243 6.70600
#
# Compressibility (1/GPa) = 0.02112402
#
# Stress axis : x y z
#
# Youngs Moduli (GPa) = 70.07653 128.66866 91.05564
#
# Poissons Ratio (x) = 0.21651 0.10443
# Poissons Ratio (y) = 0.11792 0.28414
# Poissons Ratio (z) = 0.08037 0.40151
#
# Static dielectric constant tensor:
#      x y z
#    x 3.022390 0.000000 0.000000 
#    y 0.000000 4.305310 0.000000 
#    z 0.000000 0.000000 3.582980 
# 
# 
# High freq. dielectric constant tensor:
#      x y z
#    x 1.701370 0.000000 0.000000 
#    y 0.000000 1.766890 0.000000 
#    z 0.000000 0.000000 1.756700 
# 
# From -- ./inp_files/12752.got.cif
#   From: 2010.03.12/outbox.cif.g09.slc.cpg/sg74_7_cif.got.tgz:12752.got - 2010.04.16 15:46:19.
