data_PCOD8299540
_publ_section_title
;
Structure prediction by ZEFSAII (Michael W. Deem and Ramdas Pophale) SiO2 
 PCOD8299540
Probable space group: I M M A
;
_chemical_formula_sum "Si O2"
_cell_formula_units_Z 112
_cell_length_a 24.494624
_cell_length_b 14.466653
_cell_length_c 15.928537
_cell_angle_alpha 90.000000
_cell_angle_beta 90.000000
_cell_angle_gamma 90.000000
_cell_volume 5644.360325
_symmetry_space_group_name_H-M "I M M A"
_symmetry_group_IT_number 74
_symmetry_cell_setting 'orthorhombic'
loop_
_space_group_symop_operation_xyz
x,y,z
-x,1/2-y,z
x,-y,-z
-x,1/2+y,-z
-x,-y,-z
x,1/2+y,-z
-x,y,z
x,1/2-y,z
1/2+x,1/2+y,1/2+z
1/2-x,-y,1/2+z
1/2+x,1/2-y,1/2-z
1/2-x,y,1/2-z
1/2-x,1/2-y,1/2-z
1/2+x,y,1/2-z
1/2-x,1/2+y,1/2+z
1/2+x,-y,1/2+z
loop_
_atom_site_type_symbol
_atom_site_label
_atom_site_fract_x
_atom_site_fract_y
_atom_site_fract_z
Si Si1 0.653123 0.857484 0.947666
Si Si2 0.791787 0.493642 0.812634
Si Si3 0.755014 0.851875 0.058971
Si Si4 0.386294 0.010778 0.197244
Si Si5 0.148718 0.591418 0.952879
Si Si6 0.061434 0.647068 0.826991
Si Si7 0.562843 0.355016 0.914052
O O1 0.658799 0.750000 0.919508
O O2 0.646234 0.924798 0.868521
O O3 0.707320 0.890858 0.998052
O O4 0.599639 0.871932 0.004441
O O5 0.750000 0.544109 0.750000
O O6 0.759464 0.409572 0.855902
O O7 0.844070 0.459477 0.759410
O O8 0.808584 0.568928 0.879881
O O9 0.737299 0.750000 0.086363
O O10 0.815104 0.847822 0.016194
O O11 0.424463 0.075787 0.253737
O O12 0.421896 0.929592 0.156604
O O13 0.097244 0.641932 0.912224
O O14 0.127337 0.500000 0.000000
O O15 0.068124 0.750000 0.789394
O O16 0.000000 0.627878 0.856501
O O17 0.500000 0.370061 0.940635
O O18 0.571757 0.250000 0.879998
#
# Coordination Sequence:
#
# PCOD8299540 Si02
#       7
#    16  16  16  16  16  16  16
#     4  10  21  36  56  83 112 146 187 227 271 327
#     4  10  20  32  50  77 106 136 173 217 266 322
#     4  10  20  35  55  78 107 141 179 224 270 321
#     4  11  21  35  56  80 110 146 181 224 278 331
#     4   9  19  35  54  77 104 140 182 224 270 322
#     4  10  21  36  55  81 111 143 182 229 280 332
#     4  10  22  38  55  78 109 146 188 230 272 324
#
# _framework density 19.842815999999999
#
# number of rings (size 3 to 8) (size 9 to 14) (size 15 to 20)
#    0.000    2.000    0.000    3.429    0.000    5.143 
#    0.000    1.429    0.000    6.857    0.000   15.000 
#    0.000    0.000    0.000    0.000    0.000    0.000 
#
# Total GULP energy -694180.312467 kJ/mol
# GULP energy per Si atom -12396.077008 kJ/mol
# Density = 1.979765 g / cm^3
# Si number density = 19.842816 Si / 1000 Ang^3
#
#
#
# Elastic Constant Matrix: (Units=GPa)
#
#
# Indices 1 2 3 4 5 6 
#
# 1 107.9575 36.7909 37.7525 0.0000 0.0000 0.0000
# 2 36.7909 81.5505 35.4225 0.0000 0.0000 0.0000
# 3 37.7525 35.4225 80.9272 0.0000 0.0000 0.0000
# 4 0.0000 0.0000 0.0000 21.2008 0.0000 0.0000
# 5 0.0000 0.0000 0.0000 0.0000 29.5110 0.0000
# 6 0.0000 0.0000 0.0000 0.0000 0.0000 11.4525
#
#
#
# Elastic Compliance Matrix: (Units=1/GPa)
#
#
# Indices 1 2 3 4 5 6 
#
# 1 0.011887 -0.003647 -0.003949 0.000000 0.000000 0.000000
# 2 -0.003647 0.016260 -0.005416 0.000000 0.000000 0.000000
# 3 -0.003949 -0.005416 0.016569 0.000000 0.000000 0.000000
# 4 0.000000 0.000000 0.000000 0.047168 0.000000 0.000000
# 5 0.000000 0.000000 0.000000 0.000000 0.033886 0.000000
# 6 0.000000 0.000000 0.000000 0.000000 0.000000 0.087317
#
#
# Mechanical properties :
#
#
# Convention : Reuss Voigt Hill
#
# Bulk Modulus (GPa) = 53.49683 54.48523 53.99103
# Shear Modulus (GPa) = 20.37972 23.13082 21.75527
#
# Velocity S-wave (km/s) = 3.20825 3.41794 3.31476
# Velocity P-wave (km/s) = 6.38300 6.56464 6.47445
#
# Compressibility (1/GPa) = 0.01869270
#
# Stress axis : x y z
#
# Youngs Moduli (GPa) = 84.12725 61.49962 60.35252
#
# Poissons Ratio (x) = 0.22432 0.23831
# Poissons Ratio (y) = 0.30685 0.32685
# Poissons Ratio (z) = 0.33219 0.33306
#
# Static dielectric constant tensor:
#      x y z
#    x 3.758910 0.000000 0.000000 
#    y 0.000000 3.594140 0.000000 
#    z 0.000000 0.000000 3.655030 
# 
# 
# High freq. dielectric constant tensor:
#      x y z
#    x 1.782860 0.000000 0.000000 
#    y 0.000000 1.769160 0.000000 
#    z 0.000000 0.000000 1.767310 
# 
# From -- ./inp_files/32686.got.cif
#   From: 2010.03.12/outbox.cif.g09.slc.cpg/sg74_17_cif.got.tgz:32686.got - 2010.04.16 15:46:19.
