data_PCOD8299415
_publ_section_title
;
Structure prediction by ZEFSAII (Michael W. Deem and Ramdas Pophale) SiO2 
 PCOD8299415
Probable space group: I M M A
;
_chemical_formula_sum "Si O2"
_cell_formula_units_Z 128
_cell_length_a 9.691924
_cell_length_b 25.463657
_cell_length_c 28.890670
_cell_angle_alpha 90.000000
_cell_angle_beta 90.000000
_cell_angle_gamma 90.000000
_cell_volume 7129.981273
_symmetry_space_group_name_H-M "I M M A"
_symmetry_group_IT_number 74
_symmetry_cell_setting 'orthorhombic'
loop_
_space_group_symop_operation_xyz
x,y,z
-x,1/2-y,z
x,-y,-z
-x,1/2+y,-z
-x,-y,-z
x,1/2+y,-z
-x,y,z
x,1/2-y,z
1/2+x,1/2+y,1/2+z
1/2-x,-y,1/2+z
1/2+x,1/2-y,1/2-z
1/2-x,y,1/2-z
1/2-x,1/2-y,1/2-z
1/2+x,y,1/2-z
1/2-x,1/2+y,1/2+z
1/2+x,-y,1/2+z
loop_
_atom_site_type_symbol
_atom_site_label
_atom_site_fract_x
_atom_site_fract_y
_atom_site_fract_z
Si Si1 0.657677 0.026834 0.207580
Si Si2 0.152446 0.187661 0.789529
Si Si3 0.842395 0.150709 0.292214
Si Si4 0.160476 0.188800 0.893297
Si Si5 0.835858 0.808121 0.609997
Si Si6 0.836207 0.403769 0.449457
Si Si7 0.836635 0.606304 0.445012
Si Si8 0.336355 0.997432 0.107167
O O1 0.500000 0.010957 0.217858
O O2 0.750000 0.006153 0.250000
O O3 0.672103 0.088763 0.200693
O O4 0.713245 0.000235 0.160380
O O5 0.147323 0.250000 0.784823
O O6 0.250000 0.162769 0.750000
O O7 0.204718 0.173064 0.840934
O O8 0.000000 0.164446 0.781346
O O9 0.750000 0.171161 0.250000
O O10 0.785429 0.178323 0.338346
O O11 0.000000 0.166527 0.281914
O O12 0.187119 0.250000 0.902139
O O13 0.256842 0.157864 0.928655
O O14 0.000000 0.175110 0.901355
O O15 0.782429 0.750000 0.596180
O O16 0.776050 0.850586 0.573764
O O17 0.000000 0.810335 0.609197
O O18 0.791277 0.405858 0.502673
O O19 0.774148 0.454411 0.422876
O O20 0.000000 0.404285 0.445113
O O21 0.786397 0.557367 0.414207
O O22 0.000000 0.616337 0.440914
O O23 0.500000 0.001856 0.105197
#
# Coordination Sequence:
#
# PCOD8299415 Si02
#       8
#    16  16  16  16  16  16  16  16
#     4   9  16  28  48  70  96 130 166 198 238 296
#     4   8  14  26  46  70  92 119 156 191 226 275
#     4   9  16  27  44  66  92 125 162 198 237 287
#     4   9  19  36  53  69  99 140 167 187 236 309
#     4   9  16  26  42  67  98 129 161 199 245 296
#     4   9  16  29  48  71  99 129 161 203 255 300
#     4  10  20  31  51  80 100 119 163 219 254 282
#     4   9  16  30  50  72 100 131 160 199 254 306
#
# _framework density 17.952362000000001
#
# number of rings (size 3 to 8) (size 9 to 14) (size 15 to 20)
#    0.000    3.000    1.250    1.125    0.000    3.000 
#    0.000    3.750    0.000    6.000    0.000    0.000 
#    0.000    0.000    0.000    0.000    0.000    0.000 
#
# Total GULP energy -793396.197011 kJ/mol
# GULP energy per Si atom -12396.815578 kJ/mol
# Density = 1.791150 g / cm^3
# Si number density = 17.952362 Si / 1000 Ang^3
#
#
#
# Elastic Constant Matrix: (Units=GPa)
#
#
# Indices 1 2 3 4 5 6 
#
# 1 42.9802 28.1464 46.6302 0.0000 0.0000 0.0000
# 2 28.1464 85.0307 63.8604 0.0000 0.0000 0.0000
# 3 46.6302 63.8604 144.4336 0.0000 0.0000 0.0000
# 4 0.0000 0.0000 0.0000 22.9941 0.0000 0.0000
# 5 0.0000 0.0000 0.0000 0.0000 26.1108 0.0000
# 6 0.0000 0.0000 0.0000 0.0000 0.0000 12.8660
#
#
#
# Elastic Compliance Matrix: (Units=1/GPa)
#
#
# Indices 1 2 3 4 5 6 
#
# 1 0.037137 -0.004923 -0.009813 0.000000 0.000000 0.000000
# 2 -0.004923 0.018260 -0.006484 0.000000 0.000000 0.000000
# 3 -0.009813 -0.006484 0.012959 0.000000 0.000000 0.000000
# 4 0.000000 0.000000 0.000000 0.043489 0.000000 0.000000
# 5 0.000000 0.000000 0.000000 0.000000 0.038298 0.000000
# 6 0.000000 0.000000 0.000000 0.000000 0.000000 0.077724
#
#
# Mechanical properties :
#
#
# Convention : Reuss Voigt Hill
#
# Bulk Modulus (GPa) = 38.58754 61.07985 49.83370
# Shear Modulus (GPa) = 17.92468 21.31469 19.61968
#
# Velocity S-wave (km/s) = 3.16327 3.44945 3.30945
# Velocity P-wave (km/s) = 5.90616 7.06839 6.51325
#
# Compressibility (1/GPa) = 0.02591510
#
# Stress axis : x y z
#
# Youngs Moduli (GPa) = 26.92755 54.76528 77.16935
#
# Poissons Ratio (x) = 0.26961 0.75725
# Poissons Ratio (y) = 0.13257 0.50037
# Poissons Ratio (z) = 0.26423 0.35510
#
# Static dielectric constant tensor:
#      x y z
#    x 2.971740 0.000000 0.000000 
#    y 0.000000 3.246020 0.000000 
#    z 0.000000 0.000000 3.507980 
# 
# 
# High freq. dielectric constant tensor:
#      x y z
#    x 1.644370 0.000000 0.000000 
#    y 0.000000 1.684190 0.000000 
#    z 0.000000 0.000000 1.706410 
# 
# From -- ./inp_files/59308.got.cif
#   From: 2010.03.12/outbox.cif.g09.slc.cpg/sg74_30_cif.got.tgz:59308.got - 2010.04.16 15:46:19.
