data_PCOD8299492
_publ_section_title
;
Structure prediction by ZEFSAII (Michael W. Deem and Ramdas Pophale) SiO2 
 PCOD8299492
Probable space group: I M M A
;
_chemical_formula_sum "Si O2"
_cell_formula_units_Z 88
_cell_length_a 17.660678
_cell_length_b 9.772611
_cell_length_c 28.040711
_cell_angle_alpha 90.000000
_cell_angle_beta 90.000000
_cell_angle_gamma 90.000000
_cell_volume 4839.572560
_symmetry_space_group_name_H-M "I M M A"
_symmetry_group_IT_number 74
_symmetry_cell_setting 'orthorhombic'
loop_
_space_group_symop_operation_xyz
x,y,z
-x,1/2-y,z
x,-y,-z
-x,1/2+y,-z
-x,-y,-z
x,1/2+y,-z
-x,y,z
x,1/2-y,z
1/2+x,1/2+y,1/2+z
1/2-x,-y,1/2+z
1/2+x,1/2-y,1/2-z
1/2-x,y,1/2-z
1/2-x,1/2-y,1/2-z
1/2+x,y,1/2-z
1/2-x,1/2+y,1/2+z
1/2+x,-y,1/2+z
loop_
_atom_site_type_symbol
_atom_site_label
_atom_site_fract_x
_atom_site_fract_y
_atom_site_fract_z
Si Si1 0.913203 0.407738 0.616889
Si Si2 0.857577 0.907900 0.110885
Si Si3 0.912495 0.909909 0.807409
Si Si4 0.089971 0.901163 0.700859
Si Si5 0.500000 0.408340 0.546295
Si Si6 0.784344 0.907525 0.454158
O O1 0.904709 0.250000 0.631373
O O2 0.880150 0.492563 0.661566
O O3 0.865202 0.441283 0.569722
O O4 0.000000 0.446805 0.605431
O O5 0.862086 0.750000 0.126741
O O6 0.779962 0.941470 0.084157
O O7 0.926340 0.946428 0.076395
O O8 0.860535 0.001423 0.157668
O O9 0.902494 0.750000 0.818985
O O10 0.883136 0.942666 0.753898
O O11 0.000000 0.953460 0.813557
O O12 0.120819 0.750000 0.687726
O O13 0.000000 0.898821 0.701370
O O14 0.500000 0.250000 0.530855
O O15 0.500000 0.500000 0.500000
O O16 0.779489 0.750000 0.470449
O O17 0.772679 0.000000 0.500000
#
# Coordination Sequence:
#
# PCOD8299492 Si02
#       6
#    16  16  16  16   8  16
#     4   9  18  34  55  78 102 130 167 208 252 306
#     4  10  20  34  50  72 102 134 171 211 251 298
#     4   9  17  30  50  77 106 136 171 209 248 293
#     4   8  15  29  50  77 106 133 165 206 249 296
#     4  10  20  32  48  70  94 126 170 212 247 292
#     4  10  22  38  54  74 102 133 167 212 260 303
#
# _framework density 18.183423999999999
#
# number of rings (size 3 to 8) (size 9 to 14) (size 15 to 20)
#    0.000    2.727    0.909    1.636    0.000    3.273 
#    0.000    2.727    0.000    5.455    0.000    0.000 
#    0.000    0.000    0.000    0.000    0.000    0.000 
#
# Total GULP energy -545606.177601 kJ/mol
# GULP energy per Si atom -12400.140400 kJ/mol
# Density = 1.814204 g / cm^3
# Si number density = 18.183424 Si / 1000 Ang^3
#
#
#
# Elastic Constant Matrix: (Units=GPa)
#
#
# Indices 1 2 3 4 5 6 
#
# 1 65.9580 25.5383 22.0947 0.0000 0.0000 0.0000
# 2 25.5383 71.9284 52.8169 0.0000 0.0000 0.0000
# 3 22.0947 52.8169 73.8845 0.0000 0.0000 0.0000
# 4 0.0000 0.0000 0.0000 40.7424 0.0000 0.0000
# 5 0.0000 0.0000 0.0000 0.0000 9.5838 0.0000
# 6 0.0000 0.0000 0.0000 0.0000 0.0000 15.3913
#
#
#
# Elastic Compliance Matrix: (Units=1/GPa)
#
#
# Indices 1 2 3 4 5 6 
#
# 1 0.017676 -0.005040 -0.001683 0.000000 0.000000 0.000000
# 2 -0.005040 0.030701 -0.020440 0.000000 0.000000 0.000000
# 3 -0.001683 -0.020440 0.028649 0.000000 0.000000 0.000000
# 4 0.000000 0.000000 0.000000 0.024544 0.000000 0.000000
# 5 0.000000 0.000000 0.000000 0.000000 0.104343 0.000000
# 6 0.000000 0.000000 0.000000 0.000000 0.000000 0.064972
#
#
# Mechanical properties :
#
#
# Convention : Reuss Voigt Hill
#
# Bulk Modulus (GPa) = 44.05064 45.85231 44.95147
# Shear Modulus (GPa) = 15.02498 20.56488 17.79493
#
# Velocity S-wave (km/s) = 2.87766 3.36664 3.13171
# Velocity P-wave (km/s) = 5.94303 6.35481 6.15236
#
# Compressibility (1/GPa) = 0.02270115
#
# Stress axis : x y z
#
# Youngs Moduli (GPa) = 56.57236 32.57219 34.90483
#
# Poissons Ratio (x) = 0.16417 0.05874
# Poissons Ratio (y) = 0.28514 0.71344
# Poissons Ratio (z) = 0.09521 0.66576
#
# Static dielectric constant tensor:
#      x y z
#    x 3.201540 0.000000 0.000000 
#    y 0.000000 3.425520 0.000000 
#    z 0.000000 0.000000 3.317980 
# 
# 
# High freq. dielectric constant tensor:
#      x y z
#    x 1.689610 0.000000 0.000000 
#    y 0.000000 1.703530 0.000000 
#    z 0.000000 0.000000 1.702940 
# 
# From -- ./inp_files/50540.got.cif
#   From: 2010.03.12/outbox.cif.g09.slc.cpg/sg74_26_cif.got.tgz:50540.got - 2010.04.16 15:46:19.
