data_PCOD8299195
_publ_section_title
;
Structure prediction by ZEFSAII (Michael W. Deem and Ramdas Pophale) SiO2 
 PCOD8299195
Probable space group: I M M A
;
_chemical_formula_sum "Si O2"
_cell_formula_units_Z 120
_cell_length_a 8.803695
_cell_length_b 27.317225
_cell_length_c 26.300695
_cell_angle_alpha 90.000000
_cell_angle_beta 90.000000
_cell_angle_gamma 90.000000
_cell_volume 6325.120343
_symmetry_space_group_name_H-M "I M M A"
_symmetry_group_IT_number 74
_symmetry_cell_setting 'orthorhombic'
loop_
_space_group_symop_operation_xyz
x,y,z
-x,1/2-y,z
x,-y,-z
-x,1/2+y,-z
-x,-y,-z
x,1/2+y,-z
-x,y,z
x,1/2-y,z
1/2+x,1/2+y,1/2+z
1/2-x,-y,1/2+z
1/2+x,1/2-y,1/2-z
1/2-x,y,1/2-z
1/2-x,1/2-y,1/2-z
1/2+x,y,1/2-z
1/2-x,1/2+y,1/2+z
1/2+x,-y,1/2+z
loop_
_atom_site_type_symbol
_atom_site_label
_atom_site_fract_x
_atom_site_fract_y
_atom_site_fract_z
Si Si1 0.180599 0.250000 0.305830
Si Si2 0.820718 0.963873 0.386322
Si Si3 0.820773 0.898491 0.194458
Si Si4 0.821282 0.100910 0.520519
Si Si5 0.822678 0.195574 0.009204
Si Si6 0.177648 0.302959 0.694745
Si Si7 0.178434 0.425432 0.408271
Si Si8 0.178920 0.169824 0.123237
O O1 0.250000 0.250000 0.250000
O O2 0.235534 0.201303 0.334535
O O3 0.000000 0.250000 0.302495
O O4 0.733125 0.945079 0.337090
O O5 0.758379 0.934434 0.435411
O O6 0.000000 0.956355 0.379798
O O7 0.777764 0.020540 0.390592
O O8 0.750000 0.902968 0.250000
O O9 0.759328 0.848564 0.166564
O O10 0.000000 0.897038 0.198236
O O11 0.760705 0.156339 0.526747
O O12 0.766850 0.079424 0.466599
O O13 0.000000 0.102479 0.523978
O O14 0.777291 0.250000 0.990787
O O15 0.773462 0.190034 0.067941
O O16 0.000000 0.186117 0.003983
O O17 0.204266 0.250000 0.667268
O O18 0.250000 0.299814 0.750000
O O19 0.000000 0.314496 0.699488
O O20 0.267545 0.386682 0.372944
O O21 0.000000 0.415128 0.403477
O O22 0.000000 0.174070 0.132844
#
# Coordination Sequence:
#
# PCOD8299195 Si02
#       8
#     8  16  16  16  16  16  16  16
#     4  12  24  38  58  84 116 152 190 234 281 334
#     4  10  20  36  56  78 111 146 180 227 276 324
#     4  11  22  36  55  77 103 136 179 222 267 323
#     4   9  18  32  53  82 110 141 181 225 273 323
#     4   9  17  31  51  76 110 149 183 221 272 328
#     4   9  16  28  49  75 100 126 161 206 256 307
#     4   9  18  34  57  84 110 142 183 225 273 327
#     4  10  19  35  56  81 112 145 183 227 275 328
#
# _framework density 18.971969999999999
#
# number of rings (size 3 to 8) (size 9 to 14) (size 15 to 20)
#    0.000    2.267    0.667    3.800    0.000    4.267 
#    0.000    1.333    0.000    8.000    0.000    0.000 
#    0.000    0.000    0.000    0.000    0.000    0.000 
#
# Total GULP energy -743873.638021 kJ/mol
# GULP energy per Si atom -12397.893967 kJ/mol
# Density = 1.892879 g / cm^3
# Si number density = 18.971970 Si / 1000 Ang^3
#
#
#
# Elastic Constant Matrix: (Units=GPa)
#
#
# Indices 1 2 3 4 5 6 
#
# 1 84.0234 55.6230 39.6695 0.0000 0.0000 0.0000
# 2 55.6230 160.7263 61.5955 0.0000 0.0000 0.0000
# 3 39.6695 61.5955 71.9710 0.0000 0.0000 0.0000
# 4 0.0000 0.0000 0.0000 23.8193 0.0000 0.0000
# 5 0.0000 0.0000 0.0000 0.0000 23.0295 0.0000
# 6 0.0000 0.0000 0.0000 0.0000 0.0000 32.4561
#
#
#
# Elastic Compliance Matrix: (Units=1/GPa)
#
#
# Indices 1 2 3 4 5 6 
#
# 1 0.017298 -0.003471 -0.006564 0.000000 0.000000 0.000000
# 2 -0.003471 0.009955 -0.006607 0.000000 0.000000 0.000000
# 3 -0.006564 -0.006607 0.023167 0.000000 0.000000 0.000000
# 4 0.000000 0.000000 0.000000 0.041983 0.000000 0.000000
# 5 0.000000 0.000000 0.000000 0.000000 0.043423 0.000000
# 6 0.000000 0.000000 0.000000 0.000000 0.000000 0.030811
#
#
# Mechanical properties :
#
#
# Convention : Reuss Voigt Hill
#
# Bulk Modulus (GPa) = 58.35447 70.05521 64.20484
# Shear Modulus (GPa) = 24.31539 26.51649 25.41594
#
# Velocity S-wave (km/s) = 3.58390 3.74259 3.66410
# Velocity P-wave (km/s) = 6.92465 7.46202 7.19835
#
# Compressibility (1/GPa) = 0.01713665
#
# Stress axis : x y z
#
# Youngs Moduli (GPa) = 57.80950 100.45408 43.16545
#
# Poissons Ratio (x) = 0.34866 0.28334
# Poissons Ratio (y) = 0.20065 0.28518
# Poissons Ratio (z) = 0.37946 0.66366
#
# Static dielectric constant tensor:
#      x y z
#    x 3.430000 0.000000 0.000000 
#    y 0.000000 3.962710 0.000000 
#    z 0.000000 0.000000 3.244000 
# 
# 
# High freq. dielectric constant tensor:
#      x y z
#    x 1.735850 0.000000 0.000000 
#    y 0.000000 1.753400 0.000000 
#    z 0.000000 0.000000 1.704580 
# 
# From -- ./inp_files/65064.got.cif
#   From: 2010.03.12/outbox.cif.g09.slc.cpg/sg74_33_cif.got.tgz:65064.got - 2010.04.16 15:46:19.
