data_PCOD8299033
_publ_section_title
;
Structure prediction by ZEFSAII (Michael W. Deem and Ramdas Pophale) SiO2 
 PCOD8299033
Probable space group: I M M A
;
_chemical_formula_sum "Si O2"
_cell_formula_units_Z 56
_cell_length_a 19.940660
_cell_length_b 12.722835
_cell_length_c 12.425235
_cell_angle_alpha 90.000000
_cell_angle_beta 90.000000
_cell_angle_gamma 90.000000
_cell_volume 3152.303578
_symmetry_space_group_name_H-M "I M M A"
_symmetry_group_IT_number 74
_symmetry_cell_setting 'orthorhombic'
loop_
_space_group_symop_operation_xyz
x,y,z
-x,1/2-y,z
x,-y,-z
-x,1/2+y,-z
-x,-y,-z
x,1/2+y,-z
-x,y,z
x,1/2-y,z
1/2+x,1/2+y,1/2+z
1/2-x,-y,1/2+z
1/2+x,1/2-y,1/2-z
1/2-x,y,1/2-z
1/2-x,1/2-y,1/2-z
1/2+x,y,1/2-z
1/2-x,1/2+y,1/2+z
1/2+x,-y,1/2+z
loop_
_atom_site_type_symbol
_atom_site_label
_atom_site_fract_x
_atom_site_fract_y
_atom_site_fract_z
Si Si1 0.923246 0.370532 0.812195
Si Si2 0.739091 0.631677 0.937590
Si Si3 0.861145 0.000000 0.000000
Si Si4 0.306761 0.565632 0.165620
O O1 0.908038 0.250000 0.843232
O O2 0.879489 0.404473 0.709650
O O3 0.000000 0.386434 0.777999
O O4 0.907974 0.442426 0.914686
O O5 0.739991 0.750000 0.893492
O O6 0.695483 0.560014 0.856405
O O7 0.814295 0.584764 0.939433
O O8 0.707071 0.628994 0.056339
O O9 0.250000 0.600494 0.250000
#
# Coordination Sequence:
#
# PCOD8299033 Si02
#       4
#    16  16   8  16
#     4  11  22  36  55  78 108 145 177 213 265 317
#     4  10  20  33  56  83 109 136 173 225 270 303
#     4  10  19  34  52  84 111 132 174 222 265 316
#     4  10  19  36  54  82 105 137 182 221 254 310
#
# _framework density 17.764786000000001
#
# number of rings (size 3 to 8) (size 9 to 14) (size 15 to 20)
#    0.000    2.000    5.714    2.143    0.000    1.714 
#    0.000    2.857    0.000    6.000    0.000    0.000 
#    0.000    0.000    0.000    0.000    0.000    0.000 
#
# Total GULP energy -347206.312672 kJ/mol
# GULP energy per Si atom -12400.225453 kJ/mol
# Density = 1.772435 g / cm^3
# Si number density = 17.764786 Si / 1000 Ang^3
#
#
#
# Elastic Constant Matrix: (Units=GPa)
#
#
# Indices 1 2 3 4 5 6 
#
# 1 122.9477 50.5902 48.4820 0.0000 0.0000 0.0000
# 2 50.5902 121.0861 12.8154 0.0000 0.0000 0.0000
# 3 48.4820 12.8154 65.8775 0.0000 0.0000 0.0000
# 4 0.0000 0.0000 0.0000 18.7468 0.0000 0.0000
# 5 0.0000 0.0000 0.0000 0.0000 27.3940 0.0000
# 6 0.0000 0.0000 0.0000 0.0000 0.0000 22.0033
#
#
#
# Elastic Compliance Matrix: (Units=1/GPa)
#
#
# Indices 1 2 3 4 5 6 
#
# 1 0.013702 -0.004755 -0.009159 0.000000 0.000000 0.000000
# 2 -0.004755 0.010083 0.001538 0.000000 0.000000 0.000000
# 3 -0.009159 0.001538 0.021621 0.000000 0.000000 0.000000
# 4 0.000000 0.000000 0.000000 0.053343 0.000000 0.000000
# 5 0.000000 0.000000 0.000000 0.000000 0.036504 0.000000
# 6 0.000000 0.000000 0.000000 0.000000 0.000000 0.045448
#
#
# Mechanical properties :
#
#
# Convention : Reuss Voigt Hill
#
# Bulk Modulus (GPa) = 48.41778 59.29853 53.85816
# Shear Modulus (GPa) = 23.54761 26.83037 25.18899
#
# Velocity S-wave (km/s) = 3.64472 3.89049 3.76961
# Velocity P-wave (km/s) = 6.71015 7.32349 7.02352
#
# Compressibility (1/GPa) = 0.02065357
#
# Stress axis : x y z
#
# Youngs Moduli (GPa) = 72.98318 99.18099 46.25202
#
# Poissons Ratio (x) = 0.47164 0.42361
# Poissons Ratio (y) = 0.34706 -0.07115
# Poissons Ratio (z) = 0.66843 -0.15256
#
# Static dielectric constant tensor:
#      x y z
#    x 3.152460 0.000000 0.000000 
#    y 0.000000 3.395730 0.000000 
#    z 0.000000 0.000000 3.304060 
# 
# 
# High freq. dielectric constant tensor:
#      x y z
#    x 1.667450 0.000000 0.000000 
#    y 0.000000 1.694700 0.000000 
#    z 0.000000 0.000000 1.685350 
# 
# From -- ./inp_files/19783.got.cif
#   From: 2010.03.12/outbox.cif.g09.slc.cpg/sg74_10_cif.got.tgz:19783.got - 2010.04.16 15:46:19.
