data_PCOD8299945
_publ_section_title
;
Structure prediction by ZEFSAII (Michael W. Deem and Ramdas Pophale) SiO2 
 PCOD8299945
Probable space group: I M M A
;
_chemical_formula_sum "Si O2"
_cell_formula_units_Z 104
_cell_length_a 9.095105
_cell_length_b 20.045402
_cell_length_c 29.048916
_cell_angle_alpha 90.000000
_cell_angle_beta 90.000000
_cell_angle_gamma 90.000000
_cell_volume 5296.054165
_symmetry_space_group_name_H-M "I M M A"
_symmetry_group_IT_number 74
_symmetry_cell_setting 'orthorhombic'
loop_
_space_group_symop_operation_xyz
x,y,z
-x,1/2-y,z
x,-y,-z
-x,1/2+y,-z
-x,-y,-z
x,1/2+y,-z
-x,y,z
x,1/2-y,z
1/2+x,1/2+y,1/2+z
1/2-x,-y,1/2+z
1/2+x,1/2-y,1/2-z
1/2-x,y,1/2-z
1/2-x,1/2-y,1/2-z
1/2+x,y,1/2-z
1/2-x,1/2+y,1/2+z
1/2+x,-y,1/2+z
loop_
_atom_site_type_symbol
_atom_site_label
_atom_site_fract_x
_atom_site_fract_y
_atom_site_fract_z
Si Si1 0.673858 0.878606 0.640890
Si Si2 0.831257 0.075210 0.443731
Si Si3 0.168750 0.865169 0.295912
Si Si4 0.669504 0.021606 0.203943
Si Si5 0.333517 0.675243 0.384181
Si Si6 0.831033 0.078100 0.549631
Si Si7 0.173177 0.250000 0.200216
O O1 0.500000 0.887390 0.641429
O O2 0.730689 0.876692 0.588125
O O3 0.721826 0.813824 0.670070
O O4 0.752518 0.943398 0.661389
O O5 0.808780 0.096727 0.496348
O O6 0.000000 0.084565 0.428700
O O7 0.785753 0.997736 0.439301
O O8 0.250000 0.841694 0.250000
O O9 0.188318 0.943591 0.304249
O O10 0.238033 0.826566 0.338230
O O11 0.000000 0.844758 0.291161
O O12 0.500000 0.043086 0.207387
O O13 0.750000 0.045948 0.250000
O O14 0.500000 0.654617 0.372112
O O15 0.325563 0.750000 0.404175
O O16 0.274014 0.625904 0.422434
O O17 0.000000 0.089718 0.564283
O O18 0.250000 0.250000 0.250000
O O19 0.000000 0.250000 0.209187
#
# Coordination Sequence:
#
# PCOD8299945 Si02
#       7
#    16  16  16  16  16  16   8
#     4  11  22  36  55  81 112 149 188 231 284 339
#     4   9  19  37  61  88 114 141 180 232 286 335
#     4  10  21  37  58  83 112 146 184 230 279 328
#     4  10  20  34  54  82 112 141 180 230 281 332
#     4  11  24  39  55  80 114 151 189 227 271 325
#     4   9  19  38  62  86 114 146 183 231 282 335
#     4  10  24  42  56  76 110 152 196 238 283 338
#
# _framework density 19.637262
#
# number of rings (size 3 to 8) (size 9 to 14) (size 15 to 20)
#    0.000    2.000    0.000    4.154    0.000   10.769 
#    1.385    1.538    0.000    0.000    0.000    0.000 
#    0.000    0.000    0.000    0.000    0.000    0.000 
#
# Total GULP energy -644956.084803 kJ/mol
# GULP energy per Si atom -12403.001631 kJ/mol
# Density = 1.959257 g / cm^3
# Si number density = 19.637262 Si / 1000 Ang^3
#
#
#
# Elastic Constant Matrix: (Units=GPa)
#
#
# Indices 1 2 3 4 5 6 
#
# 1 119.3367 46.7587 57.0570 0.0000 0.0000 0.0000
# 2 46.7587 63.7585 46.5573 0.0000 0.0000 0.0000
# 3 57.0570 46.5573 108.5449 0.0000 0.0000 0.0000
# 4 0.0000 0.0000 0.0000 25.6101 0.0000 0.0000
# 5 0.0000 0.0000 0.0000 0.0000 42.8957 0.0000
# 6 0.0000 0.0000 0.0000 0.0000 0.0000 25.5819
#
#
#
# Elastic Compliance Matrix: (Units=1/GPa)
#
#
# Indices 1 2 3 4 5 6 
#
# 1 0.012820 -0.006525 -0.003940 0.000000 0.000000 0.000000
# 2 -0.006525 0.026157 -0.007790 0.000000 0.000000 0.000000
# 3 -0.003940 -0.007790 0.014625 0.000000 0.000000 0.000000
# 4 0.000000 0.000000 0.000000 0.039047 0.000000 0.000000
# 5 0.000000 0.000000 0.000000 0.000000 0.023312 0.000000
# 6 0.000000 0.000000 0.000000 0.000000 0.000000 0.039090
#
#
# Mechanical properties :
#
#
# Convention : Reuss Voigt Hill
#
# Bulk Modulus (GPa) = 58.50285 65.82067 62.16176
# Shear Modulus (GPa) = 25.34731 28.23535 26.79133
#
# Velocity S-wave (km/s) = 3.59664 3.79601 3.69767
# Velocity P-wave (km/s) = 6.86325 7.26663 7.06782
#
# Compressibility (1/GPa) = 0.01709318
#
# Stress axis : x y z
#
# Youngs Moduli (GPa) = 78.00264 38.23018 68.37476
#
# Poissons Ratio (x) = 0.24943 0.26942
# Poissons Ratio (y) = 0.50893 0.53263
# Poissons Ratio (z) = 0.30736 0.29781
#
# Static dielectric constant tensor:
#      x y z
#    x 3.623890 0.000000 0.000000 
#    y 0.000000 3.447180 0.000000 
#    z 0.000000 0.000000 3.692580 
# 
# 
# High freq. dielectric constant tensor:
#      x y z
#    x 1.770510 0.000000 0.000000 
#    y 0.000000 1.754470 0.000000 
#    z 0.000000 0.000000 1.774780 
# 
# From -- ./inp_files/64506.got.cif
#   From: 2010.03.12/outbox.cif.g09.slc.cpg/sg74_33_cif.got.tgz:64506.got - 2010.04.16 15:46:19.
