data_PCOD8299881
_publ_section_title
;
Structure prediction by ZEFSAII (Michael W. Deem and Ramdas Pophale) SiO2 
 PCOD8299881
Probable space group: I M M A
;
_chemical_formula_sum "Si O2"
_cell_formula_units_Z 104
_cell_length_a 18.833190
_cell_length_b 9.059286
_cell_length_c 28.986198
_cell_angle_alpha 90.000000
_cell_angle_beta 90.000000
_cell_angle_gamma 90.000000
_cell_volume 4945.487549
_symmetry_space_group_name_H-M "I M M A"
_symmetry_group_IT_number 74
_symmetry_cell_setting 'orthorhombic'
loop_
_space_group_symop_operation_xyz
x,y,z
-x,1/2-y,z
x,-y,-z
-x,1/2+y,-z
-x,-y,-z
x,1/2+y,-z
-x,y,z
x,1/2-y,z
1/2+x,1/2+y,1/2+z
1/2-x,-y,1/2+z
1/2+x,1/2-y,1/2-z
1/2-x,y,1/2-z
1/2-x,1/2-y,1/2-z
1/2+x,y,1/2-z
1/2-x,1/2+y,1/2+z
1/2+x,-y,1/2+z
loop_
_atom_site_type_symbol
_atom_site_label
_atom_site_fract_x
_atom_site_fract_y
_atom_site_fract_z
Si Si1 0.224708 0.084573 0.044023
Si Si2 0.374381 0.082422 0.600328
Si Si3 0.675367 0.076492 0.229517
Si Si4 0.607999 0.414465 0.044588
Si Si5 0.000000 0.925386 0.950697
Si Si6 0.418630 0.414539 0.702460
Si Si7 0.420342 0.925382 0.853710
O O1 0.193219 0.250000 0.046142
O O2 0.308211 0.090212 0.041137
O O3 0.201989 0.988240 0.088263
O O4 0.191813 0.000000 0.000000
O O5 0.382586 0.250000 0.582038
O O6 0.377346 0.078664 0.654861
O O7 0.431729 0.977019 0.577322
O O8 0.685392 0.250000 0.225628
O O9 0.750000 0.007931 0.250000
O O10 0.643505 0.015607 0.180226
O O11 0.613626 0.038623 0.265120
O O12 0.575993 0.250000 0.042410
O O13 0.587863 0.488676 0.093971
O O14 0.576518 0.500000 0.000000
O O15 0.000000 0.750000 0.955564
O O16 0.000000 0.000000 0.000000
O O17 0.500000 0.453889 0.693270
O O18 0.410538 0.250000 0.724055
O O19 0.500000 0.969682 0.835733
O O20 0.412874 0.750000 0.855771
#
# Coordination Sequence:
#
# PCOD8299881 Si02
#       7
#    16  16  16  16   8  16  16
#     4  10  20  34  53  78 109 147 192 242 295 351
#     4  11  22  38  56  78 111 151 194 242 297 354
#     4  10  22  38  62  93 121 152 198 251 295 351
#     4   9  19  35  57  84 117 153 192 240 293 353
#     4  12  24  38  56  80 112 152 198 248 297 354
#     4  10  22  41  61  83 117 156 193 241 301 359
#     4   9  18  35  58  85 120 159 194 239 302 357
#
# _framework density 21.029271999999999
#
# number of rings (size 3 to 8) (size 9 to 14) (size 15 to 20)
#    0.000    2.000    0.769    2.538    2.154    3.385 
#    0.000    0.769    0.000    0.923    0.000    0.000 
#    0.000    0.000    0.000    0.000    0.000    0.000 
#
# Total GULP energy -644378.746043 kJ/mol
# GULP energy per Si atom -12391.898962 kJ/mol
# Density = 2.098141 g / cm^3
# Si number density = 21.029272 Si / 1000 Ang^3
#
#
#
# Elastic Constant Matrix: (Units=GPa)
#
#
# Indices 1 2 3 4 5 6 
#
# 1 64.3498 21.7363 52.3654 0.0000 0.0000 0.0000
# 2 21.7363 77.2748 34.9445 0.0000 0.0000 0.0000
# 3 52.3654 34.9445 130.0982 0.0000 0.0000 0.0000
# 4 0.0000 0.0000 0.0000 31.2139 0.0000 0.0000
# 5 0.0000 0.0000 0.0000 0.0000 33.9027 0.0000
# 6 0.0000 0.0000 0.0000 0.0000 0.0000 13.4335
#
#
#
# Elastic Compliance Matrix: (Units=1/GPa)
#
#
# Indices 1 2 3 4 5 6 
#
# 1 0.023582 -0.002665 -0.008776 0.000000 0.000000 0.000000
# 2 -0.002665 0.015031 -0.002965 0.000000 0.000000 0.000000
# 3 -0.008776 -0.002965 0.012015 0.000000 0.000000 0.000000
# 4 0.000000 0.000000 0.000000 0.032037 0.000000 0.000000
# 5 0.000000 0.000000 0.000000 0.000000 0.029496 0.000000
# 6 0.000000 0.000000 0.000000 0.000000 0.000000 0.074441
#
#
# Mechanical properties :
#
#
# Convention : Reuss Voigt Hill
#
# Bulk Modulus (GPa) = 45.83567 54.42394 50.12980
# Shear Modulus (GPa) = 22.45317 26.55512 24.50414
#
# Velocity S-wave (km/s) = 3.27113 3.55740 3.41726
# Velocity P-wave (km/s) = 6.00920 6.54292 6.28173
#
# Compressibility (1/GPa) = 0.02181707
#
# Stress axis : x y z
#
# Youngs Moduli (GPa) = 42.40565 66.52885 83.22714
#
# Poissons Ratio (x) = 0.17727 0.73041
# Poissons Ratio (y) = 0.11299 0.24676
# Poissons Ratio (z) = 0.37216 0.19725
#
# Static dielectric constant tensor:
#      x y z
#    x 3.841070 0.000000 0.000000 
#    y 0.000000 3.820630 0.000000 
#    z 0.000000 0.000000 4.019450 
# 
# 
# High freq. dielectric constant tensor:
#      x y z
#    x 1.829650 0.000000 0.000000 
#    y 0.000000 1.798860 0.000000 
#    z 0.000000 0.000000 1.828480 
# 
# From -- ./inp_files/73366.got.cif
#   From: 2010.03.12/outbox.cif.g09.slc.cpg/sg74_37_cif.got.tgz:73366.got - 2010.04.16 15:46:19.
