data_PCOD8299308
_publ_section_title
;
Structure prediction by ZEFSAII (Michael W. Deem and Ramdas Pophale) SiO2 
 PCOD8299308
Probable space group: I M M A
;
_chemical_formula_sum "Si O2"
_cell_formula_units_Z 96
_cell_length_a 18.191006
_cell_length_b 21.966157
_cell_length_c 11.994022
_cell_angle_alpha 90.000000
_cell_angle_beta 90.000000
_cell_angle_gamma 90.000000
_cell_volume 4792.649197
_symmetry_space_group_name_H-M "I M M A"
_symmetry_group_IT_number 74
_symmetry_cell_setting 'orthorhombic'
loop_
_space_group_symop_operation_xyz
x,y,z
-x,1/2-y,z
x,-y,-z
-x,1/2+y,-z
-x,-y,-z
x,1/2+y,-z
-x,y,z
x,1/2-y,z
1/2+x,1/2+y,1/2+z
1/2-x,-y,1/2+z
1/2+x,1/2-y,1/2-z
1/2-x,y,1/2-z
1/2-x,1/2-y,1/2-z
1/2+x,y,1/2-z
1/2-x,1/2+y,1/2+z
1/2+x,-y,1/2+z
loop_
_atom_site_type_symbol
_atom_site_label
_atom_site_fract_x
_atom_site_fract_y
_atom_site_fract_z
Si Si1 0.796313 0.456546 0.852557
Si Si2 0.195820 0.894038 0.515827
Si Si3 0.084096 0.181448 0.625855
Si Si4 0.170151 0.412768 0.244636
Si Si5 0.665428 0.818064 0.578763
Si Si6 0.084311 0.358176 0.871861
O O1 0.750000 0.428941 0.750000
O O2 0.742365 0.449481 0.959899
O O3 0.821905 0.525168 0.825815
O O4 0.871468 0.421193 0.871429
O O5 0.135121 0.867845 0.433049
O O6 0.149448 0.919837 0.624257
O O7 0.253417 0.840701 0.544007
O O8 0.103401 0.250000 0.586767
O O9 0.096230 0.178459 0.758114
O O10 0.000000 0.165468 0.595600
O O11 0.250000 0.381895 0.250000
O O12 0.126018 0.362781 0.171461
O O13 0.671020 0.750000 0.627578
O O14 0.612971 0.815885 0.471288
O O15 0.000000 0.375714 0.890922
#
# Coordination Sequence:
#
# PCOD8299308 Si02
#       6
#    16  16  16  16  16  16
#     4  10  19  37  58  86 114 151 195 241 288 348
#     4  10  20  36  58  86 115 151 191 239 284 344
#     4  10  20  35  55  83 118 154 192 237 294 347
#     4   9  21  36  57  86 116 150 190 239 294 343
#     4  10  21  36  57  83 111 148 193 236 285 351
#     4  10  21  37  57  83 116 154 194 245 300 346
#
# _framework density 20.030676
#
# number of rings (size 3 to 8) (size 9 to 14) (size 15 to 20)
#    0.000    2.167    1.667    1.000    0.000   15.333 
#    0.000    5.833    0.000    2.000    0.000    0.000 
#    0.000    0.000    0.000    0.000    0.000    0.000 
#
# Total GULP energy -594629.150486 kJ/mol
# GULP energy per Si atom -12388.107302 kJ/mol
# Density = 1.998509 g / cm^3
# Si number density = 20.030676 Si / 1000 Ang^3
#
#
#
# Elastic Constant Matrix: (Units=GPa)
#
#
# Indices 1 2 3 4 5 6 
#
# 1 75.3179 41.0500 29.8581 0.0000 0.0000 0.0000
# 2 41.0500 135.1415 57.2100 0.0000 0.0000 0.0000
# 3 29.8581 57.2100 97.2148 0.0000 0.0000 0.0000
# 4 0.0000 0.0000 0.0000 27.5101 0.0000 0.0000
# 5 0.0000 0.0000 0.0000 0.0000 12.7543 0.0000
# 6 0.0000 0.0000 0.0000 0.0000 0.0000 8.0361
#
#
#
# Elastic Compliance Matrix: (Units=1/GPa)
#
#
# Indices 1 2 3 4 5 6 
#
# 1 0.016470 -0.003811 -0.002816 0.000000 0.000000 0.000000
# 2 -0.003811 0.010736 -0.005148 0.000000 0.000000 0.000000
# 3 -0.002816 -0.005148 0.014181 0.000000 0.000000 0.000000
# 4 0.000000 0.000000 0.000000 0.036350 0.000000 0.000000
# 5 0.000000 0.000000 0.000000 0.000000 0.078405 0.000000
# 6 0.000000 0.000000 0.000000 0.000000 0.000000 0.124438
#
#
# Mechanical properties :
#
#
# Convention : Reuss Voigt Hill
#
# Bulk Modulus (GPa) = 56.05913 62.65671 59.35792
# Shear Modulus (GPa) = 16.12508 21.63053 18.87780
#
# Velocity S-wave (km/s) = 2.84036 3.28970 3.07326
# Velocity P-wave (km/s) = 6.22931 6.76593 6.50316
#
# Compressibility (1/GPa) = 0.01783831
#
# Stress axis : x y z
#
# Youngs Moduli (GPa) = 60.71492 93.14027 70.51752
#
# Poissons Ratio (x) = 0.35495 0.19858
# Poissons Ratio (y) = 0.23138 0.36302
# Poissons Ratio (z) = 0.17097 0.47947
#
# Static dielectric constant tensor:
#      x y z
#    x 3.380810 0.000000 0.000000 
#    y 0.000000 3.431430 0.000000 
#    z 0.000000 0.000000 4.404350 
# 
# 
# High freq. dielectric constant tensor:
#      x y z
#    x 1.742530 0.000000 0.000000 
#    y 0.000000 1.779570 0.000000 
#    z 0.000000 0.000000 1.800110 
# 
# From -- ./inp_files/22487.got.cif
#   From: 2010.03.12/outbox.cif.g09.slc.cpg/sg74_12_cif.got.tgz:22487.got - 2010.04.16 15:46:19.
