data_PCOD8299588
_publ_section_title
;
Structure prediction by ZEFSAII (Michael W. Deem and Ramdas Pophale) SiO2 
 PCOD8299588
Probable space group: I M M A
;
_chemical_formula_sum "Si O2"
_cell_formula_units_Z 80
_cell_length_a 13.616116
_cell_length_b 24.290092
_cell_length_c 11.233574
_cell_angle_alpha 90.000000
_cell_angle_beta 90.000000
_cell_angle_gamma 90.000000
_cell_volume 3715.355310
_symmetry_space_group_name_H-M "I M M A"
_symmetry_group_IT_number 74
_symmetry_cell_setting 'orthorhombic'
loop_
_space_group_symop_operation_xyz
x,y,z
-x,1/2-y,z
x,-y,-z
-x,1/2+y,-z
-x,-y,-z
x,1/2+y,-z
-x,y,z
x,1/2-y,z
1/2+x,1/2+y,1/2+z
1/2-x,-y,1/2+z
1/2+x,1/2-y,1/2-z
1/2-x,y,1/2-z
1/2-x,1/2-y,1/2-z
1/2+x,y,1/2-z
1/2-x,1/2+y,1/2+z
1/2+x,-y,1/2+z
loop_
_atom_site_type_symbol
_atom_site_label
_atom_site_fract_x
_atom_site_fract_y
_atom_site_fract_z
Si Si1 0.884792 0.690448 0.783056
Si Si2 0.700589 0.079019 0.956430
Si Si3 0.114792 0.015615 0.324201
Si Si4 0.114206 0.080903 0.089756
Si Si5 0.115752 0.811947 0.516590
O O1 0.852123 0.750000 0.835820
O O2 0.854754 0.642330 0.871801
O O3 0.839811 0.682588 0.650929
O O4 0.000000 0.689066 0.762653
O O5 0.669411 0.042752 0.842962
O O6 0.643138 0.059292 0.074493
O O7 0.817718 0.068924 0.975661
O O8 0.672155 0.143020 0.934973
O O9 0.143207 0.039196 0.195259
O O10 0.000000 0.005096 0.332462
O O11 0.000000 0.075464 0.053460
O O12 0.136010 0.750000 0.468403
O O13 0.000000 0.824621 0.512966
#
# Coordination Sequence:
#
# PCOD8299588 Si02
#       5
#    16  16  16  16  16
#     4   8  14  25  41  63  94 129 159 187 226 281
#     4  11  19  30  49  70  94 129 168 199 242 293
#     4  10  20  33  49  69  94 125 165 208 246 289
#     4  10  20  33  48  68  99 134 167 202 243 288
#     4   9  16  26  43  69  99 128 159 197 240 287
#
# _framework density 21.532261999999999
#
# number of rings (size 3 to 8) (size 9 to 14) (size 15 to 20)
#    0.000    2.400    2.000    4.200    0.000    0.800 
#    0.000    4.000    0.000    3.600    0.000    0.000 
#    0.000   14.400    0.000    3.800    0.000    6.200 
#
# Total GULP energy -495839.443114 kJ/mol
# GULP energy per Si atom -12395.986078 kJ/mol
# Density = 2.148325 g / cm^3
# Si number density = 21.532262 Si / 1000 Ang^3
#
#
#
# Elastic Constant Matrix: (Units=GPa)
#
#
# Indices 1 2 3 4 5 6 
#
# 1 82.2011 36.1251 30.6812 0.0000 0.0000 0.0000
# 2 36.1251 145.7476 31.4933 -0.0001 0.0000 0.0000
# 3 30.6812 31.4933 22.3501 -0.0004 0.0000 -0.0002
# 4 0.0000 -0.0001 -0.0004 14.3901 0.0000 -0.0001
# 5 0.0000 0.0000 0.0000 0.0000 17.9770 0.0000
# 6 0.0000 0.0000 -0.0002 -0.0001 0.0000 20.7721
#
#
#
# Elastic Compliance Matrix: (Units=1/GPa)
#
#
# Indices 1 2 3 4 5 6 
#
# 1 0.025262 0.001771 -0.037174 -0.000001 0.000000 0.000000
# 2 0.001771 0.009989 -0.016507 0.000000 0.000000 0.000000
# 3 -0.037174 -0.016507 0.119033 0.000003 0.000000 0.000001
# 4 -0.000001 0.000000 0.000003 0.069492 0.000000 0.000000
# 5 0.000000 0.000000 0.000000 0.000000 0.055626 0.000000
# 6 0.000000 0.000000 0.000001 0.000000 0.000000 0.048142
#
#
# Mechanical properties :
#
#
# Convention : Reuss Voigt Hill
#
# Bulk Modulus (GPa) = 19.81595 49.65534 34.73565
# Shear Modulus (GPa) = 11.15607 20.76112 15.95860
#
# Velocity S-wave (km/s) = 2.27867 3.10850 2.72536
# Velocity P-wave (km/s) = 4.01821 5.99956 5.10591
#
# Compressibility (1/GPa) = 0.05046439
#
# Stress axis : x y z
#
# Youngs Moduli (GPa) = 39.58496 100.11044 8.40100
#
# Poissons Ratio (x) = -0.17732 0.31230
# Poissons Ratio (y) = -0.07011 0.13867
# Poissons Ratio (z) = 1.47155 1.65250
#
# Static dielectric constant tensor:
#      x y z
#    x 3.895230 0.000000 0.000000 
#    y 0.000000 6.414810 0.000000 
#    z 0.000000 0.000000 3.161990 
# 
# 
# High freq. dielectric constant tensor:
#      x y z
#    x 1.862950 0.000000 0.000000 
#    y 0.000000 1.861600 0.000000 
#    z 0.000000 0.000000 1.762350 
# 
# From -- ./inp_files/20791.got.cif
#   From: 2010.03.12/outbox.cif.g09.slc.cpg/sg74_11_cif.got.tgz:20791.got - 2010.04.16 15:46:19.
