data_PCOD8299547
_publ_section_title
;
Structure prediction by ZEFSAII (Michael W. Deem and Ramdas Pophale) SiO2 
 PCOD8299547
Probable space group: I M M A
;
_chemical_formula_sum "Si O2"
_cell_formula_units_Z 96
_cell_length_a 23.041021
_cell_length_b 25.470546
_cell_length_c 8.209912
_cell_angle_alpha 90.000000
_cell_angle_beta 90.000000
_cell_angle_gamma 90.000000
_cell_volume 4818.129589
_symmetry_space_group_name_H-M "I M M A"
_symmetry_group_IT_number 74
_symmetry_cell_setting 'orthorhombic'
loop_
_space_group_symop_operation_xyz
x,y,z
-x,1/2-y,z
x,-y,-z
-x,1/2+y,-z
-x,-y,-z
x,1/2+y,-z
-x,y,z
x,1/2-y,z
1/2+x,1/2+y,1/2+z
1/2-x,-y,1/2+z
1/2+x,1/2-y,1/2-z
1/2-x,y,1/2-z
1/2-x,1/2-y,1/2-z
1/2+x,y,1/2-z
1/2-x,1/2+y,1/2+z
1/2+x,-y,1/2+z
loop_
_atom_site_type_symbol
_atom_site_label
_atom_site_fract_x
_atom_site_fract_y
_atom_site_fract_z
Si Si1 0.843664 0.622977 0.846078
Si Si2 0.738793 0.847070 0.067372
Si Si3 0.624550 0.308801 0.054826
Si Si4 0.065914 0.595265 0.413322
Si Si5 0.323079 0.056802 0.051842
Si Si6 0.434074 0.941184 0.454716
O O1 0.876799 0.665164 0.733521
O O2 0.812124 0.576847 0.737766
O O3 0.796338 0.652541 0.956780
O O4 0.892866 0.599432 0.957903
O O5 0.750000 0.828667 0.250000
O O6 0.692318 0.806393 0.994900
O O7 0.709893 0.904806 0.072376
O O8 0.598871 0.250000 0.059026
O O9 0.586697 0.343732 0.927564
O O10 0.107171 0.560111 0.528089
O O11 0.072181 0.571234 0.234827
O O12 0.000000 0.590555 0.476161
O O13 0.299536 0.000000 0.000000
O O14 0.500000 0.932511 0.513866
O O15 0.413825 0.000000 0.500000
#
# Coordination Sequence:
#
# PCOD8299547 Si02
#       6
#    16  16  16  16  16  16
#     4  10  20  35  55  80 111 143 183 231 274 329
#     4  10  21  36  54  78 108 141 180 225 276 333
#     4  10  22  39  58  79 105 141 185 233 282 326
#     4   9  19  36  55  78 110 143 182 228 269 323
#     4  10  20  32  50  79 111 146 183 220 268 323
#     4  10  20  35  57  84 114 148 181 218 268 324
#
# _framework density 19.924744
#
# number of rings (size 3 to 8) (size 9 to 14) (size 15 to 20)
#    0.000    2.500    0.000    5.000    0.000    7.000 
#    0.000    2.500    0.000    1.000    0.000    0.000 
#    0.000    0.000    0.000    0.000    0.000    0.000 
#
# Total GULP energy -594898.083307 kJ/mol
# GULP energy per Si atom -12393.710069 kJ/mol
# Density = 1.987939 g / cm^3
# Si number density = 19.924744 Si / 1000 Ang^3
#
#
#
# Elastic Constant Matrix: (Units=GPa)
#
#
# Indices 1 2 3 4 5 6 
#
# 1 77.2651 -3.5825 22.4952 0.0000 0.0000 0.0000
# 2 -3.5825 82.7697 2.7486 0.0000 0.0000 0.0000
# 3 22.4952 2.7486 80.6369 0.0000 0.0000 0.0000
# 4 0.0000 0.0000 0.0000 18.1592 0.0000 0.0000
# 5 0.0000 0.0000 0.0000 0.0000 32.0986 0.0000
# 6 0.0000 0.0000 0.0000 0.0000 0.0000 15.5733
#
#
#
# Elastic Compliance Matrix: (Units=1/GPa)
#
#
# Indices 1 2 3 4 5 6 
#
# 1 0.014132 0.000743 -0.003968 0.000000 0.000000 0.000000
# 2 0.000743 0.012135 -0.000621 0.000000 0.000000 0.000000
# 3 -0.003968 -0.000621 0.013529 0.000000 0.000000 0.000000
# 4 0.000000 0.000000 0.000000 0.055069 0.000000 0.000000
# 5 0.000000 0.000000 0.000000 0.000000 0.031154 0.000000
# 6 0.000000 0.000000 0.000000 0.000000 0.000000 0.064213
#
#
# Mechanical properties :
#
#
# Convention : Reuss Voigt Hill
#
# Bulk Modulus (GPa) = 31.14753 31.55491 31.35122
# Shear Modulus (GPa) = 23.96662 27.76691 25.86676
#
# Velocity S-wave (km/s) = 3.47199 3.73713 3.60700
# Velocity P-wave (km/s) = 5.63378 5.87307 5.75467
#
# Compressibility (1/GPa) = 0.03210528
#
# Stress axis : x y z
#
# Youngs Moduli (GPa) = 70.76081 82.40958 73.91352
#
# Poissons Ratio (x) = -0.06127 0.29327
# Poissons Ratio (y) = -0.05261 0.04590
# Poissons Ratio (z) = 0.28076 0.05118
#
# Static dielectric constant tensor:
#      x y z
#    x 3.755660 0.000000 0.000000 
#    y 0.000000 3.459940 0.000000 
#    z 0.000000 0.000000 3.614050 
# 
# 
# High freq. dielectric constant tensor:
#      x y z
#    x 1.779540 0.000000 0.000000 
#    y 0.000000 1.757480 0.000000 
#    z 0.000000 0.000000 1.775360 
# 
# From -- ./inp_files/12634.got.cif
#   From: 2010.03.12/outbox.cif.g09.slc.cpg/sg74_7_cif.got.tgz:12634.got - 2010.04.16 15:46:19.
