data_PCOD8299741
_publ_section_title
;
Structure prediction by ZEFSAII (Michael W. Deem and Ramdas Pophale) SiO2 
 PCOD8299741
Probable space group: I M M A
;
_chemical_formula_sum "Si O2"
_cell_formula_units_Z 96
_cell_length_a 13.716745
_cell_length_b 17.030185
_cell_length_c 20.216765
_cell_angle_alpha 90.000000
_cell_angle_beta 90.000000
_cell_angle_gamma 90.000000
_cell_volume 4722.610122
_symmetry_space_group_name_H-M "I M M A"
_symmetry_group_IT_number 74
_symmetry_cell_setting 'orthorhombic'
loop_
_space_group_symop_operation_xyz
x,y,z
-x,1/2-y,z
x,-y,-z
-x,1/2+y,-z
-x,-y,-z
x,1/2+y,-z
-x,y,z
x,1/2-y,z
1/2+x,1/2+y,1/2+z
1/2-x,-y,1/2+z
1/2+x,1/2-y,1/2-z
1/2-x,y,1/2-z
1/2-x,1/2-y,1/2-z
1/2+x,y,1/2-z
1/2-x,1/2+y,1/2+z
1/2+x,-y,1/2+z
loop_
_atom_site_type_symbol
_atom_site_label
_atom_site_fract_x
_atom_site_fract_y
_atom_site_fract_z
Si Si1 0.305792 0.661008 0.601210
Si Si2 0.613734 0.586677 0.474962
Si Si3 0.107079 0.339738 0.348937
Si Si4 0.113519 0.932267 0.778227
Si Si5 0.886424 0.106558 0.734758
Si Si6 0.720994 0.838750 0.354208
O O1 0.329715 0.750000 0.624671
O O2 0.358780 0.647894 0.531985
O O3 0.187880 0.650328 0.593318
O O4 0.340153 0.597464 0.654183
O O5 0.639752 0.500000 0.500000
O O6 0.500000 0.594689 0.456656
O O7 0.677371 0.605734 0.410844
O O8 0.095182 0.250000 0.328431
O O9 0.149938 0.383060 0.284589
O O10 0.000000 0.373174 0.370891
O O11 0.000000 0.921323 0.787698
O O12 0.141758 0.021746 0.764027
O O13 0.825157 0.125181 0.668443
O O14 0.853946 0.166080 0.792453
O O15 0.000000 0.115064 0.717232
O O16 0.735369 0.750000 0.380786
#
# Coordination Sequence:
#
# PCOD8299741 Si02
#       6
#    16  16  16  16  16  16
#     4  11  22  35  58  88 120 162 201 240 291 351
#     4  11  25  43  63  87 119 159 197 240 297 358
#     4   9  19  34  52  80 119 160 201 242 288 344
#     4  10  20  33  55  86 120 156 196 243 295 345
#     4  10  22  39  62  91 120 154 197 248 302 355
#     4  11  24  40  63  91 118 156 198 247 303 348
#
# _framework density 20.327742000000001
#
# number of rings (size 3 to 8) (size 9 to 14) (size 15 to 20)
#    0.000    1.667    0.000    4.500    7.000    9.000 
#    0.000    0.833    0.000    3.000    0.000    0.000 
#    0.000    0.000    0.000    0.000    0.000    0.000 
#
# Total GULP energy -595114.133120 kJ/mol
# GULP energy per Si atom -12398.211107 kJ/mol
# Density = 2.028148 g / cm^3
# Si number density = 20.327742 Si / 1000 Ang^3
#
#
#
# Elastic Constant Matrix: (Units=GPa)
#
#
# Indices 1 2 3 4 5 6 
#
# 1 107.1726 38.5482 69.7287 0.0000 0.0000 0.0000
# 2 38.5482 90.1852 41.3673 0.0000 0.0000 0.0000
# 3 69.7287 41.3673 90.6900 0.0000 0.0000 0.0000
# 4 0.0000 0.0000 0.0000 49.1255 0.0000 0.0000
# 5 0.0000 0.0000 0.0000 0.0000 33.2622 0.0000
# 6 0.0000 0.0000 0.0000 0.0000 0.0000 24.4095
#
#
#
# Elastic Compliance Matrix: (Units=1/GPa)
#
#
# Indices 1 2 3 4 5 6 
#
# 1 0.018895 -0.001786 -0.013713 0.000000 0.000000 0.000000
# 2 -0.001786 0.014191 -0.005100 0.000000 0.000000 0.000000
# 3 -0.013713 -0.005100 0.023896 0.000000 0.000000 0.000000
# 4 0.000000 0.000000 0.000000 0.020356 0.000000 0.000000
# 5 0.000000 0.000000 0.000000 0.000000 0.030064 0.000000
# 6 0.000000 0.000000 0.000000 0.000000 0.000000 0.040968
#
#
# Mechanical properties :
#
#
# Convention : Reuss Voigt Hill
#
# Bulk Modulus (GPa) = 63.35386 65.25961 64.30673
# Shear Modulus (GPa) = 25.66331 30.58633 28.12482
#
# Velocity S-wave (km/s) = 3.55699 3.88320 3.72367
# Velocity P-wave (km/s) = 6.93566 7.23043 7.08458
#
# Compressibility (1/GPa) = 0.01578436
#
# Stress axis : x y z
#
# Youngs Moduli (GPa) = 52.92291 70.46725 41.84726
#
# Poissons Ratio (x) = 0.12588 0.57386
# Poissons Ratio (y) = 0.09454 0.21340
# Poissons Ratio (z) = 0.72575 0.35935
#
# Static dielectric constant tensor:
#      x y z
#    x 3.961930 0.000000 0.000000 
#    y 0.000000 3.774240 0.000000 
#    z 0.000000 0.000000 3.528930 
# 
# 
# High freq. dielectric constant tensor:
#      x y z
#    x 1.808480 0.000000 0.000000 
#    y 0.000000 1.804240 0.000000 
#    z 0.000000 0.000000 1.764840 
# 
# From -- ./inp_files/51840.got.cif
#   From: 2010.03.12/outbox.cif.g09.slc.cpg/sg74_26_cif.got.tgz:51840.got - 2010.04.16 15:46:19.
