data_PCOD8299645
_publ_section_title
;
Structure prediction by ZEFSAII (Michael W. Deem and Ramdas Pophale) SiO2 
 PCOD8299645
Probable space group: I M M A
;
_chemical_formula_sum "Si O2"
_cell_formula_units_Z 128
_cell_length_a 14.503617
_cell_length_b 20.241853
_cell_length_c 23.355505
_cell_angle_alpha 90.000000
_cell_angle_beta 90.000000
_cell_angle_gamma 90.000000
_cell_volume 6856.711103
_symmetry_space_group_name_H-M "I M M A"
_symmetry_group_IT_number 74
_symmetry_cell_setting 'orthorhombic'
loop_
_space_group_symop_operation_xyz
x,y,z
-x,1/2-y,z
x,-y,-z
-x,1/2+y,-z
-x,-y,-z
x,1/2+y,-z
-x,y,z
x,1/2-y,z
1/2+x,1/2+y,1/2+z
1/2-x,-y,1/2+z
1/2+x,1/2-y,1/2-z
1/2-x,y,1/2-z
1/2-x,1/2-y,1/2-z
1/2+x,y,1/2-z
1/2-x,1/2+y,1/2+z
1/2+x,-y,1/2+z
loop_
_atom_site_type_symbol
_atom_site_label
_atom_site_fract_x
_atom_site_fract_y
_atom_site_fract_z
Si Si1 0.268351 0.430618 0.687068
Si Si2 0.391796 0.558333 0.961157
Si Si3 0.784172 0.174845 0.902688
Si Si4 0.390332 0.676146 0.637614
Si Si5 0.603281 0.176431 0.962832
Si Si6 0.892628 0.054714 0.213108
Si Si7 0.897923 0.828225 0.988635
Si Si8 0.606633 0.483421 0.161213
O O1 0.250000 0.401757 0.750000
O O2 0.313273 0.372351 0.649456
O O3 0.336719 0.493182 0.687493
O O4 0.169081 0.451172 0.661713
O O5 0.500000 0.548597 0.963682
O O6 0.361235 0.557178 0.894800
O O7 0.346235 0.500000 0.000000
O O8 0.363116 0.628937 0.986324
O O9 0.816011 0.250000 0.889226
O O10 0.673460 0.171332 0.909852
O O11 0.831076 0.147239 0.960802
O O12 0.500000 0.680381 0.637770
O O13 0.350978 0.750000 0.651708
O O14 0.356248 0.622732 0.684520
O O15 0.359027 0.651274 0.574144
O O16 0.500000 0.158415 0.940967
O O17 0.606225 0.250000 0.989014
O O18 0.875268 0.060039 0.281564
O O19 0.000000 0.042878 0.199351
O O20 0.904221 0.750000 0.989569
O O21 0.000000 0.858519 0.998956
O O22 0.500000 0.505683 0.157694
#
# Coordination Sequence:
#
# PCOD8299645 Si02
#       8
#    16  16  16  16  16  16  16  16
#     4  10  21  35  51  70  94 125 160 201 247 293
#     4   9  16  27  46  69  90 118 159 199 232 275
#     4  10  20  33  51  73  93 121 161 199 244 298
#     4   8  14  28  52  78 102 131 165 197 231 277
#     4   9  18  32  48  69  99 127 151 191 245 290
#     4   9  18  33  51  72 101 133 163 197 238 283
#     4   8  15  29  48  70  98 128 155 188 233 285
#     4   9  18  33  51  69  94 130 167 201 239 285
#
# _framework density 18.667842
#
# number of rings (size 3 to 8) (size 9 to 14) (size 15 to 20)
#    0.000    3.000    0.000    1.500    0.000    3.250 
#    0.000    2.500    0.000    9.375    0.000    7.000 
#    0.000    0.000    0.000    0.000    0.000    0.000 
#
# Total GULP energy -793111.920493 kJ/mol
# GULP energy per Si atom -12392.373758 kJ/mol
# Density = 1.862535 g / cm^3
# Si number density = 18.667842 Si / 1000 Ang^3
#
#
#
# Elastic Constant Matrix: (Units=GPa)
#
#
# Indices 1 2 3 4 5 6 
#
# 1 46.6300 21.8943 22.1906 0.0000 0.0000 0.0000
# 2 21.8943 106.8985 78.6238 0.0000 0.0000 0.0000
# 3 22.1906 78.6238 123.7316 0.0000 0.0000 0.0000
# 4 0.0000 0.0000 0.0000 32.9555 0.0000 0.0000
# 5 0.0000 0.0000 0.0000 0.0000 21.8975 0.0000
# 6 0.0000 0.0000 0.0000 0.0000 0.0000 15.8855
#
#
#
# Elastic Compliance Matrix: (Units=1/GPa)
#
#
# Indices 1 2 3 4 5 6 
#
# 1 0.024048 -0.003292 -0.002221 0.000000 0.000000 0.000000
# 2 -0.003292 0.018014 -0.010856 0.000000 0.000000 0.000000
# 3 -0.002221 -0.010856 0.015379 0.000000 0.000000 0.000000
# 4 0.000000 0.000000 0.000000 0.030344 0.000000 0.000000
# 5 0.000000 0.000000 0.000000 0.000000 0.045667 0.000000
# 6 0.000000 0.000000 0.000000 0.000000 0.000000 0.062950
#
#
# Mechanical properties :
#
#
# Convention : Reuss Voigt Hill
#
# Bulk Modulus (GPa) = 40.48213 58.07527 49.27870
# Shear Modulus (GPa) = 21.06380 24.45114 22.75747
#
# Velocity S-wave (km/s) = 3.36273 3.62304 3.49531
# Velocity P-wave (km/s) = 6.06711 6.97705 6.53793
#
# Compressibility (1/GPa) = 0.02470226
#
# Stress axis : x y z
#
# Youngs Moduli (GPa) = 41.58350 55.51381 65.02463
#
# Poissons Ratio (x) = 0.18273 0.14443
# Poissons Ratio (y) = 0.13688 0.70592
# Poissons Ratio (z) = 0.09237 0.60267
#
# Static dielectric constant tensor:
#      x y z
#    x 3.396860 0.000000 0.000000 
#    y 0.000000 3.333970 0.000000 
#    z 0.000000 0.000000 3.615200 
# 
# 
# High freq. dielectric constant tensor:
#      x y z
#    x 1.712450 0.000000 0.000000 
#    y 0.000000 1.703910 0.000000 
#    z 0.000000 0.000000 1.720250 
# 
# From -- ./inp_files/61143.got.cif
#   From: 2010.03.12/outbox.cif.g09.slc.cpg/sg74_31_cif.got.tgz:61143.got - 2010.04.16 15:46:19.
