data_PCOD8299243
_publ_section_title
;
Structure prediction by ZEFSAII (Michael W. Deem and Ramdas Pophale) SiO2 
 PCOD8299243
Probable space group: I M M A
;
_chemical_formula_sum "Si O2"
_cell_formula_units_Z 64
_cell_length_a 10.191750
_cell_length_b 33.228224
_cell_length_c 9.885298
_cell_angle_alpha 90.000000
_cell_angle_beta 90.000000
_cell_angle_gamma 90.000000
_cell_volume 3347.693257
_symmetry_space_group_name_H-M "I M M A"
_symmetry_group_IT_number 74
_symmetry_cell_setting 'orthorhombic'
loop_
_space_group_symop_operation_xyz
x,y,z
-x,1/2-y,z
x,-y,-z
-x,1/2+y,-z
-x,-y,-z
x,1/2+y,-z
-x,y,z
x,1/2-y,z
1/2+x,1/2+y,1/2+z
1/2-x,-y,1/2+z
1/2+x,1/2-y,1/2-z
1/2-x,y,1/2-z
1/2-x,1/2-y,1/2-z
1/2+x,y,1/2-z
1/2-x,1/2+y,1/2+z
1/2+x,-y,1/2+z
loop_
_atom_site_type_symbol
_atom_site_label
_atom_site_fract_x
_atom_site_fract_y
_atom_site_fract_z
Si Si1 0.227272 0.398537 0.536940
Si Si2 0.500000 0.869395 0.564267
Si Si3 0.750000 0.965710 0.250000
Si Si4 0.000000 0.988180 0.841219
Si Si5 0.250000 0.167636 0.750000
Si Si6 0.000000 0.406275 0.322389
Si Si7 0.000000 0.795926 0.119613
O O1 0.375522 0.394224 0.488293
O O2 0.215309 0.439206 0.620526
O O3 0.191615 0.360172 0.629822
O O4 0.129807 0.404174 0.412096
O O5 0.500000 0.866594 0.727220
O O6 0.500000 0.823678 0.512946
O O7 0.872647 0.993680 0.226185
O O8 0.000000 0.941688 0.791796
O O9 0.000000 0.000000 0.000000
O O10 0.130217 0.195746 0.793765
O O11 0.000000 0.750000 0.071230
#
# Coordination Sequence:
#
# PCOD8299243 Si02
#       7
#    16   8   8   8   8   8   8
#     4  10  21  39  62  84 113 152 197 242 296 351
#     4  10  22  37  59  85 114 154 196 235 284 355
#     4  11  24  42  59  84 117 148 195 258 303 356
#     4  12  29  40  57  83 118 154 203 257 306 344
#     4   9  19  36  61  92 118 148 190 236 287 352
#     4  12  24  38  60  82 111 157 205 241 295 357
#     4  10  19  35  60  90 123 152 185 235 294 346
#
# _framework density 19.117642
#
# number of rings (size 3 to 8) (size 9 to 14) (size 15 to 20)
#    0.000    1.500    0.000    4.875    7.000    5.000 
#    0.000    0.000    0.000   15.000    0.000    0.000 
#    0.000    0.000    0.000    0.000    0.000    0.000 
#
# Total GULP energy -396735.528324 kJ/mol
# GULP energy per Si atom -12397.985260 kJ/mol
# Density = 1.907413 g / cm^3
# Si number density = 19.117642 Si / 1000 Ang^3
#
#
#
# Elastic Constant Matrix: (Units=GPa)
#
#
# Indices 1 2 3 4 5 6 
#
# 1 151.7558 63.2592 67.1791 -0.0081 0.0009 -0.0927
# 2 63.2592 106.1335 63.9366 -0.0055 0.0011 -0.0180
# 3 67.1791 63.9366 142.7679 -0.0021 0.0069 -0.4641
# 4 -0.0081 -0.0055 -0.0021 44.0805 0.0028 -0.0786
# 5 0.0009 0.0011 0.0069 0.0028 50.3364 -0.0545
# 6 -0.0927 -0.0180 -0.4641 -0.0786 -0.0545 241.2425
#
#
#
# Elastic Compliance Matrix: (Units=1/GPa)
#
#
# Indices 1 2 3 4 5 6 
#
# 1 0.009439 -0.004040 -0.002632 0.000001 0.000000 -0.000002
# 2 -0.004040 0.014633 -0.004652 0.000001 0.000000 -0.000009
# 3 -0.002632 -0.004652 0.010326 -0.000001 -0.000001 0.000019
# 4 0.000001 0.000001 -0.000001 0.022686 -0.000001 0.000007
# 5 0.000000 0.000000 -0.000001 -0.000001 0.019866 0.000004
# 6 -0.000002 -0.000009 0.000019 0.000007 0.000004 0.004145
#
#
# Mechanical properties :
#
#
# Convention : Reuss Voigt Hill
#
# Bulk Modulus (GPa) = 85.11190 87.71188 86.41189
# Shear Modulus (GPa) = 46.44248 80.88403 63.66325
#
# Velocity S-wave (km/s) = 4.93414 6.51156 5.77694
# Velocity P-wave (km/s) = 8.77939 10.12490 9.47606
#
# Compressibility (1/GPa) = 0.01174924
#
# Stress axis : x y z
#
# Youngs Moduli (GPa) = 105.94479 68.34038 96.84069
#
# Poissons Ratio (x) = 0.27612 0.25489
# Poissons Ratio (y) = 0.42805 0.45049
# Poissons Ratio (z) = 0.27885 0.31791
#
# Static dielectric constant tensor:
#      x y z
#    x 3.798620 0.000120 -0.000140 
#    y 0.000120 3.510440 -0.000010 
#    z -0.000140 -0.000010 3.785150 
# 
# 
# High freq. dielectric constant tensor:
#      x y z
#    x 1.764830 0.000000 0.000000 
#    y 0.000000 1.728700 0.000000 
#    z 0.000000 0.000000 1.750690 
# 
# From -- ./inp_files/7413.got.cif
#   From: 2010.03.12/outbox.cif.g09.slc.cpg/sg74_4_cif.got.tgz:7413.got - 2010.04.16 15:46:19.
