data_PCOD8299200
_publ_section_title
;
Structure prediction by ZEFSAII (Michael W. Deem and Ramdas Pophale) SiO2 
 PCOD8299200
Probable space group: I M M A
;
_chemical_formula_sum "Si O2"
_cell_formula_units_Z 104
_cell_length_a 9.369164
_cell_length_b 21.338351
_cell_length_c 26.757137
_cell_angle_alpha 90.000000
_cell_angle_beta 90.000000
_cell_angle_gamma 90.000000
_cell_volume 5349.353990
_symmetry_space_group_name_H-M "I M M A"
_symmetry_group_IT_number 74
_symmetry_cell_setting 'orthorhombic'
loop_
_space_group_symop_operation_xyz
x,y,z
-x,1/2-y,z
x,-y,-z
-x,1/2+y,-z
-x,-y,-z
x,1/2+y,-z
-x,y,z
x,1/2-y,z
1/2+x,1/2+y,1/2+z
1/2-x,-y,1/2+z
1/2+x,1/2-y,1/2-z
1/2-x,y,1/2-z
1/2-x,1/2-y,1/2-z
1/2+x,y,1/2-z
1/2-x,1/2+y,1/2+z
1/2+x,-y,1/2+z
loop_
_atom_site_type_symbol
_atom_site_label
_atom_site_fract_x
_atom_site_fract_y
_atom_site_fract_z
Si Si1 0.169290 0.179316 0.975322
Si Si2 0.834092 0.366543 0.867504
Si Si3 0.836466 0.543157 0.300913
Si Si4 0.166234 0.179019 0.298211
Si Si5 0.669082 0.558039 0.534793
Si Si6 0.840821 0.750000 0.201536
Si Si7 0.160865 0.571288 0.632586
O O1 0.229718 0.250000 0.987105
O O2 0.221614 0.155577 0.921413
O O3 0.000000 0.183297 0.974997
O O4 0.221599 0.126109 0.014341
O O5 0.735292 0.421946 0.847751
O O6 0.807410 0.310143 0.830507
O O7 0.000000 0.387698 0.869676
O O8 0.750000 0.554663 0.250000
O O9 0.830773 0.471216 0.317645
O O10 0.000000 0.565673 0.292593
O O11 0.210931 0.250000 0.310388
O O12 0.250000 0.153816 0.250000
O O13 0.206992 0.139761 0.347684
O O14 0.000000 0.172188 0.285817
O O15 0.719488 0.500000 0.500000
O O16 0.500000 0.556606 0.539941
O O17 0.734865 0.547911 0.589260
O O18 0.750000 0.750000 0.250000
O O19 0.000000 0.750000 0.221199
O O20 0.000000 0.571416 0.610982
#
# Coordination Sequence:
#
# PCOD8299200 Si02
#       7
#    16  16  16  16  16   8  16
#     4   9  17  33  57  82 109 142 182 227 273 323
#     4  10  19  35  57  79 106 142 182 221 269 318
#     4  11  23  37  54  79 110 145 183 223 270 322
#     4   9  18  34  56  81 109 142 178 217 265 322
#     4  10  21  36  56  83 109 138 182 232 276 321
#     4  10  20  32  50  76 104 138 176 216 263 312
#     4  10  22  38  55  78 110 144 178 221 273 329
#
# _framework density 19.441600000000001
#
# number of rings (size 3 to 8) (size 9 to 14) (size 15 to 20)
#    0.000    2.154    0.769    2.308    0.000    5.846 
#    0.000    0.769    0.000    0.923    0.000    0.000 
#    0.000    0.000    0.000    0.000    0.000    0.000 
#
# Total GULP energy -644685.356040 kJ/mol
# GULP energy per Si atom -12397.795308 kJ/mol
# Density = 1.939735 g / cm^3
# Si number density = 19.441600 Si / 1000 Ang^3
#
#
#
# Elastic Constant Matrix: (Units=GPa)
#
#
# Indices 1 2 3 4 5 6 
#
# 1 52.7812 30.5535 34.1284 0.0000 0.0000 0.0000
# 2 30.5535 101.1889 33.9383 0.0000 0.0000 0.0000
# 3 34.1284 33.9383 87.1354 0.0000 0.0000 0.0000
# 4 0.0000 0.0000 0.0000 37.6937 0.0000 0.0000
# 5 0.0000 0.0000 0.0000 0.0000 30.2817 0.0000
# 6 0.0000 0.0000 0.0000 0.0000 0.0000 24.9344
#
#
#
# Elastic Compliance Matrix: (Units=1/GPa)
#
#
# Indices 1 2 3 4 5 6 
#
# 1 0.027757 -0.005446 -0.008750 0.000000 0.000000 0.000000
# 2 -0.005446 0.012436 -0.002711 0.000000 0.000000 0.000000
# 3 -0.008750 -0.002711 0.015959 0.000000 0.000000 0.000000
# 4 0.000000 0.000000 0.000000 0.026530 0.000000 0.000000
# 5 0.000000 0.000000 0.000000 0.000000 0.033023 0.000000
# 6 0.000000 0.000000 0.000000 0.000000 0.000000 0.040105
#
#
# Mechanical properties :
#
#
# Convention : Reuss Voigt Hill
#
# Bulk Modulus (GPa) = 44.76670 48.70509 46.73590
# Shear Modulus (GPa) = 25.37164 28.08099 26.72632
#
# Velocity S-wave (km/s) = 3.61642 3.80462 3.71171
# Velocity P-wave (km/s) = 6.36508 6.66382 6.51616
#
# Compressibility (1/GPa) = 0.02233803
#
# Stress axis : x y z
#
# Youngs Moduli (GPa) = 36.02731 80.41114 62.65915
#
# Poissons Ratio (x) = 0.43794 0.54828
# Poissons Ratio (y) = 0.19621 0.16984
# Poissons Ratio (z) = 0.31525 0.21796
#
# Static dielectric constant tensor:
#      x y z
#    x 3.142350 0.000000 0.000000 
#    y 0.000000 3.903390 0.000000 
#    z 0.000000 0.000000 3.400610 
# 
# 
# High freq. dielectric constant tensor:
#      x y z
#    x 1.732300 0.000000 0.000000 
#    y 0.000000 1.774140 0.000000 
#    z 0.000000 0.000000 1.754170 
# 
# From -- ./inp_files/64455.got.cif
#   From: 2010.03.12/outbox.cif.g09.slc.cpg/sg74_33_cif.got.tgz:64455.got - 2010.04.16 15:46:19.
