data_PCOD8299173
_publ_section_title
;
Structure prediction by ZEFSAII (Michael W. Deem and Ramdas Pophale) SiO2 
 PCOD8299173
Probable space group: I M M A
;
_chemical_formula_sum "Si O2"
_cell_formula_units_Z 104
_cell_length_a 9.707639
_cell_length_b 24.625296
_cell_length_c 22.454446
_cell_angle_alpha 90.000000
_cell_angle_beta 90.000000
_cell_angle_gamma 90.000000
_cell_volume 5367.813544
_symmetry_space_group_name_H-M "I M M A"
_symmetry_group_IT_number 74
_symmetry_cell_setting 'orthorhombic'
loop_
_space_group_symop_operation_xyz
x,y,z
-x,1/2-y,z
x,-y,-z
-x,1/2+y,-z
-x,-y,-z
x,1/2+y,-z
-x,y,z
x,1/2-y,z
1/2+x,1/2+y,1/2+z
1/2-x,-y,1/2+z
1/2+x,1/2-y,1/2-z
1/2-x,y,1/2-z
1/2-x,1/2-y,1/2-z
1/2+x,y,1/2-z
1/2-x,1/2+y,1/2+z
1/2+x,-y,1/2+z
loop_
_atom_site_type_symbol
_atom_site_label
_atom_site_fract_x
_atom_site_fract_y
_atom_site_fract_z
Si Si1 0.660788 0.925379 0.358226
Si Si2 0.840929 0.357230 0.974048
Si Si3 0.639500 0.750000 0.191187
Si Si4 0.662035 0.513540 0.808249
Si Si5 0.750000 0.652769 0.250000
Si Si6 0.841004 0.250000 0.909443
Si Si7 0.660441 0.812428 0.929864
Si Si8 0.656452 0.138431 0.194643
O O1 0.500000 0.941763 0.350737
O O2 0.686309 0.903052 0.424926
O O3 0.763768 0.976929 0.358220
O O4 0.700000 0.883451 0.305843
O O5 0.791688 0.301716 0.944807
O O6 0.000000 0.356869 0.994214
O O7 0.745580 0.358016 0.032846
O O8 0.500000 0.750000 0.151409
O O9 0.630229 0.694570 0.230011
O O10 0.778233 0.750000 0.155256
O O11 0.500000 0.498049 0.800359
O O12 0.750000 0.499007 0.750000
O O13 0.680551 0.576196 0.825207
O O14 0.000000 0.250000 0.896934
O O15 0.500000 0.821921 0.943450
O O16 0.703997 0.750000 0.943330
O O17 0.692806 0.823331 0.860641
O O18 0.500000 0.146551 0.215725
O O19 0.750000 0.155568 0.250000
#
# Coordination Sequence:
#
# PCOD8299173 Si02
#       8
#    16  16   8  16   8   8  16  16
#     4  11  22  36  54  77 108 147 195 244 285 330
#     4  10  21  37  55  77 108 148 189 230 276 329
#     4  11  23  33  48  74 104 143 190 234 286 341
#     4  10  20  35  57  82 112 149 187 231 283 338
#     4  11  22  34  48  72 108 144 183 240 292 330
#     4  10  19  35  52  67 101 145 183 228 282 327
#     4  10  21  38  61  88 117 148 184 228 275 333
#     4   9  20  39  61  89 121 148 178 222 279 337
#
# _framework density 19.374742000000001
#
# number of rings (size 3 to 8) (size 9 to 14) (size 15 to 20)
#    0.000    1.846    3.077    0.923    0.000    4.615 
#    0.000    0.769    0.000    4.615    0.000    0.000 
#    0.000    0.000    0.000    0.000    0.000    0.000 
#
# Total GULP energy -644280.875429 kJ/mol
# GULP energy per Si atom -12390.016835 kJ/mol
# Density = 1.933064 g / cm^3
# Si number density = 19.374742 Si / 1000 Ang^3
#
#
#
# Elastic Constant Matrix: (Units=GPa)
#
#
# Indices 1 2 3 4 5 6 
#
# 1 99.3914 28.8144 56.9780 0.0000 0.0000 0.0000
# 2 28.8144 44.5501 24.4398 0.0000 0.0000 0.0000
# 3 56.9780 24.4398 99.1619 0.0000 0.0000 0.0000
# 4 0.0000 0.0000 0.0000 29.3794 0.0000 0.0000
# 5 0.0000 0.0000 0.0000 0.0000 32.5635 0.0000
# 6 0.0000 0.0000 0.0000 0.0000 0.0000 61.1640
#
#
#
# Elastic Compliance Matrix: (Units=1/GPa)
#
#
# Indices 1 2 3 4 5 6 
#
# 1 0.016397 -0.006287 -0.007872 0.000000 0.000000 0.000000
# 2 -0.006287 0.028366 -0.003379 0.000000 0.000000 0.000000
# 3 -0.007872 -0.003379 0.015441 0.000000 0.000000 0.000000
# 4 0.000000 0.000000 0.000000 0.034037 0.000000 0.000000
# 5 0.000000 0.000000 0.000000 0.000000 0.030709 0.000000
# 6 0.000000 0.000000 0.000000 0.000000 0.000000 0.016349
#
#
# Mechanical properties :
#
#
# Convention : Reuss Voigt Hill
#
# Bulk Modulus (GPa) = 39.79573 51.50752 45.65163
# Shear Modulus (GPa) = 27.06348 33.47948 30.27148
#
# Velocity S-wave (km/s) = 3.74149 4.16143 3.95703
# Velocity P-wave (km/s) = 6.26495 7.05213 6.67016
#
# Compressibility (1/GPa) = 0.02512832
#
# Stress axis : x y z
#
# Youngs Moduli (GPa) = 60.98857 35.25294 64.76468
#
# Poissons Ratio (x) = 0.22162 0.50982
# Poissons Ratio (y) = 0.38341 0.21884
# Poissons Ratio (z) = 0.48010 0.11912
#
# Static dielectric constant tensor:
#      x y z
#    x 3.653770 0.000000 0.000000 
#    y 0.000000 3.641820 0.000000 
#    z 0.000000 0.000000 3.418950 
# 
# 
# High freq. dielectric constant tensor:
#      x y z
#    x 1.759880 0.000000 0.000000 
#    y 0.000000 1.746090 0.000000 
#    z 0.000000 0.000000 1.741390 
# 
# From -- ./inp_files/57676.got.cif
#   From: 2010.03.12/outbox.cif.g09.slc.cpg/sg74_29_cif.got.tgz:57676.got - 2010.04.16 15:46:19.
