data_PCOD8299404
_publ_section_title
;
Structure prediction by ZEFSAII (Michael W. Deem and Ramdas Pophale) SiO2 
 PCOD8299404
Probable space group: I M M A
;
_chemical_formula_sum "Si O2"
_cell_formula_units_Z 112
_cell_length_a 18.192297
_cell_length_b 17.473936
_cell_length_c 18.648931
_cell_angle_alpha 90.000000
_cell_angle_beta 90.000000
_cell_angle_gamma 90.000000
_cell_volume 5928.327949
_symmetry_space_group_name_H-M "I M M A"
_symmetry_group_IT_number 74
_symmetry_cell_setting 'orthorhombic'
loop_
_space_group_symop_operation_xyz
x,y,z
-x,1/2-y,z
x,-y,-z
-x,1/2+y,-z
-x,-y,-z
x,1/2+y,-z
-x,y,z
x,1/2-y,z
1/2+x,1/2+y,1/2+z
1/2-x,-y,1/2+z
1/2+x,1/2-y,1/2-z
1/2-x,y,1/2-z
1/2-x,1/2-y,1/2-z
1/2+x,y,1/2-z
1/2-x,1/2+y,1/2+z
1/2+x,-y,1/2+z
loop_
_atom_site_type_symbol
_atom_site_label
_atom_site_fract_x
_atom_site_fract_y
_atom_site_fract_z
Si Si1 0.668125 0.665184 0.747237
Si Si2 0.417972 0.665867 0.603158
Si Si3 0.414551 0.559121 0.851197
Si Si4 0.726913 0.473262 0.832963
Si Si5 0.582050 0.664424 0.985075
Si Si6 0.700886 0.071414 0.449373
Si Si7 0.278229 0.662997 0.064607
O O1 0.673734 0.750000 0.781217
O O2 0.750000 0.627086 0.750000
O O3 0.639566 0.670257 0.667183
O O4 0.607257 0.618029 0.789433
O O5 0.500000 0.641109 0.626621
O O6 0.420748 0.750000 0.566342
O O7 0.383585 0.600956 0.552248
O O8 0.500000 0.534997 0.842466
O O9 0.361019 0.485870 0.842482
O O10 0.399528 0.599525 0.926987
O O11 0.750000 0.467860 0.750000
O O12 0.768435 0.545041 0.871369
O O13 0.747972 0.392954 0.871409
O O14 0.500000 0.651551 0.014130
O O15 0.590508 0.750000 0.951205
O O16 0.633953 0.656289 0.054413
O O17 0.746939 0.139820 0.486049
O O18 0.704937 0.000000 0.500000
O O19 0.254114 0.750000 0.083368
#
# Coordination Sequence:
#
# PCOD8299404 Si02
#       7
#    16  16  16  16  16  16  16
#     4  10  20  31  47  73 108 151 187 217 262 323
#     4  10  20  33  50  74 105 140 180 222 265 322
#     4  11  20  31  51  78 114 151 181 222 274 333
#     4  11  23  38  55  82 114 144 186 233 280 333
#     4   9  18  31  51  82 116 148 184 225 270 330
#     4  10  20  36  57  80 107 139 178 229 283 332
#     4  10  21  38  60  80 107 148 189 231 276 330
#
# _framework density 18.892341999999999
#
# number of rings (size 3 to 8) (size 9 to 14) (size 15 to 20)
#    0.000    1.857    1.429    3.429    0.000    2.571 
#    0.000    1.429    0.000    1.286    0.000    0.000 
#    0.000    2.286    0.000    0.000    0.000    0.000 
#
# Total GULP energy -694002.330985 kJ/mol
# GULP energy per Si atom -12392.898768 kJ/mol
# Density = 1.884934 g / cm^3
# Si number density = 18.892342 Si / 1000 Ang^3
#
#
#
# Elastic Constant Matrix: (Units=GPa)
#
#
# Indices 1 2 3 4 5 6 
#
# 1 119.3935 34.7350 25.8036 0.0000 0.0000 0.0000
# 2 34.7350 89.3039 32.8515 0.0000 0.0000 0.0000
# 3 25.8036 32.8515 76.3625 0.0000 0.0000 0.0000
# 4 0.0000 0.0000 0.0000 9.8484 0.0000 0.0000
# 5 0.0000 0.0000 0.0000 0.0000 23.2784 0.0000
# 6 0.0000 0.0000 0.0000 0.0000 0.0000 20.8903
#
#
#
# Elastic Compliance Matrix: (Units=1/GPa)
#
#
# Indices 1 2 3 4 5 6 
#
# 1 0.009686 -0.003045 -0.001963 0.000000 0.000000 0.000000
# 2 -0.003045 0.014260 -0.005106 0.000000 0.000000 0.000000
# 3 -0.001963 -0.005106 0.015955 0.000000 0.000000 0.000000
# 4 0.000000 0.000000 0.000000 0.101539 0.000000 0.000000
# 5 0.000000 0.000000 0.000000 0.000000 0.042958 0.000000
# 6 0.000000 0.000000 0.000000 0.000000 0.000000 0.047869
#
#
# Mechanical properties :
#
#
# Convention : Reuss Voigt Hill
#
# Bulk Modulus (GPa) = 50.82966 52.42667 51.62816
# Shear Modulus (GPa) = 19.30100 23.58141 21.44120
#
# Velocity S-wave (km/s) = 3.19976 3.53682 3.37250
# Velocity P-wave (km/s) = 6.37296 6.67003 6.52318
#
# Compressibility (1/GPa) = 0.01967355
#
# Stress axis : x y z
#
# Youngs Moduli (GPa) = 103.24355 70.12402 62.67518
#
# Poissons Ratio (x) = 0.21355 0.12302
# Poissons Ratio (y) = 0.31440 0.32001
# Poissons Ratio (z) = 0.20265 0.35805
#
# Static dielectric constant tensor:
#      x y z
#    x 3.533210 0.000000 0.000000 
#    y 0.000000 3.583970 0.000000 
#    z 0.000000 0.000000 3.236480 
# 
# 
# High freq. dielectric constant tensor:
#      x y z
#    x 1.735220 0.000000 0.000000 
#    y 0.000000 1.731870 0.000000 
#    z 0.000000 0.000000 1.705020 
# 
# From -- ./inp_files/53256.got.cif
#   From: 2010.03.12/outbox.cif.g09.slc.cpg/sg74_27_cif.got.tgz:53256.got - 2010.04.16 15:46:19.
