data_PCOD8299865
_publ_section_title
;
Structure prediction by ZEFSAII (Michael W. Deem and Ramdas Pophale) SiO2 
 PCOD8299865
Probable space group: I M M A
;
_chemical_formula_sum "Si O2"
_cell_formula_units_Z 96
_cell_length_a 20.455510
_cell_length_b 8.780902
_cell_length_c 27.680781
_cell_angle_alpha 90.000000
_cell_angle_beta 90.000000
_cell_angle_gamma 90.000000
_cell_volume 4971.961779
_symmetry_space_group_name_H-M "I M M A"
_symmetry_group_IT_number 74
_symmetry_cell_setting 'orthorhombic'
loop_
_space_group_symop_operation_xyz
x,y,z
-x,1/2-y,z
x,-y,-z
-x,1/2+y,-z
-x,-y,-z
x,1/2+y,-z
-x,y,z
x,1/2-y,z
1/2+x,1/2+y,1/2+z
1/2-x,-y,1/2+z
1/2+x,1/2-y,1/2-z
1/2-x,y,1/2-z
1/2-x,1/2-y,1/2-z
1/2+x,y,1/2-z
1/2-x,1/2+y,1/2+z
1/2+x,-y,1/2+z
loop_
_atom_site_type_symbol
_atom_site_label
_atom_site_fract_x
_atom_site_fract_y
_atom_site_fract_z
Si Si1 0.427278 0.069665 0.288083
Si Si2 0.808803 0.071336 0.616140
Si Si3 0.426766 0.428925 0.949949
Si Si4 0.685264 0.573771 0.781029
Si Si5 0.072176 0.431104 0.104037
Si Si6 0.300750 0.430105 0.448790
O O1 0.500000 0.020998 0.271186
O O2 0.420503 0.250000 0.289893
O O3 0.374755 0.005704 0.250245
O O4 0.413528 0.005489 0.341975
O O5 0.796052 0.250000 0.609704
O O6 0.877873 0.021643 0.592607
O O7 0.810004 0.028925 0.671922
O O8 0.751021 0.979484 0.591027
O O9 0.500000 0.487604 0.937105
O O10 0.426584 0.250000 0.957163
O O11 0.401710 0.500000 0.000000
O O12 0.674428 0.750000 0.795552
O O13 0.750000 0.554315 0.750000
O O14 0.073821 0.250000 0.105963
O O15 0.127650 0.491467 0.067542
O O16 0.000000 0.486560 0.086759
O O17 0.281755 0.500000 0.500000
O O18 0.299951 0.250000 0.453282
#
# Coordination Sequence:
#
# PCOD8299865 Si02
#       6
#    16  16  16  16  16  16
#     4   8  14  27  49  76 103 131 168 213 257 304
#     4  11  23  37  54  77 106 140 177 219 265 314
#     4   9  19  36  56  77 102 134 172 214 261 312
#     4  10  20  34  53  77 104 136 175 217 261 310
#     4   8  15  30  53  79 106 138 175 214 257 305
#     4  11  22  36  55  79 108 141 177 219 264 312
#
# _framework density 19.308275999999999
#
# number of rings (size 3 to 8) (size 9 to 14) (size 15 to 20)
#    0.000    2.500    0.000    3.500    0.000    6.667 
#    0.000    0.000    0.000    1.500    0.000    4.667 
#    0.000    0.000    0.000    0.000    0.000    0.000 
#
# Total GULP energy -595131.816469 kJ/mol
# GULP energy per Si atom -12398.579510 kJ/mol
# Density = 1.926433 g / cm^3
# Si number density = 19.308276 Si / 1000 Ang^3
#
#
#
# Elastic Constant Matrix: (Units=GPa)
#
#
# Indices 1 2 3 4 5 6 
#
# 1 110.3087 26.9929 41.1549 0.0000 0.0000 0.0000
# 2 26.9929 35.1182 21.9378 0.0000 0.0000 0.0000
# 3 41.1549 21.9378 90.3089 0.0000 0.0000 0.0000
# 4 0.0000 0.0000 0.0000 28.5442 0.0000 0.0000
# 5 0.0000 0.0000 0.0000 0.0000 37.2263 0.0000
# 6 0.0000 0.0000 0.0000 0.0000 0.0000 14.6037
#
#
#
# Elastic Compliance Matrix: (Units=1/GPa)
#
#
# Indices 1 2 3 4 5 6 
#
# 1 0.012216 -0.006970 -0.003874 0.000000 0.000000 0.000000
# 2 -0.006970 0.037546 -0.005944 0.000000 0.000000 0.000000
# 3 -0.003874 -0.005944 0.014283 0.000000 0.000000 0.000000
# 4 0.000000 0.000000 0.000000 0.035033 0.000000 0.000000
# 5 0.000000 0.000000 0.000000 0.000000 0.026863 0.000000
# 6 0.000000 0.000000 0.000000 0.000000 0.000000 0.068476
#
#
# Mechanical properties :
#
#
# Convention : Reuss Voigt Hill
#
# Bulk Modulus (GPa) = 32.82105 46.21190 39.51648
# Shear Modulus (GPa) = 20.99525 25.78485 23.39005
#
# Velocity S-wave (km/s) = 3.30111 3.65832 3.48429
# Velocity P-wave (km/s) = 5.61828 6.46762 6.05785
#
# Compressibility (1/GPa) = 0.03046825
#
# Stress axis : x y z
#
# Youngs Moduli (GPa) = 81.85733 26.63415 70.01539
#
# Poissons Ratio (x) = 0.18563 0.27124
# Poissons Ratio (y) = 0.57053 0.41620
# Poissons Ratio (z) = 0.31712 0.15832
#
# Static dielectric constant tensor:
#      x y z
#    x 4.018040 0.000000 0.000000 
#    y 0.000000 3.145320 0.000000 
#    z 0.000000 0.000000 3.571380 
# 
# 
# High freq. dielectric constant tensor:
#      x y z
#    x 1.770040 0.000000 0.000000 
#    y 0.000000 1.713770 0.000000 
#    z 0.000000 0.000000 1.751280 
# 
# From -- ./inp_files/64359.got.cif
#   From: 2010.03.12/outbox.cif.g09.slc.cpg/sg74_33_cif.got.tgz:64359.got - 2010.04.16 15:46:19.
