data_PCOD8299994
_publ_section_title
;
Structure prediction by ZEFSAII (Michael W. Deem and Ramdas Pophale) SiO2 
 PCOD8299994
Probable space group: I M M A
;
_chemical_formula_sum "Si O2"
_cell_formula_units_Z 96
_cell_length_a 18.570646
_cell_length_b 23.463462
_cell_length_c 12.197277
_cell_angle_alpha 90.000000
_cell_angle_beta 90.000000
_cell_angle_gamma 90.000000
_cell_volume 5314.739593
_symmetry_space_group_name_H-M "I M M A"
_symmetry_group_IT_number 74
_symmetry_cell_setting 'orthorhombic'
loop_
_space_group_symop_operation_xyz
x,y,z
-x,1/2-y,z
x,-y,-z
-x,1/2+y,-z
-x,-y,-z
x,1/2+y,-z
-x,y,z
x,1/2-y,z
1/2+x,1/2+y,1/2+z
1/2-x,-y,1/2+z
1/2+x,1/2-y,1/2-z
1/2-x,y,1/2-z
1/2-x,1/2-y,1/2-z
1/2+x,y,1/2-z
1/2-x,1/2+y,1/2+z
1/2+x,-y,1/2+z
loop_
_atom_site_type_symbol
_atom_site_label
_atom_site_fract_x
_atom_site_fract_y
_atom_site_fract_z
Si Si1 0.175613 0.315832 0.196373
Si Si2 0.800119 0.683251 0.056690
Si Si3 0.850785 0.372287 0.583118
Si Si4 0.420818 0.485403 0.874037
Si Si5 0.421044 0.683511 0.278631
Si Si6 0.915039 0.890377 0.652747
O O1 0.162206 0.250000 0.224837
O O2 0.250000 0.336980 0.250000
O O3 0.110202 0.351393 0.247092
O O4 0.176481 0.326965 0.067571
O O5 0.781908 0.750000 0.077626
O O6 0.732435 0.644397 0.087685
O O7 0.864189 0.659589 0.133012
O O8 0.863072 0.434590 0.639136
O O9 0.895946 0.327665 0.654593
O O10 0.877496 0.369316 0.458592
O O11 0.500000 0.466526 0.828790
O O12 0.394224 0.544036 0.816782
O O13 0.430310 0.500000 0.000000
O O14 0.500000 0.655950 0.298967
O O15 0.426663 0.750000 0.296934
O O16 0.000000 0.884471 0.636594
#
# Coordination Sequence:
#
# PCOD8299994 Si02
#       6
#    16  16  16  16  16  16
#     4  10  20  36  54  75 107 145 177 218 273 324
#     4  10  21  36  55  77 110 148 181 219 270 330
#     4  11  18  32  57  80 107 140 177 223 277 324
#     4   8  16  31  51  77 108 140 171 214 274 326
#     4  10  21  35  52  77 109 143 179 219 264 320
#     4  10  20  34  56  83 108 137 179 229 273 318
#
# _framework density 18.062974000000001
#
# number of rings (size 3 to 8) (size 9 to 14) (size 15 to 20)
#    0.000    2.167    1.667    3.500    0.000    3.000 
#    0.000    3.333    0.000    0.000    0.000    3.500 
#    0.000    0.000    0.000    0.000    0.000    0.000 
#
# Total GULP energy -595059.282349 kJ/mol
# GULP energy per Si atom -12397.068382 kJ/mol
# Density = 1.802186 g / cm^3
# Si number density = 18.062974 Si / 1000 Ang^3
#
#
#
# Elastic Constant Matrix: (Units=GPa)
#
#
# Indices 1 2 3 4 5 6 
#
# 1 138.4065 55.2632 51.9347 0.0000 0.0000 0.0000
# 2 55.2632 70.5197 34.6485 0.0000 0.0000 0.0000
# 3 51.9347 34.6485 73.1235 0.0000 0.0000 0.0000
# 4 0.0000 0.0000 0.0000 13.2164 0.0000 0.0000
# 5 0.0000 0.0000 0.0000 0.0000 19.8187 0.0000
# 6 0.0000 0.0000 0.0000 0.0000 0.0000 18.7437
#
#
#
# Elastic Compliance Matrix: (Units=1/GPa)
#
#
# Indices 1 2 3 4 5 6 
#
# 1 0.011883 -0.006733 -0.005249 0.000000 0.000000 0.000000
# 2 -0.006733 0.022299 -0.005784 0.000000 0.000000 0.000000
# 3 -0.005249 -0.005784 0.020144 0.000000 0.000000 0.000000
# 4 0.000000 0.000000 0.000000 0.075664 0.000000 0.000000
# 5 0.000000 0.000000 0.000000 0.000000 0.050457 0.000000
# 6 0.000000 0.000000 0.000000 0.000000 0.000000 0.053351
#
#
# Mechanical properties :
#
#
# Convention : Reuss Voigt Hill
#
# Bulk Modulus (GPa) = 53.20989 62.86028 58.03508
# Shear Modulus (GPa) = 18.14248 19.70263 18.92256
#
# Velocity S-wave (km/s) = 3.17267 3.30627 3.24016
# Velocity P-wave (km/s) = 6.55309 7.03217 6.79685
#
# Compressibility (1/GPa) = 0.01879350
#
# Stress axis : x y z
#
# Youngs Moduli (GPa) = 84.15159 44.84569 49.64155
#
# Poissons Ratio (x) = 0.30195 0.26059
# Poissons Ratio (y) = 0.56661 0.28712
# Poissons Ratio (z) = 0.44175 0.25938
#
# Static dielectric constant tensor:
#      x y z
#    x 3.481640 0.000000 0.000000 
#    y 0.000000 3.657780 0.000000 
#    z 0.000000 0.000000 3.214820 
# 
# 
# High freq. dielectric constant tensor:
#      x y z
#    x 1.700860 0.000000 0.000000 
#    y 0.000000 1.691480 0.000000 
#    z 0.000000 0.000000 1.685080 
# 
# From -- ./inp_files/22426.got.cif
#   From: 2010.03.12/outbox.cif.g09.slc.cpg/sg74_12_cif.got.tgz:22426.got - 2010.04.16 15:46:19.
