data_PCOD8299960
_publ_section_title
;
Structure prediction by ZEFSAII (Michael W. Deem and Ramdas Pophale) SiO2 
 PCOD8299960
Probable space group: I M M A
;
_chemical_formula_sum "Si O2"
_cell_formula_units_Z 80
_cell_length_a 9.617563
_cell_length_b 26.669285
_cell_length_c 16.449917
_cell_angle_alpha 90.000000
_cell_angle_beta 90.000000
_cell_angle_gamma 90.000000
_cell_volume 4219.297257
_symmetry_space_group_name_H-M "I M M A"
_symmetry_group_IT_number 74
_symmetry_cell_setting 'orthorhombic'
loop_
_space_group_symop_operation_xyz
x,y,z
-x,1/2-y,z
x,-y,-z
-x,1/2+y,-z
-x,-y,-z
x,1/2+y,-z
-x,y,z
x,1/2-y,z
1/2+x,1/2+y,1/2+z
1/2-x,-y,1/2+z
1/2+x,1/2-y,1/2-z
1/2-x,y,1/2-z
1/2-x,1/2-y,1/2-z
1/2+x,y,1/2-z
1/2-x,1/2+y,1/2+z
1/2+x,-y,1/2+z
loop_
_atom_site_type_symbol
_atom_site_label
_atom_site_fract_x
_atom_site_fract_y
_atom_site_fract_z
Si Si1 0.160118 0.556496 0.506740
Si Si2 0.500000 0.691660 0.130899
Si Si3 0.222894 0.848499 0.065201
Si Si4 0.155661 0.307510 0.105608
Si Si5 0.660756 0.108455 0.176345
Si Si6 0.000000 0.310702 0.815205
O O1 0.216162 0.500000 0.500000
O O2 0.257059 0.591834 0.450383
O O3 0.173621 0.571581 0.600532
O O4 0.000000 0.560420 0.477217
O O5 0.500000 0.750000 0.142253
O O6 0.627511 0.675075 0.076728
O O7 0.500000 0.670100 0.222436
O O8 0.134499 0.836163 0.144916
O O9 0.151077 0.822770 0.988613
O O10 0.199066 0.250000 0.113751
O O11 0.270294 0.338054 0.155587
O O12 0.000000 0.316890 0.140375
O O13 0.500000 0.116386 0.201199
O O14 0.750000 0.084379 0.250000
O O15 0.000000 0.250000 0.824911
#
# Coordination Sequence:
#
# PCOD8299960 Si02
#       6
#    16   8  16  16  16   8
#     4   9  19  39  65  85 108 147 193 241 292 337
#     4  11  22  34  53  82 117 159 204 237 282 350
#     4  11  20  36  57  83 112 154 195 238 287 345
#     4  10  20  34  55  81 112 151 189 230 278 332
#     4  10  21  37  59  85 114 147 183 229 281 336
#     4  11  22  36  53  80 123 163 190 239 296 336
#
# _framework density 18.960502999999999
#
# number of rings (size 3 to 8) (size 9 to 14) (size 15 to 20)
#    0.000    1.800    2.000    3.000    1.400    2.400 
#    0.000    2.500    0.000    0.000    0.000    0.000 
#    0.000    0.000    0.000    0.000    0.000    0.000 
#
# Total GULP energy -495986.521733 kJ/mol
# GULP energy per Si atom -12399.663043 kJ/mol
# Density = 1.891735 g / cm^3
# Si number density = 18.960503 Si / 1000 Ang^3
#
#
#
# Elastic Constant Matrix: (Units=GPa)
#
#
# Indices 1 2 3 4 5 6 
#
# 1 105.6466 45.5504 13.5715 0.0000 0.0000 0.0000
# 2 45.5504 119.9620 34.3920 0.0002 0.0000 0.0000
# 3 13.5715 34.3920 48.4070 0.0006 -0.0001 0.0000
# 4 0.0000 0.0002 0.0006 16.9963 0.0000 0.0000
# 5 0.0000 0.0000 -0.0001 0.0000 32.9291 0.0000
# 6 0.0000 0.0000 0.0000 0.0000 0.0000 25.2001
#
#
#
# Elastic Compliance Matrix: (Units=1/GPa)
#
#
# Indices 1 2 3 4 5 6 
#
# 1 0.011319 -0.004255 -0.000151 0.000000 0.000000 0.000000
# 2 -0.004255 0.012068 -0.007381 0.000000 0.000000 0.000000
# 3 -0.000151 -0.007381 0.025944 -0.000001 0.000000 0.000000
# 4 0.000000 0.000000 -0.000001 0.058836 0.000000 0.000000
# 5 0.000000 0.000000 0.000000 0.000000 0.030368 0.000000
# 6 0.000000 0.000000 0.000000 0.000000 0.000000 0.039682
#
#
# Mechanical properties :
#
#
# Convention : Reuss Voigt Hill
#
# Bulk Modulus (GPa) = 38.82174 51.22704 45.02439
# Shear Modulus (GPa) = 23.76686 27.05855 25.41270
#
# Velocity S-wave (km/s) = 3.54431 3.78180 3.66498
# Velocity P-wave (km/s) = 6.10484 6.79307 6.45813
#
# Compressibility (1/GPa) = 0.02575876
#
# Stress axis : x y z
#
# Youngs Moduli (GPa) = 88.34398 82.86656 38.54418
#
# Poissons Ratio (x) = 0.35259 0.00580
# Poissons Ratio (y) = 0.37589 0.28449
# Poissons Ratio (z) = 0.01330 0.61162
#
# Static dielectric constant tensor:
#      x y z
#    x 3.568440 0.000000 0.000000 
#    y 0.000000 3.386910 0.000000 
#    z 0.000000 0.000000 3.608040 
# 
# 
# High freq. dielectric constant tensor:
#      x y z
#    x 1.745190 0.000000 0.000000 
#    y 0.000000 1.720720 0.000000 
#    z 0.000000 0.000000 1.738670 
# 
# From -- ./inp_files/39761.got.cif
#   From: 2010.03.12/outbox.cif.g09.slc.cpg/sg74_20_cif.got.tgz:39761.got - 2010.04.16 15:46:19.
