data_PCOD8299507
_publ_section_title
;
Structure prediction by ZEFSAII (Michael W. Deem and Ramdas Pophale) SiO2 
 PCOD8299507
Probable space group: I M M A
;
_chemical_formula_sum "Si O2"
_cell_formula_units_Z 112
_cell_length_a 18.475020
_cell_length_b 18.180044
_cell_length_c 18.044311
_cell_angle_alpha 90.000000
_cell_angle_beta 90.000000
_cell_angle_gamma 90.000000
_cell_volume 6060.663208
_symmetry_space_group_name_H-M "I M M A"
_symmetry_group_IT_number 74
_symmetry_cell_setting 'orthorhombic'
loop_
_space_group_symop_operation_xyz
x,y,z
-x,1/2-y,z
x,-y,-z
-x,1/2+y,-z
-x,-y,-z
x,1/2+y,-z
-x,y,z
x,1/2-y,z
1/2+x,1/2+y,1/2+z
1/2-x,-y,1/2+z
1/2+x,1/2-y,1/2-z
1/2-x,y,1/2-z
1/2-x,1/2-y,1/2-z
1/2+x,y,1/2-z
1/2-x,1/2+y,1/2+z
1/2+x,-y,1/2+z
loop_
_atom_site_type_symbol
_atom_site_label
_atom_site_fract_x
_atom_site_fract_y
_atom_site_fract_z
Si Si1 0.210925 0.069827 0.674863
Si Si2 0.776993 0.668957 0.056837
Si Si3 0.686628 0.835157 0.598547
Si Si4 0.881630 0.830480 0.506710
Si Si5 0.578794 0.664036 0.151287
Si Si6 0.916126 0.664613 0.771885
Si Si7 0.167438 0.910959 0.641782
O O1 0.250000 0.046603 0.750000
O O2 0.271144 0.109684 0.622881
O O3 0.143241 0.122861 0.693770
O O4 0.177540 0.998399 0.636025
O O5 0.801498 0.750000 0.087261
O O6 0.827908 0.641539 0.988062
O O7 0.700269 0.677163 0.018333
O O8 0.708321 0.750000 0.599934
O O9 0.613940 0.850173 0.645267
O O10 0.753117 0.876653 0.637002
O O11 0.910645 0.750000 0.532335
O O12 0.925691 0.859537 0.435482
O O13 0.886257 0.886805 0.575102
O O14 0.500000 0.646101 0.186897
O O15 0.597014 0.750000 0.156603
O O16 0.905649 0.750000 0.749383
O O17 0.870853 0.612808 0.717452
O O18 0.000000 0.641855 0.770737
#
# Coordination Sequence:
#
# PCOD8299507 Si02
#       7
#    16  16  16  16  16  16  16
#     4  11  22  33  49  76 104 132 167 210 254 296
#     4   8  16  31  50  71  91 117 159 209 257 298
#     4   9  17  32  53  72  95 131 172 211 251 297
#     4   8  15  29  49  71  95 125 162 202 241 289
#     4   9  19  36  55  74  99 132 167 204 253 309
#     4  10  20  32  48  73 105 140 174 206 242 286
#     4  11  20  31  47  74 106 138 170 201 242 295
#
# _framework density 18.479825999999999
#
# number of rings (size 3 to 8) (size 9 to 14) (size 15 to 20)
#    0.000    2.571    0.000    4.714    0.000    8.571 
#    0.000    2.143    0.000    0.857    0.000    6.000 
#    0.000    0.000    0.000    0.000    0.000    0.000 
#
# Total GULP energy -693961.376166 kJ/mol
# GULP energy per Si atom -12392.167432 kJ/mol
# Density = 1.843776 g / cm^3
# Si number density = 18.479826 Si / 1000 Ang^3
#
#
#
# Elastic Constant Matrix: (Units=GPa)
#
#
# Indices 1 2 3 4 5 6 
#
# 1 54.0765 20.8927 15.2899 0.0000 0.0000 0.0000
# 2 20.8927 79.3119 28.8389 0.0000 0.0000 0.0000
# 3 15.2899 28.8389 62.4216 0.0000 0.0000 0.0000
# 4 0.0000 0.0000 0.0000 16.3386 0.0000 0.0000
# 5 0.0000 0.0000 0.0000 0.0000 18.5813 0.0000
# 6 0.0000 0.0000 0.0000 0.0000 0.0000 9.5687
#
#
#
# Elastic Compliance Matrix: (Units=1/GPa)
#
#
# Indices 1 2 3 4 5 6 
#
# 1 0.021082 -0.004418 -0.003123 0.000000 0.000000 0.000000
# 2 -0.004418 0.016080 -0.006347 0.000000 0.000000 0.000000
# 3 -0.003123 -0.006347 0.019717 0.000000 0.000000 0.000000
# 4 0.000000 0.000000 0.000000 0.061205 0.000000 0.000000
# 5 0.000000 0.000000 0.000000 0.000000 0.053818 0.000000
# 6 0.000000 0.000000 0.000000 0.000000 0.000000 0.104508
#
#
# Mechanical properties :
#
#
# Convention : Reuss Voigt Hill
#
# Bulk Modulus (GPa) = 34.35944 36.20588 35.28266
# Shear Modulus (GPa) = 15.92931 17.61694 16.77312
#
# Velocity S-wave (km/s) = 2.93914 3.09092 3.01598
# Velocity P-wave (km/s) = 5.49103 5.68973 5.59126
#
# Compressibility (1/GPa) = 0.02910408
#
# Stress axis : x y z
#
# Youngs Moduli (GPa) = 47.43332 62.18879 50.71695
#
# Poissons Ratio (x) = 0.27475 0.15838
# Poissons Ratio (y) = 0.20956 0.32189
# Poissons Ratio (z) = 0.14813 0.39470
#
# Static dielectric constant tensor:
#      x y z
#    x 3.540960 0.000000 0.000000 
#    y 0.000000 3.329810 0.000000 
#    z 0.000000 0.000000 3.599400 
# 
# 
# High freq. dielectric constant tensor:
#      x y z
#    x 1.686430 0.000000 0.000000 
#    y 0.000000 1.706530 0.000000 
#    z 0.000000 0.000000 1.705440 
# 
# From -- ./inp_files/45422.got.cif
#   From: 2010.03.12/outbox.cif.g09.slc.cpg/sg74_23_cif.got.tgz:45422.got - 2010.04.16 15:46:19.
