data_PCOD8299466
_publ_section_title
;
Structure prediction by ZEFSAII (Michael W. Deem and Ramdas Pophale) SiO2 
 PCOD8299466
Probable space group: I M M A
;
_chemical_formula_sum "Si O2"
_cell_formula_units_Z 96
_cell_length_a 17.937108
_cell_length_b 9.550464
_cell_length_c 28.377985
_cell_angle_alpha 90.000000
_cell_angle_beta 90.000000
_cell_angle_gamma 90.000000
_cell_volume 4861.367461
_symmetry_space_group_name_H-M "I M M A"
_symmetry_group_IT_number 74
_symmetry_cell_setting 'orthorhombic'
loop_
_space_group_symop_operation_xyz
x,y,z
-x,1/2-y,z
x,-y,-z
-x,1/2+y,-z
-x,-y,-z
x,1/2+y,-z
-x,y,z
x,1/2-y,z
1/2+x,1/2+y,1/2+z
1/2-x,-y,1/2+z
1/2+x,1/2-y,1/2-z
1/2-x,y,1/2-z
1/2-x,1/2-y,1/2-z
1/2+x,y,1/2-z
1/2-x,1/2+y,1/2+z
1/2+x,-y,1/2+z
loop_
_atom_site_type_symbol
_atom_site_label
_atom_site_fract_x
_atom_site_fract_y
_atom_site_fract_z
Si Si1 0.784460 0.910260 0.546234
Si Si2 0.913780 0.090452 0.211449
Si Si3 0.585003 0.597126 0.460536
Si Si4 0.585742 0.088423 0.113035
Si Si5 0.088510 0.591783 0.298810
Si Si6 0.353148 0.909239 0.611553
O O1 0.778157 0.750000 0.530564
O O2 0.866513 0.944977 0.566388
O O3 0.727630 0.943098 0.589353
O O4 0.767997 0.000000 0.500000
O O5 0.907700 0.250000 0.229608
O O6 0.858084 0.066107 0.167469
O O7 0.000000 0.058077 0.197510
O O8 0.883660 0.988062 0.252093
O O9 0.625691 0.500000 0.500000
O O10 0.500000 0.619481 0.475028
O O11 0.624304 0.750000 0.458704
O O12 0.588702 0.518006 0.410927
O O13 0.500000 0.054841 0.100798
O O14 0.595995 0.250000 0.128552
O O15 0.616217 0.991586 0.155283
O O16 0.120474 0.750000 0.299404
O O17 0.000000 0.592632 0.298574
O O18 0.377505 0.750000 0.599692
#
# Coordination Sequence:
#
# PCOD8299466 Si02
#       6
#    16  16  16  16  16  16
#     4  10  22  38  55  77 104 135 172 215 264 316
#     4   9  17  30  50  75 103 138 176 210 247 295
#     4  10  20  32  47  68  94 127 170 218 263 305
#     4   9  18  35  58  80 103 133 169 209 257 317
#     4   9  17  30  51  80 109 134 165 209 257 303
#     4  10  20  34  51  72 101 137 176 215 256 303
#
# _framework density 19.747529
#
# number of rings (size 3 to 8) (size 9 to 14) (size 15 to 20)
#    0.000    2.500    0.000    2.000    0.000    7.333 
#    0.000    2.500    0.000    5.000    0.000    0.000 
#    0.000    0.000    0.000    0.000    0.000    0.000 
#
# Total GULP energy -595036.288085 kJ/mol
# GULP energy per Si atom -12396.589335 kJ/mol
# Density = 1.970258 g / cm^3
# Si number density = 19.747529 Si / 1000 Ang^3
#
#
#
# Elastic Constant Matrix: (Units=GPa)
#
#
# Indices 1 2 3 4 5 6 
#
# 1 59.1832 31.0257 40.0928 0.0000 0.0000 0.0000
# 2 31.0257 129.9032 65.3675 0.0000 0.0000 0.0000
# 3 40.0928 65.3675 105.8800 0.0000 0.0000 0.0000
# 4 0.0000 0.0000 0.0000 35.4682 0.0000 0.0000
# 5 0.0000 0.0000 0.0000 0.0000 21.8598 0.0000
# 6 0.0000 0.0000 0.0000 0.0000 0.0000 14.7702
#
#
#
# Elastic Compliance Matrix: (Units=1/GPa)
#
#
# Indices 1 2 3 4 5 6 
#
# 1 0.022956 -0.001608 -0.007700 0.000000 0.000000 0.000000
# 2 -0.001608 0.011280 -0.006355 0.000000 0.000000 0.000000
# 3 -0.007700 -0.006355 0.016284 0.000000 0.000000 0.000000
# 4 0.000000 0.000000 0.000000 0.028194 0.000000 0.000000
# 5 0.000000 0.000000 0.000000 0.000000 0.045746 0.000000
# 6 0.000000 0.000000 0.000000 0.000000 0.000000 0.067704
#
#
# Mechanical properties :
#
#
# Convention : Reuss Voigt Hill
#
# Bulk Modulus (GPa) = 52.10044 63.10429 57.60236
# Shear Modulus (GPa) = 21.74980 24.98500 23.36740
#
# Velocity S-wave (km/s) = 3.32233 3.56085 3.44366
# Velocity P-wave (km/s) = 6.41542 6.99508 6.71151
#
# Compressibility (1/GPa) = 0.01919370
#
# Stress axis : x y z
#
# Youngs Moduli (GPa) = 43.56206 88.65258 61.41145
#
# Poissons Ratio (x) = 0.14257 0.47284
# Poissons Ratio (y) = 0.07006 0.39027
# Poissons Ratio (z) = 0.33541 0.56339
#
# Static dielectric constant tensor:
#      x y z
#    x 3.326920 0.000000 0.000000 
#    y 0.000000 3.863240 0.000000 
#    z 0.000000 0.000000 3.486740 
# 
# 
# High freq. dielectric constant tensor:
#      x y z
#    x 1.740530 0.000000 0.000000 
#    y 0.000000 1.774520 0.000000 
#    z 0.000000 0.000000 1.762230 
# 
# From -- ./inp_files/68154.got.cif
#   From: 2010.03.12/outbox.cif.g09.slc.cpg/sg74_35_cif.got.tgz:68154.got - 2010.04.16 15:46:19.
