data_PCOD8299567
_publ_section_title
;
Structure prediction by ZEFSAII (Michael W. Deem and Ramdas Pophale) SiO2 
 PCOD8299567
Probable space group: I M M A
;
_chemical_formula_sum "Si O2"
_cell_formula_units_Z 56
_cell_length_a 17.018085
_cell_length_b 7.448362
_cell_length_c 21.589795
_cell_angle_alpha 90.000000
_cell_angle_beta 90.000000
_cell_angle_gamma 90.000000
_cell_volume 2736.654571
_symmetry_space_group_name_H-M "I M M A"
_symmetry_group_IT_number 74
_symmetry_cell_setting 'orthorhombic'
loop_
_space_group_symop_operation_xyz
x,y,z
-x,1/2-y,z
x,-y,-z
-x,1/2+y,-z
-x,-y,-z
x,1/2+y,-z
-x,y,z
x,1/2-y,z
1/2+x,1/2+y,1/2+z
1/2-x,-y,1/2+z
1/2+x,1/2-y,1/2-z
1/2-x,y,1/2-z
1/2-x,1/2-y,1/2-z
1/2+x,y,1/2-z
1/2-x,1/2+y,1/2+z
1/2+x,-y,1/2+z
loop_
_atom_site_type_symbol
_atom_site_label
_atom_site_fract_x
_atom_site_fract_y
_atom_site_fract_z
Si Si1 0.592600 0.750000 0.760962
Si Si2 0.796386 0.456770 0.930801
Si Si3 0.500000 0.458127 0.928625
Si Si4 0.354641 0.960984 0.149107
Si Si5 0.091368 0.250000 0.116014
O O1 0.500000 0.750000 0.776188
O O2 0.635017 0.571810 0.787614
O O3 0.608395 0.750000 0.688538
O O4 0.820497 0.250000 0.924960
O O5 0.727657 0.506525 0.882937
O O6 0.872541 0.572739 0.914810
O O7 0.766343 0.500000 0.000000
O O8 0.500000 0.250000 0.916691
O O9 0.578241 0.535696 0.897168
O O10 0.500000 0.500000 0.000000
O O11 0.362283 0.750000 0.164467
O O12 0.000000 0.250000 0.100449
#
# Coordination Sequence:
#
# PCOD8299567 Si02
#       5
#     8  16   8  16   8
#     4  11  23  41  67  91 132 180 225 262 306 387
#     4  11  23  43  67  97 133 165 208 276 335 389
#     4  10  20  32  52  90 130 172 214 246 297 379
#     4  10  22  38  61  94 133 173 212 262 318 376
#     4  11  27  47  67  96 123 172 226 273 335 385
#
# _framework density 20.462938999999999
#
# number of rings (size 3 to 8) (size 9 to 14) (size 15 to 20)
#    0.000    1.429    2.857    1.714    2.000    4.571 
#    0.000    5.714    0.000    0.000    0.000    0.000 
#    0.000    0.000    0.000    0.000    0.000    0.000 
#
# Total GULP energy -347284.377585 kJ/mol
# GULP energy per Si atom -12403.013485 kJ/mol
# Density = 2.041636 g / cm^3
# Si number density = 20.462939 Si / 1000 Ang^3
#
#
#
# Elastic Constant Matrix: (Units=GPa)
#
#
# Indices 1 2 3 4 5 6 
#
# 1 115.4511 53.9815 29.4762 0.0000 0.0000 0.0000
# 2 53.9815 117.0190 35.6367 0.0000 0.0000 0.0000
# 3 29.4762 35.6367 77.2371 0.0000 0.0000 0.0000
# 4 0.0000 0.0000 0.0000 26.8831 0.0000 0.0000
# 5 0.0000 0.0000 0.0000 0.0000 30.4651 0.0000
# 6 0.0000 0.0000 0.0000 0.0000 0.0000 29.3376
#
#
#
# Elastic Compliance Matrix: (Units=1/GPa)
#
#
# Indices 1 2 3 4 5 6 
#
# 1 0.011365 -0.004563 -0.002232 0.000000 0.000000 0.000000
# 2 -0.004563 0.011775 -0.003691 0.000000 0.000000 0.000000
# 3 -0.002232 -0.003691 0.015502 0.000000 0.000000 0.000000
# 4 0.000000 0.000000 0.000000 0.037198 0.000000 0.000000
# 5 0.000000 0.000000 0.000000 0.000000 0.032824 0.000000
# 6 0.000000 0.000000 0.000000 0.000000 0.000000 0.034086
#
#
# Mechanical properties :
#
#
# Convention : Reuss Voigt Hill
#
# Bulk Modulus (GPa) = 56.59566 60.87734 58.73650
# Shear Modulus (GPa) = 29.47888 30.04466 29.76177
#
# Velocity S-wave (km/s) = 3.79964 3.83593 3.81783
# Velocity P-wave (km/s) = 6.85327 7.03091 6.94266
#
# Compressibility (1/GPa) = 0.01766920
#
# Stress axis : x y z
#
# Youngs Moduli (GPa) = 87.98890 84.92745 64.50733
#
# Poissons Ratio (x) = 0.38753 0.14398
# Poissons Ratio (y) = 0.40150 0.23812
# Poissons Ratio (z) = 0.19638 0.31350
#
# Static dielectric constant tensor:
#      x y z
#    x 3.802680 0.000000 0.000000 
#    y 0.000000 2.929950 0.000000 
#    z 0.000000 0.000000 3.609470 
# 
# 
# High freq. dielectric constant tensor:
#      x y z
#    x 1.800560 0.000000 0.000000 
#    y 0.000000 1.810820 0.000000 
#    z 0.000000 0.000000 1.798620 
# 
# From -- ./inp_files/51395.got.cif
#   From: 2010.03.12/outbox.cif.g09.slc.cpg/sg74_26_cif.got.tgz:51395.got - 2010.04.16 15:46:19.
