data_PCOD8299842
_publ_section_title
;
Structure prediction by ZEFSAII (Michael W. Deem and Ramdas Pophale) SiO2 
 PCOD8299842
Probable space group: I M M A
;
_chemical_formula_sum "Si O2"
_cell_formula_units_Z 88
_cell_length_a 17.714439
_cell_length_b 9.574911
_cell_length_c 28.622793
_cell_angle_alpha 90.000000
_cell_angle_beta 90.000000
_cell_angle_gamma 90.000000
_cell_volume 4854.831474
_symmetry_space_group_name_H-M "I M M A"
_symmetry_group_IT_number 74
_symmetry_cell_setting 'orthorhombic'
loop_
_space_group_symop_operation_xyz
x,y,z
-x,1/2-y,z
x,-y,-z
-x,1/2+y,-z
-x,-y,-z
x,1/2+y,-z
-x,y,z
x,1/2-y,z
1/2+x,1/2+y,1/2+z
1/2-x,-y,1/2+z
1/2+x,1/2-y,1/2-z
1/2-x,y,1/2-z
1/2-x,1/2-y,1/2-z
1/2+x,y,1/2-z
1/2-x,1/2+y,1/2+z
1/2+x,-y,1/2+z
loop_
_atom_site_type_symbol
_atom_site_label
_atom_site_fract_x
_atom_site_fract_y
_atom_site_fract_z
Si Si1 0.085636 0.410560 0.456089
Si Si2 0.675472 0.908557 0.780057
Si Si3 0.713238 0.086606 0.116731
Si Si4 0.500000 0.413949 0.547629
Si Si5 0.142995 0.085613 0.888979
Si Si6 0.411586 0.407067 0.712096
O O1 0.112599 0.500000 0.500000
O O2 0.092587 0.250000 0.470836
O O3 0.139227 0.446644 0.413094
O O4 0.000000 0.448372 0.441319
O O5 0.646208 0.750000 0.782856
O O6 0.750000 0.922534 0.750000
O O7 0.693448 0.966564 0.831405
O O8 0.610205 0.998270 0.756030
O O9 0.734769 0.250000 0.116417
O O10 0.783232 0.000395 0.095339
O O11 0.500000 0.250000 0.535886
O O12 0.500000 0.500000 0.500000
O O13 0.573873 0.455112 0.577344
O O14 0.159492 0.250000 0.892012
O O15 0.124960 0.038911 0.836031
O O16 0.500000 0.412833 0.704618
O O17 0.384300 0.250000 0.722739
#
# Coordination Sequence:
#
# PCOD8299842 Si02
#       6
#    16  16  16   8  16  16
#     4   9  19  37  59  80 105 140 177 218 271 326
#     4  10  20  34  52  79 112 143 178 220 265 316
#     4  10  21  36  56  83 114 143 179 225 271 326
#     4  10  22  40  58  80 110 146 188 236 283 330
#     4  10  20  36  57  78 106 145 185 225 274 324
#     4  10  20  35  55  78 105 143 188 226 264 319
#
# _framework density 18.126273000000001
#
# number of rings (size 3 to 8) (size 9 to 14) (size 15 to 20)
#    0.000    2.182    2.727    0.000    0.000    4.364 
#    0.000    5.455    0.000    2.182    0.000    0.000 
#    0.000    0.000    0.000    0.000    0.000    0.000 
#
# Total GULP energy -545705.711975 kJ/mol
# GULP energy per Si atom -12402.402545 kJ/mol
# Density = 1.808502 g / cm^3
# Si number density = 18.126273 Si / 1000 Ang^3
#
#
#
# Elastic Constant Matrix: (Units=GPa)
#
#
# Indices 1 2 3 4 5 6 
#
# 1 95.4093 47.4664 62.2977 0.0000 0.0000 0.0000
# 2 47.4664 58.5322 51.8748 0.0000 0.0000 0.0000
# 3 62.2977 51.8748 125.6209 0.0000 0.0000 0.0000
# 4 0.0000 0.0000 0.0000 30.4149 0.0000 0.0000
# 5 0.0000 0.0000 0.0000 0.0000 29.8891 0.0000
# 6 0.0000 0.0000 0.0000 0.0000 0.0000 27.3680
#
#
#
# Elastic Compliance Matrix: (Units=1/GPa)
#
#
# Indices 1 2 3 4 5 6 
#
# 1 0.019313 -0.011314 -0.004906 0.000000 0.000000 0.000000
# 2 -0.011314 0.033575 -0.008254 0.000000 0.000000 0.000000
# 3 -0.004906 -0.008254 0.013802 0.000000 0.000000 0.000000
# 4 0.000000 0.000000 0.000000 0.032879 0.000000 0.000000
# 5 0.000000 0.000000 0.000000 0.000000 0.033457 0.000000
# 6 0.000000 0.000000 0.000000 0.000000 0.000000 0.036539
#
#
# Mechanical properties :
#
#
# Convention : Reuss Voigt Hill
#
# Bulk Modulus (GPa) = 56.36194 66.98224 61.67209
# Shear Modulus (GPa) = 22.27914 25.39597 23.83755
#
# Velocity S-wave (km/s) = 3.50967 3.74713 3.63034
# Velocity P-wave (km/s) = 6.89821 7.46691 7.18818
#
# Compressibility (1/GPa) = 0.01774247
#
# Stress axis : x y z
#
# Youngs Moduli (GPa) = 51.77819 29.78427 72.45588
#
# Poissons Ratio (x) = 0.33699 0.35543
# Poissons Ratio (y) = 0.58584 0.59802
# Poissons Ratio (z) = 0.25400 0.24583
#
# Static dielectric constant tensor:
#      x y z
#    x 3.324730 0.000000 0.000000 
#    y 0.000000 3.327430 0.000000 
#    z 0.000000 0.000000 3.458790 
# 
# 
# High freq. dielectric constant tensor:
#      x y z
#    x 1.705790 0.000000 0.000000 
#    y 0.000000 1.696380 0.000000 
#    z 0.000000 0.000000 1.701550 
# 
# From -- ./inp_files/72949.got.cif
#   From: 2010.03.12/outbox.cif.g09.slc.cpg/sg74_37_cif.got.tgz:72949.got - 2010.04.16 15:46:19.
