data_PCOD8299951
_publ_section_title
;
Structure prediction by ZEFSAII (Michael W. Deem and Ramdas Pophale) SiO2 
 PCOD8299951
Probable space group: I M M A
;
_chemical_formula_sum "Si O2"
_cell_formula_units_Z 64
_cell_length_a 11.886144
_cell_length_b 25.115332
_cell_length_c 11.359790
_cell_angle_alpha 90.000000
_cell_angle_beta 90.000000
_cell_angle_gamma 90.000000
_cell_volume 3391.175093
_symmetry_space_group_name_H-M "I M M A"
_symmetry_group_IT_number 74
_symmetry_cell_setting 'orthorhombic'
loop_
_space_group_symop_operation_xyz
x,y,z
-x,1/2-y,z
x,-y,-z
-x,1/2+y,-z
-x,-y,-z
x,1/2+y,-z
-x,y,z
x,1/2-y,z
1/2+x,1/2+y,1/2+z
1/2-x,-y,1/2+z
1/2+x,1/2-y,1/2-z
1/2-x,y,1/2-z
1/2-x,1/2-y,1/2-z
1/2+x,y,1/2-z
1/2-x,1/2+y,1/2+z
1/2+x,-y,1/2+z
loop_
_atom_site_type_symbol
_atom_site_label
_atom_site_fract_x
_atom_site_fract_y
_atom_site_fract_z
Si Si1 0.710372 0.146555 0.380986
Si Si2 0.250000 0.883990 0.250000
Si Si3 0.123674 0.750000 0.810295
Si Si4 0.368656 0.689430 0.073915
Si Si5 0.629694 0.443277 0.541211
O O1 0.750000 0.132180 0.250000
O O2 0.623044 0.196090 0.385915
O O3 0.818541 0.161978 0.457925
O O4 0.644886 0.096484 0.432438
O O5 0.339950 0.845094 0.188919
O O6 0.307850 0.922392 0.343639
O O7 0.250000 0.750000 0.750000
O O8 0.000000 0.750000 0.740659
O O9 0.500000 0.689428 0.055240
O O10 0.323542 0.750000 0.088318
O O11 0.680085 0.500000 0.500000
O O12 0.500000 0.449478 0.574694
#
# Coordination Sequence:
#
# PCOD8299951 Si02
#       5
#    16   8   8  16  16
#     4  10  21  36  57  85 120 152 192 236 288 344
#     4  10  21  38  60  80 114 145 190 236 288 340
#     4  10  20  34  54  83 118 155 192 237 289 347
#     4  10  20  35  57  86 119 153 190 232 287 349
#     4  10  22  39  60  82 108 147 191 237 286 339
#
# _framework density 18.872513999999999
#
# number of rings (size 3 to 8) (size 9 to 14) (size 15 to 20)
#    0.000    2.000    1.250    1.875    1.750    5.000 
#    0.000    0.000    0.000    3.750    0.000    0.000 
#    0.000    0.000    0.000    0.000    0.000    0.000 
#
# Total GULP energy -396555.407476 kJ/mol
# GULP energy per Si atom -12392.356484 kJ/mol
# Density = 1.882956 g / cm^3
# Si number density = 18.872514 Si / 1000 Ang^3
#
#
#
# Elastic Constant Matrix: (Units=GPa)
#
#
# Indices 1 2 3 4 5 6 
#
# 1 87.0310 34.6261 26.8490 0.0000 0.0000 0.0000
# 2 34.6261 152.2825 57.6426 0.0001 0.0000 0.0000
# 3 26.8490 57.6426 116.9145 0.0002 -0.0003 -0.0001
# 4 0.0000 0.0001 0.0002 29.9234 -0.0001 0.0000
# 5 0.0000 0.0000 -0.0003 -0.0001 17.9873 0.0000
# 6 0.0000 0.0000 -0.0001 0.0000 0.0000 21.9676
#
#
#
# Elastic Compliance Matrix: (Units=1/GPa)
#
#
# Indices 1 2 3 4 5 6 
#
# 1 0.012958 -0.002238 -0.001873 0.000000 0.000000 0.000000
# 2 -0.002238 0.008460 -0.003657 0.000000 0.000000 0.000000
# 3 -0.001873 -0.003657 0.010786 0.000000 0.000000 0.000000
# 4 0.000000 0.000000 0.000000 0.033419 0.000000 0.000000
# 5 0.000000 0.000000 0.000000 0.000000 0.055595 0.000000
# 6 0.000000 0.000000 0.000000 0.000000 0.000000 0.045522
#
#
# Mechanical properties :
#
#
# Convention : Reuss Voigt Hill
#
# Bulk Modulus (GPa) = 59.98899 66.05147 63.02023
# Shear Modulus (GPa) = 26.61975 29.78302 28.20138
#
# Velocity S-wave (km/s) = 3.75974 3.97686 3.86982
# Velocity P-wave (km/s) = 7.12060 7.49413 7.30975
#
# Compressibility (1/GPa) = 0.01666972
#
# Stress axis : x y z
#
# Youngs Moduli (GPa) = 77.17181 118.20556 92.70970
#
# Poissons Ratio (x) = 0.26450 0.17360
# Poissons Ratio (y) = 0.17268 0.33905
# Poissons Ratio (z) = 0.14451 0.43229
#
# Static dielectric constant tensor:
#      x y z
#    x 3.385560 0.000000 0.000000 
#    y 0.000000 3.854360 0.000000 
#    z 0.000000 0.000000 3.431650 
# 
# 
# High freq. dielectric constant tensor:
#      x y z
#    x 1.732150 0.000000 0.000000 
#    y 0.000000 1.745350 0.000000 
#    z 0.000000 0.000000 1.728600 
# 
# From -- ./inp_files/18643.got.cif
#   From: 2010.03.12/outbox.cif.g09.slc.cpg/sg74_10_cif.got.tgz:18643.got - 2010.04.16 15:46:19.
