data_PCOD8299873
_publ_section_title
;
Structure prediction by ZEFSAII (Michael W. Deem and Ramdas Pophale) SiO2 
 PCOD8299873
Probable space group: I M M A
;
_chemical_formula_sum "Si O2"
_cell_formula_units_Z 88
_cell_length_a 22.699994
_cell_length_b 17.190446
_cell_length_c 11.960215
_cell_angle_alpha 90.000000
_cell_angle_beta 90.000000
_cell_angle_gamma 90.000000
_cell_volume 4667.151230
_symmetry_space_group_name_H-M "I M M A"
_symmetry_group_IT_number 74
_symmetry_cell_setting 'orthorhombic'
loop_
_space_group_symop_operation_xyz
x,y,z
-x,1/2-y,z
x,-y,-z
-x,1/2+y,-z
-x,-y,-z
x,1/2+y,-z
-x,y,z
x,1/2-y,z
1/2+x,1/2+y,1/2+z
1/2-x,-y,1/2+z
1/2+x,1/2-y,1/2-z
1/2-x,y,1/2-z
1/2-x,1/2-y,1/2-z
1/2+x,y,1/2-z
1/2-x,1/2+y,1/2+z
1/2+x,-y,1/2+z
loop_
_atom_site_type_symbol
_atom_site_label
_atom_site_fract_x
_atom_site_fract_y
_atom_site_fract_z
Si Si1 0.067642 0.591410 0.508416
Si Si2 0.666971 0.954829 0.608089
Si Si3 0.760448 0.166788 0.389342
Si Si4 0.125568 0.159050 0.270406
Si Si5 0.331775 0.334500 0.896096
Si Si6 0.750000 0.561550 0.250000
O O1 0.078078 0.500000 0.500000
O O2 0.088182 0.624758 0.627983
O O3 0.103465 0.627075 0.403194
O O4 0.000000 0.614373 0.491754
O O5 0.719272 0.900155 0.563049
O O6 0.615887 0.899793 0.664455
O O7 0.640436 0.000000 0.500000
O O8 0.696678 0.013140 0.696321
O O9 0.726702 0.250000 0.380249
O O10 0.801396 0.149869 0.278284
O O11 0.814109 0.176285 0.475465
O O12 0.108323 0.250000 0.249210
O O13 0.336193 0.250000 0.836350
O O14 0.281871 0.385415 0.839921
#
# Coordination Sequence:
#
# PCOD8299873 Si02
#       6
#    16  16  16  16  16   8
#     4  10  21  37  61  88 112 139 179 235 289 335
#     4  12  21  30  48  74 104 145 185 234 275 335
#     4   9  17  30  47  71 103 138 176 220 273 330
#     4  10  20  34  53  77 110 146 187 234 283 340
#     4  10  21  34  50  75 112 148 182 219 266 339
#     4  12  21  32  51  74 110 156 186 222 279 340
#
# _framework density 18.855186
#
# number of rings (size 3 to 8) (size 9 to 14) (size 15 to 20)
#    0.000    1.636    3.636    3.545    2.545    2.909 
#    0.000    0.000    0.000    0.545    0.000    0.000 
#    0.000    2.909    0.000    0.000    0.000    0.000 
#
# Total GULP energy -545149.476001 kJ/mol
# GULP energy per Si atom -12389.760818 kJ/mol
# Density = 1.881227 g / cm^3
# Si number density = 18.855186 Si / 1000 Ang^3
#
#
#
# Elastic Constant Matrix: (Units=GPa)
#
#
# Indices 1 2 3 4 5 6 
#
# 1 62.2490 34.8607 14.1466 0.0000 0.0000 0.0000
# 2 34.8607 137.1574 43.3367 0.0000 0.0000 0.0000
# 3 14.1466 43.3367 66.3075 0.0000 0.0000 0.0000
# 4 0.0000 0.0000 0.0000 30.0353 0.0000 0.0000
# 5 0.0000 0.0000 0.0000 0.0000 21.8714 0.0000
# 6 0.0000 0.0000 0.0000 0.0000 0.0000 1.8492
#
#
#
# Elastic Compliance Matrix: (Units=1/GPa)
#
#
# Indices 1 2 3 4 5 6 
#
# 1 0.018796 -0.004424 -0.001119 0.000000 0.000000 0.000000
# 2 -0.004424 0.010230 -0.005742 0.000000 0.000000 0.000000
# 3 -0.001119 -0.005742 0.019073 0.000000 0.000000 0.000000
# 4 0.000000 0.000000 0.000000 0.033294 0.000000 0.000000
# 5 0.000000 0.000000 0.000000 0.000000 0.045722 0.000000
# 6 0.000000 0.000000 0.000000 0.000000 0.000000 0.540789
#
#
# Mechanical properties :
#
#
# Convention : Reuss Voigt Hill
#
# Bulk Modulus (GPa) = 39.17073 50.04464 44.60768
# Shear Modulus (GPa) = 7.15326 22.30917 14.73122
#
# Velocity S-wave (km/s) = 1.94988 3.44348 2.79817
# Velocity P-wave (km/s) = 5.08812 6.51224 5.84372
#
# Compressibility (1/GPa) = 0.02552927
#
# Stress axis : x y z
#
# Youngs Moduli (GPa) = 53.20219 97.75642 52.43095
#
# Poissons Ratio (x) = 0.43246 0.05866
# Poissons Ratio (y) = 0.23536 0.30105
# Poissons Ratio (z) = 0.05953 0.56131
#
# Static dielectric constant tensor:
#      x y z
#    x 3.102440 0.000000 0.000000 
#    y 0.000000 3.831220 0.000000 
#    z 0.000000 0.000000 3.329160 
# 
# 
# High freq. dielectric constant tensor:
#      x y z
#    x 1.687060 0.000000 0.000000 
#    y 0.000000 1.760870 0.000000 
#    z 0.000000 0.000000 1.719090 
# 
# From -- ./inp_files/26154.got.cif
#   From: 2010.03.12/outbox.cif.g09.slc.cpg/sg74_14_cif.got.tgz:26154.got - 2010.04.16 15:46:19.
