data_PCOD8299082
_publ_section_title
;
Structure prediction by ZEFSAII (Michael W. Deem and Ramdas Pophale) SiO2 
 PCOD8299082
Probable space group: I M M A
;
_chemical_formula_sum "Si O2"
_cell_formula_units_Z 96
_cell_length_a 24.554910
_cell_length_b 8.750828
_cell_length_c 22.660614
_cell_angle_alpha 90.000000
_cell_angle_beta 90.000000
_cell_angle_gamma 90.000000
_cell_volume 4869.217425
_symmetry_space_group_name_H-M "I M M A"
_symmetry_group_IT_number 74
_symmetry_cell_setting 'orthorhombic'
loop_
_space_group_symop_operation_xyz
x,y,z
-x,1/2-y,z
x,-y,-z
-x,1/2+y,-z
-x,-y,-z
x,1/2+y,-z
-x,y,z
x,1/2-y,z
1/2+x,1/2+y,1/2+z
1/2-x,-y,1/2+z
1/2+x,1/2-y,1/2-z
1/2-x,y,1/2-z
1/2-x,1/2-y,1/2-z
1/2+x,y,1/2-z
1/2-x,1/2+y,1/2+z
1/2+x,-y,1/2+z
loop_
_atom_site_type_symbol
_atom_site_label
_atom_site_fract_x
_atom_site_fract_y
_atom_site_fract_z
Si Si1 0.500000 0.931086 0.286913
Si Si2 0.885460 0.431594 0.834623
Si Si3 0.201376 0.071746 0.601047
Si Si4 0.085701 0.429116 0.559567
Si Si5 0.185469 0.069479 0.063292
Si Si6 0.500000 0.931714 0.153603
Si Si7 0.807725 0.570197 0.266751
O O1 0.500000 0.750000 0.280196
O O2 0.447644 0.984408 0.324565
O O3 0.500000 0.000866 0.220129
O O4 0.880425 0.250000 0.842299
O O5 0.860418 0.510012 0.892095
O O6 0.853809 0.493493 0.776798
O O7 0.217490 0.250000 0.596921
O O8 0.149769 0.028649 0.561124
O O9 0.180122 0.028258 0.666068
O O10 0.253765 0.975669 0.582922
O O11 0.060886 0.500000 0.500000
O O12 0.077090 0.250000 0.556130
O O13 0.053241 0.489141 0.617286
O O14 0.182301 0.250000 0.059308
O O15 0.171696 0.000000 0.000000
O O16 0.500000 0.750000 0.158854
O O17 0.805089 0.750000 0.257193
O O18 0.750000 0.495185 0.250000
#
# Coordination Sequence:
#
# PCOD8299082 Si02
#       7
#     8  16  16  16  16   8  16
#     4   9  18  33  61  91 112 138 178 231 280 325
#     4  10  19  36  60  88 117 145 183 227 275 332
#     4  10  19  34  55  83 114 150 190 231 279 331
#     4  10  20  32  51  76 111 152 194 236 274 319
#     4  12  25  40  58  81 110 147 185 230 282 336
#     4   9  17  33  54  83 113 144 189 237 274 319
#     4   9  15  27  53  83 111 144 179 219 268 326
#
# _framework density 19.715695
#
# number of rings (size 3 to 8) (size 9 to 14) (size 15 to 20)
#    0.000    2.000    1.667    3.250    0.000    6.000 
#    0.000    2.500    0.000    4.000    0.000    0.000 
#    0.000    0.000    0.000    0.000    0.000    0.000 
#
# Total GULP energy -595012.279250 kJ/mol
# GULP energy per Si atom -12396.089151 kJ/mol
# Density = 1.967082 g / cm^3
# Si number density = 19.715695 Si / 1000 Ang^3
#
#
#
# Elastic Constant Matrix: (Units=GPa)
#
#
# Indices 1 2 3 4 5 6 
#
# 1 145.4329 43.2807 79.9637 0.0000 0.0000 0.0000
# 2 43.2807 58.6436 46.1495 0.0000 0.0000 0.0000
# 3 79.9637 46.1495 154.1739 0.0000 0.0000 0.0000
# 4 0.0000 0.0000 0.0000 25.7920 0.0000 0.0000
# 5 0.0000 0.0000 0.0000 0.0000 16.3616 0.0000
# 6 0.0000 0.0000 0.0000 0.0000 0.0000 10.0078
#
#
#
# Elastic Compliance Matrix: (Units=1/GPa)
#
#
# Indices 1 2 3 4 5 6 
#
# 1 0.010459 -0.004513 -0.004074 0.000000 0.000000 0.000000
# 2 -0.004513 0.024254 -0.004919 0.000000 0.000000 0.000000
# 3 -0.004074 -0.004919 0.010072 0.000000 0.000000 0.000000
# 4 0.000000 0.000000 0.000000 0.038772 0.000000 0.000000
# 5 0.000000 0.000000 0.000000 0.000000 0.061119 0.000000
# 6 0.000000 0.000000 0.000000 0.000000 0.000000 0.099922
#
#
# Mechanical properties :
#
#
# Convention : Reuss Voigt Hill
#
# Bulk Modulus (GPa) = 56.26712 77.44870 66.85791
# Shear Modulus (GPa) = 18.01578 23.02269 20.51923
#
# Velocity S-wave (km/s) = 3.02616 3.42092 3.22958
# Velocity P-wave (km/s) = 6.38838 7.41429 6.92037
#
# Compressibility (1/GPa) = 0.01777237
#
# Stress axis : x y z
#
# Youngs Moduli (GPa) = 95.61128 41.22972 99.28955
#
# Poissons Ratio (x) = 0.18608 0.40447
# Poissons Ratio (y) = 0.43152 0.48844
# Poissons Ratio (z) = 0.38949 0.20282
#
# Static dielectric constant tensor:
#      x y z
#    x 3.782320 0.000000 0.000000 
#    y 0.000000 3.112710 0.000000 
#    z 0.000000 0.000000 3.754850 
# 
# 
# High freq. dielectric constant tensor:
#      x y z
#    x 1.775830 0.000000 0.000000 
#    y 0.000000 1.717560 0.000000 
#    z 0.000000 0.000000 1.779310 
# 
# From -- ./inp_files/61965.got.cif
#   From: 2010.03.12/outbox.cif.g09.slc.cpg/sg74_31_cif.got.tgz:61965.got - 2010.04.16 15:46:19.
