data_PCOD8299779
_publ_section_title
;
Structure prediction by ZEFSAII (Michael W. Deem and Ramdas Pophale) SiO2 
 PCOD8299779
Probable space group: I M M A
;
_chemical_formula_sum "Si O2"
_cell_formula_units_Z 120
_cell_length_a 9.359049
_cell_length_b 26.587030
_cell_length_c 27.774180
_cell_angle_alpha 90.000000
_cell_angle_beta 90.000000
_cell_angle_gamma 90.000000
_cell_volume 6911.030227
_symmetry_space_group_name_H-M "I M M A"
_symmetry_group_IT_number 74
_symmetry_cell_setting 'orthorhombic'
loop_
_space_group_symop_operation_xyz
x,y,z
-x,1/2-y,z
x,-y,-z
-x,1/2+y,-z
-x,-y,-z
x,1/2+y,-z
-x,y,z
x,1/2-y,z
1/2+x,1/2+y,1/2+z
1/2-x,-y,1/2+z
1/2+x,1/2-y,1/2-z
1/2-x,y,1/2-z
1/2-x,1/2-y,1/2-z
1/2+x,y,1/2-z
1/2-x,1/2+y,1/2+z
1/2+x,-y,1/2+z
loop_
_atom_site_type_symbol
_atom_site_label
_atom_site_fract_x
_atom_site_fract_y
_atom_site_fract_z
Si Si1 0.332290 0.348768 0.140522
Si Si2 0.168415 0.572430 0.798756
Si Si3 0.834906 0.694385 0.054775
Si Si4 0.664779 0.551489 0.022635
Si Si5 0.663971 0.152525 0.030354
Si Si6 0.833945 0.750000 0.700500
Si Si7 0.332370 0.404023 0.607045
Si Si8 0.665112 0.543697 0.296960
O O1 0.500000 0.362500 0.145069
O O2 0.236570 0.395057 0.158575
O O3 0.289628 0.338754 0.085270
O O4 0.292105 0.299054 0.170110
O O5 0.250000 0.587730 0.750000
O O6 0.196166 0.514091 0.811246
O O7 0.000000 0.584201 0.793100
O O8 0.803989 0.750000 0.075793
O O9 0.787087 0.653633 0.095067
O O10 0.000000 0.686736 0.042449
O O11 0.753374 0.688436 0.004473
O O12 0.500000 0.548486 0.037930
O O13 0.755168 0.558989 0.070488
O O14 0.719610 0.500000 0.000000
O O15 0.692240 0.594683 0.983409
O O16 0.500000 0.167494 0.022911
O O17 0.750000 0.750000 0.750000
O O18 0.000000 0.750000 0.713162
O O19 0.500000 0.412747 0.601205
O O20 0.283514 0.419223 0.660536
O O21 0.500000 0.551301 0.285103
O O22 0.750000 0.560400 0.250000
#
# Coordination Sequence:
#
# PCOD8299779 Si02
#       8
#    16  16  16  16  16   8  16  16
#     4  10  21  35  52  72  94 125 164 205 250 298
#     4  10  20  34  51  72  97 125 161 203 246 294
#     4   9  18  33  53  75 100 130 166 208 249 294
#     4   9  18  31  47  72 103 132 164 200 241 292
#     4   9  19  33  49  72 100 131 164 200 246 294
#     4  10  22  38  52  68  90 120 162 206 251 298
#     4   9  18  33  51  73 101 133 168 204 247 299
#     4   9  19  34  52  76 103 133 167 202 244 295
#
# _framework density 17.363547000000001
#
# number of rings (size 3 to 8) (size 9 to 14) (size 15 to 20)
#    0.000    2.667    0.000    0.800    2.800    3.733 
#    0.000    0.000    0.000    0.400    0.000    0.000 
#    0.000    0.000    0.000    0.000    0.000    0.000 
#
# Total GULP energy -744041.775768 kJ/mol
# GULP energy per Si atom -12400.696263 kJ/mol
# Density = 1.732403 g / cm^3
# Si number density = 17.363547 Si / 1000 Ang^3
#
#
#
# Elastic Constant Matrix: (Units=GPa)
#
#
# Indices 1 2 3 4 5 6 
#
# 1 54.2268 42.9526 56.3637 0.0000 0.0000 0.0000
# 2 42.9526 106.9837 74.7506 0.0000 0.0000 0.0000
# 3 56.3637 74.7506 145.2371 0.0000 0.0000 0.0000
# 4 0.0000 0.0000 0.0000 21.5100 0.0000 0.0000
# 5 0.0000 0.0000 0.0000 0.0000 30.3372 0.0000
# 6 0.0000 0.0000 0.0000 0.0000 0.0000 22.8704
#
#
#
# Elastic Compliance Matrix: (Units=1/GPa)
#
#
# Indices 1 2 3 4 5 6 
#
# 1 0.033881 -0.006895 -0.009600 0.000000 0.000000 0.000000
# 2 -0.006895 0.016000 -0.005559 0.000000 0.000000 0.000000
# 3 -0.009600 -0.005559 0.013472 0.000000 0.000000 0.000000
# 4 0.000000 0.000000 0.000000 0.046490 0.000000 0.000000
# 5 0.000000 0.000000 0.000000 0.000000 0.032963 0.000000
# 6 0.000000 0.000000 0.000000 0.000000 0.000000 0.043725
#
#
# Mechanical properties :
#
#
# Convention : Reuss Voigt Hill
#
# Bulk Modulus (GPa) = 51.96245 72.73126 62.34686
# Shear Modulus (GPa) = 21.09249 23.76890 22.43069
#
# Velocity S-wave (km/s) = 3.48912 3.70387 3.59810
# Velocity P-wave (km/s) = 6.79875 7.76337 7.29702
#
# Compressibility (1/GPa) = 0.01924467
#
# Stress axis : x y z
#
# Youngs Moduli (GPa) = 29.51541 62.50190 74.23020
#
# Poissons Ratio (x) = 0.43097 0.71257
# Poissons Ratio (y) = 0.20352 0.41262
# Poissons Ratio (z) = 0.28333 0.34743
#
# Static dielectric constant tensor:
#      x y z
#    x 3.229180 0.000000 0.000000 
#    y 0.000000 3.347010 0.000000 
#    z 0.000000 0.000000 3.232580 
# 
# 
# High freq. dielectric constant tensor:
#      x y z
#    x 1.669280 0.000000 0.000000 
#    y 0.000000 1.671040 0.000000 
#    z 0.000000 0.000000 1.663040 
# 
# From -- ./inp_files/65143.got.cif
#   From: 2010.03.12/outbox.cif.g09.slc.cpg/sg74_33_cif.got.tgz:65143.got - 2010.04.16 15:46:19.
