data_PCOD8299684
_publ_section_title
;
Structure prediction by ZEFSAII (Michael W. Deem and Ramdas Pophale) SiO2 
 PCOD8299684
Probable space group: I M M A
;
_chemical_formula_sum "Si O2"
_cell_formula_units_Z 96
_cell_length_a 18.444094
_cell_length_b 9.522637
_cell_length_c 28.751994
_cell_angle_alpha 90.000000
_cell_angle_beta 90.000000
_cell_angle_gamma 90.000000
_cell_volume 5049.897063
_symmetry_space_group_name_H-M "I M M A"
_symmetry_group_IT_number 74
_symmetry_cell_setting 'orthorhombic'
loop_
_space_group_symop_operation_xyz
x,y,z
-x,1/2-y,z
x,-y,-z
-x,1/2+y,-z
-x,-y,-z
x,1/2+y,-z
-x,y,z
x,1/2-y,z
1/2+x,1/2+y,1/2+z
1/2-x,-y,1/2+z
1/2+x,1/2-y,1/2-z
1/2-x,y,1/2-z
1/2-x,1/2-y,1/2-z
1/2+x,y,1/2-z
1/2-x,1/2+y,1/2+z
1/2+x,-y,1/2+z
loop_
_atom_site_type_symbol
_atom_site_label
_atom_site_fract_x
_atom_site_fract_y
_atom_site_fract_z
Si Si1 0.419279 0.906912 0.400255
Si Si2 0.917482 0.416955 0.356834
Si Si3 0.919595 0.598987 0.209044
Si Si4 0.354223 0.412614 0.045464
Si Si5 0.173285 0.584219 0.731164
Si Si6 0.314566 0.412341 0.455477
O O1 0.500000 0.939665 0.420078
O O2 0.395275 0.750000 0.416536
O O3 0.421596 0.914664 0.345550
O O4 0.361954 0.025473 0.414030
O O5 0.914868 0.250000 0.355977
O O6 0.895633 0.469040 0.408638
O O7 0.858397 0.473464 0.318618
O O8 0.000000 0.468852 0.345925
O O9 0.883354 0.750000 0.222984
O O10 0.881029 0.463475 0.229216
O O11 0.000000 0.597127 0.229550
O O12 0.372354 0.250000 0.035485
O O13 0.269566 0.434218 0.055900
O O14 0.378975 0.500000 0.000000
O O15 0.176871 0.750000 0.728832
O O16 0.250000 0.523210 0.750000
O O17 0.338655 0.500000 0.500000
O O18 0.333557 0.250000 0.463089
#
# Coordination Sequence:
#
# PCOD8299684 Si02
#       6
#    16  16  16  16  16  16
#     4   9  19  35  53  74 102 138 179 222 269 321
#     4   9  18  34  55  79 110 146 178 217 274 326
#     4   9  19  36  55  75 105 143 179 220 271 323
#     4   9  19  35  55  79 107 139 177 221 270 325
#     4  10  21  34  54  83 112 143 184 228 266 316
#     4  10  20  33  52  75 103 137 175 221 273 325
#
# _framework density 19.010287999999999
#
# number of rings (size 3 to 8) (size 9 to 14) (size 15 to 20)
#    0.000    2.667    0.000    2.000    2.333    3.667 
#    0.000    2.500    0.000    1.000    0.000    0.000 
#    0.000    0.000    0.000    0.000    0.000    0.000 
#
# Total GULP energy -594752.010334 kJ/mol
# GULP energy per Si atom -12390.666882 kJ/mol
# Density = 1.896702 g / cm^3
# Si number density = 19.010288 Si / 1000 Ang^3
#
#
#
# Elastic Constant Matrix: (Units=GPa)
#
#
# Indices 1 2 3 4 5 6 
#
# 1 94.6961 35.2509 70.6416 0.0000 0.0000 0.0000
# 2 35.2509 48.9452 35.3180 0.0000 0.0000 0.0000
# 3 70.6416 35.3180 92.8009 0.0000 0.0000 0.0000
# 4 0.0000 0.0000 0.0000 32.6396 0.0000 0.0000
# 5 0.0000 0.0000 0.0000 0.0000 33.7663 0.0000
# 6 0.0000 0.0000 0.0000 0.0000 0.0000 21.0254
#
#
#
# Elastic Compliance Matrix: (Units=1/GPa)
#
#
# Indices 1 2 3 4 5 6 
#
# 1 0.025673 -0.006050 -0.017240 0.000000 0.000000 0.000000
# 2 -0.006050 0.029592 -0.006657 0.000000 0.000000 0.000000
# 3 -0.017240 -0.006657 0.026433 0.000000 0.000000 0.000000
# 4 0.000000 0.000000 0.000000 0.030638 0.000000 0.000000
# 5 0.000000 0.000000 0.000000 0.000000 0.029615 0.000000
# 6 0.000000 0.000000 0.000000 0.000000 0.000000 0.047562
#
#
# Mechanical properties :
#
#
# Convention : Reuss Voigt Hill
#
# Bulk Modulus (GPa) = 45.86369 57.65146 51.75758
# Shear Modulus (GPa) = 19.47997 23.83504 21.65751
#
# Velocity S-wave (km/s) = 3.20458 3.54474 3.37894
# Velocity P-wave (km/s) = 6.15390 6.86629 6.51983
#
# Compressibility (1/GPa) = 0.02180374
#
# Stress axis : x y z
#
# Youngs Moduli (GPa) = 38.95112 33.79348 37.83163
#
# Poissons Ratio (x) = 0.20444 0.65224
# Poissons Ratio (y) = 0.23564 0.25184
# Poissons Ratio (z) = 0.67154 0.22496
#
# Static dielectric constant tensor:
#      x y z
#    x 3.628280 0.000000 0.000000 
#    y 0.000000 3.536330 0.000000 
#    z 0.000000 0.000000 3.507740 
# 
# 
# High freq. dielectric constant tensor:
#      x y z
#    x 1.739240 0.000000 0.000000 
#    y 0.000000 1.718360 0.000000 
#    z 0.000000 0.000000 1.738750 
# 
# From -- ./inp_files/60792.got.cif
#   From: 2010.03.12/outbox.cif.g09.slc.cpg/sg74_31_cif.got.tgz:60792.got - 2010.04.16 15:46:19.
