data_PCOD8299035
_publ_section_title
;
Structure prediction by ZEFSAII (Michael W. Deem and Ramdas Pophale) SiO2 
 PCOD8299035
Probable space group: I M M A
;
_chemical_formula_sum "Si O2"
_cell_formula_units_Z 96
_cell_length_a 23.058775
_cell_length_b 19.164439
_cell_length_c 11.289327
_cell_angle_alpha 90.000000
_cell_angle_beta 90.000000
_cell_angle_gamma 90.000000
_cell_volume 4988.849413
_symmetry_space_group_name_H-M "I M M A"
_symmetry_group_IT_number 74
_symmetry_cell_setting 'orthorhombic'
loop_
_space_group_symop_operation_xyz
x,y,z
-x,1/2-y,z
x,-y,-z
-x,1/2+y,-z
-x,-y,-z
x,1/2+y,-z
-x,y,z
x,1/2-y,z
1/2+x,1/2+y,1/2+z
1/2-x,-y,1/2+z
1/2+x,1/2-y,1/2-z
1/2-x,y,1/2-z
1/2-x,1/2-y,1/2-z
1/2+x,y,1/2-z
1/2-x,1/2+y,1/2+z
1/2+x,-y,1/2+z
loop_
_atom_site_type_symbol
_atom_site_label
_atom_site_fract_x
_atom_site_fract_y
_atom_site_fract_z
Si Si1 0.565216 0.668612 0.152878
Si Si2 0.397299 0.914474 0.376144
Si Si3 0.064906 0.437546 0.132013
Si Si4 0.855406 0.669430 0.772514
Si Si5 0.832148 0.332014 0.487447
Si Si6 0.296245 0.668800 0.481972
O O1 0.500000 0.657274 0.101692
O O2 0.576883 0.750000 0.177212
O O3 0.569561 0.628646 0.276575
O O4 0.613386 0.637144 0.061791
O O5 0.434817 0.912326 0.495911
O O6 0.334153 0.880591 0.397485
O O7 0.392641 0.996461 0.342005
O O8 0.085303 0.372645 0.209814
O O9 0.000000 0.458422 0.168763
O O10 0.872689 0.750000 0.766445
O O11 0.829840 0.642138 0.648275
O O12 0.810271 0.655288 0.879223
O O13 0.839495 0.250000 0.486670
O O14 0.770322 0.352321 0.544841
O O15 0.307949 0.750000 0.450649
#
# Coordination Sequence:
#
# PCOD8299035 Si02
#       6
#    16  16  16  16  16  16
#     4  10  20  33  52  78 109 144 177 213 261 320
#     4  10  19  34  53  73 105 140 178 222 267 322
#     4  10  20  34  55  77 102 142 180 219 273 319
#     4   9  18  33  55  80 105 135 177 227 270 317
#     4   9  18  33  54  79 108 141 175 215 270 325
#     4   9  17  31  56  82 103 134 177 224 271 316
#
# _framework density 19.242913999999999
#
# number of rings (size 3 to 8) (size 9 to 14) (size 15 to 20)
#    0.000    2.500    0.000    3.000    0.000    4.333 
#    0.000    5.000   25.667    2.000    0.000    0.000 
#    0.000    0.000    0.000    0.000    0.000    0.000 
#
# Total GULP energy -594947.966635 kJ/mol
# GULP energy per Si atom -12394.749305 kJ/mol
# Density = 1.919912 g / cm^3
# Si number density = 19.242914 Si / 1000 Ang^3
#
#
#
# Elastic Constant Matrix: (Units=GPa)
#
#
# Indices 1 2 3 4 5 6 
#
# 1 149.0501 52.3007 44.6550 0.0000 0.0000 0.0000
# 2 52.3007 68.9413 30.6155 0.0000 0.0000 0.0000
# 3 44.6550 30.6155 52.8549 0.0000 0.0000 0.0000
# 4 0.0000 0.0000 0.0000 17.5595 0.0000 0.0000
# 5 0.0000 0.0000 0.0000 0.0000 19.7240 0.0000
# 6 0.0000 0.0000 0.0000 0.0000 0.0000 14.4431
#
#
#
# Elastic Compliance Matrix: (Units=1/GPa)
#
#
# Indices 1 2 3 4 5 6 
#
# 1 0.010238 -0.005285 -0.005588 0.000000 0.000000 0.000000
# 2 -0.005285 0.022257 -0.008427 0.000000 0.000000 0.000000
# 3 -0.005588 -0.008427 0.028522 0.000000 0.000000 0.000000
# 4 0.000000 0.000000 0.000000 0.056949 0.000000 0.000000
# 5 0.000000 0.000000 0.000000 0.000000 0.050700 0.000000
# 6 0.000000 0.000000 0.000000 0.000000 0.000000 0.069237
#
#
# Mechanical properties :
#
#
# Convention : Reuss Voigt Hill
#
# Bulk Modulus (GPa) = 44.60998 58.44319 51.52658
# Shear Modulus (GPa) = 17.60716 19.89697 18.75207
#
# Velocity S-wave (km/s) = 3.02817 3.21906 3.12507
# Velocity P-wave (km/s) = 5.95477 6.65234 6.31320
#
# Compressibility (1/GPa) = 0.02241651
#
# Stress axis : x y z
#
# Youngs Moduli (GPa) = 97.67634 44.93043 35.06055
#
# Poissons Ratio (x) = 0.23746 0.19593
# Poissons Ratio (y) = 0.51623 0.29544
# Poissons Ratio (z) = 0.54584 0.37861
#
# Static dielectric constant tensor:
#      x y z
#    x 3.599530 0.000000 0.000000 
#    y 0.000000 3.415740 0.000000 
#    z 0.000000 0.000000 3.519280 
# 
# 
# High freq. dielectric constant tensor:
#      x y z
#    x 1.747270 0.000000 0.000000 
#    y 0.000000 1.727240 0.000000 
#    z 0.000000 0.000000 1.735930 
# 
# From -- ./inp_files/22686.got.cif
#   From: 2010.03.12/outbox.cif.g09.slc.cpg/sg74_12_cif.got.tgz:22686.got - 2010.04.16 15:46:19.
