data_PCOD8299180
_publ_section_title
;
Structure prediction by ZEFSAII (Michael W. Deem and Ramdas Pophale) SiO2 
 PCOD8299180
Probable space group: I M M A
;
_chemical_formula_sum "Si O2"
_cell_formula_units_Z 80
_cell_length_a 8.812782
_cell_length_b 24.923019
_cell_length_c 20.869957
_cell_angle_alpha 90.000000
_cell_angle_beta 90.000000
_cell_angle_gamma 90.000000
_cell_volume 4583.901006
_symmetry_space_group_name_H-M "I M M A"
_symmetry_group_IT_number 74
_symmetry_cell_setting 'orthorhombic'
loop_
_space_group_symop_operation_xyz
x,y,z
-x,1/2-y,z
x,-y,-z
-x,1/2+y,-z
-x,-y,-z
x,1/2+y,-z
-x,y,z
x,1/2-y,z
1/2+x,1/2+y,1/2+z
1/2-x,-y,1/2+z
1/2+x,1/2-y,1/2-z
1/2-x,y,1/2-z
1/2-x,1/2-y,1/2-z
1/2+x,y,1/2-z
1/2-x,1/2+y,1/2+z
1/2+x,-y,1/2+z
loop_
_atom_site_type_symbol
_atom_site_label
_atom_site_fract_x
_atom_site_fract_y
_atom_site_fract_z
Si Si1 0.321988 0.025987 0.315396
Si Si2 0.818474 0.863738 0.872242
Si Si3 0.330637 0.750000 0.485554
Si Si4 0.679487 0.140582 0.989987
Si Si5 0.333527 0.250000 0.361912
Si Si6 0.679121 0.537533 0.440617
O O1 0.500000 0.021942 0.308628
O O2 0.250000 0.004065 0.250000
O O3 0.271557 0.087907 0.325823
O O4 0.266846 0.990800 0.375224
O O5 0.745788 0.874337 0.940878
O O6 0.755101 0.806805 0.842221
O O7 0.000000 0.860457 0.882453
O O8 0.500000 0.750000 0.456004
O O9 0.242456 0.696854 0.462543
O O10 0.340536 0.750000 0.561709
O O11 0.500000 0.144209 0.993884
O O12 0.731704 0.093537 0.942390
O O13 0.500000 0.250000 0.330924
O O14 0.726428 0.500000 0.500000
O O15 0.500000 0.548583 0.441757
#
# Coordination Sequence:
#
# PCOD8299180 Si02
#       6
#    16  16   8  16   8  16
#     4  10  21  35  52  71  99 136 176 221 262 310
#     4   9  16  31  49  68  95 137 179 211 253 310
#     4   9  17  31  49  70 103 142 171 199 249 319
#     4  11  20  29  48  80 109 130 164 221 268 297
#     4   7  12  23  46  68  86 120 173 215 238 279
#     4  10  19  35  55  73  99 138 182 214 252 317
#
# _framework density 17.452383999999999
#
# number of rings (size 3 to 8) (size 9 to 14) (size 15 to 20)
#    0.000    2.400    2.000    3.300    0.000    2.000 
#    0.000    0.500    0.000    0.000    0.000    0.700 
#    0.000    0.000    0.000    0.000    0.000    0.000 
#
# Total GULP energy -495747.133530 kJ/mol
# GULP energy per Si atom -12393.678338 kJ/mol
# Density = 1.741266 g / cm^3
# Si number density = 17.452384 Si / 1000 Ang^3
#
#
#
# Elastic Constant Matrix: (Units=GPa)
#
#
# Indices 1 2 3 4 5 6 
#
# 1 59.6715 39.8943 23.6047 0.0000 0.0000 0.0000
# 2 39.8943 125.6301 50.1436 0.0000 0.0000 0.0000
# 3 23.6047 50.1436 92.0479 -0.0001 0.0000 0.0000
# 4 0.0000 0.0000 -0.0001 15.0785 0.0000 0.0000
# 5 0.0000 0.0000 0.0000 0.0000 20.4125 0.0000
# 6 0.0000 0.0000 0.0000 0.0000 0.0000 19.3033
#
#
#
# Elastic Compliance Matrix: (Units=1/GPa)
#
#
# Indices 1 2 3 4 5 6 
#
# 1 0.021653 -0.005954 -0.002309 0.000000 0.000000 0.000000
# 2 -0.005954 0.011809 -0.004906 0.000000 0.000000 0.000000
# 3 -0.002309 -0.004906 0.014129 0.000000 0.000000 0.000000
# 4 0.000000 0.000000 0.000000 0.066320 0.000000 0.000000
# 5 0.000000 0.000000 0.000000 0.000000 0.048990 0.000000
# 6 0.000000 0.000000 0.000000 0.000000 0.000000 0.051805
#
#
# Mechanical properties :
#
#
# Convention : Reuss Voigt Hill
#
# Bulk Modulus (GPa) = 47.05537 56.07052 51.56294
# Shear Modulus (GPa) = 20.15103 21.87265 21.01184
#
# Velocity S-wave (km/s) = 3.40167 3.54400 3.47357
# Velocity P-wave (km/s) = 6.51530 6.99600 6.75993
#
# Compressibility (1/GPa) = 0.02125156
#
# Stress axis : x y z
#
# Youngs Moduli (GPa) = 46.18376 84.68219 70.77844
#
# Poissons Ratio (x) = 0.50422 0.16342
# Poissons Ratio (y) = 0.27499 0.34724
# Poissons Ratio (z) = 0.10664 0.41545
#
# Static dielectric constant tensor:
#      x y z
#    x 3.068940 0.000000 0.000000 
#    y 0.000000 3.678790 0.000000 
#    z 0.000000 0.000000 2.951180 
# 
# 
# High freq. dielectric constant tensor:
#      x y z
#    x 1.659910 0.000000 0.000000 
#    y 0.000000 1.691350 0.000000 
#    z 0.000000 0.000000 1.625160 
# 
# From -- ./inp_files/48605.got.cif
#   From: 2010.03.12/outbox.cif.g09.slc.cpg/sg74_25_cif.got.tgz:48605.got - 2010.04.16 15:46:19.
