data_PCOD8299482
_publ_section_title
;
Structure prediction by ZEFSAII (Michael W. Deem and Ramdas Pophale) SiO2 
 PCOD8299482
Probable space group: I M M A
;
_chemical_formula_sum "Si O2"
_cell_formula_units_Z 64
_cell_length_a 9.758015
_cell_length_b 9.050838
_cell_length_c 41.004303
_cell_angle_alpha 90.000000
_cell_angle_beta 90.000000
_cell_angle_gamma 90.000000
_cell_volume 3621.426765
_symmetry_space_group_name_H-M "I M M A"
_symmetry_group_IT_number 74
_symmetry_cell_setting 'orthorhombic'
loop_
_space_group_symop_operation_xyz
x,y,z
-x,1/2-y,z
x,-y,-z
-x,1/2+y,-z
-x,-y,-z
x,1/2+y,-z
-x,y,z
x,1/2-y,z
1/2+x,1/2+y,1/2+z
1/2-x,-y,1/2+z
1/2+x,1/2-y,1/2-z
1/2-x,y,1/2-z
1/2-x,1/2-y,1/2-z
1/2+x,y,1/2-z
1/2-x,1/2+y,1/2+z
1/2+x,-y,1/2+z
loop_
_atom_site_type_symbol
_atom_site_label
_atom_site_fract_x
_atom_site_fract_y
_atom_site_fract_z
Si Si1 0.160638 0.420590 0.350739
Si Si2 0.349057 0.925072 0.777373
Si Si3 0.157773 0.576647 0.096748
Si Si4 0.663032 0.416309 0.468410
O O1 0.196357 0.250000 0.357936
O O2 0.201846 0.463560 0.313753
O O3 0.250002 0.525111 0.373383
O O4 0.000000 0.449562 0.356623
O O5 0.500000 0.992193 0.771595
O O6 0.355959 0.750000 0.773555
O O7 0.250000 0.995259 0.750000
O O8 0.174084 0.750000 0.091664
O O9 0.213072 0.498592 0.064092
O O10 0.000000 0.533360 0.103747
O O11 0.723338 0.500000 0.500000
O O12 0.500000 0.416363 0.470032
O O13 0.720941 0.250000 0.468070
#
# Coordination Sequence:
#
# PCOD8299482 Si02
#       4
#    16  16  16  16
#     4   9  18  32  49  70  97 128 161 197 240 291
#     4   8  14  25  42  66  94 121 151 190 236 285
#     4  10  20  32  47  70  98 127 163 204 241 281
#     4   9  16  27  45  69  97 127 158 195 240 286
#
# _framework density 17.672594
#
# number of rings (size 3 to 8) (size 9 to 14) (size 15 to 20)
#    0.000    3.000    0.000    3.000    0.000    6.000 
#    0.000    2.500    0.000    1.500    0.000    0.000 
#    0.000    0.000    0.000    0.000    0.000    0.000 
#
# Total GULP energy -396717.464250 kJ/mol
# GULP energy per Si atom -12397.420758 kJ/mol
# Density = 1.763237 g / cm^3
# Si number density = 17.672594 Si / 1000 Ang^3
#
#
#
# Elastic Constant Matrix: (Units=GPa)
#
#
# Indices 1 2 3 4 5 6 
#
# 1 50.5760 31.4416 58.6352 0.0000 0.0000 0.0000
# 2 31.4416 83.5725 57.4442 0.0000 0.0000 0.0000
# 3 58.6352 57.4442 154.5178 0.0000 0.0000 0.0000
# 4 0.0000 0.0000 0.0000 26.1039 0.0000 0.0000
# 5 0.0000 0.0000 0.0000 0.0000 21.1884 0.0000
# 6 0.0000 0.0000 0.0000 0.0000 0.0000 19.7489
#
#
#
# Elastic Compliance Matrix: (Units=1/GPa)
#
#
# Indices 1 2 3 4 5 6 
#
# 1 0.037270 -0.005777 -0.011995 0.000000 0.000000 0.000000
# 2 -0.005777 0.016968 -0.004116 0.000000 0.000000 0.000000
# 3 -0.011995 -0.004116 0.012554 0.000000 0.000000 0.000000
# 4 0.000000 0.000000 0.000000 0.038308 0.000000 0.000000
# 5 0.000000 0.000000 0.000000 0.000000 0.047196 0.000000
# 6 0.000000 0.000000 0.000000 0.000000 0.000000 0.050636
#
#
# Mechanical properties :
#
#
# Convention : Reuss Voigt Hill
#
# Bulk Modulus (GPa) = 43.44810 64.85649 54.15229
# Shear Modulus (GPa) = 19.65560 22.81794 21.23677
#
# Velocity S-wave (km/s) = 3.33860 3.59715 3.47028
# Velocity P-wave (km/s) = 6.28490 7.35060 6.83854
#
# Compressibility (1/GPa) = 0.02301597
#
# Stress axis : x y z
#
# Youngs Moduli (GPa) = 26.83101 58.93385 79.65638
#
# Poissons Ratio (x) = 0.34044 0.95552
# Poissons Ratio (y) = 0.15499 0.32787
# Poissons Ratio (z) = 0.32185 0.24258
#
# Static dielectric constant tensor:
#      x y z
#    x 3.164910 0.000000 0.000000 
#    y 0.000000 3.081860 0.000000 
#    z 0.000000 0.000000 3.457540 
# 
# 
# High freq. dielectric constant tensor:
#      x y z
#    x 1.650450 0.000000 0.000000 
#    y 0.000000 1.663210 0.000000 
#    z 0.000000 0.000000 1.697640 
# 
# From -- ./inp_files/65602.got.cif
#   From: 2010.03.12/outbox.cif.g09.slc.cpg/sg74_33_cif.got.tgz:65602.got - 2010.04.16 15:46:19.
