data_PCOD8299339
_publ_section_title
;
Structure prediction by ZEFSAII (Michael W. Deem and Ramdas Pophale) SiO2 
 PCOD8299339
Probable space group: I M M A
;
_chemical_formula_sum "Si O2"
_cell_formula_units_Z 64
_cell_length_a 9.515567
_cell_length_b 11.376022
_cell_length_c 31.369936
_cell_angle_alpha 90.000000
_cell_angle_beta 90.000000
_cell_angle_gamma 90.000000
_cell_volume 3395.773598
_symmetry_space_group_name_H-M "I M M A"
_symmetry_group_IT_number 74
_symmetry_cell_setting 'orthorhombic'
loop_
_space_group_symop_operation_xyz
x,y,z
-x,1/2-y,z
x,-y,-z
-x,1/2+y,-z
-x,-y,-z
x,1/2+y,-z
-x,y,z
x,1/2-y,z
1/2+x,1/2+y,1/2+z
1/2-x,-y,1/2+z
1/2+x,1/2-y,1/2-z
1/2-x,y,1/2-z
1/2-x,1/2-y,1/2-z
1/2+x,y,1/2-z
1/2-x,1/2+y,1/2+z
1/2+x,-y,1/2+z
loop_
_atom_site_type_symbol
_atom_site_label
_atom_site_fract_x
_atom_site_fract_y
_atom_site_fract_z
Si Si1 0.000000 0.876229 0.884010
Si Si2 0.273346 0.115117 0.313104
Si Si3 0.000000 0.750000 0.159135
Si Si4 0.500000 0.435501 0.544811
Si Si5 0.000000 0.463601 0.774580
Si Si6 0.000000 0.750000 0.384127
Si Si7 0.697580 0.750000 0.419806
Si Si8 0.000000 0.534834 0.319339
O O1 0.862284 0.890901 0.855917
O O2 0.000000 0.750000 0.906454
O O3 0.000000 0.966898 0.920559
O O4 0.247463 0.250000 0.298456
O O5 0.361812 0.046508 0.276689
O O6 0.131683 0.049556 0.324833
O O7 0.000000 0.634580 0.188580
O O8 0.136211 0.750000 0.128659
O O9 0.500000 0.500000 0.500000
O O10 0.641883 0.360701 0.552818
O O11 0.000000 0.404912 0.727731
O O12 0.134493 0.750000 0.415565
O O13 0.000000 0.635100 0.354782
#
# Coordination Sequence:
#
# PCOD8299339 Si02
#       8
#     8  16   4   8   8   4   8   8
#     4   9  18  34  57  78 105 142 172 228 277 332
#     4  10  21  36  52  76 109 149 198 236 293 338
#     4  10  19  38  58  78 114 148 206 236 280 332
#     4  10  20  37  63  91 113 130 183 227 275 335
#     4  11  21  34  53  77 110 151 200 256 290 313
#     4  12  23  40  58  80 122 156 194 220 288 362
#     4  10  22  38  61  86 114 154 176 226 280 343
#     4  12  23  33  53  79 110 152 201 246 280 330
#
# _framework density 18.846958000000001
#
# number of rings (size 3 to 8) (size 9 to 14) (size 15 to 20)
#    0.000    1.750    0.000    8.625    1.750    3.000 
#    0.000    4.375    0.000    0.000    0.000    0.000 
#    0.000    0.000    0.000    0.000    0.000    0.000 
#
# Total GULP energy -396692.646002 kJ/mol
# GULP energy per Si atom -12396.645188 kJ/mol
# Density = 1.880406 g / cm^3
# Si number density = 18.846958 Si / 1000 Ang^3
#
#
#
# Elastic Constant Matrix: (Units=GPa)
#
#
# Indices 1 2 3 4 5 6 
#
# 1 160.2166 59.5405 29.9775 0.0000 0.0000 0.0000
# 2 59.5405 125.9499 52.3772 0.0000 0.0000 0.0000
# 3 29.9775 52.3772 87.8192 0.0000 0.0000 0.0000
# 4 0.0000 0.0000 0.0000 -287.8678 0.0000 0.0000
# 5 0.0000 0.0000 0.0000 0.0000 9.8547 0.0000
# 6 0.0000 0.0000 0.0000 0.0000 0.0000 30.1141
#
#
#
# Elastic Compliance Matrix: (Units=1/GPa)
#
#
# Indices 1 2 3 4 5 6 
#
# 1 0.007595 -0.003341 -0.000600 0.000000 0.000000 0.000000
# 2 -0.003341 0.012028 -0.006033 0.000000 0.000000 0.000000
# 3 -0.000600 -0.006033 0.015190 0.000000 0.000000 0.000000
# 4 0.000000 0.000000 0.000000 -0.003474 0.000000 0.000000
# 5 0.000000 0.000000 0.000000 0.000000 0.101475 0.000000
# 6 0.000000 0.000000 0.000000 0.000000 0.000000 0.033207
#
#
# Mechanical properties :
#
#
# Convention : Reuss Voigt Hill
#
# Bulk Modulus (GPa) = 67.27252 73.08624 70.17938
# Shear Modulus (GPa) = 26.18822 -34.10709 -3.95944
#
# Velocity S-wave (km/s) = 3.73167 -4.25866 -1.45100
# Velocity P-wave (km/s) = 7.37148 3.83164 5.87453
#
# Compressibility (1/GPa) = 0.01486491
#
# Stress axis : x y z
#
# Youngs Moduli (GPa) = 131.65776 83.13871 65.83164
#
# Poissons Ratio (x) = 0.27777 0.03950
# Poissons Ratio (y) = 0.43988 0.39718
# Poissons Ratio (z) = 0.07900 0.50160
#
# Static dielectric constant tensor:
#      x y z
#    x 3.354980 0.000000 0.000000 
#    y 0.000000 3.753950 0.000000 
#    z 0.000000 0.000000 3.035950 
# 
# 
# High freq. dielectric constant tensor:
#      x y z
#    x 1.734060 0.000000 0.000000 
#    y 0.000000 1.751190 0.000000 
#    z 0.000000 0.000000 1.710640 
# 
# From -- ./inp_files/69863.got.cif
#   From: 2010.03.12/outbox.cif.g09.slc.cpg/sg74_35_cif.got.tgz:69863.got - 2010.04.16 15:46:19.
