data_PCOD8299179
_publ_section_title
;
Structure prediction by ZEFSAII (Michael W. Deem and Ramdas Pophale) SiO2 
 PCOD8299179
Probable space group: I M M A
;
_chemical_formula_sum "Si O2"
_cell_formula_units_Z 96
_cell_length_a 27.340319
_cell_length_b 11.466549
_cell_length_c 17.607209
_cell_angle_alpha 90.000000
_cell_angle_beta 90.000000
_cell_angle_gamma 90.000000
_cell_volume 5519.844307
_symmetry_space_group_name_H-M "I M M A"
_symmetry_group_IT_number 74
_symmetry_cell_setting 'orthorhombic'
loop_
_space_group_symop_operation_xyz
x,y,z
-x,1/2-y,z
x,-y,-z
-x,1/2+y,-z
-x,-y,-z
x,1/2+y,-z
-x,y,z
x,1/2-y,z
1/2+x,1/2+y,1/2+z
1/2-x,-y,1/2+z
1/2+x,1/2-y,1/2-z
1/2-x,y,1/2-z
1/2-x,1/2-y,1/2-z
1/2+x,y,1/2-z
1/2-x,1/2+y,1/2+z
1/2+x,-y,1/2+z
loop_
_atom_site_type_symbol
_atom_site_label
_atom_site_fract_x
_atom_site_fract_y
_atom_site_fract_z
Si Si1 0.394304 0.884699 0.550632
Si Si2 0.798559 0.117663 0.142985
Si Si3 0.169085 0.250000 0.767206
Si Si4 0.945794 0.883750 0.791578
Si Si5 0.745320 0.250000 0.868149
Si Si6 0.144400 0.992935 0.270856
Si Si7 0.707158 0.513195 0.084817
O O1 0.401198 0.750000 0.515926
O O2 0.338634 0.898462 0.577356
O O3 0.430570 0.897772 0.621289
O O4 0.406428 0.000000 0.500000
O O5 0.796342 0.250000 0.170797
O O6 0.812441 0.044975 0.218214
O O7 0.746463 0.083407 0.108895
O O8 0.196897 0.250000 0.848122
O O9 0.211803 0.250000 0.705615
O O10 0.134739 0.361806 0.758061
O O11 0.946022 0.750000 0.767706
O O12 0.907313 0.943447 0.735104
O O13 0.000000 0.937892 0.780605
O O14 0.734509 0.363469 0.916979
O O15 0.161378 0.994382 0.358177
O O16 0.686324 0.500000 0.000000
#
# Coordination Sequence:
#
# PCOD8299179 Si02
#       7
#    16  16   8  16   8  16  16
#     4   9  18  34  51  75 109 142 171 206 256 308
#     4  10  20  33  49  73 105 140 175 208 245 289
#     4   9  16  32  55  70  94 140 175 199 234 299
#     4   9  19  37  58  76  98 130 168 214 266 311
#     4   9  18  34  48  68 101 142 176 191 240 301
#     4  10  19  35  55  73 100 133 174 211 249 300
#     4  11  22  33  48  75 107 138 169 208 250 298
#
# _framework density 17.391794999999998
#
# number of rings (size 3 to 8) (size 9 to 14) (size 15 to 20)
#    0.000    2.333    1.667    2.500    1.167    2.333 
#    7.500    0.417    0.000    0.500    0.000    0.000 
#    0.000    0.000    0.000    0.000    0.000    0.000 
#
# Total GULP energy -594894.600323 kJ/mol
# GULP energy per Si atom -12393.637507 kJ/mol
# Density = 1.735221 g / cm^3
# Si number density = 17.391795 Si / 1000 Ang^3
#
#
#
# Elastic Constant Matrix: (Units=GPa)
#
#
# Indices 1 2 3 4 5 6 
#
# 1 97.5520 35.9205 36.1430 0.0000 0.0000 0.0000
# 2 35.9205 113.1148 45.7381 0.0000 0.0000 0.0000
# 3 36.1430 45.7381 93.6780 0.0000 0.0000 0.0000
# 4 0.0000 0.0000 0.0000 20.8554 0.0000 0.0000
# 5 0.0000 0.0000 0.0000 0.0000 10.5379 0.0000
# 6 0.0000 0.0000 0.0000 0.0000 0.0000 22.8728
#
#
#
# Elastic Compliance Matrix: (Units=1/GPa)
#
#
# Indices 1 2 3 4 5 6 
#
# 1 0.012511 -0.002518 -0.003597 0.000000 0.000000 0.000000
# 2 -0.002518 0.011522 -0.004654 0.000000 0.000000 0.000000
# 3 -0.003597 -0.004654 0.014335 0.000000 0.000000 0.000000
# 4 0.000000 0.000000 0.000000 0.047949 0.000000 0.000000
# 5 0.000000 0.000000 0.000000 0.000000 0.094896 0.000000
# 6 0.000000 0.000000 0.000000 0.000000 0.000000 0.043720
#
#
# Mechanical properties :
#
#
# Convention : Reuss Voigt Hill
#
# Bulk Modulus (GPa) = 59.42228 59.99425 59.70827
# Shear Modulus (GPa) = 19.83477 23.28943 21.56210
#
# Velocity S-wave (km/s) = 3.38074 3.66335 3.52488
# Velocity P-wave (km/s) = 7.03422 7.24321 7.13948
#
# Compressibility (1/GPa) = 0.01682870
#
# Stress axis : x y z
#
# Youngs Moduli (GPa) = 79.92889 86.78925 69.75852
#
# Poissons Ratio (x) = 0.21857 0.25095
# Poissons Ratio (y) = 0.20129 0.32466
# Poissons Ratio (z) = 0.28754 0.40392
#
# Static dielectric constant tensor:
#      x y z
#    x 3.030500 0.000000 0.000000 
#    y 0.000000 3.631340 0.000000 
#    z 0.000000 0.000000 3.012450 
# 
# 
# High freq. dielectric constant tensor:
#      x y z
#    x 1.641110 0.000000 0.000000 
#    y 0.000000 1.689880 0.000000 
#    z 0.000000 0.000000 1.649250 
# 
# From -- ./inp_files/37794.got.cif
#   From: 2010.03.12/outbox.cif.g09.slc.cpg/sg74_19_cif.got.tgz:37794.got - 2010.04.16 15:46:19.
