data_PCOD8299089
_publ_section_title
;
Structure prediction by ZEFSAII (Michael W. Deem and Ramdas Pophale) SiO2 
 PCOD8299089
Probable space group: I M M A
;
_chemical_formula_sum "Si O2"
_cell_formula_units_Z 96
_cell_length_a 23.463247
_cell_length_b 8.700384
_cell_length_c 25.556212
_cell_angle_alpha 90.000000
_cell_angle_beta 90.000000
_cell_angle_gamma 90.000000
_cell_volume 5217.026175
_symmetry_space_group_name_H-M "I M M A"
_symmetry_group_IT_number 74
_symmetry_cell_setting 'orthorhombic'
loop_
_space_group_symop_operation_xyz
x,y,z
-x,1/2-y,z
x,-y,-z
-x,1/2+y,-z
-x,-y,-z
x,1/2+y,-z
-x,y,z
x,1/2-y,z
1/2+x,1/2+y,1/2+z
1/2-x,-y,1/2+z
1/2+x,1/2-y,1/2-z
1/2-x,y,1/2-z
1/2-x,1/2-y,1/2-z
1/2+x,y,1/2-z
1/2-x,1/2+y,1/2+z
1/2+x,-y,1/2+z
loop_
_atom_site_type_symbol
_atom_site_label
_atom_site_fract_x
_atom_site_fract_y
_atom_site_fract_z
Si Si1 0.752304 0.931196 0.189632
Si Si2 0.436659 0.567488 0.748763
Si Si3 0.435233 0.568835 0.444249
Si Si4 0.633175 0.067846 0.350139
Si Si5 0.136845 0.067549 0.346579
Si Si6 0.435591 0.931500 0.945637
O O1 0.761441 0.750000 0.187004
O O2 0.750000 0.988107 0.250000
O O3 0.802679 0.014426 0.158902
O O4 0.695902 0.978941 0.158675
O O5 0.500000 0.497009 0.749949
O O6 0.439405 0.750000 0.747874
O O7 0.404945 0.504429 0.697578
O O8 0.403479 0.510848 0.799750
O O9 0.418398 0.500000 0.500000
O O10 0.500000 0.521225 0.429151
O O11 0.428512 0.750000 0.446849
O O12 0.390968 0.501680 0.403146
O O13 0.631144 0.250000 0.353733
O O14 0.147261 0.250000 0.344621
O O15 0.106687 0.013844 0.400000
O O16 0.500000 0.990185 0.933921
O O17 0.435321 0.750000 0.949699
O O18 0.412726 0.000000 0.000000
#
# Coordination Sequence:
#
# PCOD8299089 Si02
#       6
#    16  16  16  16  16  16
#     4  11  23  38  55  77 111 150 188 231 284 340
#     4   9  17  29  50  81 111 137 172 223 277 332
#     4  10  21  38  60  86 118 153 188 229 279 334
#     4  11  21  35  58  84 112 146 190 234 279 336
#     4  10  19  34  56  80 107 142 188 230 272 329
#     4   9  18  33  55  82 112 145 180 222 272 326
#
# _framework density 18.401287
#
# number of rings (size 3 to 8) (size 9 to 14) (size 15 to 20)
#    0.000    2.000    1.667    2.500    0.000    5.000 
#    0.000    0.833    0.000    4.500    0.000    0.000 
#    0.000    0.000    0.000    0.000    0.000    0.000 
#
# Total GULP energy -595335.696672 kJ/mol
# GULP energy per Si atom -12402.827014 kJ/mol
# Density = 1.835941 g / cm^3
# Si number density = 18.401287 Si / 1000 Ang^3
#
#
#
# Elastic Constant Matrix: (Units=GPa)
#
#
# Indices 1 2 3 4 5 6 
#
# 1 130.4645 21.6046 80.0568 0.0000 0.0000 0.0000
# 2 21.6046 42.0104 36.2969 0.0000 0.0000 0.0000
# 3 80.0568 36.2969 158.5005 0.0000 0.0000 0.0000
# 4 0.0000 0.0000 0.0000 28.2625 0.0000 0.0000
# 5 0.0000 0.0000 0.0000 0.0000 28.8093 0.0000
# 6 0.0000 0.0000 0.0000 0.0000 0.0000 19.7713
#
#
#
# Elastic Compliance Matrix: (Units=1/GPa)
#
#
# Indices 1 2 3 4 5 6 
#
# 1 0.011147 -0.001082 -0.005382 0.000000 0.000000 0.000000
# 2 -0.001082 0.029780 -0.006273 0.000000 0.000000 0.000000
# 3 -0.005382 -0.006273 0.010464 0.000000 0.000000 0.000000
# 4 0.000000 0.000000 0.000000 0.035383 0.000000 0.000000
# 5 0.000000 0.000000 0.000000 0.000000 0.034711 0.000000
# 6 0.000000 0.000000 0.000000 0.000000 0.000000 0.050578
#
#
# Mechanical properties :
#
#
# Convention : Reuss Voigt Hill
#
# Bulk Modulus (GPa) = 38.58620 67.43245 53.00932
# Shear Modulus (GPa) = 24.25099 28.23643 26.24371
#
# Velocity S-wave (km/s) = 3.63422 3.92149 3.78059
# Velocity P-wave (km/s) = 6.21489 7.56500 6.92294
#
# Compressibility (1/GPa) = 0.02591600
#
# Stress axis : x y z
#
# Youngs Moduli (GPa) = 89.71119 33.57947 95.56358
#
# Poissons Ratio (x) = 0.03634 0.51436
# Poissons Ratio (y) = 0.09708 0.59948
# Poissons Ratio (z) = 0.48286 0.21065
#
# Static dielectric constant tensor:
#      x y z
#    x 3.497810 0.000000 0.000000 
#    y 0.000000 3.193520 0.000000 
#    z 0.000000 0.000000 3.496750 
# 
# 
# High freq. dielectric constant tensor:
#      x y z
#    x 1.717190 0.000000 0.000000 
#    y 0.000000 1.700120 0.000000 
#    z 0.000000 0.000000 1.717850 
# 
# From -- ./inp_files/57252.got.cif
#   From: 2010.03.12/outbox.cif.g09.slc.cpg/sg74_29_cif.got.tgz:57252.got - 2010.04.16 15:46:19.
