data_PCOD8299981
_publ_section_title
;
Structure prediction by ZEFSAII (Michael W. Deem and Ramdas Pophale) SiO2 
 PCOD8299981
Probable space group: I M M A
;
_chemical_formula_sum "Si O2"
_cell_formula_units_Z 112
_cell_length_a 21.250257
_cell_length_b 17.606502
_cell_length_c 14.196163
_cell_angle_alpha 90.000000
_cell_angle_beta 90.000000
_cell_angle_gamma 90.000000
_cell_volume 5311.390646
_symmetry_space_group_name_H-M "I M M A"
_symmetry_group_IT_number 74
_symmetry_cell_setting 'orthorhombic'
loop_
_space_group_symop_operation_xyz
x,y,z
-x,1/2-y,z
x,-y,-z
-x,1/2+y,-z
-x,-y,-z
x,1/2+y,-z
-x,y,z
x,1/2-y,z
1/2+x,1/2+y,1/2+z
1/2-x,-y,1/2+z
1/2+x,1/2-y,1/2-z
1/2-x,y,1/2-z
1/2-x,1/2-y,1/2-z
1/2+x,y,1/2-z
1/2-x,1/2+y,1/2+z
1/2+x,-y,1/2+z
loop_
_atom_site_type_symbol
_atom_site_label
_atom_site_fract_x
_atom_site_fract_y
_atom_site_fract_z
Si Si1 0.570328 0.336910 0.642150
Si Si2 0.073731 0.609615 0.347197
Si Si3 0.429535 0.441164 0.175651
Si Si4 0.620367 0.163359 0.036044
Si Si5 0.640066 0.411105 0.484777
Si Si6 0.072187 0.834570 0.832575
Si Si7 0.249519 0.339045 0.360124
O O1 0.500000 0.371230 0.621584
O O2 0.570866 0.250000 0.611187
O O3 0.584525 0.343751 0.752475
O O4 0.628247 0.377673 0.588797
O O5 0.101316 0.524089 0.334392
O O6 0.117866 0.651077 0.424046
O O7 0.000000 0.610130 0.377514
O O8 0.500000 0.456161 0.211736
O O9 0.430621 0.395500 0.077479
O O10 0.394501 0.386028 0.251487
O O11 0.602837 0.250000 0.060862
O O12 0.685779 0.139956 0.085050
O O13 0.645559 0.500000 0.500000
O O14 0.578262 0.381641 0.429154
O O15 0.697802 0.380419 0.422999
O O16 0.104139 0.750000 0.835876
O O17 0.000000 0.822689 0.807941
O O18 0.262660 0.250000 0.364352
O O19 0.250000 0.366321 0.250000
#
# Coordination Sequence:
#
# PCOD8299981 Si02
#       7
#    16  16  16  16  16  16  16
#     4  10  21  38  60  85 117 159 199 233 276 337
#     4  10  21  37  57  85 123 162 197 237 286 343
#     4  10  20  34  55  86 121 153 189 240 300 353
#     4  11  22  36  58  85 113 152 199 245 295 353
#     4  12  24  38  59  88 118 151 192 240 294 351
#     4  10  20  35  58  88 121 156 195 243 297 352
#     4  10  23  44  66  85 110 148 195 248 304 358
#
# _framework density 21.086756000000001
#
# number of rings (size 3 to 8) (size 9 to 14) (size 15 to 20)
#    0.000    1.571    0.000    5.143    0.000    9.143 
#    0.000    0.714    0.000    2.571    0.000    0.000 
#    0.000    0.000    0.000    0.000    0.000    0.000 
#
# Total GULP energy -693958.119659 kJ/mol
# GULP energy per Si atom -12392.109280 kJ/mol
# Density = 2.103876 g / cm^3
# Si number density = 21.086756 Si / 1000 Ang^3
#
#
#
# Elastic Constant Matrix: (Units=GPa)
#
#
# Indices 1 2 3 4 5 6 
#
# 1 70.1762 31.4988 52.6846 0.0000 0.0000 0.0000
# 2 31.4988 116.2154 36.5223 0.0000 0.0000 0.0000
# 3 52.6846 36.5223 128.5095 0.0000 0.0000 0.0000
# 4 0.0000 0.0000 0.0000 38.2175 0.0000 0.0000
# 5 0.0000 0.0000 0.0000 0.0000 37.9412 0.0000
# 6 0.0000 0.0000 0.0000 0.0000 0.0000 21.2285
#
#
#
# Elastic Compliance Matrix: (Units=1/GPa)
#
#
# Indices 1 2 3 4 5 6 
#
# 1 0.021741 -0.003395 -0.007948 0.000000 0.000000 0.000000
# 2 -0.003395 0.009979 -0.001444 0.000000 0.000000 0.000000
# 3 -0.007948 -0.001444 0.011450 0.000000 0.000000 0.000000
# 4 0.000000 0.000000 0.000000 0.026166 0.000000 0.000000
# 5 0.000000 0.000000 0.000000 0.000000 0.026357 0.000000
# 6 0.000000 0.000000 0.000000 0.000000 0.000000 0.047107
#
#
# Mechanical properties :
#
#
# Convention : Reuss Voigt Hill
#
# Bulk Modulus (GPa) = 56.83244 61.81249 59.32247
# Shear Modulus (GPa) = 28.69634 32.42381 30.56008
#
# Velocity S-wave (km/s) = 3.69300 3.92553 3.81104
# Velocity P-wave (km/s) = 6.72269 7.06565 6.89630
#
# Compressibility (1/GPa) = 0.01759558
#
# Stress axis : x y z
#
# Youngs Moduli (GPa) = 45.99683 100.21378 87.33277
#
# Poissons Ratio (x) = 0.34020 0.69414
# Poissons Ratio (y) = 0.15615 0.12613
# Poissons Ratio (z) = 0.36559 0.14473
#
# Static dielectric constant tensor:
#      x y z
#    x 3.578630 0.000000 0.000000 
#    y 0.000000 3.953730 0.000000 
#    z 0.000000 0.000000 3.961360 
# 
# 
# High freq. dielectric constant tensor:
#      x y z
#    x 1.794350 0.000000 0.000000 
#    y 0.000000 1.833410 0.000000 
#    z 0.000000 0.000000 1.838820 
# 
# From -- ./inp_files/36496.got.cif
#   From: 2010.03.12/outbox.cif.g09.slc.cpg/sg74_19_cif.got.tgz:36496.got - 2010.04.16 15:46:19.
