data_PCOD8299763
_publ_section_title
;
Structure prediction by ZEFSAII (Michael W. Deem and Ramdas Pophale) SiO2 
 PCOD8299763
Probable space group: I M M A
;
_chemical_formula_sum "Si O2"
_cell_formula_units_Z 80
_cell_length_a 9.190932
_cell_length_b 25.185035
_cell_length_c 20.434044
_cell_angle_alpha 90.000000
_cell_angle_beta 90.000000
_cell_angle_gamma 90.000000
_cell_volume 4729.948759
_symmetry_space_group_name_H-M "I M M A"
_symmetry_group_IT_number 74
_symmetry_cell_setting 'orthorhombic'
loop_
_space_group_symop_operation_xyz
x,y,z
-x,1/2-y,z
x,-y,-z
-x,1/2+y,-z
-x,-y,-z
x,1/2+y,-z
-x,y,z
x,1/2-y,z
1/2+x,1/2+y,1/2+z
1/2-x,-y,1/2+z
1/2+x,1/2-y,1/2-z
1/2-x,y,1/2-z
1/2-x,1/2-y,1/2-z
1/2+x,y,1/2-z
1/2-x,1/2+y,1/2+z
1/2+x,-y,1/2+z
loop_
_atom_site_type_symbol
_atom_site_label
_atom_site_fract_x
_atom_site_fract_y
_atom_site_fract_z
Si Si1 0.668105 0.864869 0.131372
Si Si2 0.671713 0.535957 0.315101
Si Si3 0.171007 0.966252 0.938849
Si Si4 0.667639 0.635383 0.975990
Si Si5 0.171268 0.250000 0.624448
Si Si6 0.672457 0.750000 0.981509
O O1 0.500000 0.878180 0.147555
O O2 0.772449 0.905376 0.168122
O O3 0.712517 0.805884 0.159275
O O4 0.695136 0.867446 0.053676
O O5 0.500000 0.538414 0.304185
O O6 0.750000 0.514758 0.250000
O O7 0.715561 0.495770 0.372557
O O8 0.239295 0.907982 0.937744
O O9 0.000000 0.959526 0.945878
O O10 0.233118 0.000000 0.000000
O O11 0.500000 0.624348 0.960004
O O12 0.716712 0.693848 0.947724
O O13 0.245607 0.250000 0.553122
O O14 0.000000 0.250000 0.613225
O O15 0.500000 0.750000 0.989484
#
# Coordination Sequence:
#
# PCOD8299763 Si02
#       6
#    16  16  16  16   8   8
#     4   9  16  29  49  72  97 127 164 202 240 283
#     4  11  23  37  51  68  96 131 164 204 248 292
#     4  10  20  34  50  71 101 130 159 201 251 292
#     4   9  16  27  49  76 101 129 162 198 235 286
#     4   7  12  24  44  68  95 126 159 199 240 276
#     4   7  12  24  41  70 105 128 151 193 243 278
#
# _framework density 16.913502999999999
#
# number of rings (size 3 to 8) (size 9 to 14) (size 15 to 20)
#    0.000    2.800    2.000    3.000    0.000    2.000 
#    0.000    1.500    0.000    3.600    0.000    0.700 
#    0.000    0.000    0.000    0.000    0.000    0.000 
#
# Total GULP energy -495587.520908 kJ/mol
# GULP energy per Si atom -12389.688023 kJ/mol
# Density = 1.687501 g / cm^3
# Si number density = 16.913503 Si / 1000 Ang^3
#
#
#
# Elastic Constant Matrix: (Units=GPa)
#
#
# Indices 1 2 3 4 5 6 
#
# 1 42.8202 41.7470 38.6726 0.0000 0.0000 0.0000
# 2 41.7470 149.4592 57.0219 0.0000 0.0000 0.0000
# 3 38.6726 57.0219 79.1051 -0.0002 0.0000 -0.0001
# 4 0.0000 0.0000 -0.0002 12.8421 0.0000 0.0000
# 5 0.0000 0.0000 0.0000 0.0000 21.1142 0.0000
# 6 0.0000 0.0000 -0.0001 0.0000 0.0000 16.6682
#
#
#
# Elastic Compliance Matrix: (Units=1/GPa)
#
#
# Indices 1 2 3 4 5 6 
#
# 1 0.045170 -0.005782 -0.017915 0.000000 0.000000 0.000000
# 2 -0.005782 0.009969 -0.004359 0.000000 0.000000 0.000000
# 3 -0.017915 -0.004359 0.024542 0.000000 0.000000 0.000000
# 4 0.000000 0.000000 0.000000 0.077869 0.000000 0.000000
# 5 0.000000 0.000000 0.000000 0.000000 0.047361 0.000000
# 6 0.000000 0.000000 0.000000 0.000000 0.000000 0.059995
#
#
# Mechanical properties :
#
#
# Convention : Reuss Voigt Hill
#
# Bulk Modulus (GPa) = 42.42893 60.69638 51.56265
# Shear Modulus (GPa) = 15.20340 19.05443 17.12892
#
# Velocity S-wave (km/s) = 3.00140 3.36010 3.18580
# Velocity P-wave (km/s) = 6.09521 7.14268 6.63963
#
# Compressibility (1/GPa) = 0.02356882
#
# Stress axis : x y z
#
# Youngs Moduli (GPa) = 22.13858 100.31068 40.74691
#
# Poissons Ratio (x) = 0.58001 0.72996
# Poissons Ratio (y) = 0.12801 0.17763
# Poissons Ratio (z) = 0.39660 0.43728
#
# Static dielectric constant tensor:
#      x y z
#    x 2.921410 0.000000 0.000000 
#    y 0.000000 3.540690 0.000000 
#    z 0.000000 0.000000 2.866620 
# 
# 
# High freq. dielectric constant tensor:
#      x y z
#    x 1.632740 0.000000 0.000000 
#    y 0.000000 1.668750 0.000000 
#    z 0.000000 0.000000 1.606000 
# 
# From -- ./inp_files/39810.got.cif
#   From: 2010.03.12/outbox.cif.g09.slc.cpg/sg74_20_cif.got.tgz:39810.got - 2010.04.16 15:46:19.
