data_PCOD8299594
_publ_section_title
;
Structure prediction by ZEFSAII (Michael W. Deem and Ramdas Pophale) SiO2 
 PCOD8299594
Probable space group: I M M A
;
_chemical_formula_sum "Si O2"
_cell_formula_units_Z 112
_cell_length_a 18.295933
_cell_length_b 20.549449
_cell_length_c 17.710698
_cell_angle_alpha 90.000000
_cell_angle_beta 90.000000
_cell_angle_gamma 90.000000
_cell_volume 6658.714896
_symmetry_space_group_name_H-M "I M M A"
_symmetry_group_IT_number 74
_symmetry_cell_setting 'orthorhombic'
loop_
_space_group_symop_operation_xyz
x,y,z
-x,1/2-y,z
x,-y,-z
-x,1/2+y,-z
-x,-y,-z
x,1/2+y,-z
-x,y,z
x,1/2-y,z
1/2+x,1/2+y,1/2+z
1/2-x,-y,1/2+z
1/2+x,1/2-y,1/2-z
1/2-x,y,1/2-z
1/2-x,1/2-y,1/2-z
1/2+x,y,1/2-z
1/2-x,1/2+y,1/2+z
1/2+x,-y,1/2+z
loop_
_atom_site_type_symbol
_atom_site_label
_atom_site_fract_x
_atom_site_fract_y
_atom_site_fract_z
Si Si1 0.086756 0.605475 0.715024
Si Si2 0.844004 0.572009 0.467925
Si Si3 0.414105 0.038477 0.816764
Si Si4 0.080906 0.059791 0.850302
Si Si5 0.913553 0.178216 0.428816
Si Si6 0.676521 0.924181 0.484831
Si Si7 0.417597 0.093560 0.378363
O O1 0.116404 0.535115 0.688796
O O2 0.115276 0.658076 0.654610
O O3 0.112204 0.625391 0.799878
O O4 0.000000 0.599745 0.717865
O O5 0.859434 0.500000 0.500000
O O6 0.866834 0.574694 0.380402
O O7 0.891995 0.625218 0.509940
O O8 0.760797 0.594660 0.478759
O O9 0.500000 0.040293 0.837782
O O10 0.399275 0.074575 0.736974
O O11 0.137696 0.095210 0.906080
O O12 0.000000 0.086797 0.868467
O O13 0.081486 0.983057 0.863845
O O14 0.881971 0.250000 0.448148
O O15 0.000000 0.180500 0.426843
O O16 0.637205 0.886327 0.554040
O O17 0.666913 0.000000 0.500000
O O18 0.500000 0.117144 0.398608
#
# Coordination Sequence:
#
# PCOD8299594 Si02
#       7
#    16  16  16  16  16  16  16
#     4   8  14  26  45  66  85 112 153 195 234 273
#     4  11  20  29  44  67  97 128 155 190 233 284
#     4   9  16  26  43  66  89 119 156 190 229 278
#     4   8  14  25  41  63  92 120 149 191 238 280
#     4  10  20  33  49  68  92 124 162 201 235 271
#     4   9  17  26  38  64  95 123 153 186 235 284
#     4   8  13  24  43  63  87 120 154 191 234 279
#
# _framework density 16.820063000000001
#
# number of rings (size 3 to 8) (size 9 to 14) (size 15 to 20)
#    0.000    3.000    1.429    2.571    0.000    2.857 
#    0.000    0.714    0.000    1.714    0.000    2.000 
#    0.000    2.857    0.000    0.571    0.000    0.000 
#
# Total GULP energy -693980.962225 kJ/mol
# GULP energy per Si atom -12392.517183 kJ/mol
# Density = 1.678178 g / cm^3
# Si number density = 16.820063 Si / 1000 Ang^3
#
#
#
# Elastic Constant Matrix: (Units=GPa)
#
#
# Indices 1 2 3 4 5 6 
#
# 1 49.5662 14.1485 46.5554 0.0000 0.0000 0.0000
# 2 14.1485 50.4024 32.2883 0.0000 0.0000 0.0000
# 3 46.5554 32.2883 138.6808 0.0000 0.0000 0.0000
# 4 0.0000 0.0000 0.0000 10.0029 0.0000 0.0000
# 5 0.0000 0.0000 0.0000 0.0000 17.6951 0.0000
# 6 0.0000 0.0000 0.0000 0.0000 0.0000 6.7628
#
#
#
# Elastic Compliance Matrix: (Units=1/GPa)
#
#
# Indices 1 2 3 4 5 6 
#
# 1 0.029689 -0.002291 -0.009433 0.000000 0.000000 0.000000
# 2 -0.002291 0.023495 -0.004701 0.000000 0.000000 0.000000
# 3 -0.009433 -0.004701 0.011472 0.000000 0.000000 0.000000
# 4 0.000000 0.000000 0.000000 0.099971 0.000000 0.000000
# 5 0.000000 0.000000 0.000000 0.000000 0.056513 0.000000
# 6 0.000000 0.000000 0.000000 0.000000 0.000000 0.147867
#
#
# Mechanical properties :
#
#
# Convention : Reuss Voigt Hill
#
# Bulk Modulus (GPa) = 31.44108 47.18154 39.31131
# Shear Modulus (GPa) = 12.12238 16.60264 14.36251
#
# Velocity S-wave (km/s) = 2.68752 3.14518 2.92531
# Velocity P-wave (km/s) = 5.32574 6.42660 5.90189
#
# Compressibility (1/GPa) = 0.03180553
#
# Stress axis : x y z
#
# Youngs Moduli (GPa) = 33.68204 42.56222 87.16768
#
# Poissons Ratio (x) = 0.09751 0.82229
# Poissons Ratio (y) = 0.07717 0.40979
# Poissons Ratio (z) = 0.31774 0.20009
#
# Static dielectric constant tensor:
#      x y z
#    x 3.058320 0.000000 0.000000 
#    y 0.000000 2.681790 0.000000 
#    z 0.000000 0.000000 3.518470 
# 
# 
# High freq. dielectric constant tensor:
#      x y z
#    x 1.630740 0.000000 0.000000 
#    y 0.000000 1.575160 0.000000 
#    z 0.000000 0.000000 1.667520 
# 
# From -- ./inp_files/44386.got.cif
#   From: 2010.03.12/outbox.cif.g09.slc.cpg/sg74_23_cif.got.tgz:44386.got - 2010.04.16 15:46:19.
