data_PCOD8299083
_publ_section_title
;
Structure prediction by ZEFSAII (Michael W. Deem and Ramdas Pophale) SiO2 
 PCOD8299083
Probable space group: I M M A
;
_chemical_formula_sum "Si O2"
_cell_formula_units_Z 96
_cell_length_a 20.477188
_cell_length_b 8.950729
_cell_length_c 28.029995
_cell_angle_alpha 90.000000
_cell_angle_beta 90.000000
_cell_angle_gamma 90.000000
_cell_volume 5137.498950
_symmetry_space_group_name_H-M "I M M A"
_symmetry_group_IT_number 74
_symmetry_cell_setting 'orthorhombic'
loop_
_space_group_symop_operation_xyz
x,y,z
-x,1/2-y,z
x,-y,-z
-x,1/2+y,-z
-x,-y,-z
x,1/2+y,-z
-x,y,z
x,1/2-y,z
1/2+x,1/2+y,1/2+z
1/2-x,-y,1/2+z
1/2+x,1/2-y,1/2-z
1/2-x,y,1/2-z
1/2-x,1/2-y,1/2-z
1/2+x,y,1/2-z
1/2-x,1/2+y,1/2+z
1/2+x,-y,1/2+z
loop_
_atom_site_type_symbol
_atom_site_label
_atom_site_fract_x
_atom_site_fract_y
_atom_site_fract_z
Si Si1 0.000000 0.927299 0.809078
Si Si2 0.625033 0.925046 0.353465
Si Si3 0.124419 0.574111 0.641999
Si Si4 0.742766 0.080476 0.305992
Si Si5 0.333994 0.573227 0.048794
Si Si6 0.315107 0.424367 0.547558
Si Si7 0.500000 0.072763 0.201095
O O1 0.000000 0.750000 0.808917
O O2 0.000000 0.990918 0.755026
O O3 0.936985 0.983238 0.836842
O O4 0.611318 0.750000 0.348130
O O5 0.639515 0.969870 0.408184
O O6 0.687088 0.966801 0.321706
O O7 0.119206 0.750000 0.632548
O O8 0.189764 0.531006 0.670079
O O9 0.122180 0.489274 0.591702
O O10 0.064052 0.515214 0.673572
O O11 0.723960 0.250000 0.320636
O O12 0.750000 0.067281 0.250000
O O13 0.341634 0.750000 0.045661
O O14 0.259032 0.522472 0.057726
O O15 0.359977 0.500000 0.000000
O O16 0.343625 0.500000 0.500000
O O17 0.315798 0.250000 0.538490
O O18 0.500000 0.250000 0.203643
#
# Coordination Sequence:
#
# PCOD8299083 Si02
#       7
#     8  16  16  16  16  16   8
#     4  11  23  41  62  83 112 155 198 235 278 339
#     4  11  22  38  57  84 117 149 186 235 291 341
#     4  10  19  34  57  83 111 147 188 234 284 334
#     4  10  20  34  55  83 112 146 192 239 282 336
#     4  10  19  34  55  83 115 147 184 230 283 338
#     4   9  19  34  55  82 114 146 182 229 281 337
#     4   9  20  39  60  81 112 151 194 237 280 331
#
# _framework density 18.686135
#
# number of rings (size 3 to 8) (size 9 to 14) (size 15 to 20)
#    0.000    2.000    1.667    2.250    0.000    5.000 
#    0.000    4.583    0.000    0.000    0.000    0.000 
#    0.000    0.000    0.000    0.000    0.000    0.000 
#
# Total GULP energy -595362.138427 kJ/mol
# GULP energy per Si atom -12403.377884 kJ/mol
# Density = 1.864360 g / cm^3
# Si number density = 18.686135 Si / 1000 Ang^3
#
#
#
# Elastic Constant Matrix: (Units=GPa)
#
#
# Indices 1 2 3 4 5 6 
#
# 1 108.0381 32.3014 56.1589 0.0000 0.0000 0.0000
# 2 32.3014 53.7416 42.7211 0.0000 0.0000 0.0000
# 3 56.1589 42.7211 136.8273 0.0000 0.0000 0.0000
# 4 0.0000 0.0000 0.0000 33.6144 0.0000 0.0000
# 5 0.0000 0.0000 0.0000 0.0000 29.8135 0.0000
# 6 0.0000 0.0000 0.0000 0.0000 0.0000 26.8398
#
#
#
# Elastic Compliance Matrix: (Units=1/GPa)
#
#
# Indices 1 2 3 4 5 6 
#
# 1 0.012564 -0.004592 -0.003723 0.000000 0.000000 0.000000
# 2 -0.004592 0.026429 -0.006367 0.000000 0.000000 0.000000
# 3 -0.003723 -0.006367 0.010825 0.000000 0.000000 0.000000
# 4 0.000000 0.000000 0.000000 0.029749 0.000000 0.000000
# 5 0.000000 0.000000 0.000000 0.000000 0.033542 0.000000
# 6 0.000000 0.000000 0.000000 0.000000 0.000000 0.037258
#
#
# Mechanical properties :
#
#
# Convention : Reuss Voigt Hill
#
# Bulk Modulus (GPa) = 48.89185 62.32997 55.61091
# Shear Modulus (GPa) = 26.80259 29.21526 28.00893
#
# Velocity S-wave (km/s) = 3.79140 3.95837 3.87578
# Velocity P-wave (km/s) = 6.73705 7.37023 7.06074
#
# Compressibility (1/GPa) = 0.02045331
#
# Stress axis : x y z
#
# Youngs Moduli (GPa) = 79.59116 37.83711 92.38296
#
# Poissons Ratio (x) = 0.17375 0.34394
# Poissons Ratio (y) = 0.36550 0.58821
# Poissons Ratio (z) = 0.29632 0.24091
#
# Static dielectric constant tensor:
#      x y z
#    x 3.219580 0.000000 0.000000 
#    y 0.000000 3.334250 0.000000 
#    z 0.000000 0.000000 3.597800 
# 
# 
# High freq. dielectric constant tensor:
#      x y z
#    x 1.710800 0.000000 0.000000 
#    y 0.000000 1.717110 0.000000 
#    z 0.000000 0.000000 1.741410 
# 
# From -- ./inp_files/68617.got.cif
#   From: 2010.03.12/outbox.cif.g09.slc.cpg/sg74_35_cif.got.tgz:68617.got - 2010.04.16 15:46:19.
