data_PCOD8299911
_publ_section_title
;
Structure prediction by ZEFSAII (Michael W. Deem and Ramdas Pophale) SiO2 
 PCOD8299911
Probable space group: I M M A
;
_chemical_formula_sum "Si O2"
_cell_formula_units_Z 104
_cell_length_a 22.131770
_cell_length_b 8.834038
_cell_length_c 28.684870
_cell_angle_alpha 90.000000
_cell_angle_beta 90.000000
_cell_angle_gamma 90.000000
_cell_volume 5608.262039
_symmetry_space_group_name_H-M "I M M A"
_symmetry_group_IT_number 74
_symmetry_cell_setting 'orthorhombic'
loop_
_space_group_symop_operation_xyz
x,y,z
-x,1/2-y,z
x,-y,-z
-x,1/2+y,-z
-x,-y,-z
x,1/2+y,-z
-x,y,z
x,1/2-y,z
1/2+x,1/2+y,1/2+z
1/2-x,-y,1/2+z
1/2+x,1/2-y,1/2-z
1/2-x,y,1/2-z
1/2-x,1/2-y,1/2-z
1/2+x,y,1/2-z
1/2-x,1/2+y,1/2+z
1/2+x,-y,1/2+z
loop_
_atom_site_type_symbol
_atom_site_label
_atom_site_fract_x
_atom_site_fract_y
_atom_site_fract_z
Si Si1 0.682672 0.928831 0.298396
Si Si2 0.000000 0.430983 0.551766
Si Si3 0.258403 0.071255 0.950220
Si Si4 0.844600 0.073326 0.111174
Si Si5 0.121766 0.070944 0.601550
Si Si6 0.820547 0.928208 0.304585
Si Si7 0.428728 0.079996 0.545939
O O1 0.676808 0.750000 0.307112
O O2 0.751538 0.984261 0.306137
O O3 0.655863 0.970908 0.247217
O O4 0.645109 0.024379 0.335489
O O5 0.000000 0.500000 0.500000
O O6 0.058434 0.490597 0.580837
O O7 0.000000 0.250000 0.546929
O O8 0.252921 0.250000 0.954198
O O9 0.325220 0.022002 0.933772
O O10 0.210960 0.014859 0.912093
O O11 0.243919 0.000000 0.000000
O O12 0.833455 0.250000 0.106150
O O13 0.907299 0.023049 0.088294
O O14 0.117348 0.250000 0.605408
O O15 0.137891 0.003399 0.653446
O O16 0.819743 0.750000 0.311040
O O17 0.500000 0.084381 0.545910
O O18 0.402043 0.250000 0.548820
O O19 0.402738 0.000000 0.500000
#
# Coordination Sequence:
#
# PCOD8299911 Si02
#       7
#    16   8  16  16  16  16  16
#     4   9  16  30  54  78 103 134 173 217 265 319
#     4  10  20  34  54  78 106 140 182 228 271 324
#     4  11  21  34  51  73 106 139 175 218 266 319
#     4  12  23  34  51  78 110 141 174 213 262 314
#     4   9  17  31  53  78 103 137 178 222 270 320
#     4   8  14  28  53  79 100 132 174 218 267 317
#     4  10  21  38  59  80 104 137 177 215 254 307
#
# _framework density 18.544069
#
# number of rings (size 3 to 8) (size 9 to 14) (size 15 to 20)
#    0.000    2.154    1.538    4.154    0.000    0.923 
#    0.000    2.308    1.692    0.000    0.000    0.000 
#    0.000    0.000    0.000    0.000    0.000    0.000 
#
# Total GULP energy -644499.463389 kJ/mol
# GULP energy per Si atom -12394.220450 kJ/mol
# Density = 1.850186 g / cm^3
# Si number density = 18.544069 Si / 1000 Ang^3
#
#
#
# Elastic Constant Matrix: (Units=GPa)
#
#
# Indices 1 2 3 4 5 6 
#
# 1 48.1840 16.9449 37.7127 0.0000 0.0000 0.0000
# 2 16.9449 67.7451 39.6095 0.0000 0.0000 0.0000
# 3 37.7127 39.6095 152.3096 0.0000 0.0000 0.0000
# 4 0.0000 0.0000 0.0000 27.7661 0.0000 0.0000
# 5 0.0000 0.0000 0.0000 0.0000 24.6294 0.0000
# 6 0.0000 0.0000 0.0000 0.0000 0.0000 13.1721
#
#
#
# Elastic Compliance Matrix: (Units=1/GPa)
#
#
# Indices 1 2 3 4 5 6 
#
# 1 0.026344 -0.003273 -0.005672 0.000000 0.000000 0.000000
# 2 -0.003273 0.017815 -0.003822 0.000000 0.000000 0.000000
# 3 -0.005672 -0.003822 0.008964 0.000000 0.000000 0.000000
# 4 0.000000 0.000000 0.000000 0.036015 0.000000 0.000000
# 5 0.000000 0.000000 0.000000 0.000000 0.040602 0.000000
# 6 0.000000 0.000000 0.000000 0.000000 0.000000 0.075918
#
#
# Mechanical properties :
#
#
# Convention : Reuss Voigt Hill
#
# Bulk Modulus (GPa) = 36.24744 50.75255 43.50000
# Shear Modulus (GPa) = 20.79963 24.71162 22.75562
#
# Velocity S-wave (km/s) = 3.35271 3.65442 3.50681
# Velocity P-wave (km/s) = 5.88019 6.72566 6.31708
#
# Compressibility (1/GPa) = 0.02758815
#
# Stress axis : x y z
#
# Youngs Moduli (GPa) = 37.95927 56.13287 111.55748
#
# Poissons Ratio (x) = 0.18373 0.63272
# Poissons Ratio (y) = 0.12425 0.42642
# Poissons Ratio (z) = 0.21529 0.21457
#
# Static dielectric constant tensor:
#      x y z
#    x 3.393730 0.000000 0.000000 
#    y 0.000000 3.165170 0.000000 
#    z 0.000000 0.000000 3.917810 
# 
# 
# High freq. dielectric constant tensor:
#      x y z
#    x 1.698570 0.000000 0.000000 
#    y 0.000000 1.691410 0.000000 
#    z 0.000000 0.000000 1.735910 
# 
# From -- ./inp_files/68650.got.cif
#   From: 2010.03.12/outbox.cif.g09.slc.cpg/sg74_35_cif.got.tgz:68650.got - 2010.04.16 15:46:19.
