data_PCOD8299223
_publ_section_title
;
Structure prediction by ZEFSAII (Michael W. Deem and Ramdas Pophale) SiO2 
 PCOD8299223
Probable space group: I M M A
;
_chemical_formula_sum "Si O2"
_cell_formula_units_Z 96
_cell_length_a 23.109617
_cell_length_b 17.920042
_cell_length_c 11.499897
_cell_angle_alpha 90.000000
_cell_angle_beta 90.000000
_cell_angle_gamma 90.000000
_cell_volume 4762.398378
_symmetry_space_group_name_H-M "I M M A"
_symmetry_group_IT_number 74
_symmetry_cell_setting 'orthorhombic'
loop_
_space_group_symop_operation_xyz
x,y,z
-x,1/2-y,z
x,-y,-z
-x,1/2+y,-z
-x,-y,-z
x,1/2+y,-z
-x,y,z
x,1/2-y,z
1/2+x,1/2+y,1/2+z
1/2-x,-y,1/2+z
1/2+x,1/2-y,1/2-z
1/2-x,y,1/2-z
1/2-x,1/2-y,1/2-z
1/2+x,y,1/2-z
1/2-x,1/2+y,1/2+z
1/2+x,-y,1/2+z
loop_
_atom_site_type_symbol
_atom_site_label
_atom_site_fract_x
_atom_site_fract_y
_atom_site_fract_z
Si Si1 0.123556 0.166095 0.908937
Si Si2 0.500000 0.465502 0.305270
Si Si3 0.319488 0.835363 0.873426
Si Si4 0.803029 0.612364 0.882335
Si Si5 0.100225 0.536993 0.615787
Si Si6 0.500000 0.385798 0.543343
Si Si7 0.314683 0.957321 0.270195
O O1 0.142084 0.250000 0.876596
O O2 0.054878 0.162996 0.921751
O O3 0.146063 0.111234 0.809593
O O4 0.149383 0.140942 0.030512
O O5 0.444099 0.459197 0.222919
O O6 0.500000 0.401589 0.404107
O O7 0.500000 0.541376 0.376545
O O8 0.327438 0.750000 0.911894
O O9 0.261251 0.869820 0.931081
O O10 0.313321 0.841941 0.735111
O O11 0.376613 0.880128 0.915460
O O12 0.811303 0.523721 0.865068
O O13 0.072240 0.500000 0.500000
O O14 0.156549 0.489074 0.652896
O O15 0.250000 0.927418 0.250000
#
# Coordination Sequence:
#
# PCOD8299223 Si02
#       7
#    16   8  16  16  16   8  16
#     4  12  25  39  62  96 133 167 206 263 331 390
#     4  11  23  42  68  97 114 166 219 280 311 380
#     4  10  19  35  58  91 128 161 208 261 324 376
#     4  10  19  35  59  90 123 165 207 263 315 377
#     4  11  23  41  63  94 123 170 220 263 318 380
#     4  11  23  42  70  89 129 163 217 261 328 384
#     4  11  22  39  62  92 128 168 216 261 310 380
#
# _framework density 20.157910999999999
#
# number of rings (size 3 to 8) (size 9 to 14) (size 15 to 20)
#    0.000    1.167    5.000    5.000    4.667    0.333 
#    0.000    2.083    0.000    0.000    0.000    0.000 
#    0.000    0.000    0.000    0.000    0.000    0.000 
#
# Total GULP energy -595175.557546 kJ/mol
# GULP energy per Si atom -12399.490782 kJ/mol
# Density = 2.011203 g / cm^3
# Si number density = 20.157911 Si / 1000 Ang^3
#
#
#
# Elastic Constant Matrix: (Units=GPa)
#
#
# Indices 1 2 3 4 5 6 
#
# 1 112.4804 30.5871 33.0225 0.0000 0.0000 0.0000
# 2 30.5871 130.4670 38.5235 0.0000 0.0000 0.0000
# 3 33.0225 38.5235 57.3411 0.0000 0.0000 0.0000
# 4 0.0000 0.0000 0.0000 10.0888 0.0000 0.0000
# 5 0.0000 0.0000 0.0000 0.0000 -39.5626 0.0000
# 6 0.0000 0.0000 0.0000 0.0000 0.0000 -130.7678
#
#
#
# Elastic Compliance Matrix: (Units=1/GPa)
#
#
# Indices 1 2 3 4 5 6 
#
# 1 0.010777 -0.000866 -0.005625 0.000000 0.000000 0.000000
# 2 -0.000866 0.009631 -0.005972 0.000000 0.000000 0.000000
# 3 -0.005625 -0.005972 0.024691 0.000000 0.000000 0.000000
# 4 0.000000 0.000000 0.000000 0.099120 0.000000 0.000000
# 5 0.000000 0.000000 0.000000 0.000000 -0.025276 0.000000
# 6 0.000000 0.000000 0.000000 0.000000 0.000000 -0.007647
#
#
# Mechanical properties :
#
#
# Convention : Reuss Voigt Hill
#
# Bulk Modulus (GPa) = 49.56832 56.06164 52.81498
# Shear Modulus (GPa) = 34.97828 -18.83796 8.07016
#
# Velocity S-wave (km/s) = 4.17011 -3.06031 2.00304
# Velocity P-wave (km/s) = 6.91591 3.92228 5.62201
#
# Compressibility (1/GPa) = 0.02017418
#
# Stress axis : x y z
#
# Youngs Moduli (GPa) = 92.78799 103.83051 40.50064
#
# Poissons Ratio (x) = 0.08989 0.22781
# Poissons Ratio (y) = 0.08033 0.24186
# Poissons Ratio (z) = 0.52193 0.62006
#
# Static dielectric constant tensor:
#      x y z
#    x 3.805470 0.000000 0.000000 
#    y 0.000000 3.633150 0.000000 
#    z 0.000000 0.000000 3.433650 
# 
# 
# High freq. dielectric constant tensor:
#      x y z
#    x 1.794520 0.000000 0.000000 
#    y 0.000000 1.780570 0.000000 
#    z 0.000000 0.000000 1.765300 
# 
# From -- ./inp_files/23989.got.cif
#   From: 2010.03.12/outbox.cif.g09.slc.cpg/sg74_12_cif.got.tgz:23989.got - 2010.04.16 15:46:19.
