data_PCOD8299072
_publ_section_title
;
Structure prediction by ZEFSAII (Michael W. Deem and Ramdas Pophale) SiO2 
 PCOD8299072
Probable space group: I M M A
;
_chemical_formula_sum "Si O2"
_cell_formula_units_Z 72
_cell_length_a 25.935402
_cell_length_b 10.350255
_cell_length_c 14.300978
_cell_angle_alpha 90.000000
_cell_angle_beta 90.000000
_cell_angle_gamma 90.000000
_cell_volume 3838.926279
_symmetry_space_group_name_H-M "I M M A"
_symmetry_group_IT_number 74
_symmetry_cell_setting 'orthorhombic'
loop_
_space_group_symop_operation_xyz
x,y,z
-x,1/2-y,z
x,-y,-z
-x,1/2+y,-z
-x,-y,-z
x,1/2+y,-z
-x,y,z
x,1/2-y,z
1/2+x,1/2+y,1/2+z
1/2-x,-y,1/2+z
1/2+x,1/2-y,1/2-z
1/2-x,y,1/2-z
1/2-x,1/2-y,1/2-z
1/2+x,y,1/2-z
1/2-x,1/2+y,1/2+z
1/2+x,-y,1/2+z
loop_
_atom_site_type_symbol
_atom_site_label
_atom_site_fract_x
_atom_site_fract_y
_atom_site_fract_z
Si Si1 0.056464 0.750000 0.610280
Si Si2 0.057071 0.750000 0.388252
Si Si3 0.386243 0.600707 0.585549
Si Si4 0.500000 0.894407 0.578587
Si Si5 0.190537 0.599878 0.746562
Si Si6 0.383191 0.500408 0.889810
O O1 0.052758 0.750000 0.499165
O O2 0.084540 0.622846 0.646003
O O3 0.000000 0.750000 0.655796
O O4 0.087232 0.624995 0.353301
O O5 0.000000 0.750000 0.343928
O O6 0.379743 0.500000 0.500000
O O7 0.378115 0.750000 0.551671
O O8 0.444466 0.587721 0.631823
O O9 0.342121 0.565143 0.660726
O O10 0.500000 0.750000 0.534761
O O11 0.500000 0.000000 0.500000
O O12 0.184011 0.750000 0.721397
O O13 0.250000 0.561394 0.750000
O O14 0.171413 0.510981 0.660887
O O15 0.374110 0.500000 0.000000
#
# Coordination Sequence:
#
# PCOD8299072 Si02
#       6
#     8   8  16   8  16  16
#     4   9  16  30  53  80 105 147 186 218 258 322
#     4   9  18  32  51  78 117 145 172 216 272 322
#     4   9  18  35  58  81 107 138 175 223 275 326
#     4   8  14  28  52  80 105 130 166 216 271 324
#     4  10  21  38  57  79 108 143 189 234 270 317
#     4  10  19  34  55  79 111 146 184 222 268 327
#
# _framework density 18.755244999999999
#
# number of rings (size 3 to 8) (size 9 to 14) (size 15 to 20)
#    0.000    2.667    1.111    0.667    0.000    3.556 
#    6.000    0.556    0.000    0.000    0.000    0.000 
#    0.000    0.000    0.000    0.000    0.000    0.000 
#
# Total GULP energy -445998.597405 kJ/mol
# GULP energy per Si atom -12388.849928 kJ/mol
# Density = 1.871256 g / cm^3
# Si number density = 18.755245 Si / 1000 Ang^3
#
#
#
# Elastic Constant Matrix: (Units=GPa)
#
#
# Indices 1 2 3 4 5 6 
#
# 1 190.4991 68.8003 64.7611 0.0000 0.0000 0.0000
# 2 68.8003 123.9893 36.8907 0.0000 0.0000 0.0000
# 3 64.7611 36.8907 55.7288 0.0000 0.0000 0.0000
# 4 0.0000 0.0000 0.0000 9.4446 0.0000 0.0000
# 5 0.0000 0.0000 0.0000 0.0000 30.4436 0.0000
# 6 0.0000 0.0000 0.0000 0.0000 0.0000 29.2259
#
#
#
# Elastic Compliance Matrix: (Units=1/GPa)
#
#
# Indices 1 2 3 4 5 6 
#
# 1 0.009218 -0.002401 -0.009122 0.000000 0.000000 0.000000
# 2 -0.002401 0.010668 -0.004273 0.000000 0.000000 0.000000
# 3 -0.009122 -0.004273 0.031373 0.000000 0.000000 0.000000
# 4 0.000000 0.000000 0.000000 0.105881 0.000000 0.000000
# 5 0.000000 0.000000 0.000000 0.000000 0.032848 0.000000
# 6 0.000000 0.000000 0.000000 0.000000 0.000000 0.034216
#
#
# Mechanical properties :
#
#
# Convention : Reuss Voigt Hill
#
# Bulk Modulus (GPa) = 50.84338 79.01349 64.92843
# Shear Modulus (GPa) = 19.05844 27.14048 23.09946
#
# Velocity S-wave (km/s) = 3.19119 3.80819 3.51326
# Velocity P-wave (km/s) = 6.38326 7.84580 7.15201
#
# Compressibility (1/GPa) = 0.01966825
#
# Stress axis : x y z
#
# Youngs Moduli (GPa) = 108.48872 93.73426 31.87420
#
# Poissons Ratio (x) = 0.22501 0.29077
# Poissons Ratio (y) = 0.26043 0.13619
# Poissons Ratio (z) = 0.98968 0.40049
#
# Static dielectric constant tensor:
#      x y z
#    x 3.759230 0.000000 0.000000 
#    y 0.000000 3.549780 0.000000 
#    z 0.000000 0.000000 3.014710 
# 
# 
# High freq. dielectric constant tensor:
#      x y z
#    x 1.737710 0.000000 0.000000 
#    y 0.000000 1.731380 0.000000 
#    z 0.000000 0.000000 1.691940 
# 
# From -- ./inp_files/29237.got.cif
#   From: 2010.03.12/outbox.cif.g09.slc.cpg/sg74_15_cif.got.tgz:29237.got - 2010.04.16 15:46:19.
