data_PCOD8299306
_publ_section_title
;
Structure prediction by ZEFSAII (Michael W. Deem and Ramdas Pophale) SiO2 
 PCOD8299306
Probable space group: I M M A
;
_chemical_formula_sum "Si O2"
_cell_formula_units_Z 60
_cell_length_a 15.479128
_cell_length_b 24.821807
_cell_length_c 8.452463
_cell_angle_alpha 90.000000
_cell_angle_beta 90.000000
_cell_angle_gamma 90.000000
_cell_volume 3247.604723
_symmetry_space_group_name_H-M "I M M A"
_symmetry_group_IT_number 74
_symmetry_cell_setting 'orthorhombic'
loop_
_space_group_symop_operation_xyz
x,y,z
-x,1/2-y,z
x,-y,-z
-x,1/2+y,-z
-x,-y,-z
x,1/2+y,-z
-x,y,z
x,1/2-y,z
1/2+x,1/2+y,1/2+z
1/2-x,-y,1/2+z
1/2+x,1/2-y,1/2-z
1/2-x,y,1/2-z
1/2-x,1/2-y,1/2-z
1/2+x,y,1/2-z
1/2-x,1/2+y,1/2+z
1/2+x,-y,1/2+z
loop_
_atom_site_type_symbol
_atom_site_label
_atom_site_fract_x
_atom_site_fract_y
_atom_site_fract_z
Si Si1 0.000000 0.338372 0.375780
Si Si2 0.000000 0.461197 0.354939
Si Si3 0.163340 0.662019 0.841699
Si Si4 0.666452 0.462036 0.350168
Si Si5 0.403424 0.750000 0.444616
Si Si6 0.000000 0.750000 0.360287
O O1 0.085020 0.325302 0.276046
O O2 0.000000 0.400889 0.423383
O O3 0.000000 0.303596 0.534929
O O4 0.000000 0.500000 0.500000
O O5 0.917051 0.474404 0.251821
O O6 0.250000 0.678821 0.750000
O O7 0.167465 0.600523 0.900939
O O8 0.149834 0.697559 0.998909
O O9 0.664340 0.500000 0.500000
O O10 0.750000 0.477229 0.250000
O O11 0.500000 0.750000 0.521131
O O12 0.414282 0.750000 0.252969
#
# Coordination Sequence:
#
# PCOD8299306 Si02
#       6
#     8   8  16  16   8   4
#     4  10  19  37  54  77 112 142 186 229 276 335
#     4  10  21  34  55  82 109 149 191 228 279 340
#     4  10  20  37  61  82 105 152 194 226 271 343
#     4  10  21  37  58  84 116 148 189 234 286 336
#     4  10  20  36  57  80 112 142 187 231 286 317
#     4  10  22  34  56  80 110 152 170 234 302 308
#
# _framework density 18.475155999999998
#
# number of rings (size 3 to 8) (size 9 to 14) (size 15 to 20)
#    0.400    1.600    1.333    2.400    0.000    2.133 
#    0.000    2.667    0.000    0.000    0.000    0.000 
#    0.000    0.000    0.000    0.000    0.000    0.000 
#
# Total GULP energy -371986.923669 kJ/mol
# GULP energy per Si atom -12399.564122 kJ/mol
# Density = 1.843311 g / cm^3
# Si number density = 18.475156 Si / 1000 Ang^3
#
#
#
# Elastic Constant Matrix: (Units=GPa)
#
#
# Indices 1 2 3 4 5 6 
#
# 1 148.0725 52.1135 60.6187 0.0004 0.0001 0.0001
# 2 52.1135 125.8252 99.1739 0.0001 0.0001 0.0001
# 3 60.6187 99.1739 141.7415 0.0027 0.0013 0.0008
# 4 0.0004 0.0001 0.0027 46.1849 0.0003 0.0002
# 5 0.0001 0.0001 0.0013 0.0003 15.0560 -0.0002
# 6 0.0001 0.0001 0.0008 0.0002 -0.0002 22.0976
#
#
#
# Elastic Compliance Matrix: (Units=1/GPa)
#
#
# Indices 1 2 3 4 5 6 
#
# 1 0.008300 -0.001427 -0.002552 0.000000 0.000000 0.000000
# 2 -0.001427 0.017965 -0.011959 0.000001 0.000001 0.000000
# 3 -0.002552 -0.011959 0.016514 -0.000001 -0.000001 -0.000001
# 4 0.000000 0.000001 -0.000001 0.021652 0.000000 0.000000
# 5 0.000000 0.000001 -0.000001 0.000000 0.066419 0.000001
# 6 0.000000 0.000000 -0.000001 0.000000 0.000001 0.045254
#
#
# Mechanical properties :
#
#
# Convention : Reuss Voigt Hill
#
# Bulk Modulus (GPa) = 91.71170 93.27240 92.49205
# Shear Modulus (GPa) = 23.62800 30.24991 26.93895
#
# Velocity S-wave (km/s) = 3.58006 4.05078 3.82267
# Velocity P-wave (km/s) = 8.17542 8.51313 8.34598
#
# Compressibility (1/GPa) = 0.01090373
#
# Stress axis : x y z
#
# Youngs Moduli (GPa) = 120.48053 55.66477 60.55413
#
# Poissons Ratio (x) = 0.07941 0.15451
# Poissons Ratio (y) = 0.17187 0.72419
# Poissons Ratio (z) = 0.30741 0.66572
#
# Static dielectric constant tensor:
#      x y z
#    x 3.627260 0.000000 0.000000 
#    y 0.000000 3.588460 0.000000 
#    z 0.000000 0.000000 3.119670 
# 
# 
# High freq. dielectric constant tensor:
#      x y z
#    x 1.731150 0.000000 0.000000 
#    y 0.000000 1.727360 0.000000 
#    z 0.000000 0.000000 1.699520 
# 
# From -- ./inp_files/8750.got.cif
#   From: 2010.03.12/outbox.cif.g09.slc.cpg/sg74_5_cif.got.tgz:8750.got - 2010.04.16 15:46:19.
