data_PCOD8299186
_publ_section_title
;
Structure prediction by ZEFSAII (Michael W. Deem and Ramdas Pophale) SiO2 
 PCOD8299186
Probable space group: I M M A
;
_chemical_formula_sum "Si O2"
_cell_formula_units_Z 104
_cell_length_a 12.402113
_cell_length_b 30.286457
_cell_length_c 15.964779
_cell_angle_alpha 90.000000
_cell_angle_beta 90.000000
_cell_angle_gamma 90.000000
_cell_volume 5996.627420
_symmetry_space_group_name_H-M "I M M A"
_symmetry_group_IT_number 74
_symmetry_cell_setting 'orthorhombic'
loop_
_space_group_symop_operation_xyz
x,y,z
-x,1/2-y,z
x,-y,-z
-x,1/2+y,-z
-x,-y,-z
x,1/2+y,-z
-x,y,z
x,1/2-y,z
1/2+x,1/2+y,1/2+z
1/2-x,-y,1/2+z
1/2+x,1/2-y,1/2-z
1/2-x,y,1/2-z
1/2-x,1/2-y,1/2-z
1/2+x,y,1/2-z
1/2-x,1/2+y,1/2+z
1/2+x,-y,1/2+z
loop_
_atom_site_type_symbol
_atom_site_label
_atom_site_fract_x
_atom_site_fract_y
_atom_site_fract_z
Si Si1 0.211691 0.573161 0.663256
Si Si2 0.250000 0.652548 0.250000
Si Si3 0.623485 0.904954 0.375926
Si Si4 0.500000 0.063780 0.946362
Si Si5 0.500000 0.974189 0.869121
Si Si6 0.305339 0.879379 0.005859
Si Si7 0.123386 0.503871 0.905175
Si Si8 0.626358 0.800468 0.102812
O O1 0.250000 0.596184 0.750000
O O2 0.104317 0.544273 0.678735
O O3 0.190198 0.610555 0.593203
O O4 0.306190 0.540264 0.639233
O O5 0.336424 0.621391 0.295258
O O6 0.312083 0.683529 0.185331
O O7 0.500000 0.892725 0.393924
O O8 0.687640 0.891049 0.459526
O O9 0.636818 0.957080 0.358676
O O10 0.500000 0.027810 0.871108
O O11 0.500000 0.040772 0.035647
O O12 0.392218 0.092974 0.939322
O O13 0.333910 0.828096 0.021527
O O14 0.000000 0.520044 0.904240
O O15 0.166107 0.500000 0.000000
O O16 0.500000 0.806556 0.117895
O O17 0.656815 0.750000 0.084525
#
# Coordination Sequence:
#
# PCOD8299186 Si02
#       8
#    16   8  16   8   8  16  16  16
#     4  11  23  35  51  75 109 141 187 228 279 308
#     4  10  21  34  54  82 116 144 176 220 267 322
#     4  10  20  34  51  75 105 147 187 216 259 309
#     4   9  16  32  55  72 100 136 180 216 264 311
#     4   9  20  32  50  74  99 142 179 222 263 318
#     4  10  19  35  56  77 101 140 179 224 265 329
#     4  10  20  35  52  70 101 146 189 226 255 305
#     4  10  20  36  58  83 109 138 174 222 277 333
#
# _framework density 17.343083
#
# number of rings (size 3 to 8) (size 9 to 14) (size 15 to 20)
#    0.000    2.000    2.308    1.615    4.308    0.000 
#    0.000    0.000    0.000    4.615    0.000    0.000 
#    0.000    0.000    0.000    0.000    0.000    0.000 
#
# Total GULP energy -644824.467529 kJ/mol
# GULP energy per Si atom -12400.470529 kJ/mol
# Density = 1.730361 g / cm^3
# Si number density = 17.343083 Si / 1000 Ang^3
#
#
#
# Elastic Constant Matrix: (Units=GPa)
#
#
# Indices 1 2 3 4 5 6 
#
# 1 102.2950 46.1668 42.7737 0.0000 0.0000 0.0000
# 2 46.1668 109.5077 53.5760 0.0000 0.0000 0.0000
# 3 42.7737 53.5760 95.8869 0.0001 0.0001 0.0001
# 4 0.0000 0.0000 0.0001 21.8754 -0.0001 0.0000
# 5 0.0000 0.0000 0.0001 -0.0001 22.1496 0.0000
# 6 0.0000 0.0000 0.0001 0.0000 0.0000 20.0230
#
#
#
# Elastic Compliance Matrix: (Units=1/GPa)
#
#
# Indices 1 2 3 4 5 6 
#
# 1 0.012990 -0.003635 -0.003764 0.000000 0.000000 0.000000
# 2 -0.003635 0.013584 -0.005969 0.000000 0.000000 0.000000
# 3 -0.003764 -0.005969 0.015443 0.000000 0.000000 0.000000
# 4 0.000000 0.000000 0.000000 0.045714 0.000000 0.000000
# 5 0.000000 0.000000 0.000000 0.000000 0.045148 0.000000
# 6 0.000000 0.000000 0.000000 0.000000 0.000000 0.049943
#
#
# Mechanical properties :
#
#
# Convention : Reuss Voigt Hill
#
# Bulk Modulus (GPa) = 65.43401 65.85807 65.64604
# Shear Modulus (GPa) = 23.29381 23.82112 23.55746
#
# Velocity S-wave (km/s) = 3.66883 3.71013 3.68954
# Velocity P-wave (km/s) = 7.46714 7.51063 7.48892
#
# Compressibility (1/GPa) = 0.01528257
#
# Stress axis : x y z
#
# Youngs Moduli (GPa) = 76.98305 73.61409 64.75545
#
# Poissons Ratio (x) = 0.26759 0.24371
# Poissons Ratio (y) = 0.27984 0.38650
# Poissons Ratio (z) = 0.28973 0.43937
#
# Static dielectric constant tensor:
#      x y z
#    x 3.429220 0.000000 0.000000 
#    y 0.000000 3.176210 0.000000 
#    z 0.000000 0.000000 3.223000 
# 
# 
# High freq. dielectric constant tensor:
#      x y z
#    x 1.688510 0.000000 0.000000 
#    y 0.000000 1.643670 0.000000 
#    z 0.000000 0.000000 1.654500 
# 
# From -- ./inp_files/41838.got.cif
#   From: 2010.03.12/outbox.cif.g09.slc.cpg/sg74_21_cif.got.tgz:41838.got - 2010.04.16 15:46:19.
