data_PCOD8299396
_publ_section_title
;
Structure prediction by ZEFSAII (Michael W. Deem and Ramdas Pophale) SiO2 
 PCOD8299396
Probable space group: I M M A
;
_chemical_formula_sum "Si O2"
_cell_formula_units_Z 88
_cell_length_a 16.451727
_cell_length_b 12.451863
_cell_length_c 25.537004
_cell_angle_alpha 90.000000
_cell_angle_beta 90.000000
_cell_angle_gamma 90.000000
_cell_volume 5231.374035
_symmetry_space_group_name_H-M "I M M A"
_symmetry_group_IT_number 74
_symmetry_cell_setting 'orthorhombic'
loop_
_space_group_symop_operation_xyz
x,y,z
-x,1/2-y,z
x,-y,-z
-x,1/2+y,-z
-x,-y,-z
x,1/2+y,-z
-x,y,z
x,1/2-y,z
1/2+x,1/2+y,1/2+z
1/2-x,-y,1/2+z
1/2+x,1/2-y,1/2-z
1/2-x,y,1/2-z
1/2-x,1/2-y,1/2-z
1/2+x,y,1/2-z
1/2-x,1/2+y,1/2+z
1/2+x,-y,1/2+z
loop_
_atom_site_type_symbol
_atom_site_label
_atom_site_fract_x
_atom_site_fract_y
_atom_site_fract_z
Si Si1 0.187936 0.956362 0.054945
Si Si2 0.662961 0.250000 0.688455
Si Si3 0.259146 0.633874 0.689104
Si Si4 0.211214 0.916598 0.348221
Si Si5 0.906865 0.250000 0.924421
Si Si6 0.404819 0.250000 0.805385
Si Si7 0.092674 0.127104 0.121439
O O1 0.264375 0.918703 0.090521
O O2 0.131177 0.853492 0.047806
O O3 0.133418 0.051577 0.078475
O O4 0.222473 0.000000 0.000000
O O5 0.718538 0.356607 0.685311
O O6 0.602367 0.250000 0.638943
O O7 0.617381 0.250000 0.743830
O O8 0.231840 0.750000 0.665431
O O9 0.250000 0.637418 0.750000
O O10 0.201069 0.540167 0.668284
O O11 0.353815 0.612999 0.674227
O O12 0.127780 0.854798 0.336369
O O13 0.000000 0.250000 0.939116
O O14 0.500000 0.250000 0.811186
O O15 0.094316 0.250000 0.101331
O O16 0.000000 0.090595 0.133287
#
# Coordination Sequence:
#
# PCOD8299396 Si02
#       7
#    16   8  16  16   8   8  16
#     4  10  21  34  49  68  94 134 175 202 242 291
#     4   9  17  31  52  76 107 140 159 185 246 313
#     4   9  16  28  47  67  93 134 175 200 230 280
#     4   9  18  34  50  71 103 131 162 205 242 294
#     4  10  20  31  44  70 108 138 168 206 238 283
#     4  11  20  32  57  84 103 124 157 207 266 316
#     4   9  18  31  46  68  99 130 164 206 242 278
#
# _framework density 16.821584999999999
#
# number of rings (size 3 to 8) (size 9 to 14) (size 15 to 20)
#    0.000    2.545    0.000    3.545    1.273    1.455 
#    0.000    7.273    0.000    2.182    0.000    0.000 
#    0.000    0.000    0.000    0.000    0.000    0.000 
#
# Total GULP energy -545276.077724 kJ/mol
# GULP energy per Si atom -12392.638130 kJ/mol
# Density = 1.678330 g / cm^3
# Si number density = 16.821585 Si / 1000 Ang^3
#
#
#
# Elastic Constant Matrix: (Units=GPa)
#
#
# Indices 1 2 3 4 5 6 
#
# 1 90.4832 43.1533 47.5426 0.0000 0.0000 0.0000
# 2 43.1533 114.3381 46.1665 0.0000 0.0000 0.0000
# 3 47.5426 46.1665 96.5191 0.0000 0.0000 0.0000
# 4 0.0000 0.0000 0.0000 23.4810 0.0000 0.0000
# 5 0.0000 0.0000 0.0000 0.0000 12.1372 0.0000
# 6 0.0000 0.0000 0.0000 0.0000 0.0000 17.1397
#
#
#
# Elastic Compliance Matrix: (Units=1/GPa)
#
#
# Indices 1 2 3 4 5 6 
#
# 1 0.015988 -0.003537 -0.006183 0.000000 0.000000 0.000000
# 2 -0.003537 0.011622 -0.003817 0.000000 0.000000 0.000000
# 3 -0.006183 -0.003817 0.015232 0.000000 0.000000 0.000000
# 4 0.000000 0.000000 0.000000 0.042588 0.000000 0.000000
# 5 0.000000 0.000000 0.000000 0.000000 0.082392 0.000000
# 6 0.000000 0.000000 0.000000 0.000000 0.000000 0.058344
#
#
# Mechanical properties :
#
#
# Convention : Reuss Voigt Hill
#
# Bulk Modulus (GPa) = 63.42225 63.89614 63.65919
# Shear Modulus (GPa) = 19.34275 21.51677 20.42976
#
# Velocity S-wave (km/s) = 3.39466 3.58035 3.48874
# Velocity P-wave (km/s) = 7.29039 7.42691 7.35896
#
# Compressibility (1/GPa) = 0.01576734
#
# Stress axis : x y z
#
# Youngs Moduli (GPa) = 62.54841 86.04277 65.65240
#
# Poissons Ratio (x) = 0.30438 0.40593
# Poissons Ratio (y) = 0.22126 0.25057
# Poissons Ratio (z) = 0.38674 0.32839
#
# Static dielectric constant tensor:
#      x y z
#    x 2.922410 0.000000 0.000000 
#    y 0.000000 4.347810 0.000000 
#    z 0.000000 0.000000 3.055790 
# 
# 
# High freq. dielectric constant tensor:
#      x y z
#    x 1.607450 0.000000 0.000000 
#    y 0.000000 1.674670 0.000000 
#    z 0.000000 0.000000 1.635060 
# 
# From -- ./inp_files/67017.got.cif
#   From: 2010.03.12/outbox.cif.g09.slc.cpg/sg74_34_cif.got.tgz:67017.got - 2010.04.16 15:46:19.
