data_PCOD8299168
_publ_section_title
;
Structure prediction by ZEFSAII (Michael W. Deem and Ramdas Pophale) SiO2 
 PCOD8299168
Probable space group: I M M A
;
_chemical_formula_sum "Si O2"
_cell_formula_units_Z 104
_cell_length_a 22.567282
_cell_length_b 14.292228
_cell_length_c 17.470415
_cell_angle_alpha 90.000000
_cell_angle_beta 90.000000
_cell_angle_gamma 90.000000
_cell_volume 5634.850695
_symmetry_space_group_name_H-M "I M M A"
_symmetry_group_IT_number 74
_symmetry_cell_setting 'orthorhombic'
loop_
_space_group_symop_operation_xyz
x,y,z
-x,1/2-y,z
x,-y,-z
-x,1/2+y,-z
-x,-y,-z
x,1/2+y,-z
-x,y,z
x,1/2-y,z
1/2+x,1/2+y,1/2+z
1/2-x,-y,1/2+z
1/2+x,1/2-y,1/2-z
1/2-x,y,1/2-z
1/2-x,1/2-y,1/2-z
1/2+x,y,1/2-z
1/2-x,1/2+y,1/2+z
1/2+x,-y,1/2+z
loop_
_atom_site_type_symbol
_atom_site_label
_atom_site_fract_x
_atom_site_fract_y
_atom_site_fract_z
Si Si1 0.857568 0.750000 0.569396
Si Si2 0.067914 0.750000 0.417149
Si Si3 0.830744 0.503252 0.911267
Si Si4 0.569071 0.250000 0.218824
Si Si5 0.801789 0.853894 0.200657
Si Si6 0.200921 0.449994 0.418822
Si Si7 0.886626 0.920734 0.319758
Si Si8 0.432487 0.561108 0.703395
O O1 0.889175 0.750000 0.488477
O O2 0.906074 0.750000 0.634369
O O3 0.819113 0.843200 0.577253
O O4 0.078925 0.651961 0.373415
O O5 0.000000 0.750000 0.443492
O O6 0.815446 0.399757 0.880935
O O7 0.770095 0.559951 0.894578
O O8 0.887393 0.540492 0.865406
O O9 0.848226 0.500000 0.000000
O O10 0.500000 0.250000 0.206736
O O11 0.589902 0.160364 0.266009
O O12 0.781267 0.750000 0.179647
O O13 0.750000 0.904744 0.250000
O O14 0.858344 0.854990 0.255185
O O15 0.196698 0.500000 0.500000
O O16 0.161492 0.513617 0.362259
O O17 0.931305 0.988696 0.274318
O O18 0.500000 0.564097 0.671833
#
# Coordination Sequence:
#
# PCOD8299168 Si02
#       8
#     8   8  16   8  16  16  16  16
#     4  12  23  39  60  86 125 172 204 250 297 368
#     4  12  25  38  58  91 126 168 208 248 300 358
#     4  10  23  41  60  91 126 153 194 259 307 370
#     4  10  21  39  59  85 118 158 213 248 287 359
#     4  10  19  34  62  89 115 158 200 244 305 364
#     4  11  22  39  58  89 125 158 201 251 312 353
#     4  11  20  38  60  88 122 154 204 255 298 358
#     4  10  22  40  64  86 116 162 205 252 303 361
#
# _framework density 18.456567
#
# number of rings (size 3 to 8) (size 9 to 14) (size 15 to 20)
#    0.000    1.385    5.385    0.692    0.000    0.923 
#    6.923    1.538    0.000    0.000    0.000    0.000 
#    0.000    0.000    0.000    0.000    0.000    0.000 
#
# Total GULP energy -644392.174850 kJ/mol
# GULP energy per Si atom -12392.157209 kJ/mol
# Density = 1.841456 g / cm^3
# Si number density = 18.456567 Si / 1000 Ang^3
#
#
#
# Elastic Constant Matrix: (Units=GPa)
#
#
# Indices 1 2 3 4 5 6 
#
# 1 46.8535 22.7622 30.2140 0.0000 0.0000 0.0000
# 2 22.7622 120.6922 46.4809 0.0000 0.0000 0.0000
# 3 30.2140 46.4809 109.4425 0.0000 0.0000 0.0000
# 4 0.0000 0.0000 0.0000 13.7844 0.0000 0.0000
# 5 0.0000 0.0000 0.0000 0.0000 35.5656 0.0000
# 6 0.0000 0.0000 0.0000 0.0000 0.0000 23.1575
#
#
#
# Elastic Compliance Matrix: (Units=1/GPa)
#
#
# Indices 1 2 3 4 5 6 
#
# 1 0.026641 -0.002621 -0.006242 0.000000 0.000000 0.000000
# 2 -0.002621 0.010164 -0.003593 0.000000 0.000000 0.000000
# 3 -0.006242 -0.003593 0.012386 0.000000 0.000000 0.000000
# 4 0.000000 0.000000 0.000000 0.072546 0.000000 0.000000
# 5 0.000000 0.000000 0.000000 0.000000 0.028117 0.000000
# 6 0.000000 0.000000 0.000000 0.000000 0.000000 0.043183
#
#
# Mechanical properties :
#
#
# Convention : Reuss Voigt Hill
#
# Bulk Modulus (GPa) = 41.18578 52.87802 47.03190
# Shear Modulus (GPa) = 22.11984 26.33691 24.22838
#
# Velocity S-wave (km/s) = 3.46566 3.78162 3.62708
# Velocity P-wave (km/s) = 6.19499 6.91229 6.56344
#
# Compressibility (1/GPa) = 0.02428023
#
# Stress axis : x y z
#
# Youngs Moduli (GPa) = 37.53545 98.39106 80.73348
#
# Poissons Ratio (x) = 0.25784 0.50394
# Poissons Ratio (y) = 0.09837 0.29008
# Poissons Ratio (z) = 0.23430 0.35352
#
# Static dielectric constant tensor:
#      x y z
#    x 3.412400 0.000000 0.000000 
#    y 0.000000 3.632630 0.000000 
#    z 0.000000 0.000000 3.385590 
# 
# 
# High freq. dielectric constant tensor:
#      x y z
#    x 1.719130 0.000000 0.000000 
#    y 0.000000 1.722030 0.000000 
#    z 0.000000 0.000000 1.714840 
# 
# From -- ./inp_files/46145.got.cif
#   From: 2010.03.12/outbox.cif.g09.slc.cpg/sg74_24_cif.got.tgz:46145.got - 2010.04.16 15:46:19.
