data_PCOD8299695
_publ_section_title
;
Structure prediction by ZEFSAII (Michael W. Deem and Ramdas Pophale) SiO2 
 PCOD8299695
Probable space group: I M M A
;
_chemical_formula_sum "Si O2"
_cell_formula_units_Z 104
_cell_length_a 9.077260
_cell_length_b 31.030445
_cell_length_c 19.503341
_cell_angle_alpha 90.000000
_cell_angle_beta 90.000000
_cell_angle_gamma 90.000000
_cell_volume 5493.533699
_symmetry_space_group_name_H-M "I M M A"
_symmetry_group_IT_number 74
_symmetry_cell_setting 'orthorhombic'
loop_
_space_group_symop_operation_xyz
x,y,z
-x,1/2-y,z
x,-y,-z
-x,1/2+y,-z
-x,-y,-z
x,1/2+y,-z
-x,y,z
x,1/2-y,z
1/2+x,1/2+y,1/2+z
1/2-x,-y,1/2+z
1/2+x,1/2-y,1/2-z
1/2-x,y,1/2-z
1/2-x,1/2-y,1/2-z
1/2+x,y,1/2-z
1/2-x,1/2+y,1/2+z
1/2+x,-y,1/2+z
loop_
_atom_site_type_symbol
_atom_site_label
_atom_site_fract_x
_atom_site_fract_y
_atom_site_fract_z
Si Si1 0.331856 0.750000 0.680294
Si Si2 0.674853 0.376129 0.461573
Si Si3 0.826519 0.541768 0.044451
Si Si4 0.329481 0.201476 0.553629
Si Si5 0.828060 0.334000 0.680773
Si Si6 0.326737 0.566114 0.179283
Si Si7 0.672162 0.343699 0.322116
O O1 0.500000 0.750000 0.700357
O O2 0.250000 0.750000 0.750000
O O3 0.294180 0.795821 0.644766
O O4 0.500000 0.377042 0.461453
O O5 0.736066 0.417750 0.501088
O O6 0.730669 0.332581 0.498225
O O7 0.728724 0.376019 0.381911
O O8 0.742263 0.538843 0.116811
O O9 0.000000 0.546098 0.059359
O O10 0.789595 0.500000 0.000000
O O11 0.500000 0.192348 0.571198
O O12 0.308776 0.250000 0.524702
O O13 0.234878 0.196275 0.621887
O O14 0.750000 0.319274 0.750000
O O15 0.792330 0.383861 0.664557
O O16 0.000000 0.325904 0.688852
O O17 0.500000 0.556806 0.184853
O O18 0.250000 0.551319 0.250000
O O19 0.500000 0.349680 0.307994
O O20 0.750000 0.353224 0.250000
#
# Coordination Sequence:
#
# PCOD8299695 Si02
#       7
#     8  16  16  16  16  16  16
#     4   8  14  24  42  66  92 122 161 202 241 292
#     4   9  18  33  53  76 105 137 174 220 265 318
#     4  10  20  36  59  84 110 143 179 220 273 329
#     4  10  20  33  52  77 105 141 183 224 269 321
#     4  10  20  34  54  78 107 144 182 224 270 318
#     4  10  20  35  58  85 112 144 183 226 272 324
#     4   9  17  30  48  70  97 130 167 207 252 301
#
# _framework density 18.931348
#
# number of rings (size 3 to 8) (size 9 to 14) (size 15 to 20)
#    0.000    2.462    1.538    0.923    1.077    2.154 
#    0.000    2.308    0.000    1.846    0.000    0.000 
#    0.000    0.000    0.000    0.000    0.000    0.000 
#
# Total GULP energy -644475.850086 kJ/mol
# GULP energy per Si atom -12393.766348 kJ/mol
# Density = 1.888826 g / cm^3
# Si number density = 18.931348 Si / 1000 Ang^3
#
#
#
# Elastic Constant Matrix: (Units=GPa)
#
#
# Indices 1 2 3 4 5 6 
#
# 1 57.0843 32.3091 45.9444 0.0001 0.0000 0.0000
# 2 32.3091 92.4773 64.6069 -0.0001 0.0000 0.0000
# 3 45.9444 64.6069 150.4410 0.0001 0.0000 0.0001
# 4 0.0001 -0.0001 0.0001 28.6068 0.0000 0.0000
# 5 0.0000 0.0000 0.0000 0.0000 29.7079 0.0000
# 6 0.0000 0.0000 0.0001 0.0000 0.0000 15.1271
#
#
#
# Elastic Compliance Matrix: (Units=1/GPa)
#
#
# Indices 1 2 3 4 5 6 
#
# 1 0.024625 -0.004785 -0.005466 0.000000 0.000000 0.000000
# 2 -0.004785 0.016378 -0.005572 0.000000 0.000000 0.000000
# 3 -0.005466 -0.005572 0.010709 0.000000 0.000000 0.000000
# 4 0.000000 0.000000 0.000000 0.034957 0.000000 0.000000
# 5 0.000000 0.000000 0.000000 0.000000 0.033661 0.000000
# 6 0.000000 0.000000 0.000000 0.000000 0.000000 0.066106
#
#
# Mechanical properties :
#
#
# Convention : Reuss Voigt Hill
#
# Bulk Modulus (GPa) = 49.83318 65.08042 57.45680
# Shear Modulus (GPa) = 22.24482 25.16451 23.70466
#
# Velocity S-wave (km/s) = 3.43158 3.64984 3.54240
# Velocity P-wave (km/s) = 6.48701 7.22589 6.86640
#
# Compressibility (1/GPa) = 0.02006695
#
# Stress axis : x y z
#
# Youngs Moduli (GPa) = 40.60883 61.05699 93.37671
#
# Poissons Ratio (x) = 0.29216 0.51036
# Poissons Ratio (y) = 0.19431 0.52032
# Poissons Ratio (z) = 0.22195 0.34023
#
# Static dielectric constant tensor:
#      x y z
#    x 3.233350 0.000000 0.000000 
#    y 0.000000 3.432350 0.000000 
#    z 0.000000 0.000000 3.509830 
# 
# 
# High freq. dielectric constant tensor:
#      x y z
#    x 1.714040 0.000000 0.000000 
#    y 0.000000 1.718570 0.000000 
#    z 0.000000 0.000000 1.741490 
# 
# From -- ./inp_files/49599.got.cif
#   From: 2010.03.12/outbox.cif.g09.slc.cpg/sg74_25_cif.got.tgz:49599.got - 2010.04.16 15:46:19.
