data_PCOD8299550
_publ_section_title
;
Structure prediction by ZEFSAII (Michael W. Deem and Ramdas Pophale) SiO2 
 PCOD8299550
Probable space group: I M M A
;
_chemical_formula_sum "Si O2"
_cell_formula_units_Z 88
_cell_length_a 9.656904
_cell_length_b 23.272315
_cell_length_c 21.567099
_cell_angle_alpha 90.000000
_cell_angle_beta 90.000000
_cell_angle_gamma 90.000000
_cell_volume 4846.957733
_symmetry_space_group_name_H-M "I M M A"
_symmetry_group_IT_number 74
_symmetry_cell_setting 'orthorhombic'
loop_
_space_group_symop_operation_xyz
x,y,z
-x,1/2-y,z
x,-y,-z
-x,1/2+y,-z
-x,-y,-z
x,1/2+y,-z
-x,y,z
x,1/2-y,z
1/2+x,1/2+y,1/2+z
1/2-x,-y,1/2+z
1/2+x,1/2-y,1/2-z
1/2-x,y,1/2-z
1/2-x,1/2-y,1/2-z
1/2+x,y,1/2-z
1/2-x,1/2+y,1/2+z
1/2+x,-y,1/2+z
loop_
_atom_site_type_symbol
_atom_site_label
_atom_site_fract_x
_atom_site_fract_y
_atom_site_fract_z
Si Si1 0.836729 0.525537 0.808807
Si Si2 0.662325 0.470845 0.563871
Si Si3 0.348984 0.250000 0.401702
Si Si4 0.347847 0.843317 0.699059
Si Si5 0.664021 0.750000 0.010816
Si Si6 0.343603 0.250000 0.689744
Si Si7 0.659988 0.337337 0.582554
O O1 0.750000 0.500383 0.750000
O O2 0.779586 0.499897 0.873507
O O3 0.802293 0.592320 0.816260
O O4 0.000000 0.512300 0.798706
O O5 0.724825 0.500000 0.500000
O O6 0.500000 0.481339 0.561174
O O7 0.697704 0.403962 0.574440
O O8 0.500000 0.250000 0.436991
O O9 0.341993 0.192102 0.363178
O O10 0.208367 0.250000 0.439938
O O11 0.500000 0.842579 0.728449
O O12 0.250000 0.814478 0.750000
O O13 0.500000 0.750000 0.020057
O O14 0.732006 0.692935 0.037848
O O15 0.500000 0.250000 0.713877
O O16 0.250000 0.250000 0.750000
O O17 0.315924 0.191321 0.650399
O O18 0.500000 0.326195 0.563031
#
# Coordination Sequence:
#
# PCOD8299550 Si02
#       7
#    16  16   8  16   8   8  16
#     4   9  18  33  52  78 108 141 180 221 269 321
#     4   9  18  32  57  85 107 139 187 235 270 318
#     4  10  20  32  51  75  98 136 181 219 260 312
#     4   9  18  31  49  73 103 136 174 216 260 309
#     4  11  23  36  52  77 106 137 172 216 273 326
#     4   9  18  32  52  80 108 139 175 219 273 330
#     4   9  19  37  57  78 107 140 179 223 268 323
#
# _framework density 18.155719000000001
#
# number of rings (size 3 to 8) (size 9 to 14) (size 15 to 20)
#    0.000    2.727    0.000    1.636    2.545    2.909 
#    0.000    0.909    0.000    1.091    0.000    0.000 
#    0.000    0.000    0.000    0.000    0.000    0.000 
#
# Total GULP energy -545090.130808 kJ/mol
# GULP energy per Si atom -12388.412064 kJ/mol
# Density = 1.811440 g / cm^3
# Si number density = 18.155719 Si / 1000 Ang^3
#
#
#
# Elastic Constant Matrix: (Units=GPa)
#
#
# Indices 1 2 3 4 5 6 
#
# 1 84.4945 42.2729 56.1780 0.0000 0.0000 0.0000
# 2 42.2729 110.1301 64.1785 0.0000 0.0000 0.0000
# 3 56.1780 64.1785 138.3793 0.0000 0.0000 0.0000
# 4 0.0000 0.0000 0.0000 15.7425 0.0000 0.0000
# 5 0.0000 0.0000 0.0000 0.0000 34.3633 0.0000
# 6 0.0000 0.0000 0.0000 0.0000 0.0000 16.2640
#
#
#
# Elastic Compliance Matrix: (Units=1/GPa)
#
#
# Indices 1 2 3 4 5 6 
#
# 1 0.017119 -0.003455 -0.005348 0.000000 0.000000 0.000000
# 2 -0.003455 0.013140 -0.004692 0.000000 0.000000 0.000000
# 3 -0.005348 -0.004692 0.011573 0.000000 0.000000 0.000000
# 4 0.000000 0.000000 0.000000 0.063522 0.000000 0.000000
# 5 0.000000 0.000000 0.000000 0.000000 0.029101 0.000000
# 6 0.000000 0.000000 0.000000 0.000000 0.000000 0.061486
#
#
# Mechanical properties :
#
#
# Convention : Reuss Voigt Hill
#
# Bulk Modulus (GPa) = 67.36446 73.14029 70.25237
# Shear Modulus (GPa) = 21.94159 24.63227 23.28693
#
# Velocity S-wave (km/s) = 3.48015 3.68737 3.58526
# Velocity P-wave (km/s) = 7.30294 7.64862 7.47777
#
# Compressibility (1/GPa) = 0.01484462
#
# Stress axis : x y z
#
# Youngs Moduli (GPa) = 58.41488 76.10101 86.40460
#
# Poissons Ratio (x) = 0.26291 0.46205
# Poissons Ratio (y) = 0.20181 0.40540
# Poissons Ratio (z) = 0.31237 0.35705
#
# Static dielectric constant tensor:
#      x y z
#    x 3.264820 0.000000 0.000000 
#    y 0.000000 3.769730 0.000000 
#    z 0.000000 0.000000 3.452740 
# 
# 
# High freq. dielectric constant tensor:
#      x y z
#    x 1.677250 0.000000 0.000000 
#    y 0.000000 1.708970 0.000000 
#    z 0.000000 0.000000 1.702640 
# 
# From -- ./inp_files/48810.got.cif
#   From: 2010.03.12/outbox.cif.g09.slc.cpg/sg74_25_cif.got.tgz:48810.got - 2010.04.16 15:46:19.
