data_PCOD8299592
_publ_section_title
;
Structure prediction by ZEFSAII (Michael W. Deem and Ramdas Pophale) SiO2 
 PCOD8299592
Probable space group: I M M A
;
_chemical_formula_sum "Si O2"
_cell_formula_units_Z 96
_cell_length_a 27.952694
_cell_length_b 10.264297
_cell_length_c 18.880355
_cell_angle_alpha 90.000000
_cell_angle_beta 90.000000
_cell_angle_gamma 90.000000
_cell_volume 5417.052395
_symmetry_space_group_name_H-M "I M M A"
_symmetry_group_IT_number 74
_symmetry_cell_setting 'orthorhombic'
loop_
_space_group_symop_operation_xyz
x,y,z
-x,1/2-y,z
x,-y,-z
-x,1/2+y,-z
-x,-y,-z
x,1/2+y,-z
-x,y,z
x,1/2-y,z
1/2+x,1/2+y,1/2+z
1/2-x,-y,1/2+z
1/2+x,1/2-y,1/2-z
1/2-x,y,1/2-z
1/2-x,1/2-y,1/2-z
1/2+x,y,1/2-z
1/2-x,1/2+y,1/2+z
1/2+x,-y,1/2+z
loop_
_atom_site_type_symbol
_atom_site_label
_atom_site_fract_x
_atom_site_fract_y
_atom_site_fract_z
Si Si1 0.316592 0.605290 0.561903
Si Si2 0.137318 0.900873 0.793490
Si Si3 0.552740 0.097363 0.198870
Si Si4 0.300471 0.891516 0.213407
Si Si5 0.889955 0.604813 0.562505
Si Si6 0.213585 0.960565 0.579848
O O1 0.322716 0.500000 0.500000
O O2 0.327526 0.750000 0.531546
O O3 0.354753 0.569492 0.623533
O O4 0.263698 0.610702 0.598392
O O5 0.149760 0.750000 0.776461
O O6 0.082736 0.933592 0.770394
O O7 0.170210 0.990574 0.745421
O O8 0.500000 0.032046 0.204722
O O9 0.546956 0.250000 0.190061
O O10 0.580137 0.046944 0.128610
O O11 0.325916 0.750000 0.222873
O O12 0.250000 0.887515 0.250000
O O13 0.292559 0.913730 0.129747
O O14 0.895757 0.500000 0.500000
O O15 0.907939 0.750000 0.539590
O O16 0.834609 0.624386 0.586031
O O17 0.221045 0.000000 0.500000
#
# Coordination Sequence:
#
# PCOD8299592 Si02
#       6
#    16  16  16  16  16  16
#     4  10  21  34  53  78 108 142 176 213 257 311
#     4  10  20  36  56  79 105 139 178 219 266 317
#     4   9  18  34  56  79 102 132 175 225 274 321
#     4  11  22  35  53  79 109 143 180 221 265 313
#     4  10  20  33  51  74 104 142 179 219 264 307
#     4  10  20  33  48  73 107 145 179 214 246 306
#
# _framework density 17.721813999999998
#
# number of rings (size 3 to 8) (size 9 to 14) (size 15 to 20)
#    0.000    2.000    3.333    0.500    0.000    7.333 
#    0.000    0.000    0.000    2.000    0.000    0.000 
#    0.000    0.000    0.000    0.000    0.000    0.000 
#
# Total GULP energy -594672.565536 kJ/mol
# GULP energy per Si atom -12389.011782 kJ/mol
# Density = 1.768148 g / cm^3
# Si number density = 17.721814 Si / 1000 Ang^3
#
#
#
# Elastic Constant Matrix: (Units=GPa)
#
#
# Indices 1 2 3 4 5 6 
#
# 1 109.2123 30.7242 61.4875 0.0000 0.0000 0.0000
# 2 30.7242 95.0218 58.2518 0.0000 0.0000 0.0000
# 3 61.4875 58.2518 117.0046 0.0000 0.0000 0.0000
# 4 0.0000 0.0000 0.0000 18.2888 0.0000 0.0000
# 5 0.0000 0.0000 0.0000 0.0000 23.9464 0.0000
# 6 0.0000 0.0000 0.0000 0.0000 0.0000 10.9733
#
#
#
# Elastic Compliance Matrix: (Units=1/GPa)
#
#
# Indices 1 2 3 4 5 6 
#
# 1 0.013004 -0.000022 -0.006823 0.000000 0.000000 0.000000
# 2 -0.000022 0.015147 -0.007529 0.000000 0.000000 0.000000
# 3 -0.006823 -0.007529 0.015881 0.000000 0.000000 0.000000
# 4 0.000000 0.000000 0.000000 0.054678 0.000000 0.000000
# 5 0.000000 0.000000 0.000000 0.000000 0.041760 0.000000
# 6 0.000000 0.000000 0.000000 0.000000 0.000000 0.091130
#
#
# Mechanical properties :
#
#
# Convention : Reuss Voigt Hill
#
# Bulk Modulus (GPa) = 65.43203 69.12954 67.28078
# Shear Modulus (GPa) = 18.83644 22.02671 20.43158
#
# Velocity S-wave (km/s) = 3.26375 3.52932 3.39913
# Velocity P-wave (km/s) = 7.15574 7.46331 7.31114
#
# Compressibility (1/GPa) = 0.01528304
#
# Stress axis : x y z
#
# Youngs Moduli (GPa) = 76.89953 66.02041 62.96944
#
# Poissons Ratio (x) = 0.00146 0.42963
# Poissons Ratio (y) = 0.00170 0.47412
# Poissons Ratio (z) = 0.52467 0.49709
#
# Static dielectric constant tensor:
#      x y z
#    x 1.694240 0.000000 0.000000 
#    y 0.000000 3.317110 0.000000 
#    z 0.000000 0.000000 3.276160 
# 
# 
# High freq. dielectric constant tensor:
#      x y z
#    x 1.665240 0.000000 0.000000 
#    y 0.000000 1.672580 0.000000 
#    z 0.000000 0.000000 1.684650 
# 
# From -- ./inp_files/46640.got.cif
#   From: 2010.03.12/outbox.cif.g09.slc.cpg/sg74_24_cif.got.tgz:46640.got - 2010.04.16 15:46:19.
