data_PCOD8299660
_publ_section_title
;
Structure prediction by ZEFSAII (Michael W. Deem and Ramdas Pophale) SiO2 
 PCOD8299660
Probable space group: I M M A
;
_chemical_formula_sum "Si O2"
_cell_formula_units_Z 104
_cell_length_a 8.871201
_cell_length_b 20.867836
_cell_length_c 28.507356
_cell_angle_alpha 90.000000
_cell_angle_beta 90.000000
_cell_angle_gamma 90.000000
_cell_volume 5277.360639
_symmetry_space_group_name_H-M "I M M A"
_symmetry_group_IT_number 74
_symmetry_cell_setting 'orthorhombic'
loop_
_space_group_symop_operation_xyz
x,y,z
-x,1/2-y,z
x,-y,-z
-x,1/2+y,-z
-x,-y,-z
x,1/2+y,-z
-x,y,z
x,1/2-y,z
1/2+x,1/2+y,1/2+z
1/2-x,-y,1/2+z
1/2+x,1/2-y,1/2-z
1/2-x,y,1/2-z
1/2-x,1/2-y,1/2-z
1/2+x,y,1/2-z
1/2-x,1/2+y,1/2+z
1/2+x,-y,1/2+z
loop_
_atom_site_type_symbol
_atom_site_label
_atom_site_fract_x
_atom_site_fract_y
_atom_site_fract_z
Si Si1 0.822628 0.820592 0.941820
Si Si2 0.820893 0.125719 0.154053
Si Si3 0.180639 0.250000 0.300752
Si Si4 0.820557 0.499213 0.300862
Si Si5 0.822368 0.323874 0.954243
Si Si6 0.336557 0.677018 0.292827
Si Si7 0.823770 0.385385 0.630589
O O1 0.754671 0.750000 0.929329
O O2 0.782827 0.873116 0.901929
O O3 0.000000 0.812303 0.945157
O O4 0.765653 0.842332 0.993287
O O5 0.743328 0.188204 0.173780
O O6 0.000000 0.126214 0.163467
O O7 0.745960 0.066171 0.179363
O O8 0.250000 0.250000 0.250000
O O9 0.000000 0.250000 0.299487
O O10 0.750000 0.514480 0.250000
O O11 0.772902 0.552218 0.339677
O O12 0.000000 0.494385 0.295816
O O13 0.774971 0.250000 0.942862
O O14 0.747386 0.377430 0.920801
O O15 0.000000 0.331038 0.948568
O O16 0.500000 0.643579 0.299642
O O17 0.363040 0.750000 0.278987
O O18 0.250000 0.641628 0.250000
O O19 0.237542 0.674593 0.339683
O O20 0.000000 0.382250 0.624719
#
# Coordination Sequence:
#
# PCOD8299660 Si02
#       7
#    16  16   8  16  16  16  16
#     4   8  15  32  59  89 118 147 184 232 283 337
#     4  11  21  38  64  90 116 150 191 237 287 341
#     4  12  24  38  58  88 124 156 188 232 285 344
#     4  11  25  43  59  80 112 152 196 240 289 345
#     4   9  18  34  59  88 117 150 190 239 288 337
#     4  10  20  33  51  76 105 137 178 231 289 346
#     4  11  23  37  54  77 110 151 193 238 286 340
#
# _framework density 19.706821000000001
#
# number of rings (size 3 to 8) (size 9 to 14) (size 15 to 20)
#    0.000    1.846    0.769    4.846    0.000    6.769 
#    0.000    2.308    0.000    4.615    0.000    0.000 
#    0.000    0.000    0.000    0.000    0.000    0.000 
#
# Total GULP energy -644378.961365 kJ/mol
# GULP energy per Si atom -12391.903103 kJ/mol
# Density = 1.966197 g / cm^3
# Si number density = 19.706821 Si / 1000 Ang^3
#
#
#
# Elastic Constant Matrix: (Units=GPa)
#
#
# Indices 1 2 3 4 5 6 
#
# 1 79.7452 54.5112 53.5223 0.0000 0.0000 0.0000
# 2 54.5112 89.3560 58.1540 0.0000 0.0000 0.0000
# 3 53.5223 58.1540 150.9944 0.0000 0.0000 0.0000
# 4 0.0000 0.0000 0.0000 27.1873 0.0000 0.0000
# 5 0.0000 0.0000 0.0000 0.0000 29.7513 0.0000
# 6 0.0000 0.0000 0.0000 0.0000 0.0000 18.7558
#
#
#
# Elastic Compliance Matrix: (Units=1/GPa)
#
#
# Indices 1 2 3 4 5 6 
#
# 1 0.022929 -0.011608 -0.003657 0.000000 0.000000 0.000000
# 2 -0.011608 0.020811 -0.003901 0.000000 0.000000 0.000000
# 3 -0.003657 -0.003901 0.009421 0.000000 0.000000 0.000000
# 4 0.000000 0.000000 0.000000 0.036782 0.000000 0.000000
# 5 0.000000 0.000000 0.000000 0.000000 0.033612 0.000000
# 6 0.000000 0.000000 0.000000 0.000000 0.000000 0.053317
#
#
# Mechanical properties :
#
#
# Convention : Reuss Voigt Hill
#
# Bulk Modulus (GPa) = 67.42752 72.49672 69.96212
# Shear Modulus (GPa) = 22.71215 25.39940 24.05578
#
# Velocity S-wave (km/s) = 3.39854 3.59397 3.49762
# Velocity P-wave (km/s) = 7.04909 7.35457 7.20345
#
# Compressibility (1/GPa) = 0.01483074
#
# Stress axis : x y z
#
# Youngs Moduli (GPa) = 43.61280 48.05148 106.14254
#
# Poissons Ratio (x) = 0.55777 0.38816
# Poissons Ratio (y) = 0.50625 0.41402
# Poissons Ratio (z) = 0.15949 0.18743
#
# Static dielectric constant tensor:
#      x y z
#    x 3.684780 0.000000 0.000000 
#    y 0.000000 3.413460 0.000000 
#    z 0.000000 0.000000 4.001690 
# 
# 
# High freq. dielectric constant tensor:
#      x y z
#    x 1.763300 0.000000 0.000000 
#    y 0.000000 1.748040 0.000000 
#    z 0.000000 0.000000 1.783510 
# 
# From -- ./inp_files/64497.got.cif
#   From: 2010.03.12/outbox.cif.g09.slc.cpg/sg74_33_cif.got.tgz:64497.got - 2010.04.16 15:46:19.
