data_PCOD8299606
_publ_section_title
;
Structure prediction by ZEFSAII (Michael W. Deem and Ramdas Pophale) SiO2 
 PCOD8299606
Probable space group: I M M A
;
_chemical_formula_sum "Si O2"
_cell_formula_units_Z 104
_cell_length_a 25.317336
_cell_length_b 9.202037
_cell_length_c 23.692938
_cell_angle_alpha 90.000000
_cell_angle_beta 90.000000
_cell_angle_gamma 90.000000
_cell_volume 5519.768942
_symmetry_space_group_name_H-M "I M M A"
_symmetry_group_IT_number 74
_symmetry_cell_setting 'orthorhombic'
loop_
_space_group_symop_operation_xyz
x,y,z
-x,1/2-y,z
x,-y,-z
-x,1/2+y,-z
-x,-y,-z
x,1/2+y,-z
-x,y,z
x,1/2-y,z
1/2+x,1/2+y,1/2+z
1/2-x,-y,1/2+z
1/2+x,1/2-y,1/2-z
1/2-x,y,1/2-z
1/2-x,1/2-y,1/2-z
1/2+x,y,1/2-z
1/2-x,1/2+y,1/2+z
1/2+x,-y,1/2+z
loop_
_atom_site_type_symbol
_atom_site_label
_atom_site_fract_x
_atom_site_fract_y
_atom_site_fract_z
Si Si1 0.940073 0.591479 0.049667
Si Si2 0.561548 0.080326 0.744839
Si Si3 0.818390 0.920588 0.557772
Si Si4 0.899665 0.581246 0.370017
Si Si5 0.500000 0.419480 0.941905
Si Si6 0.302948 0.917730 0.556530
Si Si7 0.893140 0.578435 0.857424
O O1 0.912481 0.750000 0.056538
O O2 0.939188 0.497692 0.106589
O O3 0.000000 0.618282 0.032229
O O4 0.911129 0.500000 0.000000
O O5 0.500000 0.030615 0.741120
O O6 0.565505 0.250000 0.729633
O O7 0.584749 0.047562 0.806128
O O8 0.600720 0.989027 0.704578
O O9 0.829824 0.750000 0.550830
O O10 0.757443 0.953195 0.571745
O O11 0.835946 0.000000 0.500000
O O12 0.850149 0.984379 0.610895
O O13 0.885462 0.750000 0.378238
O O14 0.948858 0.532790 0.407562
O O15 0.500000 0.250000 0.953630
O O16 0.500000 0.500000 0.000000
O O17 0.311436 0.750000 0.543196
O O18 0.338129 0.963704 0.611039
O O19 0.320593 0.000000 0.500000
O O20 0.901596 0.750000 0.854161
#
# Coordination Sequence:
#
# PCOD8299606 Si02
#       7
#    16  16  16  16   8  16  16
#     4  10  20  33  49  72 103 137 173 220 279 336
#     4  10  21  39  59  78 107 149 189 228 275 326
#     4  10  20  36  58  84 113 145 179 220 273 331
#     4  10  20  37  58  81 111 146 183 223 271 324
#     4  10  20  34  54  82 114 144 173 214 267 324
#     4   9  20  37  56  80 111 144 180 226 280 329
#     4  11  22  35  53  78 106 140 185 232 275 326
#
# _framework density 18.841367999999999
#
# number of rings (size 3 to 8) (size 9 to 14) (size 15 to 20)
#    0.000    2.000    0.769    2.769    0.000    8.615 
#    0.000    0.769    0.000    4.615    0.000    0.000 
#    0.000    0.000    0.000    0.000    0.000    0.000 
#
# Total GULP energy -644687.132920 kJ/mol
# GULP energy per Si atom -12397.829479 kJ/mol
# Density = 1.879848 g / cm^3
# Si number density = 18.841368 Si / 1000 Ang^3
#
#
#
# Elastic Constant Matrix: (Units=GPa)
#
#
# Indices 1 2 3 4 5 6 
#
# 1 104.9479 56.9258 60.6785 0.0000 0.0000 0.0000
# 2 56.9258 103.8329 74.2003 0.0000 0.0000 0.0000
# 3 60.6785 74.2003 143.7736 0.0000 0.0000 0.0000
# 4 0.0000 0.0000 0.0000 38.3071 0.0000 0.0000
# 5 0.0000 0.0000 0.0000 0.0000 -189.2367 0.0000
# 6 0.0000 0.0000 0.0000 0.0000 0.0000 25.6021
#
#
#
# Elastic Compliance Matrix: (Units=1/GPa)
#
#
# Indices 1 2 3 4 5 6 
#
# 1 0.014423 -0.005636 -0.003179 0.000000 0.000000 0.000000
# 2 -0.005636 0.017461 -0.006633 0.000000 0.000000 0.000000
# 3 -0.003179 -0.006633 0.011720 0.000000 0.000000 0.000000
# 4 0.000000 0.000000 0.000000 0.026105 0.000000 0.000000
# 5 0.000000 0.000000 0.000000 0.000000 -0.005284 0.000000
# 6 0.000000 0.000000 0.000000 0.000000 0.000000 0.039059
#
#
# Mechanical properties :
#
#
# Convention : Reuss Voigt Hill
#
# Bulk Modulus (GPa) = 78.68197 81.79595 80.23896
# Shear Modulus (GPa) = 36.07126 -14.34884 10.86121
#
# Velocity S-wave (km/s) = 4.38021 -2.76263 2.40355
# Velocity P-wave (km/s) = 8.21173 5.77330 7.09801
#
# Compressibility (1/GPa) = 0.01270939
#
# Stress axis : x y z
#
# Youngs Moduli (GPa) = 69.33144 57.27192 85.32535
#
# Poissons Ratio (x) = 0.32279 0.27121
# Poissons Ratio (y) = 0.39076 0.56592
# Poissons Ratio (z) = 0.22037 0.37986
#
# Static dielectric constant tensor:
#      x y z
#    x 3.454950 0.000000 0.000000 
#    y 0.000000 3.762950 0.000000 
#    z 0.000000 0.000000 3.410340 
# 
# 
# High freq. dielectric constant tensor:
#      x y z
#    x 1.729300 0.000000 0.000000 
#    y 0.000000 1.737970 0.000000 
#    z 0.000000 0.000000 1.726180 
# 
# From -- ./inp_files/49328.got.cif
#   From: 2010.03.12/outbox.cif.g09.slc.cpg/sg74_25_cif.got.tgz:49328.got - 2010.04.16 15:46:19.
