data_PCOD8299687
_publ_section_title
;
Structure prediction by ZEFSAII (Michael W. Deem and Ramdas Pophale) SiO2 
 PCOD8299687
Probable space group: I M M A
;
_chemical_formula_sum "Si O2"
_cell_formula_units_Z 112
_cell_length_a 25.823184
_cell_length_b 13.866891
_cell_length_c 17.252699
_cell_angle_alpha 90.000000
_cell_angle_beta 90.000000
_cell_angle_gamma 90.000000
_cell_volume 6177.972020
_symmetry_space_group_name_H-M "I M M A"
_symmetry_group_IT_number 74
_symmetry_cell_setting 'orthorhombic'
loop_
_space_group_symop_operation_xyz
x,y,z
-x,1/2-y,z
x,-y,-z
-x,1/2+y,-z
-x,-y,-z
x,1/2+y,-z
-x,y,z
x,1/2-y,z
1/2+x,1/2+y,1/2+z
1/2-x,-y,1/2+z
1/2+x,1/2-y,1/2-z
1/2-x,y,1/2-z
1/2-x,1/2-y,1/2-z
1/2+x,y,1/2-z
1/2-x,1/2+y,1/2+z
1/2+x,-y,1/2+z
loop_
_atom_site_type_symbol
_atom_site_label
_atom_site_fract_x
_atom_site_fract_y
_atom_site_fract_z
Si Si1 0.698323 0.855531 0.640976
Si Si2 0.644267 0.360922 0.200343
Si Si3 0.000000 0.637436 0.013707
Si Si4 0.291182 0.978137 0.910823
Si Si5 0.396032 0.063040 0.433741
Si Si6 0.901385 0.033567 0.774353
Si Si7 0.500000 0.863910 0.307951
Si Si8 0.695369 0.139568 0.791648
O O1 0.723994 0.750000 0.629177
O O2 0.688055 0.872425 0.732567
O O3 0.733594 0.940081 0.606995
O O4 0.643597 0.854528 0.594914
O O5 0.624522 0.250000 0.194218
O O6 0.669340 0.395537 0.119572
O O7 0.597868 0.434791 0.222675
O O8 0.000000 0.750000 0.015245
O O9 0.000000 0.598932 0.102347
O O10 0.050363 0.603608 0.967154
O O11 0.301715 0.080197 0.870811
O O12 0.300208 0.000000 0.000000
O O13 0.368148 0.000000 0.500000
O O14 0.406644 0.991315 0.363787
O O15 0.849273 0.094997 0.762152
O O16 0.951343 0.098447 0.757530
O O17 0.500000 0.750000 0.306205
O O18 0.681962 0.250000 0.811575
O O19 0.750000 0.130997 0.750000
#
# Coordination Sequence:
#
# PCOD8299687 Si02
#       8
#    16  16   8  16  16  16   8  16
#     4  10  20  33  52  76 103 141 189 233 275 323
#     4   9  19  36  57  77 104 142 183 227 281 334
#     4  11  22  34  48  71 109 155 198 233 276 313
#     4  11  21  34  53  80 109 138 174 225 281 337
#     4  11  19  32  48  68 104 146 192 236 277 306
#     4  10  20  35  55  77 106 143 190 234 276 325
#     4  11  21  35  54  80 112 153 197 231 271 325
#     4  10  21  38  56  77 107 146 185 227 279 334
#
# _framework density 18.128927000000001
#
# number of rings (size 3 to 8) (size 9 to 14) (size 15 to 20)
#    0.000    1.714    1.429    5.357    0.000    2.857 
#    0.000    1.786    0.000    0.000    0.000    8.000 
#    0.000    9.143    0.000    0.000    0.000    0.000 
#
# Total GULP energy -694087.760329 kJ/mol
# GULP energy per Si atom -12394.424292 kJ/mol
# Density = 1.808766 g / cm^3
# Si number density = 18.128927 Si / 1000 Ang^3
#
#
#
# Elastic Constant Matrix: (Units=GPa)
#
#
# Indices 1 2 3 4 5 6 
#
# 1 98.6185 51.2748 36.2483 0.0000 0.0000 0.0000
# 2 51.2748 133.8073 45.8066 0.0000 0.0000 0.0000
# 3 36.2483 45.8066 97.6700 0.0000 0.0000 0.0000
# 4 0.0000 0.0000 0.0000 20.5782 0.0000 0.0000
# 5 0.0000 0.0000 0.0000 0.0000 16.1430 0.0000
# 6 0.0000 0.0000 0.0000 0.0000 0.0000 22.6052
#
#
#
# Elastic Compliance Matrix: (Units=1/GPa)
#
#
# Indices 1 2 3 4 5 6 
#
# 1 0.013386 -0.004084 -0.003052 0.000000 0.000000 0.000000
# 2 -0.004084 0.010149 -0.003244 0.000000 0.000000 0.000000
# 3 -0.003052 -0.003244 0.012893 0.000000 0.000000 0.000000
# 4 0.000000 0.000000 0.000000 0.048595 0.000000 0.000000
# 5 0.000000 0.000000 0.000000 0.000000 0.061946 0.000000
# 6 0.000000 0.000000 0.000000 0.000000 0.000000 0.044238
#
#
# Mechanical properties :
#
#
# Convention : Reuss Voigt Hill
#
# Bulk Modulus (GPa) = 63.83211 66.30613 65.06912
# Shear Modulus (GPa) = 23.02132 24.98302 24.00217
#
# Velocity S-wave (km/s) = 3.56738 3.71627 3.64259
# Velocity P-wave (km/s) = 7.22875 7.42081 7.32541
#
# Compressibility (1/GPa) = 0.01566610
#
# Stress axis : x y z
#
# Youngs Moduli (GPa) = 74.70719 98.53062 77.56299
#
# Poissons Ratio (x) = 0.40245 0.23674
# Poissons Ratio (y) = 0.30514 0.25162
# Poissons Ratio (z) = 0.22802 0.31963
#
# Static dielectric constant tensor:
#      x y z
#    x 3.276260 0.000000 0.000000 
#    y 0.000000 3.671360 0.000000 
#    z 0.000000 0.000000 3.214780 
# 
# 
# High freq. dielectric constant tensor:
#      x y z
#    x 1.686170 0.000000 0.000000 
#    y 0.000000 1.721380 0.000000 
#    z 0.000000 0.000000 1.679600 
# 
# From -- ./inp_files/37441.got.cif
#   From: 2010.03.12/outbox.cif.g09.slc.cpg/sg74_19_cif.got.tgz:37441.got - 2010.04.16 15:46:19.
