data_PCOD8299590
_publ_section_title
;
Structure prediction by ZEFSAII (Michael W. Deem and Ramdas Pophale) SiO2 
 PCOD8299590
Probable space group: I M M A
;
_chemical_formula_sum "Si O2"
_cell_formula_units_Z 64
_cell_length_a 7.832020
_cell_length_b 16.907595
_cell_length_c 29.575329
_cell_angle_alpha 90.000000
_cell_angle_beta 90.000000
_cell_angle_gamma 90.000000
_cell_volume 3916.383468
_symmetry_space_group_name_H-M "I M M A"
_symmetry_group_IT_number 74
_symmetry_cell_setting 'orthorhombic'
loop_
_space_group_symop_operation_xyz
x,y,z
-x,1/2-y,z
x,-y,-z
-x,1/2+y,-z
-x,-y,-z
x,1/2+y,-z
-x,y,z
x,1/2-y,z
1/2+x,1/2+y,1/2+z
1/2-x,-y,1/2+z
1/2+x,1/2-y,1/2-z
1/2-x,y,1/2-z
1/2-x,1/2-y,1/2-z
1/2+x,y,1/2-z
1/2-x,1/2+y,1/2+z
1/2+x,-y,1/2+z
loop_
_atom_site_type_symbol
_atom_site_label
_atom_site_fract_x
_atom_site_fract_y
_atom_site_fract_z
Si Si1 0.299701 0.340672 0.299844
Si Si2 0.305726 0.452752 0.953466
Si Si3 0.000000 0.662915 0.937021
Si Si4 0.500000 0.344670 0.534869
Si Si5 0.689281 0.905578 0.888932
O O1 0.500000 0.346921 0.307396
O O2 0.236840 0.250000 0.307287
O O3 0.250000 0.369677 0.250000
O O4 0.206143 0.400577 0.334566
O O5 0.500000 0.419799 0.954447
O O6 0.174832 0.380603 0.944620
O O7 0.276940 0.507944 0.909451
O O8 0.269416 0.500000 0.000000
O O9 0.830172 0.653156 0.908125
O O10 0.000000 0.750000 0.955963
O O11 0.000000 0.616956 0.984202
O O12 0.500000 0.250000 0.541922
O O13 0.500000 0.877479 0.903652
#
# Coordination Sequence:
#
# PCOD8299590 Si02
#       5
#    16  16   8   8  16
#     4  10  20  33  48  70 102 137 170 207 247 288
#     4  10  20  35  52  72  99 133 170 210 256 299
#     4  11  21  31  45  71 100 130 174 212 245 296
#     4  11  22  34  52  74 102 134 166 214 262 300
#     4  11  21  33  51  70  94 134 174 211 251 295
#
# _framework density 16.341608000000001
#
# number of rings (size 3 to 8) (size 9 to 14) (size 15 to 20)
#    0.000    1.500    3.750    2.625    0.000    3.500 
#    0.000    2.500    0.000    0.000    0.000    0.000 
#    0.000    1.000    0.500    0.000    0.000    0.000 
#
# Total GULP energy -396527.677588 kJ/mol
# GULP energy per Si atom -12391.489925 kJ/mol
# Density = 1.630441 g / cm^3
# Si number density = 16.341608 Si / 1000 Ang^3
#
#
#
# Elastic Constant Matrix: (Units=GPa)
#
#
# Indices 1 2 3 4 5 6 
#
# 1 124.9018 55.1277 31.0723 0.0000 0.0000 0.0000
# 2 55.1277 75.4679 45.5403 0.0000 0.0000 0.0000
# 3 31.0723 45.5403 105.1521 0.0000 0.0000 0.0000
# 4 0.0000 0.0000 0.0000 25.1164 0.0000 0.0000
# 5 0.0000 0.0000 0.0000 0.0000 23.9907 0.0000
# 6 0.0000 0.0000 0.0000 0.0000 0.0000 -0.4593
#
#
#
# Elastic Compliance Matrix: (Units=1/GPa)
#
#
# Indices 1 2 3 4 5 6 
#
# 1 0.011824 -0.008839 0.000334 0.000000 0.000000 0.000000
# 2 -0.008839 0.024546 -0.008019 0.000000 0.000000 0.000000
# 3 0.000334 -0.008019 0.012884 0.000000 0.000000 0.000000
# 4 0.000000 0.000000 0.000000 0.039815 0.000000 0.000000
# 5 0.000000 0.000000 0.000000 0.000000 0.041683 0.000000
# 6 0.000000 0.000000 0.000000 0.000000 0.000000 -2.177154
#
#
# Mechanical properties :
#
#
# Convention : Reuss Voigt Hill
#
# Bulk Modulus (GPa) = 61.70100 63.22248 62.46174
# Shear Modulus (GPa) = -2.49010 21.31499 9.41245
#
# Velocity S-wave (km/s) = -1.23575 3.61548 2.40256
# Velocity P-wave (km/s) = 5.98355 7.49673 6.78247
#
# Compressibility (1/GPa) = 0.01620719
#
# Stress axis : x y z
#
# Youngs Moduli (GPa) = 84.57025 40.73935 77.61447
#
# Poissons Ratio (x) = 0.36010 -0.02592
# Poissons Ratio (y) = 0.74752 0.62238
# Poissons Ratio (z) = -0.02825 0.32668
#
# Static dielectric constant tensor:
#      x y z
#    x 3.297080 0.000000 0.000000 
#    y 0.000000 2.776610 0.000000 
#    z 0.000000 0.000000 3.146360 
# 
# 
# High freq. dielectric constant tensor:
#      x y z
#    x 1.655030 0.000000 0.000000 
#    y 0.000000 1.585090 0.000000 
#    z 0.000000 0.000000 1.617660 
# 
# From -- ./inp_files/69918.got.cif
#   From: 2010.03.12/outbox.cif.g09.slc.cpg/sg74_35_cif.got.tgz:69918.got - 2010.04.16 15:46:19.
