data_PCOD8299266
_publ_section_title
;
Structure prediction by ZEFSAII (Michael W. Deem and Ramdas Pophale) SiO2 
 PCOD8299266
Probable space group: I M M A
;
_chemical_formula_sum "Si O2"
_cell_formula_units_Z 72
_cell_length_a 9.124534
_cell_length_b 27.172622
_cell_length_c 14.478653
_cell_angle_alpha 90.000000
_cell_angle_beta 90.000000
_cell_angle_gamma 90.000000
_cell_volume 3589.801221
_symmetry_space_group_name_H-M "I M M A"
_symmetry_group_IT_number 74
_symmetry_cell_setting 'orthorhombic'
loop_
_space_group_symop_operation_xyz
x,y,z
-x,1/2-y,z
x,-y,-z
-x,1/2+y,-z
-x,-y,-z
x,1/2+y,-z
-x,y,z
x,1/2-y,z
1/2+x,1/2+y,1/2+z
1/2-x,-y,1/2+z
1/2+x,1/2-y,1/2-z
1/2-x,y,1/2-z
1/2-x,1/2-y,1/2-z
1/2+x,y,1/2-z
1/2-x,1/2+y,1/2+z
1/2+x,-y,1/2+z
loop_
_atom_site_type_symbol
_atom_site_label
_atom_site_fract_x
_atom_site_fract_y
_atom_site_fract_z
Si Si1 0.667110 0.511376 0.892844
Si Si2 0.829427 0.154268 0.537029
Si Si3 0.828061 0.250000 0.651241
Si Si4 0.327057 0.581392 0.338642
Si Si5 0.831242 0.878824 0.658770
O O1 0.500000 0.502058 0.859445
O O2 0.778437 0.475498 0.840048
O O3 0.719735 0.566503 0.870532
O O4 0.680199 0.500000 0.000000
O O5 0.780401 0.203399 0.589907
O O6 0.731369 0.109082 0.571313
O O7 0.800447 0.158408 0.426849
O O8 0.000000 0.141661 0.554847
O O9 0.750000 0.250000 0.750000
O O10 0.000000 0.250000 0.670451
O O11 0.500000 0.586286 0.330896
O O12 0.250000 0.606955 0.250000
O O13 0.750000 0.859665 0.750000
O O14 0.000000 0.879272 0.684533
#
# Coordination Sequence:
#
# PCOD8299266 Si02
#       5
#    16  16   8  16  16
#     4  10  19  36  58  81 114 157 196 240 290 339
#     4  10  21  41  62  85 115 152 192 240 295 353
#     4  10  22  40  67  92 116 146 187 236 297 360
#     4  12  24  36  55  84 117 155 195 240 287 347
#     4  10  21  37  59  83 116 156 197 239 287 341
#
# _framework density 20.056820999999999
#
# number of rings (size 3 to 8) (size 9 to 14) (size 15 to 20)
#    0.000    1.556    2.222    3.333    0.000    6.667 
#    0.000    0.556    0.000    0.000    0.000    0.000 
#    0.000    0.000    0.000    0.000    0.000    0.000 
#
# Total GULP energy -446428.165621 kJ/mol
# GULP energy per Si atom -12400.782378 kJ/mol
# Density = 2.001117 g / cm^3
# Si number density = 20.056821 Si / 1000 Ang^3
#
#
#
# Elastic Constant Matrix: (Units=GPa)
#
#
# Indices 1 2 3 4 5 6 
#
# 1 94.8923 35.9339 60.9397 0.0000 0.0000 0.0000
# 2 35.9339 88.5052 52.5297 0.0002 0.0000 0.0000
# 3 60.9397 52.5297 151.0052 0.0003 -0.0001 0.0001
# 4 0.0000 0.0002 0.0003 33.6290 0.0000 0.0000
# 5 0.0000 0.0000 -0.0001 0.0000 37.0383 0.0000
# 6 0.0000 0.0000 0.0001 0.0000 0.0000 16.2399
#
#
#
# Elastic Compliance Matrix: (Units=1/GPa)
#
#
# Indices 1 2 3 4 5 6 
#
# 1 0.014879 -0.003122 -0.004919 0.000000 0.000000 0.000000
# 2 -0.003122 0.014894 -0.003921 0.000000 0.000000 0.000000
# 3 -0.004919 -0.003921 0.009971 0.000000 0.000000 0.000000
# 4 0.000000 0.000000 0.000000 0.029736 0.000000 0.000000
# 5 0.000000 0.000000 0.000000 0.000000 0.026999 0.000000
# 6 0.000000 0.000000 0.000000 0.000000 0.000000 0.061577
#
#
# Mechanical properties :
#
#
# Convention : Reuss Voigt Hill
#
# Bulk Modulus (GPa) = 63.20776 70.35661 66.78219
# Shear Modulus (GPa) = 26.70186 29.71473 28.20830
#
# Velocity S-wave (km/s) = 3.65267 3.85324 3.75429
# Velocity P-wave (km/s) = 7.02653 7.41292 7.22231
#
# Compressibility (1/GPa) = 0.01582084
#
# Stress axis : x y z
#
# Youngs Moduli (GPa) = 67.20799 67.14334 100.28758
#
# Poissons Ratio (x) = 0.20960 0.49329
# Poissons Ratio (y) = 0.20981 0.39324
# Poissons Ratio (z) = 0.33058 0.26328
#
# Static dielectric constant tensor:
#      x y z
#    x 3.455450 0.000000 0.000000 
#    y 0.000000 3.563750 0.000000 
#    z 0.000000 0.000000 3.823370 
# 
# 
# High freq. dielectric constant tensor:
#      x y z
#    x 1.768650 0.000000 0.000000 
#    y 0.000000 1.760510 0.000000 
#    z 0.000000 0.000000 1.799210 
# 
# From -- ./inp_files/29168.got.cif
#   From: 2010.03.12/outbox.cif.g09.slc.cpg/sg74_15_cif.got.tgz:29168.got - 2010.04.16 15:46:19.
