data_PCOD8299555
_publ_section_title
;
Structure prediction by ZEFSAII (Michael W. Deem and Ramdas Pophale) SiO2 
 PCOD8299555
Probable space group: I M M A
;
_chemical_formula_sum "Si O2"
_cell_formula_units_Z 128
_cell_length_a 25.275892
_cell_length_b 22.684292
_cell_length_c 11.926597
_cell_angle_alpha 90.000000
_cell_angle_beta 90.000000
_cell_angle_gamma 90.000000
_cell_volume 6838.301813
_symmetry_space_group_name_H-M "I M M A"
_symmetry_group_IT_number 74
_symmetry_cell_setting 'orthorhombic'
loop_
_space_group_symop_operation_xyz
x,y,z
-x,1/2-y,z
x,-y,-z
-x,1/2+y,-z
-x,-y,-z
x,1/2+y,-z
-x,y,z
x,1/2-y,z
1/2+x,1/2+y,1/2+z
1/2-x,-y,1/2+z
1/2+x,1/2-y,1/2-z
1/2-x,y,1/2-z
1/2-x,1/2-y,1/2-z
1/2+x,y,1/2-z
1/2-x,1/2+y,1/2+z
1/2+x,-y,1/2+z
loop_
_atom_site_type_symbol
_atom_site_label
_atom_site_fract_x
_atom_site_fract_y
_atom_site_fract_z
Si Si1 0.938944 0.316950 0.899379
Si Si2 0.615323 0.980998 0.879130
Si Si3 0.557224 0.373644 0.036332
Si Si4 0.941476 0.409304 0.711936
Si Si5 0.160470 0.817985 0.955276
Si Si6 0.246989 0.819219 0.373698
Si Si7 0.691944 0.894290 0.755043
Si Si8 0.833263 0.682202 0.550249
O O1 0.932243 0.250000 0.852743
O O2 0.920723 0.363086 0.804199
O O3 0.000000 0.327628 0.936492
O O4 0.900252 0.326158 0.005005
O O5 0.566214 0.938739 0.912337
O O6 0.655622 0.946222 0.801375
O O7 0.597018 0.035057 0.801847
O O8 0.640867 0.000000 0.000000
O O9 0.500000 0.350690 0.081204
O O10 0.604792 0.330458 0.068203
O O11 0.555515 0.374012 0.903129
O O12 0.000000 0.432027 0.745479
O O13 0.169488 0.750000 0.914847
O O14 0.169511 0.866116 0.858779
O O15 0.199871 0.833461 0.057312
O O16 0.240082 0.750000 0.358269
O O17 0.250000 0.848946 0.250000
O O18 0.194615 0.844771 0.438223
O O19 0.750000 0.922697 0.750000
O O20 0.697974 0.841762 0.843580
O O21 0.822168 0.750000 0.548357
#
# Coordination Sequence:
#
# PCOD8299555 Si02
#       8
#    16  16  16  16  16  16  16  16
#     4   9  19  35  55  84 118 148 182 225 276 334
#     4   9  19  37  58  78 107 142 190 237 285 334
#     4   9  18  31  51  79 110 145 187 232 282 335
#     4   9  17  33  58  81 106 147 187 224 273 336
#     4  10  20  35  57  82 114 154 191 228 278 342
#     4   9  18  31  49  76 110 152 193 229 274 331
#     4  11  21  37  59  82 107 146 198 242 280 332
#     4  10  20  32  51  81 117 150 184 231 282 337
#
# _framework density 18.718095999999999
#
# number of rings (size 3 to 8) (size 9 to 14) (size 15 to 20)
#    0.000    2.500    1.250    0.750    1.750    2.750 
#    0.000    6.250    0.000    4.500    0.000    0.000 
#    0.000    0.000    0.000    0.000    0.000    0.000 
#
# Total GULP energy -793044.313745 kJ/mol
# GULP energy per Si atom -12391.317402 kJ/mol
# Density = 1.867549 g / cm^3
# Si number density = 18.718096 Si / 1000 Ang^3
#
#
#
# Elastic Constant Matrix: (Units=GPa)
#
#
# Indices 1 2 3 4 5 6 
#
# 1 109.6281 36.0638 47.5445 0.0000 0.0000 0.0000
# 2 36.0638 75.8344 48.3805 0.0000 0.0000 0.0000
# 3 47.5445 48.3805 110.2299 0.0000 0.0000 0.0000
# 4 0.0000 0.0000 0.0000 30.3398 0.0000 0.0000
# 5 0.0000 0.0000 0.0000 0.0000 23.2012 0.0000
# 6 0.0000 0.0000 0.0000 0.0000 0.0000 17.2763
#
#
#
# Elastic Compliance Matrix: (Units=1/GPa)
#
#
# Indices 1 2 3 4 5 6 
#
# 1 0.011780 -0.003279 -0.003642 0.000000 0.000000 0.000000
# 2 -0.003279 0.019227 -0.007025 0.000000 0.000000 0.000000
# 3 -0.003642 -0.007025 0.013726 0.000000 0.000000 0.000000
# 4 0.000000 0.000000 0.000000 0.032960 0.000000 0.000000
# 5 0.000000 0.000000 0.000000 0.000000 0.043101 0.000000
# 6 0.000000 0.000000 0.000000 0.000000 0.000000 0.057883
#
#
# Mechanical properties :
#
#
# Convention : Reuss Voigt Hill
#
# Bulk Modulus (GPa) = 59.37341 62.18555 60.77948
# Shear Modulus (GPa) = 23.56465 25.07703 24.32084
#
# Velocity S-wave (km/s) = 3.55198 3.66419 3.60852
# Velocity P-wave (km/s) = 6.97214 7.15514 7.06423
#
# Compressibility (1/GPa) = 0.01684256
#
# Stress axis : x y z
#
# Youngs Moduli (GPa) = 84.89172 52.00886 72.85418
#
# Poissons Ratio (x) = 0.17051 0.26533
# Poissons Ratio (y) = 0.27832 0.51180
# Poissons Ratio (z) = 0.30917 0.36536
#
# Static dielectric constant tensor:
#      x y z
#    x 3.593240 0.000000 0.000000 
#    y 0.000000 3.215740 0.000000 
#    z 0.000000 0.000000 3.484060 
# 
# 
# High freq. dielectric constant tensor:
#      x y z
#    x 1.736170 0.000000 0.000000 
#    y 0.000000 1.702810 0.000000 
#    z 0.000000 0.000000 1.715400 
# 
# From -- ./inp_files/25595.got.cif
#   From: 2010.03.12/outbox.cif.g09.slc.cpg/sg74_13_cif.got.tgz:25595.got - 2010.04.16 15:46:19.
