data_PCOD8299977
_publ_section_title
;
Structure prediction by ZEFSAII (Michael W. Deem and Ramdas Pophale) SiO2 
 PCOD8299977
Probable space group: I M M A
;
_chemical_formula_sum "Si O2"
_cell_formula_units_Z 72
_cell_length_a 9.348518
_cell_length_b 30.516464
_cell_length_c 12.497819
_cell_angle_alpha 90.000000
_cell_angle_beta 90.000000
_cell_angle_gamma 90.000000
_cell_volume 3565.424209
_symmetry_space_group_name_H-M "I M M A"
_symmetry_group_IT_number 74
_symmetry_cell_setting 'orthorhombic'
loop_
_space_group_symop_operation_xyz
x,y,z
-x,1/2-y,z
x,-y,-z
-x,1/2+y,-z
-x,-y,-z
x,1/2+y,-z
-x,y,z
x,1/2-y,z
1/2+x,1/2+y,1/2+z
1/2-x,-y,1/2+z
1/2+x,1/2-y,1/2-z
1/2-x,y,1/2-z
1/2-x,1/2-y,1/2-z
1/2+x,y,1/2-z
1/2-x,1/2+y,1/2+z
1/2+x,-y,1/2+z
loop_
_atom_site_type_symbol
_atom_site_label
_atom_site_fract_x
_atom_site_fract_y
_atom_site_fract_z
Si Si1 0.839500 0.576699 0.350751
Si Si2 0.223115 0.500000 0.500000
Si Si3 0.651177 0.936037 0.655037
Si Si4 0.834515 0.301836 0.356656
Si Si5 0.337742 0.359689 0.513125
O O1 0.750000 0.557536 0.250000
O O2 0.861999 0.540201 0.444855
O O3 0.752742 0.620065 0.388699
O O4 0.000000 0.590509 0.315696
O O5 0.315602 0.518507 0.597131
O O6 0.500000 0.943290 0.711644
O O7 0.750000 0.921638 0.750000
O O8 0.646499 0.897483 0.571997
O O9 0.831455 0.250000 0.367424
O O10 0.750000 0.317055 0.250000
O O11 0.752893 0.320198 0.461065
O O12 0.000000 0.318577 0.351170
O O13 0.500000 0.344645 0.547309
#
# Coordination Sequence:
#
# PCOD8299977 Si02
#       5
#    16   8  16  16  16
#     4  11  23  39  58  81 109 143 185 231 279 331
#     4  10  22  36  54  76 104 140 182 226 272 322
#     4  10  21  34  50  72 101 136 175 220 267 317
#     4  10  20  34  55  85 119 152 185 224 272 327
#     4  10  21  37  56  79 108 144 183 224 273 327
#
# _framework density 20.193949
#
# number of rings (size 3 to 8) (size 9 to 14) (size 15 to 20)
#    0.000    1.778    0.000    4.000    0.000   12.889 
#    0.000    0.000    0.000    0.667    0.000    0.000 
#    0.000    0.000    0.000    0.000    0.000    0.000 
#
# Total GULP energy -446082.657256 kJ/mol
# GULP energy per Si atom -12391.184924 kJ/mol
# Density = 2.014799 g / cm^3
# Si number density = 20.193949 Si / 1000 Ang^3
#
#
#
# Elastic Constant Matrix: (Units=GPa)
#
#
# Indices 1 2 3 4 5 6 
#
# 1 188.7676 23.5557 41.5605 0.0001 0.0000 0.0003
# 2 23.5557 42.1962 9.8934 -0.0005 0.0002 0.0001
# 3 41.5605 9.8934 69.4742 -0.0015 0.0005 0.0007
# 4 0.0001 -0.0005 -0.0015 20.3901 0.0005 0.0003
# 5 0.0000 0.0002 0.0005 0.0005 33.3031 -0.0004
# 6 0.0003 0.0001 0.0007 0.0003 -0.0004 18.9247
#
#
#
# Elastic Compliance Matrix: (Units=1/GPa)
#
#
# Indices 1 2 3 4 5 6 
#
# 1 0.006399 -0.002767 -0.003434 0.000000 0.000000 0.000000
# 2 -0.002767 0.025714 -0.002007 0.000000 0.000000 0.000000
# 3 -0.003434 -0.002007 0.016734 0.000001 0.000000 -0.000001
# 4 0.000000 0.000000 0.000001 0.049044 -0.000001 -0.000001
# 5 0.000000 0.000000 0.000000 -0.000001 0.030027 0.000001
# 6 0.000000 0.000000 -0.000001 -0.000001 0.000001 0.052841
#
#
# Mechanical properties :
#
#
# Convention : Reuss Voigt Hill
#
# Bulk Modulus (GPa) = 30.83394 50.05081 40.44238
# Shear Modulus (GPa) = 24.04038 29.55214 26.79626
#
# Velocity S-wave (km/s) = 3.45407 3.82961 3.64668
# Velocity P-wave (km/s) = 5.58655 6.66284 6.14829
#
# Compressibility (1/GPa) = 0.03243179
#
# Stress axis : x y z
#
# Youngs Moduli (GPa) = 156.27879 38.88948 59.75955
#
# Poissons Ratio (x) = 0.10761 0.20520
# Poissons Ratio (y) = 0.43242 0.11991
# Poissons Ratio (z) = 0.53664 0.07803
#
# Static dielectric constant tensor:
#      x y z
#    x 4.337660 0.000000 0.000030 
#    y 0.000000 2.861060 -0.000080 
#    z 0.000030 -0.000080 3.886730 
# 
# 
# High freq. dielectric constant tensor:
#      x y z
#    x 1.807290 0.000000 0.000000 
#    y 0.000000 1.767570 0.000000 
#    z 0.000000 0.000000 1.773260 
# 
# From -- ./inp_files/29385.got.cif
#   From: 2010.03.12/outbox.cif.g09.slc.cpg/sg74_15_cif.got.tgz:29385.got - 2010.04.16 15:46:19.
