data_PCOD8299516
_publ_section_title
;
Structure prediction by ZEFSAII (Michael W. Deem and Ramdas Pophale) SiO2 
 PCOD8299516
Probable space group: I M M A
;
_chemical_formula_sum "Si O2"
_cell_formula_units_Z 128
_cell_length_a 18.138241
_cell_length_b 17.906692
_cell_length_c 21.027722
_cell_angle_alpha 90.000000
_cell_angle_beta 90.000000
_cell_angle_gamma 90.000000
_cell_volume 6829.717787
_symmetry_space_group_name_H-M "I M M A"
_symmetry_group_IT_number 74
_symmetry_cell_setting 'orthorhombic'
loop_
_space_group_symop_operation_xyz
x,y,z
-x,1/2-y,z
x,-y,-z
-x,1/2+y,-z
-x,-y,-z
x,1/2+y,-z
-x,y,z
x,1/2-y,z
1/2+x,1/2+y,1/2+z
1/2-x,-y,1/2+z
1/2+x,1/2-y,1/2-z
1/2-x,y,1/2-z
1/2-x,1/2-y,1/2-z
1/2+x,y,1/2-z
1/2-x,1/2+y,1/2+z
1/2+x,-y,1/2+z
loop_
_atom_site_type_symbol
_atom_site_label
_atom_site_fract_x
_atom_site_fract_y
_atom_site_fract_z
Si Si1 0.583801 0.987785 0.636198
Si Si2 0.582920 0.457554 0.770328
Si Si3 0.915355 0.876454 0.692398
Si Si4 0.364421 0.832447 0.671444
Si Si5 0.777539 0.022752 0.929774
Si Si6 0.284009 0.125131 0.107398
Si Si7 0.084750 0.334567 0.634822
Si Si8 0.208172 0.333184 0.539616
O O1 0.500000 0.011439 0.623122
O O2 0.587415 0.897404 0.638609
O O3 0.617502 0.025904 0.700573
O O4 0.634567 0.016586 0.579332
O O5 0.500000 0.431874 0.756646
O O6 0.584341 0.534173 0.809104
O O7 0.619866 0.390970 0.811934
O O8 0.873905 0.842683 0.753196
O O9 0.864819 0.852448 0.632987
O O10 0.000000 0.846524 0.686834
O O11 0.394657 0.750000 0.652742
O O12 0.279238 0.835441 0.649292
O O13 0.756306 0.108816 0.918967
O O14 0.732737 0.964129 0.885588
O O15 0.755357 0.000000 0.000000
O O16 0.284224 0.152541 0.035063
O O17 0.092787 0.250000 0.660992
O O18 0.125106 0.342738 0.566560
O O19 0.000000 0.355944 0.621568
O O20 0.237649 0.250000 0.554199
#
# Coordination Sequence:
#
# PCOD8299516 Si02
#       8
#    16  16  16  16  16  16  16  16
#     4   9  18  33  55  79  99 126 165 207 250 294
#     4   8  15  30  49  70  99 129 159 198 246 301
#     4  10  20  32  49  74 102 133 168 208 250 290
#     4  10  20  34  51  73 103 135 165 198 242 299
#     4   9  19  35  53  73  99 132 169 206 248 301
#     4  10  20  34  52  72  97 134 174 206 244 299
#     4   9  17  30  50  74  99 130 167 208 255 303
#     4  10  20  34  51  71  98 132 169 210 254 300
#
# _framework density 18.741624999999999
#
# number of rings (size 3 to 8) (size 9 to 14) (size 15 to 20)
#    0.000    2.625    0.000    2.625    0.000    3.250 
#    0.000    2.500    0.000    7.125    0.000    0.000 
#    0.000    0.000    0.000    0.000    0.000    0.000 
#
# Total GULP energy -792877.519399 kJ/mol
# GULP energy per Si atom -12388.711241 kJ/mol
# Density = 1.869897 g / cm^3
# Si number density = 18.741625 Si / 1000 Ang^3
#
#
#
# Elastic Constant Matrix: (Units=GPa)
#
#
# Indices 1 2 3 4 5 6 
#
# 1 89.1675 38.6328 35.0643 0.0000 0.0000 0.0000
# 2 38.6328 125.4208 35.4325 0.0000 0.0000 0.0000
# 3 35.0643 35.4325 45.4760 0.0000 0.0000 0.0000
# 4 0.0000 0.0000 0.0000 18.3017 0.0000 0.0000
# 5 0.0000 0.0000 0.0000 0.0000 29.8241 0.0000
# 6 0.0000 0.0000 0.0000 0.0000 0.0000 17.9562
#
#
#
# Elastic Compliance Matrix: (Units=1/GPa)
#
#
# Indices 1 2 3 4 5 6 
#
# 1 0.016441 -0.001901 -0.011195 0.000000 0.000000 0.000000
# 2 -0.001901 0.010443 -0.006671 0.000000 0.000000 0.000000
# 3 -0.011195 -0.006671 0.035819 0.000000 0.000000 0.000000
# 4 0.000000 0.000000 0.000000 0.054640 0.000000 0.000000
# 5 0.000000 0.000000 0.000000 0.000000 0.033530 0.000000
# 6 0.000000 0.000000 0.000000 0.000000 0.000000 0.055691
#
#
# Mechanical properties :
#
#
# Convention : Reuss Voigt Hill
#
# Bulk Modulus (GPa) = 43.16200 53.14705 48.15453
# Shear Modulus (GPa) = 19.69873 23.27870 21.48871
#
# Velocity S-wave (km/s) = 3.24554 3.52815 3.38979
# Velocity P-wave (km/s) = 6.09300 6.70943 6.40863
#
# Compressibility (1/GPa) = 0.02316853
#
# Stress axis : x y z
#
# Youngs Moduli (GPa) = 60.82280 95.75387 27.91777
#
# Poissons Ratio (x) = 0.18207 0.31255
# Poissons Ratio (y) = 0.11565 0.18624
# Poissons Ratio (z) = 0.68094 0.63876
#
# Static dielectric constant tensor:
#      x y z
#    x 3.315680 0.000000 0.000000 
#    y 0.000000 3.732470 0.000000 
#    z 0.000000 0.000000 3.321960 
# 
# 
# High freq. dielectric constant tensor:
#      x y z
#    x 1.711740 0.000000 0.000000 
#    y 0.000000 1.733190 0.000000 
#    z 0.000000 0.000000 1.708360 
# 
# From -- ./inp_files/61109.got.cif
#   From: 2010.03.12/outbox.cif.g09.slc.cpg/sg74_31_cif.got.tgz:61109.got - 2010.04.16 15:46:19.
