data_PCOD8299146
_publ_section_title
;
Structure prediction by ZEFSAII (Michael W. Deem and Ramdas Pophale) SiO2 
 PCOD8299146
Probable space group: I M M A
;
_chemical_formula_sum "Si O2"
_cell_formula_units_Z 96
_cell_length_a 14.640662
_cell_length_b 21.282626
_cell_length_c 15.698974
_cell_angle_alpha 90.000000
_cell_angle_beta 90.000000
_cell_angle_gamma 90.000000
_cell_volume 4891.670527
_symmetry_space_group_name_H-M "I M M A"
_symmetry_group_IT_number 74
_symmetry_cell_setting 'orthorhombic'
loop_
_space_group_symop_operation_xyz
x,y,z
-x,1/2-y,z
x,-y,-z
-x,1/2+y,-z
-x,-y,-z
x,1/2+y,-z
-x,y,z
x,1/2-y,z
1/2+x,1/2+y,1/2+z
1/2-x,-y,1/2+z
1/2+x,1/2-y,1/2-z
1/2-x,y,1/2-z
1/2-x,1/2-y,1/2-z
1/2+x,y,1/2-z
1/2-x,1/2+y,1/2+z
1/2+x,-y,1/2+z
loop_
_atom_site_type_symbol
_atom_site_label
_atom_site_fract_x
_atom_site_fract_y
_atom_site_fract_z
Si Si1 0.607744 0.628800 0.983873
Si Si2 0.647244 0.250000 0.729944
Si Si3 0.398336 0.750000 0.078441
Si Si4 0.894915 0.956084 0.361664
Si Si5 0.602540 0.504132 0.599349
Si Si6 0.229338 0.575463 0.656871
Si Si7 0.103971 0.885216 0.196360
O O1 0.500000 0.633923 0.959777
O O2 0.671286 0.624188 0.900307
O O3 0.646410 0.687604 0.038403
O O4 0.623749 0.567105 0.042234
O O5 0.750000 0.250000 0.750000
O O6 0.594054 0.250000 0.819208
O O7 0.629565 0.313053 0.674991
O O8 0.500000 0.750000 0.043262
O O9 0.875426 0.898693 0.296027
O O10 0.000000 0.978167 0.353076
O O11 0.831073 0.012922 0.334687
O O12 0.593463 0.500000 0.500000
O O13 0.500000 0.517069 0.637658
O O14 0.671048 0.561250 0.618227
O O15 0.648901 0.439647 0.637397
O O16 0.250000 0.604460 0.750000
O O17 0.000000 0.892046 0.172645
#
# Coordination Sequence:
#
# PCOD8299146 Si02
#       7
#    16   8   8  16  16  16  16
#     4  10  21  37  61  89 114 150 192 240 302 362
#     4  12  24  30  54  89 124 157 190 231 287 357
#     4  10  20  40  61  81 118 157 190 237 307 370
#     4  10  19  34  58  84 116 147 185 238 293 353
#     4  10  22  38  56  75 107 159 202 234 279 342
#     4  12  23  34  55  82 118 147 186 243 296 342
#     4  10  20  36  55  79 113 154 194 233 284 347
#
# _framework density 19.625197
#
# number of rings (size 3 to 8) (size 9 to 14) (size 15 to 20)
#    0.000    1.500    3.333    2.750    2.333    3.333 
#    0.000    0.417    0.000    0.000    0.000    0.583 
#    0.000    0.000    0.000    0.000    0.000    0.000 
#
# Total GULP energy -594798.294728 kJ/mol
# GULP energy per Si atom -12391.631140 kJ/mol
# Density = 1.958053 g / cm^3
# Si number density = 19.625197 Si / 1000 Ang^3
#
#
#
# Elastic Constant Matrix: (Units=GPa)
#
#
# Indices 1 2 3 4 5 6 
#
# 1 61.8368 18.5004 31.0033 0.0000 0.0000 0.0000
# 2 18.5004 62.7167 14.6438 0.0001 0.0000 0.0001
# 3 31.0033 14.6438 86.2330 0.0018 0.0002 0.0006
# 4 0.0000 0.0001 0.0018 29.0276 0.0002 0.0007
# 5 0.0000 0.0000 0.0002 0.0002 29.0063 0.0001
# 6 0.0000 0.0001 0.0006 0.0007 0.0001 16.1145
#
#
#
# Elastic Compliance Matrix: (Units=1/GPa)
#
#
# Indices 1 2 3 4 5 6 
#
# 1 0.020929 -0.004599 -0.006743 0.000000 0.000000 0.000000
# 2 -0.004599 0.017614 -0.001338 0.000000 0.000000 0.000000
# 3 -0.006743 -0.001338 0.014248 -0.000001 0.000000 -0.000001
# 4 0.000000 0.000000 -0.000001 0.034450 0.000000 -0.000002
# 5 0.000000 0.000000 0.000000 0.000000 0.034475 0.000000
# 6 0.000000 0.000000 -0.000001 -0.000002 0.000000 0.062056
#
#
# Mechanical properties :
#
#
# Convention : Reuss Voigt Hill
#
# Bulk Modulus (GPa) = 36.45621 37.67570 37.06596
# Shear Modulus (GPa) = 22.90690 24.60563 23.75626
#
# Velocity S-wave (km/s) = 3.42016 3.54471 3.48300
# Velocity P-wave (km/s) = 5.84921 5.99938 5.92477
#
# Compressibility (1/GPa) = 0.02743017
#
# Stress axis : x y z
#
# Youngs Moduli (GPa) = 47.78170 56.77404 70.18489
#
# Poissons Ratio (x) = 0.26111 0.47329
# Poissons Ratio (y) = 0.21975 0.09388
# Poissons Ratio (z) = 0.32221 0.07594
#
# Static dielectric constant tensor:
#      x y z
#    x 3.759550 0.000000 0.000000 
#    y 0.000000 3.310010 0.000000 
#    z 0.000000 0.000000 3.411470 
# 
# 
# High freq. dielectric constant tensor:
#      x y z
#    x 1.770910 0.000000 0.000000 
#    y 0.000000 1.736840 0.000000 
#    z 0.000000 0.000000 1.751140 
# 
# From -- ./inp_files/32419.got.cif
#   From: 2010.03.12/outbox.cif.g09.slc.cpg/sg74_17_cif.got.tgz:32419.got - 2010.04.16 15:46:19.
