data_PCOD8299577
_publ_section_title
;
Structure prediction by ZEFSAII (Michael W. Deem and Ramdas Pophale) SiO2 
 PCOD8299577
Probable space group: I M M A
;
_chemical_formula_sum "Si O2"
_cell_formula_units_Z 84
_cell_length_a 12.313306
_cell_length_b 16.964744
_cell_length_c 21.713743
_cell_angle_alpha 90.000000
_cell_angle_beta 90.000000
_cell_angle_gamma 90.000000
_cell_volume 4535.829029
_symmetry_space_group_name_H-M "I M M A"
_symmetry_group_IT_number 74
_symmetry_cell_setting 'orthorhombic'
loop_
_space_group_symop_operation_xyz
x,y,z
-x,1/2-y,z
x,-y,-z
-x,1/2+y,-z
-x,-y,-z
x,1/2+y,-z
-x,y,z
x,1/2-y,z
1/2+x,1/2+y,1/2+z
1/2-x,-y,1/2+z
1/2+x,1/2-y,1/2-z
1/2-x,y,1/2-z
1/2-x,1/2-y,1/2-z
1/2+x,y,1/2-z
1/2-x,1/2+y,1/2+z
1/2+x,-y,1/2+z
loop_
_atom_site_type_symbol
_atom_site_label
_atom_site_fract_x
_atom_site_fract_y
_atom_site_fract_z
Si Si1 0.874281 0.419353 0.405165
Si Si2 0.170381 0.750000 0.565421
Si Si3 0.377353 0.750000 0.491512
Si Si4 0.500000 0.750000 0.042892
Si Si5 0.704472 0.054155 0.816011
Si Si6 0.000000 0.338431 0.663072
Si Si7 0.236512 0.500000 0.000000
Si Si8 0.123526 0.397694 0.906486
O O1 0.859345 0.325939 0.392677
O O2 0.823857 0.472981 0.351235
O O3 0.815143 0.434018 0.470648
O O4 0.000000 0.441420 0.411395
O O5 0.298482 0.750000 0.550249
O O6 0.105382 0.750000 0.500600
O O7 0.500000 0.750000 0.517681
O O8 0.354408 0.676755 0.448387
O O9 0.500000 0.827657 0.087873
O O10 0.750000 0.028717 0.750000
O O11 0.603117 0.112944 0.813394
O O12 0.800242 0.104597 0.847216
O O13 0.000000 0.250000 0.692927
O O14 0.156338 0.527621 0.053193
O O15 0.000000 0.404288 0.883902
#
# Coordination Sequence:
#
# PCOD8299577 Si02
#       8
#    16   8   8   4  16   8   8  16
#     4  11  22  36  60  92 121 162 201 258 315 382
#     4  12  20  36  61  94 131 156 201 241 331 372
#     4  10  20  36  54  81 125 160 188 243 290 378
#     4  10  22  32  62 100 128 162 176 262 308 384
#     4  11  25  43  62  84 121 165 216 266 302 358
#     4  10  24  41  64  92 127 159 207 256 312 379
#     4  10  20  32  56  86 122 157 189 250 310 384
#     4  10  21  36  56  84 118 160 202 239 305 369
#
# _framework density 18.519217000000001
#
# number of rings (size 3 to 8) (size 9 to 14) (size 15 to 20)
#    0.286    1.143    3.810    1.714    5.333    0.381 
#    0.000    0.476    0.000    0.000    0.000    0.000 
#    0.000    0.000    0.000    0.000    0.000    0.000 
#
# Total GULP energy -520671.002651 kJ/mol
# GULP energy per Si atom -12396.928635 kJ/mol
# Density = 1.847707 g / cm^3
# Si number density = 18.519217 Si / 1000 Ang^3
#
#
#
# Elastic Constant Matrix: (Units=GPa)
#
#
# Indices 1 2 3 4 5 6 
#
# 1 134.4589 39.7914 37.7843 0.0000 0.0000 0.0000
# 2 39.7914 106.6538 23.5826 0.0000 0.0000 0.0000
# 3 37.7843 23.5826 56.9688 0.0000 0.0000 0.0000
# 4 0.0000 0.0000 0.0000 0.5156 0.0000 0.0000
# 5 0.0000 0.0000 0.0000 0.0000 21.8724 0.0000
# 6 0.0000 0.0000 0.0000 0.0000 0.0000 25.7895
#
#
#
# Elastic Compliance Matrix: (Units=1/GPa)
#
#
# Indices 1 2 3 4 5 6 
#
# 1 0.009673 -0.002411 -0.005418 0.000000 0.000000 0.000000
# 2 -0.002411 0.010922 -0.002922 0.000000 0.000000 0.000000
# 3 -0.005418 -0.002922 0.022356 0.000000 0.000000 0.000000
# 4 0.000000 0.000000 0.000000 1.939514 0.000000 0.000000
# 5 0.000000 0.000000 0.000000 0.000000 0.045720 0.000000
# 6 0.000000 0.000000 0.000000 0.000000 0.000000 0.038775
#
#
# Mechanical properties :
#
#
# Convention : Reuss Voigt Hill
#
# Bulk Modulus (GPa) = 46.62042 55.59979 51.11010
# Shear Modulus (GPa) = 2.38594 22.76373 12.57483
#
# Velocity S-wave (km/s) = 1.13629 3.50979 2.60862
# Velocity P-wave (km/s) = 5.19136 6.82003 6.06065
#
# Compressibility (1/GPa) = 0.02144983
#
# Stress axis : x y z
#
# Youngs Moduli (GPa) = 103.37918 91.56030 44.73025
#
# Poissons Ratio (x) = 0.22076 0.24233
# Poissons Ratio (y) = 0.24925 0.13070
# Poissons Ratio (z) = 0.56007 0.26754
#
# Static dielectric constant tensor:
#      x y z
#    x 3.609640 0.000000 0.000000 
#    y 0.000000 3.368700 0.000000 
#    z 0.000000 0.000000 3.102220 
# 
# 
# High freq. dielectric constant tensor:
#      x y z
#    x 1.738850 0.000000 0.000000 
#    y 0.000000 1.723350 0.000000 
#    z 0.000000 0.000000 1.680330 
# 
# From -- ./inp_files/50494.got.cif
#   From: 2010.03.12/outbox.cif.g09.slc.cpg/sg74_26_cif.got.tgz:50494.got - 2010.04.16 15:46:19.
