data_PCOD8299204
_publ_section_title
;
Structure prediction by ZEFSAII (Michael W. Deem and Ramdas Pophale) SiO2 
 PCOD8299204
Probable space group: I M M A
;
_chemical_formula_sum "Si O2"
_cell_formula_units_Z 72
_cell_length_a 8.604941
_cell_length_b 22.160588
_cell_length_c 19.557800
_cell_angle_alpha 90.000000
_cell_angle_beta 90.000000
_cell_angle_gamma 90.000000
_cell_volume 3729.487683
_symmetry_space_group_name_H-M "I M M A"
_symmetry_group_IT_number 74
_symmetry_cell_setting 'orthorhombic'
loop_
_space_group_symop_operation_xyz
x,y,z
-x,1/2-y,z
x,-y,-z
-x,1/2+y,-z
-x,-y,-z
x,1/2+y,-z
-x,y,z
x,1/2-y,z
1/2+x,1/2+y,1/2+z
1/2-x,-y,1/2+z
1/2+x,1/2-y,1/2-z
1/2-x,y,1/2-z
1/2-x,1/2-y,1/2-z
1/2+x,y,1/2-z
1/2-x,1/2+y,1/2+z
1/2+x,-y,1/2+z
loop_
_atom_site_type_symbol
_atom_site_label
_atom_site_fract_x
_atom_site_fract_y
_atom_site_fract_z
Si Si1 0.816666 0.250000 0.324832
Si Si2 0.684577 0.399874 0.822282
Si Si3 0.316719 0.969363 0.677771
Si Si4 0.684129 0.865328 0.909064
Si Si5 0.184460 0.317706 0.554183
O O1 0.750000 0.250000 0.250000
O O2 0.757648 0.190989 0.364223
O O3 0.000000 0.250000 0.321792
O O4 0.500000 0.402640 0.819095
O O5 0.750000 0.376833 0.750000
O O6 0.747673 0.465714 0.840611
O O7 0.745003 0.353554 0.879658
O O8 0.500000 0.974443 0.684476
O O9 0.250000 0.945333 0.750000
O O10 0.270241 0.924793 0.616991
O O11 0.500000 0.874706 0.903464
O O12 0.738384 0.853428 0.986639
O O13 0.254663 0.250000 0.554879
O O14 0.000000 0.313413 0.554183
#
# Coordination Sequence:
#
# PCOD8299204 Si02
#       5
#     8  16  16  16  16
#     4  10  20  32  52  78 107 142 180 222 265 314
#     4  10  20  36  59  84 110 143 184 230 278 330
#     4  11  22  37  56  80 112 147 186 230 276 327
#     4  10  19  35  57  81 110 145 184 226 272 324
#     4   9  18  35  59  84 111 145 186 227 271 328
#
# _framework density 19.305602
#
# number of rings (size 3 to 8) (size 9 to 14) (size 15 to 20)
#    0.000    2.000    1.111    4.667    0.000    4.000 
#    0.000    6.667    0.000    4.667    0.000    0.000 
#    0.000    0.000    0.000    0.000    0.000    0.000 
#
# Total GULP energy -446478.262290 kJ/mol
# GULP energy per Si atom -12402.173952 kJ/mol
# Density = 1.926166 g / cm^3
# Si number density = 19.305602 Si / 1000 Ang^3
#
#
#
# Elastic Constant Matrix: (Units=GPa)
#
#
# Indices 1 2 3 4 5 6 
#
# 1 67.2891 31.3688 36.5588 0.0000 0.0000 0.0000
# 2 31.3688 118.6661 96.8518 0.0000 0.0000 0.0000
# 3 36.5588 96.8518 179.2650 0.0000 0.0000 0.0000
# 4 0.0000 0.0000 0.0000 39.7355 0.0000 0.0000
# 5 0.0000 0.0000 0.0000 0.0000 28.9544 0.0000
# 6 0.0000 0.0000 0.0000 0.0000 0.0000 19.7441
#
#
#
# Elastic Compliance Matrix: (Units=1/GPa)
#
#
# Indices 1 2 3 4 5 6 
#
# 1 0.017301 -0.003030 -0.001892 0.000000 0.000000 0.000000
# 2 -0.003030 0.015604 -0.007813 0.000000 0.000000 0.000000
# 3 -0.001892 -0.007813 0.010185 0.000000 0.000000 0.000000
# 4 0.000000 0.000000 0.000000 0.025166 0.000000 0.000000
# 5 0.000000 0.000000 0.000000 0.000000 0.034537 0.000000
# 6 0.000000 0.000000 0.000000 0.000000 0.000000 0.050648
#
#
# Mechanical properties :
#
#
# Convention : Reuss Voigt Hill
#
# Bulk Modulus (GPa) = 56.74443 77.19767 66.97105
# Shear Modulus (GPa) = 27.05850 31.04950 29.05400
#
# Velocity S-wave (km/s) = 3.74784 4.01473 3.88358
# Velocity P-wave (km/s) = 6.94154 7.84632 7.40776
#
# Compressibility (1/GPa) = 0.01762287
#
# Stress axis : x y z
#
# Youngs Moduli (GPa) = 57.79903 64.08417 98.18248
#
# Poissons Ratio (x) = 0.19416 0.18571
# Poissons Ratio (y) = 0.17511 0.76708
# Poissons Ratio (z) = 0.10933 0.50068
#
# Static dielectric constant tensor:
#      x y z
#    x 3.271930 0.000000 0.000000 
#    y 0.000000 3.656870 0.000000 
#    z 0.000000 0.000000 3.688700 
# 
# 
# High freq. dielectric constant tensor:
#      x y z
#    x 1.730050 0.000000 0.000000 
#    y 0.000000 1.757840 0.000000 
#    z 0.000000 0.000000 1.760090 
# 
# From -- ./inp_files/39457.got.cif
#   From: 2010.03.12/outbox.cif.g09.slc.cpg/sg74_20_cif.got.tgz:39457.got - 2010.04.16 15:46:19.
