data_PCOD8299348
_publ_section_title
;
Structure prediction by ZEFSAII (Michael W. Deem and Ramdas Pophale) SiO2 
 PCOD8299348
Probable space group: I M M A
;
_chemical_formula_sum "Si O2"
_cell_formula_units_Z 80
_cell_length_a 18.519015
_cell_length_b 26.630314
_cell_length_c 8.825520
_cell_angle_alpha 90.000000
_cell_angle_beta 90.000000
_cell_angle_gamma 90.000000
_cell_volume 4352.456849
_symmetry_space_group_name_H-M "I M M A"
_symmetry_group_IT_number 74
_symmetry_cell_setting 'orthorhombic'
loop_
_space_group_symop_operation_xyz
x,y,z
-x,1/2-y,z
x,-y,-z
-x,1/2+y,-z
-x,-y,-z
x,1/2+y,-z
-x,y,z
x,1/2-y,z
1/2+x,1/2+y,1/2+z
1/2-x,-y,1/2+z
1/2+x,1/2-y,1/2-z
1/2-x,y,1/2-z
1/2-x,1/2-y,1/2-z
1/2+x,y,1/2-z
1/2-x,1/2+y,1/2+z
1/2+x,-y,1/2+z
loop_
_atom_site_type_symbol
_atom_site_label
_atom_site_fract_x
_atom_site_fract_y
_atom_site_fract_z
Si Si1 0.920272 0.555044 0.954337
Si Si2 0.420309 0.390921 0.769425
Si Si3 0.703978 0.379163 0.396753
Si Si4 0.705362 0.548067 0.101045
Si Si5 0.323807 0.692560 0.341632
O O1 0.864066 0.585163 0.845909
O O2 0.000000 0.549576 0.877062
O O3 0.889685 0.500000 0.000000
O O4 0.927400 0.588323 0.101752
O O5 0.500000 0.385732 0.843325
O O6 0.373417 0.429675 0.866337
O O7 0.383546 0.336331 0.758170
O O8 0.750000 0.364047 0.250000
O O9 0.749281 0.410084 0.517121
O O10 0.681173 0.328833 0.486262
O O11 0.750000 0.532427 0.250000
O O12 0.692011 0.500000 0.000000
O O13 0.348063 0.750000 0.355992
O O14 0.250000 0.686694 0.250000
#
# Coordination Sequence:
#
# PCOD8299348 Si02
#       5
#    16  16  16  16  16
#     4   9  18  33  52  75 109 152 191 227 274 339
#     4  10  20  36  55  82 116 146 188 238 286 344
#     4  11  21  34  56  85 113 148 189 237 290 340
#     4  12  22  36  55  82 116 154 196 239 285 346
#     4  10  19  38  63  83 108 145 192 242 288 337
#
# _framework density 18.380424000000001
#
# number of rings (size 3 to 8) (size 9 to 14) (size 15 to 20)
#    0.000    1.600    6.000    1.200    2.800    1.200 
#    0.000    1.000    0.000    0.000    0.000    0.000 
#    0.000    0.000    0.000    0.000    0.000    0.000 
#
# Total GULP energy -495855.891638 kJ/mol
# GULP energy per Si atom -12396.397291 kJ/mol
# Density = 1.833859 g / cm^3
# Si number density = 18.380424 Si / 1000 Ang^3
#
#
#
# Elastic Constant Matrix: (Units=GPa)
#
#
# Indices 1 2 3 4 5 6 
#
# 1 133.2288 58.8991 32.3086 0.0000 0.0000 0.0000
# 2 58.8991 137.5797 34.4911 0.0000 0.0000 0.0000
# 3 32.3086 34.4911 66.7228 0.0000 0.0000 0.0000
# 4 0.0000 0.0000 0.0000 12.6587 0.0000 0.0000
# 5 0.0000 0.0000 0.0000 0.0000 4.4809 0.0000
# 6 0.0000 0.0000 0.0000 0.0000 0.0000 16.0435
#
#
#
# Elastic Compliance Matrix: (Units=1/GPa)
#
#
# Indices 1 2 3 4 5 6 
#
# 1 0.009736 -0.003431 -0.002941 0.000000 0.000000 0.000000
# 2 -0.003431 0.009560 -0.003280 0.000000 0.000000 0.000000
# 3 -0.002941 -0.003280 0.018107 0.000000 0.000000 0.000000
# 4 0.000000 0.000000 0.000000 0.078997 0.000000 0.000000
# 5 0.000000 0.000000 0.000000 0.000000 0.223171 0.000000
# 6 0.000000 0.000000 0.000000 0.000000 0.000000 0.062331
#
#
# Mechanical properties :
#
#
# Convention : Reuss Voigt Hill
#
# Bulk Modulus (GPa) = 55.25295 65.43654 60.34474
# Shear Modulus (GPa) = 11.70306 20.75876 16.23091
#
# Velocity S-wave (km/s) = 2.52605 3.36429 2.97485
# Velocity P-wave (km/s) = 6.21562 7.12529 6.68595
#
# Compressibility (1/GPa) = 0.01809858
#
# Stress axis : x y z
#
# Youngs Moduli (GPa) = 102.71457 104.60654 55.22684
#
# Poissons Ratio (x) = 0.35887 0.16241
# Poissons Ratio (y) = 0.35238 0.18117
# Poissons Ratio (z) = 0.30206 0.34316
#
# Static dielectric constant tensor:
#      x y z
#    x 4.968110 0.000000 0.000000 
#    y 0.000000 3.544320 0.000000 
#    z 0.000000 0.000000 3.038570 
# 
# 
# High freq. dielectric constant tensor:
#      x y z
#    x 1.724080 0.000000 0.000000 
#    y 0.000000 1.711130 0.000000 
#    z 0.000000 0.000000 1.679350 
# 
# From -- ./inp_files/10901.got.cif
#   From: 2010.03.12/outbox.cif.g09.slc.cpg/sg74_6_cif.got.tgz:10901.got - 2010.04.16 15:46:19.
