data_PCOD8299509
_publ_section_title
;
Structure prediction by ZEFSAII (Michael W. Deem and Ramdas Pophale) SiO2 
 PCOD8299509
Probable space group: I M M A
;
_chemical_formula_sum "Si O2"
_cell_formula_units_Z 104
_cell_length_a 28.668976
_cell_length_b 8.844058
_cell_length_c 21.723104
_cell_angle_alpha 90.000000
_cell_angle_beta 90.000000
_cell_angle_gamma 90.000000
_cell_volume 5507.894899
_symmetry_space_group_name_H-M "I M M A"
_symmetry_group_IT_number 74
_symmetry_cell_setting 'orthorhombic'
loop_
_space_group_symop_operation_xyz
x,y,z
-x,1/2-y,z
x,-y,-z
-x,1/2+y,-z
-x,-y,-z
x,1/2+y,-z
-x,y,z
x,1/2-y,z
1/2+x,1/2+y,1/2+z
1/2-x,-y,1/2+z
1/2+x,1/2-y,1/2-z
1/2-x,y,1/2-z
1/2-x,1/2-y,1/2-z
1/2+x,y,1/2-z
1/2-x,1/2+y,1/2+z
1/2+x,-y,1/2+z
loop_
_atom_site_type_symbol
_atom_site_label
_atom_site_fract_x
_atom_site_fract_y
_atom_site_fract_z
Si Si1 0.125283 0.414737 0.233173
Si Si2 0.000000 0.074412 0.935236
Si Si3 0.784721 0.427268 0.804822
Si Si4 0.554298 0.417254 0.057963
Si Si5 0.090915 0.085811 0.099974
Si Si6 0.053305 0.575615 0.317376
Si Si7 0.806695 0.430933 0.065354
O O1 0.145482 0.250000 0.253952
O O2 0.165277 0.538204 0.224494
O O3 0.098018 0.389591 0.171035
O O4 0.087642 0.470260 0.280810
O O5 0.000000 0.250000 0.940406
O O6 0.047934 0.028012 0.902977
O O7 0.000000 0.000000 0.000000
O O8 0.778548 0.250000 0.816925
O O9 0.750000 0.483155 0.750000
O O10 0.779615 0.507950 0.872731
O O11 0.500000 0.393830 0.045130
O O12 0.576518 0.250000 0.069421
O O13 0.562652 0.533550 0.112606
O O14 0.578396 0.500000 0.000000
O O15 0.078564 0.250000 0.069877
O O16 0.138624 0.021693 0.069553
O O17 0.065338 0.750000 0.306369
O O18 0.000000 0.540532 0.298221
O O19 0.800786 0.250000 0.064949
O O20 0.787540 0.500000 0.000000
#
# Coordination Sequence:
#
# PCOD8299509 Si02
#       7
#    16   8  16  16  16  16  16
#     4  10  21  36  55  78 105 140 179 222 271 323
#     4  12  24  34  48  68  96 138 183 224 267 310
#     4  10  21  38  61  87 114 145 181 226 280 337
#     4   9  16  27  44  66  93 127 169 215 261 310
#     4   9  20  36  51  71 101 139 181 225 270 316
#     4  10  20  32  48  73 105 140 178 220 265 318
#     4  10  20  35  58  86 114 146 184 230 279 331
#
# _framework density 18.881986999999999
#
# number of rings (size 3 to 8) (size 9 to 14) (size 15 to 20)
#    0.000    2.154    0.000    4.385    1.077    8.923 
#    0.000    0.000    0.000    0.923    0.000    2.154 
#    0.000    0.000    0.000    0.000    0.000    0.000 
#
# Total GULP energy -644223.519374 kJ/mol
# GULP energy per Si atom -12388.913834 kJ/mol
# Density = 1.883901 g / cm^3
# Si number density = 18.881987 Si / 1000 Ang^3
#
#
#
# Elastic Constant Matrix: (Units=GPa)
#
#
# Indices 1 2 3 4 5 6 
#
# 1 54.1495 29.4613 41.8278 0.0000 0.0000 0.0000
# 2 29.4613 90.7083 36.2608 0.0000 0.0000 0.0000
# 3 41.8278 36.2608 109.1638 0.0000 0.0000 0.0000
# 4 0.0000 0.0000 0.0000 38.0266 0.0000 0.0000
# 5 0.0000 0.0000 0.0000 0.0000 26.6647 0.0000
# 6 0.0000 0.0000 0.0000 0.0000 0.0000 23.3242
#
#
#
# Elastic Compliance Matrix: (Units=1/GPa)
#
#
# Indices 1 2 3 4 5 6 
#
# 1 0.028537 -0.005648 -0.009059 0.000000 0.000000 0.000000
# 2 -0.005648 0.013830 -0.002430 0.000000 0.000000 0.000000
# 3 -0.009059 -0.002430 0.013439 0.000000 0.000000 0.000000
# 4 0.000000 0.000000 0.000000 0.026297 0.000000 0.000000
# 5 0.000000 0.000000 0.000000 0.000000 0.037503 0.000000
# 6 0.000000 0.000000 0.000000 0.000000 0.000000 0.042874
#
#
# Mechanical properties :
#
#
# Convention : Reuss Voigt Hill
#
# Bulk Modulus (GPa) = 46.43849 52.12461 49.28155
# Shear Modulus (GPa) = 24.51818 27.36787 25.94302
#
# Velocity S-wave (km/s) = 3.60737 3.81125 3.71071
# Velocity P-wave (km/s) = 6.48061 6.85805 6.67200
#
# Compressibility (1/GPa) = 0.02153386
#
# Stress axis : x y z
#
# Youngs Moduli (GPa) = 35.04174 72.30654 74.41227
#
# Poissons Ratio (x) = 0.40835 0.67407
# Poissons Ratio (y) = 0.19790 0.18082
# Poissons Ratio (z) = 0.31743 0.17570
#
# Static dielectric constant tensor:
#      x y z
#    x 3.172720 0.000000 0.000000 
#    y 0.000000 3.118380 0.000000 
#    z 0.000000 0.000000 4.167190 
# 
# 
# High freq. dielectric constant tensor:
#      x y z
#    x 1.688390 0.000000 0.000000 
#    y 0.000000 1.750780 0.000000 
#    z 0.000000 0.000000 1.742140 
# 
# From -- ./inp_files/55199.got.cif
#   From: 2010.03.12/outbox.cif.g09.slc.cpg/sg74_28_cif.got.tgz:55199.got - 2010.04.16 15:46:19.
