data_PCOD8299148
_publ_section_title
;
Structure prediction by ZEFSAII (Michael W. Deem and Ramdas Pophale) SiO2 
 PCOD8299148
Probable space group: I M M A
;
_chemical_formula_sum "Si O2"
_cell_formula_units_Z 88
_cell_length_a 12.694845
_cell_length_b 22.753788
_cell_length_c 15.780901
_cell_angle_alpha 90.000000
_cell_angle_beta 90.000000
_cell_angle_gamma 90.000000
_cell_volume 4558.404970
_symmetry_space_group_name_H-M "I M M A"
_symmetry_group_IT_number 74
_symmetry_cell_setting 'orthorhombic'
loop_
_space_group_symop_operation_xyz
x,y,z
-x,1/2-y,z
x,-y,-z
-x,1/2+y,-z
-x,-y,-z
x,1/2+y,-z
-x,y,z
x,1/2-y,z
1/2+x,1/2+y,1/2+z
1/2-x,-y,1/2+z
1/2+x,1/2-y,1/2-z
1/2-x,y,1/2-z
1/2-x,1/2-y,1/2-z
1/2+x,y,1/2-z
1/2-x,1/2+y,1/2+z
1/2+x,-y,1/2+z
loop_
_atom_site_type_symbol
_atom_site_label
_atom_site_fract_x
_atom_site_fract_y
_atom_site_fract_z
Si Si1 0.622247 0.750000 0.574100
Si Si2 0.626443 0.250000 0.616348
Si Si3 0.122663 0.628778 0.191374
Si Si4 0.375392 0.050685 0.844458
Si Si5 0.796109 0.937687 0.036379
Si Si6 0.750000 0.547284 0.750000
Si Si7 0.123998 0.375187 0.121563
O O1 0.500000 0.750000 0.553387
O O2 0.673410 0.750000 0.479622
O O3 0.650757 0.806269 0.631843
O O4 0.500000 0.250000 0.616483
O O5 0.671857 0.191782 0.664327
O O6 0.161055 0.605176 0.283786
O O7 0.142621 0.576854 0.123377
O O8 0.000000 0.638250 0.198561
O O9 0.500000 0.043163 0.849169
O O10 0.328442 0.062304 0.938473
O O11 0.323108 0.990465 0.811958
O O12 0.820823 0.889112 0.967509
O O13 0.834896 0.000000 0.000000
O O14 0.827888 0.588312 0.802526
O O15 0.000000 0.388256 0.116249
#
# Coordination Sequence:
#
# PCOD8299148 Si02
#       7
#     8   8  16  16  16   8  16
#     4   9  18  35  58  88 119 145 187 239 292 337
#     4   9  16  30  55  87 116 151 187 231 288 337
#     4  10  19  34  58  85 119 150 188 238 285 341
#     4  11  23  39  55  82 124 156 189 241 290 347
#     4  12  21  36  56  85 115 150 200 232 288 347
#     4  12  22  41  58  87 114 150 196 236 298 354
#     4  11  23  39  62  89 117 150 192 245 288 342
#
# _framework density 19.304998999999999
#
# number of rings (size 3 to 8) (size 9 to 14) (size 15 to 20)
#    0.000    1.273    5.455    1.091    0.000    3.636 
#    0.000    2.727    0.000    0.000    0.000    2.545 
#    0.000    0.000    0.000    0.000    0.000    0.000 
#
# Total GULP energy -545407.701583 kJ/mol
# GULP energy per Si atom -12395.629581 kJ/mol
# Density = 1.926106 g / cm^3
# Si number density = 19.304999 Si / 1000 Ang^3
#
#
#
# Elastic Constant Matrix: (Units=GPa)
#
#
# Indices 1 2 3 4 5 6 
#
# 1 79.8789 49.2752 43.2388 0.0000 0.0000 0.0000
# 2 49.2752 138.3721 44.1557 0.0001 0.0000 0.0000
# 3 43.2388 44.1557 81.4969 0.0001 0.0000 0.0000
# 4 0.0000 0.0001 0.0001 13.9202 0.0000 0.0000
# 5 0.0000 0.0000 0.0000 0.0000 34.4755 0.0000
# 6 0.0000 0.0000 0.0000 0.0000 0.0000 13.9829
#
#
#
# Elastic Compliance Matrix: (Units=1/GPa)
#
#
# Indices 1 2 3 4 5 6 
#
# 1 0.019569 -0.004420 -0.007988 0.000000 0.000000 0.000000
# 2 -0.004420 0.009736 -0.002930 0.000000 0.000000 0.000000
# 3 -0.007988 -0.002930 0.018096 0.000000 0.000000 0.000000
# 4 0.000000 0.000000 0.000000 0.071838 0.000000 0.000000
# 5 0.000000 0.000000 0.000000 0.000000 0.029006 0.000000
# 6 0.000000 0.000000 0.000000 0.000000 0.000000 0.071516
#
#
# Mechanical properties :
#
#
# Convention : Reuss Voigt Hill
#
# Bulk Modulus (GPa) = 59.78850 63.67637 61.73244
# Shear Modulus (GPa) = 19.53038 23.34761 21.43899
#
# Velocity S-wave (km/s) = 3.18413 3.48143 3.33609
# Velocity P-wave (km/s) = 6.67503 7.01544 6.84735
#
# Compressibility (1/GPa) = 0.01672562
#
# Stress axis : x y z
#
# Youngs Moduli (GPa) = 51.10044 102.71403 55.26081
#
# Poissons Ratio (x) = 0.45397 0.44142
# Poissons Ratio (y) = 0.22585 0.16191
# Poissons Ratio (z) = 0.40819 0.30095
#
# Static dielectric constant tensor:
#      x y z
#    x 3.441450 0.000000 0.000000 
#    y 0.000000 3.902760 0.000000 
#    z 0.000000 0.000000 3.576500 
# 
# 
# High freq. dielectric constant tensor:
#      x y z
#    x 1.734340 0.000000 0.000000 
#    y 0.000000 1.762340 0.000000 
#    z 0.000000 0.000000 1.743050 
# 
# From -- ./inp_files/32237.got.cif
#   From: 2010.03.12/outbox.cif.g09.slc.cpg/sg74_17_cif.got.tgz:32237.got - 2010.04.16 15:46:19.
