data_PCOD8299820
_publ_section_title
;
Structure prediction by ZEFSAII (Michael W. Deem and Ramdas Pophale) SiO2 
 PCOD8299820
Probable space group: I M M A
;
_chemical_formula_sum "Si O2"
_cell_formula_units_Z 120
_cell_length_a 8.940471
_cell_length_b 27.067365
_cell_length_c 27.335296
_cell_angle_alpha 90.000000
_cell_angle_beta 90.000000
_cell_angle_gamma 90.000000
_cell_volume 6615.004732
_symmetry_space_group_name_H-M "I M M A"
_symmetry_group_IT_number 74
_symmetry_cell_setting 'orthorhombic'
loop_
_space_group_symop_operation_xyz
x,y,z
-x,1/2-y,z
x,-y,-z
-x,1/2+y,-z
-x,-y,-z
x,1/2+y,-z
-x,y,z
x,1/2-y,z
1/2+x,1/2+y,1/2+z
1/2-x,-y,1/2+z
1/2+x,1/2-y,1/2-z
1/2-x,y,1/2-z
1/2-x,1/2-y,1/2-z
1/2+x,y,1/2-z
1/2-x,1/2+y,1/2+z
1/2+x,-y,1/2+z
loop_
_atom_site_type_symbol
_atom_site_label
_atom_site_fract_x
_atom_site_fract_y
_atom_site_fract_z
Si Si1 0.823392 0.946074 0.988734
Si Si2 0.176403 0.305373 0.433349
Si Si3 0.175315 0.750000 0.197682
Si Si4 0.824446 0.604518 0.889756
Si Si5 0.824821 0.933330 0.300645
Si Si6 0.673720 0.857105 0.032075
Si Si7 0.828176 0.835907 0.359096
Si Si8 0.678020 0.035518 0.301449
O O1 0.770270 0.929496 0.934830
O O2 0.000000 0.946651 0.993072
O O3 0.761321 0.908581 0.029148
O O4 0.756498 0.000000 0.000000
O O5 0.235974 0.250000 0.423768
O O6 0.247438 0.341870 0.393162
O O7 0.224689 0.320799 0.488352
O O8 0.000000 0.307770 0.427478
O O9 0.250000 0.750000 0.250000
O O10 0.220850 0.701170 0.168749
O O11 0.000000 0.750000 0.205375
O O12 0.776092 0.577713 0.839915
O O13 0.000000 0.613153 0.891991
O O14 0.750000 0.915685 0.250000
O O15 0.797881 0.891549 0.341124
O O16 0.000000 0.943410 0.291734
O O17 0.745883 0.983379 0.319316
O O18 0.500000 0.869834 0.028167
O O19 0.710840 0.831573 0.083619
O O20 0.000000 0.820846 0.349086
O O21 0.500000 0.030316 0.296784
O O22 0.750000 0.051165 0.250000
#
# Coordination Sequence:
#
# PCOD8299820 Si02
#       8
#    16  16   8  16  16  16  16  16
#     4   9  18  32  50  73 106 143 176 213 258 309
#     4   9  18  33  55  80 104 136 175 215 261 313
#     4  12  26  42  60  80 102 136 182 230 283 334
#     4   9  19  34  51  76 106 140 175 211 262 315
#     4  10  20  34  52  76 102 135 176 215 263 313
#     4   9  19  34  52  77 106 139 175 215 262 310
#     4  10  22  38  57  79 106 139 176 224 275 322
#     4  10  20  34  54  79 108 141 176 214 261 310
#
# _framework density 18.140575999999999
#
# number of rings (size 3 to 8) (size 9 to 14) (size 15 to 20)
#    0.000    2.400    0.000    2.600    2.800    4.267 
#    0.000    0.000    0.000    0.400    0.000    0.000 
#    0.000    0.000    0.000    0.000    0.000    0.000 
#
# Total GULP energy -744076.404693 kJ/mol
# GULP energy per Si atom -12401.273412 kJ/mol
# Density = 1.809929 g / cm^3
# Si number density = 18.140576 Si / 1000 Ang^3
#
#
#
# Elastic Constant Matrix: (Units=GPa)
#
#
# Indices 1 2 3 4 5 6 
#
# 1 67.7703 48.0468 42.7842 0.0000 0.0000 0.0000
# 2 48.0468 143.5828 64.8019 0.0000 0.0000 0.0000
# 3 42.7842 64.8019 98.7060 0.0000 0.0000 0.0000
# 4 0.0000 0.0000 0.0000 26.1581 0.0000 0.0000
# 5 0.0000 0.0000 0.0000 0.0000 26.2773 0.0000
# 6 0.0000 0.0000 0.0000 0.0000 0.0000 32.5569
#
#
#
# Elastic Compliance Matrix: (Units=1/GPa)
#
#
# Indices 1 2 3 4 5 6 
#
# 1 0.022083 -0.004362 -0.006708 0.000000 0.000000 0.000000
# 2 -0.004362 0.010759 -0.005173 0.000000 0.000000 0.000000
# 3 -0.006708 -0.005173 0.016435 0.000000 0.000000 0.000000
# 4 0.000000 0.000000 0.000000 0.038229 0.000000 0.000000
# 5 0.000000 0.000000 0.000000 0.000000 0.038056 0.000000
# 6 0.000000 0.000000 0.000000 0.000000 0.000000 0.030715
#
#
# Mechanical properties :
#
#
# Convention : Reuss Voigt Hill
#
# Bulk Modulus (GPa) = 59.55592 69.03611 64.29601
# Shear Modulus (GPa) = 25.72551 27.29355 26.50953
#
# Velocity S-wave (km/s) = 3.76988 3.88307 3.82689
# Velocity P-wave (km/s) = 7.20075 7.63172 7.41936
#
# Compressibility (1/GPa) = 0.01679094
#
# Stress axis : x y z
#
# Youngs Moduli (GPa) = 45.28310 92.94736 60.84715
#
# Poissons Ratio (x) = 0.40545 0.40818
# Poissons Ratio (y) = 0.19753 0.31473
# Poissons Ratio (z) = 0.30377 0.48077
#
# Static dielectric constant tensor:
#      x y z
#    x 3.308980 0.000000 0.000000 
#    y 0.000000 3.491520 0.000000 
#    z 0.000000 0.000000 3.376940 
# 
# 
# High freq. dielectric constant tensor:
#      x y z
#    x 1.700950 0.000000 0.000000 
#    y 0.000000 1.702810 0.000000 
#    z 0.000000 0.000000 1.695370 
# 
# From -- ./inp_files/65131.got.cif
#   From: 2010.03.12/outbox.cif.g09.slc.cpg/sg74_33_cif.got.tgz:65131.got - 2010.04.16 15:46:19.
