data_PCOD8299522
_publ_section_title
;
Structure prediction by ZEFSAII (Michael W. Deem and Ramdas Pophale) SiO2 
 PCOD8299522
Probable space group: I M M A
;
_chemical_formula_sum "Si O2"
_cell_formula_units_Z 104
_cell_length_a 29.591793
_cell_length_b 9.060451
_cell_length_c 19.595935
_cell_angle_alpha 90.000000
_cell_angle_beta 90.000000
_cell_angle_gamma 90.000000
_cell_volume 5253.963926
_symmetry_space_group_name_H-M "I M M A"
_symmetry_group_IT_number 74
_symmetry_cell_setting 'orthorhombic'
loop_
_space_group_symop_operation_xyz
x,y,z
-x,1/2-y,z
x,-y,-z
-x,1/2+y,-z
-x,-y,-z
x,1/2+y,-z
-x,y,z
x,1/2-y,z
1/2+x,1/2+y,1/2+z
1/2-x,-y,1/2+z
1/2+x,1/2-y,1/2-z
1/2-x,y,1/2-z
1/2-x,1/2-y,1/2-z
1/2+x,y,1/2-z
1/2-x,1/2+y,1/2+z
1/2+x,-y,1/2+z
loop_
_atom_site_type_symbol
_atom_site_label
_atom_site_fract_x
_atom_site_fract_y
_atom_site_fract_z
Si Si1 0.664273 0.577151 0.183661
Si Si2 0.000000 0.423782 0.570892
Si Si3 0.500000 0.909139 0.730039
Si Si4 0.927947 0.917362 0.656614
Si Si5 0.402283 0.424698 0.566304
Si Si6 0.758670 0.076959 0.573210
Si Si7 0.500000 0.078627 0.601404
Si Si8 0.676449 0.923517 0.337188
O O1 0.651316 0.750000 0.186788
O O2 0.621699 0.478867 0.165589
O O3 0.700146 0.544969 0.124526
O O4 0.681786 0.523627 0.258635
O O5 0.000000 0.500000 0.500000
O O6 0.954202 0.474967 0.606448
O O7 0.000000 0.250000 0.564466
O O8 0.500000 0.750000 0.691283
O O9 0.545752 0.919048 0.772529
O O10 0.500000 0.049167 0.681503
O O11 0.926133 0.750000 0.627472
O O12 0.379952 0.500000 0.500000
O O13 0.402356 0.250000 0.556751
O O14 0.453507 0.489605 0.571934
O O15 0.372756 0.468476 0.632712
O O16 0.753691 0.250000 0.558521
O O17 0.714825 0.010594 0.612506
O O18 0.766060 0.000000 0.500000
O O19 0.500000 0.250000 0.587844
O O20 0.683446 0.750000 0.338272
#
# Coordination Sequence:
#
# PCOD8299522 Si02
#       8
#    16   8   8  16  16  16   8  16
#     4  10  20  36  59  84 109 144 190 235 282 337
#     4  11  22  38  60  84 112 151 195 235 279 332
#     4   9  19  34  52  75 104 139 176 218 267 317
#     4  10  21  37  55  81 116 147 181 228 281 337
#     4  10  20  33  50  74 105 141 180 224 275 328
#     4  10  21  37  58  83 111 144 183 231 286 342
#     4  10  20  32  49  75 106 140 179 223 267 317
#     4   9  18  35  58  81 106 141 189 238 280 333
#
# _framework density 19.794578000000001
#
# number of rings (size 3 to 8) (size 9 to 14) (size 15 to 20)
#    0.000    2.154    0.000    3.692    0.000    6.769 
#    0.000    3.077    0.000    1.846    0.000    0.000 
#    0.000    0.000    0.000    0.000    0.000    0.000 
#
# Total GULP energy -644501.456416 kJ/mol
# GULP energy per Si atom -12394.258777 kJ/mol
# Density = 1.974952 g / cm^3
# Si number density = 19.794578 Si / 1000 Ang^3
#
#
#
# Elastic Constant Matrix: (Units=GPa)
#
#
# Indices 1 2 3 4 5 6 
#
# 1 128.4109 43.7502 60.1224 0.0000 0.0000 0.0000
# 2 43.7502 67.5060 46.5977 0.0000 0.0000 0.0000
# 3 60.1224 46.5977 154.8479 0.0000 0.0000 0.0000
# 4 0.0000 0.0000 0.0000 34.1542 0.0000 0.0000
# 5 0.0000 0.0000 0.0000 0.0000 26.3339 0.0000
# 6 0.0000 0.0000 0.0000 0.0000 0.0000 24.4721
#
#
#
# Elastic Compliance Matrix: (Units=1/GPa)
#
#
# Indices 1 2 3 4 5 6 
#
# 1 0.010781 -0.005172 -0.002629 0.000000 0.000000 0.000000
# 2 -0.005172 0.021178 -0.004365 0.000000 0.000000 0.000000
# 3 -0.002629 -0.004365 0.008792 0.000000 0.000000 0.000000
# 4 0.000000 0.000000 0.000000 0.029279 0.000000 0.000000
# 5 0.000000 0.000000 0.000000 0.000000 0.037974 0.000000
# 6 0.000000 0.000000 0.000000 0.000000 0.000000 0.040863
#
#
# Mechanical properties :
#
#
# Convention : Reuss Voigt Hill
#
# Bulk Modulus (GPa) = 60.90571 72.41172 66.65871
# Shear Modulus (GPa) = 27.98410 30.34502 29.16456
#
# Velocity S-wave (km/s) = 3.76403 3.91960 3.84260
# Velocity P-wave (km/s) = 7.05169 7.55945 7.30998
#
# Compressibility (1/GPa) = 0.01641882
#
# Stress axis : x y z
#
# Youngs Moduli (GPa) = 92.75836 47.21784 113.73410
#
# Poissons Ratio (x) = 0.24420 0.29906
# Poissons Ratio (y) = 0.47973 0.49646
# Poissons Ratio (z) = 0.24390 0.20611
#
# Static dielectric constant tensor:
#      x y z
#    x 3.772170 0.000000 0.000000 
#    y 0.000000 3.198710 0.000000 
#    z 0.000000 0.000000 3.651180 
# 
# 
# High freq. dielectric constant tensor:
#      x y z
#    x 1.781430 0.000000 0.000000 
#    y 0.000000 1.748880 0.000000 
#    z 0.000000 0.000000 1.777590 
# 
# From -- ./inp_files/55306.got.cif
#   From: 2010.03.12/outbox.cif.g09.slc.cpg/sg74_28_cif.got.tgz:55306.got - 2010.04.16 15:46:19.
