data_PCOD8299952
_publ_section_title
;
Structure prediction by ZEFSAII (Michael W. Deem and Ramdas Pophale) SiO2 
 PCOD8299952
Probable space group: I M M A
;
_chemical_formula_sum "Si O2"
_cell_formula_units_Z 72
_cell_length_a 28.678322
_cell_length_b 8.790098
_cell_length_c 13.820254
_cell_angle_alpha 90.000000
_cell_angle_beta 90.000000
_cell_angle_gamma 90.000000
_cell_volume 3483.882335
_symmetry_space_group_name_H-M "I M M A"
_symmetry_group_IT_number 74
_symmetry_cell_setting 'orthorhombic'
loop_
_space_group_symop_operation_xyz
x,y,z
-x,1/2-y,z
x,-y,-z
-x,1/2+y,-z
-x,-y,-z
x,1/2+y,-z
-x,y,z
x,1/2-y,z
1/2+x,1/2+y,1/2+z
1/2-x,-y,1/2+z
1/2+x,1/2-y,1/2-z
1/2-x,y,1/2-z
1/2-x,1/2-y,1/2-z
1/2+x,y,1/2-z
1/2-x,1/2+y,1/2+z
1/2+x,-y,1/2+z
loop_
_atom_site_type_symbol
_atom_site_label
_atom_site_fract_x
_atom_site_fract_y
_atom_site_fract_z
Si Si1 0.724902 0.426339 0.895439
Si Si2 0.133620 0.424733 0.397816
Si Si3 0.913368 0.575007 0.792663
Si Si4 0.172854 0.071447 0.894447
Si Si5 0.500000 0.571674 0.394288
O O1 0.713556 0.250000 0.904910
O O2 0.679841 0.503587 0.845660
O O3 0.775610 0.449607 0.844447
O O4 0.727999 0.500000 0.000000
O O5 0.120243 0.500000 0.500000
O O6 0.144350 0.250000 0.417685
O O7 0.090332 0.444770 0.323668
O O8 0.922196 0.750000 0.821346
O O9 0.864553 0.520656 0.834564
O O10 0.954880 0.474988 0.833912
O O11 0.159980 0.250000 0.899911
O O12 0.173603 0.000000 0.000000
O O13 0.500000 0.750000 0.408646
O O14 0.500000 0.500000 0.500000
#
# Coordination Sequence:
#
# PCOD8299952 Si02
#       5
#    16  16  16  16   8
#     4   9  17  30  51  79 115 156 197 239 285 338
#     4  10  21  37  59  85 117 156 196 240 287 337
#     4  11  24  41  61  87 117 151 193 240 290 347
#     4  10  20  34  54  83 118 157 198 242 290 343
#     4  12  26  46  71  94 119 150 183 230 288 346
#
# _framework density 20.666599000000001
#
# number of rings (size 3 to 8) (size 9 to 14) (size 15 to 20)
#    0.000    1.778    0.000    5.667    0.000    7.111 
#    0.000    5.000    0.000    0.000    0.000    0.000 
#    0.000    0.000    0.000    0.000    0.000    0.000 
#
# Total GULP energy -446186.107627 kJ/mol
# GULP energy per Si atom -12394.058545 kJ/mol
# Density = 2.061956 g / cm^3
# Si number density = 20.666599 Si / 1000 Ang^3
#
#
#
# Elastic Constant Matrix: (Units=GPa)
#
#
# Indices 1 2 3 4 5 6 
#
# 1 114.7257 57.6701 60.7446 0.0000 0.0000 0.0000
# 2 57.6701 158.1184 47.1589 0.0000 0.0000 0.0000
# 3 60.7446 47.1589 71.9771 0.0000 0.0000 0.0000
# 4 0.0000 0.0000 0.0000 28.0771 0.0000 0.0000
# 5 0.0000 0.0000 0.0000 0.0000 32.6974 0.0000
# 6 0.0000 0.0000 0.0000 0.0000 0.0000 35.9491
#
#
#
# Elastic Compliance Matrix: (Units=1/GPa)
#
#
# Indices 1 2 3 4 5 6 
#
# 1 0.016407 -0.002305 -0.012336 0.000000 0.000000 0.000000
# 2 -0.002305 0.008184 -0.003417 0.000000 0.000000 0.000000
# 3 -0.012336 -0.003417 0.026543 0.000000 0.000000 0.000000
# 4 0.000000 0.000000 0.000000 0.035616 0.000000 0.000000
# 5 0.000000 0.000000 0.000000 0.000000 0.030584 0.000000
# 6 0.000000 0.000000 0.000000 0.000000 0.000000 0.027817
#
#
# Mechanical properties :
#
#
# Convention : Reuss Voigt Hill
#
# Bulk Modulus (GPa) = 66.58731 75.10759 70.84745
# Shear Modulus (GPa) = 26.84223 31.29454 29.06838
#
# Velocity S-wave (km/s) = 3.60783 3.89557 3.75445
# Velocity P-wave (km/s) = 7.04592 7.52697 7.29041
#
# Compressibility (1/GPa) = 0.01501788
#
# Stress axis : x y z
#
# Youngs Moduli (GPa) = 60.95037 122.18772 37.67406
#
# Poissons Ratio (x) = 0.28160 0.46476
# Poissons Ratio (y) = 0.14047 0.12874
# Poissons Ratio (z) = 0.75191 0.41754
#
# Static dielectric constant tensor:
#      x y z
#    x 4.039400 0.000000 0.000000 
#    y 0.000000 3.923650 0.000000 
#    z 0.000000 0.000000 3.587340 
# 
# 
# High freq. dielectric constant tensor:
#      x y z
#    x 1.802110 0.000000 0.000000 
#    y 0.000000 1.825070 0.000000 
#    z 0.000000 0.000000 1.806220 
# 
# From -- ./inp_files/37061.got.cif
#   From: 2010.03.12/outbox.cif.g09.slc.cpg/sg74_19_cif.got.tgz:37061.got - 2010.04.16 15:46:19.
