data_PCOD8299892
_publ_section_title
;
Structure prediction by ZEFSAII (Michael W. Deem and Ramdas Pophale) SiO2 
 PCOD8299892
Probable space group: I M M A
;
_chemical_formula_sum "Si O2"
_cell_formula_units_Z 112
_cell_length_a 10.374557
_cell_length_b 15.011855
_cell_length_c 35.112085
_cell_angle_alpha 90.000000
_cell_angle_beta 90.000000
_cell_angle_gamma 90.000000
_cell_volume 5468.403357
_symmetry_space_group_name_H-M "I M M A"
_symmetry_group_IT_number 74
_symmetry_cell_setting 'orthorhombic'
loop_
_space_group_symop_operation_xyz
x,y,z
-x,1/2-y,z
x,-y,-z
-x,1/2+y,-z
-x,-y,-z
x,1/2+y,-z
-x,y,z
x,1/2-y,z
1/2+x,1/2+y,1/2+z
1/2-x,-y,1/2+z
1/2+x,1/2-y,1/2-z
1/2-x,y,1/2-z
1/2-x,1/2-y,1/2-z
1/2+x,y,1/2-z
1/2-x,1/2+y,1/2+z
1/2+x,-y,1/2+z
loop_
_atom_site_type_symbol
_atom_site_label
_atom_site_fract_x
_atom_site_fract_y
_atom_site_fract_z
Si Si1 0.650071 0.853022 0.216215
Si Si2 0.359247 0.898958 0.994186
Si Si3 0.247171 0.849790 0.856788
Si Si4 0.640246 0.648442 0.561708
Si Si5 0.638479 0.352921 0.275262
Si Si6 0.150958 0.349352 0.575282
Si Si7 0.646337 0.538439 0.143749
O O1 0.500000 0.873873 0.227611
O O2 0.661374 0.750000 0.203444
O O3 0.750000 0.873483 0.250000
O O4 0.701696 0.916641 0.182071
O O5 0.500000 0.852956 0.984733
O O6 0.260576 0.895383 0.959247
O O7 0.292158 0.859782 0.032504
O O8 0.391226 0.000000 0.000000
O O9 0.312671 0.750000 0.856282
O O10 0.156040 0.860079 0.893036
O O11 0.159052 0.862885 0.820013
O O12 0.348780 0.930839 0.856498
O O13 0.500000 0.605712 0.551320
O O14 0.639632 0.750000 0.548792
O O15 0.500000 0.397115 0.265097
O O16 0.633091 0.250000 0.263339
O O17 0.750000 0.400395 0.250000
O O18 0.179146 0.250000 0.590384
O O19 0.213129 0.418741 0.605811
O O20 0.000000 0.368772 0.570418
O O21 0.500000 0.569747 0.141962
#
# Coordination Sequence:
#
# PCOD8299892 Si02
#       7
#    16  16  16  16  16  16  16
#     4   9  18  35  60  87 114 144 179 223 275 328
#     4  10  20  34  54  82 114 144 177 222 276 335
#     4  10  21  36  53  74 105 147 188 225 271 327
#     4  10  21  37  56  77 104 142 187 230 272 324
#     4   9  18  34  55  76 100 134 177 222 266 315
#     4   9  17  31  53  79 107 141 180 224 276 328
#     4  10  20  34  53  80 111 142 183 231 274 323
#
# _framework density 20.481299
#
# number of rings (size 3 to 8) (size 9 to 14) (size 15 to 20)
#    0.000    2.429    0.000    2.143    0.000    7.714 
#    0.000    5.714    0.000    0.857    0.000    2.000 
#    0.000    0.000    0.000    0.000    0.000    0.000 
#
# Total GULP energy -693778.533268 kJ/mol
# GULP energy per Si atom -12388.902380 kJ/mol
# Density = 2.043468 g / cm^3
# Si number density = 20.481299 Si / 1000 Ang^3
#
#
#
# Elastic Constant Matrix: (Units=GPa)
#
#
# Indices 1 2 3 4 5 6 
#
# 1 107.0581 18.0434 70.1255 0.0000 0.0000 0.0000
# 2 18.0434 94.3373 38.1288 0.0000 0.0000 0.0000
# 3 70.1255 38.1288 137.7713 0.0000 0.0000 0.0000
# 4 0.0000 0.0000 0.0000 26.8710 0.0000 0.0000
# 5 0.0000 0.0000 0.0000 0.0000 25.8020 0.0000
# 6 0.0000 0.0000 0.0000 0.0000 0.0000 22.4364
#
#
#
# Elastic Compliance Matrix: (Units=1/GPa)
#
#
# Indices 1 2 3 4 5 6 
#
# 1 0.014017 0.000228 -0.007198 0.000000 0.000000 0.000000
# 2 0.000228 0.011939 -0.003420 0.000000 0.000000 0.000000
# 3 -0.007198 -0.003420 0.011869 0.000000 0.000000 0.000000
# 4 0.000000 0.000000 0.000000 0.037215 0.000000 0.000000
# 5 0.000000 0.000000 0.000000 0.000000 0.038757 0.000000
# 6 0.000000 0.000000 0.000000 0.000000 0.000000 0.044570
#
#
# Mechanical properties :
#
#
# Convention : Reuss Voigt Hill
#
# Bulk Modulus (GPa) = 58.66877 65.75135 62.21006
# Shear Modulus (GPa) = 27.05216 29.21314 28.13265
#
# Velocity S-wave (km/s) = 3.63825 3.78078 3.71020
# Velocity P-wave (km/s) = 6.80856 7.15764 6.98528
#
# Compressibility (1/GPa) = 0.01704484
#
# Stress axis : x y z
#
# Youngs Moduli (GPa) = 71.34201 83.75890 84.25541
#
# Poissons Ratio (x) = -0.01912 0.60645
# Poissons Ratio (y) = -0.01628 0.28818
# Poissons Ratio (z) = 0.51351 0.28648
#
# Static dielectric constant tensor:
#      x y z
#    x 3.569310 0.000000 0.000000 
#    y 0.000000 3.640550 0.000000 
#    z 0.000000 0.000000 3.887220 
# 
# 
# High freq. dielectric constant tensor:
#      x y z
#    x 1.762180 0.000000 0.000000 
#    y 0.000000 1.793040 0.000000 
#    z 0.000000 0.000000 1.810630 
# 
# From -- ./inp_files/71889.got.cif
#   From: 2010.03.12/outbox.cif.g09.slc.cpg/sg74_36_cif.got.tgz:71889.got - 2010.04.16 15:46:19.
