data_PCOD8299569
_publ_section_title
;
Structure prediction by ZEFSAII (Michael W. Deem and Ramdas Pophale) SiO2 
 PCOD8299569
Probable space group: I M M A
;
_chemical_formula_sum "Si O2"
_cell_formula_units_Z 80
_cell_length_a 17.131147
_cell_length_b 9.873368
_cell_length_c 25.684815
_cell_angle_alpha 90.000000
_cell_angle_beta 90.000000
_cell_angle_gamma 90.000000
_cell_volume 4344.384025
_symmetry_space_group_name_H-M "I M M A"
_symmetry_group_IT_number 74
_symmetry_cell_setting 'orthorhombic'
loop_
_space_group_symop_operation_xyz
x,y,z
-x,1/2-y,z
x,-y,-z
-x,1/2+y,-z
-x,-y,-z
x,1/2+y,-z
-x,y,z
x,1/2-y,z
1/2+x,1/2+y,1/2+z
1/2-x,-y,1/2+z
1/2+x,1/2-y,1/2-z
1/2-x,y,1/2-z
1/2-x,1/2-y,1/2-z
1/2+x,y,1/2-z
1/2-x,1/2+y,1/2+z
1/2+x,-y,1/2+z
loop_
_atom_site_type_symbol
_atom_site_label
_atom_site_fract_x
_atom_site_fract_y
_atom_site_fract_z
Si Si1 0.317743 0.491711 0.403432
Si Si2 0.909863 0.750000 0.080304
Si Si3 0.837726 0.905417 0.454610
Si Si4 0.091541 0.750000 0.957110
Si Si5 0.588733 0.096525 0.845790
Si Si6 0.219609 0.595228 0.692733
O O1 0.372071 0.619976 0.392528
O O2 0.246072 0.535874 0.439242
O O3 0.368624 0.381731 0.433427
O O4 0.288013 0.437291 0.348102
O O5 0.000000 0.750000 0.094315
O O6 0.895257 0.750000 0.018633
O O7 0.828975 0.750000 0.473646
O O8 0.897940 0.916686 0.407382
O O9 0.872246 0.000000 0.500000
O O10 0.000000 0.750000 0.943100
O O11 0.500000 0.057299 0.833210
O O12 0.607513 0.250000 0.828177
O O13 0.643868 0.996711 0.814298
O O14 0.193365 0.750000 0.685593
O O15 0.250000 0.565700 0.750000
#
# Coordination Sequence:
#
# PCOD8299569 Si02
#       6
#    16   8  16   8  16  16
#     4  11  21  37  56  82 112 149 192 239 278 337
#     4  11  22  36  55  82 119 157 192 231 284 344
#     4  10  20  32  53  81 112 149 187 225 270 327
#     4  11  22  36  55  80 115 159 192 231 286 336
#     4   9  20  39  59  84 116 146 182 229 281 333
#     4  10  22  41  64  85 109 146 192 238 286 337
#
# _framework density 18.414579
#
# number of rings (size 3 to 8) (size 9 to 14) (size 15 to 20)
#    0.000    1.800    2.000    2.400    2.800    3.600 
#    0.000    2.000    0.000    0.000    0.000    0.000 
#    0.000    0.000    0.000    0.000    0.000    0.000 
#
# Total GULP energy -496127.988333 kJ/mol
# GULP energy per Si atom -12403.199708 kJ/mol
# Density = 1.837267 g / cm^3
# Si number density = 18.414579 Si / 1000 Ang^3
#
#
#
# Elastic Constant Matrix: (Units=GPa)
#
#
# Indices 1 2 3 4 5 6 
#
# 1 117.4537 69.6589 45.8013 0.0000 0.0000 0.0000
# 2 69.6589 150.8414 61.8273 0.0000 0.0000 0.0000
# 3 45.8013 61.8273 87.4673 0.0000 0.0000 0.0000
# 4 0.0000 0.0000 0.0000 28.5745 0.0000 0.0000
# 5 0.0000 0.0000 0.0000 0.0000 9.9018 0.0000
# 6 0.0000 0.0000 0.0000 0.0000 0.0000 22.3665
#
#
#
# Elastic Compliance Matrix: (Units=1/GPa)
#
#
# Indices 1 2 3 4 5 6 
#
# 1 0.012423 -0.004323 -0.003449 0.000000 0.000000 0.000000
# 2 -0.004323 0.010838 -0.005397 0.000000 0.000000 0.000000
# 3 -0.003449 -0.005397 0.017054 0.000000 0.000000 0.000000
# 4 0.000000 0.000000 0.000000 0.034996 0.000000 0.000000
# 5 0.000000 0.000000 0.000000 0.000000 0.100992 0.000000
# 6 0.000000 0.000000 0.000000 0.000000 0.000000 0.044710
#
#
# Mechanical properties :
#
#
# Convention : Reuss Voigt Hill
#
# Bulk Modulus (GPa) = 71.55212 78.92638 75.23925
# Shear Modulus (GPa) = 19.84039 24.06689 21.95364
#
# Velocity S-wave (km/s) = 3.28598 3.61909 3.45655
# Velocity P-wave (km/s) = 7.30325 7.77288 7.54172
#
# Compressibility (1/GPa) = 0.01397583
#
# Stress axis : x y z
#
# Youngs Moduli (GPa) = 80.49563 92.26619 58.63655
#
# Poissons Ratio (x) = 0.39888 0.20226
# Poissons Ratio (y) = 0.34800 0.31648
# Poissons Ratio (z) = 0.27765 0.49799
#
# Static dielectric constant tensor:
#      x y z
#    x 3.397990 0.000000 0.000000 
#    y 0.000000 3.605310 0.000000 
#    z 0.000000 0.000000 3.235270 
# 
# 
# High freq. dielectric constant tensor:
#      x y z
#    x 1.715890 0.000000 0.000000 
#    y 0.000000 1.733950 0.000000 
#    z 0.000000 0.000000 1.697920 
# 
# From -- ./inp_files/72875.got.cif
#   From: 2010.03.12/outbox.cif.g09.slc.cpg/sg74_37_cif.got.tgz:72875.got - 2010.04.16 15:46:19.
