data_PCOD8299307
_publ_section_title
;
Structure prediction by ZEFSAII (Michael W. Deem and Ramdas Pophale) SiO2 
 PCOD8299307
Probable space group: I M M A
;
_chemical_formula_sum "Si O2"
_cell_formula_units_Z 104
_cell_length_a 11.741638
_cell_length_b 27.393570
_cell_length_c 16.474420
_cell_angle_alpha 90.000000
_cell_angle_beta 90.000000
_cell_angle_gamma 90.000000
_cell_volume 5298.921122
_symmetry_space_group_name_H-M "I M M A"
_symmetry_group_IT_number 74
_symmetry_cell_setting 'orthorhombic'
loop_
_space_group_symop_operation_xyz
x,y,z
-x,1/2-y,z
x,-y,-z
-x,1/2+y,-z
-x,-y,-z
x,1/2+y,-z
-x,y,z
x,1/2-y,z
1/2+x,1/2+y,1/2+z
1/2-x,-y,1/2+z
1/2+x,1/2-y,1/2-z
1/2-x,y,1/2-z
1/2-x,1/2-y,1/2-z
1/2+x,y,1/2-z
1/2-x,1/2+y,1/2+z
1/2+x,-y,1/2+z
loop_
_atom_site_type_symbol
_atom_site_label
_atom_site_fract_x
_atom_site_fract_y
_atom_site_fract_z
Si Si1 0.871622 0.639046 0.780960
Si Si2 0.374335 0.097992 0.613198
Si Si3 0.750000 0.462446 0.750000
Si Si4 0.727219 0.889578 0.559212
Si Si5 0.874616 0.452631 0.331877
Si Si6 0.210341 0.304076 0.840124
Si Si7 0.631452 0.304867 0.987730
O O1 0.750000 0.665462 0.750000
O O2 0.867028 0.630736 0.877843
O O3 0.869914 0.586448 0.739952
O O4 0.000000 0.663472 0.762683
O O5 0.500000 0.075689 0.616411
O O6 0.298977 0.071410 0.679628
O O7 0.326956 0.090498 0.522993
O O8 0.381212 0.155856 0.632511
O O9 0.844560 0.495463 0.707015
O O10 0.791945 0.936389 0.595635
O O11 0.812181 0.844048 0.547141
O O12 0.000000 0.457073 0.369446
O O13 0.155540 0.250000 0.847972
O O14 0.250000 0.314904 0.750000
O O15 0.320975 0.309232 0.896837
O O16 0.500000 0.317747 0.982781
O O17 0.652389 0.250000 0.022092
#
# Coordination Sequence:
#
# PCOD8299307 Si02
#       7
#    16  16   8  16  16  16  16
#     4   9  17  33  58  85 111 144 192 244 290 346
#     4  11  24  38  56  83 117 151 184 235 294 341
#     4  12  22  42  53  82 115 150 188 246 286 340
#     4  10  19  37  57  86 113 148 195 237 281 352
#     4  10  20  38  61  82 108 150 195 238 290 345
#     4   9  18  36  57  80 110 146 193 232 271 339
#     4   9  18  32  54  85 119 151 185 235 293 345
#
# _framework density 19.626638
#
# number of rings (size 3 to 8) (size 9 to 14) (size 15 to 20)
#    0.000    2.154    3.077    1.385    0.000    2.154 
#    0.000    5.385    0.000    5.538    0.000    4.308 
#    0.000    0.000    0.000    0.000    0.000    0.000 
#
# Total GULP energy -644276.597968 kJ/mol
# GULP energy per Si atom -12389.934576 kJ/mol
# Density = 1.958197 g / cm^3
# Si number density = 19.626638 Si / 1000 Ang^3
#
#
#
# Elastic Constant Matrix: (Units=GPa)
#
#
# Indices 1 2 3 4 5 6 
#
# 1 111.8259 3.0878 26.9561 0.0000 0.0000 0.0000
# 2 3.0878 39.0333 18.0194 -0.0002 0.0000 0.0000
# 3 26.9561 18.0194 118.0935 -0.0004 0.0002 0.0000
# 4 0.0000 -0.0002 -0.0004 8.5909 0.0002 0.0001
# 5 0.0000 0.0000 0.0002 0.0002 14.5906 0.0000
# 6 0.0000 0.0000 0.0000 0.0001 0.0000 18.3557
#
#
#
# Elastic Compliance Matrix: (Units=1/GPa)
#
#
# Indices 1 2 3 4 5 6 
#
# 1 0.009466 0.000267 -0.002201 0.000000 0.000000 0.000000
# 2 0.000267 0.027568 -0.004268 0.000000 0.000000 0.000000
# 3 -0.002201 -0.004268 0.009622 0.000000 0.000000 0.000000
# 4 0.000000 0.000000 0.000000 0.116403 -0.000001 0.000000
# 5 0.000000 0.000000 0.000000 -0.000001 0.068537 0.000000
# 6 0.000000 0.000000 0.000000 0.000000 0.000000 0.054479
#
#
# Mechanical properties :
#
#
# Convention : Reuss Voigt Hill
#
# Bulk Modulus (GPa) = 29.19515 40.56438 34.87976
# Shear Modulus (GPa) = 16.13451 23.03340 19.58395
#
# Velocity S-wave (km/s) = 2.87029 3.42947 3.16226
# Velocity P-wave (km/s) = 5.08845 6.03279 5.58063
#
# Compressibility (1/GPa) = 0.03425227
#
# Stress axis : x y z
#
# Youngs Moduli (GPa) = 105.64392 36.27387 103.93342
#
# Poissons Ratio (x) = -0.00970 0.22881
# Poissons Ratio (y) = -0.02826 0.44354
# Poissons Ratio (z) = 0.23257 0.15480
#
# Static dielectric constant tensor:
#      x y z
#    x 3.969340 0.000000 0.000000 
#    y 0.000000 3.471390 0.000000 
#    z 0.000000 0.000000 3.601510 
# 
# 
# High freq. dielectric constant tensor:
#      x y z
#    x 1.766970 0.000000 0.000000 
#    y 0.000000 1.741930 0.000000 
#    z 0.000000 0.000000 1.771340 
# 
# From -- ./inp_files/41716.got.cif
#   From: 2010.03.12/outbox.cif.g09.slc.cpg/sg74_21_cif.got.tgz:41716.got - 2010.04.16 15:46:19.
