data_PCOD8299982
_publ_section_title
;
Structure prediction by ZEFSAII (Michael W. Deem and Ramdas Pophale) SiO2 
 PCOD8299982
Probable space group: I M M A
;
_chemical_formula_sum "Si O2"
_cell_formula_units_Z 96
_cell_length_a 14.262881
_cell_length_b 14.735557
_cell_length_c 20.881644
_cell_angle_alpha 90.000000
_cell_angle_beta 90.000000
_cell_angle_gamma 90.000000
_cell_volume 4388.726358
_symmetry_space_group_name_H-M "I M M A"
_symmetry_group_IT_number 74
_symmetry_cell_setting 'orthorhombic'
loop_
_space_group_symop_operation_xyz
x,y,z
-x,1/2-y,z
x,-y,-z
-x,1/2+y,-z
-x,-y,-z
x,1/2+y,-z
-x,y,z
x,1/2-y,z
1/2+x,1/2+y,1/2+z
1/2-x,-y,1/2+z
1/2+x,1/2-y,1/2-z
1/2-x,y,1/2-z
1/2-x,1/2-y,1/2-z
1/2+x,y,1/2-z
1/2-x,1/2+y,1/2+z
1/2+x,-y,1/2+z
loop_
_atom_site_type_symbol
_atom_site_label
_atom_site_fract_x
_atom_site_fract_y
_atom_site_fract_z
Si Si1 0.888512 0.036045 0.774834
Si Si2 0.388863 0.644361 0.151063
Si Si3 0.600804 0.851773 0.914868
Si Si4 0.605680 0.352282 0.604535
Si Si5 0.888868 0.851080 0.723199
Si Si6 0.224459 0.902327 0.471755
O O1 0.850635 0.094866 0.714889
O O2 0.853426 0.081054 0.840820
O O3 0.000000 0.041219 0.773600
O O4 0.852868 0.930620 0.771532
O O5 0.500000 0.634694 0.143963
O O6 0.358526 0.750000 0.152822
O O7 0.342218 0.595673 0.090066
O O8 0.500000 0.897597 0.934970
O O9 0.578307 0.750000 0.894740
O O10 0.639307 0.891254 0.847358
O O11 0.674472 0.847700 0.971963
O O12 0.500000 0.379207 0.583420
O O13 0.606405 0.250000 0.631738
O O14 0.674427 0.358856 0.543655
O O15 0.846491 0.750000 0.739532
O O16 0.000000 0.845286 0.727822
O O17 0.242384 0.000000 0.500000
#
# Coordination Sequence:
#
# PCOD8299982 Si02
#       6
#    16  16  16  16  16  16
#     4   9  17  32  55  83 114 144 180 229 281 334
#     4  10  20  34  55  86 122 154 183 221 273 335
#     4   9  17  31  52  80 116 152 181 212 258 324
#     4  10  22  41  62  80 102 140 191 244 291 329
#     4   8  14  26  49  82 117 150 178 210 266 342
#     4  12  24  35  52  79 111 149 188 230 276 328
#
# _framework density 21.874230000000001
#
# number of rings (size 3 to 8) (size 9 to 14) (size 15 to 20)
#    0.000    2.333    0.000    4.500    0.000    7.000 
#    0.000    1.667    0.000    3.000    0.000    5.833 
#    0.000    0.000    0.000    0.500    0.000    0.167 
#
# Total GULP energy -594725.562805 kJ/mol
# GULP energy per Si atom -12390.115892 kJ/mol
# Density = 2.182444 g / cm^3
# Si number density = 21.874230 Si / 1000 Ang^3
#
#
#
# Elastic Constant Matrix: (Units=GPa)
#
#
# Indices 1 2 3 4 5 6 
#
# 1 74.1963 24.4004 36.6665 0.0000 0.0000 0.0000
# 2 24.4004 120.4818 54.9365 0.0000 0.0000 0.0000
# 3 36.6665 54.9365 77.9280 0.0000 0.0000 0.0000
# 4 0.0000 0.0000 0.0000 54.6945 0.0000 0.0000
# 5 0.0000 0.0000 0.0000 0.0000 16.1326 0.0000
# 6 0.0000 0.0000 0.0000 0.0000 0.0000 2.6705
#
#
#
# Elastic Compliance Matrix: (Units=1/GPa)
#
#
# Indices 1 2 3 4 5 6 
#
# 1 0.017569 0.000311 -0.008486 0.000000 0.000000 0.000000
# 2 0.000311 0.012237 -0.008773 0.000000 0.000000 0.000000
# 3 -0.008486 -0.008773 0.023010 0.000000 0.000000 0.000000
# 4 0.000000 0.000000 0.000000 0.018283 0.000000 0.000000
# 5 0.000000 0.000000 0.000000 0.000000 0.061986 0.000000
# 6 0.000000 0.000000 0.000000 0.000000 0.000000 0.374462
#
#
# Mechanical properties :
#
#
# Convention : Reuss Voigt Hill
#
# Bulk Modulus (GPa) = 52.85327 56.06812 54.46070
# Shear Modulus (GPa) = 9.12823 25.13970 17.13397
#
# Velocity S-wave (km/s) = 2.04502 3.39379 2.80178
# Velocity P-wave (km/s) = 5.45811 6.40662 5.95129
#
# Compressibility (1/GPa) = 0.01892030
#
# Stress axis : x y z
#
# Youngs Moduli (GPa) = 56.91835 81.71665 43.45921
#
# Poissons Ratio (x) = -0.02543 0.36879
# Poissons Ratio (y) = -0.01771 0.38128
# Poissons Ratio (z) = 0.48301 0.71693
#
# Static dielectric constant tensor:
#      x y z
#    x 3.712800 0.000000 0.000000 
#    y 0.000000 4.142530 0.000000 
#    z 0.000000 0.000000 3.902110 
# 
# 
# High freq. dielectric constant tensor:
#      x y z
#    x 1.848130 0.000000 0.000000 
#    y 0.000000 1.868540 0.000000 
#    z 0.000000 0.000000 1.839650 
# 
# From -- ./inp_files/51914.got.cif
#   From: 2010.03.12/outbox.cif.g09.slc.cpg/sg74_26_cif.got.tgz:51914.got - 2010.04.16 15:46:19.
