data_PCOD8299904
_publ_section_title
;
Structure prediction by ZEFSAII (Michael W. Deem and Ramdas Pophale) SiO2 
 PCOD8299904
Probable space group: I M M A
;
_chemical_formula_sum "Si O2"
_cell_formula_units_Z 80
_cell_length_a 26.964936
_cell_length_b 8.792646
_cell_length_c 18.642998
_cell_angle_alpha 90.000000
_cell_angle_beta 90.000000
_cell_angle_gamma 90.000000
_cell_volume 4420.126873
_symmetry_space_group_name_H-M "I M M A"
_symmetry_group_IT_number 74
_symmetry_cell_setting 'orthorhombic'
loop_
_space_group_symop_operation_xyz
x,y,z
-x,1/2-y,z
x,-y,-z
-x,1/2+y,-z
-x,-y,-z
x,1/2+y,-z
-x,y,z
x,1/2-y,z
1/2+x,1/2+y,1/2+z
1/2-x,-y,1/2+z
1/2+x,1/2-y,1/2-z
1/2-x,y,1/2-z
1/2-x,1/2-y,1/2-z
1/2+x,y,1/2-z
1/2-x,1/2+y,1/2+z
1/2+x,-y,1/2+z
loop_
_atom_site_type_symbol
_atom_site_label
_atom_site_fract_x
_atom_site_fract_y
_atom_site_fract_z
Si Si1 0.108407 0.572391 0.784550
Si Si2 0.054118 0.572531 0.642243
Si Si3 0.556050 0.429616 0.427781
Si Si4 0.654797 0.431021 0.075400
Si Si5 0.199186 0.071742 0.712509
O O1 0.123110 0.750000 0.784678
O O2 0.065884 0.541941 0.725630
O O3 0.088353 0.515125 0.860723
O O4 0.156332 0.472867 0.767860
O O5 0.050648 0.750000 0.627299
O O6 0.099066 0.506936 0.593665
O O7 0.000000 0.498153 0.624042
O O8 0.579402 0.500000 0.500000
O O9 0.500000 0.489672 0.417516
O O10 0.556985 0.250000 0.433605
O O11 0.656110 0.250000 0.072335
O O12 0.692699 0.484842 0.136932
O O13 0.672056 0.500000 0.000000
O O14 0.197941 0.250000 0.696562
O O15 0.250000 0.020913 0.750000
#
# Coordination Sequence:
#
# PCOD8299904 Si02
#       5
#    16  16  16  16  16
#     4   9  17  30  50  73  97 129 167 207 249 295
#     4   8  14  26  46  72 100 131 166 200 236 282
#     4   9  17  29  46  70 101 135 168 202 244 295
#     4  10  20  34  54  78 105 136 167 202 243 289
#     4  10  21  37  56  76  98 126 163 209 257 301
#
# _framework density 18.099028000000001
#
# number of rings (size 3 to 8) (size 9 to 14) (size 15 to 20)
#    0.000    2.800    0.000    3.000    0.000    5.200 
#    0.000    1.000    0.000   21.600    0.000    0.000 
#    0.000    0.000    0.000    0.000    0.000    0.000 
#
# Total GULP energy -495866.098526 kJ/mol
# GULP energy per Si atom -12396.652463 kJ/mol
# Density = 1.805783 g / cm^3
# Si number density = 18.099028 Si / 1000 Ang^3
#
#
#
# Elastic Constant Matrix: (Units=GPa)
#
#
# Indices 1 2 3 4 5 6 
#
# 1 101.8583 30.1649 54.1922 0.0000 0.0000 0.0000
# 2 30.1649 43.6507 36.8907 0.0000 0.0000 0.0000
# 3 54.1922 36.8907 153.1483 0.0000 0.0000 0.0000
# 4 0.0000 0.0000 0.0000 30.6941 0.0000 0.0000
# 5 0.0000 0.0000 0.0000 0.0000 15.3563 0.0000
# 6 0.0000 0.0000 0.0000 0.0000 0.0000 20.6198
#
#
#
# Elastic Compliance Matrix: (Units=1/GPa)
#
#
# Indices 1 2 3 4 5 6 
#
# 1 0.013466 -0.006628 -0.003168 0.000000 0.000000 0.000000
# 2 -0.006628 0.032027 -0.005369 0.000000 0.000000 0.000000
# 3 -0.003168 -0.005369 0.008944 0.000000 0.000000 0.000000
# 4 0.000000 0.000000 0.000000 0.032580 0.000000 0.000000
# 5 0.000000 0.000000 0.000000 0.000000 0.065120 0.000000
# 6 0.000000 0.000000 0.000000 0.000000 0.000000 0.048497
#
#
# Mechanical properties :
#
#
# Convention : Reuss Voigt Hill
#
# Bulk Modulus (GPa) = 41.48382 60.12810 50.80596
# Shear Modulus (GPa) = 20.92038 25.16134 23.04086
#
# Velocity S-wave (km/s) = 3.40352 3.73259 3.57184
# Velocity P-wave (km/s) = 6.19802 7.20209 6.71884
#
# Compressibility (1/GPa) = 0.02410579
#
# Stress axis : x y z
#
# Youngs Moduli (GPa) = 74.26019 31.22334 111.80413
#
# Poissons Ratio (x) = 0.20695 0.35425
# Poissons Ratio (y) = 0.49220 0.60033
# Poissons Ratio (z) = 0.23529 0.16765
#
# Static dielectric constant tensor:
#      x y z
#    x 3.412790 0.000000 0.000000 
#    y 0.000000 3.096190 0.000000 
#    z 0.000000 0.000000 3.428500 
# 
# 
# High freq. dielectric constant tensor:
#      x y z
#    x 1.687560 0.000000 0.000000 
#    y 0.000000 1.681440 0.000000 
#    z 0.000000 0.000000 1.705280 
# 
# From -- ./inp_files/39709.got.cif
#   From: 2010.03.12/outbox.cif.g09.slc.cpg/sg74_20_cif.got.tgz:39709.got - 2010.04.16 15:46:19.
