data_PCOD8299786
_publ_section_title
;
Structure prediction by ZEFSAII (Michael W. Deem and Ramdas Pophale) SiO2 
 PCOD8299786
Probable space group: I M M A
;
_chemical_formula_sum "Si O2"
_cell_formula_units_Z 112
_cell_length_a 10.402952
_cell_length_b 15.522861
_cell_length_c 36.375965
_cell_angle_alpha 90.000000
_cell_angle_beta 90.000000
_cell_angle_gamma 90.000000
_cell_volume 5874.120977
_symmetry_space_group_name_H-M "I M M A"
_symmetry_group_IT_number 74
_symmetry_cell_setting 'orthorhombic'
loop_
_space_group_symop_operation_xyz
x,y,z
-x,1/2-y,z
x,-y,-z
-x,1/2+y,-z
-x,-y,-z
x,1/2+y,-z
-x,y,z
x,1/2-y,z
1/2+x,1/2+y,1/2+z
1/2-x,-y,1/2+z
1/2+x,1/2-y,1/2-z
1/2-x,y,1/2-z
1/2-x,1/2-y,1/2-z
1/2+x,y,1/2-z
1/2-x,1/2+y,1/2+z
1/2+x,-y,1/2+z
loop_
_atom_site_type_symbol
_atom_site_label
_atom_site_fract_x
_atom_site_fract_y
_atom_site_fract_z
Si Si1 0.635661 0.347514 0.934209
Si Si2 0.141467 0.019603 0.116699
Si Si3 0.352100 0.400544 0.780783
Si Si4 0.145164 0.346539 0.357878
Si Si5 0.857504 0.548188 0.037466
Si Si6 0.747383 0.346814 0.642796
Si Si7 0.357955 0.600765 0.777490
O O1 0.500000 0.394773 0.943743
O O2 0.621850 0.250000 0.945349
O O3 0.752135 0.378589 0.959150
O O4 0.653799 0.358702 0.890580
O O5 0.154289 0.013592 0.072729
O O6 0.148078 0.926146 0.137277
O O7 0.000000 0.056545 0.126853
O O8 0.252416 0.084965 0.127989
O O9 0.500000 0.379791 0.768756
O O10 0.250000 0.368002 0.750000
O O11 0.322331 0.352625 0.818785
O O12 0.332141 0.501538 0.787647
O O13 0.176963 0.250000 0.372323
O O14 0.151602 0.343119 0.313946
O O15 0.000000 0.373464 0.370168
O O16 0.000000 0.589762 0.036280
O O17 0.827492 0.500000 0.000000
O O18 0.683659 0.250000 0.640529
O O19 0.500000 0.611005 0.759515
O O20 0.250000 0.636067 0.750000
#
# Coordination Sequence:
#
# PCOD8299786 Si02
#       7
#    16  16  16  16  16  16  16
#     4   9  18  32  53  82 110 136 175 225 268 312
#     4  10  21  37  59  85 112 141 178 228 274 317
#     4  10  20  34  51  74 106 145 185 227 275 326
#     4  10  21  38  59  82 110 146 185 224 273 332
#     4   9  19  36  56  79 108 143 179 213 260 323
#     4  10  20  35  56  81 109 145 185 225 274 328
#     4   9  18  33  52  76 105 139 179 224 273 324
#
# _framework density 19.066682
#
# number of rings (size 3 to 8) (size 9 to 14) (size 15 to 20)
#    0.000    2.429    1.429    0.429    0.000    6.000 
#    0.000    3.571    0.000    4.286    0.000    0.000 
#    0.000    0.000    0.000    0.000    0.000    0.000 
#
# Total GULP energy -693863.854119 kJ/mol
# GULP energy per Si atom -12390.425966 kJ/mol
# Density = 1.902328 g / cm^3
# Si number density = 19.066682 Si / 1000 Ang^3
#
#
#
# Elastic Constant Matrix: (Units=GPa)
#
#
# Indices 1 2 3 4 5 6 
#
# 1 164.3840 63.6480 62.6237 0.0000 0.0000 0.0000
# 2 63.6480 86.0279 29.6644 0.0000 0.0000 0.0000
# 3 62.6237 29.6644 91.8081 0.0000 0.0000 0.0000
# 4 0.0000 0.0000 0.0000 17.7812 0.0000 0.0000
# 5 0.0000 0.0000 0.0000 0.0000 13.4006 0.0000
# 6 0.0000 0.0000 0.0000 0.0000 0.0000 18.4764
#
#
#
# Elastic Compliance Matrix: (Units=1/GPa)
#
#
# Indices 1 2 3 4 5 6 
#
# 1 0.010308 -0.005854 -0.005140 0.000000 0.000000 0.000000
# 2 -0.005854 0.016406 -0.001308 0.000000 0.000000 0.000000
# 3 -0.005140 -0.001308 0.014821 0.000000 0.000000 0.000000
# 4 0.000000 0.000000 0.000000 0.056239 0.000000 0.000000
# 5 0.000000 0.000000 0.000000 0.000000 0.074623 0.000000
# 6 0.000000 0.000000 0.000000 0.000000 0.000000 0.054123
#
#
# Mechanical properties :
#
#
# Convention : Reuss Voigt Hill
#
# Bulk Modulus (GPa) = 59.06114 72.67691 65.86903
# Shear Modulus (GPa) = 19.47281 22.35056 20.91168
#
# Velocity S-wave (km/s) = 3.19925 3.42750 3.31534
# Velocity P-wave (km/s) = 6.68508 7.33919 7.01975
#
# Compressibility (1/GPa) = 0.01693161
#
# Stress axis : x y z
#
# Youngs Moduli (GPa) = 97.01201 60.95209 67.47297
#
# Poissons Ratio (x) = 0.35682 0.34679
# Poissons Ratio (y) = 0.56792 0.08825
# Poissons Ratio (z) = 0.49861 0.07972
#
# Static dielectric constant tensor:
#      x y z
#    x 3.810020 0.000000 0.000000 
#    y 0.000000 3.405060 0.000000 
#    z 0.000000 0.000000 3.354410 
# 
# 
# High freq. dielectric constant tensor:
#      x y z
#    x 1.751460 0.000000 0.000000 
#    y 0.000000 1.725160 0.000000 
#    z 0.000000 0.000000 1.723260 
# 
# From -- ./inp_files/71869.got.cif
#   From: 2010.03.12/outbox.cif.g09.slc.cpg/sg74_36_cif.got.tgz:71869.got - 2010.04.16 15:46:19.
