data_PCOD8299131
_publ_section_title
;
Structure prediction by ZEFSAII (Michael W. Deem and Ramdas Pophale) SiO2 
 PCOD8299131
Probable space group: I M M A
;
_chemical_formula_sum "Si O2"
_cell_formula_units_Z 88
_cell_length_a 21.132001
_cell_length_b 20.207141
_cell_length_c 10.199689
_cell_angle_alpha 90.000000
_cell_angle_beta 90.000000
_cell_angle_gamma 90.000000
_cell_volume 4355.443901
_symmetry_space_group_name_H-M "I M M A"
_symmetry_group_IT_number 74
_symmetry_cell_setting 'orthorhombic'
loop_
_space_group_symop_operation_xyz
x,y,z
-x,1/2-y,z
x,-y,-z
-x,1/2+y,-z
-x,-y,-z
x,1/2+y,-z
-x,y,z
x,1/2-y,z
1/2+x,1/2+y,1/2+z
1/2-x,-y,1/2+z
1/2+x,1/2-y,1/2-z
1/2-x,y,1/2-z
1/2-x,1/2-y,1/2-z
1/2+x,y,1/2-z
1/2-x,1/2+y,1/2+z
1/2+x,-y,1/2+z
loop_
_atom_site_type_symbol
_atom_site_label
_atom_site_fract_x
_atom_site_fract_y
_atom_site_fract_z
Si Si1 0.623729 0.450718 0.620218
Si Si2 0.114628 0.671918 0.668160
Si Si3 0.500000 0.895794 0.957628
Si Si4 0.273158 0.324292 0.995000
Si Si5 0.129590 0.175042 0.043532
Si Si6 0.000000 0.027162 0.711069
Si Si7 0.250000 0.587232 0.250000
O O1 0.632095 0.500000 0.500000
O O2 0.609858 0.375537 0.571137
O O3 0.563516 0.472238 0.703832
O O4 0.689690 0.455894 0.701625
O O5 0.115237 0.750000 0.676227
O O6 0.060614 0.647787 0.572148
O O7 0.180111 0.646100 0.605326
O O8 0.103588 0.647061 0.817495
O O9 0.500000 0.960654 0.870599
O O10 0.500000 0.911090 0.112113
O O11 0.293589 0.250000 0.954545
O O12 0.277213 0.367989 0.865666
O O13 0.204699 0.324313 0.059765
O O14 0.105007 0.250000 0.011027
#
# Coordination Sequence:
#
# PCOD8299131 Si02
#       7
#    16  16   8  16  16   8   8
#     4  11  23  43  61  89 116 161 198 252 300 364
#     4  10  19  34  57  87 119 149 192 243 292 349
#     4  11  23  40  57  84 107 161 192 246 292 352
#     4   9  17  32  57  85 118 155 188 237 300 358
#     4   9  19  36  60  89 118 152 198 244 299 356
#     4  11  25  44  63  78 117 157 212 234 302 376
#     4  10  21  38  56  88 119 146 202 248 304 358
#
# _framework density 20.204599000000002
#
# number of rings (size 3 to 8) (size 9 to 14) (size 15 to 20)
#    0.000    2.000    0.000    3.545    0.000    3.636 
#   16.364    3.182    0.000    0.000    0.000    0.000 
#    0.000    0.000    0.000    0.000    0.000    0.000 
#
# Total GULP energy -545534.961861 kJ/mol
# GULP energy per Si atom -12398.521860 kJ/mol
# Density = 2.015861 g / cm^3
# Si number density = 20.204599 Si / 1000 Ang^3
#
#
#
# Elastic Constant Matrix: (Units=GPa)
#
#
# Indices 1 2 3 4 5 6 
#
# 1 94.6707 14.4472 35.9673 0.0000 0.0000 0.0000
# 2 14.4472 27.0466 24.5737 0.0000 0.0000 0.0000
# 3 35.9673 24.5737 95.5093 0.0000 0.0000 0.0000
# 4 0.0000 0.0000 0.0000 34.6911 0.0000 0.0000
# 5 0.0000 0.0000 0.0000 0.0000 41.9805 0.0000
# 6 0.0000 0.0000 0.0000 0.0000 0.0000 55.2525
#
#
#
# Elastic Compliance Matrix: (Units=1/GPa)
#
#
# Indices 1 2 3 4 5 6 
#
# 1 0.012527 -0.003139 -0.003910 0.000000 0.000000 0.000000
# 2 -0.003139 0.049040 -0.011435 0.000000 0.000000 0.000000
# 3 -0.003910 -0.011435 0.014885 0.000000 0.000000 0.000000
# 4 0.000000 0.000000 0.000000 0.028826 0.000000 0.000000
# 5 0.000000 0.000000 0.000000 0.000000 0.023821 0.000000
# 6 0.000000 0.000000 0.000000 0.000000 0.000000 0.018099
#
#
# Mechanical properties :
#
#
# Convention : Reuss Voigt Hill
#
# Bulk Modulus (GPa) = 25.32724 40.80035 33.06380
# Shear Modulus (GPa) = 25.33859 35.86737 30.60298
#
# Velocity S-wave (km/s) = 3.54517 4.21789 3.89608
# Velocity P-wave (km/s) = 5.41482 6.63010 6.05304
#
# Compressibility (1/GPa) = 0.03948318
#
# Stress axis : x y z
#
# Youngs Moduli (GPa) = 79.82466 20.39154 67.18252
#
# Poissons Ratio (x) = 0.06401 0.26268
# Poissons Ratio (y) = 0.25059 0.76826
# Poissons Ratio (z) = 0.31211 0.23318
#
# Static dielectric constant tensor:
#      x y z
#    x 3.613760 0.000000 0.000000 
#    y 0.000000 3.742780 0.000000 
#    z 0.000000 0.000000 3.703380 
# 
# 
# High freq. dielectric constant tensor:
#      x y z
#    x 1.786510 0.000000 0.000000 
#    y 0.000000 1.784610 0.000000 
#    z 0.000000 0.000000 1.796780 
# 
# From -- ./inp_files/13784.got.cif
#   From: 2010.03.12/outbox.cif.g09.slc.cpg/sg74_7_cif.got.tgz:13784.got - 2010.04.16 15:46:19.
