data_PCOD8299483
_publ_section_title
;
Structure prediction by ZEFSAII (Michael W. Deem and Ramdas Pophale) SiO2 
 PCOD8299483
Probable space group: I M M A
;
_chemical_formula_sum "Si O2"
_cell_formula_units_Z 96
_cell_length_a 14.263959
_cell_length_b 14.655809
_cell_length_c 28.504727
_cell_angle_alpha 90.000000
_cell_angle_beta 90.000000
_cell_angle_gamma 90.000000
_cell_volume 5958.909151
_symmetry_space_group_name_H-M "I M M A"
_symmetry_group_IT_number 74
_symmetry_cell_setting 'orthorhombic'
loop_
_space_group_symop_operation_xyz
x,y,z
-x,1/2-y,z
x,-y,-z
-x,1/2+y,-z
-x,-y,-z
x,1/2+y,-z
-x,y,z
x,1/2-y,z
1/2+x,1/2+y,1/2+z
1/2-x,-y,1/2+z
1/2+x,1/2-y,1/2-z
1/2-x,y,1/2-z
1/2-x,1/2-y,1/2-z
1/2+x,y,1/2-z
1/2-x,1/2+y,1/2+z
1/2+x,-y,1/2+z
loop_
_atom_site_type_symbol
_atom_site_label
_atom_site_fract_x
_atom_site_fract_y
_atom_site_fract_z
Si Si1 0.893639 0.147957 0.123317
Si Si2 0.889027 0.066733 0.374697
Si Si3 0.697556 0.940335 0.048340
Si Si4 0.388807 0.750000 0.921394
Si Si5 0.388677 0.250000 0.973787
Si Si6 0.734949 0.856090 0.803412
Si Si7 0.101426 0.486208 0.945541
O O1 0.873400 0.250000 0.104445
O O2 0.830491 0.125434 0.168252
O O3 0.000000 0.137947 0.141078
O O4 0.873355 0.081383 0.079760
O O5 0.849404 0.160508 0.396765
O O6 0.843660 0.072695 0.322953
O O7 0.000000 0.060277 0.370571
O O8 0.852835 0.986999 0.407738
O O9 0.650467 0.841946 0.048513
O O10 0.807247 0.922697 0.061003
O O11 0.683893 0.000000 0.000000
O O12 0.500000 0.750000 0.919949
O O13 0.351300 0.750000 0.973653
O O14 0.500000 0.250000 0.969420
O O15 0.702494 0.750000 0.806626
O O16 0.750000 0.884882 0.750000
O O17 0.000000 0.447297 0.926343
O O18 0.087573 0.500000 0.000000
#
# Coordination Sequence:
#
# PCOD8299483 Si02
#       7
#    16  16  16   8   8  16  16
#     4   9  17  31  51  71  96 134 173 208 253 303
#     4  11  20  32  50  74 104 139 174 208 252 309
#     4  11  21  34  52  76 104 142 174 210 254 307
#     4   9  18  30  47  70 100 139 176 205 241 295
#     4  11  22  34  49  76 109 141 178 213 249 304
#     4  10  20  32  47  71 102 135 173 215 257 304
#     4   9  18  33  49  70  99 130 170 214 251 297
#
# _framework density 16.110330999999999
#
# number of rings (size 3 to 8) (size 9 to 14) (size 15 to 20)
#    0.000    2.000    4.167    0.500    0.000    1.333 
#    6.000    2.083    0.000    0.000    0.000    0.583 
#    0.000    0.000    0.000    0.000    0.000    0.000 
#
# Total GULP energy -594738.859984 kJ/mol
# GULP energy per Si atom -12390.392916 kJ/mol
# Density = 1.607366 g / cm^3
# Si number density = 16.110331 Si / 1000 Ang^3
#
#
#
# Elastic Constant Matrix: (Units=GPa)
#
#
# Indices 1 2 3 4 5 6 
#
# 1 114.9784 40.7207 43.6085 0.0000 0.0000 0.0000
# 2 40.7207 80.3149 44.0235 0.0000 0.0000 0.0000
# 3 43.6085 44.0235 110.8606 0.0000 0.0000 0.0000
# 4 0.0000 0.0000 0.0000 6.4607 0.0000 0.0000
# 5 0.0000 0.0000 0.0000 0.0000 -6.3965 0.0000
# 6 0.0000 0.0000 0.0000 0.0000 0.0000 23.1147
#
#
#
# Elastic Compliance Matrix: (Units=1/GPa)
#
#
# Indices 1 2 3 4 5 6 
#
# 1 0.011222 -0.004180 -0.002755 0.000000 0.000000 0.000000
# 2 -0.004180 0.017472 -0.005294 0.000000 0.000000 0.000000
# 3 -0.002755 -0.005294 0.012206 0.000000 0.000000 0.000000
# 4 0.000000 0.000000 0.000000 0.154781 0.000000 0.000000
# 5 0.000000 0.000000 0.000000 0.000000 -0.156336 0.000000
# 6 0.000000 0.000000 0.000000 0.000000 0.000000 0.043262
#
#
# Mechanical properties :
#
#
# Convention : Reuss Voigt Hill
#
# Bulk Modulus (GPa) = 60.81436 62.53992 61.67714
# Shear Modulus (GPa) = 44.42618 16.48923 30.45770
#
# Velocity S-wave (km/s) = 5.25700 3.20272 4.35279
# Velocity P-wave (km/s) = 8.64168 7.25125 7.97682
#
# Compressibility (1/GPa) = 0.01644348
#
# Stress axis : x y z
#
# Youngs Moduli (GPa) = 89.10736 57.23388 81.92565
#
# Poissons Ratio (x) = 0.23924 0.22567
# Poissons Ratio (y) = 0.37247 0.43372
# Poissons Ratio (z) = 0.24545 0.30300
#
# Static dielectric constant tensor:
#      x y z
#    x 3.406720 0.000000 0.000000 
#    y 0.000000 2.739500 0.000000 
#    z 0.000000 0.000000 2.966940 
# 
# 
# High freq. dielectric constant tensor:
#      x y z
#    x 1.644510 0.000000 0.000000 
#    y 0.000000 1.583660 0.000000 
#    z 0.000000 0.000000 1.600210 
# 
# From -- ./inp_files/67121.got.cif
#   From: 2010.03.12/outbox.cif.g09.slc.cpg/sg74_34_cif.got.tgz:67121.got - 2010.04.16 15:46:19.
