data_PCOD8299863
_publ_section_title
;
Structure prediction by ZEFSAII (Michael W. Deem and Ramdas Pophale) SiO2 
 PCOD8299863
Probable space group: I M M A
;
_chemical_formula_sum "Si O2"
_cell_formula_units_Z 80
_cell_length_a 27.389134
_cell_length_b 9.053160
_cell_length_c 17.762210
_cell_angle_alpha 90.000000
_cell_angle_beta 90.000000
_cell_angle_gamma 90.000000
_cell_volume 4404.285839
_symmetry_space_group_name_H-M "I M M A"
_symmetry_group_IT_number 74
_symmetry_cell_setting 'orthorhombic'
loop_
_space_group_symop_operation_xyz
x,y,z
-x,1/2-y,z
x,-y,-z
-x,1/2+y,-z
-x,-y,-z
x,1/2+y,-z
-x,y,z
x,1/2-y,z
1/2+x,1/2+y,1/2+z
1/2-x,-y,1/2+z
1/2+x,1/2-y,1/2-z
1/2-x,y,1/2-z
1/2-x,1/2-y,1/2-z
1/2+x,y,1/2-z
1/2-x,1/2+y,1/2+z
1/2+x,-y,1/2+z
loop_
_atom_site_type_symbol
_atom_site_label
_atom_site_fract_x
_atom_site_fract_y
_atom_site_fract_z
Si Si1 0.786667 0.920098 0.576766
Si Si2 0.805436 0.421206 0.852170
Si Si3 0.555273 0.922912 0.267081
Si Si4 0.407156 0.917963 0.425261
Si Si5 0.853713 0.580105 0.715316
O O1 0.773927 0.750000 0.560221
O O2 0.832808 0.935133 0.631640
O O3 0.801354 0.000000 0.500000
O O4 0.739974 0.994256 0.613887
O O5 0.792486 0.250000 0.839581
O O6 0.849720 0.440296 0.910574
O O7 0.819054 0.490299 0.771798
O O8 0.500000 0.954221 0.241285
O O9 0.568779 0.750000 0.261524
O O10 0.562847 0.977156 0.353081
O O11 0.591637 0.013485 0.213365
O O12 0.420798 0.750000 0.439395
O O13 0.424181 0.000000 0.500000
O O14 0.855275 0.750000 0.741626
#
# Coordination Sequence:
#
# PCOD8299863 Si02
#       5
#    16  16  16  16  16
#     4  11  23  36  52  77 108 139 171 211 257 306
#     4  10  20  34  53  76 105 143 180 211 248 298
#     4   9  19  36  55  74  98 131 172 216 263 315
#     4   9  18  30  45  70 103 136 169 205 244 289
#     4  10  21  36  54  78 106 134 170 216 259 304
#
# _framework density 18.164124999999999
#
# number of rings (size 3 to 8) (size 9 to 14) (size 15 to 20)
#    0.000    2.200    0.000    4.200    0.000   12.000 
#    0.000    0.000    0.000    0.600    0.000    0.000 
#    0.000    0.000    0.000    0.000    0.000    0.000 
#
# Total GULP energy -496084.991065 kJ/mol
# GULP energy per Si atom -12402.124777 kJ/mol
# Density = 1.812278 g / cm^3
# Si number density = 18.164125 Si / 1000 Ang^3
#
#
#
# Elastic Constant Matrix: (Units=GPa)
#
#
# Indices 1 2 3 4 5 6 
#
# 1 91.3110 53.8012 43.6769 0.0000 0.0000 0.0000
# 2 53.8012 122.2823 56.0270 0.0000 0.0000 0.0000
# 3 43.6769 56.0270 85.4746 0.0000 0.0000 0.0000
# 4 0.0000 0.0000 0.0000 32.6209 0.0000 0.0000
# 5 0.0000 0.0000 0.0000 0.0000 10.0907 0.0000
# 6 0.0000 0.0000 0.0000 0.0000 0.0000 20.9855
#
#
#
# Elastic Compliance Matrix: (Units=1/GPa)
#
#
# Indices 1 2 3 4 5 6 
#
# 1 0.016237 -0.004777 -0.005166 0.000000 0.000000 0.000000
# 2 -0.004777 0.013094 -0.006141 0.000000 0.000000 0.000000
# 3 -0.005166 -0.006141 0.018365 0.000000 0.000000 0.000000
# 4 0.000000 0.000000 0.000000 0.030655 0.000000 0.000000
# 5 0.000000 0.000000 0.000000 0.000000 0.099102 0.000000
# 6 0.000000 0.000000 0.000000 0.000000 0.000000 0.047652
#
#
# Mechanical properties :
#
#
# Convention : Reuss Voigt Hill
#
# Bulk Modulus (GPa) = 64.40544 67.34205 65.87375
# Shear Modulus (GPa) = 19.05136 22.44360 20.74748
#
# Velocity S-wave (km/s) = 3.24210 3.51892 3.38335
# Velocity P-wave (km/s) = 7.03914 7.32565 7.18382
#
# Compressibility (1/GPa) = 0.01552664
#
# Stress axis : x y z
#
# Youngs Moduli (GPa) = 61.58666 76.37374 54.45234
#
# Poissons Ratio (x) = 0.36485 0.28129
# Poissons Ratio (y) = 0.29421 0.33442
# Poissons Ratio (z) = 0.31814 0.46905
#
# Static dielectric constant tensor:
#      x y z
#    x 3.308610 0.000000 0.000000 
#    y 0.000000 3.478800 0.000000 
#    z 0.000000 0.000000 3.268250 
# 
# 
# High freq. dielectric constant tensor:
#      x y z
#    x 1.696590 0.000000 0.000000 
#    y 0.000000 1.713810 0.000000 
#    z 0.000000 0.000000 1.687520 
# 
# From -- ./inp_files/39674.got.cif
#   From: 2010.03.12/outbox.cif.g09.slc.cpg/sg74_20_cif.got.tgz:39674.got - 2010.04.16 15:46:19.
