data_PCOD8299224
_publ_section_title
;
Structure prediction by ZEFSAII (Michael W. Deem and Ramdas Pophale) SiO2 
 PCOD8299224
Probable space group: I M M A
;
_chemical_formula_sum "Si O2"
_cell_formula_units_Z 72
_cell_length_a 15.742806
_cell_length_b 26.178740
_cell_length_c 9.433767
_cell_angle_alpha 90.000000
_cell_angle_beta 90.000000
_cell_angle_gamma 90.000000
_cell_volume 3887.908443
_symmetry_space_group_name_H-M "I M M A"
_symmetry_group_IT_number 74
_symmetry_cell_setting 'orthorhombic'
loop_
_space_group_symop_operation_xyz
x,y,z
-x,1/2-y,z
x,-y,-z
-x,1/2+y,-z
-x,-y,-z
x,1/2+y,-z
-x,y,z
x,1/2-y,z
1/2+x,1/2+y,1/2+z
1/2-x,-y,1/2+z
1/2+x,1/2-y,1/2-z
1/2-x,y,1/2-z
1/2-x,1/2-y,1/2-z
1/2+x,y,1/2-z
1/2-x,1/2+y,1/2+z
1/2+x,-y,1/2+z
loop_
_atom_site_type_symbol
_atom_site_label
_atom_site_fract_x
_atom_site_fract_y
_atom_site_fract_z
Si Si1 0.094816 0.520496 0.843539
Si Si2 0.762385 0.360543 0.594337
Si Si3 0.336171 0.630172 0.671382
Si Si4 0.250000 0.958969 0.250000
Si Si5 0.598192 0.808232 0.920234
O O1 0.103551 0.581450 0.842185
O O2 0.165720 0.493505 0.747368
O O3 0.000000 0.506971 0.787550
O O4 0.107885 0.500000 0.000000
O O5 0.750000 0.334550 0.750000
O O6 0.687429 0.346259 0.483390
O O7 0.759173 0.422430 0.611329
O O8 0.852781 0.343023 0.533657
O O9 0.250000 0.613187 0.750000
O O10 0.384482 0.673721 0.759593
O O11 0.500000 0.813576 0.957435
O O12 0.629481 0.750000 0.933198
#
# Coordination Sequence:
#
# PCOD8299224 Si02
#       5
#    16  16  16   8  16
#     4  11  20  32  55  83 116 156 193 236 291 344
#     4   9  20  37  58  84 112 154 188 241 285 349
#     4  10  19  35  59  82 113 151 195 241 279 345
#     4  10  20  36  53  86 119 152 194 240 288 346
#     4  10  22  40  60  84 115 149 194 250 299 342
#
# _framework density 18.518954999999998
#
# number of rings (size 3 to 8) (size 9 to 14) (size 15 to 20)
#    0.667    1.333    3.333    0.667    0.000    5.333 
#    0.000    2.222    0.000    7.333    0.000    0.000 
#    0.000    0.000    0.000    0.000    0.000    0.000 
#
# Total GULP energy -446227.536943 kJ/mol
# GULP energy per Si atom -12395.209360 kJ/mol
# Density = 1.847681 g / cm^3
# Si number density = 18.518955 Si / 1000 Ang^3
#
#
#
# Elastic Constant Matrix: (Units=GPa)
#
#
# Indices 1 2 3 4 5 6 
#
# 1 110.4017 44.7045 34.1304 -0.0005 0.0005 -0.0329
# 2 44.7045 79.1860 26.0320 -0.0014 0.0002 -0.0320
# 3 34.1304 26.0320 110.5953 -0.0059 -0.0019 0.1258
# 4 -0.0005 -0.0014 -0.0059 24.3145 -0.0002 0.0064
# 5 0.0005 0.0002 -0.0019 -0.0002 22.4983 0.0180
# 6 -0.0329 -0.0320 0.1258 0.0064 0.0180 -228.7210
#
#
#
# Elastic Compliance Matrix: (Units=1/GPa)
#
#
# Indices 1 2 3 4 5 6 
#
# 1 0.012276 -0.006162 -0.002338 -0.000001 0.000000 -0.000002
# 2 -0.006162 0.016780 -0.002048 0.000000 0.000000 -0.000003
# 3 -0.002338 -0.002048 0.010246 0.000002 0.000001 0.000006
# 4 -0.000001 0.000000 0.000002 0.041128 0.000000 0.000001
# 5 0.000000 0.000000 0.000001 0.000000 0.044448 0.000003
# 6 -0.000002 -0.000003 0.000006 0.000001 0.000003 -0.004372
#
#
# Mechanical properties :
#
#
# Convention : Reuss Voigt Hill
#
# Bulk Modulus (GPa) = 54.92735 56.65743 55.79239
# Shear Modulus (GPa) = 33.85943 -23.36058 5.24943
#
# Velocity S-wave (km/s) = 4.28058 -3.55553 1.68546
# Velocity P-wave (km/s) = 7.35905 3.71550 5.82926
#
# Compressibility (1/GPa) = 0.01820587
#
# Stress axis : x y z
#
# Youngs Moduli (GPa) = 81.46234 59.59344 97.60271
#
# Poissons Ratio (x) = 0.36719 0.22820
# Poissons Ratio (y) = 0.50194 0.19992
# Poissons Ratio (z) = 0.19046 0.12206
#
# Static dielectric constant tensor:
#      x y z
#    x 3.363200 0.000000 0.000000 
#    y 0.000000 3.289210 0.000000 
#    z 0.000000 0.000000 3.376140 
# 
# 
# High freq. dielectric constant tensor:
#      x y z
#    x 1.717840 0.000000 0.000000 
#    y 0.000000 1.708850 0.000000 
#    z 0.000000 0.000000 1.711190 
# 
# From -- ./inp_files/9334.got.cif
#   From: 2010.03.12/outbox.cif.g09.slc.cpg/sg74_5_cif.got.tgz:9334.got - 2010.04.16 15:46:19.
