data_PCOD8299874
_publ_section_title
;
Structure prediction by ZEFSAII (Michael W. Deem and Ramdas Pophale) SiO2 
 PCOD8299874
Probable space group: I M M A
;
_chemical_formula_sum "Si O2"
_cell_formula_units_Z 104
_cell_length_a 9.038079
_cell_length_b 26.003294
_cell_length_c 23.295846
_cell_angle_alpha 90.000000
_cell_angle_beta 90.000000
_cell_angle_gamma 90.000000
_cell_volume 5474.985660
_symmetry_space_group_name_H-M "I M M A"
_symmetry_group_IT_number 74
_symmetry_cell_setting 'orthorhombic'
loop_
_space_group_symop_operation_xyz
x,y,z
-x,1/2-y,z
x,-y,-z
-x,1/2+y,-z
-x,-y,-z
x,1/2+y,-z
-x,y,z
x,1/2-y,z
1/2+x,1/2+y,1/2+z
1/2-x,-y,1/2+z
1/2+x,1/2-y,1/2-z
1/2-x,y,1/2-z
1/2-x,1/2-y,1/2-z
1/2+x,y,1/2-z
1/2-x,1/2+y,1/2+z
1/2+x,-y,1/2+z
loop_
_atom_site_type_symbol
_atom_site_label
_atom_site_fract_x
_atom_site_fract_y
_atom_site_fract_z
Si Si1 0.171062 0.191176 0.491161
Si Si2 0.673598 0.923282 0.309961
Si Si3 0.336606 0.194203 0.299555
Si Si4 0.171921 0.457058 0.190459
Si Si5 0.326845 0.660197 0.121817
Si Si6 0.665586 0.377891 0.402772
Si Si7 0.176068 0.250000 0.810869
O O1 0.235209 0.250000 0.481908
O O2 0.197361 0.173938 0.556007
O O3 0.241477 0.143674 0.455954
O O4 0.000000 0.192579 0.475151
O O5 0.500000 0.908806 0.307573
O O6 0.750000 0.907242 0.250000
O O7 0.758241 0.895323 0.362271
O O8 0.696332 0.983315 0.322396
O O9 0.500000 0.199219 0.275454
O O10 0.260857 0.250000 0.307364
O O11 0.250000 0.162480 0.250000
O O12 0.335294 0.169933 0.361064
O O13 0.250000 0.441131 0.250000
O O14 0.233222 0.425887 0.134255
O O15 0.000000 0.442111 0.197887
O O16 0.500000 0.662695 0.138314
O O17 0.230760 0.699625 0.157583
O O18 0.500000 0.391811 0.424367
O O19 0.250000 0.250000 0.750000
O O20 0.000000 0.250000 0.806185
#
# Coordination Sequence:
#
# PCOD8299874 Si02
#       7
#    16  16  16  16  16  16   8
#     4  10  22  40  58  78 108 147 188 234 283 331
#     4  10  20  36  58  86 116 149 186 226 279 341
#     4   9  17  28  43  67  99 131 168 218 274 330
#     4   9  19  35  56  83 116 148 185 235 286 335
#     4  11  22  40  60  82 115 150 186 233 279 328
#     4  10  20  34  53  78 106 142 187 233 279 331
#     4  12  24  38  60  90 120 150 183 222 275 338
#
# _framework density 18.995484000000001
#
# number of rings (size 3 to 8) (size 9 to 14) (size 15 to 20)
#    0.000    2.000    0.769    3.000    0.000    4.000 
#    0.000    2.308    0.000    4.615    0.000    0.000 
#    0.000    0.000    0.000    0.000    0.000    0.000 
#
# Total GULP energy -644283.566227 kJ/mol
# GULP energy per Si atom -12390.068581 kJ/mol
# Density = 1.895225 g / cm^3
# Si number density = 18.995484 Si / 1000 Ang^3
#
#
#
# Elastic Constant Matrix: (Units=GPa)
#
#
# Indices 1 2 3 4 5 6 
#
# 1 101.5287 43.0172 60.3255 0.0000 0.0000 0.0000
# 2 43.0172 103.4668 48.5251 0.0000 0.0000 0.0000
# 3 60.3255 48.5251 98.5701 -0.0001 0.0000 0.0000
# 4 0.0000 0.0000 -0.0001 40.8163 0.0000 0.0000
# 5 0.0000 0.0000 0.0000 0.0000 34.8540 0.0000
# 6 0.0000 0.0000 0.0000 0.0000 0.0000 27.2687
#
#
#
# Elastic Compliance Matrix: (Units=1/GPa)
#
#
# Indices 1 2 3 4 5 6 
#
# 1 0.016031 -0.002683 -0.008490 0.000000 0.000000 0.000000
# 2 -0.002683 0.013015 -0.004765 0.000000 0.000000 0.000000
# 3 -0.008490 -0.004765 0.017687 0.000000 0.000000 0.000000
# 4 0.000000 0.000000 0.000000 0.024500 0.000000 0.000000
# 5 0.000000 0.000000 0.000000 0.000000 0.028691 0.000000
# 6 0.000000 0.000000 0.000000 0.000000 0.000000 0.036672
#
#
# Mechanical properties :
#
#
# Convention : Reuss Voigt Hill
#
# Bulk Modulus (GPa) = 67.31207 67.47790 67.39499
# Shear Modulus (GPa) = 28.83088 30.70101 29.76595
#
# Velocity S-wave (km/s) = 3.90009 4.02459 3.96283
# Velocity P-wave (km/s) = 7.46952 7.56285 7.51633
#
# Compressibility (1/GPa) = 0.01485618
#
# Stress axis : x y z
#
# Youngs Moduli (GPa) = 62.37978 76.83253 56.53911
#
# Poissons Ratio (x) = 0.20616 0.48002
# Poissons Ratio (y) = 0.16738 0.26942
# Poissons Ratio (z) = 0.52961 0.36612
#
# Static dielectric constant tensor:
#      x y z
#    x 3.623920 0.000000 0.000000 
#    y 0.000000 3.664570 0.000000 
#    z 0.000000 0.000000 3.411230 
# 
# 
# High freq. dielectric constant tensor:
#      x y z
#    x 1.736530 0.000000 0.000000 
#    y 0.000000 1.746360 0.000000 
#    z 0.000000 0.000000 1.730980 
# 
# From -- ./inp_files/57584.got.cif
#   From: 2010.03.12/outbox.cif.g09.slc.cpg/sg74_29_cif.got.tgz:57584.got - 2010.04.16 15:46:19.
