data_PCOD8299880
_publ_section_title
;
Structure prediction by ZEFSAII (Michael W. Deem and Ramdas Pophale) SiO2 
 PCOD8299880
Probable space group: I M M A
;
_chemical_formula_sum "Si O2"
_cell_formula_units_Z 104
_cell_length_a 9.158053
_cell_length_b 20.776955
_cell_length_c 28.095006
_cell_angle_alpha 90.000000
_cell_angle_beta 90.000000
_cell_angle_gamma 90.000000
_cell_volume 5345.818147
_symmetry_space_group_name_H-M "I M M A"
_symmetry_group_IT_number 74
_symmetry_cell_setting 'orthorhombic'
loop_
_space_group_symop_operation_xyz
x,y,z
-x,1/2-y,z
x,-y,-z
-x,1/2+y,-z
-x,-y,-z
x,1/2+y,-z
-x,y,z
x,1/2-y,z
1/2+x,1/2+y,1/2+z
1/2-x,-y,1/2+z
1/2+x,1/2-y,1/2-z
1/2-x,y,1/2-z
1/2-x,1/2-y,1/2-z
1/2+x,y,1/2-z
1/2-x,1/2+y,1/2+z
1/2+x,-y,1/2+z
loop_
_atom_site_type_symbol
_atom_site_label
_atom_site_fract_x
_atom_site_fract_y
_atom_site_fract_z
Si Si1 0.833803 0.825270 0.643101
Si Si2 0.825480 0.250000 0.698640
Si Si3 0.673041 0.608281 0.559442
Si Si4 0.662424 0.487122 0.616765
Si Si5 0.334889 0.919253 0.704908
Si Si6 0.670257 0.356477 0.875083
Si Si7 0.831461 0.177767 0.519583
O O1 0.830432 0.750000 0.651065
O O2 0.752258 0.842138 0.594344
O O3 0.750490 0.856091 0.687657
O O4 0.000000 0.850994 0.640395
O O5 0.750000 0.250000 0.750000
O O6 0.772106 0.312741 0.668743
O O7 0.000000 0.250000 0.704936
O O8 0.500000 0.618712 0.563253
O O9 0.712554 0.534392 0.573513
O O10 0.730153 0.625148 0.506711
O O11 0.500000 0.461281 0.606238
O O12 0.665890 0.527106 0.664871
O O13 0.766588 0.427589 0.624465
O O14 0.500000 0.900075 0.718528
O O15 0.250000 0.948227 0.750000
O O16 0.500000 0.364463 0.868704
O O17 0.708568 0.322387 0.924780
O O18 0.801495 0.250000 0.500383
O O19 0.000000 0.158706 0.511291
#
# Coordination Sequence:
#
# PCOD8299880 Si02
#       7
#    16   8  16  16  16  16  16
#     4  10  20  34  53  78 109 146 189 235 280 331
#     4  10  22  42  64  90 120 150 188 238 293 350
#     4  10  21  36  54  81 116 153 190 233 282 334
#     4   9  21  39  56  79 114 149 185 232 284 339
#     4  10  21  37  56  78 107 144 185 233 285 337
#     4  10  21  39  62  85 113 148 186 231 284 340
#     4  10  20  36  58  83 114 151 191 236 281 335
#
# _framework density 19.454459
#
# number of rings (size 3 to 8) (size 9 to 14) (size 15 to 20)
#    0.000    2.154    0.769    2.769    0.000    9.846 
#    0.000    6.154    0.000    0.000    0.000    0.000 
#    0.000    0.000    0.000    0.000    0.000    0.000 
#
# Total GULP energy -644752.630575 kJ/mol
# GULP energy per Si atom -12399.089050 kJ/mol
# Density = 1.941018 g / cm^3
# Si number density = 19.454459 Si / 1000 Ang^3
#
#
#
# Elastic Constant Matrix: (Units=GPa)
#
#
# Indices 1 2 3 4 5 6 
#
# 1 97.4916 48.6374 57.1066 0.0000 0.0000 0.0000
# 2 48.6374 109.6148 52.7283 0.0000 0.0000 0.0000
# 3 57.1066 52.7283 107.0743 0.0000 0.0000 0.0000
# 4 0.0000 0.0000 0.0000 16.5363 0.0000 0.0000
# 5 0.0000 0.0000 0.0000 0.0000 36.8896 0.0000
# 6 0.0000 0.0000 0.0000 0.0000 0.0000 26.7348
#
#
#
# Elastic Compliance Matrix: (Units=1/GPa)
#
#
# Indices 1 2 3 4 5 6 
#
# 1 0.016128 -0.003956 -0.006654 0.000000 0.000000 0.000000
# 2 -0.003956 0.012925 -0.004255 0.000000 0.000000 0.000000
# 3 -0.006654 -0.004255 0.014984 0.000000 0.000000 0.000000
# 4 0.000000 0.000000 0.000000 0.060473 0.000000 0.000000
# 5 0.000000 0.000000 0.000000 0.000000 0.027108 0.000000
# 6 0.000000 0.000000 0.000000 0.000000 0.000000 0.037404
#
#
# Mechanical properties :
#
#
# Convention : Reuss Voigt Hill
#
# Bulk Modulus (GPa) = 69.89379 70.12502 70.00941
# Shear Modulus (GPa) = 24.56756 26.41270 25.49013
#
# Velocity S-wave (km/s) = 3.55748 3.68865 3.62366
# Velocity P-wave (km/s) = 7.27180 7.36651 7.31931
#
# Compressibility (1/GPa) = 0.01430742
#
# Stress axis : x y z
#
# Youngs Moduli (GPa) = 62.00296 77.37035 66.74008
#
# Poissons Ratio (x) = 0.30604 0.44408
# Poissons Ratio (y) = 0.24526 0.28399
# Poissons Ratio (z) = 0.41256 0.32922
#
# Static dielectric constant tensor:
#      x y z
#    x 3.675660 0.000000 0.000000 
#    y 0.000000 3.547350 0.000000 
#    z 0.000000 0.000000 3.666860 
# 
# 
# High freq. dielectric constant tensor:
#      x y z
#    x 1.759470 0.000000 0.000000 
#    y 0.000000 1.752680 0.000000 
#    z 0.000000 0.000000 1.760320 
# 
# From -- ./inp_files/64530.got.cif
#   From: 2010.03.12/outbox.cif.g09.slc.cpg/sg74_33_cif.got.tgz:64530.got - 2010.04.16 15:46:19.
