data_PCOD8299653
_publ_section_title
;
Structure prediction by ZEFSAII (Michael W. Deem and Ramdas Pophale) SiO2 
 PCOD8299653
Probable space group: I M M A
;
_chemical_formula_sum "Si O2"
_cell_formula_units_Z 96
_cell_length_a 29.949767
_cell_length_b 18.660488
_cell_length_c 9.538684
_cell_angle_alpha 90.000000
_cell_angle_beta 90.000000
_cell_angle_gamma 90.000000
_cell_volume 5330.953651
_symmetry_space_group_name_H-M "I M M A"
_symmetry_group_IT_number 74
_symmetry_cell_setting 'orthorhombic'
loop_
_space_group_symop_operation_xyz
x,y,z
-x,1/2-y,z
x,-y,-z
-x,1/2+y,-z
-x,-y,-z
x,1/2+y,-z
-x,y,z
x,1/2-y,z
1/2+x,1/2+y,1/2+z
1/2-x,-y,1/2+z
1/2+x,1/2-y,1/2-z
1/2-x,y,1/2-z
1/2-x,1/2-y,1/2-z
1/2+x,y,1/2-z
1/2-x,1/2+y,1/2+z
1/2+x,-y,1/2+z
loop_
_atom_site_type_symbol
_atom_site_label
_atom_site_fract_x
_atom_site_fract_y
_atom_site_fract_z
Si Si1 0.375851 0.331492 0.540959
Si Si2 0.447883 0.579621 0.963399
Si Si3 0.448385 0.833444 0.686606
Si Si4 0.616574 0.332323 0.865346
Si Si5 0.803853 0.569087 0.405792
Si Si6 0.203784 0.071169 0.918251
O O1 0.364608 0.250000 0.508953
O O2 0.416827 0.356512 0.442842
O O3 0.389327 0.344430 0.700726
O O4 0.329565 0.371891 0.512746
O O5 0.500000 0.579513 0.989365
O O6 0.436307 0.609715 0.808727
O O7 0.428591 0.500000 0.000000
O O8 0.428277 0.635714 0.072326
O O9 0.500000 0.842689 0.640730
O O10 0.440078 0.750000 0.731941
O O11 0.621279 0.250000 0.905668
O O12 0.659671 0.369963 0.935647
O O13 0.815099 0.500000 0.500000
O O14 0.806340 0.550690 0.241958
O O15 0.754435 0.599342 0.440541
O O16 0.195062 0.000000 0.000000
#
# Coordination Sequence:
#
# PCOD8299653 Si02
#       6
#    16  16  16  16  16  16
#     4   9  19  33  50  75 103 131 166 207 249 294
#     4  10  21  36  53  74 100 131 167 206 248 295
#     4   9  18  34  54  74  99 133 168 201 244 297
#     4  10  20  33  51  76 102 130 165 205 250 295
#     4   9  18  33  51  72 100 132 166 204 246 294
#     4   9  18  32  51  73  98 132 168 203 246 294
#
# _framework density 18.008033999999999
#
# number of rings (size 3 to 8) (size 9 to 14) (size 15 to 20)
#    0.000    2.667    0.000    1.000    0.000    6.333 
#    0.000    5.000    0.000    3.500    0.000    8.167 
#    0.000    0.000    0.000    0.000    0.000    0.000 
#
# Total GULP energy -594961.308938 kJ/mol
# GULP energy per Si atom -12395.027270 kJ/mol
# Density = 1.796705 g / cm^3
# Si number density = 18.008034 Si / 1000 Ang^3
#
#
#
# Elastic Constant Matrix: (Units=GPa)
#
#
# Indices 1 2 3 4 5 6 
#
# 1 86.7325 68.3793 62.3553 0.0000 0.0000 0.0000
# 2 68.3793 103.5896 66.5369 0.0000 0.0000 0.0000
# 3 62.3553 66.5369 66.1060 0.0000 0.0000 0.0000
# 4 0.0000 0.0000 0.0000 29.8748 0.0000 0.0000
# 5 0.0000 0.0000 0.0000 0.0000 28.5220 0.0000
# 6 0.0000 0.0000 0.0000 0.0000 0.0000 47.9206
#
#
#
# Elastic Compliance Matrix: (Units=1/GPa)
#
#
# Indices 1 2 3 4 5 6 
#
# 1 0.036964 -0.005670 -0.029159 0.000000 0.000000 0.000000
# 2 -0.005670 0.028178 -0.023013 0.000000 0.000000 0.000000
# 3 -0.029159 -0.023013 0.065795 0.000000 0.000000 0.000000
# 4 0.000000 0.000000 0.000000 0.033473 0.000000 0.000000
# 5 0.000000 0.000000 0.000000 0.000000 0.035061 0.000000
# 6 0.000000 0.000000 0.000000 0.000000 0.000000 0.020868
#
#
# Mechanical properties :
#
#
# Convention : Reuss Voigt Hill
#
# Bulk Modulus (GPa) = 65.56684 72.33011 68.94847
# Shear Modulus (GPa) = 14.65808 25.20725 19.93266
#
# Velocity S-wave (km/s) = 2.85612 3.74542 3.33058
# Velocity P-wave (km/s) = 6.88225 7.67834 7.29117
#
# Compressibility (1/GPa) = 0.01525161
#
# Stress axis : x y z
#
# Youngs Moduli (GPa) = 27.05334 35.48843 15.19866
#
# Poissons Ratio (x) = 0.20124 0.44318
# Poissons Ratio (y) = 0.15341 0.34977
# Poissons Ratio (z) = 0.78886 0.81670
#
# Static dielectric constant tensor:
#      x y z
#    x 3.507910 0.000000 0.000000 
#    y 0.000000 3.523850 0.000000 
#    z 0.000000 0.000000 3.360250 
# 
# 
# High freq. dielectric constant tensor:
#      x y z
#    x 1.707440 0.000000 0.000000 
#    y 0.000000 1.693380 0.000000 
#    z 0.000000 0.000000 1.692270 
# 
# From -- ./inp_files/15100.got.cif
#   From: 2010.03.12/outbox.cif.g09.slc.cpg/sg74_8_cif.got.tgz:15100.got - 2010.04.16 15:46:19.
