data_PCOD8299171
_publ_section_title
;
Structure prediction by ZEFSAII (Michael W. Deem and Ramdas Pophale) SiO2 
 PCOD8299171
Probable space group: I M M A
;
_chemical_formula_sum "Si O2"
_cell_formula_units_Z 72
_cell_length_a 13.207945
_cell_length_b 12.770345
_cell_length_c 22.896138
_cell_angle_alpha 90.000000
_cell_angle_beta 90.000000
_cell_angle_gamma 90.000000
_cell_volume 3861.891926
_symmetry_space_group_name_H-M "I M M A"
_symmetry_group_IT_number 74
_symmetry_cell_setting 'orthorhombic'
loop_
_space_group_symop_operation_xyz
x,y,z
-x,1/2-y,z
x,-y,-z
-x,1/2+y,-z
-x,-y,-z
x,1/2+y,-z
-x,y,z
x,1/2-y,z
1/2+x,1/2+y,1/2+z
1/2-x,-y,1/2+z
1/2+x,1/2-y,1/2-z
1/2-x,y,1/2-z
1/2-x,1/2-y,1/2-z
1/2+x,y,1/2-z
1/2-x,1/2+y,1/2+z
1/2+x,-y,1/2+z
loop_
_atom_site_type_symbol
_atom_site_label
_atom_site_fract_x
_atom_site_fract_y
_atom_site_fract_z
Si Si1 0.206912 0.631007 0.590530
Si Si2 0.500000 0.045284 0.063078
Si Si3 0.717866 0.958769 0.184612
Si Si4 0.889084 0.367518 0.893760
Si Si5 0.500000 0.374542 0.842675
Si Si6 0.325947 0.500000 0.500000
O O1 0.241487 0.750000 0.600962
O O2 0.089683 0.623386 0.577083
O O3 0.226827 0.567617 0.649935
O O4 0.259755 0.586377 0.532883
O O5 0.500000 0.935420 0.096930
O O6 0.500000 0.000000 0.000000
O O7 0.750000 0.982300 0.250000
O O8 0.798549 0.883396 0.152520
O O9 0.605016 0.908775 0.188861
O O10 0.877584 0.250000 0.917322
O O11 0.000000 0.383331 0.863443
O O12 0.890276 0.442386 0.950271
O O13 0.500000 0.250000 0.852199
#
# Coordination Sequence:
#
# PCOD8299171 Si02
#       6
#    16   8  16  16   8   8
#     4  10  20  35  57  81 112 151 190 230 281 337
#     4  10  19  35  50  84 117 152 187 228 278 326
#     4  10  23  40  57  82 114 145 190 241 280 330
#     4  10  21  36  57  83 111 149 187 226 285 341
#     4  10  22  37  58  85 113 146 185 230 287 338
#     4  10  19  35  54  84 116 141 180 234 281 330
#
# _framework density 18.643711
#
# number of rings (size 3 to 8) (size 9 to 14) (size 15 to 20)
#    0.000    2.000    1.111    2.000    1.556    3.111 
#    0.000    0.000    0.000    6.000    0.000    0.000 
#    0.000    0.000    0.000    0.000    0.000    0.000 
#
# Total GULP energy -446046.919142 kJ/mol
# GULP energy per Si atom -12390.192198 kJ/mol
# Density = 1.860128 g / cm^3
# Si number density = 18.643711 Si / 1000 Ang^3
#
#
#
# Elastic Constant Matrix: (Units=GPa)
#
#
# Indices 1 2 3 4 5 6 
#
# 1 134.0000 39.1732 41.8651 0.0000 0.0000 0.0000
# 2 39.1732 130.8282 29.1651 0.0000 0.0000 0.0000
# 3 41.8651 29.1651 104.8154 0.0000 0.0000 0.0000
# 4 0.0000 0.0000 0.0000 11.0845 0.0000 0.0000
# 5 0.0000 0.0000 0.0000 0.0000 -49.2917 0.0000
# 6 0.0000 0.0000 0.0000 0.0000 0.0000 16.9846
#
#
#
# Elastic Compliance Matrix: (Units=1/GPa)
#
#
# Indices 1 2 3 4 5 6 
#
# 1 0.009001 -0.002019 -0.003033 0.000000 0.000000 0.000000
# 2 -0.002019 0.008602 -0.001587 0.000000 0.000000 0.000000
# 3 -0.003033 -0.001587 0.011194 0.000000 0.000000 0.000000
# 4 0.000000 0.000000 0.000000 0.090216 0.000000 0.000000
# 5 0.000000 0.000000 0.000000 0.000000 -0.020287 0.000000
# 6 0.000000 0.000000 0.000000 0.000000 0.000000 0.058877
#
#
# Mechanical properties :
#
#
# Convention : Reuss Voigt Hill
#
# Bulk Modulus (GPa) = 64.44212 65.56116 65.00164
# Shear Modulus (GPa) = 28.40063 13.05152 20.72607
#
# Velocity S-wave (km/s) = 3.90723 2.64871 3.33782
# Velocity P-wave (km/s) = 7.41588 6.67802 7.05660
#
# Compressibility (1/GPa) = 0.01551780
#
# Stress axis : x y z
#
# Youngs Moduli (GPa) = 111.10487 116.25333 89.33571
#
# Poissons Ratio (x) = 0.23469 0.27098
# Poissons Ratio (y) = 0.22430 0.14179
# Poissons Ratio (z) = 0.33701 0.18451
#
# Static dielectric constant tensor:
#      x y z
#    x 3.752700 0.000000 0.000000 
#    y 0.000000 3.309800 0.000000 
#    z 0.000000 0.000000 3.236610 
# 
# 
# High freq. dielectric constant tensor:
#      x y z
#    x 1.738550 0.000000 0.000000 
#    y 0.000000 1.723780 0.000000 
#    z 0.000000 0.000000 1.714390 
# 
# From -- ./inp_files/59673.got.cif
#   From: 2010.03.12/outbox.cif.g09.slc.cpg/sg74_30_cif.got.tgz:59673.got - 2010.04.16 15:46:19.
