data_PCOD8299063
_publ_section_title
;
Structure prediction by ZEFSAII (Michael W. Deem and Ramdas Pophale) SiO2 
 PCOD8299063
Probable space group: I M M A
;
_chemical_formula_sum "Si O2"
_cell_formula_units_Z 56
_cell_length_a 9.352509
_cell_length_b 13.164696
_cell_length_c 23.443901
_cell_angle_alpha 90.000000
_cell_angle_beta 90.000000
_cell_angle_gamma 90.000000
_cell_volume 2886.481965
_symmetry_space_group_name_H-M "I M M A"
_symmetry_group_IT_number 74
_symmetry_cell_setting 'orthorhombic'
loop_
_space_group_symop_operation_xyz
x,y,z
-x,1/2-y,z
x,-y,-z
-x,1/2+y,-z
-x,-y,-z
x,1/2+y,-z
-x,y,z
x,1/2-y,z
1/2+x,1/2+y,1/2+z
1/2-x,-y,1/2+z
1/2+x,1/2-y,1/2-z
1/2-x,y,1/2-z
1/2-x,1/2-y,1/2-z
1/2+x,y,1/2-z
1/2-x,1/2+y,1/2+z
1/2+x,-y,1/2+z
loop_
_atom_site_type_symbol
_atom_site_label
_atom_site_fract_x
_atom_site_fract_y
_atom_site_fract_z
Si Si1 0.836000 0.950740 0.374782
Si Si2 0.166646 0.136236 0.106528
Si Si3 0.829951 0.750000 0.309354
Si Si4 0.841790 0.362558 0.505243
O O1 0.778835 0.850431 0.343176
O O2 0.814516 0.940618 0.443215
O O3 0.000000 0.969074 0.358574
O O4 0.746772 0.050631 0.355466
O O5 0.198763 0.250000 0.130397
O O6 0.000000 0.112249 0.107586
O O7 0.220021 0.128140 0.041735
O O8 0.750000 0.750000 0.250000
O O9 0.000000 0.750000 0.300783
O O10 0.839774 0.250000 0.532610
O O11 0.000000 0.382730 0.478154
#
# Coordination Sequence:
#
# PCOD8299063 Si02
#       4
#    16  16   8  16
#     4  10  19  34  55  76 102 137 178 220 260 311
#     4  10  21  33  46  73 112 146 176 213 257 309
#     4  10  22  40  60  84 108 132 172 226 277 322
#     4   9  16  29  49  73 103 141 180 215 254 305
#
# _framework density 19.400779
#
# number of rings (size 3 to 8) (size 9 to 14) (size 15 to 20)
#    0.000    2.286    1.429    1.714    0.000    7.429 
#    0.000    0.000    0.000    0.857    0.000    0.000 
#    0.000    0.000    0.000    0.000    0.000    0.000 
#
# Total GULP energy -347080.685493 kJ/mol
# GULP energy per Si atom -12395.738768 kJ/mol
# Density = 1.935662 g / cm^3
# Si number density = 19.400779 Si / 1000 Ang^3
#
#
#
# Elastic Constant Matrix: (Units=GPa)
#
#
# Indices 1 2 3 4 5 6 
#
# 1 84.7395 79.5094 25.6188 0.0000 0.0000 0.0000
# 2 79.5094 183.7175 27.4531 0.0000 0.0000 0.0000
# 3 25.6188 27.4531 41.9367 0.0000 0.0000 0.0000
# 4 0.0000 0.0000 0.0000 10.7357 0.0000 0.0000
# 5 0.0000 0.0000 0.0000 0.0000 23.4414 0.0000
# 6 0.0000 0.0000 0.0000 0.0000 0.0000 32.7015
#
#
#
# Elastic Compliance Matrix: (Units=1/GPa)
#
#
# Indices 1 2 3 4 5 6 
#
# 1 0.022055 -0.008348 -0.008008 0.000000 0.000000 0.000000
# 2 -0.008348 0.009193 -0.000918 0.000000 0.000000 0.000000
# 3 -0.008008 -0.000918 0.029339 0.000000 0.000000 0.000000
# 4 0.000000 0.000000 0.000000 0.093148 0.000000 0.000000
# 5 0.000000 0.000000 0.000000 0.000000 0.042660 0.000000
# 6 0.000000 0.000000 0.000000 0.000000 0.000000 0.030580
#
#
# Mechanical properties :
#
#
# Convention : Reuss Voigt Hill
#
# Bulk Modulus (GPa) = 38.40617 63.95069 51.17843
# Shear Modulus (GPa) = 18.50463 25.22987 21.86725
#
# Velocity S-wave (km/s) = 3.09173 3.61010 3.36092
# Velocity P-wave (km/s) = 5.70826 7.10011 6.44189
#
# Compressibility (1/GPa) = 0.02603748
#
# Stress axis : x y z
#
# Youngs Moduli (GPa) = 45.34117 108.77417 34.08460
#
# Poissons Ratio (x) = 0.90808 0.27296
# Poissons Ratio (y) = 0.37852 0.03130
# Poissons Ratio (z) = 0.36310 0.09989
#
# Static dielectric constant tensor:
#      x y z
#    x 3.402920 0.000000 0.000000 
#    y 0.000000 4.192230 0.000000 
#    z 0.000000 0.000000 2.950770 
# 
# 
# High freq. dielectric constant tensor:
#      x y z
#    x 1.744380 0.000000 0.000000 
#    y 0.000000 1.793830 0.000000 
#    z 0.000000 0.000000 1.690650 
# 
# From -- ./inp_files/47833.got.cif
#   From: 2010.03.12/outbox.cif.g09.slc.cpg/sg74_24_cif.got.tgz:47833.got - 2010.04.16 15:46:19.
