data_PCOD8299416
_publ_section_title
;
Structure prediction by ZEFSAII (Michael W. Deem and Ramdas Pophale) SiO2 
 PCOD8299416
Probable space group: I M M A
;
_chemical_formula_sum "Si O2"
_cell_formula_units_Z 80
_cell_length_a 9.382352
_cell_length_b 20.309279
_cell_length_c 22.818173
_cell_angle_alpha 90.000000
_cell_angle_beta 90.000000
_cell_angle_gamma 90.000000
_cell_volume 4347.975585
_symmetry_space_group_name_H-M "I M M A"
_symmetry_group_IT_number 74
_symmetry_cell_setting 'orthorhombic'
loop_
_space_group_symop_operation_xyz
x,y,z
-x,1/2-y,z
x,-y,-z
-x,1/2+y,-z
-x,-y,-z
x,1/2+y,-z
-x,y,z
x,1/2-y,z
1/2+x,1/2+y,1/2+z
1/2-x,-y,1/2+z
1/2+x,1/2-y,1/2-z
1/2-x,y,1/2-z
1/2-x,1/2-y,1/2-z
1/2+x,y,1/2-z
1/2-x,1/2+y,1/2+z
1/2+x,-y,1/2+z
loop_
_atom_site_type_symbol
_atom_site_label
_atom_site_fract_x
_atom_site_fract_y
_atom_site_fract_z
Si Si1 0.250000 0.030515 0.250000
Si Si2 0.671263 0.250000 0.188044
Si Si3 0.662322 0.822289 0.308987
Si Si4 0.341901 0.937169 0.152623
Si Si5 0.342710 0.871421 0.650658
Si Si6 0.340809 0.484874 0.432277
O O1 0.335440 0.076461 0.295404
O O2 0.347531 0.980737 0.212058
O O3 0.500000 0.250000 0.194588
O O4 0.750000 0.250000 0.250000
O O5 0.720895 0.315667 0.153921
O O6 0.500000 0.842693 0.295063
O O7 0.668128 0.750000 0.338948
O O8 0.750000 0.821232 0.250000
O O9 0.734312 0.875903 0.349924
O O10 0.500000 0.911051 0.140164
O O11 0.289235 0.979902 0.098818
O O12 0.500000 0.838751 0.654773
O O13 0.326520 0.908252 0.587840
O O14 0.319008 0.500000 0.500000
O O15 0.500000 0.509059 0.413185
#
# Coordination Sequence:
#
# PCOD8299416 Si02
#       6
#     8   8  16  16  16  16
#     4  10  20  31  51  80 116 144 178 216 272 324
#     4  12  24  36  54  82 120 154 186 225 276 339
#     4  10  20  33  50  74 106 142 178 215 262 319
#     4  11  21  32  53  82 112 143 178 224 275 328
#     4  10  20  35  57  82 112 147 185 224 272 331
#     4   9  20  39  61  83 109 142 185 234 279 327
#
# _framework density 18.399367999999999
#
# number of rings (size 3 to 8) (size 9 to 14) (size 15 to 20)
#    0.000    1.800    2.000    2.700    0.000    6.400 
#    0.000    0.000    2.200    0.000    0.000    0.000 
#    0.000    0.000    0.000    0.000    0.000    0.000 
#
# Total GULP energy -495625.127058 kJ/mol
# GULP energy per Si atom -12390.628176 kJ/mol
# Density = 1.835749 g / cm^3
# Si number density = 18.399368 Si / 1000 Ang^3
#
#
#
# Elastic Constant Matrix: (Units=GPa)
#
#
# Indices 1 2 3 4 5 6 
#
# 1 164.1127 62.3918 36.8698 0.0000 0.0000 0.0000
# 2 62.3918 104.6638 35.0997 0.0000 0.0000 0.0000
# 3 36.8698 35.0997 89.5761 0.0000 0.0000 0.0000
# 4 0.0000 0.0000 0.0000 16.7013 0.0000 0.0000
# 5 0.0000 0.0000 0.0000 0.0000 16.7153 0.0000
# 6 0.0000 0.0000 0.0000 0.0000 0.0000 24.2853
#
#
#
# Elastic Compliance Matrix: (Units=1/GPa)
#
#
# Indices 1 2 3 4 5 6 
#
# 1 0.008087 -0.004265 -0.001657 0.000000 0.000000 0.000000
# 2 -0.004265 0.013249 -0.003436 0.000000 0.000000 0.000000
# 3 -0.001657 -0.003436 0.013192 0.000000 0.000000 0.000000
# 4 0.000000 0.000000 0.000000 0.059876 0.000000 0.000000
# 5 0.000000 0.000000 0.000000 0.000000 0.059826 0.000000
# 6 0.000000 0.000000 0.000000 0.000000 0.000000 0.041177
#
#
# Mechanical properties :
#
#
# Convention : Reuss Voigt Hill
#
# Bulk Modulus (GPa) = 63.24528 69.67502 66.46015
# Shear Modulus (GPa) = 22.78997 26.47314 24.63155
#
# Velocity S-wave (km/s) = 3.52323 3.79728 3.66282
# Velocity P-wave (km/s) = 7.14137 7.56149 7.35443
#
# Compressibility (1/GPa) = 0.01581146
#
# Stress axis : x y z
#
# Youngs Moduli (GPa) = 123.65178 75.47634 75.80175
#
# Poissons Ratio (x) = 0.32191 0.12564
# Poissons Ratio (y) = 0.52738 0.26046
# Poissons Ratio (z) = 0.20495 0.25934
#
# Static dielectric constant tensor:
#      x y z
#    x 3.376830 0.000000 0.000000 
#    y 0.000000 3.762870 0.000000 
#    z 0.000000 0.000000 3.141630 
# 
# 
# High freq. dielectric constant tensor:
#      x y z
#    x 1.724900 0.000000 0.000000 
#    y 0.000000 1.716480 0.000000 
#    z 0.000000 0.000000 1.674050 
# 
# From -- ./inp_files/56893.got.cif
#   From: 2010.03.12/outbox.cif.g09.slc.cpg/sg74_29_cif.got.tgz:56893.got - 2010.04.16 15:46:19.
