data_PCOD8299318
_publ_section_title
;
Structure prediction by ZEFSAII (Michael W. Deem and Ramdas Pophale) SiO2 
 PCOD8299318
Probable space group: I M M A
;
_chemical_formula_sum "Si O2"
_cell_formula_units_Z 104
_cell_length_a 8.766207
_cell_length_b 20.772122
_cell_length_c 29.915258
_cell_angle_alpha 90.000000
_cell_angle_beta 90.000000
_cell_angle_gamma 90.000000
_cell_volume 5447.350737
_symmetry_space_group_name_H-M "I M M A"
_symmetry_group_IT_number 74
_symmetry_cell_setting 'orthorhombic'
loop_
_space_group_symop_operation_xyz
x,y,z
-x,1/2-y,z
x,-y,-z
-x,1/2+y,-z
-x,-y,-z
x,1/2+y,-z
-x,y,z
x,1/2-y,z
1/2+x,1/2+y,1/2+z
1/2-x,-y,1/2+z
1/2+x,1/2-y,1/2-z
1/2-x,y,1/2-z
1/2-x,1/2-y,1/2-z
1/2+x,y,1/2-z
1/2-x,1/2+y,1/2+z
1/2+x,-y,1/2+z
loop_
_atom_site_type_symbol
_atom_site_label
_atom_site_fract_x
_atom_site_fract_y
_atom_site_fract_z
Si Si1 0.680426 0.063000 0.471013
Si Si2 0.319123 0.678444 0.467070
Si Si3 0.319623 0.524950 0.882150
Si Si4 0.319999 0.110252 0.201078
Si Si5 0.179306 0.111573 0.877801
Si Si6 0.678425 0.250000 0.202351
Si Si7 0.679071 0.822364 0.204553
O O1 0.500000 0.064044 0.461401
O O2 0.738011 0.126624 0.496977
O O3 0.774414 0.067428 0.424998
O O4 0.723489 0.000000 0.500000
O O5 0.500000 0.679169 0.467494
O O6 0.253965 0.750000 0.477648
O O7 0.263992 0.657107 0.417960
O O8 0.500000 0.511309 0.881631
O O9 0.266168 0.559104 0.836088
O O10 0.221569 0.461077 0.888945
O O11 0.500000 0.106428 0.207434
O O12 0.250000 0.095395 0.250000
O O13 0.271558 0.181267 0.180859
O O14 0.269988 0.130676 0.834080
O O15 0.000000 0.118081 0.869720
O O16 0.500000 0.250000 0.207780
O O17 0.750000 0.250000 0.250000
O O18 0.500000 0.824017 0.209409
O O19 0.739031 0.750000 0.195121
O O20 0.750000 0.849564 0.250000
#
# Coordination Sequence:
#
# PCOD8299318 Si02
#       7
#    16  16  16  16  16   8  16
#     4  10  19  37  60  82 109 145 188 229 276 335
#     4   9  18  34  58  84 109 139 181 231 279 332
#     4  11  23  37  54  82 115 148 186 226 279 337
#     4   9  19  35  56  80 108 141 179 224 271 329
#     4  11  21  36  58  82 109 147 191 235 283 334
#     4   8  14  30  54  76 100 136 176 218 266 318
#     4  10  21  37  56  81 114 150 188 234 283 335
#
# _framework density 19.091849
#
# number of rings (size 3 to 8) (size 9 to 14) (size 15 to 20)
#    0.000    2.154    1.538    1.846    0.000    3.692 
#    1.385    1.538    0.000    1.846    0.000    0.000 
#    0.000    0.000    0.000    0.000    0.000    0.000 
#
# Total GULP energy -644545.221440 kJ/mol
# GULP energy per Si atom -12395.100412 kJ/mol
# Density = 1.904839 g / cm^3
# Si number density = 19.091849 Si / 1000 Ang^3
#
#
#
# Elastic Constant Matrix: (Units=GPa)
#
#
# Indices 1 2 3 4 5 6 
#
# 1 32.4929 12.8678 23.6211 0.0000 0.0000 0.0000
# 2 12.8678 123.4501 54.3464 0.0000 0.0000 0.0000
# 3 23.6211 54.3464 128.8054 0.0000 0.0000 0.0000
# 4 0.0000 0.0000 0.0000 20.1354 0.0000 0.0000
# 5 0.0000 0.0000 0.0000 0.0000 31.2978 0.0000
# 6 0.0000 0.0000 0.0000 0.0000 0.0000 23.2582
#
#
#
# Elastic Compliance Matrix: (Units=1/GPa)
#
#
# Indices 1 2 3 4 5 6 
#
# 1 0.035616 -0.001028 -0.006098 0.000000 0.000000 0.000000
# 2 -0.001028 0.009978 -0.004021 0.000000 0.000000 0.000000
# 3 -0.006098 -0.004021 0.010579 0.000000 0.000000 0.000000
# 4 0.000000 0.000000 0.000000 0.049664 0.000000 0.000000
# 5 0.000000 0.000000 0.000000 0.000000 0.031951 0.000000
# 6 0.000000 0.000000 0.000000 0.000000 0.000000 0.042996
#
#
# Mechanical properties :
#
#
# Convention : Reuss Voigt Hill
#
# Bulk Modulus (GPa) = 29.51758 51.82435 40.67097
# Shear Modulus (GPa) = 23.32416 27.86582 25.59499
#
# Velocity S-wave (km/s) = 3.49905 3.82457 3.66543
# Velocity P-wave (km/s) = 5.64082 6.83424 6.26601
#
# Compressibility (1/GPa) = 0.03387812
#
# Stress axis : x y z
#
# Youngs Moduli (GPa) = 28.07737 100.22097 94.53012
#
# Poissons Ratio (x) = 0.10303 0.57642
# Poissons Ratio (y) = 0.02886 0.38015
# Poissons Ratio (z) = 0.17121 0.40303
#
# Static dielectric constant tensor:
#      x y z
#    x 3.202490 0.000000 0.000000 
#    y 0.000000 2.794940 0.000000 
#    z 0.000000 0.000000 3.481500 
# 
# 
# High freq. dielectric constant tensor:
#      x y z
#    x 1.726230 0.000000 0.000000 
#    y 0.000000 1.750760 0.000000 
#    z 0.000000 0.000000 1.740080 
# 
# From -- ./inp_files/64507.got.cif
#   From: 2010.03.12/outbox.cif.g09.slc.cpg/sg74_33_cif.got.tgz:64507.got - 2010.04.16 15:46:19.
