data_PCOD8299484
_publ_section_title
;
Structure prediction by ZEFSAII (Michael W. Deem and Ramdas Pophale) SiO2 
 PCOD8299484
Probable space group: I M M A
;
_chemical_formula_sum "Si O2"
_cell_formula_units_Z 64
_cell_length_a 9.211857
_cell_length_b 24.063656
_cell_length_c 13.411862
_cell_angle_alpha 90.000000
_cell_angle_beta 90.000000
_cell_angle_gamma 90.000000
_cell_volume 2973.020298
_symmetry_space_group_name_H-M "I M M A"
_symmetry_group_IT_number 74
_symmetry_cell_setting 'orthorhombic'
loop_
_space_group_symop_operation_xyz
x,y,z
-x,1/2-y,z
x,-y,-z
-x,1/2+y,-z
-x,-y,-z
x,1/2+y,-z
-x,y,z
x,1/2-y,z
1/2+x,1/2+y,1/2+z
1/2-x,-y,1/2+z
1/2+x,1/2-y,1/2-z
1/2-x,y,1/2-z
1/2-x,1/2-y,1/2-z
1/2+x,y,1/2-z
1/2-x,1/2+y,1/2+z
1/2+x,-y,1/2+z
loop_
_atom_site_type_symbol
_atom_site_label
_atom_site_fract_x
_atom_site_fract_y
_atom_site_fract_z
Si Si1 0.340248 0.187080 0.338062
Si Si2 0.168829 0.584202 0.056266
Si Si3 0.830153 0.811387 0.458066
Si Si4 0.168768 0.469527 0.150228
O O1 0.500000 0.158351 0.353206
O O2 0.369173 0.250000 0.304499
O O3 0.250000 0.156369 0.250000
O O4 0.245907 0.186175 0.436291
O O5 0.257044 0.637222 0.101427
O O6 0.225253 0.529658 0.113283
O O7 0.000000 0.594367 0.076689
O O8 0.197529 0.576082 0.936830
O O9 0.802174 0.750000 0.409146
O O10 0.000000 0.822296 0.469692
O O11 0.250000 0.451018 0.250000
O O12 0.000000 0.474274 0.173611
#
# Coordination Sequence:
#
# PCOD8299484 Si02
#       4
#    16  16  16  16
#     4   9  16  26  40  58  84 122 166 208 250 299
#     4   9  19  36  55  78 109 142 176 215 264 322
#     4  10  20  32  47  71 103 138 176 217 260 308
#     4   9  19  36  58  82 107 136 173 220 271 320
#
# _framework density 21.52693
#
# number of rings (size 3 to 8) (size 9 to 14) (size 15 to 20)
#    0.000    2.750    0.000    3.000    0.000    7.500 
#    0.000    5.000    0.000    0.750    0.000    0.000 
#    0.000    0.000    0.000    0.000    0.000    0.000 
#
# Total GULP energy -396494.419132 kJ/mol
# GULP energy per Si atom -12390.450598 kJ/mol
# Density = 2.147793 g / cm^3
# Si number density = 21.526930 Si / 1000 Ang^3
#
#
#
# Elastic Constant Matrix: (Units=GPa)
#
#
# Indices 1 2 3 4 5 6 
#
# 1 92.9121 57.8130 5.8167 0.0000 0.0000 -0.0001
# 2 57.8130 146.2995 -0.5118 -0.0001 0.0000 0.0001
# 3 5.8167 -0.5118 30.6833 -0.0005 0.0000 -0.0002
# 4 0.0000 -0.0001 -0.0005 0.4292 0.0000 0.0000
# 5 0.0000 0.0000 0.0000 0.0000 24.4551 0.0000
# 6 -0.0001 0.0001 -0.0002 0.0000 0.0000 15.3257
#
#
#
# Elastic Compliance Matrix: (Units=1/GPa)
#
#
# Indices 1 2 3 4 5 6 
#
# 1 0.014517 -0.005747 -0.002848 -0.000003 0.000000 0.000000
# 2 -0.005747 0.009111 0.001241 0.000003 0.000000 0.000000
# 3 -0.002848 0.001241 0.033152 0.000035 0.000000 0.000000
# 4 -0.000003 0.000003 0.000035 2.329663 0.000001 -0.000004
# 5 0.000000 0.000000 0.000000 0.000001 0.040891 0.000000
# 6 0.000000 0.000000 0.000000 -0.000004 0.000000 0.065250
#
#
# Mechanical properties :
#
#
# Convention : Reuss Voigt Hill
#
# Bulk Modulus (GPa) = 23.76830 44.01453 33.89142
# Shear Modulus (GPa) = 1.98309 21.82714 11.90511
#
# Velocity S-wave (km/s) = 0.96084 3.18771 2.35422
# Velocity P-wave (km/s) = 3.50658 5.83432 4.81328
#
# Compressibility (1/GPa) = 0.04207284
#
# Stress axis : x y z
#
# Youngs Moduli (GPa) = 68.88542 109.76342 30.16445
#
# Poissons Ratio (x) = 0.63076 0.08590
# Poissons Ratio (y) = 0.39586 -0.03745
# Poissons Ratio (z) = 0.19618 -0.13626
#
# Static dielectric constant tensor:
#      x y z
#    x 4.801900 0.000000 0.000000 
#    y 0.000000 4.651170 0.000000 
#    z 0.000000 0.000000 3.397570 
# 
# 
# High freq. dielectric constant tensor:
#      x y z
#    x 1.842180 0.000000 0.000000 
#    y 0.000000 1.872370 0.000000 
#    z 0.000000 0.000000 1.792700 
# 
# From -- ./inp_files/28825.got.cif
#   From: 2010.03.12/outbox.cif.g09.slc.cpg/sg74_15_cif.got.tgz:28825.got - 2010.04.16 15:46:19.
