data_PCOD8299163
_publ_section_title
;
Structure prediction by ZEFSAII (Michael W. Deem and Ramdas Pophale) SiO2 
 PCOD8299163
Probable space group: I M M A
;
_chemical_formula_sum "Si O2"
_cell_formula_units_Z 92
_cell_length_a 26.095051
_cell_length_b 21.427053
_cell_length_c 8.567101
_cell_angle_alpha 90.000000
_cell_angle_beta 90.000000
_cell_angle_gamma 90.000000
_cell_volume 4790.209203
_symmetry_space_group_name_H-M "I M M A"
_symmetry_group_IT_number 74
_symmetry_cell_setting 'orthorhombic'
loop_
_space_group_symop_operation_xyz
x,y,z
-x,1/2-y,z
x,-y,-z
-x,1/2+y,-z
-x,-y,-z
x,1/2+y,-z
-x,y,z
x,1/2-y,z
1/2+x,1/2+y,1/2+z
1/2-x,-y,1/2+z
1/2+x,1/2-y,1/2-z
1/2-x,y,1/2-z
1/2-x,1/2-y,1/2-z
1/2+x,y,1/2-z
1/2-x,1/2+y,1/2+z
1/2+x,-y,1/2+z
loop_
_atom_site_type_symbol
_atom_site_label
_atom_site_fract_x
_atom_site_fract_y
_atom_site_fract_z
Si Si1 0.500000 0.750000 0.296764
Si Si2 0.093661 0.570552 0.563923
Si Si3 0.195858 0.431907 0.570469
Si Si4 0.943055 0.250000 0.099352
Si Si5 0.000000 0.121844 0.611996
Si Si6 0.595770 0.381077 0.396819
Si Si7 0.500000 0.568097 0.431181
Si Si8 0.308447 0.430851 0.565735
O O1 0.449695 0.750000 0.409502
O O2 0.500000 0.689768 0.187552
O O3 0.088749 0.500000 0.500000
O O4 0.148439 0.601683 0.516189
O O5 0.049505 0.614016 0.495806
O O6 0.090758 0.571473 0.751540
O O7 0.200747 0.500000 0.500000
O O8 0.251582 0.400781 0.539111
O O9 0.180947 0.434818 0.751150
O O10 0.910810 0.309670 0.157547
O O11 0.000000 0.250000 0.177681
O O12 0.000000 0.067489 0.743459
O O13 0.550388 0.395238 0.516901
O O14 0.650319 0.387137 0.481915
O O15 0.500000 0.500000 0.500000
O O16 0.313623 0.500000 0.500000
#
# Coordination Sequence:
#
# PCOD8299163 Si02
#       8
#     4  16  16   8   8  16   8  16
#     4  10  22  42  60  82 106 160 208 248 270 346
#     4  11  23  37  56  92 128 151 185 246 303 351
#     4   9  19  34  54  87 127 151 189 238 290 362
#     4  10  22  43  60  78 112 156 213 237 277 345
#     4  12  22  37  59  83 117 151 196 245 289 337
#     4  12  22  38  61  81 118 161 198 241 284 358
#     4  12  21  34  56  85 112 147 187 235 300 359
#     4  10  19  34  60  88 115 160 194 232 299 354
#
# _framework density 19.205842000000001
#
# number of rings (size 3 to 8) (size 9 to 14) (size 15 to 20)
#    0.261    1.043    2.609    5.478    0.000    2.783 
#    0.000    0.000    0.000    5.217    0.000    0.000 
#    0.000    0.000    0.000    0.000    0.000    0.000 
#
# Total GULP energy -570250.641090 kJ/mol
# GULP energy per Si atom -12396.753067 kJ/mol
# Density = 1.916213 g / cm^3
# Si number density = 19.205842 Si / 1000 Ang^3
#
#
#
# Elastic Constant Matrix: (Units=GPa)
#
#
# Indices 1 2 3 4 5 6 
#
# 1 154.4132 26.9516 46.5914 0.0000 0.0000 0.0000
# 2 26.9516 78.7575 9.4396 0.0000 0.0000 0.0000
# 3 46.5914 9.4396 101.1875 0.0000 0.0000 0.0000
# 4 0.0000 0.0000 0.0000 24.1078 0.0000 0.0000
# 5 0.0000 0.0000 0.0000 0.0000 30.6028 0.0000
# 6 0.0000 0.0000 0.0000 0.0000 0.0000 11.2466
#
#
#
# Elastic Compliance Matrix: (Units=1/GPa)
#
#
# Indices 1 2 3 4 5 6 
#
# 1 0.007911 -0.002296 -0.003429 0.000000 0.000000 0.000000
# 2 -0.002296 0.013507 -0.000203 0.000000 0.000000 0.000000
# 3 -0.003429 -0.000203 0.011480 0.000000 0.000000 0.000000
# 4 0.000000 0.000000 0.000000 0.041480 0.000000 0.000000
# 5 0.000000 0.000000 0.000000 0.000000 0.032677 0.000000
# 6 0.000000 0.000000 0.000000 0.000000 0.000000 0.088916
#
#
# Mechanical properties :
#
#
# Convention : Reuss Voigt Hill
#
# Bulk Modulus (GPa) = 47.52031 55.59150 51.55590
# Shear Modulus (GPa) = 23.27295 29.94981 26.61138
#
# Velocity S-wave (km/s) = 3.48482 3.95322 3.72639
# Velocity P-wave (km/s) = 6.40221 7.06012 6.73920
#
# Compressibility (1/GPa) = 0.02104363
#
# Stress axis : x y z
#
# Youngs Moduli (GPa) = 126.39886 74.03372 87.10633
#
# Poissons Ratio (x) = 0.17001 0.29865
# Poissons Ratio (y) = 0.29027 0.01766
# Poissons Ratio (z) = 0.43337 0.01501
#
# Static dielectric constant tensor:
#      x y z
#    x 4.120840 0.000000 0.000000 
#    y 0.000000 3.184580 0.000000 
#    z 0.000000 0.000000 3.614210 
# 
# 
# High freq. dielectric constant tensor:
#      x y z
#    x 1.763110 0.000000 0.000000 
#    y 0.000000 1.701760 0.000000 
#    z 0.000000 0.000000 1.756040 
# 
# From -- ./inp_files/15193.got.cif
#   From: 2010.03.12/outbox.cif.g09.slc.cpg/sg74_8_cif.got.tgz:15193.got - 2010.04.16 15:46:19.
