data_PCOD8299533
_publ_section_title
;
Structure prediction by ZEFSAII (Michael W. Deem and Ramdas Pophale) SiO2 
 PCOD8299533
Probable space group: I M M A
;
_chemical_formula_sum "Si O2"
_cell_formula_units_Z 120
_cell_length_a 8.876206
_cell_length_b 27.137258
_cell_length_c 27.852859
_cell_angle_alpha 90.000000
_cell_angle_beta 90.000000
_cell_angle_gamma 90.000000
_cell_volume 6709.082264
_symmetry_space_group_name_H-M "I M M A"
_symmetry_group_IT_number 74
_symmetry_cell_setting 'orthorhombic'
loop_
_space_group_symop_operation_xyz
x,y,z
-x,1/2-y,z
x,-y,-z
-x,1/2+y,-z
-x,-y,-z
x,1/2+y,-z
-x,y,z
x,1/2-y,z
1/2+x,1/2+y,1/2+z
1/2-x,-y,1/2+z
1/2+x,1/2-y,1/2-z
1/2-x,y,1/2-z
1/2-x,1/2-y,1/2-z
1/2+x,y,1/2-z
1/2-x,1/2+y,1/2+z
1/2+x,-y,1/2+z
loop_
_atom_site_type_symbol
_atom_site_label
_atom_site_fract_x
_atom_site_fract_y
_atom_site_fract_z
Si Si1 0.321081 0.345123 0.139354
Si Si2 0.177641 0.570822 0.800494
Si Si3 0.679172 0.695967 0.063848
Si Si4 0.678349 0.551548 0.015883
Si Si5 0.679014 0.148572 0.032088
Si Si6 0.821950 0.750000 0.698174
Si Si7 0.177414 0.401471 0.614653
Si Si8 0.676622 0.541782 0.299994
O O1 0.500000 0.352013 0.141732
O O2 0.244357 0.394764 0.158202
O O3 0.264530 0.335771 0.084797
O O4 0.266523 0.298350 0.169981
O O5 0.250000 0.586582 0.750000
O O6 0.220662 0.514468 0.813427
O O7 0.000000 0.578517 0.796531
O O8 0.500000 0.694783 0.062168
O O9 0.738779 0.750000 0.079796
O O10 0.731767 0.654237 0.101663
O O11 0.739516 0.684961 0.009754
O O12 0.500000 0.548882 0.011388
O O13 0.722524 0.563195 0.070583
O O14 0.753242 0.500000 0.000000
O O15 0.739158 0.593770 0.980173
O O16 0.500000 0.149033 0.031098
O O17 0.750000 0.750000 0.750000
O O18 0.000000 0.750000 0.703379
O O19 0.265636 0.420033 0.660714
O O20 0.000000 0.403229 0.625071
O O21 0.500000 0.547451 0.294571
O O22 0.750000 0.557272 0.250000
#
# Coordination Sequence:
#
# PCOD8299533 Si02
#       8
#    16  16  16  16  16   8  16  16
#     4  10  20  32  50  74  98 128 167 211 256 300
#     4  10  21  36  52  71  95 125 164 206 252 304
#     4   8  14  26  47  75 106 135 166 209 251 290
#     4   8  14  24  40  68 102 130 160 200 241 284
#     4   8  15  25  40  68 100 131 164 200 244 287
#     4  10  22  36  48  68  94 124 166 212 261 306
#     4   9  17  29  49  77 104 134 171 206 248 299
#     4  10  21  36  54  76 103 133 165 205 252 301
#
# _framework density 17.886201
#
# number of rings (size 3 to 8) (size 9 to 14) (size 15 to 20)
#    0.000    2.933    0.000    2.800    2.800    3.200 
#    0.000    0.000    0.000    4.400    0.000    0.000 
#    0.000    0.000    0.000    0.000    0.000    0.000 
#
# Total GULP energy -743726.812685 kJ/mol
# GULP energy per Si atom -12395.446878 kJ/mol
# Density = 1.784549 g / cm^3
# Si number density = 17.886201 Si / 1000 Ang^3
#
#
#
# Elastic Constant Matrix: (Units=GPa)
#
#
# Indices 1 2 3 4 5 6 
#
# 1 32.8692 26.3535 33.6481 0.0000 0.0000 0.0000
# 2 26.3535 141.1035 77.1663 0.0000 0.0000 0.0000
# 3 33.6481 77.1663 132.9457 0.0000 0.0000 0.0000
# 4 0.0000 0.0000 0.0000 25.2981 0.0000 0.0000
# 5 0.0000 0.0000 0.0000 0.0000 22.5575 0.0000
# 6 0.0000 0.0000 0.0000 0.0000 0.0000 16.7515
#
#
#
# Elastic Compliance Matrix: (Units=1/GPa)
#
#
# Indices 1 2 3 4 5 6 
#
# 1 0.041894 -0.002968 -0.008881 0.000000 0.000000 0.000000
# 2 -0.002968 0.010593 -0.005397 0.000000 0.000000 0.000000
# 3 -0.008881 -0.005397 0.012902 0.000000 0.000000 0.000000
# 4 0.000000 0.000000 0.000000 0.039529 0.000000 0.000000
# 5 0.000000 0.000000 0.000000 0.000000 0.044331 0.000000
# 6 0.000000 0.000000 0.000000 0.000000 0.000000 0.059696
#
#
# Mechanical properties :
#
#
# Convention : Reuss Voigt Hill
#
# Bulk Modulus (GPa) = 32.36476 64.58381 48.47429
# Shear Modulus (GPa) = 19.70548 24.23812 21.97180
#
# Velocity S-wave (km/s) = 3.32281 3.68520 3.50869
# Velocity P-wave (km/s) = 5.73197 7.36846 6.60112
#
# Compressibility (1/GPa) = 0.03089781
#
# Stress axis : x y z
#
# Youngs Moduli (GPa) = 23.86965 94.40191 77.50523
#
# Poissons Ratio (x) = 0.28017 0.68830
# Poissons Ratio (y) = 0.07084 0.41833
# Poissons Ratio (z) = 0.21198 0.50952
#
# Static dielectric constant tensor:
#      x y z
#    x 2.871020 0.000000 0.000000 
#    y 0.000000 3.712220 0.000000 
#    z 0.000000 0.000000 3.345040 
# 
# 
# High freq. dielectric constant tensor:
#      x y z
#    x 1.648160 0.000000 0.000000 
#    y 0.000000 1.696970 0.000000 
#    z 0.000000 0.000000 1.690390 
# 
# From -- ./inp_files/65142.got.cif
#   From: 2010.03.12/outbox.cif.g09.slc.cpg/sg74_33_cif.got.tgz:65142.got - 2010.04.16 15:46:19.
