data_PCOD8299765
_publ_section_title
;
Structure prediction by ZEFSAII (Michael W. Deem and Ramdas Pophale) SiO2 
 PCOD8299765
Probable space group: I M M A
;
_chemical_formula_sum "Si O2"
_cell_formula_units_Z 112
_cell_length_a 28.540201
_cell_length_b 15.186670
_cell_length_c 13.158489
_cell_angle_alpha 90.000000
_cell_angle_beta 90.000000
_cell_angle_gamma 90.000000
_cell_volume 5703.291971
_symmetry_space_group_name_H-M "I M M A"
_symmetry_group_IT_number 74
_symmetry_cell_setting 'orthorhombic'
loop_
_space_group_symop_operation_xyz
x,y,z
-x,1/2-y,z
x,-y,-z
-x,1/2+y,-z
-x,-y,-z
x,1/2+y,-z
-x,y,z
x,1/2-y,z
1/2+x,1/2+y,1/2+z
1/2-x,-y,1/2+z
1/2+x,1/2-y,1/2-z
1/2-x,y,1/2-z
1/2-x,1/2-y,1/2-z
1/2+x,y,1/2-z
1/2-x,1/2+y,1/2+z
1/2+x,-y,1/2+z
loop_
_atom_site_type_symbol
_atom_site_label
_atom_site_fract_x
_atom_site_fract_y
_atom_site_fract_z
Si Si1 0.324546 0.352082 0.558950
Si Si2 0.775271 0.151784 0.506525
Si Si3 0.859153 0.045394 0.597888
Si Si4 0.897171 0.646579 0.225884
Si Si5 0.053183 0.994185 0.880144
Si Si6 0.873595 0.149622 0.139526
Si Si7 0.201299 0.906688 0.707887
O O1 0.317320 0.250000 0.535993
O O2 0.273062 0.394753 0.545042
O O3 0.346976 0.369514 0.669559
O O4 0.359477 0.386720 0.472062
O O5 0.778679 0.250000 0.549932
O O6 0.816039 0.096635 0.553195
O O7 0.781758 0.154019 0.385217
O O8 0.893525 0.111639 0.658071
O O9 0.885248 0.000000 0.500000
O O10 0.837586 0.977571 0.677341
O O11 0.910921 0.750000 0.224495
O O12 0.936355 0.590255 0.167861
O O13 0.085430 0.918378 0.827659
O O14 0.000000 0.969245 0.853144
O O15 0.060472 0.000000 0.000000
O O16 0.893302 0.250000 0.137326
O O17 0.826946 0.150069 0.208952
O O18 0.250000 0.948344 0.750000
#
# Coordination Sequence:
#
# PCOD8299765 Si02
#       7
#    16  16  16  16  16  16  16
#     4   9  19  32  52  83 122 163 205 249 292 350
#     4  10  20  34  50  79 118 159 209 252 292 347
#     4  10  23  37  53  82 117 158 207 254 307 354
#     4  11  22  40  64  88 120 163 208 256 314 371
#     4  11  24  41  64  94 126 158 195 247 308 368
#     4  11  21  37  59  87 123 165 207 248 296 352
#     4  11  21  33  54  83 120 163 205 246 294 354
#
# _framework density 19.637779999999999
#
# number of rings (size 3 to 8) (size 9 to 14) (size 15 to 20)
#    0.000    1.571    4.286    0.857    2.000    1.143 
#    2.571    3.571    0.000    0.429    0.000    0.000 
#    0.000    0.000    0.000    0.000    0.000    0.000 
#
# Total GULP energy -694047.024942 kJ/mol
# GULP energy per Si atom -12393.696874 kJ/mol
# Density = 1.959308 g / cm^3
# Si number density = 19.637780 Si / 1000 Ang^3
#
#
#
# Elastic Constant Matrix: (Units=GPa)
#
#
# Indices 1 2 3 4 5 6 
#
# 1 83.5949 28.6116 31.7820 0.0000 0.0000 0.0000
# 2 28.6116 92.7007 34.2963 0.0000 0.0000 0.0000
# 3 31.7820 34.2963 92.2405 0.0000 0.0000 0.0000
# 4 0.0000 0.0000 0.0000 27.7845 0.0000 0.0000
# 5 0.0000 0.0000 0.0000 0.0000 16.3023 0.0000
# 6 0.0000 0.0000 0.0000 0.0000 0.0000 8.3381
#
#
#
# Elastic Compliance Matrix: (Units=1/GPa)
#
#
# Indices 1 2 3 4 5 6 
#
# 1 0.014468 -0.003039 -0.003855 0.000000 0.000000 0.000000
# 2 -0.003039 0.013146 -0.003841 0.000000 0.000000 0.000000
# 3 -0.003855 -0.003841 0.013598 0.000000 0.000000 0.000000
# 4 0.000000 0.000000 0.000000 0.035991 0.000000 0.000000
# 5 0.000000 0.000000 0.000000 0.000000 0.061341 0.000000
# 6 0.000000 0.000000 0.000000 0.000000 0.000000 0.119931
#
#
# Mechanical properties :
#
#
# Convention : Reuss Voigt Hill
#
# Bulk Modulus (GPa) = 50.65360 50.87955 50.76657
# Shear Modulus (GPa) = 17.45039 22.07475 19.76257
#
# Velocity S-wave (km/s) = 2.98420 3.35639 3.17575
# Velocity P-wave (km/s) = 6.14197 6.40201 6.27334
#
# Compressibility (1/GPa) = 0.01974194
#
# Stress axis : x y z
#
# Youngs Moduli (GPa) = 69.11625 76.06609 73.54239
#
# Poissons Ratio (x) = 0.23119 0.28351
# Poissons Ratio (y) = 0.21007 0.28246
# Poissons Ratio (z) = 0.26645 0.29216
#
# Static dielectric constant tensor:
#      x y z
#    x 3.304280 0.000000 0.000000 
#    y 0.000000 5.862740 0.000000 
#    z 0.000000 0.000000 5.833370 
# 
# 
# High freq. dielectric constant tensor:
#      x y z
#    x 1.731050 0.000000 0.000000 
#    y 0.000000 1.767960 0.000000 
#    z 0.000000 0.000000 1.763160 
# 
# From -- ./inp_files/21168.got.cif
#   From: 2010.03.12/outbox.cif.g09.slc.cpg/sg74_11_cif.got.tgz:21168.got - 2010.04.16 15:46:19.
