data_PCOD8299501
_publ_section_title
;
Structure prediction by ZEFSAII (Michael W. Deem and Ramdas Pophale) SiO2 
 PCOD8299501
Probable space group: I M M A
;
_chemical_formula_sum "Si O2"
_cell_formula_units_Z 72
_cell_length_a 16.416621
_cell_length_b 8.839294
_cell_length_c 27.331245
_cell_angle_alpha 90.000000
_cell_angle_beta 90.000000
_cell_angle_gamma 90.000000
_cell_volume 3966.073572
_symmetry_space_group_name_H-M "I M M A"
_symmetry_group_IT_number 74
_symmetry_cell_setting 'orthorhombic'
loop_
_space_group_symop_operation_xyz
x,y,z
-x,1/2-y,z
x,-y,-z
-x,1/2+y,-z
-x,-y,-z
x,1/2+y,-z
-x,y,z
x,1/2-y,z
1/2+x,1/2+y,1/2+z
1/2-x,-y,1/2+z
1/2+x,1/2-y,1/2-z
1/2-x,y,1/2-z
1/2-x,1/2-y,1/2-z
1/2+x,y,1/2-z
1/2-x,1/2+y,1/2+z
1/2+x,-y,1/2+z
loop_
_atom_site_type_symbol
_atom_site_label
_atom_site_fract_x
_atom_site_fract_y
_atom_site_fract_z
Si Si1 0.668427 0.570382 0.601242
Si Si2 0.500000 0.071632 0.446274
Si Si3 0.182220 0.572385 0.449995
Si Si4 0.756867 0.074198 0.303403
Si Si5 0.908403 0.423305 0.365899
O O1 0.679551 0.750000 0.598362
O O2 0.577940 0.519556 0.585662
O O3 0.730143 0.496738 0.563023
O O4 0.691891 0.511785 0.656191
O O5 0.500000 0.250000 0.454021
O O6 0.500000 0.000000 0.500000
O O7 0.151030 0.500000 0.500000
O O8 0.191326 0.750000 0.455527
O O9 0.113777 0.533292 0.410206
O O10 0.737912 0.250000 0.297277
O O11 0.750000 0.994493 0.250000
O O12 0.848947 0.043058 0.320661
O O13 0.897296 0.250000 0.383492
O O14 0.000000 0.456118 0.348211
#
# Coordination Sequence:
#
# PCOD8299501 Si02
#       5
#    16   8  16  16  16
#     4   9  18  33  50  72 104 135 170 209 251 302
#     4  10  20  32  48  72 102 138 170 210 255 298
#     4  11  21  33  51  73  98 132 169 206 251 300
#     4   8  14  28  50  74 101 131 162 203 251 298
#     4   9  18  33  51  73 102 133 166 205 246 294
#
# _framework density 18.153974999999999
#
# number of rings (size 3 to 8) (size 9 to 14) (size 15 to 20)
#    0.000    2.667    0.000    4.000    0.000    3.556 
#    2.000    0.000    0.000   10.667    0.000    0.000 
#    0.000    0.000    0.000    0.000    0.000    0.000 
#
# Total GULP energy -446247.837762 kJ/mol
# GULP energy per Si atom -12395.773271 kJ/mol
# Density = 1.811266 g / cm^3
# Si number density = 18.153975 Si / 1000 Ang^3
#
#
#
# Elastic Constant Matrix: (Units=GPa)
#
#
# Indices 1 2 3 4 5 6 
#
# 1 145.8982 22.4982 63.7066 0.0000 0.0000 0.0000
# 2 22.4982 47.6533 28.9882 0.0000 0.0000 0.0000
# 3 63.7066 28.9882 137.9649 0.0000 0.0000 0.0000
# 4 0.0000 0.0000 0.0000 18.0260 0.0000 0.0000
# 5 0.0000 0.0000 0.0000 0.0000 13.6693 0.0000
# 6 0.0000 0.0000 0.0000 0.0000 0.0000 19.0070
#
#
#
# Elastic Compliance Matrix: (Units=1/GPa)
#
#
# Indices 1 2 3 4 5 6 
#
# 1 0.008735 -0.001915 -0.003631 0.000000 0.000000 0.000000
# 2 -0.001915 0.024480 -0.004259 0.000000 0.000000 0.000000
# 3 -0.003631 -0.004259 0.009820 0.000000 0.000000 0.000000
# 4 0.000000 0.000000 0.000000 0.055475 0.000000 0.000000
# 5 0.000000 0.000000 0.000000 0.000000 0.073157 0.000000
# 6 0.000000 0.000000 0.000000 0.000000 0.000000 0.052612
#
#
# Mechanical properties :
#
#
# Convention : Reuss Voigt Hill
#
# Bulk Modulus (GPa) = 42.69138 62.43361 52.56249
# Shear Modulus (GPa) = 19.86509 24.56202 22.21355
#
# Velocity S-wave (km/s) = 3.31154 3.68228 3.50182
# Velocity P-wave (km/s) = 6.17973 7.24878 6.73550
#
# Compressibility (1/GPa) = 0.02342393
#
# Stress axis : x y z
#
# Youngs Moduli (GPa) = 114.48308 40.84960 101.83498
#
# Poissons Ratio (x) = 0.07823 0.36977
# Poissons Ratio (y) = 0.21925 0.43374
# Poissons Ratio (z) = 0.41569 0.17399
#
# Static dielectric constant tensor:
#      x y z
#    x 3.461390 0.000000 0.000000 
#    y 0.000000 3.075700 0.000000 
#    z 0.000000 0.000000 3.717940 
# 
# 
# High freq. dielectric constant tensor:
#      x y z
#    x 1.704040 0.000000 0.000000 
#    y 0.000000 1.672380 0.000000 
#    z 0.000000 0.000000 1.704400 
# 
# From -- ./inp_files/56694.got.cif
#   From: 2010.03.12/outbox.cif.g09.slc.cpg/sg74_29_cif.got.tgz:56694.got - 2010.04.16 15:46:19.
