data_PCOD8299934
_publ_section_title
;
Structure prediction by ZEFSAII (Michael W. Deem and Ramdas Pophale) SiO2 
 PCOD8299934
Probable space group: I M M A
;
_chemical_formula_sum "Si O2"
_cell_formula_units_Z 96
_cell_length_a 23.034109
_cell_length_b 9.150333
_cell_length_c 25.209807
_cell_angle_alpha 90.000000
_cell_angle_beta 90.000000
_cell_angle_gamma 90.000000
_cell_volume 5313.465165
_symmetry_space_group_name_H-M "I M M A"
_symmetry_group_IT_number 74
_symmetry_cell_setting 'orthorhombic'
loop_
_space_group_symop_operation_xyz
x,y,z
-x,1/2-y,z
x,-y,-z
-x,1/2+y,-z
-x,-y,-z
x,1/2+y,-z
-x,y,z
x,1/2-y,z
1/2+x,1/2+y,1/2+z
1/2-x,-y,1/2+z
1/2+x,1/2-y,1/2-z
1/2-x,y,1/2-z
1/2-x,1/2-y,1/2-z
1/2+x,y,1/2-z
1/2-x,1/2+y,1/2+z
1/2+x,-y,1/2+z
loop_
_atom_site_type_symbol
_atom_site_label
_atom_site_fract_x
_atom_site_fract_y
_atom_site_fract_z
Si Si1 0.067143 0.417406 0.241613
Si Si2 0.622423 0.582701 0.851686
Si Si3 0.750436 0.419424 0.189340
Si Si4 0.860720 0.077010 0.845545
Si Si5 0.566747 0.920969 0.053285
Si Si6 0.933552 0.578564 0.053193
O O1 0.084884 0.250000 0.229310
O O2 0.080692 0.453922 0.302497
O O3 0.104042 0.523915 0.205320
O O4 0.000000 0.446290 0.230357
O O5 0.613704 0.750000 0.869790
O O6 0.688379 0.551269 0.836151
O O7 0.606460 0.475868 0.899090
O O8 0.768133 0.250000 0.187798
O O9 0.750000 0.475238 0.250000
O O10 0.796599 0.509472 0.154823
O O11 0.856254 0.250000 0.843314
O O12 0.893609 0.024189 0.898529
O O13 0.500000 0.960360 0.065751
O O14 0.576114 0.750000 0.045603
O O15 0.587687 0.000000 0.000000
O O16 0.927518 0.750000 0.044059
O O17 0.000000 0.534790 0.066179
O O18 0.911648 0.500000 0.000000
#
# Coordination Sequence:
#
# PCOD8299934 Si02
#       6
#    16  16  16  16  16  16
#     4  10  20  34  54  80 110 145 184 224 272 334
#     4  10  20  36  58  81 108 144 186 231 275 322
#     4  10  20  38  59  78 107 148 191 229 269 322
#     4  11  22  35  54  81 114 145 180 227 280 332
#     4  10  21  37  58  84 114 147 183 226 277 333
#     4   9  19  36  56  79 108 142 179 222 272 324
#
# _framework density 18.067304
#
# number of rings (size 3 to 8) (size 9 to 14) (size 15 to 20)
#    0.000    2.000    1.667    2.000    0.000    5.667 
#    0.000    2.500    0.000    2.000    0.000    0.000 
#    0.000    0.000    0.000    0.000    0.000    0.000 
#
# Total GULP energy -595426.386699 kJ/mol
# GULP energy per Si atom -12404.716390 kJ/mol
# Density = 1.802618 g / cm^3
# Si number density = 18.067304 Si / 1000 Ang^3
#
#
#
# Elastic Constant Matrix: (Units=GPa)
#
#
# Indices 1 2 3 4 5 6 
#
# 1 75.9444 35.8769 42.8641 0.0000 0.0000 0.0000
# 2 35.8769 65.3021 48.5242 0.0000 0.0000 0.0000
# 3 42.8641 48.5242 106.4716 0.0000 0.0000 0.0000
# 4 0.0000 0.0000 0.0000 36.7433 0.0000 0.0000
# 5 0.0000 0.0000 0.0000 0.0000 21.6132 0.0000
# 6 0.0000 0.0000 0.0000 0.0000 0.0000 31.9867
#
#
#
# Elastic Compliance Matrix: (Units=1/GPa)
#
#
# Indices 1 2 3 4 5 6 
#
# 1 0.019046 -0.007207 -0.004383 0.000000 0.000000 0.000000
# 2 -0.007207 0.025882 -0.008894 0.000000 0.000000 0.000000
# 3 -0.004383 -0.008894 0.015210 0.000000 0.000000 0.000000
# 4 0.000000 0.000000 0.000000 0.027216 0.000000 0.000000
# 5 0.000000 0.000000 0.000000 0.000000 0.046268 0.000000
# 6 0.000000 0.000000 0.000000 0.000000 0.000000 0.031263
#
#
# Mechanical properties :
#
#
# Convention : Reuss Voigt Hill
#
# Bulk Modulus (GPa) = 52.16553 55.80540 53.98546
# Shear Modulus (GPa) = 23.55781 26.09883 24.82832
#
# Velocity S-wave (km/s) = 3.61486 3.80483 3.71106
# Velocity P-wave (km/s) = 6.80871 7.08920 6.95037
#
# Compressibility (1/GPa) = 0.01916975
#
# Stress axis : x y z
#
# Youngs Moduli (GPa) = 52.50431 38.63692 65.74473
#
# Poissons Ratio (x) = 0.27845 0.28817
# Poissons Ratio (y) = 0.37839 0.58475
# Poissons Ratio (z) = 0.23014 0.34365
#
# Static dielectric constant tensor:
#      x y z
#    x 3.382830 0.000000 0.000000 
#    y 0.000000 3.304730 0.000000 
#    z 0.000000 0.000000 3.331100 
# 
# 
# High freq. dielectric constant tensor:
#      x y z
#    x 1.701540 0.000000 0.000000 
#    y 0.000000 1.698030 0.000000 
#    z 0.000000 0.000000 1.699450 
# 
# From -- ./inp_files/57266.got.cif
#   From: 2010.03.12/outbox.cif.g09.slc.cpg/sg74_29_cif.got.tgz:57266.got - 2010.04.16 15:46:19.
