data_PCOD8299877
_publ_section_title
;
Structure prediction by ZEFSAII (Michael W. Deem and Ramdas Pophale) SiO2 
 PCOD8299877
Probable space group: I M M A
;
_chemical_formula_sum "Si O2"
_cell_formula_units_Z 96
_cell_length_a 9.537910
_cell_length_b 22.772067
_cell_length_c 24.116599
_cell_angle_alpha 90.000000
_cell_angle_beta 90.000000
_cell_angle_gamma 90.000000
_cell_volume 5238.075274
_symmetry_space_group_name_H-M "I M M A"
_symmetry_group_IT_number 74
_symmetry_cell_setting 'orthorhombic'
loop_
_space_group_symop_operation_xyz
x,y,z
-x,1/2-y,z
x,-y,-z
-x,1/2+y,-z
-x,-y,-z
x,1/2+y,-z
-x,y,z
x,1/2-y,z
1/2+x,1/2+y,1/2+z
1/2-x,-y,1/2+z
1/2+x,1/2-y,1/2-z
1/2-x,y,1/2-z
1/2-x,1/2-y,1/2-z
1/2+x,y,1/2-z
1/2-x,1/2+y,1/2+z
1/2+x,-y,1/2+z
loop_
_atom_site_type_symbol
_atom_site_label
_atom_site_fract_x
_atom_site_fract_y
_atom_site_fract_z
Si Si1 0.163752 0.151699 0.696344
Si Si2 0.165218 0.750000 0.388908
Si Si3 0.833735 0.250000 0.486236
Si Si4 0.163474 0.635807 0.578963
Si Si5 0.841440 0.099944 0.300519
Si Si6 0.162032 0.025214 0.650542
Si Si7 0.844023 0.975317 0.939666
O O1 0.250000 0.171872 0.750000
O O2 0.212595 0.191714 0.644419
O O3 0.197763 0.083894 0.684107
O O4 0.000000 0.161626 0.708785
O O5 0.230516 0.750000 0.451215
O O6 0.000000 0.750000 0.395771
O O7 0.781750 0.193848 0.451678
O O8 0.000000 0.250000 0.488887
O O9 0.186811 0.639954 0.645310
O O10 0.255660 0.583734 0.555065
O O11 0.000000 0.622904 0.566392
O O12 0.750000 0.124191 0.250000
O O13 0.000000 0.105656 0.280812
O O14 0.804369 0.031846 0.312450
O O15 0.000000 0.024787 0.631027
O O16 0.261827 0.023204 0.597138
O O17 0.000000 0.963624 0.914654
O O18 0.860965 0.000000 0.000000
#
# Coordination Sequence:
#
# PCOD8299877 Si02
#       7
#    16   8   8  16  16  16  16
#     4  10  20  34  53  78 108 139 178 223 266 319
#     4   9  19  33  52  79 103 133 182 229 266 312
#     4   9  18  35  59  81 103 137 182 231 268 300
#     4   9  19  35  56  80 104 137 180 220 261 309
#     4   9  17  30  48  75 105 134 170 208 255 312
#     4   9  19  33  51  77 104 136 178 218 259 311
#     4  10  21  34  50  76 110 141 171 212 266 324
#
# _framework density 18.327342000000002
#
# number of rings (size 3 to 8) (size 9 to 14) (size 15 to 20)
#    0.000    2.667    0.000    2.250    2.333    4.667 
#    0.000    0.833    0.000    1.000    0.000    0.000 
#    0.000    0.000    0.000    0.000    0.000    0.000 
#
# Total GULP energy -595102.610668 kJ/mol
# GULP energy per Si atom -12397.971056 kJ/mol
# Density = 1.828563 g / cm^3
# Si number density = 18.327342 Si / 1000 Ang^3
#
#
#
# Elastic Constant Matrix: (Units=GPa)
#
#
# Indices 1 2 3 4 5 6 
#
# 1 72.7613 29.5711 51.5634 0.0000 0.0000 0.0000
# 2 29.5711 88.4899 56.7918 0.0000 0.0000 0.0000
# 3 51.5634 56.7918 134.3034 0.0000 0.0000 0.0000
# 4 0.0000 0.0000 0.0000 23.3207 0.0000 0.0000
# 5 0.0000 0.0000 0.0000 0.0000 31.6614 0.0000
# 6 0.0000 0.0000 0.0000 0.0000 0.0000 3.0409
#
#
#
# Elastic Compliance Matrix: (Units=1/GPa)
#
#
# Indices 1 2 3 4 5 6 
#
# 1 0.019220 -0.002315 -0.006400 0.000000 0.000000 0.000000
# 2 -0.002315 0.015789 -0.005788 0.000000 0.000000 0.000000
# 3 -0.006400 -0.005788 0.012350 0.000000 0.000000 0.000000
# 4 0.000000 0.000000 0.000000 0.042880 0.000000 0.000000
# 5 0.000000 0.000000 0.000000 0.000000 0.031584 0.000000
# 6 0.000000 0.000000 0.000000 0.000000 0.000000 0.328847
#
#
# Mechanical properties :
#
#
# Convention : Reuss Voigt Hill
#
# Bulk Modulus (GPa) = 54.48630 63.48970 58.98800
# Shear Modulus (GPa) = 10.29241 22.11316 16.20279
#
# Velocity S-wave (km/s) = 2.37235 3.47734 2.97657
# Velocity P-wave (km/s) = 6.10722 7.13020 6.63844
#
# Compressibility (1/GPa) = 0.01835324
#
# Stress axis : x y z
#
# Youngs Moduli (GPa) = 52.02882 63.33582 80.96899
#
# Poissons Ratio (x) = 0.14664 0.51821
# Poissons Ratio (y) = 0.12046 0.46861
# Poissons Ratio (z) = 0.33299 0.36656
#
# Static dielectric constant tensor:
#      x y z
#    x 3.338650 0.000000 0.000000 
#    y 0.000000 3.464930 0.000000 
#    z 0.000000 0.000000 3.416790 
# 
# 
# High freq. dielectric constant tensor:
#      x y z
#    x 1.693200 0.000000 0.000000 
#    y 0.000000 1.701190 0.000000 
#    z 0.000000 0.000000 1.713000 
# 
# From -- ./inp_files/57357.got.cif
#   From: 2010.03.12/outbox.cif.g09.slc.cpg/sg74_29_cif.got.tgz:57357.got - 2010.04.16 15:46:19.
