data_PCOD8299296
_publ_section_title
;
Structure prediction by ZEFSAII (Michael W. Deem and Ramdas Pophale) SiO2 
 PCOD8299296
Probable space group: I M M A
;
_chemical_formula_sum "Si O2"
_cell_formula_units_Z 112
_cell_length_a 19.833230
_cell_length_b 10.280614
_cell_length_c 26.701519
_cell_angle_alpha 90.000000
_cell_angle_beta 90.000000
_cell_angle_gamma 90.000000
_cell_volume 5444.380500
_symmetry_space_group_name_H-M "I M M A"
_symmetry_group_IT_number 74
_symmetry_cell_setting 'orthorhombic'
loop_
_space_group_symop_operation_xyz
x,y,z
-x,1/2-y,z
x,-y,-z
-x,1/2+y,-z
-x,-y,-z
x,1/2+y,-z
-x,y,z
x,1/2-y,z
1/2+x,1/2+y,1/2+z
1/2-x,-y,1/2+z
1/2+x,1/2-y,1/2-z
1/2-x,y,1/2-z
1/2-x,1/2-y,1/2-z
1/2+x,y,1/2-z
1/2-x,1/2+y,1/2+z
1/2+x,-y,1/2+z
loop_
_atom_site_type_symbol
_atom_site_label
_atom_site_fract_x
_atom_site_fract_y
_atom_site_fract_z
Si Si1 0.572093 0.101730 0.091177
Si Si2 0.073369 0.099965 0.196864
Si Si3 0.227026 0.607938 0.305669
Si Si4 0.576659 0.394878 0.540038
Si Si5 0.878039 0.101737 0.303131
Si Si6 0.825331 0.991646 0.119685
Si Si7 0.213486 0.904934 0.546348
O O1 0.500000 0.038009 0.072753
O O2 0.572310 0.250000 0.073929
O O3 0.568841 0.093873 0.151714
O O4 0.640652 0.043321 0.067128
O O5 0.063747 0.250000 0.207802
O O6 0.094801 0.041020 0.251006
O O7 0.128100 0.085165 0.153378
O O8 0.000000 0.040219 0.181570
O O9 0.191544 0.750000 0.308895
O O10 0.250000 0.578291 0.250000
O O11 0.181425 0.489294 0.323062
O O12 0.289809 0.609685 0.343345
O O13 0.601456 0.500000 0.500000
O O14 0.500000 0.424723 0.556766
O O15 0.582210 0.250000 0.516643
O O16 0.625634 0.403389 0.586809
O O17 0.851347 0.250000 0.296543
O O18 0.771990 0.075710 0.087629
O O19 0.212658 0.750000 0.531974
O O20 0.230987 0.000000 0.500000
#
# Coordination Sequence:
#
# PCOD8299296 Si02
#       7
#    16  16  16  16  16  16  16
#     4   9  18  36  63  92 122 157 197 245 302 361
#     4  10  21  35  57  92 127 159 199 248 297 347
#     4  11  23  38  57  87 125 163 200 243 296 351
#     4  10  23  43  65  89 117 154 203 255 309 364
#     4  10  19  36  62  91 121 156 198 243 289 350
#     4  12  22  38  62  88 120 164 203 250 295 362
#     4  11  25  42  62  90 120 156 202 255 311 366
#
# _framework density 20.571670999999998
#
# number of rings (size 3 to 8) (size 9 to 14) (size 15 to 20)
#    0.000    1.571    2.857    2.143    0.000    6.286 
#    0.000    1.429    0.000    3.429    0.000    0.000 
#    0.000    0.000    0.000    0.000    0.000    0.000 
#
# Total GULP energy -693826.610215 kJ/mol
# GULP energy per Si atom -12389.760897 kJ/mol
# Density = 2.052485 g / cm^3
# Si number density = 20.571671 Si / 1000 Ang^3
#
#
#
# Elastic Constant Matrix: (Units=GPa)
#
#
# Indices 1 2 3 4 5 6 
#
# 1 123.1447 31.1157 48.6119 0.0000 0.0000 0.0000
# 2 31.1157 84.5383 28.6993 0.0000 0.0000 0.0000
# 3 48.6119 28.6993 108.0950 0.0000 0.0000 0.0000
# 4 0.0000 0.0000 0.0000 21.1484 0.0000 0.0000
# 5 0.0000 0.0000 0.0000 0.0000 28.1517 0.0000
# 6 0.0000 0.0000 0.0000 0.0000 0.0000 15.4941
#
#
#
# Elastic Compliance Matrix: (Units=1/GPa)
#
#
# Indices 1 2 3 4 5 6 
#
# 1 0.010312 -0.002441 -0.003989 0.000000 0.000000 0.000000
# 2 -0.002441 0.013579 -0.002507 0.000000 0.000000 0.000000
# 3 -0.003989 -0.002507 0.011711 0.000000 0.000000 0.000000
# 4 0.000000 0.000000 0.000000 0.047285 0.000000 0.000000
# 5 0.000000 0.000000 0.000000 0.000000 0.035522 0.000000
# 6 0.000000 0.000000 0.000000 0.000000 0.000000 0.064541
#
#
# Mechanical properties :
#
#
# Convention : Reuss Voigt Hill
#
# Bulk Modulus (GPa) = 56.41454 59.18131 57.79792
# Shear Modulus (GPa) = 24.18568 26.78224 25.48396
#
# Velocity S-wave (km/s) = 3.43254 3.61210 3.52346
# Velocity P-wave (km/s) = 6.57211 6.79905 6.68655
#
# Compressibility (1/GPa) = 0.01772593
#
# Stress axis : x y z
#
# Youngs Moduli (GPa) = 96.97248 73.64486 85.39062
#
# Poissons Ratio (x) = 0.17979 0.34066
# Poissons Ratio (y) = 0.23673 0.21410
# Poissons Ratio (z) = 0.38686 0.18465
#
# Static dielectric constant tensor:
#      x y z
#    x 4.148020 0.000000 0.000000 
#    y 0.000000 3.420420 0.000000 
#    z 0.000000 0.000000 3.703620 
# 
# 
# High freq. dielectric constant tensor:
#      x y z
#    x 1.815560 0.000000 0.000000 
#    y 0.000000 1.775160 0.000000 
#    z 0.000000 0.000000 1.806380 
# 
# From -- ./inp_files/61646.got.cif
#   From: 2010.03.12/outbox.cif.g09.slc.cpg/sg74_31_cif.got.tgz:61646.got - 2010.04.16 15:46:19.
