data_PCOD8299232
_publ_section_title
;
Structure prediction by ZEFSAII (Michael W. Deem and Ramdas Pophale) SiO2 
 PCOD8299232
Probable space group: I M M A
;
_chemical_formula_sum "Si O2"
_cell_formula_units_Z 64
_cell_length_a 13.703493
_cell_length_b 14.563867
_cell_length_c 18.183059
_cell_angle_alpha 90.000000
_cell_angle_beta 90.000000
_cell_angle_gamma 90.000000
_cell_volume 3628.899446
_symmetry_space_group_name_H-M "I M M A"
_symmetry_group_IT_number 74
_symmetry_cell_setting 'orthorhombic'
loop_
_space_group_symop_operation_xyz
x,y,z
-x,1/2-y,z
x,-y,-z
-x,1/2+y,-z
-x,-y,-z
x,1/2+y,-z
-x,y,z
x,1/2-y,z
1/2+x,1/2+y,1/2+z
1/2-x,-y,1/2+z
1/2+x,1/2-y,1/2-z
1/2-x,y,1/2-z
1/2-x,1/2-y,1/2-z
1/2+x,y,1/2-z
1/2-x,1/2+y,1/2+z
1/2+x,-y,1/2+z
loop_
_atom_site_type_symbol
_atom_site_label
_atom_site_fract_x
_atom_site_fract_y
_atom_site_fract_z
Si Si1 0.747888 0.410427 0.336798
Si Si2 0.891278 0.250000 0.946648
Si Si3 0.391373 0.750000 0.620009
Si Si4 0.388947 0.143303 0.041534
Si Si5 0.778452 0.068135 0.941449
O O1 0.750000 0.414450 0.250000
O O2 0.659658 0.342913 0.355179
O O3 0.845823 0.372562 0.376314
O O4 0.732114 0.513903 0.365235
O O5 0.837689 0.158433 0.919652
O O6 0.000000 0.250000 0.913497
O O7 0.891995 0.250000 0.033268
O O8 0.500000 0.750000 0.653045
O O9 0.500000 0.106909 0.039222
O O10 0.384134 0.250000 0.022667
O O11 0.325766 0.091912 0.979197
O O12 0.833394 0.000000 0.000000
#
# Coordination Sequence:
#
# PCOD8299232 Si02
#       5
#    16   8   8  16  16
#     4  11  22  37  54  82 115 147 181 220 274 335
#     4  11  20  35  58  82 108 140 181 230 271 315
#     4  11  21  35  55  82 113 142 178 224 276 325
#     4  10  19  35  60  83 106 140 182 231 279 323
#     4  10  19  36  56  82 110 141 185 228 268 327
#
# _framework density 17.636201
#
# number of rings (size 3 to 8) (size 9 to 14) (size 15 to 20)
#    0.000    1.500    7.500    0.375    0.000    7.000 
#    0.000    0.625    0.000    0.000    0.000    0.000 
#    0.000    0.000    0.000    0.000    0.000    0.000 
#
# Total GULP energy -396610.691638 kJ/mol
# GULP energy per Si atom -12394.084114 kJ/mol
# Density = 1.759606 g / cm^3
# Si number density = 17.636201 Si / 1000 Ang^3
#
#
#
# Elastic Constant Matrix: (Units=GPa)
#
#
# Indices 1 2 3 4 5 6 
#
# 1 139.5337 69.0584 48.7090 0.0000 0.0000 0.0000
# 2 69.0584 132.5090 29.6629 0.0000 0.0000 0.0000
# 3 48.7090 29.6629 69.8935 0.0000 0.0000 0.0000
# 4 0.0000 0.0000 0.0000 25.4104 0.0000 0.0000
# 5 0.0000 0.0000 0.0000 0.0000 11.9418 0.0000
# 6 0.0000 0.0000 0.0000 0.0000 0.0000 12.8385
#
#
#
# Elastic Compliance Matrix: (Units=1/GPa)
#
#
# Indices 1 2 3 4 5 6 
#
# 1 0.011619 -0.004688 -0.006108 0.000000 0.000000 0.000000
# 2 -0.004688 0.010231 -0.001075 0.000000 0.000000 0.000000
# 3 -0.006108 -0.001075 0.019020 0.000000 0.000000 0.000000
# 4 0.000000 0.000000 0.000000 0.039354 0.000000 0.000000
# 5 0.000000 0.000000 0.000000 0.000000 0.083740 0.000000
# 6 0.000000 0.000000 0.000000 0.000000 0.000000 0.077891
#
#
# Mechanical properties :
#
#
# Convention : Reuss Voigt Hill
#
# Bulk Modulus (GPa) = 58.38189 70.75520 64.56855
# Shear Modulus (GPa) = 18.42945 23.00519 20.71732
#
# Velocity S-wave (km/s) = 3.23612 3.61561 3.43111
# Velocity P-wave (km/s) = 6.86576 7.59187 7.23793
#
# Compressibility (1/GPa) = 0.01712860
#
# Stress axis : x y z
#
# Youngs Moduli (GPa) = 86.06499 97.74689 52.57604
#
# Poissons Ratio (x) = 0.45825 0.32112
# Poissons Ratio (y) = 0.40349 0.05650
# Poissons Ratio (z) = 0.52566 0.10504
#
# Static dielectric constant tensor:
#      x y z
#    x 3.688320 0.000000 0.000000 
#    y 0.000000 3.460720 0.000000 
#    z 0.000000 0.000000 3.086900 
# 
# 
# High freq. dielectric constant tensor:
#      x y z
#    x 1.677430 0.000000 0.000000 
#    y 0.000000 1.705050 0.000000 
#    z 0.000000 0.000000 1.646940 
# 
# From -- ./inp_files/40722.got.cif
#   From: 2010.03.12/outbox.cif.g09.slc.cpg/sg74_21_cif.got.tgz:40722.got - 2010.04.16 15:46:19.
