data_PCOD8299386
_publ_section_title
;
Structure prediction by ZEFSAII (Michael W. Deem and Ramdas Pophale) SiO2 
 PCOD8299386
Probable space group: I M M A
;
_chemical_formula_sum "Si O2"
_cell_formula_units_Z 88
_cell_length_a 19.800122
_cell_length_b 8.893001
_cell_length_c 30.623081
_cell_angle_alpha 90.000000
_cell_angle_beta 90.000000
_cell_angle_gamma 90.000000
_cell_volume 5392.188806
_symmetry_space_group_name_H-M "I M M A"
_symmetry_group_IT_number 74
_symmetry_cell_setting 'orthorhombic'
loop_
_space_group_symop_operation_xyz
x,y,z
-x,1/2-y,z
x,-y,-z
-x,1/2+y,-z
-x,-y,-z
x,1/2+y,-z
-x,y,z
x,1/2-y,z
1/2+x,1/2+y,1/2+z
1/2-x,-y,1/2+z
1/2+x,1/2-y,1/2-z
1/2-x,y,1/2-z
1/2-x,1/2-y,1/2-z
1/2+x,y,1/2-z
1/2-x,1/2+y,1/2+z
1/2+x,-y,1/2+z
loop_
_atom_site_type_symbol
_atom_site_label
_atom_site_fract_x
_atom_site_fract_y
_atom_site_fract_z
Si Si1 0.696375 0.425885 0.372257
Si Si2 0.215209 0.074153 0.293859
Si Si3 0.852264 0.574249 0.047150
Si Si4 0.000000 0.077843 0.954408
Si Si5 0.073766 0.078303 0.261643
Si Si6 0.424026 0.578125 0.328730
O O1 0.705529 0.250000 0.379943
O O2 0.751779 0.492723 0.338103
O O3 0.702828 0.506889 0.419288
O O4 0.622778 0.460501 0.353271
O O5 0.231281 0.250000 0.294280
O O6 0.250000 0.005123 0.250000
O O7 0.134882 0.039423 0.294750
O O8 0.839090 0.750000 0.041983
O O9 0.927644 0.540159 0.068380
O O10 0.843337 0.500000 0.000000
O O11 0.000000 0.250000 0.966425
O O12 0.000000 0.000000 0.000000
O O13 0.083370 0.250000 0.244434
O O14 0.000000 0.062372 0.284907
O O15 0.077057 0.962296 0.222166
O O16 0.500000 0.563024 0.347666
O O17 0.398607 0.750000 0.334906
#
# Coordination Sequence:
#
# PCOD8299386 Si02
#       6
#    16  16  16   8  16  16
#     4  11  21  32  48  67  89 123 159 192 235 277
#     4   9  16  29  46  67  96 122 151 194 232 268
#     4  10  20  35  50  67  91 118 153 193 235 275
#     4   8  16  30  48  64  84 114 144 186 232 266
#     4   9  16  29  49  67  86 120 161 194 227 271
#     4  10  20  31  42  61  91 122 155 197 237 271
#
# _framework density 16.319903
#
# number of rings (size 3 to 8) (size 9 to 14) (size 15 to 20)
#    0.000    2.364    1.818    1.636    1.273    1.818 
#    0.000    2.727    0.000    0.000    0.000    0.000 
#    0.000    0.727    0.000    1.273    0.000    1.818 
#
# Total GULP energy -545133.287187 kJ/mol
# GULP energy per Si atom -12389.392891 kJ/mol
# Density = 1.628276 g / cm^3
# Si number density = 16.319903 Si / 1000 Ang^3
#
#
#
# Elastic Constant Matrix: (Units=GPa)
#
#
# Indices 1 2 3 4 5 6 
#
# 1 91.0382 20.8743 48.3000 0.0000 0.0000 0.0000
# 2 20.8743 43.4869 24.9036 0.0000 0.0000 0.0000
# 3 48.3000 24.9036 86.6323 0.0000 0.0000 0.0000
# 4 0.0000 0.0000 0.0000 22.7611 0.0000 0.0000
# 5 0.0000 0.0000 0.0000 0.0000 27.3601 0.0000
# 6 0.0000 0.0000 0.0000 0.0000 0.0000 12.5892
#
#
#
# Elastic Compliance Matrix: (Units=1/GPa)
#
#
# Indices 1 2 3 4 5 6 
#
# 1 0.015933 -0.003066 -0.008002 0.000000 0.000000 0.000000
# 2 -0.003066 0.028117 -0.006373 0.000000 0.000000 0.000000
# 3 -0.008002 -0.006373 0.017836 0.000000 0.000000 0.000000
# 4 0.000000 0.000000 0.000000 0.043935 0.000000 0.000000
# 5 0.000000 0.000000 0.000000 0.000000 0.036550 0.000000
# 6 0.000000 0.000000 0.000000 0.000000 0.000000 0.079433
#
#
# Mechanical properties :
#
#
# Convention : Reuss Voigt Hill
#
# Bulk Modulus (GPa) = 37.03092 45.47926 41.25509
# Shear Modulus (GPa) = 18.81923 21.01404 19.91663
#
# Velocity S-wave (km/s) = 3.39948 3.59225 3.49720
# Velocity P-wave (km/s) = 6.17645 6.71815 6.45299
#
# Compressibility (1/GPa) = 0.02700446
#
# Stress axis : x y z
#
# Youngs Moduli (GPa) = 62.76464 35.56592 56.06545
#
# Poissons Ratio (x) = 0.10903 0.44861
# Poissons Ratio (y) = 0.19241 0.35733
# Poissons Ratio (z) = 0.50222 0.22668
#
# Static dielectric constant tensor:
#      x y z
#    x 3.151910 0.000000 0.000000 
#    y 0.000000 2.937280 0.000000 
#    z 0.000000 0.000000 2.999850 
# 
# 
# High freq. dielectric constant tensor:
#      x y z
#    x 1.605310 0.000000 0.000000 
#    y 0.000000 1.620770 0.000000 
#    z 0.000000 0.000000 1.605230 
# 
# From -- ./inp_files/70426.got.cif
#   From: 2010.03.12/outbox.cif.g09.slc.cpg/sg74_36_cif.got.tgz:70426.got - 2010.04.16 15:46:19.
