data_PCOD8299893
_publ_section_title
;
Structure prediction by ZEFSAII (Michael W. Deem and Ramdas Pophale) SiO2 
 PCOD8299893
Probable space group: I M M A
;
_chemical_formula_sum "Si O2"
_cell_formula_units_Z 88
_cell_length_a 18.157189
_cell_length_b 8.881081
_cell_length_c 28.654537
_cell_angle_alpha 90.000000
_cell_angle_beta 90.000000
_cell_angle_gamma 90.000000
_cell_volume 4620.700724
_symmetry_space_group_name_H-M "I M M A"
_symmetry_group_IT_number 74
_symmetry_cell_setting 'orthorhombic'
loop_
_space_group_symop_operation_xyz
x,y,z
-x,1/2-y,z
x,-y,-z
-x,1/2+y,-z
-x,-y,-z
x,1/2+y,-z
-x,y,z
x,1/2-y,z
1/2+x,1/2+y,1/2+z
1/2-x,-y,1/2+z
1/2+x,1/2-y,1/2-z
1/2-x,y,1/2-z
1/2-x,1/2-y,1/2-z
1/2+x,y,1/2-z
1/2-x,1/2+y,1/2+z
1/2+x,-y,1/2+z
loop_
_atom_site_type_symbol
_atom_site_label
_atom_site_fract_x
_atom_site_fract_y
_atom_site_fract_z
Si Si1 0.082929 0.427727 0.450987
Si Si2 0.682791 0.079551 0.784584
Si Si3 0.705622 0.073028 0.118462
Si Si4 0.500000 0.429519 0.551145
Si Si5 0.129692 0.926669 0.889800
Si Si6 0.413763 0.420937 0.702205
O O1 0.103148 0.500000 0.500000
O O2 0.090763 0.250000 0.456104
O O3 0.141194 0.495010 0.413961
O O4 0.000000 0.472272 0.435269
O O5 0.677408 0.250000 0.802774
O O6 0.750000 0.055878 0.750000
O O7 0.610953 0.033062 0.754411
O O8 0.691716 0.975486 0.828894
O O9 0.699979 0.250000 0.118432
O O10 0.786058 0.026385 0.098304
O O11 0.500000 0.250000 0.547743
O O12 0.500000 0.500000 0.500000
O O13 0.573475 0.480426 0.578153
O O14 0.115079 0.750000 0.897606
O O15 0.119582 0.965735 0.835519
O O16 0.500000 0.432349 0.699301
O O17 0.386355 0.250000 0.691445
#
# Coordination Sequence:
#
# PCOD8299893 Si02
#       6
#    16  16  16   8  16  16
#     4   9  19  38  61  84 113 149 188 232 286 345
#     4  10  20  34  53  80 113 150 195 238 283 335
#     4  10  22  37  57  87 121 153 191 240 291 347
#     4  12  26  44  64  86 116 152 194 244 297 350
#     4  11  22  37  58  85 115 149 194 240 290 349
#     4  10  20  35  55  79 110 152 199 242 287 340
#
# _framework density 19.044730999999999
#
# number of rings (size 3 to 8) (size 9 to 14) (size 15 to 20)
#    0.000    1.818    2.727    1.364    0.000    4.000 
#    0.000    1.818    0.000    0.000    0.000    0.000 
#    0.000    0.000    0.000    0.000    0.000    0.000 
#
# Total GULP energy -545539.840151 kJ/mol
# GULP energy per Si atom -12398.632731 kJ/mol
# Density = 1.900138 g / cm^3
# Si number density = 19.044731 Si / 1000 Ang^3
#
#
#
# Elastic Constant Matrix: (Units=GPa)
#
#
# Indices 1 2 3 4 5 6 
#
# 1 124.0678 45.5534 72.2946 0.0000 0.0000 0.0000
# 2 45.5534 47.0712 36.1988 0.0000 0.0000 0.0000
# 3 72.2946 36.1988 109.8262 0.0000 0.0000 0.0000
# 4 0.0000 0.0000 0.0000 34.1741 0.0000 0.0000
# 5 0.0000 0.0000 0.0000 0.0000 23.1315 0.0000
# 6 0.0000 0.0000 0.0000 0.0000 0.0000 20.5181
#
#
#
# Elastic Compliance Matrix: (Units=1/GPa)
#
#
# Indices 1 2 3 4 5 6 
#
# 1 0.015861 -0.009806 -0.007209 0.000000 0.000000 0.000000
# 2 -0.009806 0.034520 -0.004923 0.000000 0.000000 0.000000
# 3 -0.007209 -0.004923 0.015473 0.000000 0.000000 0.000000
# 4 0.000000 0.000000 0.000000 0.029262 0.000000 0.000000
# 5 0.000000 0.000000 0.000000 0.000000 0.043231 0.000000
# 6 0.000000 0.000000 0.000000 0.000000 0.000000 0.048737
#
#
# Mechanical properties :
#
#
# Convention : Reuss Voigt Hill
#
# Bulk Modulus (GPa) = 45.49789 65.45098 55.47443
# Shear Modulus (GPa) = 20.98315 24.02595 22.50455
#
# Velocity S-wave (km/s) = 3.32291 3.55569 3.44127
# Velocity P-wave (km/s) = 6.21805 7.16232 6.70683
#
# Compressibility (1/GPa) = 0.02197904
#
# Stress axis : x y z
#
# Youngs Moduli (GPa) = 63.04745 28.96866 64.62818
#
# Poissons Ratio (x) = 0.28407 0.46589
# Poissons Ratio (y) = 0.61824 0.31816
# Poissons Ratio (z) = 0.45449 0.14261
#
# Static dielectric constant tensor:
#      x y z
#    x 3.992130 0.000000 0.000000 
#    y 0.000000 3.451110 0.000000 
#    z 0.000000 0.000000 2.347140 
# 
# 
# High freq. dielectric constant tensor:
#      x y z
#    x 1.757400 0.000000 0.000000 
#    y 0.000000 1.732770 0.000000 
#    z 0.000000 0.000000 1.735560 
# 
# From -- ./inp_files/70294.got.cif
#   From: 2010.03.12/outbox.cif.g09.slc.cpg/sg74_36_cif.got.tgz:70294.got - 2010.04.16 15:46:19.
