data_PCOD8299145
_publ_section_title
;
Structure prediction by ZEFSAII (Michael W. Deem and Ramdas Pophale) SiO2 
 PCOD8299145
Probable space group: I M M A
;
_chemical_formula_sum "Si O2"
_cell_formula_units_Z 88
_cell_length_a 17.685904
_cell_length_b 24.598070
_cell_length_c 10.938987
_cell_angle_alpha 90.000000
_cell_angle_beta 90.000000
_cell_angle_gamma 90.000000
_cell_volume 4758.887110
_symmetry_space_group_name_H-M "I M M A"
_symmetry_group_IT_number 74
_symmetry_cell_setting 'orthorhombic'
loop_
_space_group_symop_operation_xyz
x,y,z
-x,1/2-y,z
x,-y,-z
-x,1/2+y,-z
-x,-y,-z
x,1/2+y,-z
-x,y,z
x,1/2-y,z
1/2+x,1/2+y,1/2+z
1/2-x,-y,1/2+z
1/2+x,1/2-y,1/2-z
1/2-x,y,1/2-z
1/2-x,1/2-y,1/2-z
1/2+x,y,1/2-z
1/2-x,1/2+y,1/2+z
1/2+x,-y,1/2+z
loop_
_atom_site_type_symbol
_atom_site_label
_atom_site_fract_x
_atom_site_fract_y
_atom_site_fract_z
Si Si1 0.213122 0.750000 0.883617
Si Si2 0.696285 0.250000 0.865802
Si Si3 0.158201 0.366062 0.587050
Si Si4 0.000000 0.914253 0.459928
Si Si5 0.250000 0.947893 0.250000
Si Si6 0.500000 0.513449 0.801906
Si Si7 0.864856 0.024240 0.121724
Si Si8 0.284805 0.366791 0.381764
O O1 0.250000 0.750000 0.750000
O O2 0.169801 0.691669 0.890224
O O3 0.268747 0.750000 0.998966
O O4 0.750000 0.250000 0.750000
O O5 0.649694 0.193881 0.853007
O O6 0.187156 0.410297 0.685271
O O7 0.215715 0.366647 0.475205
O O8 0.074916 0.378307 0.538438
O O9 0.000000 0.950487 0.579053
O O10 0.000000 0.950326 0.337393
O O11 0.207985 0.987432 0.154384
O O12 0.424484 0.526696 0.729349
O O13 0.842560 0.085706 0.087620
O O14 0.903154 0.000000 0.000000
O O15 0.250000 0.377600 0.250000
#
# Coordination Sequence:
#
# PCOD8299145 Si02
#       8
#     8   8  16   8   8   8  16  16
#     4   8  18  34  53  83 115 151 190 246 295 342
#     4  10  20  35  63  90 117 152 203 251 296 355
#     4  11  22  39  59  90 119 156 196 248 303 356
#     4  11  24  39  60  80 127 160 189 251 304 364
#     4  12  22  35  60  89 118 150 200 246 302 364
#     4  11  25  40  54  86 120 162 199 240 313 369
#     4  12  23  36  59  86 120 157 199 255 303 368
#     4  10  19  34  58  84 114 149 199 244 293 358
#
# _framework density 18.491717999999999
#
# number of rings (size 3 to 8) (size 9 to 14) (size 15 to 20)
#    0.000    1.273    5.455    1.364    0.000    0.364 
#    0.000    0.000    0.000    1.636    0.000    0.000 
#    0.000    0.000    0.000    0.000    0.000    0.000 
#
# Total GULP energy -545237.180867 kJ/mol
# GULP energy per Si atom -12391.754111 kJ/mol
# Density = 1.844963 g / cm^3
# Si number density = 18.491718 Si / 1000 Ang^3
#
#
#
# Elastic Constant Matrix: (Units=GPa)
#
#
# Indices 1 2 3 4 5 6 
#
# 1 78.2107 47.8023 25.5521 0.0000 0.0000 0.0000
# 2 47.8023 173.2964 33.5359 0.0000 0.0000 0.0000
# 3 25.5521 33.5359 80.5665 0.0000 0.0000 0.0000
# 4 0.0000 0.0000 0.0000 25.7523 0.0000 0.0000
# 5 0.0000 0.0000 0.0000 0.0000 30.2747 0.0000
# 6 0.0000 0.0000 0.0000 0.0000 0.0000 51.7855
#
#
#
# Elastic Compliance Matrix: (Units=1/GPa)
#
#
# Indices 1 2 3 4 5 6 
#
# 1 0.016277 -0.003797 -0.003582 0.000000 0.000000 0.000000
# 2 -0.003797 0.007162 -0.001777 0.000000 0.000000 0.000000
# 3 -0.003582 -0.001777 0.014288 0.000000 0.000000 0.000000
# 4 0.000000 0.000000 0.000000 0.038831 0.000000 0.000000
# 5 0.000000 0.000000 0.000000 0.000000 0.033031 0.000000
# 6 0.000000 0.000000 0.000000 0.000000 0.000000 0.019310
#
#
# Mechanical properties :
#
#
# Convention : Reuss Voigt Hill
#
# Bulk Modulus (GPa) = 51.50602 60.65047 56.07824
# Shear Modulus (GPa) = 32.53485 36.57473 34.55479
#
# Velocity S-wave (km/s) = 4.19910 4.45218 4.32749
# Velocity P-wave (km/s) = 7.17105 7.70059 7.44054
#
# Compressibility (1/GPa) = 0.01941521
#
# Stress axis : x y z
#
# Youngs Moduli (GPa) = 61.43750 139.63389 69.98997
#
# Poissons Ratio (x) = 0.53014 0.25070
# Poissons Ratio (y) = 0.23325 0.12437
# Poissons Ratio (z) = 0.22006 0.24812
#
# Static dielectric constant tensor:
#      x y z
#    x 3.008670 0.000000 0.000000 
#    y 0.000000 4.170800 0.000000 
#    z 0.000000 0.000000 3.548940 
# 
# 
# High freq. dielectric constant tensor:
#      x y z
#    x 1.672230 0.000000 0.000000 
#    y 0.000000 1.745430 0.000000 
#    z 0.000000 0.000000 1.735570 
# 
# From -- ./inp_files/20943.got.cif
#   From: 2010.03.12/outbox.cif.g09.slc.cpg/sg74_11_cif.got.tgz:20943.got - 2010.04.16 15:46:19.
