data_PCOD8299919
_publ_section_title
;
Structure prediction by ZEFSAII (Michael W. Deem and Ramdas Pophale) SiO2 
 PCOD8299919
Probable space group: I M M A
;
_chemical_formula_sum "Si O2"
_cell_formula_units_Z 104
_cell_length_a 26.725355
_cell_length_b 8.788319
_cell_length_c 24.184182
_cell_angle_alpha 90.000000
_cell_angle_beta 90.000000
_cell_angle_gamma 90.000000
_cell_volume 5680.161683
_symmetry_space_group_name_H-M "I M M A"
_symmetry_group_IT_number 74
_symmetry_cell_setting 'orthorhombic'
loop_
_space_group_symop_operation_xyz
x,y,z
-x,1/2-y,z
x,-y,-z
-x,1/2+y,-z
-x,-y,-z
x,1/2+y,-z
-x,y,z
x,1/2-y,z
1/2+x,1/2+y,1/2+z
1/2-x,-y,1/2+z
1/2+x,1/2-y,1/2-z
1/2-x,y,1/2-z
1/2-x,1/2-y,1/2-z
1/2+x,y,1/2-z
1/2-x,1/2+y,1/2+z
1/2+x,-y,1/2+z
loop_
_atom_site_type_symbol
_atom_site_label
_atom_site_fract_x
_atom_site_fract_y
_atom_site_fract_z
Si Si1 0.289465 0.924749 0.637562
Si Si2 0.366608 0.925949 0.733089
Si Si3 0.124386 0.568428 0.939586
Si Si4 0.892761 0.429360 0.440214
Si Si5 0.058238 0.571845 0.153340
Si Si6 0.320451 0.932004 0.846555
Si Si7 0.000000 0.427053 0.441146
O O1 0.279751 0.750000 0.623974
O O2 0.318898 0.946606 0.694136
O O3 0.322910 0.990967 0.586863
O O4 0.235178 0.003013 0.645478
O O5 0.382932 0.750000 0.737007
O O6 0.348776 0.992962 0.791960
O O7 0.413769 0.018647 0.709285
O O8 0.122884 0.750000 0.942213
O O9 0.079138 0.514724 0.900493
O O10 0.117493 0.500000 0.000000
O O11 0.884201 0.500000 0.500000
O O12 0.887576 0.250000 0.446683
O O13 0.851156 0.492731 0.399000
O O14 0.947245 0.473712 0.412819
O O15 0.067048 0.750000 0.144760
O O16 0.000000 0.531588 0.159827
O O17 0.318249 0.750000 0.842128
O O18 0.000000 0.500000 0.500000
O O19 0.000000 0.250000 0.451232
#
# Coordination Sequence:
#
# PCOD8299919 Si02
#       7
#    16  16  16  16  16  16   8
#     4   8  15  28  48  72 100 131 164 200 243 295
#     4   9  17  31  52  76  98 128 168 209 250 297
#     4  10  20  34  54  79 106 138 174 213 254 302
#     4   9  17  29  45  65  91 122 157 196 240 285
#     4  10  21  37  55  74 102 138 171 210 260 310
#     4   9  16  28  48  75 100 128 166 207 249 296
#     4   8  14  26  42  58  80 112 148 184 223 270
#
# _framework density 18.309338
#
# number of rings (size 3 to 8) (size 9 to 14) (size 15 to 20)
#    0.000    2.923    0.000    2.308    0.000    4.000 
#    1.385    0.769    0.000   12.000    0.000    0.000 
#    0.000    0.000    0.000    0.000    0.000    0.000 
#
# Total GULP energy -644321.840181 kJ/mol
# GULP energy per Si atom -12390.804619 kJ/mol
# Density = 1.826767 g / cm^3
# Si number density = 18.309338 Si / 1000 Ang^3
#
#
#
# Elastic Constant Matrix: (Units=GPa)
#
#
# Indices 1 2 3 4 5 6 
#
# 1 156.0907 36.7489 71.3340 0.0000 0.0000 0.0000
# 2 36.7489 38.4165 25.0907 0.0000 0.0000 0.0000
# 3 71.3340 25.0907 103.4518 0.0000 0.0000 0.0000
# 4 0.0000 0.0000 0.0000 23.3052 0.0000 0.0000
# 5 0.0000 0.0000 0.0000 0.0000 17.7027 0.0000
# 6 0.0000 0.0000 0.0000 0.0000 0.0000 16.9004
#
#
#
# Elastic Compliance Matrix: (Units=1/GPa)
#
#
# Indices 1 2 3 4 5 6 
#
# 1 0.010504 -0.006318 -0.005710 0.000000 0.000000 0.000000
# 2 -0.006318 0.034730 -0.004067 0.000000 0.000000 0.000000
# 3 -0.005710 -0.004067 0.014590 0.000000 0.000000 0.000000
# 4 0.000000 0.000000 0.000000 0.042909 0.000000 0.000000
# 5 0.000000 0.000000 0.000000 0.000000 0.056489 0.000000
# 6 0.000000 0.000000 0.000000 0.000000 0.000000 0.059170
#
#
# Mechanical properties :
#
#
# Convention : Reuss Voigt Hill
#
# Bulk Modulus (GPa) = 36.18753 62.70070 49.44412
# Shear Modulus (GPa) = 19.24603 22.56733 20.90668
#
# Velocity S-wave (km/s) = 3.24568 3.51459 3.38281
# Velocity P-wave (km/s) = 5.81836 7.12666 6.50548
#
# Compressibility (1/GPa) = 0.02763383
#
# Stress axis : x y z
#
# Youngs Moduli (GPa) = 95.20473 28.79316 68.53936
#
# Poissons Ratio (x) = 0.18192 0.39138
# Poissons Ratio (y) = 0.60152 0.27873
# Poissons Ratio (z) = 0.54365 0.11709
#
# Static dielectric constant tensor:
#      x y z
#    x 4.236360 0.000000 0.000000 
#    y 0.000000 3.017040 0.000000 
#    z 0.000000 0.000000 3.416440 
# 
# 
# High freq. dielectric constant tensor:
#      x y z
#    x 1.724140 0.000000 0.000000 
#    y 0.000000 1.676000 0.000000 
#    z 0.000000 0.000000 1.701880 
# 
# From -- ./inp_files/62349.got.cif
#   From: 2010.03.12/outbox.cif.g09.slc.cpg/sg74_32_cif.got.tgz:62349.got - 2010.04.16 15:46:19.
