data_PCOD8299013
_publ_section_title
;
Structure prediction by ZEFSAII (Michael W. Deem and Ramdas Pophale) SiO2 
 PCOD8299013
Probable space group: I M M A
;
_chemical_formula_sum "Si O2"
_cell_formula_units_Z 72
_cell_length_a 25.292245
_cell_length_b 10.600421
_cell_length_c 13.757513
_cell_angle_alpha 90.000000
_cell_angle_beta 90.000000
_cell_angle_gamma 90.000000
_cell_volume 3688.505418
_symmetry_space_group_name_H-M "I M M A"
_symmetry_group_IT_number 74
_symmetry_cell_setting 'orthorhombic'
loop_
_space_group_symop_operation_xyz
x,y,z
-x,1/2-y,z
x,-y,-z
-x,1/2+y,-z
-x,-y,-z
x,1/2+y,-z
-x,y,z
x,1/2-y,z
1/2+x,1/2+y,1/2+z
1/2-x,-y,1/2+z
1/2+x,1/2-y,1/2-z
1/2-x,y,1/2-z
1/2-x,1/2-y,1/2-z
1/2+x,y,1/2-z
1/2-x,1/2+y,1/2+z
1/2+x,-y,1/2+z
loop_
_atom_site_type_symbol
_atom_site_label
_atom_site_fract_x
_atom_site_fract_y
_atom_site_fract_z
Si Si1 0.440492 0.750000 0.615849
Si Si2 0.598263 0.499458 0.705880
Si Si3 0.557911 0.250000 0.612233
Si Si4 0.194548 0.896382 0.304023
Si Si5 0.849598 0.000000 0.500000
Si Si6 0.441855 0.110850 0.111455
O O1 0.500000 0.750000 0.660874
O O2 0.408169 0.874835 0.643264
O O3 0.445137 0.750000 0.501802
O O4 0.586375 0.376375 0.644526
O O5 0.658400 0.486629 0.739271
O O6 0.562330 0.507821 0.802813
O O7 0.500000 0.250000 0.658983
O O8 0.176989 0.750000 0.302272
O O9 0.250000 0.913123 0.250000
O O10 0.189411 0.944394 0.416425
O O11 0.892041 0.896060 0.538154
O O12 0.500000 0.093472 0.060802
O O13 0.438607 0.250000 0.159594
#
# Coordination Sequence:
#
# PCOD8299013 Si02
#       6
#     8  16   8  16   8  16
#     4  11  22  38  59  87 131 169 199 256 316 360
#     4  11  21  38  60  88 121 165 212 252 308 376
#     4  11  22  36  57  89 125 165 215 256 302 368
#     4  10  22  44  65  88 123 165 205 264 322 357
#     4  10  21  36  64  90 120 156 209 254 300 374
#     4  10  19  33  57  87 124 159 190 240 310 374
#
# _framework density 19.520101
#
# number of rings (size 3 to 8) (size 9 to 14) (size 15 to 20)
#    0.000    1.556    2.222    3.667    0.000    1.778 
#    4.000    0.556    0.000    0.000    0.000    0.000 
#    0.000    0.000    0.000    0.000    0.000    0.000 
#
# Total GULP energy -445986.674250 kJ/mol
# GULP energy per Si atom -12388.518729 kJ/mol
# Density = 1.947567 g / cm^3
# Si number density = 19.520101 Si / 1000 Ang^3
#
#
#
# Elastic Constant Matrix: (Units=GPa)
#
#
# Indices 1 2 3 4 5 6 
#
# 1 104.3204 47.6345 53.7701 0.0000 0.0000 0.0000
# 2 47.6345 140.6116 48.2052 0.0000 0.0000 0.0000
# 3 53.7701 48.2052 96.7923 0.0000 0.0000 0.0000
# 4 0.0000 0.0000 0.0000 42.4159 0.0000 0.0000
# 5 0.0000 0.0000 0.0000 0.0000 27.1200 0.0000
# 6 0.0000 0.0000 0.0000 0.0000 0.0000 31.0351
#
#
#
# Elastic Compliance Matrix: (Units=1/GPa)
#
#
# Indices 1 2 3 4 5 6 
#
# 1 0.014140 -0.002529 -0.006596 0.000000 0.000000 0.000000
# 2 -0.002529 0.009028 -0.003091 0.000000 0.000000 0.000000
# 3 -0.006596 -0.003091 0.015535 0.000000 0.000000 0.000000
# 4 0.000000 0.000000 0.000000 0.023576 0.000000 0.000000
# 5 0.000000 0.000000 0.000000 0.000000 0.036873 0.000000
# 6 0.000000 0.000000 0.000000 0.000000 0.000000 0.032222
#
#
# Mechanical properties :
#
#
# Convention : Reuss Voigt Hill
#
# Bulk Modulus (GPa) = 70.07039 71.21597 70.64318
# Shear Modulus (GPa) = 31.14022 32.92183 32.03102
#
# Velocity S-wave (km/s) = 3.99844 4.11123 4.05523
# Velocity P-wave (km/s) = 7.56909 7.68758 7.62857
#
# Compressibility (1/GPa) = 0.01427136
#
# Stress axis : x y z
#
# Youngs Moduli (GPa) = 70.71985 110.76195 64.37066
#
# Poissons Ratio (x) = 0.28013 0.42457
# Poissons Ratio (y) = 0.17886 0.19900
# Poissons Ratio (z) = 0.46644 0.34241
#
# Static dielectric constant tensor:
#      x y z
#    x 3.506860 0.000000 0.000000 
#    y 0.000000 3.639820 0.000000 
#    z 0.000000 0.000000 3.612920 
# 
# 
# High freq. dielectric constant tensor:
#      x y z
#    x 1.747100 0.000000 0.000000 
#    y 0.000000 1.766700 0.000000 
#    z 0.000000 0.000000 1.766830 
# 
# From -- ./inp_files/37085.got.cif
#   From: 2010.03.12/outbox.cif.g09.slc.cpg/sg74_19_cif.got.tgz:37085.got - 2010.04.16 15:46:19.
