data_PCOD8299717
_publ_section_title
;
Structure prediction by ZEFSAII (Michael W. Deem and Ramdas Pophale) SiO2 
 PCOD8299717
Probable space group: I M M A
;
_chemical_formula_sum "Si O2"
_cell_formula_units_Z 96
_cell_length_a 25.016859
_cell_length_b 8.638229
_cell_length_c 23.861701
_cell_angle_alpha 90.000000
_cell_angle_beta 90.000000
_cell_angle_gamma 90.000000
_cell_volume 5156.545964
_symmetry_space_group_name_H-M "I M M A"
_symmetry_group_IT_number 74
_symmetry_cell_setting 'orthorhombic'
loop_
_space_group_symop_operation_xyz
x,y,z
-x,1/2-y,z
x,-y,-z
-x,1/2+y,-z
-x,-y,-z
x,1/2+y,-z
-x,y,z
x,1/2-y,z
1/2+x,1/2+y,1/2+z
1/2-x,-y,1/2+z
1/2+x,1/2-y,1/2-z
1/2-x,y,1/2-z
1/2-x,1/2-y,1/2-z
1/2+x,y,1/2-z
1/2-x,1/2+y,1/2+z
1/2+x,-y,1/2+z
loop_
_atom_site_type_symbol
_atom_site_label
_atom_site_fract_x
_atom_site_fract_y
_atom_site_fract_z
Si Si1 0.341830 0.068906 0.358409
Si Si2 0.247502 0.431995 0.939007
Si Si3 0.309970 0.581195 0.245135
Si Si4 0.939670 0.567611 0.189119
Si Si5 0.662325 0.070790 0.131960
Si Si6 0.560033 0.930966 0.807873
O O1 0.339928 0.250000 0.370199
O O2 0.302119 0.988441 0.401875
O O3 0.325186 0.027420 0.296185
O O4 0.403342 0.006923 0.360442
O O5 0.244915 0.250000 0.941839
O O6 0.306456 0.477724 0.916123
O O7 0.239689 0.500000 0.000000
O O8 0.341080 0.750000 0.243544
O O9 0.250000 0.632098 0.250000
O O10 0.313633 0.474798 0.191009
O O11 0.937815 0.750000 0.182377
O O12 0.919181 0.520772 0.252131
O O13 0.000000 0.504014 0.182033
O O14 0.672421 0.250000 0.119200
O O15 0.598499 0.032673 0.138491
O O16 0.500000 0.983781 0.823941
O O17 0.562372 0.750000 0.793164
#
# Coordination Sequence:
#
# PCOD8299717 Si02
#       6
#    16  16  16  16  16  16
#     4  12  23  36  57  83 114 151 188 231 281 339
#     4  12  26  44  62  82 109 144 188 239 288 341
#     4  11  21  32  50  79 114 151 187 228 279 336
#     4  10  20  33  52  81 118 156 191 228 274 331
#     4  11  21  34  56  84 115 151 188 230 281 340
#     4   9  18  32  51  79 117 156 190 226 273 332
#
# _framework density 18.617113
#
# number of rings (size 3 to 8) (size 9 to 14) (size 15 to 20)
#    0.000    1.167    3.333    4.500    0.000    2.333 
#    0.000    0.000    0.000    1.000    0.000    0.000 
#    0.000    0.000    0.000    0.000    0.000    0.000 
#
# Total GULP energy -594792.597688 kJ/mol
# GULP energy per Si atom -12391.512452 kJ/mol
# Density = 1.857474 g / cm^3
# Si number density = 18.617113 Si / 1000 Ang^3
#
#
#
# Elastic Constant Matrix: (Units=GPa)
#
#
# Indices 1 2 3 4 5 6 
#
# 1 101.6662 35.0752 9.8333 0.0000 0.0000 0.0000
# 2 35.0752 117.4957 16.5267 0.0000 0.0000 0.0000
# 3 9.8333 16.5267 9.3512 0.0000 0.0000 0.0000
# 4 0.0000 0.0000 0.0000 30.7239 0.0000 0.0000
# 5 0.0000 0.0000 0.0000 0.0000 8.4823 0.0000
# 6 0.0000 0.0000 0.0000 0.0000 0.0000 26.4410
#
#
#
# Elastic Compliance Matrix: (Units=1/GPa)
#
#
# Indices 1 2 3 4 5 6 
#
# 1 0.011392 -0.002283 -0.007944 0.000000 0.000000 0.000000
# 2 -0.002283 0.011784 -0.018426 0.000000 0.000000 0.000000
# 3 -0.007944 -0.018426 0.147855 0.000000 0.000000 0.000000
# 4 0.000000 0.000000 0.000000 0.032548 0.000000 0.000000
# 5 0.000000 0.000000 0.000000 0.000000 0.117892 0.000000
# 6 0.000000 0.000000 0.000000 0.000000 0.000000 0.037820
#
#
# Mechanical properties :
#
#
# Convention : Reuss Voigt Hill
#
# Bulk Modulus (GPa) = 8.79307 39.04262 23.91785
# Shear Modulus (GPa) = 11.00095 24.26797 17.63446
#
# Velocity S-wave (km/s) = 2.43349 3.61436 3.08103
# Velocity P-wave (km/s) = 3.55376 6.19960 5.05293
#
# Compressibility (1/GPa) = 0.11372588
#
# Stress axis : x y z
#
# Youngs Moduli (GPa) = 87.77886 84.85829 6.76337
#
# Poissons Ratio (x) = 0.19377 0.05373
# Poissons Ratio (y) = 0.20044 0.12462
# Poissons Ratio (z) = 0.69730 1.56357
#
# Static dielectric constant tensor:
#      x y z
#    x 4.192570 0.000000 0.000000 
#    y 0.000000 3.487400 0.000000 
#    z 0.000000 0.000000 2.908590 
# 
# 
# High freq. dielectric constant tensor:
#      x y z
#    x 1.746480 0.000000 0.000000 
#    y 0.000000 1.741550 0.000000 
#    z 0.000000 0.000000 1.671070 
# 
# From -- ./inp_files/55067.got.cif
#   From: 2010.03.12/outbox.cif.g09.slc.cpg/sg74_28_cif.got.tgz:55067.got - 2010.04.16 15:46:19.
