data_PCOD8299047
_publ_section_title
;
Structure prediction by ZEFSAII (Michael W. Deem and Ramdas Pophale) SiO2 
 PCOD8299047
Probable space group: I M M A
;
_chemical_formula_sum "Si O2"
_cell_formula_units_Z 96
_cell_length_a 18.873168
_cell_length_b 9.190304
_cell_length_c 29.850015
_cell_angle_alpha 90.000000
_cell_angle_beta 90.000000
_cell_angle_gamma 90.000000
_cell_volume 5177.489620
_symmetry_space_group_name_H-M "I M M A"
_symmetry_group_IT_number 74
_symmetry_cell_setting 'orthorhombic'
loop_
_space_group_symop_operation_xyz
x,y,z
-x,1/2-y,z
x,-y,-z
-x,1/2+y,-z
-x,-y,-z
x,1/2+y,-z
-x,y,z
x,1/2-y,z
1/2+x,1/2+y,1/2+z
1/2-x,-y,1/2+z
1/2+x,1/2-y,1/2-z
1/2-x,y,1/2-z
1/2-x,1/2-y,1/2-z
1/2+x,y,1/2-z
1/2-x,1/2+y,1/2+z
1/2+x,-y,1/2+z
loop_
_atom_site_type_symbol
_atom_site_label
_atom_site_fract_x
_atom_site_fract_y
_atom_site_fract_z
Si Si1 0.182440 0.081230 0.220417
Si Si2 0.081836 0.920282 0.045531
Si Si3 0.825654 0.581554 0.624112
Si Si4 0.815746 0.077250 0.873304
Si Si5 0.421002 0.915363 0.959710
Si Si6 0.921431 0.419016 0.296768
O O1 0.194823 0.250000 0.207954
O O2 0.250000 0.027299 0.250000
O O3 0.109737 0.057141 0.247400
O O4 0.169744 0.991411 0.175296
O O5 0.092478 0.750000 0.037020
O O6 0.126651 0.970803 0.089168
O O7 0.000000 0.959362 0.055508
O O8 0.107829 0.000000 0.000000
O O9 0.802196 0.750000 0.630366
O O10 0.759477 0.483141 0.610620
O O11 0.881780 0.559754 0.585880
O O12 0.864112 0.517202 0.668318
O O13 0.814245 0.250000 0.868318
O O14 0.500000 0.977078 0.952464
O O15 0.422090 0.750000 0.974466
O O16 0.382337 0.000000 0.000000
O O17 0.929289 0.250000 0.308474
O O18 0.000000 0.491605 0.299868
#
# Coordination Sequence:
#
# PCOD8299047 Si02
#       6
#    16  16  16  16  16  16
#     4  10  19  35  56  79 107 142 183 226 273 321
#     4   9  20  40  62  83 110 145 184 229 280 333
#     4  10  19  34  54  76 104 140 180 222 265 314
#     4  11  23  36  55  83 113 144 177 217 275 335
#     4   9  18  32  51  74 101 137 178 219 265 313
#     4   9  17  31  54  80 103 133 179 229 267 306
#
# _framework density 18.541803999999999
#
# number of rings (size 3 to 8) (size 9 to 14) (size 15 to 20)
#    0.000    2.333    1.667    1.000    0.000    5.667 
#    0.000    3.333    0.000    2.500    0.000    0.000 
#    0.000    0.000    0.000    0.000    0.000    0.000 
#
# Total GULP energy -594957.806788 kJ/mol
# GULP energy per Si atom -12394.954308 kJ/mol
# Density = 1.849960 g / cm^3
# Si number density = 18.541804 Si / 1000 Ang^3
#
#
#
# Elastic Constant Matrix: (Units=GPa)
#
#
# Indices 1 2 3 4 5 6 
#
# 1 106.5538 37.9782 59.5969 0.0000 0.0000 0.0000
# 2 37.9782 51.3770 58.9019 0.0000 0.0000 0.0000
# 3 59.5969 58.9019 142.1747 0.0000 0.0000 0.0000
# 4 0.0000 0.0000 0.0000 33.2285 0.0000 0.0000
# 5 0.0000 0.0000 0.0000 0.0000 -29.0318 0.0000
# 6 0.0000 0.0000 0.0000 0.0000 0.0000 16.1383
#
#
#
# Elastic Compliance Matrix: (Units=1/GPa)
#
#
# Indices 1 2 3 4 5 6 
#
# 1 0.013329 -0.006566 -0.002867 0.000000 0.000000 0.000000
# 2 -0.006566 0.040306 -0.013946 0.000000 0.000000 0.000000
# 3 -0.002867 -0.013946 0.014013 0.000000 0.000000 0.000000
# 4 0.000000 0.000000 0.000000 0.030095 0.000000 0.000000
# 5 0.000000 0.000000 0.000000 0.000000 -0.034445 0.000000
# 6 0.000000 0.000000 0.000000 0.000000 0.000000 0.061965
#
#
# Mechanical properties :
#
#
# Convention : Reuss Voigt Hill
#
# Bulk Modulus (GPa) = 47.86953 68.11770 57.99361
# Shear Modulus (GPa) = 27.93544 13.64224 20.78884
#
# Velocity S-wave (km/s) = 3.88573 2.71542 3.35205
# Velocity P-wave (km/s) = 6.78270 6.82997 6.80638
#
# Compressibility (1/GPa) = 0.02089012
#
# Stress axis : x y z
#
# Youngs Moduli (GPa) = 75.02645 24.80993 71.36080
#
# Poissons Ratio (x) = 0.16289 0.20459
# Poissons Ratio (y) = 0.49260 0.99523
# Poissons Ratio (z) = 0.21510 0.34601
#
# Static dielectric constant tensor:
#      x y z
#    x 4.040320 0.000000 0.000000 
#    y 0.000000 3.256200 0.000000 
#    z 0.000000 0.000000 3.601760 
# 
# 
# High freq. dielectric constant tensor:
#      x y z
#    x 1.722890 0.000000 0.000000 
#    y 0.000000 1.689050 0.000000 
#    z 0.000000 0.000000 1.731880 
# 
# From -- ./inp_files/68132.got.cif
#   From: 2010.03.12/outbox.cif.g09.slc.cpg/sg74_35_cif.got.tgz:68132.got - 2010.04.16 15:46:19.
