data_PCOD8299665
_publ_section_title
;
Structure prediction by ZEFSAII (Michael W. Deem and Ramdas Pophale) SiO2 
 PCOD8299665
Probable space group: I M M A
;
_chemical_formula_sum "Si O2"
_cell_formula_units_Z 96
_cell_length_a 8.834210
_cell_length_b 19.106044
_cell_length_c 31.111177
_cell_angle_alpha 90.000000
_cell_angle_beta 90.000000
_cell_angle_gamma 90.000000
_cell_volume 5251.156165
_symmetry_space_group_name_H-M "I M M A"
_symmetry_group_IT_number 74
_symmetry_cell_setting 'orthorhombic'
loop_
_space_group_symop_operation_xyz
x,y,z
-x,1/2-y,z
x,-y,-z
-x,1/2+y,-z
-x,-y,-z
x,1/2+y,-z
-x,y,z
x,1/2-y,z
1/2+x,1/2+y,1/2+z
1/2-x,-y,1/2+z
1/2+x,1/2-y,1/2-z
1/2-x,y,1/2-z
1/2-x,1/2-y,1/2-z
1/2+x,y,1/2-z
1/2-x,1/2+y,1/2+z
1/2+x,-y,1/2+z
loop_
_atom_site_type_symbol
_atom_site_label
_atom_site_fract_x
_atom_site_fract_y
_atom_site_fract_z
Si Si1 0.325347 0.667903 0.544361
Si Si2 0.324130 0.830599 0.043753
Si Si3 0.674800 0.419529 0.209340
Si Si4 0.324786 0.075919 0.614274
Si Si5 0.324857 0.429925 0.709746
Si Si6 0.676897 0.425458 0.115114
O O1 0.500000 0.647119 0.549800
O O2 0.298286 0.750000 0.550193
O O3 0.269811 0.643547 0.497512
O O4 0.225190 0.629886 0.579725
O O5 0.500000 0.842622 0.034032
O O6 0.288041 0.750000 0.054038
O O7 0.275626 0.875212 0.084553
O O8 0.500000 0.420643 0.219546
O O9 0.750000 0.378028 0.250000
O O10 0.737306 0.497487 0.208152
O O11 0.708386 0.388694 0.161759
O O12 0.500000 0.080082 0.600602
O O13 0.302902 0.105415 0.663014
O O14 0.272377 0.996026 0.609512
O O15 0.500000 0.442732 0.719410
O O16 0.250000 0.386432 0.750000
O O17 0.500000 0.443990 0.110387
#
# Coordination Sequence:
#
# PCOD8299665 Si02
#       6
#    16  16  16  16  16  16
#     4  10  21  37  56  76  99 130 167 206 250 302
#     4  10  21  37  56  76  99 130 167 206 250 302
#     4   9  16  26  43  68  98 131 164 200 242 289
#     4  10  20  33  51  77 106 134 167 208 251 294
#     4   9  16  26  43  68  98 131 164 200 242 289
#     4  10  20  33  51  77 106 134 167 208 251 294
#
# _framework density 18.281689
#
# number of rings (size 3 to 8) (size 9 to 14) (size 15 to 20)
#    0.000    2.333    0.000    4.000    0.000    6.667 
#    0.000    3.333    0.000    1.000    0.000    0.000 
#    0.000    0.000    0.000    0.000    0.000    0.000 
#
# Total GULP energy -594867.380264 kJ/mol
# GULP energy per Si atom -12393.070422 kJ/mol
# Density = 1.824008 g / cm^3
# Si number density = 18.281689 Si / 1000 Ang^3
#
#
#
# Elastic Constant Matrix: (Units=GPa)
#
#
# Indices 1 2 3 4 5 6 
#
# 1 60.4444 17.8965 34.5338 0.0000 0.0000 0.0000
# 2 17.8965 32.1252 36.8833 0.0000 0.0000 0.0000
# 3 34.5338 36.8833 136.1889 0.0000 0.0000 0.0000
# 4 0.0000 0.0000 0.0000 -11.4797 0.0000 0.0000
# 5 0.0000 0.0000 0.0000 0.0000 38.2205 0.0000
# 6 0.0000 0.0000 0.0000 0.0000 0.0000 23.3015
#
#
#
# Elastic Compliance Matrix: (Units=1/GPa)
#
#
# Indices 1 2 3 4 5 6 
#
# 1 0.020665 -0.007976 -0.003080 0.000000 0.000000 0.000000
# 2 -0.007976 0.048253 -0.011046 0.000000 0.000000 0.000000
# 3 -0.003080 -0.011046 0.011115 0.000000 0.000000 0.000000
# 4 0.000000 0.000000 0.000000 -0.087110 0.000000 0.000000
# 5 0.000000 0.000000 0.000000 0.000000 0.026164 0.000000
# 6 0.000000 0.000000 0.000000 0.000000 0.000000 0.042916
#
#
# Mechanical properties :
#
#
# Convention : Reuss Voigt Hill
#
# Bulk Modulus (GPa) = 27.90943 45.26508 36.58725
# Shear Modulus (GPa) = 42.31872 19.30477 30.81174
#
# Velocity S-wave (km/s) = 4.81647 3.25308 4.10980
# Velocity P-wave (km/s) = 6.79931 6.23888 6.52512
#
# Compressibility (1/GPa) = 0.03583019
#
# Stress axis : x y z
#
# Youngs Moduli (GPa) = 48.38984 20.72393 89.96690
#
# Poissons Ratio (x) = 0.16530 0.27710
# Poissons Ratio (y) = 0.38597 0.99374
# Poissons Ratio (z) = 0.14904 0.22891
#
# Static dielectric constant tensor:
#      x y z
#    x 3.519770 0.000000 0.000000 
#    y 0.000000 2.856740 0.000000 
#    z 0.000000 0.000000 4.327530 
# 
# 
# High freq. dielectric constant tensor:
#      x y z
#    x 1.729750 0.000000 0.000000 
#    y 0.000000 1.648640 0.000000 
#    z 0.000000 0.000000 1.736290 
# 
# From -- ./inp_files/64337.got.cif
#   From: 2010.03.12/outbox.cif.g09.slc.cpg/sg74_33_cif.got.tgz:64337.got - 2010.04.16 15:46:19.
