data_PCOD8299010
_publ_section_title
;
Structure prediction by ZEFSAII (Michael W. Deem and Ramdas Pophale) SiO2 
 PCOD8299010
Probable space group: I M M A
;
_chemical_formula_sum "Si O2"
_cell_formula_units_Z 128
_cell_length_a 23.571624
_cell_length_b 9.621542
_cell_length_c 30.297776
_cell_angle_alpha 90.000000
_cell_angle_beta 90.000000
_cell_angle_gamma 90.000000
_cell_volume 6871.395328
_symmetry_space_group_name_H-M "I M M A"
_symmetry_group_IT_number 74
_symmetry_cell_setting 'orthorhombic'
loop_
_space_group_symop_operation_xyz
x,y,z
-x,1/2-y,z
x,-y,-z
-x,1/2+y,-z
-x,-y,-z
x,1/2+y,-z
-x,y,z
x,1/2-y,z
1/2+x,1/2+y,1/2+z
1/2-x,-y,1/2+z
1/2+x,1/2-y,1/2-z
1/2-x,y,1/2-z
1/2-x,1/2-y,1/2-z
1/2+x,y,1/2-z
1/2-x,1/2+y,1/2+z
1/2+x,-y,1/2+z
loop_
_atom_site_type_symbol
_atom_site_label
_atom_site_fract_x
_atom_site_fract_y
_atom_site_fract_z
Si Si1 0.368740 0.590733 0.702338
Si Si2 0.249338 0.409752 0.161171
Si Si3 0.622516 0.409005 0.540778
Si Si4 0.634653 0.411720 0.958769
Si Si5 0.756023 0.907797 0.076006
Si Si6 0.629355 0.412539 0.196595
Si Si7 0.565816 0.590113 0.127281
Si Si8 0.566346 0.411694 0.631463
O O1 0.384890 0.750000 0.692098
O O2 0.301722 0.566898 0.695386
O O3 0.382422 0.551817 0.752608
O O4 0.406342 0.494049 0.671616
O O5 0.254242 0.250000 0.146783
O O6 0.235801 0.495936 0.117883
O O7 0.307184 0.460701 0.183968
O O8 0.600052 0.500000 0.500000
O O9 0.605015 0.250000 0.531780
O O10 0.690222 0.425618 0.544249
O O11 0.593052 0.463624 0.585439
O O12 0.625196 0.250000 0.969273
O O13 0.700400 0.449341 0.951277
O O14 0.599853 0.458670 0.915848
O O15 0.611851 0.500000 0.000000
O O16 0.750822 0.750000 0.093359
O O17 0.621053 0.250000 0.187140
O O18 0.583809 0.497377 0.168574
O O19 0.500000 0.567212 0.117571
O O20 0.579773 0.750000 0.138415
O O21 0.500000 0.442135 0.630515
O O22 0.580235 0.250000 0.638555
#
# Coordination Sequence:
#
# PCOD8299010 Si02
#       8
#    16  16  16  16  16  16  16  16
#     4  10  21  37  58  85 115 146 182 227 278 331
#     4  10  19  33  57  85 113 145 180 222 276 333
#     4  10  21  36  56  82 112 144 181 226 277 331
#     4  10  21  36  56  82 112 144 181 226 277 331
#     4  10  19  34  56  82 112 145 180 224 276 331
#     4  10  21  37  58  85 115 146 182 227 278 331
#     4  10  22  40  59  80 110 148 190 234 276 321
#     4  10  22  40  59  80 110 148 190 234 276 321
#
# _framework density 18.627948
#
# number of rings (size 3 to 8) (size 9 to 14) (size 15 to 20)
#    0.000    2.000    2.500    0.750    0.000    5.500 
#    0.000    2.500    0.000    2.250    0.000    0.000 
#    0.000    0.000    0.000    0.000    0.000    0.000 
#
# Total GULP energy -793860.506919 kJ/mol
# GULP energy per Si atom -12404.070421 kJ/mol
# Density = 1.858555 g / cm^3
# Si number density = 18.627948 Si / 1000 Ang^3
#
#
#
# Elastic Constant Matrix: (Units=GPa)
#
#
# Indices 1 2 3 4 5 6 
#
# 1 78.7073 24.6163 30.7133 0.0000 0.0000 0.0000
# 2 24.6163 56.3027 55.3971 0.0000 0.0000 0.0000
# 3 30.7133 55.3971 122.9276 0.0000 0.0000 0.0000
# 4 0.0000 0.0000 0.0000 38.6097 0.0000 0.0000
# 5 0.0000 0.0000 0.0000 0.0000 12.2142 0.0000
# 6 0.0000 0.0000 0.0000 0.0000 0.0000 24.3882
#
#
#
# Elastic Compliance Matrix: (Units=1/GPa)
#
#
# Indices 1 2 3 4 5 6 
#
# 1 0.014853 -0.005107 -0.001409 0.000000 0.000000 0.000000
# 2 -0.005107 0.033666 -0.013896 0.000000 0.000000 0.000000
# 3 -0.001409 -0.013896 0.014749 0.000000 0.000000 0.000000
# 4 0.000000 0.000000 0.000000 0.025900 0.000000 0.000000
# 5 0.000000 0.000000 0.000000 0.000000 0.081872 0.000000
# 6 0.000000 0.000000 0.000000 0.000000 0.000000 0.041003
#
#
# Mechanical properties :
#
#
# Convention : Reuss Voigt Hill
#
# Bulk Modulus (GPa) = 44.55606 53.26569 48.91087
# Shear Modulus (GPa) = 19.20503 24.85648 22.03075
#
# Velocity S-wave (km/s) = 3.21437 3.65686 3.44273
# Velocity P-wave (km/s) = 6.14387 6.81812 6.48975
#
# Compressibility (1/GPa) = 0.02244364
#
# Stress axis : x y z
#
# Youngs Moduli (GPa) = 67.32856 29.70356 67.80108
#
# Poissons Ratio (x) = 0.15169 0.09556
# Poissons Ratio (y) = 0.34384 0.94213
# Poissons Ratio (z) = 0.09490 0.41275
#
# Static dielectric constant tensor:
#      x y z
#    x 3.456390 0.000000 0.000000 
#    y 0.000000 3.372380 0.000000 
#    z 0.000000 0.000000 3.366030 
# 
# 
# High freq. dielectric constant tensor:
#      x y z
#    x 1.726340 0.000000 0.000000 
#    y 0.000000 1.717810 0.000000 
#    z 0.000000 0.000000 1.724600 
# 
# From -- ./inp_files/62109.got.cif
#   From: 2010.03.12/outbox.cif.g09.slc.cpg/sg74_32_cif.got.tgz:62109.got - 2010.04.16 15:46:19.
