data_PCOD8299728
_publ_section_title
;
Structure prediction by ZEFSAII (Michael W. Deem and Ramdas Pophale) SiO2 
 PCOD8299728
Probable space group: I M M A
;
_chemical_formula_sum "Si O2"
_cell_formula_units_Z 96
_cell_length_a 23.481668
_cell_length_b 8.671444
_cell_length_c 25.109965
_cell_angle_alpha 90.000000
_cell_angle_beta 90.000000
_cell_angle_gamma 90.000000
_cell_volume 5112.890297
_symmetry_space_group_name_H-M "I M M A"
_symmetry_group_IT_number 74
_symmetry_cell_setting 'orthorhombic'
loop_
_space_group_symop_operation_xyz
x,y,z
-x,1/2-y,z
x,-y,-z
-x,1/2+y,-z
-x,-y,-z
x,1/2+y,-z
-x,y,z
x,1/2-y,z
1/2+x,1/2+y,1/2+z
1/2-x,-y,1/2+z
1/2+x,1/2-y,1/2-z
1/2-x,y,1/2-z
1/2-x,1/2-y,1/2-z
1/2+x,y,1/2-z
1/2-x,1/2+y,1/2+z
1/2+x,-y,1/2+z
loop_
_atom_site_type_symbol
_atom_site_label
_atom_site_fract_x
_atom_site_fract_y
_atom_site_fract_z
Si Si1 0.000000 0.427671 0.187530
Si Si2 0.814973 0.067977 0.442930
Si Si3 0.805245 0.068700 0.943168
Si Si4 0.881963 0.569144 0.349209
Si Si5 0.000000 0.431717 0.697337
Si Si6 0.378113 0.570905 0.646701
Si Si7 0.816530 0.927416 0.744983
O O1 0.000000 0.523671 0.241248
O O2 0.055061 0.466867 0.152090
O O3 0.000000 0.250000 0.205065
O O4 0.810141 0.250000 0.447052
O O5 0.831630 0.000000 0.500000
O O6 0.754321 0.002683 0.423041
O O7 0.864036 0.021261 0.402015
O O8 0.797524 0.250000 0.948936
O O9 0.854646 0.030608 0.901469
O O10 0.823067 0.000000 0.000000
O O11 0.882465 0.750000 0.361448
O O12 0.838052 0.536117 0.301922
O O13 0.944014 0.504881 0.332443
O O14 0.000000 0.250000 0.695002
O O15 0.366906 0.750000 0.634198
O O16 0.346694 0.521207 0.700704
O O17 0.831089 0.750000 0.731301
O O18 0.750000 0.954400 0.750000
#
# Coordination Sequence:
#
# PCOD8299728 Si02
#       7
#     8  16  16  16   8  16  16
#     4  10  20  36  59  82 111 156 199 237 283 341
#     4  11  22  39  62  87 116 150 189 235 287 343
#     4  11  22  38  61  87 116 151 189 233 288 346
#     4  11  22  37  57  84 116 151 193 236 284 339
#     4  10  22  38  57  82 117 156 193 239 285 335
#     4  10  20  35  55  83 117 151 194 239 285 340
#     4  10  20  33  53  82 115 149 185 232 289 342
#
# _framework density 18.776071999999999
#
# number of rings (size 3 to 8) (size 9 to 14) (size 15 to 20)
#    0.000    1.500    1.667    5.500    0.000    3.667 
#    0.000    0.833    0.000    0.000    0.000    0.000 
#    0.000    0.000    0.000    0.000    0.000    0.000 
#
# Total GULP energy -595456.925150 kJ/mol
# GULP energy per Si atom -12405.352607 kJ/mol
# Density = 1.873334 g / cm^3
# Si number density = 18.776072 Si / 1000 Ang^3
#
#
#
# Elastic Constant Matrix: (Units=GPa)
#
#
# Indices 1 2 3 4 5 6 
#
# 1 106.6546 30.8279 55.4395 0.0000 0.0000 0.0000
# 2 30.8279 98.0929 40.8726 0.0000 0.0000 0.0000
# 3 55.4395 40.8726 105.5501 0.0000 0.0000 0.0000
# 4 0.0000 0.0000 0.0000 34.8726 0.0000 0.0000
# 5 0.0000 0.0000 0.0000 0.0000 19.9614 0.0000
# 6 0.0000 0.0000 0.0000 0.0000 0.0000 92.2327
#
#
#
# Elastic Compliance Matrix: (Units=1/GPa)
#
#
# Indices 1 2 3 4 5 6 
#
# 1 0.013077 -0.001488 -0.006292 0.000000 0.000000 0.000000
# 2 -0.001488 0.012325 -0.003991 0.000000 0.000000 0.000000
# 3 -0.006292 -0.003991 0.014325 0.000000 0.000000 0.000000
# 4 0.000000 0.000000 0.000000 0.028676 0.000000 0.000000
# 5 0.000000 0.000000 0.000000 0.000000 0.050097 0.000000
# 6 0.000000 0.000000 0.000000 0.000000 0.000000 0.010842
#
#
# Mechanical properties :
#
#
# Convention : Reuss Voigt Hill
#
# Bulk Modulus (GPa) = 61.79021 62.73084 62.26053
# Shear Modulus (GPa) = 31.58982 41.62386 36.60684
#
# Velocity S-wave (km/s) = 4.10622 4.71346 4.42028
# Velocity P-wave (km/s) = 7.44727 7.94385 7.69957
#
# Compressibility (1/GPa) = 0.01618379
#
# Stress axis : x y z
#
# Youngs Moduli (GPa) = 76.47046 81.13576 69.80918
#
# Poissons Ratio (x) = 0.12072 0.43927
# Poissons Ratio (y) = 0.11378 0.27862
# Poissons Ratio (z) = 0.48119 0.32383
#
# Static dielectric constant tensor:
#      x y z
#    x 3.665430 0.000000 0.000000 
#    y 0.000000 3.423790 0.000000 
#    z 0.000000 0.000000 3.390910 
# 
# 
# High freq. dielectric constant tensor:
#      x y z
#    x 1.732720 0.000000 0.000000 
#    y 0.000000 1.731680 0.000000 
#    z 0.000000 0.000000 1.728900 
# 
# From -- ./inp_files/61926.got.cif
#   From: 2010.03.12/outbox.cif.g09.slc.cpg/sg74_31_cif.got.tgz:61926.got - 2010.04.16 15:46:19.
