data_PCOD8299209
_publ_section_title
;
Structure prediction by ZEFSAII (Michael W. Deem and Ramdas Pophale) SiO2 
 PCOD8299209
Probable space group: I M M A
;
_chemical_formula_sum "Si O2"
_cell_formula_units_Z 72
_cell_length_a 8.785394
_cell_length_b 25.271090
_cell_length_c 17.219451
_cell_angle_alpha 90.000000
_cell_angle_beta 90.000000
_cell_angle_gamma 90.000000
_cell_volume 3823.001941
_symmetry_space_group_name_H-M "I M M A"
_symmetry_group_IT_number 74
_symmetry_cell_setting 'orthorhombic'
loop_
_space_group_symop_operation_xyz
x,y,z
-x,1/2-y,z
x,-y,-z
-x,1/2+y,-z
-x,-y,-z
x,1/2+y,-z
-x,y,z
x,1/2-y,z
1/2+x,1/2+y,1/2+z
1/2-x,-y,1/2+z
1/2+x,1/2-y,1/2-z
1/2-x,y,1/2-z
1/2-x,1/2-y,1/2-z
1/2+x,y,1/2-z
1/2-x,1/2+y,1/2+z
1/2+x,-y,1/2+z
loop_
_atom_site_type_symbol
_atom_site_label
_atom_site_fract_x
_atom_site_fract_y
_atom_site_fract_z
Si Si1 0.819303 0.939730 0.508490
Si Si2 0.828485 0.809514 0.882618
Si Si3 0.821370 0.660876 0.056240
Si Si4 0.824731 0.595379 0.674366
Si Si5 0.682103 0.750000 0.163704
O O1 0.741665 0.899901 0.446079
O O2 0.757450 0.927321 0.594623
O O3 0.000000 0.932579 0.500704
O O4 0.767357 0.000000 0.500000
O O5 0.812456 0.750000 0.854299
O O6 0.713370 0.842228 0.828426
O O7 0.000000 0.831020 0.870109
O O8 0.785492 0.812810 0.973383
O O9 0.737709 0.696464 0.120708
O O10 0.000000 0.660105 0.075708
O O11 0.750000 0.568397 0.750000
O O12 0.000000 0.583647 0.680676
O O13 0.500000 0.750000 0.167040
O O14 0.750000 0.750000 0.250000
#
# Coordination Sequence:
#
# PCOD8299209 Si02
#       5
#    16  16  16  16   8
#     4   9  19  37  59  82 108 144 191 237 282 337
#     4   9  17  31  51  74 103 139 173 210 254 307
#     4  10  19  35  57  83 113 144 184 231 282 338
#     4  10  20  33  50  74 103 137 173 216 267 317
#     4  12  24  38  58  84 117 154 193 238 294 350
#
# _framework density 18.833366999999999
#
# number of rings (size 3 to 8) (size 9 to 14) (size 15 to 20)
#    0.000    2.222    1.111    2.333    0.000    3.111 
#    0.000    1.111    0.000    2.667    0.000    0.000 
#    0.000    0.000    0.000    0.000    0.000    0.000 
#
# Total GULP energy -446216.778343 kJ/mol
# GULP energy per Si atom -12394.910510 kJ/mol
# Density = 1.879050 g / cm^3
# Si number density = 18.833367 Si / 1000 Ang^3
#
#
#
# Elastic Constant Matrix: (Units=GPa)
#
#
# Indices 1 2 3 4 5 6 
#
# 1 79.5401 38.8594 37.0870 0.0000 0.0000 0.0000
# 2 38.8594 130.0655 45.6216 0.0001 0.0000 0.0000
# 3 37.0870 45.6216 100.8971 0.0004 -0.0001 0.0000
# 4 0.0000 0.0001 0.0004 15.6565 0.0000 0.0000
# 5 0.0000 0.0000 -0.0001 0.0000 30.8287 0.0000
# 6 0.0000 0.0000 0.0000 0.0000 0.0000 27.1744
#
#
#
# Elastic Compliance Matrix: (Units=1/GPa)
#
#
# Indices 1 2 3 4 5 6 
#
# 1 0.016274 -0.003285 -0.004496 0.000000 0.000000 0.000000
# 2 -0.003285 0.009801 -0.003224 0.000000 0.000000 0.000000
# 3 -0.004496 -0.003224 0.013022 0.000000 0.000000 0.000000
# 4 0.000000 0.000000 0.000000 0.063871 0.000000 0.000000
# 5 0.000000 0.000000 0.000000 0.000000 0.032437 0.000000
# 6 0.000000 0.000000 0.000000 0.000000 0.000000 0.036799
#
#
# Mechanical properties :
#
#
# Convention : Reuss Voigt Hill
#
# Bulk Modulus (GPa) = 58.53005 61.51542 60.02273
# Shear Modulus (GPa) = 25.01128 27.32755 26.16942
#
# Velocity S-wave (km/s) = 3.64817 3.81336 3.73168
# Velocity P-wave (km/s) = 6.99220 7.21961 7.10681
#
# Compressibility (1/GPa) = 0.01708524
#
# Stress axis : x y z
#
# Youngs Moduli (GPa) = 61.44896 102.03334 76.79515
#
# Poissons Ratio (x) = 0.33517 0.34531
# Poissons Ratio (y) = 0.20185 0.24759
# Poissons Ratio (z) = 0.27630 0.32896
#
# Static dielectric constant tensor:
#      x y z
#    x 3.434160 0.000000 0.000000 
#    y 0.000000 3.470940 0.000000 
#    z 0.000000 0.000000 3.506880 
# 
# 
# High freq. dielectric constant tensor:
#      x y z
#    x 1.732610 0.000000 0.000000 
#    y 0.000000 1.721300 0.000000 
#    z 0.000000 0.000000 1.722980 
# 
# From -- ./inp_files/29217.got.cif
#   From: 2010.03.12/outbox.cif.g09.slc.cpg/sg74_15_cif.got.tgz:29217.got - 2010.04.16 15:46:19.
