data_PCOD8299933
_publ_section_title
;
Structure prediction by ZEFSAII (Michael W. Deem and Ramdas Pophale) SiO2 
 PCOD8299933
Probable space group: I M M A
;
_chemical_formula_sum "Si O2"
_cell_formula_units_Z 80
_cell_length_a 8.551830
_cell_length_b 16.089414
_cell_length_c 29.364497
_cell_angle_alpha 90.000000
_cell_angle_beta 90.000000
_cell_angle_gamma 90.000000
_cell_volume 4040.376642
_symmetry_space_group_name_H-M "I M M A"
_symmetry_group_IT_number 74
_symmetry_cell_setting 'orthorhombic'
loop_
_space_group_symop_operation_xyz
x,y,z
-x,1/2-y,z
x,-y,-z
-x,1/2+y,-z
-x,-y,-z
x,1/2+y,-z
-x,y,z
x,1/2-y,z
1/2+x,1/2+y,1/2+z
1/2-x,-y,1/2+z
1/2+x,1/2-y,1/2-z
1/2-x,y,1/2-z
1/2-x,1/2-y,1/2-z
1/2+x,y,1/2-z
1/2-x,1/2+y,1/2+z
1/2+x,-y,1/2+z
loop_
_atom_site_type_symbol
_atom_site_label
_atom_site_fract_x
_atom_site_fract_y
_atom_site_fract_z
Si Si1 0.814414 0.250000 0.466078
Si Si2 0.815124 0.115611 0.202717
Si Si3 0.685037 0.750000 0.862158
Si Si4 0.185877 0.932672 0.297129
Si Si5 0.313855 0.412324 0.981399
Si Si6 0.314268 0.157303 0.887121
O O1 0.758765 0.250000 0.414143
O O2 0.748513 0.166142 0.489783
O O3 0.000000 0.250000 0.470482
O O4 0.750000 0.153223 0.250000
O O5 0.753384 0.167980 0.160579
O O6 0.000000 0.118254 0.204423
O O7 0.755303 0.023194 0.195690
O O8 0.500000 0.750000 0.857892
O O9 0.250000 0.893323 0.250000
O O10 0.247478 0.877869 0.339180
O O11 0.000000 0.937976 0.295173
O O12 0.500000 0.414170 0.984840
O O13 0.258545 0.400581 0.929028
O O14 0.245145 0.500000 0.000000
O O15 0.500000 0.160327 0.886412
O O16 0.246753 0.250000 0.893833
#
# Coordination Sequence:
#
# PCOD8299933 Si02
#       6
#     8  16   8  16  16  16
#     4   9  18  30  46  77 116 143 175 225 274 325
#     4  11  22  38  57  78 108 146 186 226 272 323
#     4  11  22  34  53  83 116 145 181 223 272 327
#     4  10  20  34  54  80 110 142 180 226 276 328
#     4   9  16  27  46  72 108 146 177 220 280 330
#     4   9  17  30  49  75 110 145 178 223 278 330
#
# _framework density 19.800134
#
# number of rings (size 3 to 8) (size 9 to 14) (size 15 to 20)
#    0.000    2.200    1.000    4.200    2.800    0.400 
#    0.000    0.000    0.000    1.800    0.000    7.000 
#    0.000    0.000    0.000    0.000    0.000    0.000 
#
# Total GULP energy -495932.628723 kJ/mol
# GULP energy per Si atom -12398.315718 kJ/mol
# Density = 1.975507 g / cm^3
# Si number density = 19.800134 Si / 1000 Ang^3
#
#
#
# Elastic Constant Matrix: (Units=GPa)
#
#
# Indices 1 2 3 4 5 6 
#
# 1 65.8400 16.3998 31.4208 0.0000 0.0000 0.0000
# 2 16.3998 141.4915 99.4221 0.0000 0.0000 0.0000
# 3 31.4208 99.4221 201.3918 0.0000 0.0000 0.0000
# 4 0.0000 0.0000 0.0000 43.8986 0.0000 0.0000
# 5 0.0000 0.0000 0.0000 0.0000 22.4287 0.0000
# 6 0.0000 0.0000 0.0000 0.0000 0.0000 12.5563
#
#
#
# Elastic Compliance Matrix: (Units=1/GPa)
#
#
# Indices 1 2 3 4 5 6 
#
# 1 0.016412 -0.000158 -0.002483 0.000000 0.000000 0.000000
# 2 -0.000158 0.010823 -0.005318 0.000000 0.000000 0.000000
# 3 -0.002483 -0.005318 0.007978 0.000000 0.000000 0.000000
# 4 0.000000 0.000000 0.000000 0.022780 0.000000 0.000000
# 5 0.000000 0.000000 0.000000 0.000000 0.044586 0.000000
# 6 0.000000 0.000000 0.000000 0.000000 0.000000 0.079641
#
#
# Mechanical properties :
#
#
# Convention : Reuss Voigt Hill
#
# Bulk Modulus (GPa) = 51.82433 78.13431 64.97932
# Shear Modulus (GPa) = 24.44146 33.20876 28.82511
#
# Velocity S-wave (km/s) = 3.51723 4.09980 3.81964
# Velocity P-wave (km/s) = 6.53644 7.87136 7.23476
#
# Compressibility (1/GPa) = 0.01929596
#
# Stress axis : x y z
#
# Youngs Moduli (GPa) = 60.92921 92.39629 125.33880
#
# Poissons Ratio (x) = 0.01457 0.31119
# Poissons Ratio (y) = 0.00961 0.66660
# Poissons Ratio (z) = 0.15127 0.49140
#
# Static dielectric constant tensor:
#      x y z
#    x 3.155480 0.000000 0.000000 
#    y 0.000000 3.751660 0.000000 
#    z 0.000000 0.000000 3.988710 
# 
# 
# High freq. dielectric constant tensor:
#      x y z
#    x 1.725620 0.000000 0.000000 
#    y 0.000000 1.777660 0.000000 
#    z 0.000000 0.000000 1.788650 
# 
# From -- ./inp_files/64022.got.cif
#   From: 2010.03.12/outbox.cif.g09.slc.cpg/sg74_33_cif.got.tgz:64022.got - 2010.04.16 15:46:19.
