data_PCOD8299899
_publ_section_title
;
Structure prediction by ZEFSAII (Michael W. Deem and Ramdas Pophale) SiO2 
 PCOD8299899
Probable space group: I M M A
;
_chemical_formula_sum "Si O2"
_cell_formula_units_Z 88
_cell_length_a 14.407791
_cell_length_b 20.285806
_cell_length_c 14.888322
_cell_angle_alpha 90.000000
_cell_angle_beta 90.000000
_cell_angle_gamma 90.000000
_cell_volume 4351.464260
_symmetry_space_group_name_H-M "I M M A"
_symmetry_group_IT_number 74
_symmetry_cell_setting 'orthorhombic'
loop_
_space_group_symop_operation_xyz
x,y,z
-x,1/2-y,z
x,-y,-z
-x,1/2+y,-z
-x,-y,-z
x,1/2+y,-z
-x,y,z
x,1/2-y,z
1/2+x,1/2+y,1/2+z
1/2-x,-y,1/2+z
1/2+x,1/2-y,1/2-z
1/2-x,y,1/2-z
1/2-x,1/2-y,1/2-z
1/2+x,y,1/2-z
1/2-x,1/2+y,1/2+z
1/2+x,-y,1/2+z
loop_
_atom_site_type_symbol
_atom_site_label
_atom_site_fract_x
_atom_site_fract_y
_atom_site_fract_z
Si Si1 0.209890 0.109366 0.387170
Si Si2 0.357161 0.323878 0.763844
Si Si3 0.107507 0.586766 0.791537
Si Si4 0.601475 0.673305 0.038747
Si Si5 0.767030 0.000000 0.000000
Si Si6 0.102165 0.444323 0.862083
O O1 0.136838 0.112248 0.306310
O O2 0.318253 0.121563 0.359327
O O3 0.179142 0.160168 0.463719
O O4 0.201032 0.036819 0.430052
O O5 0.402020 0.250000 0.751329
O O6 0.250000 0.316206 0.750000
O O7 0.375176 0.355330 0.862478
O O8 0.394796 0.375990 0.691813
O O9 0.121795 0.507782 0.797996
O O10 0.000000 0.607475 0.811308
O O11 0.500000 0.646324 0.008297
O O12 0.598398 0.750000 0.053055
O O13 0.829107 0.054271 0.947203
O O14 0.000000 0.451179 0.903465
#
# Coordination Sequence:
#
# PCOD8299899 Si02
#       6
#    16  16  16  16   8  16
#     4  10  20  35  57  80 109 151 185 236 291 345
#     4  10  21  35  54  80 114 156 196 234 279 337
#     4   9  20  36  54  81 113 147 189 239 294 346
#     4  10  21  37  57  84 118 152 191 239 288 339
#     4  10  21  34  53  82 110 140 188 234 284 340
#     4  10  20  34  54  76 109 149 187 235 287 341
#
# _framework density 20.223078000000001
#
# number of rings (size 3 to 8) (size 9 to 14) (size 15 to 20)
#    0.000    2.182    0.000    2.455    7.636    1.818 
#    0.000    2.727    0.000    1.636    0.000    0.000 
#    0.000    0.000    0.000    0.000    0.000    0.000 
#
# Total GULP energy -545133.071298 kJ/mol
# GULP energy per Si atom -12389.387984 kJ/mol
# Density = 2.017705 g / cm^3
# Si number density = 20.223078 Si / 1000 Ang^3
#
#
#
# Elastic Constant Matrix: (Units=GPa)
#
#
# Indices 1 2 3 4 5 6 
#
# 1 119.8582 21.9723 41.4932 -0.0004 0.0001 0.0000
# 2 21.9723 47.3468 31.7781 -0.0012 0.0000 0.0000
# 3 41.4932 31.7781 114.2160 -0.0033 -0.0001 -0.0004
# 4 -0.0004 -0.0012 -0.0033 37.7423 -0.0001 -0.0002
# 5 0.0001 0.0000 -0.0001 -0.0001 24.2728 -0.0001
# 6 0.0000 0.0000 -0.0004 -0.0002 -0.0001 22.3189
#
#
#
# Elastic Compliance Matrix: (Units=1/GPa)
#
#
# Indices 1 2 3 4 5 6 
#
# 1 0.009808 -0.002656 -0.002824 0.000000 0.000000 0.000000
# 2 -0.002656 0.026690 -0.006461 0.000000 0.000000 0.000000
# 3 -0.002824 -0.006461 0.011579 0.000001 0.000000 0.000000
# 4 0.000000 0.000000 0.000001 0.026495 0.000000 0.000000
# 5 0.000000 0.000000 0.000000 0.000000 0.041198 0.000000
# 6 0.000000 0.000000 0.000000 0.000000 0.000000 0.044805
#
#
# Mechanical properties :
#
#
# Convention : Reuss Voigt Hill
#
# Bulk Modulus (GPa) = 41.33195 52.43422 46.88308
# Shear Modulus (GPa) = 25.97104 29.27863 27.62483
#
# Velocity S-wave (km/s) = 3.58750 3.80910 3.69996
# Velocity P-wave (km/s) = 6.13536 6.73275 6.44098
#
# Compressibility (1/GPa) = 0.02419436
#
# Stress axis : x y z
#
# Youngs Moduli (GPa) = 101.96025 37.46752 86.36408
#
# Poissons Ratio (x) = 0.09952 0.24390
# Poissons Ratio (y) = 0.27081 0.55799
# Poissons Ratio (z) = 0.28794 0.24207
#
# Static dielectric constant tensor:
#      x y z
#    x 4.230190 0.000000 0.000000 
#    y 0.000000 3.544780 0.000000 
#    z 0.000000 0.000000 3.747460 
# 
# 
# High freq. dielectric constant tensor:
#      x y z
#    x 1.799490 0.000000 0.000000 
#    y 0.000000 1.754840 0.000000 
#    z 0.000000 0.000000 1.794720 
# 
# From -- ./inp_files/32226.got.cif
#   From: 2010.03.12/outbox.cif.g09.slc.cpg/sg74_17_cif.got.tgz:32226.got - 2010.04.16 15:46:19.
