data_PCOD8299349
_publ_section_title
;
Structure prediction by ZEFSAII (Michael W. Deem and Ramdas Pophale) SiO2 
 PCOD8299349
Probable space group: I M M A
;
_chemical_formula_sum "Si O2"
_cell_formula_units_Z 104
_cell_length_a 20.426981
_cell_length_b 8.942756
_cell_length_c 29.930723
_cell_angle_alpha 90.000000
_cell_angle_beta 90.000000
_cell_angle_gamma 90.000000
_cell_volume 5467.550134
_symmetry_space_group_name_H-M "I M M A"
_symmetry_group_IT_number 74
_symmetry_cell_setting 'orthorhombic'
loop_
_space_group_symop_operation_xyz
x,y,z
-x,1/2-y,z
x,-y,-z
-x,1/2+y,-z
-x,-y,-z
x,1/2+y,-z
-x,y,z
x,1/2-y,z
1/2+x,1/2+y,1/2+z
1/2-x,-y,1/2+z
1/2+x,1/2-y,1/2-z
1/2-x,y,1/2-z
1/2-x,1/2-y,1/2-z
1/2+x,y,1/2-z
1/2-x,1/2+y,1/2+z
1/2+x,-y,1/2+z
loop_
_atom_site_type_symbol
_atom_site_label
_atom_site_fract_x
_atom_site_fract_y
_atom_site_fract_z
Si Si1 0.123260 0.572217 0.369874
Si Si2 0.925225 0.076766 0.281546
Si Si3 0.641841 0.426535 0.548268
Si Si4 0.816192 0.574055 0.224345
Si Si5 0.000000 0.577593 0.046477
Si Si6 0.576572 0.916186 0.957281
Si Si7 0.271144 0.427207 0.628344
O O1 0.120436 0.750000 0.368250
O O2 0.084968 0.509546 0.327639
O O3 0.088317 0.515120 0.413981
O O4 0.197506 0.511186 0.369476
O O5 0.909407 0.250000 0.289534
O O6 0.000000 0.053203 0.265803
O O7 0.878186 0.013120 0.243408
O O8 0.653675 0.500000 0.500000
O O9 0.650977 0.250000 0.542087
O O10 0.569403 0.464403 0.569625
O O11 0.693183 0.492139 0.584231
O O12 0.828963 0.750000 0.229980
O O13 0.750000 0.528261 0.250000
O O14 0.809575 0.524030 0.172888
O O15 0.000000 0.750000 0.035678
O O16 0.000000 0.500000 0.000000
O O17 0.500000 0.899501 0.965059
O O18 0.607714 0.750000 0.952556
O O19 0.608525 0.000000 0.000000
O O20 0.269750 0.250000 0.625804
#
# Coordination Sequence:
#
# PCOD8299349 Si02
#       7
#    16  16  16  16   8  16  16
#     4  11  21  36  58  82 110 147 188 231 283 338
#     4  11  24  40  58  84 117 149 187 236 284 337
#     4   9  17  32  52  76 107 140 176 219 267 318
#     4  10  19  38  63  85 111 146 189 234 282 341
#     4   8  14  26  48  72  96 132 174 210 254 312
#     4  10  21  37  55  78 110 146 186 233 283 334
#     4   9  19  35  55  81 112 141 176 228 279 329
#
# _framework density 19.021315000000001
#
# number of rings (size 3 to 8) (size 9 to 14) (size 15 to 20)
#    0.000    2.154    1.538    1.846    0.000    4.923 
#    1.385    3.846    0.000    0.000    0.000    0.000 
#    0.000    0.000    0.000    0.000    0.000    0.000 
#
# Total GULP energy -644580.295404 kJ/mol
# GULP energy per Si atom -12395.774912 kJ/mol
# Density = 1.897802 g / cm^3
# Si number density = 19.021315 Si / 1000 Ang^3
#
#
#
# Elastic Constant Matrix: (Units=GPa)
#
#
# Indices 1 2 3 4 5 6 
#
# 1 93.8837 40.7825 39.2539 0.0000 0.0000 0.0000
# 2 40.7825 71.8719 33.9896 0.0000 0.0000 0.0000
# 3 39.2539 33.9896 118.4186 0.0000 0.0000 0.0000
# 4 0.0000 0.0000 0.0000 26.7733 0.0000 0.0000
# 5 0.0000 0.0000 0.0000 0.0000 30.3344 0.0000
# 6 0.0000 0.0000 0.0000 0.0000 0.0000 24.0933
#
#
#
# Elastic Compliance Matrix: (Units=1/GPa)
#
#
# Indices 1 2 3 4 5 6 
#
# 1 0.014960 -0.007108 -0.002919 0.000000 0.000000 0.000000
# 2 -0.007108 0.019477 -0.003234 0.000000 0.000000 0.000000
# 3 -0.002919 -0.003234 0.010340 0.000000 0.000000 0.000000
# 4 0.000000 0.000000 0.000000 0.037351 0.000000 0.000000
# 5 0.000000 0.000000 0.000000 0.000000 0.032966 0.000000
# 6 0.000000 0.000000 0.000000 0.000000 0.000000 0.041505
#
#
# Mechanical properties :
#
#
# Convention : Reuss Voigt Hill
#
# Bulk Modulus (GPa) = 54.78063 56.91403 55.84733
# Shear Modulus (GPa) = 26.42632 27.58339 27.00486
#
# Velocity S-wave (km/s) = 3.73138 3.81219 3.77200
# Velocity P-wave (km/s) = 6.88668 7.02589 6.95663
#
# Compressibility (1/GPa) = 0.01825463
#
# Stress axis : x y z
#
# Youngs Moduli (GPa) = 66.84677 51.34367 96.70854
#
# Poissons Ratio (x) = 0.36497 0.28225
# Poissons Ratio (y) = 0.47517 0.31276
# Poissons Ratio (z) = 0.19510 0.16605
#
# Static dielectric constant tensor:
#      x y z
#    x 3.553410 0.000000 0.000000 
#    y 0.000000 3.439540 0.000000 
#    z 0.000000 0.000000 3.556330 
# 
# 
# High freq. dielectric constant tensor:
#      x y z
#    x 1.743670 0.000000 0.000000 
#    y 0.000000 1.728120 0.000000 
#    z 0.000000 0.000000 1.736350 
# 
# From -- ./inp_files/73404.got.cif
#   From: 2010.03.12/outbox.cif.g09.slc.cpg/sg74_37_cif.got.tgz:73404.got - 2010.04.16 15:46:19.
