data_PCOD8299470
_publ_section_title
;
Structure prediction by ZEFSAII (Michael W. Deem and Ramdas Pophale) SiO2 
 PCOD8299470
Probable space group: I M M A
;
_chemical_formula_sum "Si O2"
_cell_formula_units_Z 88
_cell_length_a 9.201631
_cell_length_b 19.646256
_cell_length_c 29.195710
_cell_angle_alpha 90.000000
_cell_angle_beta 90.000000
_cell_angle_gamma 90.000000
_cell_volume 5277.930333
_symmetry_space_group_name_H-M "I M M A"
_symmetry_group_IT_number 74
_symmetry_cell_setting 'orthorhombic'
loop_
_space_group_symop_operation_xyz
x,y,z
-x,1/2-y,z
x,-y,-z
-x,1/2+y,-z
-x,-y,-z
x,1/2+y,-z
-x,y,z
x,1/2-y,z
1/2+x,1/2+y,1/2+z
1/2-x,-y,1/2+z
1/2+x,1/2-y,1/2-z
1/2-x,y,1/2-z
1/2-x,1/2-y,1/2-z
1/2+x,y,1/2-z
1/2-x,1/2+y,1/2+z
1/2+x,-y,1/2+z
loop_
_atom_site_type_symbol
_atom_site_label
_atom_site_fract_x
_atom_site_fract_y
_atom_site_fract_z
Si Si1 0.830472 0.328584 0.702802
Si Si2 0.339675 0.365335 0.964882
Si Si3 0.830022 0.825191 0.563675
Si Si4 0.659326 0.550611 0.591665
Si Si5 0.672935 0.597217 0.378663
Si Si6 0.751984 0.500000 0.500000
O O1 0.811154 0.250000 0.688779
O O2 0.750000 0.344224 0.750000
O O3 0.753469 0.375321 0.665596
O O4 0.000000 0.347846 0.707192
O O5 0.500000 0.337651 0.950671
O O6 0.228508 0.358847 0.922448
O O7 0.278794 0.327223 0.010265
O O8 0.357458 0.444495 0.977659
O O9 0.791997 0.750000 0.582955
O O10 0.759460 0.882309 0.596805
O O11 0.000000 0.840101 0.564641
O O12 0.500000 0.570251 0.609893
O O13 0.715761 0.483058 0.618109
O O14 0.647440 0.532597 0.538035
O O15 0.500000 0.606965 0.375242
#
# Coordination Sequence:
#
# PCOD8299470 Si02
#       6
#    16  16  16  16  16   8
#     4  10  21  37  56  75  95 120 148 179 220 270
#     4   9  16  26  41  60  84 116 154 193 231 269
#     4   9  18  30  42  59  87 123 161 200 239 277
#     4   9  17  28  43  63  87 117 153 192 231 270
#     4  10  20  32  47  69  95 120 151 191 230 271
#     4   8  14  24  40  58  80 110 148 190 230 272
#
# _framework density 16.673202
#
# number of rings (size 3 to 8) (size 9 to 14) (size 15 to 20)
#    0.000    2.727    0.000    1.636    0.000   11.636 
#    0.000    1.818    0.000    0.000    0.000    0.000 
#    0.000    0.727    0.000    2.364    0.000    3.455 
#
# Total GULP energy -545153.479487 kJ/mol
# GULP energy per Si atom -12389.851807 kJ/mol
# Density = 1.663525 g / cm^3
# Si number density = 16.673202 Si / 1000 Ang^3
#
#
#
# Elastic Constant Matrix: (Units=GPa)
#
#
# Indices 1 2 3 4 5 6 
#
# 1 94.6134 47.6825 44.2178 0.0000 0.0000 0.0000
# 2 47.6825 94.0481 41.7707 0.0000 0.0000 0.0000
# 3 44.2178 41.7707 71.0104 0.0000 0.0000 0.0000
# 4 0.0000 0.0000 0.0000 24.8467 0.0000 0.0000
# 5 0.0000 0.0000 0.0000 0.0000 22.8230 0.0000
# 6 0.0000 0.0000 0.0000 0.0000 0.0000 22.8546
#
#
#
# Elastic Compliance Matrix: (Units=1/GPa)
#
#
# Indices 1 2 3 4 5 6 
#
# 1 0.016579 -0.005171 -0.007281 0.000000 0.000000 0.000000
# 2 -0.005171 0.016006 -0.006195 0.000000 0.000000 0.000000
# 3 -0.007281 -0.006195 0.022261 0.000000 0.000000 0.000000
# 4 0.000000 0.000000 0.000000 0.040247 0.000000 0.000000
# 5 0.000000 0.000000 0.000000 0.000000 0.043815 0.000000
# 6 0.000000 0.000000 0.000000 0.000000 0.000000 0.043755
#
#
# Mechanical properties :
#
#
# Convention : Reuss Voigt Hill
#
# Bulk Modulus (GPa) = 56.98142 58.55713 57.76927
# Shear Modulus (GPa) = 22.14263 22.50491 22.32377
#
# Velocity S-wave (km/s) = 3.64818 3.67790 3.66307
# Velocity P-wave (km/s) = 7.21077 7.29607 7.25355
#
# Compressibility (1/GPa) = 0.01754958
#
# Stress axis : x y z
#
# Youngs Moduli (GPa) = 60.31895 62.47525 44.92194
#
# Poissons Ratio (x) = 0.32308 0.32709
# Poissons Ratio (y) = 0.31193 0.27830
# Poissons Ratio (z) = 0.43921 0.38705
#
# Static dielectric constant tensor:
#      x y z
#    x 3.104270 0.000000 0.000000 
#    y 0.000000 3.204590 0.000000 
#    z 0.000000 0.000000 2.819450 
# 
# 
# High freq. dielectric constant tensor:
#      x y z
#    x 1.645790 0.000000 0.000000 
#    y 0.000000 1.639170 0.000000 
#    z 0.000000 0.000000 1.592990 
# 
# From -- ./inp_files/70455.got.cif
#   From: 2010.03.12/outbox.cif.g09.slc.cpg/sg74_36_cif.got.tgz:70455.got - 2010.04.16 15:46:19.
