data_PCOD8299231
_publ_section_title
;
Structure prediction by ZEFSAII (Michael W. Deem and Ramdas Pophale) SiO2 
 PCOD8299231
Probable space group: I M M A
;
_chemical_formula_sum "Si O2"
_cell_formula_units_Z 88
_cell_length_a 22.432913
_cell_length_b 28.855173
_cell_length_c 6.617858
_cell_angle_alpha 90.000000
_cell_angle_beta 90.000000
_cell_angle_gamma 90.000000
_cell_volume 4283.776448
_symmetry_space_group_name_H-M "I M M A"
_symmetry_group_IT_number 74
_symmetry_cell_setting 'orthorhombic'
loop_
_space_group_symop_operation_xyz
x,y,z
-x,1/2-y,z
x,-y,-z
-x,1/2+y,-z
-x,-y,-z
x,1/2+y,-z
-x,y,z
x,1/2-y,z
1/2+x,1/2+y,1/2+z
1/2-x,-y,1/2+z
1/2+x,1/2-y,1/2-z
1/2-x,y,1/2-z
1/2-x,1/2-y,1/2-z
1/2+x,y,1/2-z
1/2-x,1/2+y,1/2+z
1/2+x,-y,1/2+z
loop_
_atom_site_type_symbol
_atom_site_label
_atom_site_fract_x
_atom_site_fract_y
_atom_site_fract_z
Si Si1 0.000000 0.961127 0.328857
Si Si2 0.883435 0.450324 0.940887
Si Si3 0.377338 0.626322 0.772299
Si Si4 0.000000 0.299938 0.835652
Si Si5 0.629451 0.302699 0.546070
Si Si6 0.500000 0.865486 0.966724
Si Si7 0.817589 0.623533 0.313139
O O1 0.056016 0.961375 0.178880
O O2 0.000000 0.918473 0.477253
O O3 0.000000 0.000000 0.500000
O O4 0.839082 0.422947 0.795848
O O5 0.854923 0.500000 0.000000
O O6 0.892399 0.419678 0.142776
O O7 0.345693 0.666719 0.639841
O O8 0.440116 0.646804 0.847615
O O9 0.330029 0.615445 0.949545
O O10 0.058002 0.303588 0.975962
O O11 0.000000 0.340098 0.677471
O O12 0.000000 0.250000 0.722901
O O13 0.654590 0.250000 0.543749
O O14 0.647654 0.329320 0.751512
O O15 0.750000 0.631444 0.250000
#
# Coordination Sequence:
#
# PCOD8299231 Si02
#       7
#     8  16  16   8  16   8  16
#     4  12  22  38  66  97 134 165 207 262 332 403
#     4  11  24  42  62  96 127 164 209 266 323 390
#     4  11  22  39  66  90 128 168 212 257 330 385
#     4  10  19  35  59  93 131 159 199 256 317 390
#     4  10  22  40  63  95 129 162 209 264 320 388
#     4  12  18  35  64  91 122 173 193 250 327 390
#     4  11  25  45  64  89 124 170 220 268 311 377
#
# _framework density 20.542622000000001
#
# number of rings (size 3 to 8) (size 9 to 14) (size 15 to 20)
#    0.000    1.091    3.636    3.545    0.000    4.727 
#    3.273    0.909    0.000    0.000    0.000    0.000 
#    0.000    0.000    0.000    0.000    0.000    0.000 
#
# Total GULP energy -545403.658474 kJ/mol
# GULP energy per Si atom -12395.537693 kJ/mol
# Density = 2.049587 g / cm^3
# Si number density = 20.542622 Si / 1000 Ang^3
#
#
#
# Elastic Constant Matrix: (Units=GPa)
#
#
# Indices 1 2 3 4 5 6 
#
# 1 86.1530 18.7116 28.7595 0.0000 0.0000 0.0000
# 2 18.7116 158.3134 50.5962 0.0000 0.0000 0.0000
# 3 28.7595 50.5962 126.9640 0.0000 0.0000 0.0000
# 4 0.0000 0.0000 0.0000 18.7679 0.0000 0.0000
# 5 0.0000 0.0000 0.0000 0.0000 20.9780 0.0000
# 6 0.0000 0.0000 0.0000 0.0000 0.0000 29.6989
#
#
#
# Elastic Compliance Matrix: (Units=1/GPa)
#
#
# Indices 1 2 3 4 5 6 
#
# 1 0.012617 -0.000662 -0.002594 0.000000 0.000000 0.000000
# 2 -0.000662 0.007273 -0.002748 0.000000 0.000000 0.000000
# 3 -0.002594 -0.002748 0.009559 0.000000 0.000000 0.000000
# 4 0.000000 0.000000 0.000000 0.053283 0.000000 0.000000
# 5 0.000000 0.000000 0.000000 0.000000 0.047669 0.000000
# 6 0.000000 0.000000 0.000000 0.000000 0.000000 0.033671
#
#
# Mechanical properties :
#
#
# Convention : Reuss Voigt Hill
#
# Bulk Modulus (GPa) = 57.33959 63.06277 60.20118
# Shear Modulus (GPa) = 27.48840 32.11317 29.80078
#
# Velocity S-wave (km/s) = 3.66199 3.95808 3.81291
# Velocity P-wave (km/s) = 6.77151 7.18705 6.98237
#
# Compressibility (1/GPa) = 0.01743996
#
# Stress axis : x y z
#
# Youngs Moduli (GPa) = 79.25797 137.49030 104.61197
#
# Poissons Ratio (x) = 0.09104 0.27137
# Poissons Ratio (y) = 0.05248 0.28752
# Poissons Ratio (z) = 0.20560 0.37789
#
# Static dielectric constant tensor:
#      x y z
#    x 3.614290 0.000000 0.000000 
#    y 0.000000 3.868160 0.000000 
#    z 0.000000 0.000000 3.814210 
# 
# 
# High freq. dielectric constant tensor:
#      x y z
#    x 1.781110 0.000000 0.000000 
#    y 0.000000 1.814710 0.000000 
#    z 0.000000 0.000000 1.811310 
# 
# From -- ./inp_files/3981.got.cif
#   From: 2010.03.12/outbox.cif.g09.slc.cpg/sg74_2_cif.got.tgz:3981.got - 2010.04.16 15:46:19.
