data_PCOD8299514
_publ_section_title
;
Structure prediction by ZEFSAII (Michael W. Deem and Ramdas Pophale) SiO2 
 PCOD8299514
Probable space group: I M M A
;
_chemical_formula_sum "Si O2"
_cell_formula_units_Z 96
_cell_length_a 25.041056
_cell_length_b 8.903129
_cell_length_c 25.120073
_cell_angle_alpha 90.000000
_cell_angle_beta 90.000000
_cell_angle_gamma 90.000000
_cell_volume 5600.363322
_symmetry_space_group_name_H-M "I M M A"
_symmetry_group_IT_number 74
_symmetry_cell_setting 'orthorhombic'
loop_
_space_group_symop_operation_xyz
x,y,z
-x,1/2-y,z
x,-y,-z
-x,1/2+y,-z
-x,-y,-z
x,1/2+y,-z
-x,y,z
x,1/2-y,z
1/2+x,1/2+y,1/2+z
1/2-x,-y,1/2+z
1/2+x,1/2-y,1/2-z
1/2-x,y,1/2-z
1/2-x,1/2-y,1/2-z
1/2+x,y,1/2-z
1/2-x,1/2+y,1/2+z
1/2+x,-y,1/2+z
loop_
_atom_site_type_symbol
_atom_site_label
_atom_site_fract_x
_atom_site_fract_y
_atom_site_fract_z
Si Si1 0.063121 0.421271 0.637901
Si Si2 0.561204 0.573135 0.639882
Si Si3 0.639342 0.072206 0.058051
Si Si4 0.742998 0.925293 0.057069
Si Si5 0.639193 0.424494 0.557104
Si Si6 0.436657 0.416218 0.242269
O O1 0.080611 0.250000 0.628750
O O2 0.089084 0.526796 0.593648
O O3 0.083213 0.470382 0.696637
O O4 0.000000 0.442069 0.632704
O O5 0.500000 0.523888 0.631358
O O6 0.567615 0.750000 0.631490
O O7 0.596311 0.486699 0.597602
O O8 0.581494 0.527826 0.699203
O O9 0.642155 0.250000 0.052782
O O10 0.693683 0.008744 0.086666
O O11 0.632098 0.000000 0.000000
O O12 0.729385 0.750000 0.052392
O O13 0.801547 0.951832 0.082650
O O14 0.745755 0.000000 0.000000
O O15 0.632196 0.500000 0.500000
O O16 0.628924 0.250000 0.548107
O O17 0.500000 0.405739 0.242987
O O18 0.413237 0.250000 0.230377
#
# Coordination Sequence:
#
# PCOD8299514 Si02
#       6
#    16  16  16  16  16  16
#     4  10  20  33  50  73 100 129 160 195 236 282
#     4   9  18  32  50  72  99 130 162 198 240 286
#     4  11  21  33  51  73  98 128 160 196 239 284
#     4   9  17  31  49  69  93 122 160 200 237 281
#     4  10  20  32  49  72  98 129 162 199 242 287
#     4   8  15  30  50  70  93 124 162 199 235 279
#
# _framework density 17.141745
#
# number of rings (size 3 to 8) (size 9 to 14) (size 15 to 20)
#    0.000    2.500    0.000    5.000    0.000    4.667 
#    0.000    1.667    0.000    1.000    0.000    7.000 
#    0.000    0.000    0.000    0.000    0.000    0.000 
#
# Total GULP energy -594884.383228 kJ/mol
# GULP energy per Si atom -12393.424651 kJ/mol
# Density = 1.710273 g / cm^3
# Si number density = 17.141745 Si / 1000 Ang^3
#
#
#
# Elastic Constant Matrix: (Units=GPa)
#
#
# Indices 1 2 3 4 5 6 
#
# 1 76.5491 53.9014 50.9561 0.0000 0.0000 0.0000
# 2 53.9014 120.0037 55.4422 0.0000 0.0000 0.0000
# 3 50.9561 55.4422 96.3135 0.0000 0.0000 0.0000
# 4 0.0000 0.0000 0.0000 30.5653 0.0000 0.0000
# 5 0.0000 0.0000 0.0000 0.0000 -1.9949 0.0000
# 6 0.0000 0.0000 0.0000 0.0000 0.0000 26.4068
#
#
#
# Elastic Compliance Matrix: (Units=1/GPa)
#
#
# Indices 1 2 3 4 5 6 
#
# 1 0.023399 -0.006526 -0.008623 0.000000 0.000000 0.000000
# 2 -0.006526 0.013172 -0.004130 0.000000 0.000000 0.000000
# 3 -0.008623 -0.004130 0.017322 0.000000 0.000000 0.000000
# 4 0.000000 0.000000 0.000000 0.032717 0.000000 0.000000
# 5 0.000000 0.000000 0.000000 0.000000 -0.501282 0.000000
# 6 0.000000 0.000000 0.000000 0.000000 0.000000 0.037869
#
#
# Mechanical properties :
#
#
# Convention : Reuss Voigt Hill
#
# Bulk Modulus (GPa) = 65.20708 68.16284 66.68496
# Shear Modulus (GPa) = -15.00899 19.83321 2.41211
#
# Velocity S-wave (km/s) = -2.96223 3.40518 1.18752
# Velocity P-wave (km/s) = 5.14031 7.43713 6.39272
#
# Compressibility (1/GPa) = 0.01533576
#
# Stress axis : x y z
#
# Youngs Moduli (GPa) = 42.73748 75.91635 57.72995
#
# Poissons Ratio (x) = 0.49544 0.49779
# Poissons Ratio (y) = 0.27891 0.23842
# Poissons Ratio (z) = 0.36851 0.31352
#
# Static dielectric constant tensor:
#      x y z
#    x 3.555180 0.000000 0.000000 
#    y 0.000000 3.363380 0.000000 
#    z 0.000000 0.000000 3.149900 
# 
# 
# High freq. dielectric constant tensor:
#      x y z
#    x 1.650050 0.000000 0.000000 
#    y 0.000000 1.674210 0.000000 
#    z 0.000000 0.000000 1.641510 
# 
# From -- ./inp_files/57255.got.cif
#   From: 2010.03.12/outbox.cif.g09.slc.cpg/sg74_29_cif.got.tgz:57255.got - 2010.04.16 15:46:19.
