data_PCOD8299265
_publ_section_title
;
Structure prediction by ZEFSAII (Michael W. Deem and Ramdas Pophale) SiO2 
 PCOD8299265
Probable space group: I M M A
;
_chemical_formula_sum "Si O2"
_cell_formula_units_Z 88
_cell_length_a 8.927635
_cell_length_b 18.061133
_cell_length_c 29.033409
_cell_angle_alpha 90.000000
_cell_angle_beta 90.000000
_cell_angle_gamma 90.000000
_cell_volume 4681.439864
_symmetry_space_group_name_H-M "I M M A"
_symmetry_group_IT_number 74
_symmetry_cell_setting 'orthorhombic'
loop_
_space_group_symop_operation_xyz
x,y,z
-x,1/2-y,z
x,-y,-z
-x,1/2+y,-z
-x,-y,-z
x,1/2+y,-z
-x,y,z
x,1/2-y,z
1/2+x,1/2+y,1/2+z
1/2-x,-y,1/2+z
1/2+x,1/2-y,1/2-z
1/2-x,y,1/2-z
1/2-x,1/2-y,1/2-z
1/2+x,y,1/2-z
1/2-x,1/2+y,1/2+z
1/2+x,-y,1/2+z
loop_
_atom_site_type_symbol
_atom_site_label
_atom_site_fract_x
_atom_site_fract_y
_atom_site_fract_z
Si Si1 0.677040 0.099065 0.456641
Si Si2 0.324131 0.750000 0.298609
Si Si3 0.823393 0.566543 0.055031
Si Si4 0.174390 0.333227 0.371803
Si Si5 0.321442 0.543800 0.799327
Si Si6 0.177387 0.901277 0.155607
O O1 0.500000 0.106784 0.450826
O O2 0.728801 0.113450 0.509957
O O3 0.750869 0.156501 0.421700
O O4 0.737735 0.017182 0.444567
O O5 0.500000 0.750000 0.292569
O O6 0.250000 0.750000 0.250000
O O7 0.270339 0.822956 0.324870
O O8 0.771873 0.604112 0.102338
O O9 0.000000 0.560270 0.051587
O O10 0.210441 0.250000 0.354488
O O11 0.234491 0.391593 0.333978
O O12 0.000000 0.345662 0.378878
O O13 0.500000 0.541862 0.794625
O O14 0.250000 0.561157 0.750000
O O15 0.264386 0.465166 0.817607
O O16 0.000000 0.915691 0.160694
#
# Coordination Sequence:
#
# PCOD8299265 Si02
#       6
#    16   8  16  16  16  16
#     4   9  16  31  55  83 108 139 179 219 264 317
#     4  10  22  36  54  78 106 144 180 218 271 320
#     4   8  15  29  54  83 111 137 171 220 266 309
#     4  10  22  39  55  76 112 149 181 225 277 327
#     4  11  23  38  58  82 105 138 182 227 277 330
#     4  10  19  36  58  81 111 144 179 221 270 324
#
# _framework density 18.797635
#
# number of rings (size 3 to 8) (size 9 to 14) (size 15 to 20)
#    0.000    2.364    1.818    2.182    0.000    3.636 
#    1.636    2.727    0.000    0.000    0.000    0.000 
#    0.000    0.000    0.000    0.000    0.000    0.000 
#
# Total GULP energy -545406.315828 kJ/mol
# GULP energy per Si atom -12395.598087 kJ/mol
# Density = 1.875485 g / cm^3
# Si number density = 18.797635 Si / 1000 Ang^3
#
#
#
# Elastic Constant Matrix: (Units=GPa)
#
#
# Indices 1 2 3 4 5 6 
#
# 1 33.8543 32.4133 34.5979 0.0000 0.0000 0.0000
# 2 32.4133 124.3772 71.2983 0.0000 0.0000 0.0000
# 3 34.5979 71.2983 165.8011 0.0000 0.0000 0.0000
# 4 0.0000 0.0000 0.0000 24.5465 0.0000 0.0000
# 5 0.0000 0.0000 0.0000 0.0000 26.1523 0.0000
# 6 0.0000 0.0000 0.0000 0.0000 0.0000 24.0879
#
#
#
# Elastic Compliance Matrix: (Units=1/GPa)
#
#
# Indices 1 2 3 4 5 6 
#
# 1 0.042820 -0.008012 -0.005490 0.000000 0.000000 0.000000
# 2 -0.008012 0.012170 -0.003561 0.000000 0.000000 0.000000
# 3 -0.005490 -0.003561 0.008708 0.000000 0.000000 0.000000
# 4 0.000000 0.000000 0.000000 0.040739 0.000000 0.000000
# 5 0.000000 0.000000 0.000000 0.000000 0.038238 0.000000
# 6 0.000000 0.000000 0.000000 0.000000 0.000000 0.041515
#
#
# Mechanical properties :
#
#
# Convention : Reuss Voigt Hill
#
# Bulk Modulus (GPa) = 33.81661 66.73904 50.27783
# Shear Modulus (GPa) = 21.91325 27.33887 24.62606
#
# Velocity S-wave (km/s) = 3.41801 3.81777 3.62340
# Velocity P-wave (km/s) = 5.79706 7.41720 6.65660
#
# Compressibility (1/GPa) = 0.02957127
#
# Stress axis : x y z
#
# Youngs Moduli (GPa) = 23.35367 82.17257 114.83229
#
# Poissons Ratio (x) = 0.65837 0.63042
# Poissons Ratio (y) = 0.18711 0.40895
# Poissons Ratio (z) = 0.12821 0.29264
#
# Static dielectric constant tensor:
#      x y z
#    x 3.183080 0.000000 0.000000 
#    y 0.000000 3.451350 0.000000 
#    z 0.000000 0.000000 3.950190 
# 
# 
# High freq. dielectric constant tensor:
#      x y z
#    x 1.702850 0.000000 0.000000 
#    y 0.000000 1.721470 0.000000 
#    z 0.000000 0.000000 1.749040 
# 
# From -- ./inp_files/70202.got.cif
#   From: 2010.03.12/outbox.cif.g09.slc.cpg/sg74_36_cif.got.tgz:70202.got - 2010.04.16 15:46:19.
