data_PCOD8299106
_publ_section_title
;
Structure prediction by ZEFSAII (Michael W. Deem and Ramdas Pophale) SiO2 
 PCOD8299106
Probable space group: I M M A
;
_chemical_formula_sum "Si O2"
_cell_formula_units_Z 112
_cell_length_a 14.676935
_cell_length_b 13.728903
_cell_length_c 27.431403
_cell_angle_alpha 90.000000
_cell_angle_beta 90.000000
_cell_angle_gamma 90.000000
_cell_volume 5527.378793
_symmetry_space_group_name_H-M "I M M A"
_symmetry_group_IT_number 74
_symmetry_cell_setting 'orthorhombic'
loop_
_space_group_symop_operation_xyz
x,y,z
-x,1/2-y,z
x,-y,-z
-x,1/2+y,-z
-x,-y,-z
x,1/2+y,-z
-x,y,z
x,1/2-y,z
1/2+x,1/2+y,1/2+z
1/2-x,-y,1/2+z
1/2+x,1/2-y,1/2-z
1/2-x,y,1/2-z
1/2-x,1/2-y,1/2-z
1/2+x,y,1/2-z
1/2-x,1/2+y,1/2+z
1/2+x,-y,1/2+z
loop_
_atom_site_type_symbol
_atom_site_label
_atom_site_fract_x
_atom_site_fract_y
_atom_site_fract_z
Si Si1 0.104151 0.147053 0.834356
Si Si2 0.395652 0.454635 0.187629
Si Si3 0.394706 0.862156 0.126182
Si Si4 0.600103 0.640287 0.449373
Si Si5 0.771827 0.474722 0.550622
Si Si6 0.892265 0.946554 0.799366
Si Si7 0.744158 0.639257 0.627455
O O1 0.150181 0.250000 0.817895
O O2 0.112198 0.136930 0.891635
O O3 0.000000 0.148971 0.817149
O O4 0.150688 0.053546 0.810137
O O5 0.500000 0.429039 0.177487
O O6 0.377146 0.568457 0.173355
O O7 0.369879 0.429294 0.243064
O O8 0.338313 0.381430 0.154932
O O9 0.500000 0.868118 0.110032
O O10 0.367883 0.750000 0.138694
O O11 0.333513 0.900922 0.081723
O O12 0.500000 0.598536 0.463588
O O13 0.608280 0.750000 0.469050
O O14 0.681111 0.576692 0.470858
O O15 0.825063 0.500000 0.500000
O O16 0.739549 0.569045 0.580867
O O17 0.840364 0.872848 0.835032
O O18 0.000000 0.939265 0.810593
O O19 0.743291 0.750000 0.608691
#
# Coordination Sequence:
#
# PCOD8299106 Si02
#       7
#    16  16  16  16  16  16  16
#     4   8  14  26  48  77 107 141 178 214 257 314
#     4   9  20  37  58  84 112 146 186 227 275 332
#     4   9  19  38  62  87 116 144 173 224 293 354
#     4   9  17  32  55  81 110 144 180 220 273 334
#     4  11  23  38  60  83 110 146 189 239 286 335
#     4  10  19  34  56  83 117 151 186 227 270 323
#     4  11  24  40  56  77 110 150 192 236 278 322
#
# _framework density 20.262768999999999
#
# number of rings (size 3 to 8) (size 9 to 14) (size 15 to 20)
#    0.000    2.429    1.429    1.714    0.000    4.000 
#    0.000    4.286    0.000    2.571    0.000    0.000 
#    0.000    0.000    0.000    0.000    0.000    0.000 
#
# Total GULP energy -693946.751985 kJ/mol
# GULP energy per Si atom -12391.906285 kJ/mol
# Density = 2.021665 g / cm^3
# Si number density = 20.262769 Si / 1000 Ang^3
#
#
#
# Elastic Constant Matrix: (Units=GPa)
#
#
# Indices 1 2 3 4 5 6 
#
# 1 77.6131 32.7017 27.0200 0.0000 0.0000 0.0000
# 2 32.7017 102.8872 24.8886 0.0000 0.0000 0.0000
# 3 27.0200 24.8886 81.1582 0.0000 0.0000 0.0000
# 4 0.0000 0.0000 0.0000 17.2890 0.0000 0.0000
# 5 0.0000 0.0000 0.0000 0.0000 17.3122 0.0000
# 6 0.0000 0.0000 0.0000 0.0000 0.0000 26.3410
#
#
#
# Elastic Compliance Matrix: (Units=1/GPa)
#
#
# Indices 1 2 3 4 5 6 
#
# 1 0.016036 -0.004110 -0.004078 0.000000 0.000000 0.000000
# 2 -0.004110 0.011552 -0.002174 0.000000 0.000000 0.000000
# 3 -0.004078 -0.002174 0.014346 0.000000 0.000000 0.000000
# 4 0.000000 0.000000 0.000000 0.057840 0.000000 0.000000
# 5 0.000000 0.000000 0.000000 0.000000 0.057763 0.000000
# 6 0.000000 0.000000 0.000000 0.000000 0.000000 0.037964
#
#
# Mechanical properties :
#
#
# Convention : Reuss Voigt Hill
#
# Bulk Modulus (GPa) = 47.15125 47.87547 47.51336
# Shear Modulus (GPa) = 22.39183 23.99165 23.19174
#
# Velocity S-wave (km/s) = 3.32787 3.44470 3.38679
# Velocity P-wave (km/s) = 6.17144 6.28489 6.22843
#
# Compressibility (1/GPa) = 0.02120834
#
# Stress axis : x y z
#
# Youngs Moduli (GPa) = 62.35914 86.56703 69.70506
#
# Poissons Ratio (x) = 0.35582 0.28428
# Poissons Ratio (y) = 0.25632 0.15154
# Poissons Ratio (z) = 0.25433 0.18820
#
# Static dielectric constant tensor:
#      x y z
#    x 3.742160 0.000000 0.000000 
#    y 0.000000 3.703930 0.000000 
#    z 0.000000 0.000000 3.438510 
# 
# 
# High freq. dielectric constant tensor:
#      x y z
#    x 1.790110 0.000000 0.000000 
#    y 0.000000 1.789570 0.000000 
#    z 0.000000 0.000000 1.769850 
# 
# From -- ./inp_files/60110.got.cif
#   From: 2010.03.12/outbox.cif.g09.slc.cpg/sg74_31_cif.got.tgz:60110.got - 2010.04.16 15:46:19.
