data_PCOD8299785
_publ_section_title
;
Structure prediction by ZEFSAII (Michael W. Deem and Ramdas Pophale) SiO2 
 PCOD8299785
Probable space group: I M M A
;
_chemical_formula_sum "Si O2"
_cell_formula_units_Z 88
_cell_length_a 8.830798
_cell_length_b 18.745509
_cell_length_c 27.483656
_cell_angle_alpha 90.000000
_cell_angle_beta 90.000000
_cell_angle_gamma 90.000000
_cell_volume 4549.584043
_symmetry_space_group_name_H-M "I M M A"
_symmetry_group_IT_number 74
_symmetry_cell_setting 'orthorhombic'
loop_
_space_group_symop_operation_xyz
x,y,z
-x,1/2-y,z
x,-y,-z
-x,1/2+y,-z
-x,-y,-z
x,1/2+y,-z
-x,y,z
x,1/2-y,z
1/2+x,1/2+y,1/2+z
1/2-x,-y,1/2+z
1/2+x,1/2-y,1/2-z
1/2-x,y,1/2-z
1/2-x,1/2-y,1/2-z
1/2+x,y,1/2-z
1/2-x,1/2+y,1/2+z
1/2+x,-y,1/2+z
loop_
_atom_site_type_symbol
_atom_site_label
_atom_site_fract_x
_atom_site_fract_y
_atom_site_fract_z
Si Si1 0.173570 0.929679 0.563558
Si Si2 0.821774 0.033652 0.700555
Si Si3 0.823214 0.832809 0.016228
Si Si4 0.322448 0.750000 0.698727
Si Si5 0.173091 0.585959 0.405137
Si Si6 0.176285 0.601024 0.838796
O O1 0.223536 0.886312 0.516162
O O2 0.290369 0.908368 0.604917
O O3 0.000000 0.909429 0.576355
O O4 0.185844 0.015649 0.560247
O O5 0.750000 0.067423 0.750000
O O6 0.770407 0.073194 0.650619
O O7 0.000000 0.036684 0.706051
O O8 0.769526 0.951840 0.695937
O O9 0.783773 0.750000 0.005697
O O10 0.778216 0.852378 0.071804
O O11 0.000000 0.847019 0.007625
O O12 0.500000 0.750000 0.704371
O O13 0.250000 0.750000 0.750000
O O14 0.266422 0.680534 0.670736
O O15 0.000000 0.612336 0.404044
O O16 0.000000 0.588863 0.828073
#
# Coordination Sequence:
#
# PCOD8299785 Si02
#       6
#    16  16  16   8  16  16
#     4  10  21  37  57  82 109 143 185 228 273 327
#     4  10  20  35  56  83 110 138 178 226 273 327
#     4  11  24  38  55  82 114 146 183 227 274 330
#     4  10  22  34  46  66  98 140 182 226 271 316
#     4   9  20  38  58  82 112 143 182 228 272 325
#     4  10  20  34  51  74 106 142 181 229 275 320
#
# _framework density 19.342428000000002
#
# number of rings (size 3 to 8) (size 9 to 14) (size 15 to 20)
#    0.000    2.000    0.000    4.364    1.273   10.909 
#    0.000    0.000    0.000    0.545    0.000    0.000 
#    0.000    0.000    0.000    0.000    0.000    0.000 
#
# Total GULP energy -545415.521637 kJ/mol
# GULP energy per Si atom -12395.807310 kJ/mol
# Density = 1.929840 g / cm^3
# Si number density = 19.342428 Si / 1000 Ang^3
#
#
#
# Elastic Constant Matrix: (Units=GPa)
#
#
# Indices 1 2 3 4 5 6 
#
# 1 48.2691 20.5343 24.5971 0.0000 0.0000 0.0000
# 2 20.5343 46.1847 28.1982 0.0000 0.0000 0.0000
# 3 24.5971 28.1982 91.6089 0.0000 0.0000 0.0000
# 4 0.0000 0.0000 0.0000 13.9604 0.0000 0.0000
# 5 0.0000 0.0000 0.0000 0.0000 38.1596 0.0000
# 6 0.0000 0.0000 0.0000 0.0000 0.0000 27.6894
#
#
#
# Elastic Compliance Matrix: (Units=1/GPa)
#
#
# Indices 1 2 3 4 5 6 
#
# 1 0.026893 -0.009295 -0.004360 0.000000 0.000000 0.000000
# 2 -0.009295 0.029876 -0.006700 0.000000 0.000000 0.000000
# 3 -0.004360 -0.006700 0.014149 0.000000 0.000000 0.000000
# 4 0.000000 0.000000 0.000000 0.071631 0.000000 0.000000
# 5 0.000000 0.000000 0.000000 0.000000 0.026206 0.000000
# 6 0.000000 0.000000 0.000000 0.000000 0.000000 0.036115
#
#
# Mechanical properties :
#
#
# Convention : Reuss Voigt Hill
#
# Bulk Modulus (GPa) = 33.10432 36.96909 35.03670
# Shear Modulus (GPa) = 19.55803 23.47741 21.51772
#
# Velocity S-wave (km/s) = 3.18330 3.48771 3.33898
# Velocity P-wave (km/s) = 5.53744 5.94754 5.74615
#
# Compressibility (1/GPa) = 0.03020754
#
# Stress axis : x y z
#
# Youngs Moduli (GPa) = 37.18424 33.47185 70.67645
#
# Poissons Ratio (x) = 0.31113 0.30813
# Poissons Ratio (y) = 0.34563 0.47356
# Poissons Ratio (z) = 0.16211 0.22427
#
# Static dielectric constant tensor:
#      x y z
#    x 3.469810 0.000000 0.000000 
#    y 0.000000 3.420280 0.000000 
#    z 0.000000 0.000000 3.632560 
# 
# 
# High freq. dielectric constant tensor:
#      x y z
#    x 1.757730 0.000000 0.000000 
#    y 0.000000 1.727810 0.000000 
#    z 0.000000 0.000000 1.759680 
# 
# From -- ./inp_files/70237.got.cif
#   From: 2010.03.12/outbox.cif.g09.slc.cpg/sg74_36_cif.got.tgz:70237.got - 2010.04.16 15:46:19.
