data_PCOD8299868
_publ_section_title
;
Structure prediction by ZEFSAII (Michael W. Deem and Ramdas Pophale) SiO2 
 PCOD8299868
Probable space group: I M M A
;
_chemical_formula_sum "Si O2"
_cell_formula_units_Z 104
_cell_length_a 9.338611
_cell_length_b 28.522983
_cell_length_c 19.960751
_cell_angle_alpha 90.000000
_cell_angle_beta 90.000000
_cell_angle_gamma 90.000000
_cell_volume 5316.846294
_symmetry_space_group_name_H-M "I M M A"
_symmetry_group_IT_number 74
_symmetry_cell_setting 'orthorhombic'
loop_
_space_group_symop_operation_xyz
x,y,z
-x,1/2-y,z
x,-y,-z
-x,1/2+y,-z
-x,-y,-z
x,1/2+y,-z
-x,y,z
x,1/2-y,z
1/2+x,1/2+y,1/2+z
1/2-x,-y,1/2+z
1/2+x,1/2-y,1/2-z
1/2-x,y,1/2-z
1/2-x,1/2-y,1/2-z
1/2+x,y,1/2-z
1/2-x,1/2+y,1/2+z
1/2+x,-y,1/2+z
loop_
_atom_site_type_symbol
_atom_site_label
_atom_site_fract_x
_atom_site_fract_y
_atom_site_fract_z
Si Si1 0.167929 0.161120 0.908397
Si Si2 0.333988 0.534240 0.561296
Si Si3 0.667633 0.195518 0.316748
Si Si4 0.840044 0.105204 0.688357
Si Si5 0.159601 0.994751 0.688752
Si Si6 0.666931 0.250000 0.680417
Si Si7 0.667391 0.858376 0.554198
O O1 0.257932 0.117337 0.880172
O O2 0.210562 0.205911 0.864807
O O3 0.000000 0.148732 0.903599
O O4 0.213152 0.168648 0.986034
O O5 0.300344 0.500000 0.500000
O O6 0.500000 0.530917 0.582209
O O7 0.236342 0.517352 0.620785
O O8 0.288674 0.587435 0.544951
O O9 0.500000 0.185684 0.305471
O O10 0.696423 0.250000 0.332094
O O11 0.750000 0.179176 0.250000
O O12 0.733670 0.166046 0.379531
O O13 0.750000 0.127341 0.750000
O O14 0.000000 0.127066 0.689073
O O15 0.849974 0.050094 0.696394
O O16 0.250000 0.972870 0.750000
O O17 0.000000 0.973047 0.689910
O O18 0.500000 0.250000 0.697181
O O19 0.750000 0.250000 0.750000
O O20 0.500000 0.853406 0.563825
#
# Coordination Sequence:
#
# PCOD8299868 Si02
#       7
#    16  16  16  16  16   8  16
#     4  10  20  35  55  79 107 141 181 224 267 319
#     4  10  20  35  55  79 111 148 183 226 277 330
#     4   9  18  34  57  81 107 140 177 224 275 330
#     4  10  20  34  53  77 105 140 183 226 271 320
#     4  10  21  36  55  79 107 141 182 229 275 327
#     4  10  22  36  54  80 109 142 178 218 265 314
#     4   9  19  34  55  82 108 140 184 224 268 325
#
# _framework density 19.560466999999999
#
# number of rings (size 3 to 8) (size 9 to 14) (size 15 to 20)
#    0.000    2.308    0.000    2.308    1.077    5.846 
#    0.000    3.846    0.000    0.000    0.000    0.000 
#    0.000    0.000    0.000    0.000    0.000    0.000 
#
# Total GULP energy -644727.116941 kJ/mol
# GULP energy per Si atom -12398.598403 kJ/mol
# Density = 1.951595 g / cm^3
# Si number density = 19.560467 Si / 1000 Ang^3
#
#
#
# Elastic Constant Matrix: (Units=GPa)
#
#
# Indices 1 2 3 4 5 6 
#
# 1 94.8905 31.4591 77.3819 0.0001 0.0000 0.0000
# 2 31.4591 64.7718 56.1237 0.0000 0.0000 0.0000
# 3 77.3819 56.1237 185.9685 0.0000 0.0000 0.0000
# 4 0.0001 0.0000 0.0000 33.1946 0.0000 0.0000
# 5 0.0000 0.0000 0.0000 0.0000 33.4365 0.0000
# 6 0.0000 0.0000 0.0000 0.0000 0.0000 20.3772
#
#
#
# Elastic Compliance Matrix: (Units=1/GPa)
#
#
# Indices 1 2 3 4 5 6 
#
# 1 0.016308 -0.002764 -0.005952 0.000000 0.000000 0.000000
# 2 -0.002764 0.021374 -0.005301 0.000000 0.000000 0.000000
# 3 -0.005952 -0.005301 0.009454 0.000000 0.000000 0.000000
# 4 0.000000 0.000000 0.000000 0.030125 0.000000 0.000000
# 5 0.000000 0.000000 0.000000 0.000000 0.029907 0.000000
# 6 0.000000 0.000000 0.000000 0.000000 0.000000 0.049074
#
#
# Mechanical properties :
#
#
# Convention : Reuss Voigt Hill
#
# Bulk Modulus (GPa) = 52.34585 75.06226 63.70405
# Shear Modulus (GPa) = 26.22703 29.44606 27.83654
#
# Velocity S-wave (km/s) = 3.66569 3.88414 3.77650
# Velocity P-wave (km/s) = 6.68846 7.65331 7.18710
#
# Compressibility (1/GPa) = 0.01910371
#
# Stress axis : x y z
#
# Youngs Moduli (GPa) = 61.31803 46.78607 105.78061
#
# Poissons Ratio (x) = 0.12930 0.62960
# Poissons Ratio (y) = 0.16946 0.56069
# Poissons Ratio (z) = 0.36496 0.24799
#
# Static dielectric constant tensor:
#      x y z
#    x 3.555000 0.000000 0.000000 
#    y 0.000000 3.945050 0.000000 
#    z 0.000000 0.000000 3.760210 
# 
# 
# High freq. dielectric constant tensor:
#      x y z
#    x 1.743680 0.000000 0.000000 
#    y 0.000000 1.751890 0.000000 
#    z 0.000000 0.000000 1.775620 
# 
# From -- ./inp_files/49310.got.cif
#   From: 2010.03.12/outbox.cif.g09.slc.cpg/sg74_25_cif.got.tgz:49310.got - 2010.04.16 15:46:19.
