data_PCOD8299565
_publ_section_title
;
Structure prediction by ZEFSAII (Michael W. Deem and Ramdas Pophale) SiO2 
 PCOD8299565
Probable space group: I M M A
;
_chemical_formula_sum "Si O2"
_cell_formula_units_Z 104
_cell_length_a 9.444798
_cell_length_b 25.674774
_cell_length_c 23.368054
_cell_angle_alpha 90.000000
_cell_angle_beta 90.000000
_cell_angle_gamma 90.000000
_cell_volume 5666.590783
_symmetry_space_group_name_H-M "I M M A"
_symmetry_group_IT_number 74
_symmetry_cell_setting 'orthorhombic'
loop_
_space_group_symop_operation_xyz
x,y,z
-x,1/2-y,z
x,-y,-z
-x,1/2+y,-z
-x,-y,-z
x,1/2+y,-z
-x,y,z
x,1/2-y,z
1/2+x,1/2+y,1/2+z
1/2-x,-y,1/2+z
1/2+x,1/2-y,1/2-z
1/2-x,y,1/2-z
1/2-x,1/2-y,1/2-z
1/2+x,y,1/2-z
1/2-x,1/2+y,1/2+z
1/2+x,-y,1/2+z
loop_
_atom_site_type_symbol
_atom_site_label
_atom_site_fract_x
_atom_site_fract_y
_atom_site_fract_z
Si Si1 0.161166 0.750000 0.306326
Si Si2 0.652828 0.192977 0.294969
Si Si3 0.163953 0.842893 0.389843
Si Si4 0.666913 0.448077 0.191716
Si Si5 0.158047 0.881404 0.895567
Si Si6 0.331865 0.189728 0.499286
Si Si7 0.837892 0.568934 0.305133
O O1 0.250000 0.750000 0.250000
O O2 0.198944 0.800637 0.342263
O O3 0.000000 0.750000 0.287006
O O4 0.500000 0.196373 0.265725
O O5 0.719472 0.250000 0.305085
O O6 0.750000 0.161021 0.250000
O O7 0.641538 0.167946 0.355752
O O8 0.262128 0.830990 0.443228
O O9 0.203834 0.898649 0.361878
O O10 0.000000 0.840626 0.409256
O O11 0.500000 0.433724 0.198149
O O12 0.750000 0.432040 0.250000
O O13 0.733304 0.421282 0.134792
O O14 0.689103 0.508896 0.180220
O O15 0.000000 0.906762 0.904155
O O16 0.217445 0.854030 0.952965
O O17 0.500000 0.188170 0.505502
O O18 0.284394 0.250000 0.485818
O O19 0.750000 0.587204 0.250000
O O20 0.000000 0.579867 0.289019
#
# Coordination Sequence:
#
# PCOD8299565 Si02
#       7
#     8  16  16  16  16  16  16
#     4  10  20  32  52  82 112 138 169 212 261 316
#     4   9  17  29  45  66  94 125 158 204 261 315
#     4  10  20  36  55  79 110 142 176 217 265 317
#     4  10  20  35  55  80 108 140 177 220 271 322
#     4  10  20  34  52  74 101 136 179 224 266 312
#     4  10  21  37  56  78 106 143 184 224 268 318
#     4   9  19  35  56  81 110 141 174 215 266 322
#
# _framework density 18.353186999999998
#
# number of rings (size 3 to 8) (size 9 to 14) (size 15 to 20)
#    0.000    2.308    0.769    1.846    0.000    6.154 
#    0.000    0.769    0.000    7.385    0.000    0.000 
#    0.000    0.000    0.000    0.000    0.000    0.000 
#
# Total GULP energy -644320.335668 kJ/mol
# GULP energy per Si atom -12390.775686 kJ/mol
# Density = 1.831141 g / cm^3
# Si number density = 18.353187 Si / 1000 Ang^3
#
#
#
# Elastic Constant Matrix: (Units=GPa)
#
#
# Indices 1 2 3 4 5 6 
#
# 1 78.1531 42.4964 58.7763 0.0000 0.0000 0.0000
# 2 42.4964 94.9667 49.9050 0.0000 0.0000 0.0000
# 3 58.7763 49.9050 122.1535 0.0000 0.0000 0.0000
# 4 0.0000 0.0000 0.0000 34.9369 0.0000 0.0000
# 5 0.0000 0.0000 0.0000 0.0000 36.3556 0.0000
# 6 0.0000 0.0000 0.0000 0.0000 0.0000 33.9244
#
#
#
# Elastic Compliance Matrix: (Units=1/GPa)
#
#
# Indices 1 2 3 4 5 6 
#
# 1 0.022080 -0.005472 -0.008388 0.000000 0.000000 0.000000
# 2 -0.005472 0.014765 -0.003399 0.000000 0.000000 0.000000
# 3 -0.008388 -0.003399 0.013611 0.000000 0.000000 0.000000
# 4 0.000000 0.000000 0.000000 0.028623 0.000000 0.000000
# 5 0.000000 0.000000 0.000000 0.000000 0.027506 0.000000
# 6 0.000000 0.000000 0.000000 0.000000 0.000000 0.029477
#
#
# Mechanical properties :
#
#
# Convention : Reuss Voigt Hill
#
# Bulk Modulus (GPa) = 62.74889 66.40319 64.57604
# Shear Modulus (GPa) = 28.42625 30.64974 29.53800
#
# Velocity S-wave (km/s) = 3.93981 4.09099 4.01611
# Velocity P-wave (km/s) = 7.41350 7.65338 7.53439
#
# Compressibility (1/GPa) = 0.01593654
#
# Stress axis : x y z
#
# Youngs Moduli (GPa) = 45.29076 67.72783 73.46850
#
# Poissons Ratio (x) = 0.37062 0.61628
# Poissons Ratio (y) = 0.24784 0.24972
# Poissons Ratio (z) = 0.37991 0.23021
#
# Static dielectric constant tensor:
#      x y z
#    x 3.559690 0.000000 0.000000 
#    y 0.000000 3.529690 0.000000 
#    z 0.000000 0.000000 3.320440 
# 
# 
# High freq. dielectric constant tensor:
#      x y z
#    x 1.710700 0.000000 0.000000 
#    y 0.000000 1.718050 0.000000 
#    z 0.000000 0.000000 1.700530 
# 
# From -- ./inp_files/49648.got.cif
#   From: 2010.03.12/outbox.cif.g09.slc.cpg/sg74_25_cif.got.tgz:49648.got - 2010.04.16 15:46:19.
