data_PCOD8299648
_publ_section_title
;
Structure prediction by ZEFSAII (Michael W. Deem and Ramdas Pophale) SiO2 
 PCOD8299648
Probable space group: I M M A
;
_chemical_formula_sum "Si O2"
_cell_formula_units_Z 64
_cell_length_a 9.617967
_cell_length_b 9.030991
_cell_length_c 41.317218
_cell_angle_alpha 90.000000
_cell_angle_beta 90.000000
_cell_angle_gamma 90.000000
_cell_volume 3588.804194
_symmetry_space_group_name_H-M "I M M A"
_symmetry_group_IT_number 74
_symmetry_cell_setting 'orthorhombic'
loop_
_space_group_symop_operation_xyz
x,y,z
-x,1/2-y,z
x,-y,-z
-x,1/2+y,-z
-x,-y,-z
x,1/2+y,-z
-x,y,z
x,1/2-y,z
1/2+x,1/2+y,1/2+z
1/2-x,-y,1/2+z
1/2+x,1/2-y,1/2-z
1/2-x,y,1/2-z
1/2-x,1/2-y,1/2-z
1/2+x,y,1/2-z
1/2-x,1/2+y,1/2+z
1/2+x,-y,1/2+z
loop_
_atom_site_type_symbol
_atom_site_label
_atom_site_fract_x
_atom_site_fract_y
_atom_site_fract_z
Si Si1 0.334874 0.914467 0.650866
Si Si2 0.840249 0.576486 0.533256
Si Si3 0.345271 0.573508 0.721591
Si Si4 0.163860 0.920573 0.087579
O O1 0.500000 0.905458 0.652416
O O2 0.275261 0.750000 0.643291
O O3 0.283615 0.971392 0.686207
O O4 0.285572 0.026745 0.623035
O O5 0.794586 0.500000 0.500000
O O6 0.816175 0.750000 0.529320
O O7 0.742705 0.516981 0.561326
O O8 0.000000 0.538617 0.541631
O O9 0.500000 0.508485 0.726365
O O10 0.349793 0.750000 0.723572
O O11 0.250000 0.505928 0.750000
O O12 0.204599 0.750000 0.083428
O O13 0.000000 0.946719 0.083147
#
# Coordination Sequence:
#
# PCOD8299648 Si02
#       4
#    16  16  16  16
#     4   8  14  26  44  65  91 123 156 193 240 288
#     4  10  21  37  56  76  99 129 162 195 237 288
#     4   8  13  22  38  60  85 114 149 190 236 282
#     4  10  20  33  51  75 100 128 164 203 242 284
#
# _framework density 17.833238000000001
#
# number of rings (size 3 to 8) (size 9 to 14) (size 15 to 20)
#    0.000    3.000    0.000    3.000    0.000    3.500 
#    0.000    1.250    0.000    5.250    0.000    0.000 
#    0.000    0.000    0.000    0.000    0.000    0.000 
#
# Total GULP energy -396664.908603 kJ/mol
# GULP energy per Si atom -12395.778394 kJ/mol
# Density = 1.779265 g / cm^3
# Si number density = 17.833238 Si / 1000 Ang^3
#
#
#
# Elastic Constant Matrix: (Units=GPa)
#
#
# Indices 1 2 3 4 5 6 
#
# 1 47.3834 26.7068 53.5764 0.0000 0.0000 0.0000
# 2 26.7068 67.6006 51.4404 0.0000 0.0000 0.0000
# 3 53.5764 51.4404 160.8419 0.0000 0.0000 0.0000
# 4 0.0000 0.0000 0.0000 25.4667 0.0000 0.0000
# 5 0.0000 0.0000 0.0000 0.0000 30.0374 0.0000
# 6 0.0000 0.0000 0.0000 0.0000 0.0000 18.8153
#
#
#
# Elastic Compliance Matrix: (Units=1/GPa)
#
#
# Indices 1 2 3 4 5 6 
#
# 1 0.036042 -0.006745 -0.009848 0.000000 0.000000 0.000000
# 2 -0.006745 0.020813 -0.004410 0.000000 0.000000 0.000000
# 3 -0.009848 -0.004410 0.010908 0.000000 0.000000 0.000000
# 4 0.000000 0.000000 0.000000 0.039267 0.000000 0.000000
# 5 0.000000 0.000000 0.000000 0.000000 0.033292 0.000000
# 6 0.000000 0.000000 0.000000 0.000000 0.000000 0.053148
#
#
# Mechanical properties :
#
#
# Convention : Reuss Voigt Hill
#
# Bulk Modulus (GPa) = 38.82451 59.91925 49.37188
# Shear Modulus (GPa) = 20.48670 24.47070 22.47870
#
# Velocity S-wave (km/s) = 3.39306 3.70834 3.55420
# Velocity P-wave (km/s) = 6.09661 7.21168 6.67746
#
# Compressibility (1/GPa) = 0.02575692
#
# Stress axis : x y z
#
# Youngs Moduli (GPa) = 27.74577 48.04698 91.67529
#
# Poissons Ratio (x) = 0.32407 0.90285
# Poissons Ratio (y) = 0.18714 0.40426
# Poissons Ratio (z) = 0.27325 0.21187
#
# Static dielectric constant tensor:
#      x y z
#    x 3.130740 0.000000 0.000000 
#    y 0.000000 3.155170 0.000000 
#    z 0.000000 0.000000 3.716970 
# 
# 
# High freq. dielectric constant tensor:
#      x y z
#    x 1.657260 0.000000 0.000000 
#    y 0.000000 1.667810 0.000000 
#    z 0.000000 0.000000 1.707940 
# 
# From -- ./inp_files/69726.got.cif
#   From: 2010.03.12/outbox.cif.g09.slc.cpg/sg74_35_cif.got.tgz:69726.got - 2010.04.16 15:46:19.
