data_PCOD8299743
_publ_section_title
;
Structure prediction by ZEFSAII (Michael W. Deem and Ramdas Pophale) SiO2 
 PCOD8299743
Probable space group: I M M A
;
_chemical_formula_sum "Si O2"
_cell_formula_units_Z 80
_cell_length_a 8.764235
_cell_length_b 20.405485
_cell_length_c 22.972710
_cell_angle_alpha 90.000000
_cell_angle_beta 90.000000
_cell_angle_gamma 90.000000
_cell_volume 4108.404212
_symmetry_space_group_name_H-M "I M M A"
_symmetry_group_IT_number 74
_symmetry_cell_setting 'orthorhombic'
loop_
_space_group_symop_operation_xyz
x,y,z
-x,1/2-y,z
x,-y,-z
-x,1/2+y,-z
-x,-y,-z
x,1/2+y,-z
-x,y,z
x,1/2-y,z
1/2+x,1/2+y,1/2+z
1/2-x,-y,1/2+z
1/2+x,1/2-y,1/2-z
1/2-x,y,1/2-z
1/2-x,1/2-y,1/2-z
1/2+x,y,1/2-z
1/2-x,1/2+y,1/2+z
1/2+x,-y,1/2+z
loop_
_atom_site_type_symbol
_atom_site_label
_atom_site_fract_x
_atom_site_fract_y
_atom_site_fract_z
Si Si1 0.678755 0.750000 0.687524
Si Si2 0.321698 0.250000 0.812167
Si Si3 0.821214 0.500823 0.686093
Si Si4 0.680078 0.826591 0.501498
Si Si5 0.680809 0.874174 0.114959
Si Si6 0.820554 0.867652 0.619240
O O1 0.500000 0.750000 0.694101
O O2 0.750000 0.750000 0.750000
O O3 0.728803 0.813712 0.653786
O O4 0.500000 0.250000 0.804136
O O5 0.250000 0.250000 0.750000
O O6 0.266129 0.313565 0.846172
O O7 0.750000 0.503548 0.750000
O O8 0.763736 0.438546 0.649225
O O9 0.775142 0.563395 0.647786
O O10 0.000000 0.496343 0.695872
O O11 0.500000 0.831619 0.511389
O O12 0.730668 0.750000 0.497729
O O13 0.728641 0.867294 0.444998
O O14 0.767781 0.864152 0.552770
O O15 0.500000 0.874682 0.102430
O O16 0.000000 0.854183 0.623583
#
# Coordination Sequence:
#
# PCOD8299743 Si02
#       6
#     8   8  16  16  16  16
#     4  12  24  39  60  89 120 155 203 255 301 360
#     4  10  20  33  56  85 114 153 197 243 295 348
#     4  10  23  41  62  90 124 161 203 249 301 363
#     4  11  23  39  61  91 123 156 201 256 306 358
#     4  10  21  39  61  87 120 161 203 246 300 360
#     4  11  23  40  63  89 120 162 202 247 307 364
#
# _framework density 19.472280999999999
#
# number of rings (size 3 to 8) (size 9 to 14) (size 15 to 20)
#    0.000    1.400    2.000    3.300    0.000    6.400 
#    0.000    4.000    0.000    0.000    0.000    0.000 
#    0.000    0.000    0.000    0.000    0.000    0.000 
#
# Total GULP energy -496129.070346 kJ/mol
# GULP energy per Si atom -12403.226759 kJ/mol
# Density = 1.942796 g / cm^3
# Si number density = 19.472281 Si / 1000 Ang^3
#
#
#
# Elastic Constant Matrix: (Units=GPa)
#
#
# Indices 1 2 3 4 5 6 
#
# 1 74.5128 51.9119 52.8601 0.0000 0.0000 0.0000
# 2 51.9119 162.0804 81.2352 0.0000 0.0000 0.0000
# 3 52.8601 81.2352 175.6737 0.0000 0.0000 0.0000
# 4 0.0000 0.0000 0.0000 40.7133 0.0000 0.0000
# 5 0.0000 0.0000 0.0000 0.0000 42.6111 0.0000
# 6 0.0000 0.0000 0.0000 0.0000 0.0000 88.6880
#
#
#
# Elastic Compliance Matrix: (Units=1/GPa)
#
#
# Indices 1 2 3 4 5 6 
#
# 1 0.019030 -0.004198 -0.003785 0.000000 0.000000 0.000000
# 2 -0.004198 0.008957 -0.002879 0.000000 0.000000 0.000000
# 3 -0.003785 -0.002879 0.008162 0.000000 0.000000 0.000000
# 4 0.000000 0.000000 0.000000 0.024562 0.000000 0.000000
# 5 0.000000 0.000000 0.000000 0.000000 0.023468 0.000000
# 6 0.000000 0.000000 0.000000 0.000000 0.000000 0.011275
#
#
# Mechanical properties :
#
#
# Convention : Reuss Voigt Hill
#
# Bulk Modulus (GPa) = 69.31751 87.14235 78.22993
# Shear Modulus (GPa) = 40.98763 49.48646 45.23705
#
# Velocity S-wave (km/s) = 4.59292 5.04668 4.82514
# Velocity P-wave (km/s) = 7.98761 8.87737 8.44422
#
# Compressibility (1/GPa) = 0.01442637
#
# Stress axis : x y z
#
# Youngs Moduli (GPa) = 52.54769 111.64161 122.51194
#
# Poissons Ratio (x) = 0.46868 0.46370
# Poissons Ratio (y) = 0.22060 0.35269
# Poissons Ratio (z) = 0.19889 0.32139
#
# Static dielectric constant tensor:
#      x y z
#    x 3.525950 0.000000 0.000000 
#    y 0.000000 3.894230 0.000000 
#    z 0.000000 0.000000 3.685310 
# 
# 
# High freq. dielectric constant tensor:
#      x y z
#    x 1.757580 0.000000 0.000000 
#    y 0.000000 1.766920 0.000000 
#    z 0.000000 0.000000 1.777560 
# 
# From -- ./inp_files/56905.got.cif
#   From: 2010.03.12/outbox.cif.g09.slc.cpg/sg74_29_cif.got.tgz:56905.got - 2010.04.16 15:46:19.
