data_PCOD8299887
_publ_section_title
;
Structure prediction by ZEFSAII (Michael W. Deem and Ramdas Pophale) SiO2 
 PCOD8299887
Probable space group: I M M A
;
_chemical_formula_sum "Si O2"
_cell_formula_units_Z 120
_cell_length_a 8.998876
_cell_length_b 26.653452
_cell_length_c 27.740269
_cell_angle_alpha 90.000000
_cell_angle_beta 90.000000
_cell_angle_gamma 90.000000
_cell_volume 6653.534298
_symmetry_space_group_name_H-M "I M M A"
_symmetry_group_IT_number 74
_symmetry_cell_setting 'orthorhombic'
loop_
_space_group_symop_operation_xyz
x,y,z
-x,1/2-y,z
x,-y,-z
-x,1/2+y,-z
-x,-y,-z
x,1/2+y,-z
-x,y,z
x,1/2-y,z
1/2+x,1/2+y,1/2+z
1/2-x,-y,1/2+z
1/2+x,1/2-y,1/2-z
1/2-x,y,1/2-z
1/2-x,1/2-y,1/2-z
1/2+x,y,1/2-z
1/2-x,1/2+y,1/2+z
1/2+x,-y,1/2+z
loop_
_atom_site_type_symbol
_atom_site_label
_atom_site_fract_x
_atom_site_fract_y
_atom_site_fract_z
Si Si1 0.172133 0.847699 0.530485
Si Si2 0.675813 0.953721 0.199834
Si Si3 0.827993 0.447848 0.523301
Si Si4 0.828026 0.194549 0.941876
Si Si5 0.824743 0.596723 0.111765
Si Si6 0.828221 0.567071 0.701473
Si Si7 0.825150 0.838613 0.639561
Si Si8 0.322621 0.750000 0.697609
O O1 0.204482 0.905204 0.516243
O O2 0.250604 0.810349 0.493560
O O3 0.229866 0.837427 0.584393
O O4 0.000000 0.835363 0.527716
O O5 0.500000 0.946909 0.203424
O O6 0.750000 0.938336 0.250000
O O7 0.739764 0.915933 0.160487
O O8 0.721419 0.010952 0.186152
O O9 0.781550 0.500000 0.500000
O O10 0.725747 0.441191 0.570000
O O11 0.000000 0.447550 0.539692
O O12 0.794597 0.250000 0.920838
O O13 0.773795 0.153042 0.903458
O O14 0.000000 0.186009 0.952059
O O15 0.000000 0.592148 0.120047
O O16 0.750000 0.585555 0.750000
O O17 0.790541 0.605486 0.658755
O O18 0.000000 0.566989 0.714093
O O19 0.729654 0.799103 0.669269
O O20 0.000000 0.825894 0.644412
O O21 0.500000 0.750000 0.702520
O O22 0.250000 0.750000 0.750000
#
# Coordination Sequence:
#
# PCOD8299887 Si02
#       8
#    16  16  16  16  16  16  16   8
#     4   9  19  33  51  78 107 137 174 216 261 309
#     4  10  20  35  57  83 113 144 178 216 261 315
#     4   9  18  32  53  77 107 144 180 215 258 313
#     4   9  19  36  56  76 105 141 177 220 266 315
#     4  10  20  34  53  79 110 142 179 220 267 318
#     4   9  19  34  54  76 102 135 172 215 262 314
#     4  10  21  37  56  78 105 135 173 221 271 318
#     4  12  26  42  58  76 100 134 178 226 281 330
#
# _framework density 18.035526999999998
#
# number of rings (size 3 to 8) (size 9 to 14) (size 15 to 20)
#    0.000    2.400    0.000    1.800    2.800    3.733 
#    0.000    0.000    0.000    0.400    0.000    0.000 
#    0.000    0.000    0.000    0.000    0.000    0.000 
#
# Total GULP energy -744052.920689 kJ/mol
# GULP energy per Si atom -12400.882011 kJ/mol
# Density = 1.799448 g / cm^3
# Si number density = 18.035527 Si / 1000 Ang^3
#
#
#
# Elastic Constant Matrix: (Units=GPa)
#
#
# Indices 1 2 3 4 5 6 
#
# 1 67.0944 41.6117 57.0372 0.0000 0.0000 0.0000
# 2 41.6117 106.8314 69.9087 0.0000 0.0000 0.0000
# 3 57.0372 69.9087 142.2447 0.0000 0.0000 0.0000
# 4 0.0000 0.0000 0.0000 23.0149 0.0000 0.0000
# 5 0.0000 0.0000 0.0000 0.0000 33.0417 0.0000
# 6 0.0000 0.0000 0.0000 0.0000 0.0000 24.3919
#
#
#
# Elastic Compliance Matrix: (Units=1/GPa)
#
#
# Indices 1 2 3 4 5 6 
#
# 1 0.023993 -0.004496 -0.007411 0.000000 0.000000 0.000000
# 2 -0.004496 0.014641 -0.005393 0.000000 0.000000 0.000000
# 3 -0.007411 -0.005393 0.012652 0.000000 0.000000 0.000000
# 4 0.000000 0.000000 0.000000 0.043450 0.000000 0.000000
# 5 0.000000 0.000000 0.000000 0.000000 0.030265 0.000000
# 6 0.000000 0.000000 0.000000 0.000000 0.000000 0.040997
#
#
# Mechanical properties :
#
#
# Convention : Reuss Voigt Hill
#
# Bulk Modulus (GPa) = 59.92853 72.58729 66.25791
# Shear Modulus (GPa) = 24.25314 25.93056 25.09185
#
# Velocity S-wave (km/s) = 3.67105 3.79588 3.73399
# Velocity P-wave (km/s) = 7.16024 7.71659 7.44362
#
# Compressibility (1/GPa) = 0.01668654
#
# Stress axis : x y z
#
# Youngs Moduli (GPa) = 41.67911 68.30360 79.03778
#
# Poissons Ratio (x) = 0.30707 0.58576
# Poissons Ratio (y) = 0.18738 0.42622
# Poissons Ratio (z) = 0.30889 0.36834
#
# Static dielectric constant tensor:
#      x y z
#    x 3.320870 0.000000 0.000000 
#    y 0.000000 3.491940 0.000000 
#    z 0.000000 0.000000 3.384490 
# 
# 
# High freq. dielectric constant tensor:
#      x y z
#    x 1.696740 0.000000 0.000000 
#    y 0.000000 1.699770 0.000000 
#    z 0.000000 0.000000 1.693050 
# 
# From -- ./inp_files/65074.got.cif
#   From: 2010.03.12/outbox.cif.g09.slc.cpg/sg74_33_cif.got.tgz:65074.got - 2010.04.16 15:46:19.
