data_PCOD8299050
_publ_section_title
;
Structure prediction by ZEFSAII (Michael W. Deem and Ramdas Pophale) SiO2 
 PCOD8299050
Probable space group: I M M A
;
_chemical_formula_sum "Si O2"
_cell_formula_units_Z 96
_cell_length_a 9.020255
_cell_length_b 30.109746
_cell_length_c 19.497595
_cell_angle_alpha 90.000000
_cell_angle_beta 90.000000
_cell_angle_gamma 90.000000
_cell_volume 5295.499752
_symmetry_space_group_name_H-M "I M M A"
_symmetry_group_IT_number 74
_symmetry_cell_setting 'orthorhombic'
loop_
_space_group_symop_operation_xyz
x,y,z
-x,1/2-y,z
x,-y,-z
-x,1/2+y,-z
-x,-y,-z
x,1/2+y,-z
-x,y,z
x,1/2-y,z
1/2+x,1/2+y,1/2+z
1/2-x,-y,1/2+z
1/2+x,1/2-y,1/2-z
1/2-x,y,1/2-z
1/2-x,1/2-y,1/2-z
1/2+x,y,1/2-z
1/2-x,1/2+y,1/2+z
1/2+x,-y,1/2+z
loop_
_atom_site_type_symbol
_atom_site_label
_atom_site_fract_x
_atom_site_fract_y
_atom_site_fract_z
Si Si1 0.824033 0.484477 0.319813
Si Si2 0.162410 0.697400 0.813789
Si Si3 0.174522 0.698689 0.965709
Si Si4 0.671183 0.586174 0.183182
Si Si5 0.825683 0.378802 0.537198
Si Si6 0.175468 0.542910 0.955885
O O1 0.750000 0.466337 0.250000
O O2 0.777484 0.535732 0.330577
O O3 0.755984 0.457329 0.382746
O O4 0.000000 0.477636 0.317239
O O5 0.152926 0.750000 0.805067
O O6 0.250000 0.675872 0.750000
O O7 0.230676 0.686584 0.888498
O O8 0.000000 0.676258 0.809965
O O9 0.205566 0.750000 0.982224
O O10 0.000000 0.688242 0.972927
O O11 0.272605 0.670452 0.018107
O O12 0.500000 0.587186 0.200254
O O13 0.750000 0.606557 0.250000
O O14 0.711526 0.615468 0.117318
O O15 0.730866 0.413520 0.494146
O O16 0.000000 0.385615 0.522941
O O17 0.000000 0.545259 0.944991
O O18 0.222249 0.500000 0.000000
#
# Coordination Sequence:
#
# PCOD8299050 Si02
#       6
#    16  16  16  16  16  16
#     4  10  19  34  54  77 110 147 183 223 270 321
#     4   8  14  26  46  71  98 128 165 209 256 306
#     4   9  19  36  55  77 107 142 180 225 275 327
#     4   9  19  33  52  78 107 138 174 218 266 319
#     4  11  22  36  55  82 111 141 179 225 275 323
#     4  11  22  35  54  80 109 144 183 221 266 322
#
# _framework density 18.128601
#
# number of rings (size 3 to 8) (size 9 to 14) (size 15 to 20)
#    0.000    2.333    1.667    2.500    0.000    3.667 
#    0.000    2.500    0.000    2.500    0.000    0.000 
#    0.000    0.000    0.000    0.000    0.000    0.000 
#
# Total GULP energy -595154.075678 kJ/mol
# GULP energy per Si atom -12399.043243 kJ/mol
# Density = 1.808734 g / cm^3
# Si number density = 18.128601 Si / 1000 Ang^3
#
#
#
# Elastic Constant Matrix: (Units=GPa)
#
#
# Indices 1 2 3 4 5 6 
#
# 1 73.5063 28.2222 56.0922 0.0001 0.0000 0.0000
# 2 28.2222 57.8256 41.7244 -0.0001 0.0000 0.0000
# 3 56.0922 41.7244 134.9360 0.0002 0.0001 0.0001
# 4 0.0001 -0.0001 0.0002 26.7499 0.0000 0.0000
# 5 0.0000 0.0000 0.0001 0.0000 37.0008 0.0000
# 6 0.0000 0.0000 0.0001 0.0000 0.0000 26.8142
#
#
#
# Elastic Compliance Matrix: (Units=1/GPa)
#
#
# Indices 1 2 3 4 5 6 
#
# 1 0.021028 -0.005092 -0.007167 0.000000 0.000000 0.000000
# 2 -0.005092 0.023493 -0.005148 0.000000 0.000000 0.000000
# 3 -0.007167 -0.005148 0.011982 0.000000 0.000000 0.000000
# 4 0.000000 0.000000 0.000000 0.037383 0.000000 0.000000
# 5 0.000000 0.000000 0.000000 0.000000 0.027026 0.000000
# 6 0.000000 0.000000 0.000000 0.000000 0.000000 0.037294
#
#
# Mechanical properties :
#
#
# Convention : Reuss Voigt Hill
#
# Bulk Modulus (GPa) = 46.10360 57.59395 51.84877
# Shear Modulus (GPa) = 24.96890 27.46159 26.21525
#
# Velocity S-wave (km/s) = 3.71525 3.89629 3.80685
# Velocity P-wave (km/s) = 6.62501 7.21665 6.92715
#
# Compressibility (1/GPa) = 0.02169028
#
# Stress axis : x y z
#
# Youngs Moduli (GPa) = 47.55520 42.56620 83.45902
#
# Poissons Ratio (x) = 0.21673 0.59814
# Poissons Ratio (y) = 0.24214 0.42963
# Poissons Ratio (z) = 0.34082 0.21912
#
# Static dielectric constant tensor:
#      x y z
#    x 3.417090 0.000000 0.000000 
#    y 0.000000 3.054890 0.000000 
#    z 0.000000 0.000000 3.525820 
# 
# 
# High freq. dielectric constant tensor:
#      x y z
#    x 1.705670 0.000000 0.000000 
#    y 0.000000 1.667060 0.000000 
#    z 0.000000 0.000000 1.710530 
# 
# From -- ./inp_files/49087.got.cif
#   From: 2010.03.12/outbox.cif.g09.slc.cpg/sg74_25_cif.got.tgz:49087.got - 2010.04.16 15:46:19.
