data_PCOD8299298
_publ_section_title
;
Structure prediction by ZEFSAII (Michael W. Deem and Ramdas Pophale) SiO2 
 PCOD8299298
Probable space group: I M M A
;
_chemical_formula_sum "Si O2"
_cell_formula_units_Z 96
_cell_length_a 15.153152
_cell_length_b 14.923519
_cell_length_c 19.043550
_cell_angle_alpha 90.000000
_cell_angle_beta 90.000000
_cell_angle_gamma 90.000000
_cell_volume 4306.477009
_symmetry_space_group_name_H-M "I M M A"
_symmetry_group_IT_number 74
_symmetry_cell_setting 'orthorhombic'
loop_
_space_group_symop_operation_xyz
x,y,z
-x,1/2-y,z
x,-y,-z
-x,1/2+y,-z
-x,-y,-z
x,1/2+y,-z
-x,y,z
x,1/2-y,z
1/2+x,1/2+y,1/2+z
1/2-x,-y,1/2+z
1/2+x,1/2-y,1/2-z
1/2-x,y,1/2-z
1/2-x,1/2-y,1/2-z
1/2+x,y,1/2-z
1/2-x,1/2+y,1/2+z
1/2+x,-y,1/2+z
loop_
_atom_site_type_symbol
_atom_site_label
_atom_site_fract_x
_atom_site_fract_y
_atom_site_fract_z
Si Si1 0.633003 0.581440 0.907532
Si Si2 0.902048 0.849871 0.740140
Si Si3 0.401784 0.649030 0.529672
Si Si4 0.096799 0.617778 0.439814
Si Si5 0.323289 0.537815 0.644624
Si Si6 0.213390 0.348172 0.895585
O O1 0.588437 0.630061 0.842126
O O2 0.589239 0.485967 0.920921
O O3 0.735834 0.573495 0.892012
O O4 0.616306 0.637894 0.978144
O O5 0.863615 0.750000 0.751300
O O6 0.837933 0.921376 0.777921
O O7 0.000000 0.856642 0.772839
O O8 0.500000 0.640980 0.496408
O O9 0.387327 0.750000 0.559745
O O10 0.397855 0.576134 0.592284
O O11 0.327717 0.628766 0.471388
O O12 0.179757 0.658342 0.397417
O O13 0.000000 0.660062 0.420515
O O14 0.320452 0.429434 0.653977
O O15 0.179515 0.250000 0.868993
#
# Coordination Sequence:
#
# PCOD8299298 Si02
#       6
#    16  16  16  16  16  16
#     4  10  20  36  58  88 121 158 200 244 294 359
#     4  11  24  39  57  87 124 162 204 246 299 370
#     4  10  20  35  57  85 117 154 199 252 306 363
#     4  10  19  36  63  89 120 160 200 247 301 357
#     4  11  21  36  58  82 118 165 200 243 303 360
#     4  10  22  38  57  87 119 153 207 259 301 354
#
# _framework density 22.292003000000001
#
# number of rings (size 3 to 8) (size 9 to 14) (size 15 to 20)
#    0.000    1.667    1.667    4.000    0.000    6.333 
#    0.000    0.000    0.000    8.000    0.000    0.000 
#    0.000    0.000    0.000    0.000    0.000    0.000 
#
# Total GULP energy -594832.619476 kJ/mol
# GULP energy per Si atom -12392.346239 kJ/mol
# Density = 2.224127 g / cm^3
# Si number density = 22.292003 Si / 1000 Ang^3
#
#
#
# Elastic Constant Matrix: (Units=GPa)
#
#
# Indices 1 2 3 4 5 6 
#
# 1 105.6524 29.2075 19.8891 0.0000 0.0000 0.0000
# 2 29.2075 156.8603 53.0214 0.0000 0.0000 0.0000
# 3 19.8891 53.0214 73.2799 0.0000 0.0000 0.0000
# 4 0.0000 0.0000 0.0000 18.4781 0.0000 0.0000
# 5 0.0000 0.0000 0.0000 0.0000 54.0831 0.0000
# 6 0.0000 0.0000 0.0000 0.0000 0.0000 11.1272
#
#
#
# Elastic Compliance Matrix: (Units=1/GPa)
#
#
# Indices 1 2 3 4 5 6 
#
# 1 0.010162 -0.001271 -0.001839 0.000000 0.000000 0.000000
# 2 -0.001271 0.008598 -0.005876 0.000000 0.000000 0.000000
# 3 -0.001839 -0.005876 0.018397 0.000000 0.000000 0.000000
# 4 0.000000 0.000000 0.000000 0.054118 0.000000 0.000000
# 5 0.000000 0.000000 0.000000 0.000000 0.018490 0.000000
# 6 0.000000 0.000000 0.000000 0.000000 0.000000 0.089870
#
#
# Mechanical properties :
#
#
# Convention : Reuss Voigt Hill
#
# Bulk Modulus (GPa) = 52.12096 60.00320 56.06208
# Shear Modulus (GPa) = 22.32121 32.31598 27.31859
#
# Velocity S-wave (km/s) = 3.16778 3.81158 3.50450
# Velocity P-wave (km/s) = 6.06725 6.80780 6.44817
#
# Compressibility (1/GPa) = 0.01918614
#
# Stress axis : x y z
#
# Youngs Moduli (GPa) = 98.40158 116.30696 54.35660
#
# Poissons Ratio (x) = 0.14779 0.09995
# Poissons Ratio (y) = 0.12504 0.31941
# Poissons Ratio (z) = 0.18094 0.68343
#
# Static dielectric constant tensor:
#      x y z
#    x 4.099280 0.000000 0.000000 
#    y 0.000000 4.019530 0.000000 
#    z 0.000000 0.000000 3.635720 
# 
# 
# High freq. dielectric constant tensor:
#      x y z
#    x 1.893250 0.000000 0.000000 
#    y 0.000000 1.873060 0.000000 
#    z 0.000000 0.000000 1.834020 
# 
# From -- ./inp_files/51869.got.cif
#   From: 2010.03.12/outbox.cif.g09.slc.cpg/sg74_26_cif.got.tgz:51869.got - 2010.04.16 15:46:19.
