data_PCOD8299022
_publ_section_title
;
Structure prediction by ZEFSAII (Michael W. Deem and Ramdas Pophale) SiO2 
 PCOD8299022
Probable space group: I M M A
;
_chemical_formula_sum "Si O2"
_cell_formula_units_Z 52
_cell_length_a 14.689299
_cell_length_b 15.380656
_cell_length_c 11.068971
_cell_angle_alpha 90.000000
_cell_angle_beta 90.000000
_cell_angle_gamma 90.000000
_cell_volume 2500.824294
_symmetry_space_group_name_H-M "I M M A"
_symmetry_group_IT_number 74
_symmetry_cell_setting 'orthorhombic'
loop_
_space_group_symop_operation_xyz
x,y,z
-x,1/2-y,z
x,-y,-z
-x,1/2+y,-z
-x,-y,-z
x,1/2+y,-z
-x,y,z
x,1/2-y,z
1/2+x,1/2+y,1/2+z
1/2-x,-y,1/2+z
1/2+x,1/2-y,1/2-z
1/2-x,y,1/2-z
1/2-x,1/2-y,1/2-z
1/2+x,y,1/2-z
1/2-x,1/2+y,1/2+z
1/2+x,-y,1/2+z
loop_
_atom_site_type_symbol
_atom_site_label
_atom_site_fract_x
_atom_site_fract_y
_atom_site_fract_z
Si Si1 0.000000 0.908953 0.564988
Si Si2 0.500000 0.750000 0.115661
Si Si3 0.353047 0.649762 0.754924
Si Si4 0.601579 0.250000 0.652374
Si Si5 0.397445 0.594674 0.495003
O O1 0.000000 0.835152 0.464191
O O2 0.909644 0.903764 0.646516
O O3 0.000000 0.000000 0.500000
O O4 0.591094 0.750000 0.201691
O O5 0.355848 0.750000 0.794935
O O6 0.250000 0.614380 0.750000
O O7 0.398229 0.639304 0.625041
O O8 0.500000 0.250000 0.592366
O O9 0.650257 0.161811 0.601179
O O10 0.347195 0.500000 0.500000
O O11 0.500000 0.577306 0.449128
#
# Coordination Sequence:
#
# PCOD8299022 Si02
#       5
#     8   4  16   8  16
#     4  12  26  41  68  94 130 177 213 265 339 398
#     4  10  22  38  56  92 132 160 210 250 330 406
#     4  11  23  41  66  94 127 170 220 273 323 387
#     4   8  18  31  54  86 115 154 192 256 303 376
#     4  10  19  33  62  90 113 151 211 261 309 361
#
# _framework density 20.793144000000002
#
# number of rings (size 3 to 8) (size 9 to 14) (size 15 to 20)
#    0.462    1.231    4.615    0.000    4.308    1.231 
#    0.000    0.000    0.000    1.846    0.000    0.000 
#    0.000    0.000    0.000    0.000    0.000    0.000 
#
# Total GULP energy -322214.911089 kJ/mol
# GULP energy per Si atom -12392.881196 kJ/mol
# Density = 2.074582 g / cm^3
# Si number density = 20.793144 Si / 1000 Ang^3
#
#
#
# Elastic Constant Matrix: (Units=GPa)
#
#
# Indices 1 2 3 4 5 6 
#
# 1 81.5409 42.8678 37.2644 0.0000 0.0000 0.0000
# 2 42.8678 138.5477 49.5714 0.0000 0.0000 0.0000
# 3 37.2644 49.5714 137.4368 0.0000 0.0000 0.0000
# 4 0.0000 0.0000 0.0000 37.5218 0.0000 0.0000
# 5 0.0000 0.0000 0.0000 0.0000 8.0720 0.0000
# 6 0.0000 0.0000 0.0000 0.0000 0.0000 9.2095
#
#
#
# Elastic Compliance Matrix: (Units=1/GPa)
#
#
# Indices 1 2 3 4 5 6 
#
# 1 0.015562 -0.003795 -0.002851 0.000000 0.000000 0.000000
# 2 -0.003795 0.009213 -0.002294 0.000000 0.000000 0.000000
# 3 -0.002851 -0.002294 0.008876 0.000000 0.000000 0.000000
# 4 0.000000 0.000000 0.000000 0.026651 0.000000 0.000000
# 5 0.000000 0.000000 0.000000 0.000000 0.123885 0.000000
# 6 0.000000 0.000000 0.000000 0.000000 0.000000 0.108583
#
#
# Mechanical properties :
#
#
# Convention : Reuss Voigt Hill
#
# Bulk Modulus (GPa) = 63.40459 68.54807 65.97633
# Shear Modulus (GPa) = 15.82751 26.14879 20.98815
#
# Velocity S-wave (km/s) = 2.76196 3.55007 3.18052
# Velocity P-wave (km/s) = 6.38204 7.05990 6.72951
#
# Compressibility (1/GPa) = 0.01577173
#
# Stress axis : x y z
#
# Youngs Moduli (GPa) = 64.26074 108.54617 112.65895
#
# Poissons Ratio (x) = 0.41193 0.32114
# Poissons Ratio (y) = 0.24387 0.25843
# Poissons Ratio (z) = 0.18318 0.24899
#
# Static dielectric constant tensor:
#      x y z
#    x 3.398310 0.000000 0.000000 
#    y 0.000000 3.952240 0.000000 
#    z 0.000000 0.000000 3.619420 
# 
# 
# High freq. dielectric constant tensor:
#      x y z
#    x 1.761670 0.000000 0.000000 
#    y 0.000000 1.827780 0.000000 
#    z 0.000000 0.000000 1.813990 
# 
# From -- ./inp_files/9946.got.cif
#   From: 2010.03.12/outbox.cif.g09.slc.cpg/sg74_5_cif.got.tgz:9946.got - 2010.04.16 15:46:19.
