data_PCOD8299926
_publ_section_title
;
Structure prediction by ZEFSAII (Michael W. Deem and Ramdas Pophale) SiO2 
 PCOD8299926
Probable space group: I M M A
;
_chemical_formula_sum "Si O2"
_cell_formula_units_Z 72
_cell_length_a 8.721230
_cell_length_b 14.416026
_cell_length_c 28.841909
_cell_angle_alpha 90.000000
_cell_angle_beta 90.000000
_cell_angle_gamma 90.000000
_cell_volume 3626.162808
_symmetry_space_group_name_H-M "I M M A"
_symmetry_group_IT_number 74
_symmetry_cell_setting 'orthorhombic'
loop_
_space_group_symop_operation_xyz
x,y,z
-x,1/2-y,z
x,-y,-z
-x,1/2+y,-z
-x,-y,-z
x,1/2+y,-z
-x,y,z
x,1/2-y,z
1/2+x,1/2+y,1/2+z
1/2-x,-y,1/2+z
1/2+x,1/2-y,1/2-z
1/2-x,y,1/2-z
1/2-x,1/2-y,1/2-z
1/2+x,y,1/2-z
1/2-x,1/2+y,1/2+z
1/2+x,-y,1/2+z
loop_
_atom_site_type_symbol
_atom_site_label
_atom_site_fract_x
_atom_site_fract_y
_atom_site_fract_z
Si Si1 0.820867 0.598521 0.615120
Si Si2 0.180516 0.250000 0.944479
Si Si3 0.682263 0.386923 0.875164
Si Si4 0.678466 0.250000 0.447650
Si Si5 0.166502 0.644818 0.793058
Si Si6 0.816693 0.750000 0.198105
O O1 0.764864 0.492698 0.618659
O O2 0.744162 0.654901 0.573360
O O3 0.776052 0.645882 0.662956
O O4 0.000000 0.605146 0.607021
O O5 0.258128 0.160300 0.921938
O O6 0.000000 0.250000 0.934125
O O7 0.218330 0.250000 0.998445
O O8 0.500000 0.376351 0.870363
O O9 0.759155 0.341381 0.829558
O O10 0.500000 0.250000 0.437253
O O11 0.136362 0.750000 0.778228
O O12 0.250000 0.592665 0.750000
O O13 0.000000 0.597565 0.802851
O O14 0.750000 0.750000 0.250000
O O15 0.000000 0.750000 0.200258
#
# Coordination Sequence:
#
# PCOD8299926 Si02
#       6
#    16   8  16   8  16   8
#     4  11  23  38  59  87 119 155 196 242 294 348
#     4  10  22  41  63  87 114 151 194 242 299 353
#     4  10  22  40  62  89 120 154 194 243 295 350
#     4  11  24  40  60  86 118 154 196 243 293 351
#     4  10  20  34  54  79 111 152 192 232 280 334
#     4  11  22  39  65  93 122 159 198 241 291 344
#
# _framework density 19.855699000000001
#
# number of rings (size 3 to 8) (size 9 to 14) (size 15 to 20)
#    0.000    1.556    1.111    5.000    0.000    8.000 
#    0.000    4.444    0.000    0.000    0.000    0.000 
#    0.000    0.000    0.000    0.000    0.000    0.000 
#
# Total GULP energy -446323.923573 kJ/mol
# GULP energy per Si atom -12397.886766 kJ/mol
# Density = 1.981051 g / cm^3
# Si number density = 19.855699 Si / 1000 Ang^3
#
#
#
# Elastic Constant Matrix: (Units=GPa)
#
#
# Indices 1 2 3 4 5 6 
#
# 1 114.7246 61.3058 67.2863 0.0000 0.0000 0.0000
# 2 61.3058 127.1938 63.1063 0.0000 0.0000 0.0000
# 3 67.2863 63.1063 144.7803 0.0000 0.0000 0.0000
# 4 0.0000 0.0000 0.0000 -4.4993 0.0000 0.0000
# 5 0.0000 0.0000 0.0000 0.0000 38.0680 0.0000
# 6 0.0000 0.0000 0.0000 0.0000 0.0000 18.6088
#
#
#
# Elastic Compliance Matrix: (Units=1/GPa)
#
#
# Indices 1 2 3 4 5 6 
#
# 1 0.013662 -0.004382 -0.004439 0.000000 0.000000 0.000000
# 2 -0.004382 0.011437 -0.002948 0.000000 0.000000 0.000000
# 3 -0.004439 -0.002948 0.010255 0.000000 0.000000 0.000000
# 4 0.000000 0.000000 0.000000 -0.222259 0.000000 0.000000
# 5 0.000000 0.000000 0.000000 0.000000 0.026269 0.000000
# 6 0.000000 0.000000 0.000000 0.000000 0.000000 0.053738
#
#
# Mechanical properties :
#
#
# Convention : Reuss Voigt Hill
#
# Bulk Modulus (GPa) = 84.64338 85.56617 85.10478
# Shear Modulus (GPa) = -62.95701 23.43551 -19.76075
#
# Velocity S-wave (km/s) = -5.63703 3.43926 -3.15813
# Velocity P-wave (km/s) = 0.59469 7.67847 5.44576
#
# Compressibility (1/GPa) = 0.01181427
#
# Stress axis : x y z
#
# Youngs Moduli (GPa) = 73.19590 87.43435 97.51071
#
# Poissons Ratio (x) = 0.38317 0.43287
# Poissons Ratio (y) = 0.32078 0.28751
# Poissons Ratio (z) = 0.32493 0.25780
#
# Static dielectric constant tensor:
#      x y z
#    x 3.926610 0.000000 0.000000 
#    y 0.000000 3.783680 0.000000 
#    z 0.000000 0.000000 3.577050 
# 
# 
# High freq. dielectric constant tensor:
#      x y z
#    x 1.796020 0.000000 0.000000 
#    y 0.000000 1.765420 0.000000 
#    z 0.000000 0.000000 1.777010 
# 
# From -- ./inp_files/63705.got.cif
#   From: 2010.03.12/outbox.cif.g09.slc.cpg/sg74_32_cif.got.tgz:63705.got - 2010.04.16 15:46:19.
