data_PCOD8299832
_publ_section_title
;
Structure prediction by ZEFSAII (Michael W. Deem and Ramdas Pophale) SiO2 
 PCOD8299832
Probable space group: I M M A
;
_chemical_formula_sum "Si O2"
_cell_formula_units_Z 96
_cell_length_a 8.832140
_cell_length_b 18.963213
_cell_length_c 30.996751
_cell_angle_alpha 90.000000
_cell_angle_beta 90.000000
_cell_angle_gamma 90.000000
_cell_volume 5191.514153
_symmetry_space_group_name_H-M "I M M A"
_symmetry_group_IT_number 74
_symmetry_cell_setting 'orthorhombic'
loop_
_space_group_symop_operation_xyz
x,y,z
-x,1/2-y,z
x,-y,-z
-x,1/2+y,-z
-x,-y,-z
x,1/2+y,-z
-x,y,z
x,1/2-y,z
1/2+x,1/2+y,1/2+z
1/2-x,-y,1/2+z
1/2+x,1/2-y,1/2-z
1/2-x,y,1/2-z
1/2-x,1/2-y,1/2-z
1/2+x,y,1/2-z
1/2-x,1/2+y,1/2+z
1/2+x,-y,1/2+z
loop_
_atom_site_type_symbol
_atom_site_label
_atom_site_fract_x
_atom_site_fract_y
_atom_site_fract_z
Si Si1 0.668761 0.418773 0.292045
Si Si2 0.820917 0.573842 0.618926
Si Si3 0.174039 0.333303 0.047646
Si Si4 0.818777 0.923729 0.114763
Si Si5 0.165321 0.414471 0.791028
Si Si6 0.174151 0.333145 0.541053
O O1 0.500000 0.386537 0.296619
O O2 0.750000 0.385393 0.250000
O O3 0.765022 0.400281 0.334340
O O4 0.656437 0.501975 0.285842
O O5 0.773071 0.633060 0.585184
O O6 0.746213 0.500598 0.604159
O O7 0.000000 0.564812 0.619803
O O8 0.188391 0.250000 0.052495
O O9 0.000000 0.358220 0.050411
O O10 0.242910 0.358633 0.002230
O O11 0.760156 0.898272 0.162226
O O12 0.759427 0.867768 0.080913
O O13 0.000000 0.928703 0.114282
O O14 0.250000 0.380544 0.750000
O O15 0.000000 0.380259 0.789846
O O16 0.187914 0.250000 0.546987
O O17 0.000000 0.357673 0.539455
#
# Coordination Sequence:
#
# PCOD8299832 Si02
#       6
#    16  16  16  16  16  16
#     4   9  16  28  46  71 103 137 173 210 252 302
#     4  11  21  33  52  79 109 138 171 214 261 304
#     4  10  21  38  58  77 100 134 173 211 255 310
#     4  10  20  34  52  77 107 137 173 214 256 304
#     4   8  15  26  43  68  98 131 165 204 246 292
#     4  10  21  37  56  78 103 132 169 212 259 313
#
# _framework density 18.491714000000002
#
# number of rings (size 3 to 8) (size 9 to 14) (size 15 to 20)
#    0.000    2.333    0.000    4.500    0.000    7.333 
#    0.000    3.333    0.000    1.000    0.000    0.000 
#    0.000    0.000    0.000    0.000    0.000    0.000 
#
# Total GULP energy -595109.343224 kJ/mol
# GULP energy per Si atom -12398.111317 kJ/mol
# Density = 1.844963 g / cm^3
# Si number density = 18.491714 Si / 1000 Ang^3
#
#
#
# Elastic Constant Matrix: (Units=GPa)
#
#
# Indices 1 2 3 4 5 6 
#
# 1 129.6683 26.7775 61.0621 0.0000 0.0000 0.0000
# 2 26.7775 22.1055 35.5480 0.0000 0.0000 0.0000
# 3 61.0621 35.5480 151.3551 0.0000 0.0000 0.0000
# 4 0.0000 0.0000 0.0000 -9.1680 0.0000 0.0000
# 5 0.0000 0.0000 0.0000 0.0000 38.9349 0.0000
# 6 0.0000 0.0000 0.0000 0.0000 0.0000 23.8112
#
#
#
# Elastic Compliance Matrix: (Units=1/GPa)
#
#
# Indices 1 2 3 4 5 6 
#
# 1 0.010662 -0.009639 -0.002038 0.000000 0.000000 0.000000
# 2 -0.009639 0.081406 -0.015231 0.000000 0.000000 0.000000
# 3 -0.002038 -0.015231 0.011006 0.000000 0.000000 0.000000
# 4 0.000000 0.000000 0.000000 -0.109074 0.000000 0.000000
# 5 0.000000 0.000000 0.000000 0.000000 0.025684 0.000000
# 6 0.000000 0.000000 0.000000 0.000000 0.000000 0.041997
#
#
# Mechanical properties :
#
#
# Convention : Reuss Voigt Hill
#
# Bulk Modulus (GPa) = 20.30044 61.10044 40.70044
# Shear Modulus (GPa) = 37.90320 22.69837 30.30079
#
# Velocity S-wave (km/s) = 4.53232 3.50735 4.05237
# Velocity P-wave (km/s) = 6.19606 7.03675 6.62974
#
# Compressibility (1/GPa) = 0.04926002
#
# Stress axis : x y z
#
# Youngs Moduli (GPa) = 93.79118 12.28410 90.85763
#
# Poissons Ratio (x) = 0.11840 0.18514
# Poissons Ratio (y) = 0.90402 1.38384
# Poissons Ratio (z) = 0.19111 0.18710
#
# Static dielectric constant tensor:
#      x y z
#    x 3.674060 0.000000 0.000000 
#    y 0.000000 2.922970 0.000000 
#    z 0.000000 0.000000 3.680600 
# 
# 
# High freq. dielectric constant tensor:
#      x y z
#    x 1.732810 0.000000 0.000000 
#    y 0.000000 1.666470 0.000000 
#    z 0.000000 0.000000 1.736730 
# 
# From -- ./inp_files/64321.got.cif
#   From: 2010.03.12/outbox.cif.g09.slc.cpg/sg74_33_cif.got.tgz:64321.got - 2010.04.16 15:46:19.
