data_PCOD8299599
_publ_section_title
;
Structure prediction by ZEFSAII (Michael W. Deem and Ramdas Pophale) SiO2 
 PCOD8299599
Probable space group: I M M A
;
_chemical_formula_sum "Si O2"
_cell_formula_units_Z 80
_cell_length_a 8.964452
_cell_length_b 28.071832
_cell_length_c 20.407652
_cell_angle_alpha 90.000000
_cell_angle_beta 90.000000
_cell_angle_gamma 90.000000
_cell_volume 5135.556862
_symmetry_space_group_name_H-M "I M M A"
_symmetry_group_IT_number 74
_symmetry_cell_setting 'orthorhombic'
loop_
_space_group_symop_operation_xyz
x,y,z
-x,1/2-y,z
x,-y,-z
-x,1/2+y,-z
-x,-y,-z
x,1/2+y,-z
-x,y,z
x,1/2-y,z
1/2+x,1/2+y,1/2+z
1/2-x,-y,1/2+z
1/2+x,1/2-y,1/2-z
1/2-x,y,1/2-z
1/2-x,1/2-y,1/2-z
1/2+x,y,1/2-z
1/2-x,1/2+y,1/2+z
1/2+x,-y,1/2+z
loop_
_atom_site_type_symbol
_atom_site_label
_atom_site_fract_x
_atom_site_fract_y
_atom_site_fract_z
Si Si1 0.176523 0.804053 0.183670
Si Si2 0.824819 0.695155 0.682943
Si Si3 0.668760 0.370789 0.568345
Si Si4 0.675819 0.945595 0.995180
Si Si5 0.168775 0.367877 0.075525
O O1 0.229391 0.750000 0.170710
O O2 0.250000 0.823963 0.250000
O O3 0.235347 0.835927 0.123402
O O4 0.000000 0.806974 0.190423
O O5 0.782597 0.750000 0.669569
O O6 0.750000 0.677260 0.750000
O O7 0.764355 0.664436 0.623284
O O8 0.000000 0.687629 0.689197
O O9 0.500000 0.386074 0.586466
O O10 0.770567 0.418429 0.561820
O O11 0.669753 0.343972 0.497356
O O12 0.500000 0.941033 0.986688
O O13 0.755940 0.920501 0.932322
O O14 0.727932 0.000000 0.000000
O O15 0.000000 0.373143 0.102173
#
# Coordination Sequence:
#
# PCOD8299599 Si02
#       5
#    16  16  16  16  16
#     4   9  17  30  46  66  94 127 159 188 223 269
#     4  10  20  33  49  70  98 131 163 194 230 277
#     4   8  17  30  46  69  94 124 156 192 235 278
#     4   9  17  30  49  71  94 120 152 195 243 286
#     4   9  18  31  49  72  95 124 157 195 239 280
#
# _framework density 15.577669
#
# number of rings (size 3 to 8) (size 9 to 14) (size 15 to 20)
#    1.200    1.800    0.000    1.200    0.000    4.400 
#    0.000    2.000    0.000    1.200    0.000    2.800 
#    0.000    0.000    0.000    0.000    0.000    0.000 
#
# Total GULP energy -495602.200708 kJ/mol
# GULP energy per Si atom -12390.055018 kJ/mol
# Density = 1.554221 g / cm^3
# Si number density = 15.577669 Si / 1000 Ang^3
#
#
#
# Elastic Constant Matrix: (Units=GPa)
#
#
# Indices 1 2 3 4 5 6 
#
# 1 62.1524 40.8063 33.9069 0.0000 0.0000 0.0000
# 2 40.8063 97.8847 61.2003 0.0000 0.0000 0.0000
# 3 33.9069 61.2003 92.1823 0.0005 -0.0001 0.0000
# 4 0.0000 0.0000 0.0005 2.9117 0.0001 0.0000
# 5 0.0000 0.0000 -0.0001 0.0001 27.8084 0.0000
# 6 0.0000 0.0000 0.0000 0.0000 0.0000 21.3480
#
#
#
# Elastic Compliance Matrix: (Units=1/GPa)
#
#
# Indices 1 2 3 4 5 6 
#
# 1 0.022813 -0.007290 -0.003551 0.000000 0.000000 0.000000
# 2 -0.007290 0.019796 -0.010461 0.000002 0.000000 0.000000
# 3 -0.003551 -0.010461 0.019099 -0.000003 0.000000 0.000000
# 4 0.000000 0.000002 -0.000003 0.343444 -0.000001 0.000000
# 5 0.000000 0.000000 0.000000 -0.000001 0.035960 0.000000
# 6 0.000000 0.000000 0.000000 0.000000 0.000000 0.046843
#
#
# Mechanical properties :
#
#
# Convention : Reuss Voigt Hill
#
# Bulk Modulus (GPa) = 52.34622 58.22738 55.28680
# Shear Modulus (GPa) = 9.31222 18.16732 13.73977
#
# Velocity S-wave (km/s) = 2.44763 3.41873 2.97310
# Velocity P-wave (km/s) = 6.45478 7.28310 6.88141
#
# Compressibility (1/GPa) = 0.01910357
#
# Stress axis : x y z
#
# Youngs Moduli (GPa) = 43.83429 50.51608 52.35740
#
# Poissons Ratio (x) = 0.36826 0.18594
# Poissons Ratio (y) = 0.31955 0.54771
# Poissons Ratio (z) = 0.15567 0.52845
#
# Static dielectric constant tensor:
#      x y z
#    x 2.971690 0.000000 0.000000 
#    y 0.000000 2.853110 0.000000 
#    z 0.000000 0.000000 2.876370 
# 
# 
# High freq. dielectric constant tensor:
#      x y z
#    x 1.608050 0.000000 0.000000 
#    y 0.000000 1.576640 0.000000 
#    z 0.000000 0.000000 1.582260 
# 
# From -- ./inp_files/49399.got.cif
#   From: 2010.03.12/outbox.cif.g09.slc.cpg/sg74_25_cif.got.tgz:49399.got - 2010.04.16 15:46:19.
