data_PCOD8299719
_publ_section_title
;
Structure prediction by ZEFSAII (Michael W. Deem and Ramdas Pophale) SiO2 
 PCOD8299719
Probable space group: I M M A
;
_chemical_formula_sum "Si O2"
_cell_formula_units_Z 96
_cell_length_a 18.287401
_cell_length_b 10.825505
_cell_length_c 25.259351
_cell_angle_alpha 90.000000
_cell_angle_beta 90.000000
_cell_angle_gamma 90.000000
_cell_volume 5000.602583
_symmetry_space_group_name_H-M "I M M A"
_symmetry_group_IT_number 74
_symmetry_cell_setting 'orthorhombic'
loop_
_space_group_symop_operation_xyz
x,y,z
-x,1/2-y,z
x,-y,-z
-x,1/2+y,-z
-x,-y,-z
x,1/2+y,-z
-x,y,z
x,1/2-y,z
1/2+x,1/2+y,1/2+z
1/2-x,-y,1/2+z
1/2+x,1/2-y,1/2-z
1/2-x,y,1/2-z
1/2-x,1/2-y,1/2-z
1/2+x,y,1/2-z
1/2-x,1/2+y,1/2+z
1/2+x,-y,1/2+z
loop_
_atom_site_type_symbol
_atom_site_label
_atom_site_fract_x
_atom_site_fract_y
_atom_site_fract_z
Si Si1 0.914880 0.250000 0.815472
Si Si2 0.704582 0.979467 0.149946
Si Si3 0.915046 0.536972 0.108535
Si Si4 0.218275 0.399176 0.955807
Si Si5 0.418702 0.605074 0.799657
Si Si6 0.823064 0.250000 0.717017
Si Si7 0.653584 0.392481 0.308992
O O1 0.885338 0.368626 0.846690
O O2 0.892136 0.250000 0.755290
O O3 0.000000 0.250000 0.819753
O O4 0.728353 0.934709 0.092134
O O5 0.670331 0.865782 0.179968
O O6 0.635560 0.073891 0.151091
O O7 0.770546 0.036954 0.183233
O O8 0.866532 0.567706 0.057108
O O9 0.897133 0.407399 0.137765
O O10 0.000000 0.548556 0.092470
O O11 0.225309 0.250000 0.970507
O O12 0.241663 0.500000 0.000000
O O13 0.500000 0.547777 0.808293
O O14 0.426330 0.750000 0.795360
O O15 0.386473 0.554883 0.743435
O O16 0.750000 0.250000 0.750000
O O17 0.672601 0.250000 0.302256
#
# Coordination Sequence:
#
# PCOD8299719 Si02
#       7
#     8  16  16  16  16   8  16
#     4  10  20  34  56  86 122 158 184 214 282 362
#     4  11  22  37  57  81 116 152 199 245 301 353
#     4  10  20  36  58  84 120 158 193 235 291 353
#     4  11  24  43  63  85 113 153 206 266 319 361
#     4  10  20  34  54  84 123 160 192 232 286 357
#     4  12  20  30  54  84 114 150 188 230 282 350
#     4  10  20  33  52  82 122 164 199 231 277 354
#
# _framework density 19.197686000000001
#
# number of rings (size 3 to 8) (size 9 to 14) (size 15 to 20)
#    0.000    1.500    1.667    5.500    0.000    8.000 
#    0.000    0.000    0.000    0.500    0.000    0.000 
#    0.000    0.000    0.000    0.000    0.000    0.000 
#
# Total GULP energy -594798.789273 kJ/mol
# GULP energy per Si atom -12391.641443 kJ/mol
# Density = 1.915399 g / cm^3
# Si number density = 19.197686 Si / 1000 Ang^3
#
#
#
# Elastic Constant Matrix: (Units=GPa)
#
#
# Indices 1 2 3 4 5 6 
#
# 1 100.2296 23.3965 27.5648 0.0000 0.0000 0.0000
# 2 23.3965 73.3281 34.3445 0.0000 0.0000 0.0000
# 3 27.5648 34.3445 77.9930 0.0000 0.0000 0.0000
# 4 0.0000 0.0000 0.0000 19.4678 0.0000 0.0000
# 5 0.0000 0.0000 0.0000 0.0000 23.6752 0.0000
# 6 0.0000 0.0000 0.0000 0.0000 0.0000 23.0061
#
#
#
# Elastic Compliance Matrix: (Units=1/GPa)
#
#
# Indices 1 2 3 4 5 6 
#
# 1 0.011324 -0.002190 -0.003038 0.000000 0.000000 0.000000
# 2 -0.002190 0.017605 -0.006978 0.000000 0.000000 0.000000
# 3 -0.003038 -0.006978 0.016968 0.000000 0.000000 0.000000
# 4 0.000000 0.000000 0.000000 0.051367 0.000000 0.000000
# 5 0.000000 0.000000 0.000000 0.000000 0.042238 0.000000
# 6 0.000000 0.000000 0.000000 0.000000 0.000000 0.043467
#
#
# Mechanical properties :
#
#
# Convention : Reuss Voigt Hill
#
# Bulk Modulus (GPa) = 46.54558 46.90691 46.72624
# Shear Modulus (GPa) = 23.30551 24.31283 23.80917
#
# Velocity S-wave (km/s) = 3.48799 3.56258 3.52548
# Velocity P-wave (km/s) = 6.36549 6.43500 6.40034
#
# Compressibility (1/GPa) = 0.02148432
#
# Stress axis : x y z
#
# Youngs Moduli (GPa) = 88.30989 56.80365 58.93431
#
# Poissons Ratio (x) = 0.12442 0.17902
# Poissons Ratio (y) = 0.19343 0.41125
# Poissons Ratio (z) = 0.26825 0.39638
#
# Static dielectric constant tensor:
#      x y z
#    x 3.482900 0.000000 0.000000 
#    y 0.000000 2.398420 0.000000 
#    z 0.000000 0.000000 3.219260 
# 
# 
# High freq. dielectric constant tensor:
#      x y z
#    x 1.743250 0.000000 0.000000 
#    y 0.000000 1.762190 0.000000 
#    z 0.000000 0.000000 1.711860 
# 
# From -- ./inp_files/60820.got.cif
#   From: 2010.03.12/outbox.cif.g09.slc.cpg/sg74_31_cif.got.tgz:60820.got - 2010.04.16 15:46:19.
