data_PCOD8299235
_publ_section_title
;
Structure prediction by ZEFSAII (Michael W. Deem and Ramdas Pophale) SiO2 
 PCOD8299235
Probable space group: I M M A
;
_chemical_formula_sum "Si O2"
_cell_formula_units_Z 88
_cell_length_a 24.551284
_cell_length_b 18.926915
_cell_length_c 9.850546
_cell_angle_alpha 90.000000
_cell_angle_beta 90.000000
_cell_angle_gamma 90.000000
_cell_volume 4577.352360
_symmetry_space_group_name_H-M "I M M A"
_symmetry_group_IT_number 74
_symmetry_cell_setting 'orthorhombic'
loop_
_space_group_symop_operation_xyz
x,y,z
-x,1/2-y,z
x,-y,-z
-x,1/2+y,-z
-x,-y,-z
x,1/2+y,-z
-x,y,z
x,1/2-y,z
1/2+x,1/2+y,1/2+z
1/2-x,-y,1/2+z
1/2+x,1/2-y,1/2-z
1/2-x,y,1/2-z
1/2-x,1/2-y,1/2-z
1/2+x,y,1/2-z
1/2-x,1/2+y,1/2+z
1/2+x,-y,1/2+z
loop_
_atom_site_type_symbol
_atom_site_label
_atom_site_fract_x
_atom_site_fract_y
_atom_site_fract_z
Si Si1 0.750000 0.068373 0.750000
Si Si2 0.061684 0.031672 0.147306
Si Si3 0.843565 0.171509 0.483486
Si Si4 0.641015 0.462269 0.861469
Si Si5 0.219175 0.670908 0.022272
Si Si6 0.376864 0.168238 0.317870
O O1 0.704031 0.019921 0.821218
O O2 0.785143 0.116745 0.853092
O O3 0.075985 0.114793 0.136298
O O4 0.000000 0.024338 0.199899
O O5 0.099943 0.986421 0.246053
O O6 0.069183 0.000000 0.000000
O O7 0.861966 0.250000 0.525344
O O8 0.863788 0.121545 0.606251
O O9 0.779109 0.166789 0.459633
O O10 0.868332 0.149500 0.339549
O O11 0.625874 0.500000 0.000000
O O12 0.206852 0.750000 0.076897
O O13 0.177183 0.650602 0.903688
O O14 0.394707 0.250000 0.337583
#
# Coordination Sequence:
#
# PCOD8299235 Si02
#       6
#     8  16  16  16  16  16
#     4  10  21  32  52  84 125 158 194 244 286 358
#     4  11  25  44  63  84 116 156 200 251 306 358
#     4   9  18  34  56  87 122 153 194 242 290 352
#     4  11  22  39  58  88 118 158 199 238 297 353
#     4   9  17  30  52  82 119 160 192 231 294 354
#     4  10  19  35  60  87 114 153 199 245 294 354
#
# _framework density 19.225086999999998
#
# number of rings (size 3 to 8) (size 9 to 14) (size 15 to 20)
#    0.000    2.000    1.818    1.909    0.000    7.273 
#    0.000    0.909    0.000    1.636    0.000    0.000 
#    0.000    0.000    0.000    0.000    0.000    0.000 
#
# Total GULP energy -545484.378432 kJ/mol
# GULP energy per Si atom -12397.372237 kJ/mol
# Density = 1.918133 g / cm^3
# Si number density = 19.225087 Si / 1000 Ang^3
#
#
#
# Elastic Constant Matrix: (Units=GPa)
#
#
# Indices 1 2 3 4 5 6 
#
# 1 104.1904 58.2497 52.5122 0.0000 0.0000 0.0000
# 2 58.2497 86.1194 47.3744 0.0000 0.0000 0.0000
# 3 52.5122 47.3744 76.5163 0.0000 0.0000 0.0000
# 4 0.0000 0.0000 0.0000 28.0225 0.0000 0.0000
# 5 0.0000 0.0000 0.0000 0.0000 25.7294 0.0000
# 6 0.0000 0.0000 0.0000 0.0000 0.0000 7.8208
#
#
#
# Elastic Compliance Matrix: (Units=1/GPa)
#
#
# Indices 1 2 3 4 5 6 
#
# 1 0.017703 -0.008023 -0.007182 0.000000 0.000000 0.000000
# 2 -0.008023 0.021246 -0.007648 0.000000 0.000000 0.000000
# 3 -0.007182 -0.007648 0.022733 0.000000 0.000000 0.000000
# 4 0.000000 0.000000 0.000000 0.035686 0.000000 0.000000
# 5 0.000000 0.000000 0.000000 0.000000 0.038866 0.000000
# 6 0.000000 0.000000 0.000000 0.000000 0.000000 0.127863
#
#
# Mechanical properties :
#
#
# Convention : Reuss Voigt Hill
#
# Bulk Modulus (GPa) = 62.59445 64.78877 63.69161
# Shear Modulus (GPa) = 15.86657 19.56053 17.71355
#
# Velocity S-wave (km/s) = 2.87593 3.19321 3.03871
# Velocity P-wave (km/s) = 6.60737 6.88249 6.74634
#
# Compressibility (1/GPa) = 0.01597586
#
# Stress axis : x y z
#
# Youngs Moduli (GPa) = 56.48735 47.06836 43.98901
#
# Poissons Ratio (x) = 0.37765 0.31592
# Poissons Ratio (y) = 0.45322 0.33642
# Poissons Ratio (z) = 0.40568 0.35997
#
# Static dielectric constant tensor:
#      x y z
#    x 3.272240 0.000000 0.000000 
#    y 0.000000 3.842440 0.000000 
#    z 0.000000 0.000000 3.553090 
# 
# 
# High freq. dielectric constant tensor:
#      x y z
#    x 1.714030 0.000000 0.000000 
#    y 0.000000 1.759200 0.000000 
#    z 0.000000 0.000000 1.754830 
# 
# From -- ./inp_files/12471.got.cif
#   From: 2010.03.12/outbox.cif.g09.slc.cpg/sg74_7_cif.got.tgz:12471.got - 2010.04.16 15:46:19.
