data_PCOD8299747
_publ_section_title
;
Structure prediction by ZEFSAII (Michael W. Deem and Ramdas Pophale) SiO2 
 PCOD8299747
Probable space group: I M M A
;
_chemical_formula_sum "Si O2"
_cell_formula_units_Z 72
_cell_length_a 8.930229
_cell_length_b 16.321493
_cell_length_c 25.003751
_cell_angle_alpha 90.000000
_cell_angle_beta 90.000000
_cell_angle_gamma 90.000000
_cell_volume 3644.413479
_symmetry_space_group_name_H-M "I M M A"
_symmetry_group_IT_number 74
_symmetry_cell_setting 'orthorhombic'
loop_
_space_group_symop_operation_xyz
x,y,z
-x,1/2-y,z
x,-y,-z
-x,1/2+y,-z
-x,-y,-z
x,1/2+y,-z
-x,y,z
x,1/2-y,z
1/2+x,1/2+y,1/2+z
1/2-x,-y,1/2+z
1/2+x,1/2-y,1/2-z
1/2-x,y,1/2-z
1/2-x,1/2-y,1/2-z
1/2+x,y,1/2-z
1/2-x,1/2+y,1/2+z
1/2+x,-y,1/2+z
loop_
_atom_site_type_symbol
_atom_site_label
_atom_site_fract_x
_atom_site_fract_y
_atom_site_fract_z
Si Si1 0.824202 0.931639 0.895465
Si Si2 0.824252 0.341445 0.002014
Si Si3 0.166032 0.653189 0.698725
Si Si4 0.820646 0.750000 0.308782
Si Si5 0.822714 0.619038 0.115153
O O1 0.763021 0.907456 0.954803
O O2 0.751720 0.869158 0.854688
O O3 0.000000 0.916420 0.894369
O O4 0.783854 0.023531 0.878592
O O5 0.783402 0.250000 0.021817
O O6 0.000000 0.354137 0.995918
O O7 0.757886 0.355321 0.942874
O O8 0.159313 0.750000 0.703464
O O9 0.250000 0.615191 0.750000
O O10 0.000000 0.615348 0.697403
O O11 0.750000 0.750000 0.250000
O O12 0.765116 0.668898 0.339630
O O13 0.000000 0.750000 0.304841
O O14 0.000000 0.636619 0.120863
#
# Coordination Sequence:
#
# PCOD8299747 Si02
#       5
#    16  16  16   8  16
#     4  10  20  33  57  91 120 151 193 238 288 348
#     4   9  16  30  57  89 121 155 191 232 280 338
#     4  10  21  37  56  78 110 152 193 238 289 343
#     4  12  26  44  66  88 112 152 203 250 303 358
#     4  10  20  38  61  87 120 153 190 241 294 345
#
# _framework density 19.756266
#
# number of rings (size 3 to 8) (size 9 to 14) (size 15 to 20)
#    0.000    2.000    1.111    3.000    0.000    6.667 
#    0.000    1.111    0.000    2.667    0.000    0.000 
#    0.000    0.000    0.000    0.000    0.000    0.000 
#
# Total GULP energy -446327.988114 kJ/mol
# GULP energy per Si atom -12397.999670 kJ/mol
# Density = 1.971130 g / cm^3
# Si number density = 19.756266 Si / 1000 Ang^3
#
#
#
# Elastic Constant Matrix: (Units=GPa)
#
#
# Indices 1 2 3 4 5 6 
#
# 1 60.7158 42.4425 51.9121 0.0000 0.0000 0.0000
# 2 42.4425 57.2644 48.5101 0.0000 0.0000 0.0000
# 3 51.9121 48.5101 165.0531 0.0000 0.0000 0.0000
# 4 0.0000 0.0000 0.0000 8.8859 0.0000 0.0000
# 5 0.0000 0.0000 0.0000 0.0000 24.7343 0.0000
# 6 0.0000 0.0000 0.0000 0.0000 0.0000 23.7010
#
#
#
# Elastic Compliance Matrix: (Units=1/GPa)
#
#
# Indices 1 2 3 4 5 6 
#
# 1 0.036759 -0.023236 -0.004732 0.000000 0.000000 0.000000
# 2 -0.023236 0.037940 -0.003843 0.000000 0.000000 0.000000
# 3 -0.004732 -0.003843 0.008676 0.000000 0.000000 0.000000
# 4 0.000000 0.000000 0.000000 0.112538 0.000000 0.000000
# 5 0.000000 0.000000 0.000000 0.000000 0.040430 0.000000
# 6 0.000000 0.000000 0.000000 0.000000 0.000000 0.042192
#
#
# Mechanical properties :
#
#
# Convention : Reuss Voigt Hill
#
# Bulk Modulus (GPa) = 50.62328 63.19586 56.90957
# Shear Modulus (GPa) = 14.33731 20.80881 17.57306
#
# Velocity S-wave (km/s) = 2.69682 3.24894 2.98567
# Velocity P-wave (km/s) = 5.94783 6.79201 6.38389
#
# Compressibility (1/GPa) = 0.01975376
#
# Stress axis : x y z
#
# Youngs Moduli (GPa) = 27.20435 26.35769 115.25537
#
# Poissons Ratio (x) = 0.61244 0.54541
# Poissons Ratio (y) = 0.63211 0.44288
# Poissons Ratio (z) = 0.12874 0.10128
#
# Static dielectric constant tensor:
#      x y z
#    x 3.391900 0.000000 0.000000 
#    y 0.000000 3.584700 0.000000 
#    z 0.000000 0.000000 3.781500 
# 
# 
# High freq. dielectric constant tensor:
#      x y z
#    x 1.736450 0.000000 0.000000 
#    y 0.000000 1.771370 0.000000 
#    z 0.000000 0.000000 1.784060 
# 
# From -- ./inp_files/56661.got.cif
#   From: 2010.03.12/outbox.cif.g09.slc.cpg/sg74_29_cif.got.tgz:56661.got - 2010.04.16 15:46:19.
