data_PCOD8299165
_publ_section_title
;
Structure prediction by ZEFSAII (Michael W. Deem and Ramdas Pophale) SiO2 
 PCOD8299165
Probable space group: I M M A
;
_chemical_formula_sum "Si O2"
_cell_formula_units_Z 80
_cell_length_a 11.504918
_cell_length_b 19.598110
_cell_length_c 17.815264
_cell_angle_alpha 90.000000
_cell_angle_beta 90.000000
_cell_angle_gamma 90.000000
_cell_volume 4016.890388
_symmetry_space_group_name_H-M "I M M A"
_symmetry_group_IT_number 74
_symmetry_cell_setting 'orthorhombic'
loop_
_space_group_symop_operation_xyz
x,y,z
-x,1/2-y,z
x,-y,-z
-x,1/2+y,-z
-x,-y,-z
x,1/2+y,-z
-x,y,z
x,1/2-y,z
1/2+x,1/2+y,1/2+z
1/2-x,-y,1/2+z
1/2+x,1/2-y,1/2-z
1/2-x,y,1/2-z
1/2-x,1/2-y,1/2-z
1/2+x,y,1/2-z
1/2-x,1/2+y,1/2+z
1/2+x,-y,1/2+z
loop_
_atom_site_type_symbol
_atom_site_label
_atom_site_fract_x
_atom_site_fract_y
_atom_site_fract_z
Si Si1 0.765389 0.327902 0.831021
Si Si2 0.000000 0.877413 0.112552
Si Si3 0.000000 0.128540 0.064569
Si Si4 0.758485 0.827257 0.887636
Si Si5 0.628832 0.168516 0.967913
Si Si6 0.750000 0.425202 0.250000
Si Si7 0.500000 0.979510 0.692379
O O1 0.725545 0.250000 0.821488
O O2 0.750000 0.364815 0.750000
O O3 0.682858 0.364111 0.892362
O O4 0.893091 0.330643 0.864372
O O5 0.000000 0.943098 0.165639
O O6 0.000000 0.892303 0.023353
O O7 0.892041 0.174879 0.088153
O O8 0.000000 0.060837 0.114412
O O9 0.718946 0.750000 0.867482
O O10 0.726461 0.876519 0.819996
O O11 0.691102 0.859081 0.958255
O O12 0.500000 0.140918 0.971670
O O13 0.639048 0.250000 0.965693
O O14 0.625091 0.465795 0.263272
#
# Coordination Sequence:
#
# PCOD8299165 Si02
#       7
#    16   8   8  16  16   8   8
#     4  10  22  36  55  86 117 147 185 241 304 364
#     4  12  22  38  65  82 111 156 204 243 302 353
#     4  10  20  38  59  89 118 152 196 258 297 358
#     4  10  19  34  60  90 121 155 195 242 315 376
#     4   9  18  32  51  79 118 155 184 224 290 373
#     4  10  23  42  58  86 121 160 204 266 296 348
#     4  10  25  42  62  81 119 160 216 251 294 343
#
# _framework density 19.915903
#
# number of rings (size 3 to 8) (size 9 to 14) (size 15 to 20)
#    0.000    2.000    2.000    1.200    4.200    0.800 
#    0.000    1.000    0.000    0.000    0.000    7.000 
#    0.000    0.000    0.000    0.000    0.000    0.000 
#
# Total GULP energy -495547.291366 kJ/mol
# GULP energy per Si atom -12388.682284 kJ/mol
# Density = 1.987057 g / cm^3
# Si number density = 19.915903 Si / 1000 Ang^3
#
#
#
# Elastic Constant Matrix: (Units=GPa)
#
#
# Indices 1 2 3 4 5 6 
#
# 1 118.7841 -6.9374 55.4379 0.0000 0.0000 0.0000
# 2 -6.9374 34.2819 17.2723 0.0000 0.0000 0.0000
# 3 55.4379 17.2723 167.6457 0.0000 0.0000 0.0000
# 4 0.0000 0.0000 0.0000 7.9794 0.0000 0.0000
# 5 0.0000 0.0000 0.0000 0.0000 34.4912 0.0000
# 6 0.0000 0.0000 0.0000 0.0000 0.0000 9.6806
#
#
#
# Elastic Compliance Matrix: (Units=1/GPa)
#
#
# Indices 1 2 3 4 5 6 
#
# 1 0.010468 0.004074 -0.003881 0.000000 0.000000 0.000000
# 2 0.004074 0.032352 -0.004680 0.000000 0.000000 0.000000
# 3 -0.003881 -0.004680 0.007731 0.000000 0.000000 0.000000
# 4 0.000000 0.000000 0.000000 0.125323 0.000000 0.000000
# 5 0.000000 0.000000 0.000000 0.000000 0.028993 0.000000
# 6 0.000000 0.000000 0.000000 0.000000 0.000000 0.103299
#
#
# Mechanical properties :
#
#
# Convention : Reuss Voigt Hill
#
# Bulk Modulus (GPa) = 24.05267 50.25082 37.15174
# Shear Modulus (GPa) = 15.10572 27.42616 21.26594
#
# Velocity S-wave (km/s) = 2.75703 3.71495 3.27125
# Velocity P-wave (km/s) = 4.71575 6.60965 5.74133
#
# Compressibility (1/GPa) = 0.04157543
#
# Stress axis : x y z
#
# Youngs Moduli (GPa) = 95.52889 30.90957 129.35476
#
# Poissons Ratio (x) = -0.12592 0.50207
# Poissons Ratio (y) = -0.38917 0.60543
# Poissons Ratio (z) = 0.37078 0.14467
#
# Static dielectric constant tensor:
#      x y z
#    x 5.111280 0.000000 0.000000 
#    y 0.000000 3.123980 0.000000 
#    z 0.000000 0.000000 3.962380 
# 
# 
# High freq. dielectric constant tensor:
#      x y z
#    x 1.788490 0.000000 0.000000 
#    y 0.000000 1.733790 0.000000 
#    z 0.000000 0.000000 1.797240 
# 
# From -- ./inp_files/30763.got.cif
#   From: 2010.03.12/outbox.cif.g09.slc.cpg/sg74_16_cif.got.tgz:30763.got - 2010.04.16 15:46:19.
