data_PCOD8299378
_publ_section_title
;
Structure prediction by ZEFSAII (Michael W. Deem and Ramdas Pophale) SiO2 
 PCOD8299378
Probable space group: I M M A
;
_chemical_formula_sum "Si O2"
_cell_formula_units_Z 112
_cell_length_a 28.345023
_cell_length_b 14.340584
_cell_length_c 14.735952
_cell_angle_alpha 90.000000
_cell_angle_beta 90.000000
_cell_angle_gamma 90.000000
_cell_volume 5989.931414
_symmetry_space_group_name_H-M "I M M A"
_symmetry_group_IT_number 74
_symmetry_cell_setting 'orthorhombic'
loop_
_space_group_symop_operation_xyz
x,y,z
-x,1/2-y,z
x,-y,-z
-x,1/2+y,-z
-x,-y,-z
x,1/2+y,-z
-x,y,z
x,1/2-y,z
1/2+x,1/2+y,1/2+z
1/2-x,-y,1/2+z
1/2+x,1/2-y,1/2-z
1/2-x,y,1/2-z
1/2-x,1/2-y,1/2-z
1/2+x,y,1/2-z
1/2-x,1/2+y,1/2+z
1/2+x,-y,1/2+z
loop_
_atom_site_type_symbol
_atom_site_label
_atom_site_fract_x
_atom_site_fract_y
_atom_site_fract_z
Si Si1 0.650422 0.143527 0.408630
Si Si2 0.050704 0.646589 0.182211
Si Si3 0.805392 0.524431 0.402676
Si Si4 0.646081 0.139844 0.755474
Si Si5 0.709287 0.860765 0.417470
Si Si6 0.196432 0.353200 0.271851
Si Si7 0.948161 0.607871 0.981020
O O1 0.665413 0.250000 0.402444
O O2 0.676536 0.104141 0.498594
O O3 0.669390 0.099157 0.314570
O O4 0.593694 0.133135 0.412027
O O5 0.046288 0.750000 0.222672
O O6 0.094653 0.595978 0.230521
O O7 0.061803 0.658826 0.075703
O O8 0.000000 0.593705 0.196998
O O9 0.827501 0.500000 0.500000
O O10 0.838875 0.595467 0.349937
O O11 0.755252 0.574972 0.416094
O O12 0.804618 0.425010 0.353903
O O13 0.642453 0.250000 0.767819
O O14 0.682634 0.116368 0.675831
O O15 0.721620 0.750000 0.423755
O O16 0.175064 0.250000 0.297755
O O17 0.250000 0.336257 0.250000
O O18 0.000000 0.637630 0.942029
O O19 0.947581 0.500000 0.000000
#
# Coordination Sequence:
#
# PCOD8299378 Si02
#       7
#    16  16  16  16  16  16  16
#     4  10  20  35  56  79 109 150 180 213 265 322
#     4   9  17  32  54  80 111 142 171 210 265 329
#     4  12  25  37  53  75 102 144 187 231 280 312
#     4  10  20  35  56  84 111 138 175 222 273 324
#     4  10  20  35  55  83 113 140 175 218 271 331
#     4  10  22  38  54  74 102 140 189 230 263 316
#     4  10  20  30  47  81 118 149 177 209 253 319
#
# _framework density 18.698045
#
# number of rings (size 3 to 8) (size 9 to 14) (size 15 to 20)
#    0.000    1.857    1.429    3.000    2.000    6.000 
#    0.000    0.000    0.000    0.429    0.000    0.000 
#    0.000    2.286    0.000    0.000    0.000    0.000 
#
# Total GULP energy -693909.865564 kJ/mol
# GULP energy per Si atom -12391.247599 kJ/mol
# Density = 1.865549 g / cm^3
# Si number density = 18.698045 Si / 1000 Ang^3
#
#
#
# Elastic Constant Matrix: (Units=GPa)
#
#
# Indices 1 2 3 4 5 6 
#
# 1 121.8697 18.1153 53.9452 0.0000 0.0000 0.0000
# 2 18.1153 55.5201 34.3441 0.0000 0.0000 0.0000
# 3 53.9452 34.3441 119.5640 0.0000 0.0000 0.0000
# 4 0.0000 0.0000 0.0000 54.0153 0.0000 0.0000
# 5 0.0000 0.0000 0.0000 0.0000 48.0012 0.0000
# 6 0.0000 0.0000 0.0000 0.0000 0.0000 18.6471
#
#
#
# Elastic Compliance Matrix: (Units=1/GPa)
#
#
# Indices 1 2 3 4 5 6 
#
# 1 0.010269 -0.000589 -0.004464 0.000000 0.000000 0.000000
# 2 -0.000589 0.021937 -0.006035 0.000000 0.000000 0.000000
# 3 -0.004464 -0.006035 0.012111 0.000000 0.000000 0.000000
# 4 0.000000 0.000000 0.000000 0.018513 0.000000 0.000000
# 5 0.000000 0.000000 0.000000 0.000000 0.020833 0.000000
# 6 0.000000 0.000000 0.000000 0.000000 0.000000 0.053628
#
#
# Mechanical properties :
#
#
# Convention : Reuss Voigt Hill
#
# Bulk Modulus (GPa) = 45.16647 56.64034 50.90340
# Shear Modulus (GPa) = 29.96724 36.83600 33.40162
#
# Velocity S-wave (km/s) = 4.00771 4.44333 4.23113
# Velocity P-wave (km/s) = 6.75454 7.52876 7.15213
#
# Compressibility (1/GPa) = 0.02214032
#
# Stress axis : x y z
#
# Youngs Moduli (GPa) = 97.38022 45.58458 82.56655
#
# Poissons Ratio (x) = 0.02686 0.36857
# Poissons Ratio (y) = 0.05738 0.49833
# Poissons Ratio (z) = 0.43470 0.27513
#
# Static dielectric constant tensor:
#      x y z
#    x 3.675060 0.000000 0.000000 
#    y 0.000000 3.551770 0.000000 
#    z 0.000000 0.000000 4.805560 
# 
# 
# High freq. dielectric constant tensor:
#      x y z
#    x 1.719390 0.000000 0.000000 
#    y 0.000000 1.734390 0.000000 
#    z 0.000000 0.000000 1.693560 
# 
# From -- ./inp_files/21191.got.cif
#   From: 2010.03.12/outbox.cif.g09.slc.cpg/sg74_11_cif.got.tgz:21191.got - 2010.04.16 15:46:19.
