data_PCOD8299603
_publ_section_title
;
Structure prediction by ZEFSAII (Michael W. Deem and Ramdas Pophale) SiO2 
 PCOD8299603
Probable space group: I M M A
;
_chemical_formula_sum "Si O2"
_cell_formula_units_Z 72
_cell_length_a 9.328918
_cell_length_b 25.215346
_cell_length_c 17.075116
_cell_angle_alpha 90.000000
_cell_angle_beta 90.000000
_cell_angle_gamma 90.000000
_cell_volume 4016.611897
_symmetry_space_group_name_H-M "I M M A"
_symmetry_group_IT_number 74
_symmetry_cell_setting 'orthorhombic'
loop_
_space_group_symop_operation_xyz
x,y,z
-x,1/2-y,z
x,-y,-z
-x,1/2+y,-z
-x,-y,-z
x,1/2+y,-z
-x,y,z
x,1/2-y,z
1/2+x,1/2+y,1/2+z
1/2-x,-y,1/2+z
1/2+x,1/2-y,1/2-z
1/2-x,y,1/2-z
1/2-x,1/2-y,1/2-z
1/2+x,y,1/2-z
1/2-x,1/2+y,1/2+z
1/2+x,-y,1/2+z
loop_
_atom_site_type_symbol
_atom_site_label
_atom_site_fract_x
_atom_site_fract_y
_atom_site_fract_z
Si Si1 0.832564 0.940328 0.507588
Si Si2 0.839566 0.809982 0.878295
Si Si3 0.834213 0.656351 0.051604
Si Si4 0.834117 0.598696 0.678973
Si Si5 0.829494 0.750000 0.167182
O O1 0.752895 0.899387 0.449026
O O2 0.798533 0.929009 0.597721
O O3 0.000000 0.935948 0.487557
O O4 0.774764 0.000000 0.500000
O O5 0.826260 0.750000 0.851142
O O6 0.724830 0.841511 0.826892
O O7 0.000000 0.832110 0.862323
O O8 0.805418 0.813630 0.970447
O O9 0.783079 0.696671 0.119978
O O10 0.000000 0.641839 0.063285
O O11 0.750000 0.569405 0.750000
O O12 0.000000 0.599143 0.699303
O O13 0.750000 0.750000 0.250000
O O14 0.000000 0.750000 0.179675
#
# Coordination Sequence:
#
# PCOD8299603 Si02
#       5
#    16  16  16  16   8
#     4   9  19  36  56  77 101 132 172 217 264 312
#     4   9  16  29  50  72  96 130 164 198 241 289
#     4   9  17  32  53  76 103 134 172 214 257 308
#     4  10  20  33  49  71  99 130 162 201 247 295
#     4  10  20  34  52  78 111 144 177 220 271 320
#
# _framework density 17.925554999999999
#
# number of rings (size 3 to 8) (size 9 to 14) (size 15 to 20)
#    0.000    2.667    1.111    0.667    0.000    3.111 
#    0.000    1.111    0.000    5.333    0.000    0.000 
#    0.000    0.000    0.000    0.000    0.000    0.000 
#
# Total GULP energy -446220.250719 kJ/mol
# GULP energy per Si atom -12395.006964 kJ/mol
# Density = 1.788476 g / cm^3
# Si number density = 17.925555 Si / 1000 Ang^3
#
#
#
# Elastic Constant Matrix: (Units=GPa)
#
#
# Indices 1 2 3 4 5 6 
#
# 1 73.6206 51.9495 48.6163 0.0000 0.0000 0.0000
# 2 51.9495 132.2617 48.5746 0.0001 0.0000 0.0000
# 3 48.6163 48.5746 95.4581 0.0004 0.0000 0.0000
# 4 0.0000 0.0001 0.0004 15.5880 0.0000 0.0000
# 5 0.0000 0.0000 0.0000 0.0000 31.9614 0.0000
# 6 0.0000 0.0000 0.0000 0.0000 0.0000 27.5196
#
#
#
# Elastic Compliance Matrix: (Units=1/GPa)
#
#
# Indices 1 2 3 4 5 6 
#
# 1 0.023823 -0.006028 -0.009066 0.000000 0.000000 0.000000
# 2 -0.006028 0.010824 -0.002438 0.000000 0.000000 0.000000
# 3 -0.009066 -0.002438 0.016333 0.000000 0.000000 0.000000
# 4 0.000000 0.000000 0.000000 0.064152 0.000000 0.000000
# 5 0.000000 0.000000 0.000000 0.000000 0.031288 0.000000
# 6 0.000000 0.000000 0.000000 0.000000 0.000000 0.036338
#
#
# Mechanical properties :
#
#
# Convention : Reuss Voigt Hill
#
# Bulk Modulus (GPa) = 62.82320 66.62459 64.72390
# Shear Modulus (GPa) = 22.40882 25.16047 23.78465
#
# Velocity S-wave (km/s) = 3.53952 3.75054 3.64656
# Velocity P-wave (km/s) = 7.19910 7.48355 7.34270
#
# Compressibility (1/GPa) = 0.01591769
#
# Stress axis : x y z
#
# Youngs Moduli (GPa) = 41.97573 92.39034 61.22405
#
# Poissons Ratio (x) = 0.55691 0.55505
# Poissons Ratio (y) = 0.25302 0.14925
# Poissons Ratio (z) = 0.38054 0.22523
#
# Static dielectric constant tensor:
#      x y z
#    x 3.308460 0.000000 0.000000 
#    y 0.000000 3.312800 0.000000 
#    z 0.000000 0.000000 3.310790 
# 
# 
# High freq. dielectric constant tensor:
#      x y z
#    x 1.690270 0.000000 0.000000 
#    y 0.000000 1.681710 0.000000 
#    z 0.000000 0.000000 1.688230 
# 
# From -- ./inp_files/29169.got.cif
#   From: 2010.03.12/outbox.cif.g09.slc.cpg/sg74_15_cif.got.tgz:29169.got - 2010.04.16 15:46:19.
