data_PCOD8299091
_publ_section_title
;
Structure prediction by ZEFSAII (Michael W. Deem and Ramdas Pophale) SiO2 
 PCOD8299091
Probable space group: I M M A
;
_chemical_formula_sum "Si O2"
_cell_formula_units_Z 112
_cell_length_a 18.029471
_cell_length_b 18.640679
_cell_length_c 18.221766
_cell_angle_alpha 90.000000
_cell_angle_beta 90.000000
_cell_angle_gamma 90.000000
_cell_volume 6123.999934
_symmetry_space_group_name_H-M "I M M A"
_symmetry_group_IT_number 74
_symmetry_cell_setting 'orthorhombic'
loop_
_space_group_symop_operation_xyz
x,y,z
-x,1/2-y,z
x,-y,-z
-x,1/2+y,-z
-x,-y,-z
x,1/2+y,-z
-x,y,z
x,1/2-y,z
1/2+x,1/2+y,1/2+z
1/2-x,-y,1/2+z
1/2+x,1/2-y,1/2-z
1/2-x,y,1/2-z
1/2-x,1/2-y,1/2-z
1/2+x,y,1/2-z
1/2-x,1/2+y,1/2+z
1/2+x,-y,1/2+z
loop_
_atom_site_type_symbol
_atom_site_label
_atom_site_fract_x
_atom_site_fract_y
_atom_site_fract_z
Si Si1 0.188298 0.031043 0.425416
Si Si2 0.583559 0.410254 0.708786
Si Si3 0.723760 0.833668 0.558003
Si Si4 0.186644 0.670042 0.310689
Si Si5 0.582946 0.050262 0.207350
Si Si6 0.705964 0.093786 0.588449
Si Si7 0.827443 0.331992 0.217571
O O1 0.203246 0.116693 0.430750
O O2 0.134384 0.019407 0.357186
O O3 0.150543 0.000000 0.500000
O O4 0.268031 0.989390 0.417165
O O5 0.500000 0.384029 0.691531
O O6 0.613267 0.368089 0.779992
O O7 0.585223 0.494182 0.726183
O O8 0.634305 0.396013 0.638474
O O9 0.746164 0.750000 0.546169
O O10 0.682199 0.867461 0.487420
O O11 0.670963 0.840443 0.629374
O O12 0.163871 0.750000 0.332448
O O13 0.250000 0.667862 0.250000
O O14 0.219280 0.632222 0.382507
O O15 0.500000 0.059636 0.176027
O O16 0.607510 0.124799 0.243219
O O17 0.838282 0.250000 0.241464
O O18 0.750000 0.361789 0.250000
#
# Coordination Sequence:
#
# PCOD8299091 Si02
#       7
#    16  16  16  16  16  16  16
#     4  10  20  34  57  85 109 148 184 231 281 330
#     4  10  21  34  52  81 112 149 187 226 278 331
#     4  10  20  34  56  85 111 139 188 235 276 325
#     4   9  17  30  51  76 102 138 184 229 267 314
#     4  11  22  36  56  83 115 149 184 228 281 335
#     4  10  19  34  56  80 110 144 186 232 272 333
#     4  10  20  35  58  83 108 144 188 231 276 330
#
# _framework density 18.288699999999999
#
# number of rings (size 3 to 8) (size 9 to 14) (size 15 to 20)
#    0.000    2.000    2.857    1.286    0.000    1.429 
#    0.000    0.714    0.000    6.429    0.000    0.000 
#    0.000    0.000    0.000    0.000    0.000    0.000 
#
# Total GULP energy -694157.611467 kJ/mol
# GULP energy per Si atom -12395.671633 kJ/mol
# Density = 1.824707 g / cm^3
# Si number density = 18.288700 Si / 1000 Ang^3
#
#
#
# Elastic Constant Matrix: (Units=GPa)
#
#
# Indices 1 2 3 4 5 6 
#
# 1 98.2658 37.5415 44.7391 0.0000 0.0000 0.0000
# 2 37.5415 101.9678 24.1127 0.0000 0.0000 0.0000
# 3 44.7391 24.1127 103.2971 0.0000 0.0000 0.0000
# 4 0.0000 0.0000 0.0000 29.2540 0.0000 0.0000
# 5 0.0000 0.0000 0.0000 0.0000 14.9735 0.0000
# 6 0.0000 0.0000 0.0000 0.0000 0.0000 16.8960
#
#
#
# Elastic Compliance Matrix: (Units=1/GPa)
#
#
# Indices 1 2 3 4 5 6 
#
# 1 0.014032 -0.003947 -0.005156 0.000000 0.000000 0.000000
# 2 -0.003947 0.011490 -0.000973 0.000000 0.000000 0.000000
# 3 -0.005156 -0.000973 0.012141 0.000000 0.000000 0.000000
# 4 0.000000 0.000000 0.000000 0.034183 0.000000 0.000000
# 5 0.000000 0.000000 0.000000 0.000000 0.066785 0.000000
# 6 0.000000 0.000000 0.000000 0.000000 0.000000 0.059186
#
#
# Mechanical properties :
#
#
# Convention : Reuss Voigt Hill
#
# Bulk Modulus (GPa) = 57.10438 57.36859 57.23648
# Shear Modulus (GPa) = 22.34086 25.36718 23.85402
#
# Velocity S-wave (km/s) = 3.49888 3.72834 3.61543
# Velocity P-wave (km/s) = 6.90033 7.06898 6.98516
#
# Compressibility (1/GPa) = 0.01751179
#
# Stress axis : x y z
#
# Youngs Moduli (GPa) = 71.26674 87.03108 82.36546
#
# Poissons Ratio (x) = 0.34350 0.42468
# Poissons Ratio (y) = 0.28128 0.08012
# Poissons Ratio (z) = 0.36745 0.08466
#
# Static dielectric constant tensor:
#      x y z
#    x 3.072320 0.000000 0.000000 
#    y 0.000000 3.499410 0.000000 
#    z 0.000000 0.000000 3.473940 
# 
# 
# High freq. dielectric constant tensor:
#      x y z
#    x 1.666220 0.000000 0.000000 
#    y 0.000000 1.722880 0.000000 
#    z 0.000000 0.000000 1.716010 
# 
# From -- ./inp_files/45426.got.cif
#   From: 2010.03.12/outbox.cif.g09.slc.cpg/sg74_23_cif.got.tgz:45426.got - 2010.04.16 15:46:19.
