data_PCOD8299912
_publ_section_title
;
Structure prediction by ZEFSAII (Michael W. Deem and Ramdas Pophale) SiO2 
 PCOD8299912
Probable space group: I M M A
;
_chemical_formula_sum "Si O2"
_cell_formula_units_Z 72
_cell_length_a 14.280649
_cell_length_b 9.201471
_cell_length_c 28.777440
_cell_angle_alpha 90.000000
_cell_angle_beta 90.000000
_cell_angle_gamma 90.000000
_cell_volume 3781.441305
_symmetry_space_group_name_H-M "I M M A"
_symmetry_group_IT_number 74
_symmetry_cell_setting 'orthorhombic'
loop_
_space_group_symop_operation_xyz
x,y,z
-x,1/2-y,z
x,-y,-z
-x,1/2+y,-z
-x,-y,-z
x,1/2+y,-z
-x,y,z
x,1/2-y,z
1/2+x,1/2+y,1/2+z
1/2-x,-y,1/2+z
1/2+x,1/2-y,1/2-z
1/2-x,y,1/2-z
1/2-x,1/2-y,1/2-z
1/2+x,y,1/2-z
1/2-x,1/2+y,1/2+z
1/2+x,-y,1/2+z
loop_
_atom_site_type_symbol
_atom_site_label
_atom_site_fract_x
_atom_site_fract_y
_atom_site_fract_z
Si Si1 0.850079 0.082041 0.373641
Si Si2 0.000000 0.086272 0.296367
Si Si3 0.500000 0.920074 0.298527
Si Si4 0.500000 0.579312 0.950363
Si Si5 0.393423 0.409179 0.459039
Si Si6 0.342940 0.422200 0.630265
O O1 0.819155 0.250000 0.377640
O O2 0.908126 0.037213 0.419986
O O3 0.909809 0.056355 0.327589
O O4 0.762288 0.978369 0.366119
O O5 0.000000 0.250000 0.277669
O O6 0.000000 0.983728 0.252466
O O7 0.500000 0.750000 0.292633
O O8 0.594740 0.968183 0.325280
O O9 0.500000 0.750000 0.960019
O O10 0.500000 0.500000 0.000000
O O11 0.341678 0.500000 0.500000
O O12 0.500000 0.382951 0.473708
O O13 0.344692 0.250000 0.453047
O O14 0.391728 0.502229 0.412860
O O15 0.343259 0.250000 0.622956
#
# Coordination Sequence:
#
# PCOD8299912 Si02
#       6
#    16   8   8   8  16  16
#     4   9  20  39  59  83 114 147 185 234 284 336
#     4   9  20  40  63  82 106 144 189 237 291 344
#     4  10  23  39  56  80 115 149 185 234 285 340
#     4   9  19  37  61  86 116 147 182 229 279 328
#     4  10  20  34  54  78 107 146 187 228 272 323
#     4  11  22  37  56  82 116 153 189 231 281 337
#
# _framework density 19.040358000000001
#
# number of rings (size 3 to 8) (size 9 to 14) (size 15 to 20)
#    0.000    2.222    1.111    2.667    0.000    6.222 
#    0.000    8.889    0.000    0.000    0.000    0.000 
#    0.000    0.000    0.000    0.000    0.000    0.000 
#
# Total GULP energy -446239.234634 kJ/mol
# GULP energy per Si atom -12395.534295 kJ/mol
# Density = 1.899702 g / cm^3
# Si number density = 19.040358 Si / 1000 Ang^3
#
#
#
# Elastic Constant Matrix: (Units=GPa)
#
#
# Indices 1 2 3 4 5 6 
#
# 1 100.6546 49.0197 44.1266 0.0000 0.0000 0.0000
# 2 49.0197 88.9076 53.7196 0.0000 0.0000 0.0000
# 3 44.1266 53.7196 144.2213 0.0000 0.0000 0.0000
# 4 0.0000 0.0000 0.0000 40.1650 0.0000 0.0000
# 5 0.0000 0.0000 0.0000 0.0000 2.8068 0.0000
# 6 0.0000 0.0000 0.0000 0.0000 0.0000 28.8327
#
#
#
# Elastic Compliance Matrix: (Units=1/GPa)
#
#
# Indices 1 2 3 4 5 6 
#
# 1 0.013938 -0.006592 -0.001809 0.000000 0.000000 0.000000
# 2 -0.006592 0.017632 -0.004551 0.000000 0.000000 0.000000
# 3 -0.001809 -0.004551 0.009182 0.000000 0.000000 0.000000
# 4 0.000000 0.000000 0.000000 0.024897 0.000000 0.000000
# 5 0.000000 0.000000 0.000000 0.000000 0.356272 0.000000
# 6 0.000000 0.000000 0.000000 0.000000 0.000000 0.034683
#
#
# Mechanical properties :
#
#
# Convention : Reuss Voigt Hill
#
# Bulk Modulus (GPa) = 67.34464 69.72390 68.53427
# Shear Modulus (GPa) = 10.25730 26.82211 18.53971
#
# Velocity S-wave (km/s) = 2.32354 3.75733 3.12381
# Velocity P-wave (km/s) = 6.53029 7.45130 7.00595
#
# Compressibility (1/GPa) = 0.01484899
#
# Stress axis : x y z
#
# Youngs Moduli (GPa) = 71.74409 56.71645 108.90417
#
# Poissons Ratio (x) = 0.37386 0.19705
# Poissons Ratio (y) = 0.47292 0.49558
# Poissons Ratio (z) = 0.12981 0.25809
#
# Static dielectric constant tensor:
#      x y z
#    x 3.369120 0.000000 0.000000 
#    y 0.000000 3.623170 0.000000 
#    z 0.000000 0.000000 3.489170 
# 
# 
# High freq. dielectric constant tensor:
#      x y z
#    x 1.734000 0.000000 0.000000 
#    y 0.000000 1.746080 0.000000 
#    z 0.000000 0.000000 1.743840 
# 
# From -- ./inp_files/66768.got.cif
#   From: 2010.03.12/outbox.cif.g09.slc.cpg/sg74_34_cif.got.tgz:66768.got - 2010.04.16 15:46:19.
