data_PCOD8299190
_publ_section_title
;
Structure prediction by ZEFSAII (Michael W. Deem and Ramdas Pophale) SiO2 
 PCOD8299190
Probable space group: I M M A
;
_chemical_formula_sum "Si O2"
_cell_formula_units_Z 96
_cell_length_a 25.186286
_cell_length_b 8.706580
_cell_length_c 23.602903
_cell_angle_alpha 90.000000
_cell_angle_beta 90.000000
_cell_angle_gamma 90.000000
_cell_volume 5175.795958
_symmetry_space_group_name_H-M "I M M A"
_symmetry_group_IT_number 74
_symmetry_cell_setting 'orthorhombic'
loop_
_space_group_symop_operation_xyz
x,y,z
-x,1/2-y,z
x,-y,-z
-x,1/2+y,-z
-x,-y,-z
x,1/2+y,-z
-x,y,z
x,1/2-y,z
1/2+x,1/2+y,1/2+z
1/2-x,-y,1/2+z
1/2+x,1/2-y,1/2-z
1/2-x,y,1/2-z
1/2-x,1/2-y,1/2-z
1/2+x,y,1/2-z
1/2-x,1/2+y,1/2+z
1/2+x,-y,1/2+z
loop_
_atom_site_type_symbol
_atom_site_label
_atom_site_fract_x
_atom_site_fract_y
_atom_site_fract_z
Si Si1 0.653381 0.432203 0.375832
Si Si2 0.938798 0.929000 0.059956
Si Si3 0.059392 0.930884 0.559290
Si Si4 0.251239 0.431417 0.939414
Si Si5 0.308928 0.568928 0.744436
Si Si6 0.656551 0.430719 0.134093
O O1 0.657593 0.250000 0.379281
O O2 0.594596 0.487513 0.391408
O O3 0.694839 0.503512 0.419791
O O4 0.663984 0.495709 0.312407
O O5 0.925461 0.750000 0.058464
O O6 0.000000 0.961196 0.074056
O O7 0.922587 0.000000 0.000000
O O8 0.059379 0.750000 0.552346
O O9 0.099880 0.982338 0.608490
O O10 0.000000 0.990595 0.574496
O O11 0.079200 0.000000 0.500000
O O12 0.247607 0.250000 0.944263
O O13 0.296253 0.477456 0.895019
O O14 0.266796 0.500000 0.000000
O O15 0.303737 0.750000 0.738429
O O16 0.250000 0.497181 0.750000
O O17 0.344004 0.525641 0.799403
O O18 0.667105 0.250000 0.125082
#
# Coordination Sequence:
#
# PCOD8299190 Si02
#       6
#    16  16  16  16  16  16
#     4  11  21  36  58  82 110 144 183 224 270 327
#     4  10  21  38  59  83 113 147 183 227 278 330
#     4   9  18  32  52  77 105 137 173 215 264 315
#     4  12  24  36  52  78 110 141 177 222 275 328
#     4   9  17  33  56  79 107 144 181 218 269 320
#     4  10  19  35  56  78 106 140 180 223 269 321
#
# _framework density 18.547872999999999
#
# number of rings (size 3 to 8) (size 9 to 14) (size 15 to 20)
#    0.000    1.833    1.667    3.500    0.000    3.000 
#    0.000    3.333    0.000    3.000    0.000    2.333 
#    0.000    0.000    0.000    0.000    0.000    0.000 
#
# Total GULP energy -595297.907043 kJ/mol
# GULP energy per Si atom -12402.039730 kJ/mol
# Density = 1.850566 g / cm^3
# Si number density = 18.547873 Si / 1000 Ang^3
#
#
#
# Elastic Constant Matrix: (Units=GPa)
#
#
# Indices 1 2 3 4 5 6 
#
# 1 107.5500 32.2288 62.3187 0.0000 0.0000 0.0000
# 2 32.2288 72.1527 35.6146 0.0000 0.0000 0.0000
# 3 62.3187 35.6146 129.7032 0.0000 0.0000 0.0000
# 4 0.0000 0.0000 0.0000 23.6319 0.0000 0.0000
# 5 0.0000 0.0000 0.0000 0.0000 35.9637 0.0000
# 6 0.0000 0.0000 0.0000 0.0000 0.0000 27.1945
#
#
#
# Elastic Compliance Matrix: (Units=1/GPa)
#
#
# Indices 1 2 3 4 5 6 
#
# 1 0.013524 -0.003278 -0.005598 0.000000 0.000000 0.000000
# 2 -0.003278 0.016827 -0.003046 0.000000 0.000000 0.000000
# 3 -0.005598 -0.003046 0.011236 0.000000 0.000000 0.000000
# 4 0.000000 0.000000 0.000000 0.042316 0.000000 0.000000
# 5 0.000000 0.000000 0.000000 0.000000 0.027806 0.000000
# 6 0.000000 0.000000 0.000000 0.000000 0.000000 0.036772
#
#
# Mechanical properties :
#
#
# Convention : Reuss Voigt Hill
#
# Bulk Modulus (GPa) = 56.35609 63.30334 59.82972
# Shear Modulus (GPa) = 28.05257 29.30762 28.68009
#
# Velocity S-wave (km/s) = 3.89323 3.97937 3.93653
# Velocity P-wave (km/s) = 7.11757 7.43758 7.27933
#
# Compressibility (1/GPa) = 0.01774431
#
# Stress axis : x y z
#
# Youngs Moduli (GPa) = 73.94386 59.42890 89.00156
#
# Poissons Ratio (x) = 0.19479 0.49821
# Poissons Ratio (y) = 0.24236 0.27106
# Poissons Ratio (z) = 0.41392 0.18099
#
# Static dielectric constant tensor:
#      x y z
#    x 3.582390 0.000000 0.000000 
#    y 0.000000 3.275240 0.000000 
#    z 0.000000 0.000000 3.614550 
# 
# 
# High freq. dielectric constant tensor:
#      x y z
#    x 1.721220 0.000000 0.000000 
#    y 0.000000 1.707270 0.000000 
#    z 0.000000 0.000000 1.721920 
# 
# From -- ./inp_files/49162.got.cif
#   From: 2010.03.12/outbox.cif.g09.slc.cpg/sg74_25_cif.got.tgz:49162.got - 2010.04.16 15:46:19.
