data_PCOD8299340
_publ_section_title
;
Structure prediction by ZEFSAII (Michael W. Deem and Ramdas Pophale) SiO2 
 PCOD8299340
Probable space group: I M M A
;
_chemical_formula_sum "Si O2"
_cell_formula_units_Z 80
_cell_length_a 23.699348
_cell_length_b 18.603780
_cell_length_c 9.526122
_cell_angle_alpha 90.000000
_cell_angle_beta 90.000000
_cell_angle_gamma 90.000000
_cell_volume 4200.042959
_symmetry_space_group_name_H-M "I M M A"
_symmetry_group_IT_number 74
_symmetry_cell_setting 'orthorhombic'
loop_
_space_group_symop_operation_xyz
x,y,z
-x,1/2-y,z
x,-y,-z
-x,1/2+y,-z
-x,-y,-z
x,1/2+y,-z
-x,y,z
x,1/2-y,z
1/2+x,1/2+y,1/2+z
1/2-x,-y,1/2+z
1/2+x,1/2-y,1/2-z
1/2-x,y,1/2-z
1/2-x,1/2-y,1/2-z
1/2+x,y,1/2-z
1/2-x,1/2+y,1/2+z
1/2+x,-y,1/2+z
loop_
_atom_site_type_symbol
_atom_site_label
_atom_site_fract_x
_atom_site_fract_y
_atom_site_fract_z
Si Si1 0.500000 0.666100 0.687999
Si Si2 0.216161 0.560485 0.392959
Si Si3 0.500000 0.477343 0.158474
Si Si4 0.386579 0.971774 0.282026
Si Si5 0.235159 0.830970 0.901027
Si Si6 0.384055 0.885482 0.556042
O O1 0.500000 0.750000 0.737723
O O2 0.500000 0.609876 0.819321
O O3 0.556538 0.650979 0.598019
O O4 0.237630 0.500000 0.500000
O O5 0.250000 0.554602 0.250000
O O6 0.150600 0.550920 0.353064
O O7 0.229000 0.634409 0.472315
O O8 0.550955 0.516127 0.232485
O O9 0.500000 0.500000 0.000000
O O10 0.387426 0.907516 0.393679
O O11 0.365900 0.046089 0.350624
O O12 0.257039 0.750000 0.899092
O O13 0.250000 0.867079 0.750000
O O14 0.167895 0.831053 0.927456
#
# Coordination Sequence:
#
# PCOD8299340 Si02
#       6
#     8  16   8  16  16  16
#     4  10  21  37  63  89 116 158 201 246 305 369
#     4  12  22  36  59  86 116 154 203 249 300 363
#     4  10  21  37  59  87 121 152 201 256 305 357
#     4  10  20  35  59  87 115 152 199 251 299 355
#     4  11  24  40  58  84 122 161 200 252 312 370
#     4  10  19  38  59  88 118 153 199 250 301 360
#
# _framework density 19.047423999999999
#
# number of rings (size 3 to 8) (size 9 to 14) (size 15 to 20)
#    0.000    1.400    2.000    4.800    0.000    4.400 
#    0.000    0.000    0.000    3.600    0.000    0.000 
#    0.000    0.000    0.000    0.000    0.000    0.000 
#
# Total GULP energy -495891.348621 kJ/mol
# GULP energy per Si atom -12397.283716 kJ/mol
# Density = 1.900407 g / cm^3
# Si number density = 19.047424 Si / 1000 Ang^3
#
#
#
# Elastic Constant Matrix: (Units=GPa)
#
#
# Indices 1 2 3 4 5 6 
#
# 1 116.0985 44.8416 43.9048 0.0000 0.0000 0.0000
# 2 44.8416 90.5779 57.6868 0.0000 0.0000 0.0000
# 3 43.9048 57.6868 139.2400 0.0000 0.0000 0.0000
# 4 0.0000 0.0000 0.0000 27.4426 0.0000 0.0000
# 5 0.0000 0.0000 0.0000 0.0000 31.8331 0.0000
# 6 0.0000 0.0000 0.0000 0.0000 0.0000 59.5418
#
#
#
# Elastic Compliance Matrix: (Units=1/GPa)
#
#
# Indices 1 2 3 4 5 6 
#
# 1 0.010917 -0.004364 -0.001634 0.000000 0.000000 0.000000
# 2 -0.004364 0.016742 -0.005560 0.000000 0.000000 0.000000
# 3 -0.001634 -0.005560 0.010001 0.000000 0.000000 0.000000
# 4 0.000000 0.000000 0.000000 0.036440 0.000000 0.000000
# 5 0.000000 0.000000 0.000000 0.000000 0.031414 0.000000
# 6 0.000000 0.000000 0.000000 0.000000 0.000000 0.016795
#
#
# Mechanical properties :
#
#
# Convention : Reuss Voigt Hill
#
# Bulk Modulus (GPa) = 68.76191 70.97587 69.86889
# Shear Modulus (GPa) = 33.27313 37.06237 35.16775
#
# Velocity S-wave (km/s) = 4.18408 4.41590 4.30155
# Velocity P-wave (km/s) = 7.71497 7.95889 7.83788
#
# Compressibility (1/GPa) = 0.01454293
#
# Stress axis : x y z
#
# Youngs Moduli (GPa) = 91.60149 59.73176 99.99257
#
# Poissons Ratio (x) = 0.26064 0.16343
# Poissons Ratio (y) = 0.39971 0.55597
# Poissons Ratio (z) = 0.14972 0.33211
#
# Static dielectric constant tensor:
#      x y z
#    x 3.663940 0.000000 0.000000 
#    y 0.000000 3.372180 0.000000 
#    z 0.000000 0.000000 5.501300 
# 
# 
# High freq. dielectric constant tensor:
#      x y z
#    x 1.754840 0.000000 0.000000 
#    y 0.000000 1.726160 0.000000 
#    z 0.000000 0.000000 1.743110 
# 
# From -- ./inp_files/13646.got.cif
#   From: 2010.03.12/outbox.cif.g09.slc.cpg/sg74_7_cif.got.tgz:13646.got - 2010.04.16 15:46:19.
