data_PCOD8299511
_publ_section_title
;
Structure prediction by ZEFSAII (Michael W. Deem and Ramdas Pophale) SiO2 
 PCOD8299511
Probable space group: I M M A
;
_chemical_formula_sum "Si O2"
_cell_formula_units_Z 96
_cell_length_a 22.755869
_cell_length_b 8.717195
_cell_length_c 26.972581
_cell_angle_alpha 90.000000
_cell_angle_beta 90.000000
_cell_angle_gamma 90.000000
_cell_volume 5350.479347
_symmetry_space_group_name_H-M "I M M A"
_symmetry_group_IT_number 74
_symmetry_cell_setting 'orthorhombic'
loop_
_space_group_symop_operation_xyz
x,y,z
-x,1/2-y,z
x,-y,-z
-x,1/2+y,-z
-x,-y,-z
x,1/2+y,-z
-x,y,z
x,1/2-y,z
1/2+x,1/2+y,1/2+z
1/2-x,-y,1/2+z
1/2+x,1/2-y,1/2-z
1/2-x,y,1/2-z
1/2-x,1/2-y,1/2-z
1/2+x,y,1/2-z
1/2-x,1/2+y,1/2+z
1/2+x,-y,1/2+z
loop_
_atom_site_type_symbol
_atom_site_label
_atom_site_fract_x
_atom_site_fract_y
_atom_site_fract_z
Si Si1 0.161936 0.572587 0.876366
Si Si2 0.649459 0.917550 0.131149
Si Si3 0.245214 0.933021 0.445943
Si Si4 0.068044 0.571815 0.706141
Si Si5 0.932899 0.430971 0.809734
Si Si6 0.757855 0.918947 0.196258
O O1 0.152285 0.750000 0.889033
O O2 0.192329 0.490967 0.923828
O O3 0.100754 0.499080 0.857853
O O4 0.206737 0.550171 0.831479
O O5 0.623457 0.750000 0.115960
O O6 0.687592 0.988945 0.085350
O O7 0.693654 0.894129 0.175794
O O8 0.598218 0.023031 0.153900
O O9 0.247415 0.750000 0.445759
O O10 0.236970 0.000000 0.500000
O O11 0.079340 0.750000 0.714238
O O12 0.092029 0.488840 0.756271
O O13 0.000000 0.530834 0.699148
O O14 0.927067 0.250000 0.811026
O O15 0.000000 0.486024 0.815372
O O16 0.790029 0.750000 0.195203
O O17 0.750000 0.987034 0.250000
#
# Coordination Sequence:
#
# PCOD8299511 Si02
#       6
#    16  16  16  16  16  16
#     4  11  21  32  50  75 102 132 166 206 252 301
#     4   9  18  31  49  73 100 132 167 205 250 301
#     4  10  21  38  58  79 102 128 164 210 260 311
#     4  10  20  32  48  74 107 140 174 212 250 293
#     4  10  20  34  52  73 102 142 180 211 247 294
#     4   9  17  29  45  67  98 132 165 203 247 296
#
# _framework density 17.942316000000002
#
# number of rings (size 3 to 8) (size 9 to 14) (size 15 to 20)
#    0.000    2.167    0.000    5.000    0.000    7.000 
#    0.000    0.000    0.000    1.000    0.000    0.000 
#    0.000    0.000    0.000    0.000    0.000    0.000 
#
# Total GULP energy -594689.853590 kJ/mol
# GULP energy per Si atom -12389.371950 kJ/mol
# Density = 1.790148 g / cm^3
# Si number density = 17.942316 Si / 1000 Ang^3
#
#
#
# Elastic Constant Matrix: (Units=GPa)
#
#
# Indices 1 2 3 4 5 6 
#
# 1 63.4634 24.0464 28.2020 0.0000 0.0000 0.0000
# 2 24.0464 82.1599 26.9110 0.0000 0.0000 0.0000
# 3 28.2020 26.9110 114.8180 0.0000 0.0000 0.0000
# 4 0.0000 0.0000 0.0000 22.7843 0.0000 0.0000
# 5 0.0000 0.0000 0.0000 0.0000 25.0826 0.0000
# 6 0.0000 0.0000 0.0000 0.0000 0.0000 22.1300
#
#
#
# Elastic Compliance Matrix: (Units=1/GPa)
#
#
# Indices 1 2 3 4 5 6 
#
# 1 0.019037 -0.004376 -0.003650 0.000000 0.000000 0.000000
# 2 -0.004376 0.014189 -0.002251 0.000000 0.000000 0.000000
# 3 -0.003650 -0.002251 0.010134 0.000000 0.000000 0.000000
# 4 0.000000 0.000000 0.000000 0.043890 0.000000 0.000000
# 5 0.000000 0.000000 0.000000 0.000000 0.039868 0.000000
# 6 0.000000 0.000000 0.000000 0.000000 0.000000 0.045187
#
#
# Mechanical properties :
#
#
# Convention : Reuss Voigt Hill
#
# Bulk Modulus (GPa) = 43.84861 46.52889 45.18875
# Shear Modulus (GPa) = 24.94229 26.08484 25.51356
#
# Velocity S-wave (km/s) = 3.73250 3.81703 3.77500
# Velocity P-wave (km/s) = 6.56255 6.73907 6.65140
#
# Compressibility (1/GPa) = 0.02280574
#
# Stress axis : x y z
#
# Youngs Moduli (GPa) = 52.52817 70.47493 98.68170
#
# Poissons Ratio (x) = 0.30841 0.36022
# Poissons Ratio (y) = 0.22987 0.22211
# Poissons Ratio (z) = 0.19175 0.15863
#
# Static dielectric constant tensor:
#      x y z
#    x 3.157020 0.000000 0.000000 
#    y 0.000000 3.345630 0.000000 
#    z 0.000000 0.000000 3.342890 
# 
# 
# High freq. dielectric constant tensor:
#      x y z
#    x 1.684350 0.000000 0.000000 
#    y 0.000000 1.698300 0.000000 
#    z 0.000000 0.000000 1.673590 
# 
# From -- ./inp_files/68136.got.cif
#   From: 2010.03.12/outbox.cif.g09.slc.cpg/sg74_35_cif.got.tgz:68136.got - 2010.04.16 15:46:19.
