data_PCOD8299836
_publ_section_title
;
Structure prediction by ZEFSAII (Michael W. Deem and Ramdas Pophale) SiO2 
 PCOD8299836
Probable space group: I M M A
;
_chemical_formula_sum "Si O2"
_cell_formula_units_Z 72
_cell_length_a 12.812982
_cell_length_b 14.233190
_cell_length_c 22.599396
_cell_angle_alpha 90.000000
_cell_angle_beta 90.000000
_cell_angle_gamma 90.000000
_cell_volume 4121.442973
_symmetry_space_group_name_H-M "I M M A"
_symmetry_group_IT_number 74
_symmetry_cell_setting 'orthorhombic'
loop_
_space_group_symop_operation_xyz
x,y,z
-x,1/2-y,z
x,-y,-z
-x,1/2+y,-z
-x,-y,-z
x,1/2+y,-z
-x,y,z
x,1/2-y,z
1/2+x,1/2+y,1/2+z
1/2-x,-y,1/2+z
1/2+x,1/2-y,1/2-z
1/2-x,y,1/2-z
1/2-x,1/2-y,1/2-z
1/2+x,y,1/2-z
1/2-x,1/2+y,1/2+z
1/2+x,-y,1/2+z
loop_
_atom_site_type_symbol
_atom_site_label
_atom_site_fract_x
_atom_site_fract_y
_atom_site_fract_z
Si Si1 0.621566 0.550658 0.841670
Si Si2 0.876094 0.250000 0.379507
Si Si3 0.619410 0.641855 0.354158
Si Si4 0.723902 0.439856 0.942329
Si Si5 0.250000 0.934826 0.250000
Si Si6 0.875561 0.750000 0.486959
O O1 0.500000 0.549148 0.829005
O O2 0.664224 0.657561 0.845589
O O3 0.642898 0.499683 0.903722
O O4 0.675434 0.501272 0.787120
O O5 0.832940 0.250000 0.446254
O O6 0.000000 0.250000 0.383423
O O7 0.500000 0.609159 0.346073
O O8 0.625618 0.750000 0.373393
O O9 0.670161 0.578273 0.405539
O O10 0.680212 0.630269 0.292261
O O11 0.668162 0.341827 0.955150
O O12 0.753463 0.500000 0.000000
O O13 0.000000 0.750000 0.482536
#
# Coordination Sequence:
#
# PCOD8299836 Si02
#       6
#    16   8  16  16   8   8
#     4  10  20  34  52  78 108 139 177 220 265 314
#     4   9  18  31  51  76 105 142 175 211 265 313
#     4  10  21  38  57  77 106 141 179 222 265 314
#     4  11  21  34  55  83 110 140 176 214 264 321
#     4  10  21  35  56  78 102 138 182 222 268 312
#     4  11  20  32  52  81 115 142 172 216 264 318
#
# _framework density 17.469609999999999
#
# number of rings (size 3 to 8) (size 9 to 14) (size 15 to 20)
#    0.000    1.778    3.333    1.667    0.000    1.778 
#    0.000    0.000    0.000    0.000    0.000    3.111 
#    0.000    0.000    0.000    0.000    0.000    0.000 
#
# Total GULP energy -446453.662374 kJ/mol
# GULP energy per Si atom -12401.490622 kJ/mol
# Density = 1.742985 g / cm^3
# Si number density = 17.469610 Si / 1000 Ang^3
#
#
#
# Elastic Constant Matrix: (Units=GPa)
#
#
# Indices 1 2 3 4 5 6 
#
# 1 96.7487 34.6183 39.2675 0.0000 0.0000 0.0000
# 2 34.6183 108.7546 33.1881 0.0000 0.0000 0.0000
# 3 39.2675 33.1881 97.2709 0.0000 0.0000 0.0000
# 4 0.0000 0.0000 0.0000 27.9131 0.0000 0.0000
# 5 0.0000 0.0000 0.0000 0.0000 17.5033 0.0000
# 6 0.0000 0.0000 0.0000 0.0000 0.0000 -8.4312
#
#
#
# Elastic Compliance Matrix: (Units=1/GPa)
#
#
# Indices 1 2 3 4 5 6 
#
# 1 0.013110 -0.002855 -0.004318 0.000000 0.000000 0.000000
# 2 -0.002855 0.010886 -0.002561 0.000000 0.000000 0.000000
# 3 -0.004318 -0.002561 0.012898 0.000000 0.000000 0.000000
# 4 0.000000 0.000000 0.000000 0.035825 0.000000 0.000000
# 5 0.000000 0.000000 0.000000 0.000000 0.057132 0.000000
# 6 0.000000 0.000000 0.000000 0.000000 0.000000 -0.118607
#
#
# Mechanical properties :
#
#
# Convention : Reuss Voigt Hill
#
# Bulk Modulus (GPa) = 57.39367 57.43576 57.41471
# Shear Modulus (GPa) = 136.90200 20.44373 78.67286
#
# Velocity S-wave (km/s) = 8.86205 3.42460 6.71803
# Velocity P-wave (km/s) = 11.73198 6.97037 9.64949
#
# Compressibility (1/GPa) = 0.01742353
#
# Stress axis : x y z
#
# Youngs Moduli (GPa) = 76.27485 91.86456 77.53284
#
# Poissons Ratio (x) = 0.26232 0.33481
# Poissons Ratio (y) = 0.21780 0.19859
# Poissons Ratio (z) = 0.32938 0.23530
#
# Static dielectric constant tensor:
#      x y z
#    x 3.125380 0.000000 0.000000 
#    y 0.000000 3.442770 0.000000 
#    z 0.000000 0.000000 3.274760 
# 
# 
# High freq. dielectric constant tensor:
#      x y z
#    x 1.662860 0.000000 0.000000 
#    y 0.000000 1.688840 0.000000 
#    z 0.000000 0.000000 1.678750 
# 
# From -- ./inp_files/58428.got.cif
#   From: 2010.03.12/outbox.cif.g09.slc.cpg/sg74_30_cif.got.tgz:58428.got - 2010.04.16 15:46:19.
