data_PCOD8299278
_publ_section_title
;
Structure prediction by ZEFSAII (Michael W. Deem and Ramdas Pophale) SiO2 
 PCOD8299278
Probable space group: I M M A
;
_chemical_formula_sum "Si O2"
_cell_formula_units_Z 72
_cell_length_a 14.621198
_cell_length_b 20.419107
_cell_length_c 12.346059
_cell_angle_alpha 90.000000
_cell_angle_beta 90.000000
_cell_angle_gamma 90.000000
_cell_volume 3685.938217
_symmetry_space_group_name_H-M "I M M A"
_symmetry_group_IT_number 74
_symmetry_cell_setting 'orthorhombic'
loop_
_space_group_symop_operation_xyz
x,y,z
-x,1/2-y,z
x,-y,-z
-x,1/2+y,-z
-x,-y,-z
x,1/2+y,-z
-x,y,z
x,1/2-y,z
1/2+x,1/2+y,1/2+z
1/2-x,-y,1/2+z
1/2+x,1/2-y,1/2-z
1/2-x,y,1/2-z
1/2-x,1/2-y,1/2-z
1/2+x,y,1/2-z
1/2-x,1/2+y,1/2+z
1/2+x,-y,1/2+z
loop_
_atom_site_type_symbol
_atom_site_label
_atom_site_fract_x
_atom_site_fract_y
_atom_site_fract_z
Si Si1 0.500000 0.827560 0.702468
Si Si2 0.500000 0.827150 0.946993
Si Si3 0.352514 0.596073 0.574299
Si Si4 0.750000 0.872682 0.250000
Si Si5 0.396502 0.958933 0.348575
Si Si6 0.304992 0.825006 0.022713
O O1 0.500000 0.750000 0.699236
O O2 0.500000 0.855481 0.824962
O O3 0.589967 0.851989 0.641833
O O4 0.500000 0.750000 0.938861
O O5 0.409672 0.849843 0.012302
O O6 0.344088 0.528062 0.639297
O O7 0.401929 0.580670 0.460978
O O8 0.253097 0.627383 0.554830
O O9 0.659961 0.917233 0.262124
O O10 0.730778 0.828034 0.145861
O O11 0.500000 0.970517 0.306933
O O12 0.294735 0.750000 0.983238
#
# Coordination Sequence:
#
# PCOD8299278 Si02
#       6
#     8   8  16   8  16  16
#     4  11  20  33  55  87 109 146 194 236 294 352
#     4   9  22  38  53  77 119 154 177 229 298 349
#     4  10  19  36  60  81 112 152 192 245 285 347
#     4  10  23  34  64  88 113 154 202 240 302 358
#     4  10  19  37  58  84 117 151 193 243 299 344
#     4  10  21  40  59  85 119 154 196 247 301 359
#
# _framework density 19.533695999999999
#
# number of rings (size 3 to 8) (size 9 to 14) (size 15 to 20)
#    0.000    2.000    2.222    1.667    1.556    2.667 
#    0.000    3.333    0.000    4.000    0.000    0.000 
#    0.000    0.000    0.000    0.000    0.000    0.000 
#
# Total GULP energy -446374.028627 kJ/mol
# GULP energy per Si atom -12399.278573 kJ/mol
# Density = 1.948924 g / cm^3
# Si number density = 19.533696 Si / 1000 Ang^3
#
#
#
# Elastic Constant Matrix: (Units=GPa)
#
#
# Indices 1 2 3 4 5 6 
#
# 1 158.2915 48.8127 36.7584 0.0000 0.0000 0.0000
# 2 48.8127 86.5993 22.0973 0.0000 0.0000 0.0000
# 3 36.7584 22.0973 59.2956 0.0000 0.0000 0.0000
# 4 0.0000 0.0000 0.0000 17.6396 0.0000 0.0000
# 5 0.0000 0.0000 0.0000 0.0000 29.9963 0.0000
# 6 0.0000 0.0000 0.0000 0.0000 0.0000 30.6664
#
#
#
# Elastic Compliance Matrix: (Units=1/GPa)
#
#
# Indices 1 2 3 4 5 6 
#
# 1 0.008349 -0.003741 -0.003782 0.000000 0.000000 0.000000
# 2 -0.003741 0.014437 -0.003061 0.000000 0.000000 0.000000
# 3 -0.003782 -0.003061 0.020350 0.000000 0.000000 0.000000
# 4 0.000000 0.000000 0.000000 0.056691 0.000000 0.000000
# 5 0.000000 0.000000 0.000000 0.000000 0.033337 0.000000
# 6 0.000000 0.000000 0.000000 0.000000 0.000000 0.032609
#
#
# Mechanical properties :
#
#
# Convention : Reuss Voigt Hill
#
# Bulk Modulus (GPa) = 45.51967 57.72478 51.62222
# Shear Modulus (GPa) = 25.73815 28.76166 27.24990
#
# Velocity S-wave (km/s) = 3.63385 3.84137 3.73905
# Velocity P-wave (km/s) = 6.40002 7.02071 6.71754
#
# Compressibility (1/GPa) = 0.02196852
#
# Stress axis : x y z
#
# Youngs Moduli (GPa) = 119.77006 69.26506 49.14077
#
# Poissons Ratio (x) = 0.25914 0.18583
# Poissons Ratio (y) = 0.44809 0.15042
# Poissons Ratio (z) = 0.45293 0.21202
#
# Static dielectric constant tensor:
#      x y z
#    x 3.770530 0.000000 0.000000 
#    y 0.000000 3.462920 0.000000 
#    z 0.000000 0.000000 3.439090 
# 
# 
# High freq. dielectric constant tensor:
#      x y z
#    x 1.766290 0.000000 0.000000 
#    y 0.000000 1.756770 0.000000 
#    z 0.000000 0.000000 1.747770 
# 
# From -- ./inp_files/31969.got.cif
#   From: 2010.03.12/outbox.cif.g09.slc.cpg/sg74_16_cif.got.tgz:31969.got - 2010.04.16 15:46:19.
