data_PCOD8299644
_publ_section_title
;
Structure prediction by ZEFSAII (Michael W. Deem and Ramdas Pophale) SiO2 
 PCOD8299644
Probable space group: I M M A
;
_chemical_formula_sum "Si O2"
_cell_formula_units_Z 96
_cell_length_a 14.241562
_cell_length_b 22.628130
_cell_length_c 16.752538
_cell_angle_alpha 90.000000
_cell_angle_beta 90.000000
_cell_angle_gamma 90.000000
_cell_volume 5398.671494
_symmetry_space_group_name_H-M "I M M A"
_symmetry_group_IT_number 74
_symmetry_cell_setting 'orthorhombic'
loop_
_space_group_symop_operation_xyz
x,y,z
-x,1/2-y,z
x,-y,-z
-x,1/2+y,-z
-x,-y,-z
x,1/2+y,-z
-x,y,z
x,1/2-y,z
1/2+x,1/2+y,1/2+z
1/2-x,-y,1/2+z
1/2+x,1/2-y,1/2-z
1/2-x,y,1/2-z
1/2-x,1/2-y,1/2-z
1/2+x,y,1/2-z
1/2-x,1/2+y,1/2+z
1/2+x,-y,1/2+z
loop_
_atom_site_type_symbol
_atom_site_label
_atom_site_fract_x
_atom_site_fract_y
_atom_site_fract_z
Si Si1 0.110105 0.039389 0.874768
Si Si2 0.106075 0.750000 0.053858
Si Si3 0.396821 0.651551 0.136484
Si Si4 0.859465 0.250000 0.758501
Si Si5 0.722624 0.859746 0.462435
Si Si6 0.606184 0.980559 0.190563
Si Si7 0.736673 0.538769 0.929519
O O1 0.167318 0.097474 0.901241
O O2 0.129987 0.027337 0.782611
O O3 0.000000 0.045585 0.895100
O O4 0.155517 0.983081 0.918958
O O5 0.110382 0.750000 0.149894
O O6 0.153589 0.692851 0.014450
O O7 0.000000 0.750000 0.024873
O O8 0.500000 0.659135 0.096520
O O9 0.398148 0.690568 0.217035
O O10 0.313551 0.671336 0.077952
O O11 0.377478 0.583072 0.152315
O O12 0.750000 0.250000 0.750000
O O13 0.756753 0.893139 0.542916
O O14 0.500000 0.002969 0.178549
O O15 0.674419 0.029223 0.149948
O O16 0.688443 0.500000 0.000000
#
# Coordination Sequence:
#
# PCOD8299644 Si02
#       7
#    16   8  16   8  16  16  16
#     4  10  20  33  52  76 104 138 178 223 269 317
#     4  12  24  37  54  75 107 144 185 224 260 309
#     4  11  21  33  50  73 105 141 180 220 262 307
#     4  12  22  35  53  74 107 145 188 226 253 302
#     4  11  22  36  52  78 104 147 182 221 266 316
#     4  10  20  33  53  78 105 138 179 224 273 321
#     4  10  20  33  51  73 106 139 177 217 271 321
#
# _framework density 17.782153000000001
#
# number of rings (size 3 to 8) (size 9 to 14) (size 15 to 20)
#    0.000    1.333    5.000    2.750    0.000    6.000 
#    0.000    0.000    0.000    0.000    0.000    2.333 
#    0.000    2.667    0.000    0.000    0.000    0.000 
#
# Total GULP energy -595019.030275 kJ/mol
# GULP energy per Si atom -12396.229797 kJ/mol
# Density = 1.774168 g / cm^3
# Si number density = 17.782153 Si / 1000 Ang^3
#
#
#
# Elastic Constant Matrix: (Units=GPa)
#
#
# Indices 1 2 3 4 5 6 
#
# 1 110.5184 36.3909 27.1589 0.0000 0.0000 0.0000
# 2 36.3909 94.1657 29.9539 0.0001 0.0000 0.0000
# 3 27.1589 29.9539 44.0629 0.0001 0.0000 0.0000
# 4 0.0000 0.0001 0.0001 22.1668 0.0000 0.0000
# 5 0.0000 0.0000 0.0000 0.0000 23.6766 0.0000
# 6 0.0000 0.0000 0.0000 0.0000 0.0000 22.2362
#
#
#
# Elastic Compliance Matrix: (Units=1/GPa)
#
#
# Indices 1 2 3 4 5 6 
#
# 1 0.011183 -0.002717 -0.005046 0.000000 0.000000 0.000000
# 2 -0.002717 0.014209 -0.007985 0.000000 0.000000 0.000000
# 3 -0.005046 -0.007985 0.031233 0.000000 0.000000 0.000000
# 4 0.000000 0.000000 0.000000 0.045112 0.000000 0.000000
# 5 0.000000 0.000000 0.000000 0.000000 0.042236 0.000000
# 6 0.000000 0.000000 0.000000 0.000000 0.000000 0.044972
#
#
# Mechanical properties :
#
#
# Convention : Reuss Voigt Hill
#
# Bulk Modulus (GPa) = 39.79285 48.41715 44.10500
# Shear Modulus (GPa) = 21.85146 23.96549 22.90847
#
# Velocity S-wave (km/s) = 3.50929 3.67512 3.59316
# Velocity P-wave (km/s) = 6.23271 6.73021 6.48623
#
# Compressibility (1/GPa) = 0.02513015
#
# Stress axis : x y z
#
# Youngs Moduli (GPa) = 89.42342 70.37556 32.01701
#
# Poissons Ratio (x) = 0.19118 0.16156
# Poissons Ratio (y) = 0.24292 0.25566
# Poissons Ratio (z) = 0.45123 0.56197
#
# Static dielectric constant tensor:
#      x y z
#    x 3.587730 0.000000 0.000000 
#    y 0.000000 3.420970 0.000000 
#    z 0.000000 0.000000 3.211370 
# 
# 
# High freq. dielectric constant tensor:
#      x y z
#    x 1.712270 0.000000 0.000000 
#    y 0.000000 1.663980 0.000000 
#    z 0.000000 0.000000 1.652890 
# 
# From -- ./inp_files/32621.got.cif
#   From: 2010.03.12/outbox.cif.g09.slc.cpg/sg74_17_cif.got.tgz:32621.got - 2010.04.16 15:46:19.
