data_PCOD8299207
_publ_section_title
;
Structure prediction by ZEFSAII (Michael W. Deem and Ramdas Pophale) SiO2 
 PCOD8299207
Probable space group: I M M A
;
_chemical_formula_sum "Si O2"
_cell_formula_units_Z 64
_cell_length_a 13.124181
_cell_length_b 8.616017
_cell_length_c 28.563410
_cell_angle_alpha 90.000000
_cell_angle_beta 90.000000
_cell_angle_gamma 90.000000
_cell_volume 3229.898035
_symmetry_space_group_name_H-M "I M M A"
_symmetry_group_IT_number 74
_symmetry_cell_setting 'orthorhombic'
loop_
_space_group_symop_operation_xyz
x,y,z
-x,1/2-y,z
x,-y,-z
-x,1/2+y,-z
-x,-y,-z
x,1/2+y,-z
-x,y,z
x,1/2-y,z
1/2+x,1/2+y,1/2+z
1/2-x,-y,1/2+z
1/2+x,1/2-y,1/2-z
1/2-x,y,1/2-z
1/2-x,1/2-y,1/2-z
1/2+x,y,1/2-z
1/2-x,1/2+y,1/2+z
1/2+x,-y,1/2+z
loop_
_atom_site_type_symbol
_atom_site_label
_atom_site_fract_x
_atom_site_fract_y
_atom_site_fract_z
Si Si1 0.808409 0.081120 0.296367
Si Si2 0.000000 0.563476 0.754473
Si Si3 0.000000 0.065647 0.138198
Si Si4 0.615636 0.567357 0.949089
Si Si5 0.287756 0.568961 0.381809
O O1 0.827000 0.250000 0.321944
O O2 0.750000 0.122620 0.250000
O O3 0.909292 0.998117 0.277439
O O4 0.746798 0.964213 0.328933
O O5 0.000000 0.501509 0.808059
O O6 0.000000 0.750000 0.756260
O O7 0.000000 0.250000 0.137882
O O8 0.899385 0.006888 0.110712
O O9 0.500000 0.523808 0.932345
O O10 0.629209 0.750000 0.951288
O O11 0.700712 0.498745 0.915110
O O12 0.636474 0.500000 0.000000
O O13 0.298218 0.750000 0.391091
#
# Coordination Sequence:
#
# PCOD8299207 Si02
#       5
#    16   8   8  16  16
#     4  10  19  35  57  82 114 160 211 252 296 355
#     4   9  18  33  55  80 111 154 207 257 297 347
#     4  11  21  41  64  84 115 164 214 255 300 357
#     4  10  22  43  70  96 122 156 197 246 302 362
#     4  12  25  39  58  91 128 162 201 250 307 364
#
# _framework density 19.814868000000001
#
# number of rings (size 3 to 8) (size 9 to 14) (size 15 to 20)
#    0.000    1.500    2.500    3.375    1.750    2.000 
#    0.000    0.625    0.000    0.000    0.000    0.000 
#    0.000    0.000    0.000    0.000    0.000    0.000 
#
# Total GULP energy -396524.557143 kJ/mol
# GULP energy per Si atom -12391.392411 kJ/mol
# Density = 1.976977 g / cm^3
# Si number density = 19.814868 Si / 1000 Ang^3
#
#
#
# Elastic Constant Matrix: (Units=GPa)
#
#
# Indices 1 2 3 4 5 6 
#
# 1 185.5073 55.9483 60.8339 0.0000 0.0000 0.0000
# 2 55.9483 100.8433 40.8662 0.0000 0.0000 0.0000
# 3 60.8339 40.8662 79.5131 0.0000 0.0000 0.0000
# 4 0.0000 0.0000 0.0000 38.4269 0.0000 0.0000
# 5 0.0000 0.0000 0.0000 0.0000 34.6286 0.0000
# 6 0.0000 0.0000 0.0000 0.0000 0.0000 27.5821
#
#
#
# Elastic Compliance Matrix: (Units=1/GPa)
#
#
# Indices 1 2 3 4 5 6 
#
# 1 0.007614 -0.002354 -0.004616 0.000000 0.000000 0.000000
# 2 -0.002354 0.013253 -0.005010 0.000000 0.000000 0.000000
# 3 -0.004616 -0.005010 0.018683 0.000000 0.000000 0.000000
# 4 0.000000 0.000000 0.000000 0.026023 0.000000 0.000000
# 5 0.000000 0.000000 0.000000 0.000000 0.028878 0.000000
# 6 0.000000 0.000000 0.000000 0.000000 0.000000 0.036255
#
#
# Mechanical properties :
#
#
# Convention : Reuss Voigt Hill
#
# Bulk Modulus (GPa) = 64.14355 75.68449 69.91402
# Shear Modulus (GPa) = 31.27671 34.00854 32.64262
#
# Velocity S-wave (km/s) = 3.97728 4.14734 4.06320
# Velocity P-wave (km/s) = 7.31665 7.82385 7.57449
#
# Compressibility (1/GPa) = 0.01559003
#
# Stress axis : x y z
#
# Youngs Moduli (GPa) = 131.33394 75.45589 53.52451
#
# Poissons Ratio (x) = 0.17762 0.24705
# Poissons Ratio (y) = 0.30915 0.26818
# Poissons Ratio (z) = 0.60619 0.37806
#
# Static dielectric constant tensor:
#      x y z
#    x 3.772650 0.000000 0.000000 
#    y 0.000000 3.497450 0.000000 
#    z 0.000000 0.000000 3.374580 
# 
# 
# High freq. dielectric constant tensor:
#      x y z
#    x 1.794860 0.000000 0.000000 
#    y 0.000000 1.759700 0.000000 
#    z 0.000000 0.000000 1.752160 
# 
# From -- ./inp_files/71303.got.cif
#   From: 2010.03.12/outbox.cif.g09.slc.cpg/sg74_36_cif.got.tgz:71303.got - 2010.04.16 15:46:19.
