data_PCOD8299086
_publ_section_title
;
Structure prediction by ZEFSAII (Michael W. Deem and Ramdas Pophale) SiO2 
 PCOD8299086
Probable space group: I M M A
;
_chemical_formula_sum "Si O2"
_cell_formula_units_Z 80
_cell_length_a 23.457407
_cell_length_b 14.406801
_cell_length_c 10.974707
_cell_angle_alpha 90.000000
_cell_angle_beta 90.000000
_cell_angle_gamma 90.000000
_cell_volume 3708.860468
_symmetry_space_group_name_H-M "I M M A"
_symmetry_group_IT_number 74
_symmetry_cell_setting 'orthorhombic'
loop_
_space_group_symop_operation_xyz
x,y,z
-x,1/2-y,z
x,-y,-z
-x,1/2+y,-z
-x,-y,-z
x,1/2+y,-z
-x,y,z
x,1/2-y,z
1/2+x,1/2+y,1/2+z
1/2-x,-y,1/2+z
1/2+x,1/2-y,1/2-z
1/2-x,y,1/2-z
1/2-x,1/2-y,1/2-z
1/2+x,y,1/2-z
1/2-x,1/2+y,1/2+z
1/2+x,-y,1/2+z
loop_
_atom_site_type_symbol
_atom_site_label
_atom_site_fract_x
_atom_site_fract_y
_atom_site_fract_z
Si Si1 0.171362 0.854217 0.780424
Si Si2 0.724009 0.898355 0.478976
Si Si3 0.062954 0.360110 0.068509
Si Si4 0.839179 0.027781 0.623140
Si Si5 0.120350 0.353240 0.829804
O O1 0.167692 0.750000 0.722810
O O2 0.187591 0.933917 0.682954
O O3 0.218661 0.847729 0.888876
O O4 0.109749 0.888042 0.831586
O O5 0.685010 0.846575 0.380179
O O6 0.697509 0.000000 0.500000
O O7 0.787341 0.906039 0.423077
O O8 0.064198 0.250000 0.055860
O O9 0.079762 0.398357 0.933812
O O10 0.000000 0.396605 0.105306
O O11 0.873581 0.000000 0.500000
O O12 0.881867 0.082662 0.710388
O O13 0.100340 0.250000 0.792720
#
# Coordination Sequence:
#
# PCOD8299086 Si02
#       5
#    16  16  16  16  16
#     4  10  21  39  60  84 115 150 192 239 284 341
#     4  10  19  34  56  75 108 149 183 233 286 319
#     4   8  16  34  63  93 112 135 182 244 300 339
#     4  11  24  36  54  77 117 158 191 233 278 330
#     4  10  20  35  57  83 112 144 184 235 290 346
#
# _framework density 21.569966999999998
#
# number of rings (size 3 to 8) (size 9 to 14) (size 15 to 20)
#    0.000    2.200    2.000    2.400    2.800    3.200 
#    0.000   12.000    0.000    2.400    0.000    5.600 
#    0.000    0.000    0.000    0.000    0.000    0.000 
#
# Total GULP energy -495601.520562 kJ/mol
# GULP energy per Si atom -12390.038014 kJ/mol
# Density = 2.152087 g / cm^3
# Si number density = 21.569967 Si / 1000 Ang^3
#
#
#
# Elastic Constant Matrix: (Units=GPa)
#
#
# Indices 1 2 3 4 5 6 
#
# 1 80.0318 -0.8787 -5.2349 0.0000 0.0000 0.0000
# 2 -0.8787 61.9435 15.9245 0.0000 0.0000 0.0000
# 3 -5.2349 15.9245 86.2186 0.0000 0.0000 0.0000
# 4 0.0000 0.0000 0.0000 16.2593 0.0000 0.0000
# 5 0.0000 0.0000 0.0000 0.0000 15.8216 0.0000
# 6 0.0000 0.0000 0.0000 0.0000 0.0000 15.2407
#
#
#
# Elastic Compliance Matrix: (Units=1/GPa)
#
#
# Indices 1 2 3 4 5 6 
#
# 1 0.012545 -0.000019 0.000765 0.000000 0.000000 0.000000
# 2 -0.000019 0.016949 -0.003132 0.000000 0.000000 0.000000
# 3 0.000765 -0.003132 0.012223 0.000000 0.000000 0.000000
# 4 0.000000 0.000000 0.000000 0.061503 0.000000 0.000000
# 5 0.000000 0.000000 0.000000 0.000000 0.063205 0.000000
# 6 0.000000 0.000000 0.000000 0.000000 0.000000 0.065614
#
#
# Mechanical properties :
#
#
# Convention : Reuss Voigt Hill
#
# Bulk Modulus (GPa) = 27.06621 27.53508 27.30065
# Shear Modulus (GPa) = 20.07031 24.02319 22.04675
#
# Velocity S-wave (km/s) = 3.05368 3.34088 3.20050
# Velocity P-wave (km/s) = 5.00086 5.26072 5.13244
#
# Compressibility (1/GPa) = 0.03694643
#
# Stress axis : x y z
#
# Youngs Moduli (GPa) = 79.71381 59.00219 81.81120
#
# Poissons Ratio (x) = 0.00111 -0.06260
# Poissons Ratio (y) = 0.00149 0.25619
# Poissons Ratio (z) = -0.06099 0.18477
#
# Static dielectric constant tensor:
#      x y z
#    x 3.707730 0.000000 0.000000 
#    y 0.000000 3.860910 0.000000 
#    z 0.000000 0.000000 3.959610 
# 
# 
# High freq. dielectric constant tensor:
#      x y z
#    x 1.802070 0.000000 0.000000 
#    y 0.000000 1.851220 0.000000 
#    z 0.000000 0.000000 1.835030 
# 
# From -- ./inp_files/24874.got.cif
#   From: 2010.03.12/outbox.cif.g09.slc.cpg/sg74_13_cif.got.tgz:24874.got - 2010.04.16 15:46:19.
