data_PCOD8299724
_publ_section_title
;
Structure prediction by ZEFSAII (Michael W. Deem and Ramdas Pophale) SiO2 
 PCOD8299724
Probable space group: I M M A
;
_chemical_formula_sum "Si O2"
_cell_formula_units_Z 80
_cell_length_a 12.565251
_cell_length_b 9.604320
_cell_length_c 35.688316
_cell_angle_alpha 90.000000
_cell_angle_beta 90.000000
_cell_angle_gamma 90.000000
_cell_volume 4306.890653
_symmetry_space_group_name_H-M "I M M A"
_symmetry_group_IT_number 74
_symmetry_cell_setting 'orthorhombic'
loop_
_space_group_symop_operation_xyz
x,y,z
-x,1/2-y,z
x,-y,-z
-x,1/2+y,-z
-x,-y,-z
x,1/2+y,-z
-x,y,z
x,1/2-y,z
1/2+x,1/2+y,1/2+z
1/2-x,-y,1/2+z
1/2+x,1/2-y,1/2-z
1/2-x,y,1/2-z
1/2-x,1/2-y,1/2-z
1/2+x,y,1/2-z
1/2-x,1/2+y,1/2+z
1/2+x,-y,1/2+z
loop_
_atom_site_type_symbol
_atom_site_label
_atom_site_fract_x
_atom_site_fract_y
_atom_site_fract_z
Si Si1 0.500000 0.084913 0.672379
Si Si2 0.621399 0.589306 0.147083
Si Si3 0.281104 0.415023 0.709629
Si Si4 0.000000 0.911631 0.903638
Si Si5 0.380760 0.909352 0.924826
Si Si6 0.828742 0.409631 0.034972
O O1 0.500000 0.250000 0.664435
O O2 0.601721 0.037997 0.696742
O O3 0.500000 0.007603 0.632771
O O4 0.500000 0.568333 0.159897
O O5 0.646819 0.750000 0.138498
O O6 0.695127 0.529256 0.179925
O O7 0.648206 0.505379 0.109949
O O8 0.274663 0.250000 0.712027
O O9 0.250000 0.479751 0.750000
O O10 0.895816 0.947897 0.928094
O O11 0.000000 0.750000 0.891385
O O12 0.500000 0.941516 0.939939
O O13 0.371129 0.750000 0.911329
O O14 0.295976 0.940091 0.957456
O O15 0.848953 0.250000 0.024014
O O16 0.867874 0.500000 0.000000
#
# Coordination Sequence:
#
# PCOD8299724 Si02
#       6
#     8  16  16   8  16  16
#     4  10  20  33  53  78  99 130 172 206 243 293
#     4   9  17  29  48  72  95 125 166 207 245 288
#     4   9  18  30  47  73 103 129 159 203 251 294
#     4  10  21  37  55  74 102 134 166 204 250 297
#     4   9  18  33  51  71  98 131 165 200 244 297
#     4  10  21  35  52  75 101 132 166 203 250 297
#
# _framework density 18.574884999999998
#
# number of rings (size 3 to 8) (size 9 to 14) (size 15 to 20)
#    0.000    2.600    0.000    1.500    1.400    2.000 
#    0.000    0.000    0.000    2.400    0.000    0.000 
#    0.000    0.000    0.000    0.000    0.000    0.000 
#
# Total GULP energy -495990.782443 kJ/mol
# GULP energy per Si atom -12399.769561 kJ/mol
# Density = 1.853261 g / cm^3
# Si number density = 18.574885 Si / 1000 Ang^3
#
#
#
# Elastic Constant Matrix: (Units=GPa)
#
#
# Indices 1 2 3 4 5 6 
#
# 1 114.3215 34.2037 58.2495 0.0000 0.0000 0.0000
# 2 34.2037 49.3205 49.1262 0.0000 0.0000 0.0000
# 3 58.2495 49.1262 114.6128 0.0000 0.0000 0.0000
# 4 0.0000 0.0000 0.0000 15.6542 0.0000 0.0000
# 5 0.0000 0.0000 0.0000 0.0000 23.3203 0.0000
# 6 0.0000 0.0000 0.0000 0.0000 0.0000 17.5207
#
#
#
# Elastic Compliance Matrix: (Units=1/GPa)
#
#
# Indices 1 2 3 4 5 6 
#
# 1 0.012240 -0.004000 -0.004506 0.000000 0.000000 0.000000
# 2 -0.004000 0.036688 -0.013693 0.000000 0.000000 0.000000
# 3 -0.004506 -0.013693 0.016884 0.000000 0.000000 0.000000
# 4 0.000000 0.000000 0.000000 0.063881 0.000000 0.000000
# 5 0.000000 0.000000 0.000000 0.000000 0.042881 0.000000
# 6 0.000000 0.000000 0.000000 0.000000 0.000000 0.057075
#
#
# Mechanical properties :
#
#
# Convention : Reuss Voigt Hill
#
# Bulk Modulus (GPa) = 46.69673 62.37932 54.53802
# Shear Modulus (GPa) = 17.78184 20.41074 19.09629
#
# Velocity S-wave (km/s) = 3.09739 3.31846 3.20983
# Velocity P-wave (km/s) = 6.16328 6.95259 6.56980
#
# Compressibility (1/GPa) = 0.02141478
#
# Stress axis : x y z
#
# Youngs Moduli (GPa) = 81.69905 27.25667 59.22665
#
# Poissons Ratio (x) = 0.10903 0.26689
# Poissons Ratio (y) = 0.32679 0.81097
# Poissons Ratio (z) = 0.36816 0.37322
#
# Static dielectric constant tensor:
#      x y z
#    x 3.707180 0.000000 0.000000 
#    y 0.000000 3.182920 0.000000 
#    z 0.000000 0.000000 3.316610 
# 
# 
# High freq. dielectric constant tensor:
#      x y z
#    x 1.742090 0.000000 0.000000 
#    y 0.000000 1.692210 0.000000 
#    z 0.000000 0.000000 1.711500 
# 
# From -- ./inp_files/71543.got.cif
#   From: 2010.03.12/outbox.cif.g09.slc.cpg/sg74_36_cif.got.tgz:71543.got - 2010.04.16 15:46:19.
