data_PCOD8299469
_publ_section_title
;
Structure prediction by ZEFSAII (Michael W. Deem and Ramdas Pophale) SiO2 
 PCOD8299469
Probable space group: I M M A
;
_chemical_formula_sum "Si O2"
_cell_formula_units_Z 96
_cell_length_a 18.050884
_cell_length_b 23.500347
_cell_length_c 11.862990
_cell_angle_alpha 90.000000
_cell_angle_beta 90.000000
_cell_angle_gamma 90.000000
_cell_volume 5032.304531
_symmetry_space_group_name_H-M "I M M A"
_symmetry_group_IT_number 74
_symmetry_cell_setting 'orthorhombic'
loop_
_space_group_symop_operation_xyz
x,y,z
-x,1/2-y,z
x,-y,-z
-x,1/2+y,-z
-x,-y,-z
x,1/2+y,-z
-x,y,z
x,1/2-y,z
1/2+x,1/2+y,1/2+z
1/2-x,-y,1/2+z
1/2+x,1/2-y,1/2-z
1/2-x,y,1/2-z
1/2-x,1/2-y,1/2-z
1/2+x,y,1/2-z
1/2-x,1/2+y,1/2+z
1/2+x,-y,1/2+z
loop_
_atom_site_type_symbol
_atom_site_label
_atom_site_fract_x
_atom_site_fract_y
_atom_site_fract_z
Si Si1 0.084877 0.528002 0.736711
Si Si2 0.671878 0.814654 0.709223
Si Si3 0.412092 0.133052 0.100262
Si Si4 0.585346 0.893329 0.555303
Si Si5 0.588121 0.908323 0.301256
Si Si6 0.588214 0.685477 0.131472
O O1 0.120057 0.571377 0.643457
O O2 0.092705 0.552471 0.863151
O O3 0.121211 0.464826 0.738516
O O4 0.000000 0.521385 0.702491
O O5 0.684520 0.750000 0.674558
O O6 0.750000 0.841853 0.750000
O O7 0.613033 0.819544 0.810525
O O8 0.640088 0.844429 0.598130
O O9 0.500000 0.131317 0.101348
O O10 0.381721 0.151644 0.978310
O O11 0.500000 0.871641 0.553528
O O12 0.613768 0.908584 0.430612
O O13 0.500000 0.911972 0.295574
O O14 0.616006 0.850954 0.238999
O O15 0.500000 0.688476 0.127223
O O16 0.620265 0.750000 0.137485
#
# Coordination Sequence:
#
# PCOD8299469 Si02
#       6
#    16  16  16  16  16  16
#     4   8  14  25  43  70  96 117 151 197 242 285
#     4  10  20  32  47  69  94 123 162 204 246 289
#     4   9  17  30  49  72  95 122 160 202 243 286
#     4   9  17  29  47  72  97 124 158 199 248 295
#     4   9  16  26  43  70 101 127 155 195 242 293
#     4   9  17  27  40  64  99 134 161 189 232 282
#
# _framework density 19.076746
#
# number of rings (size 3 to 8) (size 9 to 14) (size 15 to 20)
#    0.000    3.000    0.000    2.500    0.000    5.333 
#    0.000    5.000    0.000    1.000   34.667    3.500 
#    0.000    0.000    0.000    0.000    0.000    0.000 
#
# Total GULP energy -594741.829538 kJ/mol
# GULP energy per Si atom -12390.454782 kJ/mol
# Density = 1.903333 g / cm^3
# Si number density = 19.076746 Si / 1000 Ang^3
#
#
#
# Elastic Constant Matrix: (Units=GPa)
#
#
# Indices 1 2 3 4 5 6 
#
# 1 18.3221 27.7425 10.1897 0.0000 0.0000 0.0000
# 2 27.7425 145.9408 66.8431 0.0000 0.0000 0.0000
# 3 10.1897 66.8431 100.0490 0.0000 0.0000 0.0000
# 4 0.0000 0.0000 0.0000 22.1829 0.0000 0.0000
# 5 0.0000 0.0000 0.0000 0.0000 8.1058 0.0000
# 6 0.0000 0.0000 0.0000 0.0000 0.0000 11.0203
#
#
#
# Elastic Compliance Matrix: (Units=1/GPa)
#
#
# Indices 1 2 3 4 5 6 
#
# 1 0.077177 -0.015952 0.002797 0.000000 0.000000 0.000000
# 2 -0.015952 0.013171 -0.007175 0.000000 0.000000 0.000000
# 3 0.002797 -0.007175 0.014504 0.000000 0.000000 0.000000
# 4 0.000000 0.000000 0.000000 0.045080 0.000000 0.000000
# 5 0.000000 0.000000 0.000000 0.000000 0.123369 0.000000
# 6 0.000000 0.000000 0.000000 0.000000 0.000000 0.090742
#
#
# Mechanical properties :
#
#
# Convention : Reuss Voigt Hill
#
# Bulk Modulus (GPa) = 15.57813 52.65138 34.11476
# Shear Modulus (GPa) = 11.73439 18.89757 15.31598
#
# Velocity S-wave (km/s) = 2.48284 3.15081 2.83655
# Velocity P-wave (km/s) = 4.05007 6.39503 5.35255
#
# Compressibility (1/GPa) = 0.06419254
#
# Stress axis : x y z
#
# Youngs Moduli (GPa) = 12.95721 75.92673 68.94849
#
# Poissons Ratio (x) = 1.21120 -0.19288
# Poissons Ratio (y) = 0.20670 0.49468
# Poissons Ratio (z) = -0.03625 0.54475
#
# Static dielectric constant tensor:
#      x y z
#    x 2.952570 0.000000 0.000000 
#    y 0.000000 3.741970 0.000000 
#    z 0.000000 0.000000 3.626980 
# 
# 
# High freq. dielectric constant tensor:
#      x y z
#    x 1.673540 0.000000 0.000000 
#    y 0.000000 1.747110 0.000000 
#    z 0.000000 0.000000 1.740740 
# 
# From -- ./inp_files/22432.got.cif
#   From: 2010.03.12/outbox.cif.g09.slc.cpg/sg74_12_cif.got.tgz:22432.got - 2010.04.16 15:46:19.
