data_PCOD8299140
_publ_section_title
;
Structure prediction by ZEFSAII (Michael W. Deem and Ramdas Pophale) SiO2 
 PCOD8299140
Probable space group: I M M A
;
_chemical_formula_sum "Si O2"
_cell_formula_units_Z 120
_cell_length_a 25.772971
_cell_length_b 8.633718
_cell_length_c 27.897659
_cell_angle_alpha 90.000000
_cell_angle_beta 90.000000
_cell_angle_gamma 90.000000
_cell_volume 6207.691214
_symmetry_space_group_name_H-M "I M M A"
_symmetry_group_IT_number 74
_symmetry_cell_setting 'orthorhombic'
loop_
_space_group_symop_operation_xyz
x,y,z
-x,1/2-y,z
x,-y,-z
-x,1/2+y,-z
-x,-y,-z
x,1/2+y,-z
-x,y,z
x,1/2-y,z
1/2+x,1/2+y,1/2+z
1/2-x,-y,1/2+z
1/2+x,1/2-y,1/2-z
1/2-x,y,1/2-z
1/2-x,1/2-y,1/2-z
1/2+x,y,1/2-z
1/2-x,1/2+y,1/2+z
1/2+x,-y,1/2+z
loop_
_atom_site_type_symbol
_atom_site_label
_atom_site_fract_x
_atom_site_fract_y
_atom_site_fract_z
Si Si1 0.439891 0.571420 0.145025
Si Si2 0.500000 0.066475 0.553203
Si Si3 0.146111 0.068267 0.297078
Si Si4 0.205527 0.566882 0.050654
Si Si5 0.604081 0.435037 0.402884
Si Si6 0.761180 0.569878 0.638137
Si Si7 0.843393 0.928770 0.808120
Si Si8 0.938326 0.577099 0.547604
O O1 0.500000 0.532128 0.150756
O O2 0.427577 0.750000 0.153640
O O3 0.411158 0.469197 0.184465
O O4 0.420052 0.525069 0.092328
O O5 0.500000 0.250000 0.550132
O O6 0.500000 0.000000 0.500000
O O7 0.449718 0.009891 0.581663
O O8 0.156131 0.250000 0.293281
O O9 0.188007 0.001454 0.335107
O O10 0.150475 0.991310 0.244082
O O11 0.198458 0.750000 0.048156
O O12 0.150251 0.489145 0.062472
O O13 0.249527 0.524492 0.089718
O O14 0.224778 0.500000 0.000000
O O15 0.600481 0.250000 0.405875
O O16 0.617215 0.494017 0.348729
O O17 0.767157 0.750000 0.624230
O O18 0.715192 0.544838 0.675728
O O19 0.856868 0.750000 0.802339
O O20 0.914595 0.500000 0.500000
O O21 0.915813 0.750000 0.553297
O O22 0.000000 0.581872 0.543872
#
# Coordination Sequence:
#
# PCOD8299140 Si02
#       8
#    16   8  16  16  16  16  16  16
#     4  10  21  36  51  71 105 144 180 218 264 320
#     4  12  24  38  56  82 116 154 196 240 287 336
#     4  10  19  34  58  84 107 138 181 228 274 324
#     4  11  21  35  56  82 114 150 187 225 276 335
#     4  10  20  37  58  82 113 149 192 237 281 332
#     4   9  18  34  57  84 112 139 175 224 276 328
#     4   8  16  33  58  84 108 138 178 224 273 327
#     4   9  16  28  49  74  97 124 162 207 254 304
#
# _framework density 19.330859
#
# number of rings (size 3 to 8) (size 9 to 14) (size 15 to 20)
#    0.000    2.267    0.000    4.600    0.000    4.533 
#    1.200    4.000    0.000    7.200    0.000    0.000 
#    0.000    0.000    0.000    0.000    0.000    0.000 
#
# Total GULP energy -743909.235490 kJ/mol
# GULP energy per Si atom -12398.487258 kJ/mol
# Density = 1.928686 g / cm^3
# Si number density = 19.330859 Si / 1000 Ang^3
#
#
#
# Elastic Constant Matrix: (Units=GPa)
#
#
# Indices 1 2 3 4 5 6 
#
# 1 76.5852 31.4076 56.9561 0.0000 0.0000 0.0000
# 2 31.4076 73.3576 33.7689 0.0000 0.0000 0.0000
# 3 56.9561 33.7689 148.7982 0.0000 0.0000 0.0000
# 4 0.0000 0.0000 0.0000 24.6794 0.0000 0.0000
# 5 0.0000 0.0000 0.0000 0.0000 22.4261 0.0000
# 6 0.0000 0.0000 0.0000 0.0000 0.0000 24.5726
#
#
#
# Elastic Compliance Matrix: (Units=1/GPa)
#
#
# Indices 1 2 3 4 5 6 
#
# 1 0.020168 -0.005674 -0.006432 0.000000 0.000000 0.000000
# 2 -0.005674 0.016818 -0.001645 0.000000 0.000000 0.000000
# 3 -0.006432 -0.001645 0.009556 0.000000 0.000000 0.000000
# 4 0.000000 0.000000 0.000000 0.040520 0.000000 0.000000
# 5 0.000000 0.000000 0.000000 0.000000 0.044591 0.000000
# 6 0.000000 0.000000 0.000000 0.000000 0.000000 0.040696
#
#
# Mechanical properties :
#
#
# Convention : Reuss Voigt Hill
#
# Bulk Modulus (GPa) = 52.52066 60.33401 56.42733
# Shear Modulus (GPa) = 24.24871 26.10950 25.17910
#
# Velocity S-wave (km/s) = 3.54560 3.67913 3.61298
# Velocity P-wave (km/s) = 6.63250 7.02331 6.83070
#
# Compressibility (1/GPa) = 0.01904013
#
# Stress axis : x y z
#
# Youngs Moduli (GPa) = 49.58446 59.45897 104.64795
#
# Poissons Ratio (x) = 0.33736 0.67310
# Poissons Ratio (y) = 0.28133 0.17215
# Poissons Ratio (z) = 0.31893 0.09781
#
# Static dielectric constant tensor:
#      x y z
#    x 3.383690 0.000000 0.000000 
#    y 0.000000 3.402430 0.000000 
#    z 0.000000 0.000000 3.849780 
# 
# 
# High freq. dielectric constant tensor:
#      x y z
#    x 1.733700 0.000000 0.000000 
#    y 0.000000 1.739040 0.000000 
#    z 0.000000 0.000000 1.765800 
# 
# From -- ./inp_files/69021.got.cif
#   From: 2010.03.12/outbox.cif.g09.slc.cpg/sg74_35_cif.got.tgz:69021.got - 2010.04.16 15:46:19.
