data_PCOD8299949
_publ_section_title
;
Structure prediction by ZEFSAII (Michael W. Deem and Ramdas Pophale) SiO2 
 PCOD8299949
Probable space group: I M M A
;
_chemical_formula_sum "Si O2"
_cell_formula_units_Z 104
_cell_length_a 21.375481
_cell_length_b 8.797197
_cell_length_c 26.793727
_cell_angle_alpha 90.000000
_cell_angle_beta 90.000000
_cell_angle_gamma 90.000000
_cell_volume 5038.408102
_symmetry_space_group_name_H-M "I M M A"
_symmetry_group_IT_number 74
_symmetry_cell_setting 'orthorhombic'
loop_
_space_group_symop_operation_xyz
x,y,z
-x,1/2-y,z
x,-y,-z
-x,1/2+y,-z
-x,-y,-z
x,1/2+y,-z
-x,y,z
x,1/2-y,z
1/2+x,1/2+y,1/2+z
1/2-x,-y,1/2+z
1/2+x,1/2-y,1/2-z
1/2-x,y,1/2-z
1/2-x,1/2-y,1/2-z
1/2+x,y,1/2-z
1/2-x,1/2+y,1/2+z
1/2+x,-y,1/2+z
loop_
_atom_site_type_symbol
_atom_site_label
_atom_site_fract_x
_atom_site_fract_y
_atom_site_fract_z
Si Si1 0.385564 0.570889 0.381185
Si Si2 0.500000 0.072025 0.553071
Si Si3 0.189939 0.570171 0.717688
Si Si4 0.183609 0.072324 0.612133
Si Si5 0.927843 0.429792 0.770988
Si Si6 0.285723 0.070096 0.447969
Si Si7 0.569068 0.073761 0.949908
O O1 0.371685 0.750000 0.384364
O O2 0.439960 0.516442 0.417483
O O3 0.405775 0.522382 0.326003
O O4 0.326222 0.476725 0.399612
O O5 0.500000 0.250000 0.547373
O O6 0.500000 0.000000 0.500000
O O7 0.184809 0.750000 0.720088
O O8 0.250000 0.513383 0.750000
O O9 0.203047 0.515694 0.661818
O O10 0.122798 0.502655 0.733972
O O11 0.199589 0.250000 0.618467
O O12 0.110974 0.043622 0.599076
O O13 0.218689 0.002163 0.564147
O O14 0.925602 0.250000 0.763960
O O15 0.000000 0.485682 0.761577
O O16 0.282726 0.250000 0.453399
O O17 0.311531 0.000000 0.500000
O O18 0.500000 0.007932 0.938023
O O19 0.566311 0.250000 0.961579
O O20 0.597123 0.000000 0.000000
#
# Coordination Sequence:
#
# PCOD8299949 Si02
#       7
#    16   8  16  16  16  16  16
#     4  10  20  38  61  86 119 157 201 249 302 359
#     4  10  20  34  54  82 116 152 194 244 293 348
#     4  11  25  43  62  89 125 161 204 259 315 374
#     4  11  23  40  63  89 118 156 200 249 306 365
#     4  10  21  40  66  93 122 161 208 259 314 374
#     4  12  25  40  59  87 123 162 205 252 303 362
#     4   9  19  36  59  88 120 152 188 231 283 348
#
# _framework density 20.641441
#
# number of rings (size 3 to 8) (size 9 to 14) (size 15 to 20)
#    0.000    1.538    0.769    4.154    0.000    9.538 
#    0.000    1.538    0.000    0.000    0.000    0.000 
#    0.000    0.000    0.000    0.000    0.000    0.000 
#
# Total GULP energy -644739.433180 kJ/mol
# GULP energy per Si atom -12398.835253 kJ/mol
# Density = 2.059446 g / cm^3
# Si number density = 20.641441 Si / 1000 Ang^3
#
#
#
# Elastic Constant Matrix: (Units=GPa)
#
#
# Indices 1 2 3 4 5 6 
#
# 1 110.9485 35.6734 32.1083 0.0000 0.0000 0.0000
# 2 35.6734 49.7340 22.7595 0.0000 0.0000 0.0000
# 3 32.1083 22.7595 85.1032 0.0000 0.0000 0.0000
# 4 0.0000 0.0000 0.0000 35.0197 0.0000 0.0000
# 5 0.0000 0.0000 0.0000 0.0000 37.2669 0.0000
# 6 0.0000 0.0000 0.0000 0.0000 0.0000 24.2682
#
#
#
# Elastic Compliance Matrix: (Units=1/GPa)
#
#
# Indices 1 2 3 4 5 6 
#
# 1 0.012191 -0.007566 -0.002576 0.000000 0.000000 0.000000
# 2 -0.007566 0.027606 -0.004528 0.000000 0.000000 0.000000
# 3 -0.002576 -0.004528 0.013933 0.000000 0.000000 0.000000
# 4 0.000000 0.000000 0.000000 0.028555 0.000000 0.000000
# 5 0.000000 0.000000 0.000000 0.000000 0.026833 0.000000
# 6 0.000000 0.000000 0.000000 0.000000 0.000000 0.041206
#
#
# Mechanical properties :
#
#
# Convention : Reuss Voigt Hill
#
# Bulk Modulus (GPa) = 41.00018 47.42980 44.21499
# Shear Modulus (GPa) = 26.62454 29.66058 28.14256
#
# Velocity S-wave (km/s) = 3.59536 3.79482 3.69643
# Velocity P-wave (km/s) = 6.09439 6.49836 6.29961
#
# Compressibility (1/GPa) = 0.02439014
#
# Stress axis : x y z
#
# Youngs Moduli (GPa) = 82.02513 36.22403 71.76954
#
# Poissons Ratio (x) = 0.27406 0.18490
# Poissons Ratio (y) = 0.62058 0.32500
# Poissons Ratio (z) = 0.21132 0.16403
#
# Static dielectric constant tensor:
#      x y z
#    x 4.382130 0.000000 0.000000 
#    y 0.000000 3.642730 0.000000 
#    z 0.000000 0.000000 3.722060 
# 
# 
# High freq. dielectric constant tensor:
#      x y z
#    x 1.823970 0.000000 0.000000 
#    y 0.000000 1.797390 0.000000 
#    z 0.000000 0.000000 1.809920 
# 
# From -- ./inp_files/68270.got.cif
#   From: 2010.03.12/outbox.cif.g09.slc.cpg/sg74_35_cif.got.tgz:68270.got - 2010.04.16 15:46:19.
