data_PCOD8299365
_publ_section_title
;
Structure prediction by ZEFSAII (Michael W. Deem and Ramdas Pophale) SiO2 
 PCOD8299365
Probable space group: I M M A
;
_chemical_formula_sum "Si O2"
_cell_formula_units_Z 112
_cell_length_a 13.890895
_cell_length_b 17.170403
_cell_length_c 28.176095
_cell_angle_alpha 90.000000
_cell_angle_beta 90.000000
_cell_angle_gamma 90.000000
_cell_volume 6720.344242
_symmetry_space_group_name_H-M "I M M A"
_symmetry_group_IT_number 74
_symmetry_cell_setting 'orthorhombic'
loop_
_space_group_symop_operation_xyz
x,y,z
-x,1/2-y,z
x,-y,-z
-x,1/2+y,-z
-x,-y,-z
x,1/2+y,-z
-x,y,z
x,1/2-y,z
1/2+x,1/2+y,1/2+z
1/2-x,-y,1/2+z
1/2+x,1/2-y,1/2-z
1/2-x,y,1/2-z
1/2-x,1/2-y,1/2-z
1/2+x,y,1/2-z
1/2-x,1/2+y,1/2+z
1/2+x,-y,1/2+z
loop_
_atom_site_type_symbol
_atom_site_label
_atom_site_fract_x
_atom_site_fract_y
_atom_site_fract_z
Si Si1 0.391350 0.660241 0.761216
Si Si2 0.107463 0.834285 0.902387
Si Si3 0.768734 0.608653 0.821956
Si Si4 0.721847 0.062058 0.641250
Si Si5 0.111956 0.496115 0.053405
Si Si6 0.610183 0.341319 0.825319
Si Si7 0.885898 0.662853 0.217656
O O1 0.500000 0.632703 0.769006
O O2 0.384672 0.750000 0.745281
O O3 0.334010 0.647136 0.810089
O O4 0.341356 0.605483 0.722480
O O5 0.117583 0.750000 0.928424
O O6 0.183697 0.835785 0.860468
O O7 0.000000 0.842977 0.880543
O O8 0.127103 0.904764 0.937520
O O9 0.751001 0.522206 0.839785
O O10 0.671750 0.051759 0.589456
O O11 0.820435 0.112169 0.638218
O O12 0.649982 0.102998 0.678171
O O13 0.000000 0.521096 0.057233
O O14 0.151594 0.500000 0.000000
O O15 0.500000 0.369370 0.832476
O O16 0.617740 0.250000 0.836197
O O17 0.647170 0.359107 0.771430
O O18 0.848205 0.750000 0.205221
O O19 0.000000 0.662165 0.217313
#
# Coordination Sequence:
#
# PCOD8299365 Si02
#       7
#    16  16  16  16  16  16  16
#     4  10  20  32  43  58  88 125 154 186 229 269
#     4   9  16  29  50  69  87 119 158 189 226 283
#     4  10  20  29  42  67  91 117 155 197 229 265
#     4  11  20  30  49  73  94 127 165 201 244 291
#     4   9  19  35  51  71 101 127 154 203 257 297
#     4   9  19  34  50  70 101 139 171 201 240 291
#     4   9  18  31  47  70 102 137 168 198 237 292
#
# _framework density 16.665813
#
# number of rings (size 3 to 8) (size 9 to 14) (size 15 to 20)
#    0.000    2.429    0.000    4.286    4.000    4.571 
#    0.000    1.429    0.000    3.857    0.000    0.000 
#    0.000    9.143    0.000    0.000    0.000    0.000 
#
# Total GULP energy -694075.598182 kJ/mol
# GULP energy per Si atom -12394.207110 kJ/mol
# Density = 1.662788 g / cm^3
# Si number density = 16.665813 Si / 1000 Ang^3
#
#
#
# Elastic Constant Matrix: (Units=GPa)
#
#
# Indices 1 2 3 4 5 6 
#
# 1 95.0391 32.9746 49.4101 0.0000 0.0000 0.0000
# 2 32.9746 74.8099 37.5131 0.0000 0.0000 0.0000
# 3 49.4101 37.5131 92.3921 0.0000 0.0000 0.0000
# 4 0.0000 0.0000 0.0000 15.1240 0.0000 0.0000
# 5 0.0000 0.0000 0.0000 0.0000 21.0781 0.0000
# 6 0.0000 0.0000 0.0000 0.0000 0.0000 27.5191
#
#
#
# Elastic Compliance Matrix: (Units=1/GPa)
#
#
# Indices 1 2 3 4 5 6 
#
# 1 0.015194 -0.003293 -0.006788 0.000000 0.000000 0.000000
# 2 -0.003293 0.017498 -0.005344 0.000000 0.000000 0.000000
# 3 -0.006788 -0.005344 0.016623 0.000000 0.000000 0.000000
# 4 0.000000 0.000000 0.000000 0.066120 0.000000 0.000000
# 5 0.000000 0.000000 0.000000 0.000000 0.047443 0.000000
# 6 0.000000 0.000000 0.000000 0.000000 0.000000 0.036338
#
#
# Mechanical properties :
#
#
# Convention : Reuss Voigt Hill
#
# Bulk Modulus (GPa) = 54.15549 55.78187 54.96868
# Shear Modulus (GPa) = 21.16657 22.23379 21.70018
#
# Velocity S-wave (km/s) = 3.56766 3.65649 3.61235
# Velocity P-wave (km/s) = 7.03821 7.16729 7.10304
#
# Compressibility (1/GPa) = 0.01846535
#
# Stress axis : x y z
#
# Youngs Moduli (GPa) = 65.81646 57.14862 60.15628
#
# Poissons Ratio (x) = 0.18820 0.40836
# Poissons Ratio (y) = 0.21674 0.32145
# Poissons Ratio (z) = 0.44679 0.30538
#
# Static dielectric constant tensor:
#      x y z
#    x 3.232860 0.000000 0.000000 
#    y 0.000000 3.195560 0.000000 
#    z 0.000000 0.000000 2.925440 
# 
# 
# High freq. dielectric constant tensor:
#      x y z
#    x 1.644860 0.000000 0.000000 
#    y 0.000000 1.649790 0.000000 
#    z 0.000000 0.000000 1.600380 
# 
# From -- ./inp_files/67219.got.cif
#   From: 2010.03.12/outbox.cif.g09.slc.cpg/sg74_34_cif.got.tgz:67219.got - 2010.04.16 15:46:19.
