data_PCOD8299936
_publ_section_title
;
Structure prediction by ZEFSAII (Michael W. Deem and Ramdas Pophale) SiO2 
 PCOD8299936
Probable space group: I M M A
;
_chemical_formula_sum "Si O2"
_cell_formula_units_Z 104
_cell_length_a 8.652271
_cell_length_b 25.776694
_cell_length_c 22.198829
_cell_angle_alpha 90.000000
_cell_angle_beta 90.000000
_cell_angle_gamma 90.000000
_cell_volume 4950.936947
_symmetry_space_group_name_H-M "I M M A"
_symmetry_group_IT_number 74
_symmetry_cell_setting 'orthorhombic'
loop_
_space_group_symop_operation_xyz
x,y,z
-x,1/2-y,z
x,-y,-z
-x,1/2+y,-z
-x,-y,-z
x,1/2+y,-z
-x,y,z
x,1/2-y,z
1/2+x,1/2+y,1/2+z
1/2-x,-y,1/2+z
1/2+x,1/2-y,1/2-z
1/2-x,y,1/2-z
1/2-x,1/2-y,1/2-z
1/2+x,y,1/2-z
1/2-x,1/2+y,1/2+z
1/2+x,-y,1/2+z
loop_
_atom_site_type_symbol
_atom_site_label
_atom_site_fract_x
_atom_site_fract_y
_atom_site_fract_z
Si Si1 0.316481 0.750000 0.314384
Si Si2 0.178231 0.628045 0.576996
Si Si3 0.319702 0.480603 0.434555
Si Si4 0.318081 0.962759 0.183714
Si Si5 0.826535 0.191110 0.980624
Si Si6 0.323698 0.141408 0.640650
Si Si7 0.181779 0.192527 0.311328
O O1 0.500000 0.750000 0.319910
O O2 0.250000 0.750000 0.250000
O O3 0.252507 0.802881 0.342459
O O4 0.289619 0.580366 0.563915
O O5 0.202585 0.675203 0.530491
O O6 0.232645 0.650540 0.640349
O O7 0.000000 0.610365 0.576117
O O8 0.255640 0.500000 0.500000
O O9 0.500000 0.493544 0.429574
O O10 0.242778 0.504870 0.374216
O O11 0.500000 0.971320 0.187738
O O12 0.250000 0.978901 0.250000
O O13 0.281036 0.902798 0.169991
O O14 0.790483 0.250000 0.956550
O O15 0.816428 0.144773 0.931473
O O16 0.000000 0.190799 0.007321
O O17 0.500000 0.132806 0.663234
O O18 0.249809 0.250000 0.325618
O O19 0.250000 0.170423 0.250000
O O20 0.000000 0.196299 0.307065
#
# Coordination Sequence:
#
# PCOD8299936 Si02
#       7
#     8  16  16  16  16  16  16
#     4  10  20  34  54  80 114 154 195 240 287 342
#     4  11  23  38  59  89 123 157 197 253 312 370
#     4  11  25  46  69  93 123 163 211 265 324 385
#     4  12  26  44  67  95 127 166 212 265 322 382
#     4  10  20  36  59  88 124 167 210 252 304 368
#     4  10  20  38  60  86 122 162 204 251 303 358
#     4   9  19  36  57  83 118 157 194 235 289 352
#
# _framework density 21.006125000000001
#
# number of rings (size 3 to 8) (size 9 to 14) (size 15 to 20)
#    0.000    1.538    0.769    4.154    0.000   10.154 
#    0.000    3.077    0.000    0.000    0.000    0.000 
#    0.000    0.000    0.000    0.000    0.000    0.000 
#
# Total GULP energy -644402.007015 kJ/mol
# GULP energy per Si atom -12392.346289 kJ/mol
# Density = 2.095831 g / cm^3
# Si number density = 21.006125 Si / 1000 Ang^3
#
#
#
# Elastic Constant Matrix: (Units=GPa)
#
#
# Indices 1 2 3 4 5 6 
#
# 1 61.1051 26.5260 47.0328 0.0000 0.0000 0.0000
# 2 26.5260 86.6800 48.8253 0.0000 0.0000 0.0000
# 3 47.0328 48.8253 145.5912 0.0000 0.0000 0.0000
# 4 0.0000 0.0000 0.0000 41.0970 0.0000 0.0000
# 5 0.0000 0.0000 0.0000 0.0000 34.9805 0.0000
# 6 0.0000 0.0000 0.0000 0.0000 0.0000 32.3837
#
#
#
# Elastic Compliance Matrix: (Units=1/GPa)
#
#
# Indices 1 2 3 4 5 6 
#
# 1 0.022590 -0.003455 -0.006139 0.000000 0.000000 0.000000
# 2 -0.003455 0.014752 -0.003831 0.000000 0.000000 0.000000
# 3 -0.006139 -0.003831 0.010137 0.000000 0.000000 0.000000
# 4 0.000000 0.000000 0.000000 0.024333 0.000000 0.000000
# 5 0.000000 0.000000 0.000000 0.000000 0.028587 0.000000
# 6 0.000000 0.000000 0.000000 0.000000 0.000000 0.030880
#
#
# Mechanical properties :
#
#
# Convention : Reuss Voigt Hill
#
# Bulk Modulus (GPa) = 48.47674 59.79385 54.13529
# Shear Modulus (GPa) = 30.30206 33.09171 31.69689
#
# Velocity S-wave (km/s) = 3.80219 3.97336 3.88872
# Velocity P-wave (km/s) = 6.51176 7.04108 6.78159
#
# Compressibility (1/GPa) = 0.02062845
#
# Stress axis : x y z
#
# Youngs Moduli (GPa) = 44.26660 67.78746 98.65317
#
# Poissons Ratio (x) = 0.23422 0.60564
# Poissons Ratio (y) = 0.15295 0.37794
# Poissons Ratio (z) = 0.27175 0.25970
#
# Static dielectric constant tensor:
#      x y z
#    x 3.598310 0.000000 0.000000 
#    y 0.000000 3.874090 0.000000 
#    z 0.000000 0.000000 4.034050 
# 
# 
# High freq. dielectric constant tensor:
#      x y z
#    x 1.808070 0.000000 0.000000 
#    y 0.000000 1.826990 0.000000 
#    z 0.000000 0.000000 1.836220 
# 
# From -- ./inp_files/49249.got.cif
#   From: 2010.03.12/outbox.cif.g09.slc.cpg/sg74_25_cif.got.tgz:49249.got - 2010.04.16 15:46:19.
