data_PCOD8299557
_publ_section_title
;
Structure prediction by ZEFSAII (Michael W. Deem and Ramdas Pophale) SiO2 
 PCOD8299557
Probable space group: I M M A
;
_chemical_formula_sum "Si O2"
_cell_formula_units_Z 64
_cell_length_a 9.185945
_cell_length_b 10.219939
_cell_length_c 37.762448
_cell_angle_alpha 90.000000
_cell_angle_beta 90.000000
_cell_angle_gamma 90.000000
_cell_volume 3545.130974
_symmetry_space_group_name_H-M "I M M A"
_symmetry_group_IT_number 74
_symmetry_cell_setting 'orthorhombic'
loop_
_space_group_symop_operation_xyz
x,y,z
-x,1/2-y,z
x,-y,-z
-x,1/2+y,-z
-x,-y,-z
x,1/2+y,-z
-x,y,z
x,1/2-y,z
1/2+x,1/2+y,1/2+z
1/2-x,-y,1/2+z
1/2+x,1/2-y,1/2-z
1/2-x,y,1/2-z
1/2-x,1/2-y,1/2-z
1/2+x,y,1/2-z
1/2-x,1/2+y,1/2+z
1/2+x,-y,1/2+z
loop_
_atom_site_type_symbol
_atom_site_label
_atom_site_fract_x
_atom_site_fract_y
_atom_site_fract_z
Si Si1 0.668732 0.100307 0.469474
Si Si2 0.329211 0.998512 0.668114
Si Si3 0.829246 0.250000 0.787352
Si Si4 0.169998 0.250000 0.213263
Si Si5 0.329467 0.099225 0.102248
O O1 0.500000 0.082164 0.459543
O O2 0.699757 0.250000 0.481622
O O3 0.763493 0.062233 0.435589
O O4 0.716154 0.000000 0.500000
O O5 0.500000 0.997383 0.659472
O O6 0.280963 0.875961 0.691494
O O7 0.243109 0.994704 0.631277
O O8 0.281386 0.125433 0.689845
O O9 0.750000 0.250000 0.750000
O O10 0.000000 0.250000 0.779513
O O11 0.250000 0.250000 0.250000
O O12 0.000000 0.250000 0.221111
O O13 0.500000 0.071997 0.101201
O O14 0.293588 0.250000 0.111470
#
# Coordination Sequence:
#
# PCOD8299557 Si02
#       5
#    16  16   8   8  16
#     4   9  18  34  56  80 107 141 178 215 258 311
#     4  10  20  36  55  77 105 140 179 217 262 317
#     4  10  22  38  56  78 107 142 177 218 270 323
#     4  10  20  32  52  78 103 132 171 216 260 307
#     4  10  20  34  55  82 109 140 178 222 268 310
#
# _framework density 18.052928999999999
#
# number of rings (size 3 to 8) (size 9 to 14) (size 15 to 20)
#    0.000    2.250    1.250    1.500    0.000    3.500 
#    2.250    0.000    0.000    0.000    0.000    0.000 
#    0.000    0.000    0.000    0.000    0.000    0.000 
#
# Total GULP energy -396914.441122 kJ/mol
# GULP energy per Si atom -12403.576285 kJ/mol
# Density = 1.801184 g / cm^3
# Si number density = 18.052929 Si / 1000 Ang^3
#
#
#
# Elastic Constant Matrix: (Units=GPa)
#
#
# Indices 1 2 3 4 5 6 
#
# 1 68.4233 45.7642 75.9329 0.0000 0.0000 0.0000
# 2 45.7642 135.5981 90.6257 0.0001 0.0000 0.0000
# 3 75.9329 90.6257 169.8334 0.0000 0.0000 0.0000
# 4 0.0000 0.0001 0.0000 43.2585 0.0000 0.0000
# 5 0.0000 0.0000 0.0000 0.0000 39.3343 0.0000
# 6 0.0000 0.0000 0.0000 0.0000 0.0000 6.4452
#
#
#
# Elastic Compliance Matrix: (Units=1/GPa)
#
#
# Indices 1 2 3 4 5 6 
#
# 1 0.029276 -0.001760 -0.012150 0.000000 0.000000 0.000000
# 2 -0.001760 0.011569 -0.005386 0.000000 0.000000 0.000000
# 3 -0.012150 -0.005386 0.014195 0.000000 0.000000 0.000000
# 4 0.000000 0.000000 0.000000 0.023117 0.000000 0.000000
# 5 0.000000 0.000000 0.000000 0.000000 0.025423 0.000000
# 6 0.000000 0.000000 0.000000 0.000000 0.000000 0.155155
#
#
# Mechanical properties :
#
#
# Convention : Reuss Voigt Hill
#
# Bulk Modulus (GPa) = 60.80461 88.72225 74.76343
# Shear Modulus (GPa) = 16.51209 28.57640 22.54424
#
# Velocity S-wave (km/s) = 3.02760 3.98291 3.53765
# Velocity P-wave (km/s) = 6.78058 8.39070 7.62824
#
# Compressibility (1/GPa) = 0.01644612
#
# Stress axis : x y z
#
# Youngs Moduli (GPa) = 34.15814 86.44075 70.44956
#
# Poissons Ratio (x) = 0.15215 0.85596
# Poissons Ratio (y) = 0.06012 0.37946
# Poissons Ratio (z) = 0.41502 0.46559
#
# Static dielectric constant tensor:
#      x y z
#    x 3.266660 0.000000 0.000000 
#    y 0.000000 3.389710 0.000000 
#    z 0.000000 0.000000 3.276250 
# 
# 
# High freq. dielectric constant tensor:
#      x y z
#    x 1.694990 0.000000 0.000000 
#    y 0.000000 1.695560 0.000000 
#    z 0.000000 0.000000 1.705650 
# 
# From -- ./inp_files/69758.got.cif
#   From: 2010.03.12/outbox.cif.g09.slc.cpg/sg74_35_cif.got.tgz:69758.got - 2010.04.16 15:46:19.
