data_PCOD8299997
_publ_section_title
;
Structure prediction by ZEFSAII (Michael W. Deem and Ramdas Pophale) SiO2 
 PCOD8299997
Probable space group: I M M A
;
_chemical_formula_sum "Si O2"
_cell_formula_units_Z 96
_cell_length_a 14.900854
_cell_length_b 13.316031
_cell_length_c 20.167164
_cell_angle_alpha 90.000000
_cell_angle_beta 90.000000
_cell_angle_gamma 90.000000
_cell_volume 4001.573396
_symmetry_space_group_name_H-M "I M M A"
_symmetry_group_IT_number 74
_symmetry_cell_setting 'orthorhombic'
loop_
_space_group_symop_operation_xyz
x,y,z
-x,1/2-y,z
x,-y,-z
-x,1/2+y,-z
-x,-y,-z
x,1/2+y,-z
-x,y,z
x,1/2-y,z
1/2+x,1/2+y,1/2+z
1/2-x,-y,1/2+z
1/2+x,1/2-y,1/2-z
1/2-x,y,1/2-z
1/2-x,1/2-y,1/2-z
1/2+x,y,1/2-z
1/2-x,1/2+y,1/2+z
1/2+x,-y,1/2+z
loop_
_atom_site_type_symbol
_atom_site_label
_atom_site_fract_x
_atom_site_fract_y
_atom_site_fract_z
Si Si1 0.158723 0.637300 0.333551
Si Si2 0.398260 0.368420 0.972519
Si Si3 0.598440 0.064246 0.360727
Si Si4 0.632456 0.863024 0.310487
Si Si5 0.718130 0.869744 0.905637
Si Si6 0.399302 0.868581 0.784906
O O1 0.121112 0.750000 0.335485
O O2 0.127024 0.582164 0.401067
O O3 0.264854 0.639176 0.330295
O O4 0.118966 0.592473 0.264803
O O5 0.500000 0.395970 0.991405
O O6 0.383242 0.250000 0.968494
O O7 0.334600 0.412631 0.030214
O O8 0.500000 0.108794 0.381316
O O9 0.677722 0.095157 0.410974
O O10 0.630819 0.105747 0.289576
O O11 0.585151 0.943135 0.358372
O O12 0.592359 0.750000 0.318209
O O13 0.714664 0.750000 0.904764
O O14 0.670393 0.915167 0.839005
O O15 0.500000 0.908674 0.799037
O O16 0.396977 0.750000 0.793625
#
# Coordination Sequence:
#
# PCOD8299997 Si02
#       6
#    16  16  16  16  16  16
#     4   8  16  32  57  86 112 147 190 236 291 351
#     4   9  17  32  58  91 123 154 188 230 292 364
#     4  11  23  35  54  82 113 154 201 249 293 336
#     4   9  19  36  59  84 112 150 197 245 295 344
#     4  10  20  34  56  84 120 161 192 230 288 353
#     4   9  18  33  54  82 114 150 194 239 289 352
#
# _framework density 23.990563999999999
#
# number of rings (size 3 to 8) (size 9 to 14) (size 15 to 20)
#    0.000    2.667    0.000    2.500    4.667    5.333 
#    0.000    2.500    0.000    3.000    0.000    4.667 
#    0.000    0.000    0.000    0.000    0.000    0.000 
#
# Total GULP energy -594841.705965 kJ/mol
# GULP energy per Si atom -12392.535541 kJ/mol
# Density = 2.393596 g / cm^3
# Si number density = 23.990564 Si / 1000 Ang^3
#
#
#
# Elastic Constant Matrix: (Units=GPa)
#
#
# Indices 1 2 3 4 5 6 
#
# 1 153.7359 10.3907 72.3757 0.0000 0.0000 0.0000
# 2 10.3907 22.9786 21.7169 0.0000 0.0000 0.0000
# 3 72.3757 21.7169 105.7399 0.0000 0.0000 0.0000
# 4 0.0000 0.0000 0.0000 21.5687 0.0000 0.0000
# 5 0.0000 0.0000 0.0000 0.0000 26.8326 0.0000
# 6 0.0000 0.0000 0.0000 0.0000 0.0000 5.6120
#
#
#
# Elastic Compliance Matrix: (Units=1/GPa)
#
#
# Indices 1 2 3 4 5 6 
#
# 1 0.009698 0.002343 -0.007119 0.000000 0.000000 0.000000
# 2 0.002343 0.054566 -0.012811 0.000000 0.000000 0.000000
# 3 -0.007119 -0.012811 0.016961 0.000000 0.000000 0.000000
# 4 0.000000 0.000000 0.000000 0.046364 0.000000 0.000000
# 5 0.000000 0.000000 0.000000 0.000000 0.037268 0.000000
# 6 0.000000 0.000000 0.000000 0.000000 0.000000 0.178190
#
#
# Mechanical properties :
#
#
# Convention : Reuss Voigt Hill
#
# Bulk Modulus (GPa) = 21.71467 54.60234 38.15851
# Shear Modulus (GPa) = 12.70420 22.66740 17.68580
#
# Velocity S-wave (km/s) = 2.30369 3.07717 2.71808
# Velocity P-wave (km/s) = 4.01833 5.95270 5.07846
#
# Compressibility (1/GPa) = 0.04605182
#
# Stress axis : x y z
#
# Youngs Moduli (GPa) = 103.11605 18.32631 58.95893
#
# Poissons Ratio (x) = -0.04294 0.41973
# Poissons Ratio (y) = -0.24159 0.75529
# Poissons Ratio (z) = 0.73409 0.23477
#
# Static dielectric constant tensor:
#      x y z
#    x 4.192250 0.000000 0.000000 
#    y 0.000000 4.369600 0.000000 
#    z 0.000000 0.000000 4.311960 
# 
# 
# High freq. dielectric constant tensor:
#      x y z
#    x 1.944230 0.000000 0.000000 
#    y 0.000000 1.965150 0.000000 
#    z 0.000000 0.000000 1.918120 
# 
# From -- ./inp_files/51932.got.cif
#   From: 2010.03.12/outbox.cif.g09.slc.cpg/sg74_26_cif.got.tgz:51932.got - 2010.04.16 15:46:19.
