data_PCOD8299924
_publ_section_title
;
Structure prediction by ZEFSAII (Michael W. Deem and Ramdas Pophale) SiO2 
 PCOD8299924
Probable space group: I M M A
;
_chemical_formula_sum "Si O2"
_cell_formula_units_Z 96
_cell_length_a 8.818715
_cell_length_b 19.447041
_cell_length_c 30.203837
_cell_angle_alpha 90.000000
_cell_angle_beta 90.000000
_cell_angle_gamma 90.000000
_cell_volume 5179.894985
_symmetry_space_group_name_H-M "I M M A"
_symmetry_group_IT_number 74
_symmetry_cell_setting 'orthorhombic'
loop_
_space_group_symop_operation_xyz
x,y,z
-x,1/2-y,z
x,-y,-z
-x,1/2+y,-z
-x,-y,-z
x,1/2+y,-z
-x,y,z
x,1/2-y,z
1/2+x,1/2+y,1/2+z
1/2-x,-y,1/2+z
1/2+x,1/2-y,1/2-z
1/2-x,y,1/2-z
1/2-x,1/2-y,1/2-z
1/2+x,y,1/2-z
1/2-x,1/2+y,1/2+z
1/2+x,-y,1/2+z
loop_
_atom_site_type_symbol
_atom_site_label
_atom_site_fract_x
_atom_site_fract_y
_atom_site_fract_z
Si Si1 0.823589 0.172445 0.490725
Si Si2 0.674901 0.042295 0.202911
Si Si3 0.824858 0.544378 0.380492
Si Si4 0.677996 0.457071 0.456585
Si Si5 0.822099 0.324131 0.201795
Si Si6 0.823978 0.327964 0.914909
O O1 0.795454 0.250000 0.472590
O O2 0.763356 0.116659 0.455608
O O3 0.730470 0.160100 0.535322
O O4 0.000000 0.160362 0.500674
O O5 0.500000 0.057041 0.211564
O O6 0.750000 0.024728 0.250000
O O7 0.746078 0.110013 0.178301
O O8 0.701390 0.979027 0.169934
O O9 0.725809 0.498775 0.413485
O O10 0.769856 0.623148 0.382179
O O11 0.000000 0.538272 0.394311
O O12 0.725832 0.500000 0.500000
O O13 0.500000 0.443083 0.455272
O O14 0.788180 0.250000 0.178267
O O15 0.750000 0.322764 0.250000
O O16 0.000000 0.336444 0.205464
O O17 0.794390 0.250000 0.899493
O O18 0.000000 0.347590 0.912953
#
# Coordination Sequence:
#
# PCOD8299924 Si02
#       6
#    16  16  16  16  16  16
#     4  10  20  34  54  79 109 147 185 223 269 319
#     4  10  21  36  55  80 107 140 181 225 274 324
#     4  11  23  37  56  82 110 143 183 224 271 325
#     4  11  22  35  54  81 110 144 182 221 268 318
#     4   9  16  27  47  74 101 132 171 214 261 312
#     4  10  20  34  54  81 110 140 178 222 267 320
#
# _framework density 18.533196
#
# number of rings (size 3 to 8) (size 9 to 14) (size 15 to 20)
#    0.000    1.833    1.667    4.000    0.000    6.333 
#    0.000    0.833    0.000    1.500    0.000    0.000 
#    0.000    0.000    0.000    0.000    0.000    0.000 
#
# Total GULP energy -595099.988641 kJ/mol
# GULP energy per Si atom -12397.916430 kJ/mol
# Density = 1.849101 g / cm^3
# Si number density = 18.533196 Si / 1000 Ang^3
#
#
#
# Elastic Constant Matrix: (Units=GPa)
#
#
# Indices 1 2 3 4 5 6 
#
# 1 85.4020 46.2427 29.7020 0.0000 0.0000 0.0000
# 2 46.2427 125.2019 38.2271 0.0000 0.0000 0.0000
# 3 29.7020 38.2271 57.6142 0.0000 0.0000 0.0000
# 4 0.0000 0.0000 0.0000 27.2457 0.0000 0.0000
# 5 0.0000 0.0000 0.0000 0.0000 23.3443 0.0000
# 6 0.0000 0.0000 0.0000 0.0000 0.0000 35.7817
#
#
#
# Elastic Compliance Matrix: (Units=1/GPa)
#
#
# Indices 1 2 3 4 5 6 
#
# 1 0.015864 -0.004216 -0.005381 0.000000 0.000000 0.000000
# 2 -0.004216 0.011137 -0.005216 0.000000 0.000000 0.000000
# 3 -0.005381 -0.005216 0.023591 0.000000 0.000000 0.000000
# 4 0.000000 0.000000 0.000000 0.036703 0.000000 0.000000
# 5 0.000000 0.000000 0.000000 0.000000 0.042837 0.000000
# 6 0.000000 0.000000 0.000000 0.000000 0.000000 0.027947
#
#
# Mechanical properties :
#
#
# Convention : Reuss Voigt Hill
#
# Bulk Modulus (GPa) = 47.69509 55.17352 51.43430
# Shear Modulus (GPa) = 25.68141 27.54410 26.61275
#
# Velocity S-wave (km/s) = 3.72653 3.85931 3.79350
# Velocity P-wave (km/s) = 6.65634 7.04938 6.85568
#
# Compressibility (1/GPa) = 0.02096652
#
# Stress axis : x y z
#
# Youngs Moduli (GPa) = 63.03704 89.79200 42.38835
#
# Poissons Ratio (x) = 0.37859 0.22808
# Poissons Ratio (y) = 0.26578 0.22108
# Poissons Ratio (z) = 0.33918 0.46833
#
# Static dielectric constant tensor:
#      x y z
#    x 3.576650 0.000000 0.000000 
#    y 0.000000 3.972730 0.000000 
#    z 0.000000 0.000000 2.983670 
# 
# 
# High freq. dielectric constant tensor:
#      x y z
#    x 1.739330 0.000000 0.000000 
#    y 0.000000 1.733490 0.000000 
#    z 0.000000 0.000000 1.670600 
# 
# From -- ./inp_files/64361.got.cif
#   From: 2010.03.12/outbox.cif.g09.slc.cpg/sg74_33_cif.got.tgz:64361.got - 2010.04.16 15:46:19.
