data_PCOD8299286
_publ_section_title
;
Structure prediction by ZEFSAII (Michael W. Deem and Ramdas Pophale) SiO2 
 PCOD8299286
Probable space group: I M M A
;
_chemical_formula_sum "Si O2"
_cell_formula_units_Z 128
_cell_length_a 22.822737
_cell_length_b 24.448296
_cell_length_c 11.687669
_cell_angle_alpha 90.000000
_cell_angle_beta 90.000000
_cell_angle_gamma 90.000000
_cell_volume 6521.450833
_symmetry_space_group_name_H-M "I M M A"
_symmetry_group_IT_number 74
_symmetry_cell_setting 'orthorhombic'
loop_
_space_group_symop_operation_xyz
x,y,z
-x,1/2-y,z
x,-y,-z
-x,1/2+y,-z
-x,-y,-z
x,1/2+y,-z
-x,y,z
x,1/2-y,z
1/2+x,1/2+y,1/2+z
1/2-x,-y,1/2+z
1/2+x,1/2-y,1/2-z
1/2-x,y,1/2-z
1/2-x,1/2-y,1/2-z
1/2+x,y,1/2-z
1/2-x,1/2+y,1/2+z
1/2+x,-y,1/2+z
loop_
_atom_site_type_symbol
_atom_site_label
_atom_site_fract_x
_atom_site_fract_y
_atom_site_fract_z
Si Si1 0.566964 0.411452 0.034412
Si Si2 0.431416 0.414767 0.767805
Si Si3 0.433648 0.688546 0.812915
Si Si4 0.819210 0.465147 0.392248
Si Si5 0.292785 0.583734 0.536204
Si Si6 0.931057 0.190592 0.861387
Si Si7 0.666676 0.482043 0.664393
Si Si8 0.864391 0.187109 0.087687
O O1 0.500000 0.431979 0.056181
O O2 0.574675 0.349097 0.075312
O O3 0.612486 0.447396 0.108201
O O4 0.584091 0.417709 0.902016
O O5 0.500000 0.422762 0.745989
O O6 0.407960 0.355911 0.724368
O O7 0.398700 0.461138 0.694631
O O8 0.500000 0.684274 0.766841
O O9 0.419146 0.750000 0.852974
O O10 0.391473 0.670313 0.709888
O O11 0.801866 0.500000 0.500000
O O12 0.771978 0.416103 0.405912
O O13 0.802891 0.502541 0.284437
O O14 0.296418 0.565463 0.401956
O O15 0.336537 0.539393 0.595366
O O16 0.312118 0.645936 0.557138
O O17 0.906157 0.250000 0.821777
O O18 0.000000 0.191341 0.857265
O O19 0.913606 0.178837 0.991809
O O20 0.841477 0.250000 0.089964
#
# Coordination Sequence:
#
# PCOD8299286 Si02
#       8
#    16  16  16  16  16  16  16  16
#     4  10  22  38  58  84 113 151 195 244 297 350
#     4  10  20  35  56  84 120 156 195 248 301 346
#     4   9  18  34  57  86 119 157 199 243 294 351
#     4  12  23  38  61  83 110 153 196 240 286 348
#     4  11  24  39  61  88 115 156 200 241 287 356
#     4   9  17  30  53  84 116 155 198 236 286 351
#     4  11  22  39  57  83 120 151 196 242 287 344
#     4  10  19  36  61  87 120 155 192 244 296 345
#
# _framework density 19.627534000000001
#
# number of rings (size 3 to 8) (size 9 to 14) (size 15 to 20)
#    0.000    1.750    3.750    1.500    0.000    2.750 
#    0.000    5.625    0.000    3.000    0.000    2.625 
#    0.000    0.000    0.000    0.000    0.000    0.000 
#
# Total GULP energy -793083.660818 kJ/mol
# GULP energy per Si atom -12391.932200 kJ/mol
# Density = 1.958286 g / cm^3
# Si number density = 19.627534 Si / 1000 Ang^3
#
#
#
# Elastic Constant Matrix: (Units=GPa)
#
#
# Indices 1 2 3 4 5 6 
#
# 1 82.4066 42.0362 38.7034 0.0000 0.0000 0.0000
# 2 42.0362 84.6686 31.6871 0.0000 0.0000 0.0000
# 3 38.7034 31.6871 91.4490 0.0000 0.0000 0.0000
# 4 0.0000 0.0000 0.0000 29.3403 0.0000 0.0000
# 5 0.0000 0.0000 0.0000 0.0000 -7.0363 0.0000
# 6 0.0000 0.0000 0.0000 0.0000 0.0000 24.9786
#
#
#
# Elastic Compliance Matrix: (Units=1/GPa)
#
#
# Indices 1 2 3 4 5 6 
#
# 1 0.018213 -0.007075 -0.005257 0.000000 0.000000 0.000000
# 2 -0.007075 0.016319 -0.002660 0.000000 0.000000 0.000000
# 3 -0.005257 -0.002660 0.014082 0.000000 0.000000 0.000000
# 4 0.000000 0.000000 0.000000 0.034083 0.000000 0.000000
# 5 0.000000 0.000000 0.000000 0.000000 -0.142119 0.000000
# 6 0.000000 0.000000 0.000000 0.000000 0.000000 0.040034
#
#
# Mechanical properties :
#
#
# Convention : Reuss Voigt Hill
#
# Bulk Modulus (GPa) = 53.67788 53.70863 53.69326
# Shear Modulus (GPa) = 297.54015 19.19634 158.36825
#
# Velocity S-wave (km/s) = 12.32568 3.13074 8.99233
# Velocity P-wave (km/s) = 15.16479 6.36334 11.62890
#
# Compressibility (1/GPa) = 0.01862965
#
# Stress axis : x y z
#
# Youngs Moduli (GPa) = 54.90643 61.27856 71.01497
#
# Poissons Ratio (x) = 0.43355 0.37330
# Poissons Ratio (y) = 0.38846 0.18891
# Poissons Ratio (z) = 0.28862 0.16301
#
# Static dielectric constant tensor:
#      x y z
#    x 3.460340 0.000000 0.000000 
#    y 0.000000 3.775730 0.000000 
#    z 0.000000 0.000000 4.064700 
# 
# 
# High freq. dielectric constant tensor:
#      x y z
#    x 1.749040 0.000000 0.000000 
#    y 0.000000 1.761160 0.000000 
#    z 0.000000 0.000000 1.770090 
# 
# From -- ./inp_files/25591.got.cif
#   From: 2010.03.12/outbox.cif.g09.slc.cpg/sg74_13_cif.got.tgz:25591.got - 2010.04.16 15:46:19.
