data_PCOD8299460
_publ_section_title
;
Structure prediction by ZEFSAII (Michael W. Deem and Ramdas Pophale) SiO2 
 PCOD8299460
Probable space group: I M M A
;
_chemical_formula_sum "Si O2"
_cell_formula_units_Z 80
_cell_length_a 19.166474
_cell_length_b 18.668849
_cell_length_c 12.744030
_cell_angle_alpha 90.000000
_cell_angle_beta 90.000000
_cell_angle_gamma 90.000000
_cell_volume 4560.017953
_symmetry_space_group_name_H-M "I M M A"
_symmetry_group_IT_number 74
_symmetry_cell_setting 'orthorhombic'
loop_
_space_group_symop_operation_xyz
x,y,z
-x,1/2-y,z
x,-y,-z
-x,1/2+y,-z
-x,-y,-z
x,1/2+y,-z
-x,y,z
x,1/2-y,z
1/2+x,1/2+y,1/2+z
1/2-x,-y,1/2+z
1/2+x,1/2-y,1/2-z
1/2-x,y,1/2-z
1/2-x,1/2-y,1/2-z
1/2+x,y,1/2-z
1/2-x,1/2+y,1/2+z
1/2+x,-y,1/2+z
loop_
_atom_site_type_symbol
_atom_site_label
_atom_site_fract_x
_atom_site_fract_y
_atom_site_fract_z
Si Si1 0.818750 0.165134 0.118387
Si Si2 0.417454 0.920510 0.016531
Si Si3 0.082920 0.830011 0.289774
Si Si4 0.078093 0.664663 0.057258
Si Si5 0.336812 0.165396 0.146888
O O1 0.822190 0.250000 0.113296
O O2 0.738676 0.141118 0.101874
O O3 0.845058 0.140131 0.232656
O O4 0.868566 0.131661 0.028451
O O5 0.500000 0.923507 0.023115
O O6 0.397295 0.872316 0.917836
O O7 0.387042 0.884953 0.123401
O O8 0.386320 0.000000 0.000000
O O9 0.113302 0.750000 0.311159
O O10 0.104430 0.857675 0.173670
O O11 0.000000 0.825881 0.295715
O O12 0.076251 0.750000 0.050961
O O13 0.000000 0.634796 0.035076
O O14 0.346416 0.250000 0.137302
#
# Coordination Sequence:
#
# PCOD8299460 Si02
#       5
#    16  16  16  16  16
#     4   8  15  28  47  71  96 121 149 186 236 283
#     4  10  20  32  47  66  91 123 157 196 237 278
#     4   8  14  26  45  68  93 120 149 185 231 276
#     4   8  13  23  43  70  97 121 146 184 229 272
#     4   9  17  30  49  69  93 124 153 190 235 279
#
# _framework density 17.543790999999999
#
# number of rings (size 3 to 8) (size 9 to 14) (size 15 to 20)
#    0.000    3.400    0.000    3.000    0.000    2.000 
#    0.000    3.000    8.800    4.800    0.000    5.600 
#    0.000    0.000    0.000    0.000    0.000    0.000 
#
# Total GULP energy -495714.750857 kJ/mol
# GULP energy per Si atom -12392.868771 kJ/mol
# Density = 1.750386 g / cm^3
# Si number density = 17.543791 Si / 1000 Ang^3
#
#
#
# Elastic Constant Matrix: (Units=GPa)
#
#
# Indices 1 2 3 4 5 6 
#
# 1 23.8349 21.7926 36.9515 0.0000 0.0000 0.0000
# 2 21.7926 55.2353 50.1974 0.0000 0.0000 0.0000
# 3 36.9515 50.1974 138.7950 0.0000 0.0000 0.0000
# 4 0.0000 0.0000 0.0000 2.3796 0.0000 0.0000
# 5 0.0000 0.0000 0.0000 0.0000 23.5740 0.0000
# 6 0.0000 0.0000 0.0000 0.0000 0.0000 11.4737
#
#
#
# Elastic Compliance Matrix: (Units=1/GPa)
#
#
# Indices 1 2 3 4 5 6 
#
# 1 0.082771 -0.018814 -0.015232 0.000000 0.000000 0.000000
# 2 -0.018814 0.031245 -0.006291 0.000000 0.000000 0.000000
# 3 -0.015232 -0.006291 0.013535 0.000000 0.000000 0.000000
# 4 0.000000 0.000000 0.000000 0.420240 0.000000 0.000000
# 5 0.000000 0.000000 0.000000 0.000000 0.042420 0.000000
# 6 0.000000 0.000000 0.000000 0.000000 0.000000 0.087156
#
#
# Mechanical properties :
#
#
# Convention : Reuss Voigt Hill
#
# Bulk Modulus (GPa) = 21.33242 48.41646 34.87444
# Shear Modulus (GPa) = 6.46273 14.74703 10.60488
#
# Velocity S-wave (km/s) = 1.92140 2.90243 2.46129
# Velocity P-wave (km/s) = 4.13622 6.23615 5.29140
#
# Compressibility (1/GPa) = 0.04687701
#
# Stress axis : x y z
#
# Youngs Moduli (GPa) = 12.08151 32.00547 73.88033
#
# Poissons Ratio (x) = 0.60215 1.12534
# Poissons Ratio (y) = 0.22730 0.46480
# Poissons Ratio (z) = 0.18402 0.20135
#
# Static dielectric constant tensor:
#      x y z
#    x 3.180930 0.000000 0.000000 
#    y 0.000000 2.982400 0.000000 
#    z 0.000000 0.000000 3.694940 
# 
# 
# High freq. dielectric constant tensor:
#      x y z
#    x 1.652520 0.000000 0.000000 
#    y 0.000000 1.628830 0.000000 
#    z 0.000000 0.000000 1.691970 
# 
# From -- ./inp_files/35369.got.cif
#   From: 2010.03.12/outbox.cif.g09.slc.cpg/sg74_18_cif.got.tgz:35369.got - 2010.04.16 15:46:19.
