data_PCOD8299996
_publ_section_title
;
Structure prediction by ZEFSAII (Michael W. Deem and Ramdas Pophale) SiO2 
 PCOD8299996
Probable space group: I M M A
;
_chemical_formula_sum "Si O2"
_cell_formula_units_Z 120
_cell_length_a 25.746407
_cell_length_b 9.205728
_cell_length_c 27.405426
_cell_angle_alpha 90.000000
_cell_angle_beta 90.000000
_cell_angle_gamma 90.000000
_cell_volume 6495.481143
_symmetry_space_group_name_H-M "I M M A"
_symmetry_group_IT_number 74
_symmetry_cell_setting 'orthorhombic'
loop_
_space_group_symop_operation_xyz
x,y,z
-x,1/2-y,z
x,-y,-z
-x,1/2+y,-z
-x,-y,-z
x,1/2+y,-z
-x,y,z
x,1/2-y,z
1/2+x,1/2+y,1/2+z
1/2-x,-y,1/2+z
1/2+x,1/2-y,1/2-z
1/2-x,y,1/2-z
1/2-x,1/2-y,1/2-z
1/2+x,y,1/2-z
1/2-x,1/2+y,1/2+z
1/2+x,-y,1/2+z
loop_
_atom_site_type_symbol
_atom_site_label
_atom_site_fract_x
_atom_site_fract_y
_atom_site_fract_z
Si Si1 0.441347 0.584841 0.138142
Si Si2 0.500000 0.079277 0.551352
Si Si3 0.146606 0.915068 0.288569
Si Si4 0.208518 0.583572 0.048467
Si Si5 0.605626 0.579145 0.395437
Si Si6 0.753862 0.417000 0.649111
Si Si7 0.842492 0.922471 0.809989
Si Si8 0.938011 0.587235 0.545846
O O1 0.500000 0.539281 0.150927
O O2 0.438495 0.750000 0.119176
O O3 0.409280 0.563628 0.187291
O O4 0.417769 0.485675 0.095436
O O5 0.500000 0.250000 0.541025
O O6 0.449296 0.032134 0.581797
O O7 0.500000 0.000000 0.500000
O O8 0.153995 0.750000 0.269097
O O9 0.189277 0.949389 0.330134
O O10 0.148275 0.029546 0.245316
O O11 0.207031 0.750000 0.033396
O O12 0.151508 0.534783 0.067276
O O13 0.251115 0.553275 0.090887
O O14 0.225006 0.500000 0.000000
O O15 0.607554 0.750000 0.383710
O O16 0.613807 0.492993 0.344924
O O17 0.736805 0.250000 0.659046
O O18 0.714648 0.523665 0.676235
O O19 0.845752 0.750000 0.814052
O O20 0.914949 0.500000 0.500000
O O21 0.916396 0.750000 0.543468
O O22 0.000000 0.583087 0.544596
#
# Coordination Sequence:
#
# PCOD8299996 Si02
#       8
#    16   8  16  16  16  16  16  16
#     4   9  18  33  52  75 101 130 170 213 253 309
#     4  10  20  34  56  84 114 150 190 232 271 314
#     4  10  20  36  57  76 101 139 176 214 267 326
#     4   9  17  30  50  75 104 136 171 209 257 315
#     4   9  19  36  54  76 107 145 186 222 261 319
#     4   9  19  36  56  77 103 137 175 214 260 322
#     4  11  22  35  54  80 106 133 172 225 275 315
#     4   9  16  27  46  70  95 126 163 204 248 292
#
# _framework density 18.474381999999999
#
# number of rings (size 3 to 8) (size 9 to 14) (size 15 to 20)
#    0.000    2.533    0.000    3.200    0.000    6.933 
#    1.200    0.667    0.000    1.600    0.000    0.000 
#    0.000    0.000    0.000    0.000    0.000    0.000 
#
# Total GULP energy -744000.208301 kJ/mol
# GULP energy per Si atom -12400.003472 kJ/mol
# Density = 1.843233 g / cm^3
# Si number density = 18.474382 Si / 1000 Ang^3
#
#
#
# Elastic Constant Matrix: (Units=GPa)
#
#
# Indices 1 2 3 4 5 6 
#
# 1 82.0008 32.3430 51.8883 0.0000 0.0000 0.0000
# 2 32.3430 97.2537 64.7034 0.0000 0.0000 0.0000
# 3 51.8883 64.7034 134.2648 0.0000 0.0000 0.0000
# 4 0.0000 0.0000 0.0000 38.8586 0.0000 0.0000
# 5 0.0000 0.0000 0.0000 0.0000 21.5281 0.0000
# 6 0.0000 0.0000 0.0000 0.0000 0.0000 12.9217
#
#
#
# Elastic Compliance Matrix: (Units=1/GPa)
#
#
# Indices 1 2 3 4 5 6 
#
# 1 0.016358 -0.001817 -0.005446 0.000000 0.000000 0.000000
# 2 -0.001817 0.015337 -0.006689 0.000000 0.000000 0.000000
# 3 -0.005446 -0.006689 0.012776 0.000000 0.000000 0.000000
# 4 0.000000 0.000000 0.000000 0.025734 0.000000 0.000000
# 5 0.000000 0.000000 0.000000 0.000000 0.046451 0.000000
# 6 0.000000 0.000000 0.000000 0.000000 0.000000 0.077389
#
#
# Mechanical properties :
#
#
# Convention : Reuss Voigt Hill
#
# Bulk Modulus (GPa) = 60.36004 67.93209 64.14607
# Shear Modulus (GPa) = 21.98088 25.63400 23.80744
#
# Velocity S-wave (km/s) = 3.45309 3.72902 3.59370
# Velocity P-wave (km/s) = 6.97436 7.44255 7.21225
#
# Compressibility (1/GPa) = 0.01656725
#
# Stress axis : x y z
#
# Youngs Moduli (GPa) = 61.13308 65.20348 78.27090
#
# Poissons Ratio (x) = 0.11845 0.42628
# Poissons Ratio (y) = 0.11105 0.52354
# Poissons Ratio (z) = 0.33295 0.43613
#
# Static dielectric constant tensor:
#      x y z
#    x 3.290680 0.000000 0.000000 
#    y 0.000000 3.351750 0.000000 
#    z 0.000000 0.000000 3.375920 
# 
# 
# High freq. dielectric constant tensor:
#      x y z
#    x 1.697450 0.000000 0.000000 
#    y 0.000000 1.710250 0.000000 
#    z 0.000000 0.000000 1.719950 
# 
# From -- ./inp_files/69018.got.cif
#   From: 2010.03.12/outbox.cif.g09.slc.cpg/sg74_35_cif.got.tgz:69018.got - 2010.04.16 15:46:19.
