data_PCOD8299681
_publ_section_title
;
Structure prediction by ZEFSAII (Michael W. Deem and Ramdas Pophale) SiO2 
 PCOD8299681
Probable space group: I M M A
;
_chemical_formula_sum "Si O2"
_cell_formula_units_Z 80
_cell_length_a 25.896689
_cell_length_b 17.729181
_cell_length_c 9.074079
_cell_angle_alpha 90.000000
_cell_angle_beta 90.000000
_cell_angle_gamma 90.000000
_cell_volume 4166.155455
_symmetry_space_group_name_H-M "I M M A"
_symmetry_group_IT_number 74
_symmetry_cell_setting 'orthorhombic'
loop_
_space_group_symop_operation_xyz
x,y,z
-x,1/2-y,z
x,-y,-z
-x,1/2+y,-z
-x,-y,-z
x,1/2+y,-z
-x,y,z
x,1/2-y,z
1/2+x,1/2+y,1/2+z
1/2-x,-y,1/2+z
1/2+x,1/2-y,1/2-z
1/2-x,y,1/2-z
1/2-x,1/2-y,1/2-z
1/2+x,y,1/2-z
1/2-x,1/2+y,1/2+z
1/2+x,-y,1/2+z
loop_
_atom_site_type_symbol
_atom_site_label
_atom_site_fract_x
_atom_site_fract_y
_atom_site_fract_z
Si Si1 0.558826 0.334317 0.499048
Si Si2 0.803445 0.518347 0.672026
Si Si3 0.057672 0.063125 0.389976
Si Si4 0.366275 0.164685 0.220529
Si Si5 0.603421 0.032393 0.655899
O O1 0.500000 0.353310 0.442702
O O2 0.559496 0.250000 0.562694
O O3 0.601994 0.341072 0.372352
O O4 0.575107 0.387578 0.635482
O O5 0.798028 0.500000 0.500000
O O6 0.750000 0.500062 0.750000
O O7 0.818811 0.605631 0.710956
O O8 0.846321 0.461907 0.739879
O O9 0.092816 0.137927 0.405076
O O10 0.000000 0.086210 0.430190
O O11 0.079728 0.000000 0.500000
O O12 0.062655 0.027062 0.226313
O O13 0.346708 0.250000 0.190859
O O14 0.621436 0.000000 0.500000
#
# Coordination Sequence:
#
# PCOD8299681 Si02
#       5
#    16  16  16  16  16
#     4  10  20  33  55  90 128 162 197 236 285 348
#     4  11  24  42  65  87 111 147 199 250 305 360
#     4  10  20  33  51  81 118 156 200 240 278 338
#     4  10  20  35  57  85 118 151 192 242 291 350
#     4  11  19  34  58  83 114 152 193 242 289 342
#
# _framework density 19.202356999999999
#
# number of rings (size 3 to 8) (size 9 to 14) (size 15 to 20)
#    0.000    1.600    4.000    4.200    0.000    2.400 
#    0.000    4.000    0.000    2.400    0.000    0.000 
#    0.000    0.000    0.000    0.000    0.000    0.000 
#
# Total GULP energy -495555.670670 kJ/mol
# GULP energy per Si atom -12388.891767 kJ/mol
# Density = 1.915865 g / cm^3
# Si number density = 19.202357 Si / 1000 Ang^3
#
#
#
# Elastic Constant Matrix: (Units=GPa)
#
#
# Indices 1 2 3 4 5 6 
#
# 1 92.4652 26.3206 28.6555 0.0000 0.0000 0.0000
# 2 26.3206 112.3022 25.2772 0.0000 0.0000 0.0000
# 3 28.6555 25.2772 90.1958 0.0000 0.0000 0.0000
# 4 0.0000 0.0000 0.0000 28.2150 0.0000 0.0000
# 5 0.0000 0.0000 0.0000 0.0000 27.8010 0.0000
# 6 0.0000 0.0000 0.0000 0.0000 0.0000 22.6307
#
#
#
# Elastic Compliance Matrix: (Units=1/GPa)
#
#
# Indices 1 2 3 4 5 6 
#
# 1 0.012472 -0.002168 -0.003355 0.000000 0.000000 0.000000
# 2 -0.002168 0.009881 -0.002080 0.000000 0.000000 0.000000
# 3 -0.003355 -0.002080 0.012736 0.000000 0.000000 0.000000
# 4 0.000000 0.000000 0.000000 0.035442 0.000000 0.000000
# 5 0.000000 0.000000 0.000000 0.000000 0.035970 0.000000
# 6 0.000000 0.000000 0.000000 0.000000 0.000000 0.044188
#
#
# Mechanical properties :
#
#
# Convention : Reuss Voigt Hill
#
# Bulk Modulus (GPa) = 50.29583 50.60773 50.45178
# Shear Modulus (GPa) = 28.98186 30.04332 29.51259
#
# Velocity S-wave (km/s) = 3.88917 3.95975 3.92462
# Velocity P-wave (km/s) = 6.81300 6.87883 6.84599
#
# Compressibility (1/GPa) = 0.01988236
#
# Stress axis : x y z
#
# Youngs Moduli (GPa) = 80.18197 101.20535 78.51876
#
# Poissons Ratio (x) = 0.21941 0.26341
# Poissons Ratio (y) = 0.17383 0.16335
# Poissons Ratio (z) = 0.26899 0.21054
#
# Static dielectric constant tensor:
#      x y z
#    x 3.427400 0.000000 0.000000 
#    y 0.000000 3.766460 0.000000 
#    z 0.000000 0.000000 3.537280 
# 
# 
# High freq. dielectric constant tensor:
#      x y z
#    x 1.741650 0.000000 0.000000 
#    y 0.000000 1.741150 0.000000 
#    z 0.000000 0.000000 1.734730 
# 
# From -- ./inp_files/11161.got.cif
#   From: 2010.03.12/outbox.cif.g09.slc.cpg/sg74_6_cif.got.tgz:11161.got - 2010.04.16 15:46:19.
