data_PCOD8299777
_publ_section_title
;
Structure prediction by ZEFSAII (Michael W. Deem and Ramdas Pophale) SiO2 
 PCOD8299777
Probable space group: I M M A
;
_chemical_formula_sum "Si O2"
_cell_formula_units_Z 96
_cell_length_a 9.334047
_cell_length_b 24.238052
_cell_length_c 23.870842
_cell_angle_alpha 90.000000
_cell_angle_beta 90.000000
_cell_angle_gamma 90.000000
_cell_volume 5400.518206
_symmetry_space_group_name_H-M "I M M A"
_symmetry_group_IT_number 74
_symmetry_cell_setting 'orthorhombic'
loop_
_space_group_symop_operation_xyz
x,y,z
-x,1/2-y,z
x,-y,-z
-x,1/2+y,-z
-x,-y,-z
x,1/2+y,-z
-x,y,z
x,1/2-y,z
1/2+x,1/2+y,1/2+z
1/2-x,-y,1/2+z
1/2+x,1/2-y,1/2-z
1/2-x,y,1/2-z
1/2-x,1/2-y,1/2-z
1/2+x,y,1/2-z
1/2-x,1/2+y,1/2+z
1/2+x,-y,1/2+z
loop_
_atom_site_type_symbol
_atom_site_label
_atom_site_fract_x
_atom_site_fract_y
_atom_site_fract_z
Si Si1 0.162432 0.687542 0.095311
Si Si2 0.167421 0.025879 0.620661
Si Si3 0.168161 0.606491 0.477203
Si Si4 0.835391 0.107037 0.804769
Si Si5 0.331880 0.813393 0.807043
Si Si6 0.331181 0.598325 0.897827
O O1 0.211864 0.750000 0.102873
O O2 0.264503 0.660424 0.049883
O O3 0.179268 0.659229 0.155159
O O4 0.000000 0.682574 0.073549
O O5 0.204150 0.051703 0.559392
O O6 0.263053 0.053521 0.668117
O O7 0.000000 0.035128 0.633977
O O8 0.210769 0.962009 0.624179
O O9 0.233888 0.602691 0.539624
O O10 0.000000 0.615608 0.479747
O O11 0.750000 0.124121 0.750000
O O12 0.000000 0.093022 0.790898
O O13 0.500000 0.822933 0.796453
O O14 0.300959 0.750000 0.824848
O O15 0.250000 0.828407 0.750000
O O16 0.273059 0.853863 0.856177
O O17 0.500000 0.604294 0.902213
#
# Coordination Sequence:
#
# PCOD8299777 Si02
#       6
#    16  16  16  16  16  16
#     4   9  19  35  51  69  98 133 164 199 246 293
#     4   9  17  31  50  72 100 130 158 193 239 288
#     4   9  17  30  50  75 100 126 158 197 239 284
#     4  10  20  34  51  71  97 129 165 205 247 290
#     4   9  18  33  50  67  91 122 155 194 237 277
#     4   9  17  30  51  76  98 125 161 196 233 283
#
# _framework density 17.776073
#
# number of rings (size 3 to 8) (size 9 to 14) (size 15 to 20)
#    0.000    2.833    0.000    1.000    0.000    4.667 
#    0.000    5.833    0.000    6.000    0.000    0.000 
#    0.000    0.000    0.000    0.000    0.000    0.000 
#
# Total GULP energy -595108.082206 kJ/mol
# GULP energy per Si atom -12398.085046 kJ/mol
# Density = 1.773561 g / cm^3
# Si number density = 17.776073 Si / 1000 Ang^3
#
#
#
# Elastic Constant Matrix: (Units=GPa)
#
#
# Indices 1 2 3 4 5 6 
#
# 1 43.2831 30.1434 25.7044 0.0000 0.0000 0.0000
# 2 30.1434 131.1167 48.8591 0.0000 0.0000 0.0000
# 3 25.7044 48.8591 73.2459 0.0000 0.0000 0.0000
# 4 0.0000 0.0000 0.0000 18.7858 0.0000 0.0000
# 5 0.0000 0.0000 0.0000 0.0000 26.4957 0.0000
# 6 0.0000 0.0000 0.0000 0.0000 0.0000 6.7699
#
#
#
# Elastic Compliance Matrix: (Units=1/GPa)
#
#
# Indices 1 2 3 4 5 6 
#
# 1 0.030724 -0.004053 -0.008078 0.000000 0.000000 0.000000
# 2 -0.004053 0.010684 -0.005705 0.000000 0.000000 0.000000
# 3 -0.008078 -0.005705 0.020293 0.000000 0.000000 0.000000
# 4 0.000000 0.000000 0.000000 0.053232 0.000000 0.000000
# 5 0.000000 0.000000 0.000000 0.000000 0.037742 0.000000
# 6 0.000000 0.000000 0.000000 0.000000 0.000000 0.147712
#
#
# Mechanical properties :
#
#
# Convention : Reuss Voigt Hill
#
# Bulk Modulus (GPa) = 38.41890 50.78441 44.60165
# Shear Modulus (GPa) = 14.50386 19.93954 17.22170
#
# Velocity S-wave (km/s) = 2.85953 3.35282 3.11595
# Velocity P-wave (km/s) = 5.70633 6.60451 6.17178
#
# Compressibility (1/GPa) = 0.02602886
#
# Stress axis : x y z
#
# Youngs Moduli (GPa) = 32.54801 93.59463 49.27807
#
# Poissons Ratio (x) = 0.37934 0.39809
# Poissons Ratio (y) = 0.13192 0.28112
# Poissons Ratio (z) = 0.26294 0.53393
#
# Static dielectric constant tensor:
#      x y z
#    x 3.151980 0.000000 0.000000 
#    y 0.000000 3.363360 0.000000 
#    z 0.000000 0.000000 3.419370 
# 
# 
# High freq. dielectric constant tensor:
#      x y z
#    x 1.668460 0.000000 0.000000 
#    y 0.000000 1.690900 0.000000 
#    z 0.000000 0.000000 1.688830 
# 
# From -- ./inp_files/49050.got.cif
#   From: 2010.03.12/outbox.cif.g09.slc.cpg/sg74_25_cif.got.tgz:49050.got - 2010.04.16 15:46:19.
