data_PCOD8299490
_publ_section_title
;
Structure prediction by ZEFSAII (Michael W. Deem and Ramdas Pophale) SiO2 
 PCOD8299490
Probable space group: I M M A
;
_chemical_formula_sum "Si O2"
_cell_formula_units_Z 88
_cell_length_a 8.774282
_cell_length_b 30.716737
_cell_length_c 17.753720
_cell_angle_alpha 90.000000
_cell_angle_beta 90.000000
_cell_angle_gamma 90.000000
_cell_volume 4784.934902
_symmetry_space_group_name_H-M "I M M A"
_symmetry_group_IT_number 74
_symmetry_cell_setting 'orthorhombic'
loop_
_space_group_symop_operation_xyz
x,y,z
-x,1/2-y,z
x,-y,-z
-x,1/2+y,-z
-x,-y,-z
x,1/2+y,-z
-x,y,z
x,1/2-y,z
1/2+x,1/2+y,1/2+z
1/2-x,-y,1/2+z
1/2+x,1/2-y,1/2-z
1/2-x,y,1/2-z
1/2-x,1/2-y,1/2-z
1/2+x,y,1/2-z
1/2-x,1/2+y,1/2+z
1/2+x,-y,1/2+z
loop_
_atom_site_type_symbol
_atom_site_label
_atom_site_fract_x
_atom_site_fract_y
_atom_site_fract_z
Si Si1 0.829316 0.421452 0.173683
Si Si2 0.818936 0.450617 0.012820
Si Si3 0.826149 0.663666 0.905677
Si Si4 0.178612 0.868641 0.447554
Si Si5 0.680070 0.799737 0.331691
Si Si6 0.678988 0.250000 0.330257
O O1 0.750000 0.437312 0.250000
O O2 0.820706 0.369287 0.165042
O O3 0.000000 0.438893 0.180804
O O4 0.756451 0.440601 0.096940
O O5 0.745965 0.418190 0.949957
O O6 0.000000 0.443403 0.008923
O O7 0.769269 0.500000 0.000000
O O8 0.763569 0.709037 0.876764
O O9 0.000000 0.665965 0.937364
O O10 0.710805 0.650858 0.970801
O O11 0.254569 0.836827 0.386487
O O12 0.000000 0.870986 0.430835
O O13 0.500000 0.805740 0.327013
O O14 0.719932 0.750000 0.358811
O O15 0.750000 0.808095 0.250000
O O16 0.500000 0.250000 0.320310
O O17 0.750000 0.250000 0.250000
#
# Coordination Sequence:
#
# PCOD8299490 Si02
#       6
#    16  16  16  16  16   8
#     4   9  17  30  50  74 100 131 171 216 264 317
#     4   9  19  38  60  79 105 144 186 227 278 338
#     4   9  19  34  49  70 101 141 183 218 258 311
#     4  11  22  35  55  83 112 142 180 227 276 330
#     4  10  21  38  60  84 113 149 188 233 283 337
#     4  10  20  32  48  70 101 138 177 220 264 306
#
# _framework density 18.391055999999999
#
# number of rings (size 3 to 8) (size 9 to 14) (size 15 to 20)
#    0.000    2.364    0.000    3.818    1.273    5.091 
#    0.000    0.909    0.000    2.182    0.000    0.000 
#    0.000    0.000    0.000    0.000    0.000    0.000 
#
# Total GULP energy -545286.305049 kJ/mol
# GULP energy per Si atom -12392.870569 kJ/mol
# Density = 1.834920 g / cm^3
# Si number density = 18.391056 Si / 1000 Ang^3
#
#
#
# Elastic Constant Matrix: (Units=GPa)
#
#
# Indices 1 2 3 4 5 6 
#
# 1 78.9240 43.0090 41.0779 0.0000 0.0000 0.0000
# 2 43.0090 157.3769 59.2587 0.0000 0.0000 0.0000
# 3 41.0779 59.2587 93.3334 -0.0004 -0.0001 0.0001
# 4 0.0000 0.0000 -0.0004 20.1296 0.0000 0.0000
# 5 0.0000 0.0000 -0.0001 0.0000 35.0721 0.0000
# 6 0.0000 0.0000 0.0001 0.0000 0.0000 21.1364
#
#
#
# Elastic Compliance Matrix: (Units=1/GPa)
#
#
# Indices 1 2 3 4 5 6 
#
# 1 0.017108 -0.002418 -0.005994 0.000000 0.000000 0.000000
# 2 -0.002418 0.008692 -0.004455 0.000000 0.000000 0.000000
# 3 -0.005994 -0.004455 0.016181 0.000000 0.000000 0.000000
# 4 0.000000 0.000000 0.000000 0.049678 0.000000 0.000000
# 5 0.000000 0.000000 0.000000 0.000000 0.028513 0.000000
# 6 0.000000 0.000000 0.000000 0.000000 0.000000 0.047312
#
#
# Mechanical properties :
#
#
# Convention : Reuss Voigt Hill
#
# Bulk Modulus (GPa) = 61.54976 68.48062 65.01519
# Shear Modulus (GPa) = 25.17196 27.68684 26.42940
#
# Velocity S-wave (km/s) = 3.70362 3.88422 3.79500
# Velocity P-wave (km/s) = 7.19923 7.57845 7.39127
#
# Compressibility (1/GPa) = 0.01624702
#
# Stress axis : x y z
#
# Youngs Moduli (GPa) = 58.45185 115.04298 61.80202
#
# Poissons Ratio (x) = 0.27822 0.37045
# Poissons Ratio (y) = 0.14136 0.27530
# Poissons Ratio (z) = 0.35037 0.51247
#
# Static dielectric constant tensor:
#      x y z
#    x 3.342430 0.000000 0.000000 
#    y 0.000000 3.631470 0.000000 
#    z 0.000000 0.000000 3.289600 
# 
# 
# High freq. dielectric constant tensor:
#      x y z
#    x 1.705060 0.000000 0.000000 
#    y 0.000000 1.715620 0.000000 
#    z 0.000000 0.000000 1.704450 
# 
# From -- ./inp_files/40139.got.cif
#   From: 2010.03.12/outbox.cif.g09.slc.cpg/sg74_21_cif.got.tgz:40139.got - 2010.04.16 15:46:19.
