data_PCOD8299617
_publ_section_title
;
Structure prediction by ZEFSAII (Michael W. Deem and Ramdas Pophale) SiO2 
 PCOD8299617
Probable space group: I M M A
;
_chemical_formula_sum "Si O2"
_cell_formula_units_Z 112
_cell_length_a 9.665720
_cell_length_b 18.353465
_cell_length_c 35.994978
_cell_angle_alpha 90.000000
_cell_angle_beta 90.000000
_cell_angle_gamma 90.000000
_cell_volume 6385.489434
_symmetry_space_group_name_H-M "I M M A"
_symmetry_group_IT_number 74
_symmetry_cell_setting 'orthorhombic'
loop_
_space_group_symop_operation_xyz
x,y,z
-x,1/2-y,z
x,-y,-z
-x,1/2+y,-z
-x,-y,-z
x,1/2+y,-z
-x,y,z
x,1/2-y,z
1/2+x,1/2+y,1/2+z
1/2-x,-y,1/2+z
1/2+x,1/2-y,1/2-z
1/2-x,y,1/2-z
1/2-x,1/2-y,1/2-z
1/2+x,y,1/2-z
1/2-x,1/2+y,1/2+z
1/2+x,-y,1/2+z
loop_
_atom_site_type_symbol
_atom_site_label
_atom_site_fract_x
_atom_site_fract_y
_atom_site_fract_z
Si Si1 0.659363 0.833988 0.215369
Si Si2 0.653895 0.836722 0.994604
Si Si3 0.161155 0.926808 0.855945
Si Si4 0.660156 0.665894 0.572322
Si Si5 0.840917 0.333920 0.215925
Si Si6 0.164297 0.330990 0.576168
Si Si7 0.663175 0.571717 0.143769
O O1 0.500000 0.845089 0.226270
O O2 0.691178 0.750000 0.205788
O O3 0.750000 0.861334 0.250000
O O4 0.700149 0.880931 0.179740
O O5 0.500000 0.867616 0.986689
O O6 0.650047 0.750000 0.994771
O O7 0.755660 0.865998 0.962751
O O8 0.707210 0.861843 0.035429
O O9 0.202253 0.880108 0.891850
O O10 0.198099 0.878712 0.820393
O O11 0.000000 0.948645 0.856635
O O12 0.255028 0.997251 0.854154
O O13 0.500000 0.657283 0.562527
O O14 0.697820 0.750000 0.580291
O O15 0.806450 0.250000 0.207346
O O16 0.750000 0.363661 0.250000
O O17 0.000000 0.344431 0.227075
O O18 0.226802 0.250000 0.582800
O O19 0.219337 0.385127 0.607762
O O20 0.000000 0.325314 0.578303
O O21 0.500000 0.555906 0.141158
#
# Coordination Sequence:
#
# PCOD8299617 Si02
#       7
#    16  16  16  16  16  16  16
#     4   9  18  33  53  75  97 123 158 198 237 278
#     4   8  14  26  47  74  97 117 149 197 246 283
#     4  10  21  35  49  68  98 132 160 190 234 285
#     4   9  17  31  51  71  92 123 162 198 233 279
#     4   9  18  34  55  75  94 120 157 198 238 281
#     4   8  14  28  51  74  95 122 158 199 240 280
#     4  10  20  33  50  72  97 127 163 198 232 277
#
# _framework density 17.539767999999999
#
# number of rings (size 3 to 8) (size 9 to 14) (size 15 to 20)
#    0.000    3.000    0.000    1.714    0.000    5.714 
#    0.000    4.286    0.000   10.714    0.000    0.000 
#    0.000    0.000    0.000    0.000    0.000    0.000 
#
# Total GULP energy -694315.806170 kJ/mol
# GULP energy per Si atom -12398.496539 kJ/mol
# Density = 1.749985 g / cm^3
# Si number density = 17.539768 Si / 1000 Ang^3
#
#
#
# Elastic Constant Matrix: (Units=GPa)
#
#
# Indices 1 2 3 4 5 6 
#
# 1 61.6933 49.2207 76.6713 0.0000 0.0000 0.0000
# 2 49.2207 84.5229 76.7873 0.0000 0.0000 0.0000
# 3 76.6713 76.7873 186.0634 0.0000 0.0000 0.0000
# 4 0.0000 0.0000 0.0000 -0.9653 0.0000 0.0000
# 5 0.0000 0.0000 0.0000 0.0000 31.1108 0.0000
# 6 0.0000 0.0000 0.0000 0.0000 0.0000 24.4161
#
#
#
# Elastic Compliance Matrix: (Units=1/GPa)
#
#
# Indices 1 2 3 4 5 6 
#
# 1 0.041236 -0.013720 -0.011330 -0.000001 0.000000 0.000000
# 2 -0.013720 0.023493 -0.004041 0.000000 0.000000 0.000000
# 3 -0.011330 -0.004041 0.011711 0.000000 0.000000 0.000000
# 4 -0.000001 0.000000 0.000000 -1.035951 0.000000 0.000000
# 5 0.000000 0.000000 0.000000 0.000000 0.032143 0.000000
# 6 0.000000 0.000000 0.000000 0.000000 0.000000 0.040957
#
#
# Mechanical properties :
#
#
# Convention : Reuss Voigt Hill
#
# Bulk Modulus (GPa) = 54.77511 81.95982 68.36747
# Shear Modulus (GPa) = -6.08168 19.55234 6.73533
#
# Velocity S-wave (km/s) = -1.86411 3.34240 1.96173
# Velocity P-wave (km/s) = 5.16369 7.85652 6.64788
#
# Compressibility (1/GPa) = 0.01825647
#
# Stress axis : x y z
#
# Youngs Moduli (GPa) = 24.25038 42.56666 85.38838
#
# Poissons Ratio (x) = 0.58403 0.96745
# Poissons Ratio (y) = 0.33272 0.34510
# Poissons Ratio (z) = 0.27476 0.17203
#
# Static dielectric constant tensor:
#      x y z
#    x 3.144880 0.000000 0.000000 
#    y 0.000000 3.115320 0.000000 
#    z 0.000000 0.000000 3.573830 
# 
# 
# High freq. dielectric constant tensor:
#      x y z
#    x 1.658370 0.000000 0.000000 
#    y 0.000000 1.659020 0.000000 
#    z 0.000000 0.000000 1.693640 
# 
# From -- ./inp_files/71887.got.cif
#   From: 2010.03.12/outbox.cif.g09.slc.cpg/sg74_36_cif.got.tgz:71887.got - 2010.04.16 15:46:19.
