data_PCOD8299805
_publ_section_title
;
Structure prediction by ZEFSAII (Michael W. Deem and Ramdas Pophale) SiO2 
 PCOD8299805
Probable space group: I M M A
;
_chemical_formula_sum "Si O2"
_cell_formula_units_Z 104
_cell_length_a 26.969888
_cell_length_b 9.149680
_cell_length_c 19.685558
_cell_angle_alpha 90.000000
_cell_angle_beta 90.000000
_cell_angle_gamma 90.000000
_cell_volume 4857.723351
_symmetry_space_group_name_H-M "I M M A"
_symmetry_group_IT_number 74
_symmetry_cell_setting 'orthorhombic'
loop_
_space_group_symop_operation_xyz
x,y,z
-x,1/2-y,z
x,-y,-z
-x,1/2+y,-z
-x,-y,-z
x,1/2+y,-z
-x,y,z
x,1/2-y,z
1/2+x,1/2+y,1/2+z
1/2-x,-y,1/2+z
1/2+x,1/2-y,1/2-z
1/2-x,y,1/2-z
1/2-x,1/2-y,1/2-z
1/2+x,y,1/2-z
1/2-x,1/2+y,1/2+z
1/2+x,-y,1/2+z
loop_
_atom_site_type_symbol
_atom_site_label
_atom_site_fract_x
_atom_site_fract_y
_atom_site_fract_z
Si Si1 0.153506 0.421321 0.066056
Si Si2 0.944402 0.414772 0.242854
Si Si3 0.401185 0.916902 0.143971
Si Si4 0.500000 0.913040 0.067092
Si Si5 0.738552 0.581851 0.670764
Si Si6 0.695543 0.081181 0.931917
Si Si7 0.555619 0.920916 0.394721
O O1 0.150332 0.250000 0.050680
O O2 0.183606 0.448662 0.137574
O O3 0.097791 0.485470 0.067997
O O4 0.179409 0.500000 0.000000
O O5 0.930149 0.250000 0.219092
O O6 0.900824 0.470198 0.293269
O O7 0.944152 0.529382 0.182595
O O8 0.000000 0.414535 0.274916
O O9 0.395110 0.750000 0.169876
O O10 0.453295 0.949662 0.111618
O O11 0.361124 0.953364 0.086641
O O12 0.500000 0.750000 0.041240
O O13 0.500000 0.000000 0.000000
O O14 0.752503 0.750000 0.656719
O O15 0.750000 0.545798 0.750000
O O16 0.774238 0.473510 0.632071
O O17 0.706228 0.250000 0.944049
O O18 0.711138 0.000000 0.000000
O O19 0.500000 0.950553 0.425019
O O20 0.568867 0.750000 0.399198
#
# Coordination Sequence:
#
# PCOD8299805 Si02
#       7
#    16  16  16   8  16  16  16
#     4  11  24  43  69 100 134 175 220 267 324 389
#     4  10  20  34  55  85 120 163 211 259 313 373
#     4  10  21  36  55  82 117 161 208 259 319 378
#     4  10  20  34  52  74 112 156 203 256 309 370
#     4  10  24  46  70  98 131 168 210 265 327 383
#     4  11  24  41  63  92 124 165 213 263 322 385
#     4  10  22  40  64  95 134 175 213 260 319 383
#
# _framework density 21.409205
#
# number of rings (size 3 to 8) (size 9 to 14) (size 15 to 20)
#    0.000    1.692    0.769    2.769    2.154    6.462 
#    0.000    0.000    0.000    0.000    0.000    0.000 
#    0.000    0.000    0.000    0.000    0.000    0.000 
#
# Total GULP energy -644371.471345 kJ/mol
# GULP energy per Si atom -12391.759064 kJ/mol
# Density = 2.136048 g / cm^3
# Si number density = 21.409205 Si / 1000 Ang^3
#
#
#
# Elastic Constant Matrix: (Units=GPa)
#
#
# Indices 1 2 3 4 5 6 
#
# 1 98.2585 56.5698 41.0100 0.0000 0.0000 0.0000
# 2 56.5698 109.8269 62.4394 0.0000 0.0000 0.0000
# 3 41.0100 62.4394 117.0924 0.0000 0.0000 0.0000
# 4 0.0000 0.0000 0.0000 41.1555 0.0000 0.0000
# 5 0.0000 0.0000 0.0000 0.0000 23.8813 0.0000
# 6 0.0000 0.0000 0.0000 0.0000 0.0000 31.5849
#
#
#
# Elastic Compliance Matrix: (Units=1/GPa)
#
#
# Indices 1 2 3 4 5 6 
#
# 1 0.014671 -0.006652 -0.001591 0.000000 0.000000 0.000000
# 2 -0.006652 0.016083 -0.006246 0.000000 0.000000 0.000000
# 3 -0.001591 -0.006246 0.012428 0.000000 0.000000 0.000000
# 4 0.000000 0.000000 0.000000 0.024298 0.000000 0.000000
# 5 0.000000 0.000000 0.000000 0.000000 0.041874 0.000000
# 6 0.000000 0.000000 0.000000 0.000000 0.000000 0.031661
#
#
# Mechanical properties :
#
#
# Convention : Reuss Voigt Hill
#
# Bulk Modulus (GPa) = 70.40714 71.69069 71.04892
# Shear Modulus (GPa) = 28.61581 30.33492 29.47536
#
# Velocity S-wave (km/s) = 3.65994 3.76827 3.71450
# Velocity P-wave (km/s) = 7.12867 7.24512 7.18713
#
# Compressibility (1/GPa) = 0.01420310
#
# Stress axis : x y z
#
# Youngs Moduli (GPa) = 68.16086 62.17779 80.46130
#
# Poissons Ratio (x) = 0.41363 0.12802
# Poissons Ratio (y) = 0.45343 0.50259
# Poissons Ratio (z) = 0.10845 0.38838
#
# Static dielectric constant tensor:
#      x y z
#    x 4.087620 0.000000 0.000000 
#    y 0.000000 3.848070 0.000000 
#    z 0.000000 0.000000 3.916540 
# 
# 
# High freq. dielectric constant tensor:
#      x y z
#    x 1.842050 0.000000 0.000000 
#    y 0.000000 1.845380 0.000000 
#    z 0.000000 0.000000 1.839490 
# 
# From -- ./inp_files/55208.got.cif
#   From: 2010.03.12/outbox.cif.g09.slc.cpg/sg74_28_cif.got.tgz:55208.got - 2010.04.16 15:46:19.
