data_PCOD8299535
_publ_section_title
;
Structure prediction by ZEFSAII (Michael W. Deem and Ramdas Pophale) SiO2 
 PCOD8299535
Probable space group: I M M A
;
_chemical_formula_sum "Si O2"
_cell_formula_units_Z 88
_cell_length_a 27.417656
_cell_length_b 9.083404
_cell_length_c 19.029528
_cell_angle_alpha 90.000000
_cell_angle_beta 90.000000
_cell_angle_gamma 90.000000
_cell_volume 4739.221097
_symmetry_space_group_name_H-M "I M M A"
_symmetry_group_IT_number 74
_symmetry_cell_setting 'orthorhombic'
loop_
_space_group_symop_operation_xyz
x,y,z
-x,1/2-y,z
x,-y,-z
-x,1/2+y,-z
-x,-y,-z
x,1/2+y,-z
-x,y,z
x,1/2-y,z
1/2+x,1/2+y,1/2+z
1/2-x,-y,1/2+z
1/2+x,1/2-y,1/2-z
1/2-x,y,1/2-z
1/2-x,1/2-y,1/2-z
1/2+x,y,1/2-z
1/2-x,1/2+y,1/2+z
1/2+x,-y,1/2+z
loop_
_atom_site_type_symbol
_atom_site_label
_atom_site_fract_x
_atom_site_fract_y
_atom_site_fract_z
Si Si1 0.556513 0.579345 0.198986
Si Si2 0.500000 0.422107 0.425942
Si Si3 0.287349 0.918427 0.928052
Si Si4 0.318082 0.422174 0.425307
Si Si5 0.408065 0.923662 0.666669
Si Si6 0.393254 0.923712 0.924379
O O1 0.500000 0.556417 0.217361
O O2 0.570026 0.750000 0.190732
O O3 0.588869 0.508947 0.260225
O O4 0.567321 0.496300 0.126378
O O5 0.500000 0.250000 0.440328
O O6 0.500000 0.500000 0.500000
O O7 0.547477 0.471204 0.383013
O O8 0.286972 0.750000 0.949146
O O9 0.235618 0.956420 0.890038
O O10 0.338915 0.953529 0.889722
O O11 0.287260 0.000000 0.000000
O O12 0.325118 0.500000 0.500000
O O13 0.325563 0.250000 0.439320
O O14 0.358316 0.477246 0.370249
O O15 0.408722 0.750000 0.682479
O O16 0.403737 0.750000 0.932046
O O17 0.397856 0.000000 0.000000
#
# Coordination Sequence:
#
# PCOD8299535 Si02
#       6
#    16   8  16  16  16  16
#     4  11  24  40  57  77 103 138 178 222 272 322
#     4  10  20  32  50  76 105 138 181 224 262 306
#     4   8  15  29  50  78 108 138 172 210 258 310
#     4   9  17  30  51  79 110 143 179 219 261 308
#     4  10  20  35  53  75 106 144 182 220 264 314
#     4  10  20  36  60  85 109 137 171 215 262 317
#
# _framework density 18.568452000000001
#
# number of rings (size 3 to 8) (size 9 to 14) (size 15 to 20)
#    0.000    2.364    0.909    1.636    0.000    3.636 
#    0.000    0.909    0.000    5.455    0.000    0.000 
#    0.000    0.000    0.000    0.000    0.000    0.000 
#
# Total GULP energy -545233.749113 kJ/mol
# GULP energy per Si atom -12391.676116 kJ/mol
# Density = 1.852619 g / cm^3
# Si number density = 18.568452 Si / 1000 Ang^3
#
#
#
# Elastic Constant Matrix: (Units=GPa)
#
#
# Indices 1 2 3 4 5 6 
#
# 1 64.7781 30.4979 28.5459 0.0000 0.0000 0.0000
# 2 30.4979 67.6235 42.0592 0.0000 0.0000 0.0000
# 3 28.5459 42.0592 94.1613 0.0000 0.0000 0.0000
# 4 0.0000 0.0000 0.0000 33.4697 0.0000 0.0000
# 5 0.0000 0.0000 0.0000 0.0000 17.2357 0.0000
# 6 0.0000 0.0000 0.0000 0.0000 0.0000 23.0484
#
#
#
# Elastic Compliance Matrix: (Units=1/GPa)
#
#
# Indices 1 2 3 4 5 6 
#
# 1 0.020131 -0.007316 -0.002835 0.000000 0.000000 0.000000
# 2 -0.007316 0.023135 -0.008116 0.000000 0.000000 0.000000
# 3 -0.002835 -0.008116 0.015105 0.000000 0.000000 0.000000
# 4 0.000000 0.000000 0.000000 0.029878 0.000000 0.000000
# 5 0.000000 0.000000 0.000000 0.000000 0.058019 0.000000
# 6 0.000000 0.000000 0.000000 0.000000 0.000000 0.043387
#
#
# Mechanical properties :
#
#
# Convention : Reuss Voigt Hill
#
# Bulk Modulus (GPa) = 45.79355 47.64097 46.71726
# Shear Modulus (GPa) = 21.41633 23.11475 22.26554
#
# Velocity S-wave (km/s) = 3.39982 3.53206 3.46657
# Velocity P-wave (km/s) = 6.33461 6.50742 6.42160
#
# Compressibility (1/GPa) = 0.02183714
#
# Stress axis : x y z
#
# Youngs Moduli (GPa) = 49.67486 43.22488 66.20440
#
# Poissons Ratio (x) = 0.31621 0.18770
# Poissons Ratio (y) = 0.36340 0.53731
# Poissons Ratio (z) = 0.14084 0.35081
#
# Static dielectric constant tensor:
#      x y z
#    x 4.188000 0.000000 0.000000 
#    y 0.000000 3.295600 0.000000 
#    z 0.000000 0.000000 3.070880 
# 
# 
# High freq. dielectric constant tensor:
#      x y z
#    x 1.740570 0.000000 0.000000 
#    y 0.000000 1.722180 0.000000 
#    z 0.000000 0.000000 1.691690 
# 
# From -- ./inp_files/47019.got.cif
#   From: 2010.03.12/outbox.cif.g09.slc.cpg/sg74_24_cif.got.tgz:47019.got - 2010.04.16 15:46:19.
