data_PCOD8299341
_publ_section_title
;
Structure prediction by ZEFSAII (Michael W. Deem and Ramdas Pophale) SiO2 
 PCOD8299341
Probable space group: I M M A
;
_chemical_formula_sum "Si O2"
_cell_formula_units_Z 64
_cell_length_a 26.357643
_cell_length_b 16.933807
_cell_length_c 7.400779
_cell_angle_alpha 90.000000
_cell_angle_beta 90.000000
_cell_angle_gamma 90.000000
_cell_volume 3303.228468
_symmetry_space_group_name_H-M "I M M A"
_symmetry_group_IT_number 74
_symmetry_cell_setting 'orthorhombic'
loop_
_space_group_symop_operation_xyz
x,y,z
-x,1/2-y,z
x,-y,-z
-x,1/2+y,-z
-x,-y,-z
x,1/2+y,-z
-x,y,z
x,1/2-y,z
1/2+x,1/2+y,1/2+z
1/2-x,-y,1/2+z
1/2+x,1/2-y,1/2-z
1/2-x,y,1/2-z
1/2-x,1/2-y,1/2-z
1/2+x,y,1/2-z
1/2-x,1/2+y,1/2+z
1/2+x,-y,1/2+z
loop_
_atom_site_type_symbol
_atom_site_label
_atom_site_fract_x
_atom_site_fract_y
_atom_site_fract_z
Si Si1 0.441811 0.408916 0.027656
Si Si2 0.632179 0.839468 0.262481
Si Si3 0.896925 0.576017 0.899110
Si Si4 0.307735 0.488838 0.792549
O O1 0.500000 0.390848 0.981349
O O2 0.431406 0.390292 0.237874
O O3 0.427370 0.500000 0.000000
O O4 0.408000 0.355807 0.896505
O O5 0.651484 0.750000 0.245634
O O6 0.606796 0.852710 0.458402
O O7 0.680342 0.897636 0.252642
O O8 0.841896 0.548468 0.824667
O O9 0.922306 0.500000 0.000000
O O10 0.250000 0.509353 0.750000
O O11 0.320939 0.500000 0.000000
#
# Coordination Sequence:
#
# PCOD8299341 Si02
#       4
#    16  16  16  16
#     4  11  21  38  64  88 115 157 206 247 292 353
#     4  11  23  39  58  87 127 157 192 246 303 352
#     4  10  19  38  59  90 115 153 201 245 294 344
#     4  11  20  39  65  88 114 154 202 246 292 353
#
# _framework density 19.374984999999999
#
# number of rings (size 3 to 8) (size 9 to 14) (size 15 to 20)
#    0.000    1.250    7.500    2.250    0.000    3.500 
#    0.000    0.000    0.000    3.000    0.000    0.000 
#    0.000    0.000    0.000    0.000    0.000    0.000 
#
# Total GULP energy -396803.454875 kJ/mol
# GULP energy per Si atom -12400.107965 kJ/mol
# Density = 1.933089 g / cm^3
# Si number density = 19.374985 Si / 1000 Ang^3
#
#
#
# Elastic Constant Matrix: (Units=GPa)
#
#
# Indices 1 2 3 4 5 6 
#
# 1 58.7149 5.6858 9.4643 0.0000 0.0000 0.0000
# 2 5.6858 77.9564 20.0573 0.0000 0.0000 0.0000
# 3 9.4643 20.0573 138.1708 0.0000 0.0000 0.0000
# 4 0.0000 0.0000 0.0000 19.6798 0.0000 0.0000
# 5 0.0000 0.0000 0.0000 0.0000 19.6053 0.0000
# 6 0.0000 0.0000 0.0000 0.0000 0.0000 16.0390
#
#
#
# Elastic Compliance Matrix: (Units=1/GPa)
#
#
# Indices 1 2 3 4 5 6 
#
# 1 0.017295 -0.000994 -0.001040 0.000000 0.000000 0.000000
# 2 -0.000994 0.013382 -0.001875 0.000000 0.000000 0.000000
# 3 -0.001040 -0.001875 0.007581 0.000000 0.000000 0.000000
# 4 0.000000 0.000000 0.000000 0.050814 0.000000 0.000000
# 5 0.000000 0.000000 0.000000 0.000000 0.051007 0.000000
# 6 0.000000 0.000000 0.000000 0.000000 0.000000 0.062348
#
#
# Mechanical properties :
#
#
# Convention : Reuss Voigt Hill
#
# Bulk Modulus (GPa) = 32.85028 38.36189 35.60609
# Shear Modulus (GPa) = 22.68691 27.04046 24.86369
#
# Velocity S-wave (km/s) = 3.42561 3.73988 3.58619
# Velocity P-wave (km/s) = 5.71299 6.20416 5.96363
#
# Compressibility (1/GPa) = 0.03044114
#
# Stress axis : x y z
#
# Youngs Moduli (GPa) = 57.81889 74.72458 131.91212
#
# Poissons Ratio (x) = 0.07426 0.13725
# Poissons Ratio (y) = 0.05746 0.24728
# Poissons Ratio (z) = 0.06016 0.14008
#
# Static dielectric constant tensor:
#      x y z
#    x 3.349410 0.000000 0.000000 
#    y 0.000000 3.243440 0.000000 
#    z 0.000000 0.000000 4.035300 
# 
# 
# High freq. dielectric constant tensor:
#      x y z
#    x 1.740040 0.000000 0.000000 
#    y 0.000000 1.718090 0.000000 
#    z 0.000000 0.000000 1.784710 
# 
# From -- ./inp_files/3036.got.cif
#   From: 2010.03.12/outbox.cif.g09.slc.cpg/sg74_2_cif.got.tgz:3036.got - 2010.04.16 15:46:19.
