data_PCOD8299345
_publ_section_title
;
Structure prediction by ZEFSAII (Michael W. Deem and Ramdas Pophale) SiO2 
 PCOD8299345
Probable space group: I M M A
;
_chemical_formula_sum "Si O2"
_cell_formula_units_Z 112
_cell_length_a 24.227583
_cell_length_b 15.340810
_cell_length_c 14.234593
_cell_angle_alpha 90.000000
_cell_angle_beta 90.000000
_cell_angle_gamma 90.000000
_cell_volume 5290.581822
_symmetry_space_group_name_H-M "I M M A"
_symmetry_group_IT_number 74
_symmetry_cell_setting 'orthorhombic'
loop_
_space_group_symop_operation_xyz
x,y,z
-x,1/2-y,z
x,-y,-z
-x,1/2+y,-z
-x,-y,-z
x,1/2+y,-z
-x,y,z
x,1/2-y,z
1/2+x,1/2+y,1/2+z
1/2-x,-y,1/2+z
1/2+x,1/2-y,1/2-z
1/2-x,y,1/2-z
1/2-x,1/2-y,1/2-z
1/2+x,y,1/2-z
1/2-x,1/2+y,1/2+z
1/2+x,-y,1/2+z
loop_
_atom_site_type_symbol
_atom_site_label
_atom_site_fract_x
_atom_site_fract_y
_atom_site_fract_z
Si Si1 0.200876 0.459049 0.698636
Si Si2 0.060799 0.077441 0.427271
Si Si3 0.263911 0.420498 0.432481
Si Si4 0.561820 0.847441 0.387741
Si Si5 0.882039 0.849946 0.920347
Si Si6 0.906967 0.489015 0.223295
Si Si7 0.837936 0.346581 0.531967
O O1 0.250000 0.402099 0.750000
O O2 0.233073 0.542090 0.658069
O O3 0.158725 0.494263 0.776316
O O4 0.163175 0.410806 0.621334
O O5 0.070048 0.041401 0.322956
O O6 0.111139 0.138685 0.460058
O O7 0.000000 0.123835 0.429836
O O8 0.060190 0.000000 0.500000
O O9 0.281126 0.500000 0.500000
O O10 0.316988 0.364006 0.406124
O O11 0.220351 0.355924 0.480866
O O12 0.500000 0.847103 0.428417
O O13 0.576268 0.750000 0.348195
O O14 0.602753 0.872306 0.472252
O O15 0.565233 0.919440 0.305807
O O16 0.897060 0.750000 0.895989
O O17 0.917729 0.912586 0.852346
O O18 0.843777 0.250000 0.572396
#
# Coordination Sequence:
#
# PCOD8299345 Si02
#       7
#    16  16  16  16  16  16  16
#     4  11  22  39  63  91 127 171 216 271 325 395
#     4  11  23  43  66  89 122 169 222 270 325 395
#     4  10  19  38  62  88 122 170 213 262 328 394
#     4  10  24  45  68  98 135 174 224 283 340 404
#     4  11  24  40  64 100 136 174 223 276 336 407
#     4  12  22  41  68  97 130 177 222 277 337 397
#     4  11  23  40  62  90 130 171 214 274 336 393
#
# _framework density 21.169695000000001
#
# number of rings (size 3 to 8) (size 9 to 14) (size 15 to 20)
#    0.000    1.143    4.286    2.571    2.000    3.429 
#    0.000    0.714    0.000    0.000    0.000    0.000 
#    0.000    0.000    0.000    0.000    0.000    0.000 
#
# Total GULP energy -694164.820320 kJ/mol
# GULP energy per Si atom -12395.800363 kJ/mol
# Density = 2.112151 g / cm^3
# Si number density = 21.169695 Si / 1000 Ang^3
#
#
#
# Elastic Constant Matrix: (Units=GPa)
#
#
# Indices 1 2 3 4 5 6 
#
# 1 92.2825 26.2421 21.0878 0.0000 0.0000 0.0000
# 2 26.2421 94.3456 38.9305 0.0000 0.0000 0.0000
# 3 21.0878 38.9305 94.0776 0.0000 0.0000 0.0000
# 4 0.0000 0.0000 0.0000 13.1722 0.0000 0.0000
# 5 0.0000 0.0000 0.0000 0.0000 -1.2636 0.0000
# 6 0.0000 0.0000 0.0000 0.0000 0.0000 21.6877
#
#
#
# Elastic Compliance Matrix: (Units=1/GPa)
#
#
# Indices 1 2 3 4 5 6 
#
# 1 0.011957 -0.002677 -0.001572 0.000000 0.000000 0.000000
# 2 -0.002677 0.013381 -0.004937 0.000000 0.000000 0.000000
# 3 -0.001572 -0.004937 0.013025 0.000000 0.000000 0.000000
# 4 0.000000 0.000000 0.000000 0.075917 0.000000 0.000000
# 5 0.000000 0.000000 0.000000 0.000000 -0.791421 0.000000
# 6 0.000000 0.000000 0.000000 0.000000 0.000000 0.046109
#
#
# Mechanical properties :
#
#
# Convention : Reuss Voigt Hill
#
# Bulk Modulus (GPa) = 50.02528 50.35850 50.19189
# Shear Modulus (GPa) = -8.25090 19.68230 5.71570
#
# Velocity S-wave (km/s) = -1.97635 3.05247 1.64493
# Velocity P-wave (km/s) = 4.29813 6.02188 5.23149
#
# Compressibility (1/GPa) = 0.01998989
#
# Stress axis : x y z
#
# Youngs Moduli (GPa) = 83.63416 74.73161 76.77493
#
# Poissons Ratio (x) = 0.20005 0.12072
# Poissons Ratio (y) = 0.22388 0.37906
# Poissons Ratio (z) = 0.13151 0.36897
#
# Static dielectric constant tensor:
#      x y z
#    x 4.257520 0.000000 0.000000 
#    y 0.000000 3.653500 0.000000 
#    z 0.000000 0.000000 3.952870 
# 
# 
# High freq. dielectric constant tensor:
#      x y z
#    x 1.845930 0.000000 0.000000 
#    y 0.000000 1.809140 0.000000 
#    z 0.000000 0.000000 1.829850 
# 
# From -- ./inp_files/32759.got.cif
#   From: 2010.03.12/outbox.cif.g09.slc.cpg/sg74_17_cif.got.tgz:32759.got - 2010.04.16 15:46:19.
