data_PCOD8299138
_publ_section_title
;
Structure prediction by ZEFSAII (Michael W. Deem and Ramdas Pophale) SiO2 
 PCOD8299138
Probable space group: I M M A
;
_chemical_formula_sum "Si O2"
_cell_formula_units_Z 56
_cell_length_a 26.500951
_cell_length_b 9.572730
_cell_length_c 10.901243
_cell_angle_alpha 90.000000
_cell_angle_beta 90.000000
_cell_angle_gamma 90.000000
_cell_volume 2765.497623
_symmetry_space_group_name_H-M "I M M A"
_symmetry_group_IT_number 74
_symmetry_cell_setting 'orthorhombic'
loop_
_space_group_symop_operation_xyz
x,y,z
-x,1/2-y,z
x,-y,-z
-x,1/2+y,-z
-x,-y,-z
x,1/2+y,-z
-x,y,z
x,1/2-y,z
1/2+x,1/2+y,1/2+z
1/2-x,-y,1/2+z
1/2+x,1/2-y,1/2-z
1/2-x,y,1/2-z
1/2-x,1/2-y,1/2-z
1/2+x,y,1/2-z
1/2-x,1/2+y,1/2+z
1/2+x,-y,1/2+z
loop_
_atom_site_type_symbol
_atom_site_label
_atom_site_fract_x
_atom_site_fract_y
_atom_site_fract_z
Si Si1 0.636180 0.000000 0.000000
Si Si2 0.100764 0.082667 0.877530
Si Si3 0.804567 0.589946 0.268354
Si Si4 0.555869 0.902119 0.822520
O O1 0.673185 0.076902 0.905031
O O2 0.598627 0.896802 0.927895
O O3 0.095205 0.250000 0.892906
O O4 0.156428 0.033220 0.833523
O O5 0.062695 0.028858 0.773017
O O6 0.087262 0.000000 0.000000
O O7 0.796660 0.750000 0.237974
O O8 0.750000 0.513572 0.250000
O O9 0.500000 0.920639 0.880770
O O10 0.559588 0.750000 0.756503
#
# Coordination Sequence:
#
# PCOD8299138 Si02
#       4
#     8  16  16  16
#     4  10  19  34  58  82 114 146 187 234 282 330
#     4  10  21  37  58  82 115 152 191 237 282 337
#     4   9  19  34  53  79 111 148 187 228 277 332
#     4  10  21  37  58  84 114 149 191 238 288 341
#
# _framework density 20.24952
#
# number of rings (size 3 to 8) (size 9 to 14) (size 15 to 20)
#    0.000    2.286    0.000    2.143    2.000    2.286 
#    0.000    0.000    0.000    5.143    0.000    0.000 
#    0.000    0.000    0.000    0.000    0.000    0.000 
#
# Total GULP energy -346872.188286 kJ/mol
# GULP energy per Si atom -12388.292439 kJ/mol
# Density = 2.020343 g / cm^3
# Si number density = 20.249520 Si / 1000 Ang^3
#
#
#
# Elastic Constant Matrix: (Units=GPa)
#
#
# Indices 1 2 3 4 5 6 
#
# 1 138.8677 26.7324 41.5307 0.0000 0.0000 0.0000
# 2 26.7324 91.3248 31.8252 0.0000 0.0000 0.0000
# 3 41.5307 31.8252 104.2201 0.0000 0.0000 0.0000
# 4 0.0000 0.0000 0.0000 32.2352 0.0000 0.0000
# 5 0.0000 0.0000 0.0000 0.0000 18.4249 0.0000
# 6 0.0000 0.0000 0.0000 0.0000 0.0000 19.6560
#
#
#
# Elastic Compliance Matrix: (Units=1/GPa)
#
#
# Indices 1 2 3 4 5 6 
#
# 1 0.008340 -0.001436 -0.002885 0.000000 0.000000 0.000000
# 2 -0.001436 0.012501 -0.003245 0.000000 0.000000 0.000000
# 3 -0.002885 -0.003245 0.011736 0.000000 0.000000 0.000000
# 4 0.000000 0.000000 0.000000 0.031022 0.000000 0.000000
# 5 0.000000 0.000000 0.000000 0.000000 0.054274 0.000000
# 6 0.000000 0.000000 0.000000 0.000000 0.000000 0.050875
#
#
# Mechanical properties :
#
#
# Convention : Reuss Voigt Hill
#
# Bulk Modulus (GPa) = 57.32377 59.39881 58.36129
# Shear Modulus (GPa) = 26.35794 29.68483 28.02139
#
# Velocity S-wave (km/s) = 3.61176 3.83293 3.72399
# Velocity P-wave (km/s) = 6.76486 6.99897 6.88291
#
# Compressibility (1/GPa) = 0.01744477
#
# Stress axis : x y z
#
# Youngs Moduli (GPa) = 119.89904 79.99260 85.20995
#
# Poissons Ratio (x) = 0.11487 0.24584
# Poissons Ratio (y) = 0.17217 0.27652
# Poissons Ratio (z) = 0.34592 0.25959
#
# Static dielectric constant tensor:
#      x y z
#    x 4.199390 0.000000 0.000000 
#    y 0.000000 3.482590 0.000000 
#    z 0.000000 0.000000 3.517050 
# 
# 
# High freq. dielectric constant tensor:
#      x y z
#    x 1.805120 0.000000 0.000000 
#    y 0.000000 1.773590 0.000000 
#    z 0.000000 0.000000 1.779180 
# 
# From -- ./inp_files/17255.got.cif
#   From: 2010.03.12/outbox.cif.g09.slc.cpg/sg74_9_cif.got.tgz:17255.got - 2010.04.16 15:46:19.
