data_PCOD8299177
_publ_section_title
;
Structure prediction by ZEFSAII (Michael W. Deem and Ramdas Pophale) SiO2 
 PCOD8299177
Probable space group: I M M A
;
_chemical_formula_sum "Si O2"
_cell_formula_units_Z 112
_cell_length_a 14.693765
_cell_length_b 27.104717
_cell_length_c 15.852288
_cell_angle_alpha 90.000000
_cell_angle_beta 90.000000
_cell_angle_gamma 90.000000
_cell_volume 6313.496163
_symmetry_space_group_name_H-M "I M M A"
_symmetry_group_IT_number 74
_symmetry_cell_setting 'orthorhombic'
loop_
_space_group_symop_operation_xyz
x,y,z
-x,1/2-y,z
x,-y,-z
-x,1/2+y,-z
-x,-y,-z
x,1/2+y,-z
-x,y,z
x,1/2-y,z
1/2+x,1/2+y,1/2+z
1/2-x,-y,1/2+z
1/2+x,1/2-y,1/2-z
1/2-x,y,1/2-z
1/2-x,1/2-y,1/2-z
1/2+x,y,1/2-z
1/2-x,1/2+y,1/2+z
1/2+x,-y,1/2+z
loop_
_atom_site_type_symbol
_atom_site_label
_atom_site_fract_x
_atom_site_fract_y
_atom_site_fract_z
Si Si1 0.898055 0.305230 0.429359
Si Si2 0.267147 0.949549 0.158896
Si Si3 0.216207 0.888699 0.505797
Si Si4 0.600141 0.618395 0.596401
Si Si5 0.396405 0.972877 0.911773
Si Si6 0.398373 0.993495 0.596357
Si Si7 0.643093 0.193872 0.257017
O O1 0.857803 0.250000 0.432597
O O2 0.838152 0.337813 0.491831
O O3 0.897536 0.323411 0.332369
O O4 0.000000 0.307349 0.464319
O O5 0.250000 0.924534 0.250000
O O6 0.287853 0.908271 0.089378
O O7 0.347481 0.990977 0.155817
O O8 0.169810 0.974612 0.149404
O O9 0.320109 0.875260 0.528418
O O10 0.168231 0.925255 0.573805
O O11 0.500000 0.625972 0.553964
O O12 0.606432 0.562460 0.629895
O O13 0.607617 0.656708 0.672591
O O14 0.500000 0.959055 0.881592
O O15 0.403637 0.000000 0.000000
O O16 0.500000 0.015035 0.605917
O O17 0.364974 0.000000 0.500000
O O18 0.612478 0.250000 0.279204
O O19 0.750000 0.189993 0.250000
#
# Coordination Sequence:
#
# PCOD8299177 Si02
#       7
#    16  16  16  16  16  16  16
#     4  10  21  37  58  81 108 144 179 215 268 332
#     4  11  22  35  53  78 108 140 181 229 278 319
#     4  11  20  36  56  77 107 142 184 228 267 317
#     4  11  21  32  54  79 105 147 189 220 264 316
#     4   9  18  34  54  75 102 139 176 220 275 322
#     4  10  19  35  54  73 101 142 188 226 262 316
#     4  10  20  35  54  81 116 145 172 217 270 323
#
# _framework density 17.739775000000002
#
# number of rings (size 3 to 8) (size 9 to 14) (size 15 to 20)
#    0.000    1.714    4.286    1.286    0.000    3.714 
#    0.000    1.429    0.000    0.429    0.000    0.000 
#    0.000    0.000    0.000    0.000    0.000    0.000 
#
# Total GULP energy -694080.554625 kJ/mol
# GULP energy per Si atom -12394.295618 kJ/mol
# Density = 1.769940 g / cm^3
# Si number density = 17.739775 Si / 1000 Ang^3
#
#
#
# Elastic Constant Matrix: (Units=GPa)
#
#
# Indices 1 2 3 4 5 6 
#
# 1 117.3226 36.4828 40.0673 0.0000 0.0000 0.0000
# 2 36.4828 93.0337 50.6554 0.0000 0.0000 0.0000
# 3 40.0673 50.6554 87.9071 0.0002 0.0000 0.0000
# 4 0.0000 0.0000 0.0002 28.7121 0.0000 0.0000
# 5 0.0000 0.0000 0.0000 0.0000 16.4650 0.0000
# 6 0.0000 0.0000 0.0000 0.0000 0.0000 25.6039
#
#
#
# Elastic Compliance Matrix: (Units=1/GPa)
#
#
# Indices 1 2 3 4 5 6 
#
# 1 0.010390 -0.002180 -0.003479 0.000000 0.000000 0.000000
# 2 -0.002180 0.016120 -0.008296 0.000000 0.000000 0.000000
# 3 -0.003479 -0.008296 0.017742 0.000000 0.000000 0.000000
# 4 0.000000 0.000000 0.000000 0.034829 0.000000 0.000000
# 5 0.000000 0.000000 0.000000 0.000000 0.060735 0.000000
# 6 0.000000 0.000000 0.000000 0.000000 0.000000 0.039057
#
#
# Mechanical properties :
#
#
# Convention : Reuss Voigt Hill
#
# Bulk Modulus (GPa) = 61.19156 61.40825 61.29991
# Shear Modulus (GPa) = 23.55945 25.56005 24.55975
#
# Velocity S-wave (km/s) = 3.64821 3.79995 3.72485
# Velocity P-wave (km/s) = 7.23289 7.34466 7.28899
#
# Compressibility (1/GPa) = 0.01634212
#
# Stress axis : x y z
#
# Youngs Moduli (GPa) = 96.25010 62.03292 56.36387
#
# Poissons Ratio (x) = 0.13522 0.19611
# Poissons Ratio (y) = 0.20980 0.46758
# Poissons Ratio (z) = 0.33490 0.51461
#
# Static dielectric constant tensor:
#      x y z
#    x 3.668570 0.000000 0.000000 
#    y 0.000000 3.308150 0.000000 
#    z 0.000000 0.000000 3.115860 
# 
# 
# High freq. dielectric constant tensor:
#      x y z
#    x 1.712670 0.000000 0.000000 
#    y 0.000000 1.670720 0.000000 
#    z 0.000000 0.000000 1.646050 
# 
# From -- ./inp_files/32895.got.cif
#   From: 2010.03.12/outbox.cif.g09.slc.cpg/sg74_17_cif.got.tgz:32895.got - 2010.04.16 15:46:19.
