data_PCOD8299011
_publ_section_title
;
Structure prediction by ZEFSAII (Michael W. Deem and Ramdas Pophale) SiO2 
 PCOD8299011
Probable space group: I M M A
;
_chemical_formula_sum "Si O2"
_cell_formula_units_Z 96
_cell_length_a 18.755211
_cell_length_b 19.193366
_cell_length_c 13.656298
_cell_angle_alpha 90.000000
_cell_angle_beta 90.000000
_cell_angle_gamma 90.000000
_cell_volume 4915.934464
_symmetry_space_group_name_H-M "I M M A"
_symmetry_group_IT_number 74
_symmetry_cell_setting 'orthorhombic'
loop_
_space_group_symop_operation_xyz
x,y,z
-x,1/2-y,z
x,-y,-z
-x,1/2+y,-z
-x,-y,-z
x,1/2+y,-z
-x,y,z
x,1/2-y,z
1/2+x,1/2+y,1/2+z
1/2-x,-y,1/2+z
1/2+x,1/2-y,1/2-z
1/2-x,y,1/2-z
1/2-x,1/2-y,1/2-z
1/2+x,y,1/2-z
1/2-x,1/2+y,1/2+z
1/2+x,-y,1/2+z
loop_
_atom_site_type_symbol
_atom_site_label
_atom_site_fract_x
_atom_site_fract_y
_atom_site_fract_z
Si Si1 0.701155 0.673929 0.550643
Si Si2 0.917977 0.562487 0.235780
Si Si3 0.857775 0.673364 0.613333
Si Si4 0.668210 0.923073 0.716456
Si Si5 0.419116 0.427867 0.964631
Si Si6 0.191032 0.331237 0.828193
O O1 0.661858 0.750000 0.553057
O O2 0.773799 0.683181 0.609347
O O3 0.659244 0.614482 0.610606
O O4 0.716910 0.652160 0.438555
O O5 0.872435 0.495509 0.205790
O O6 0.912635 0.578240 0.349781
O O7 0.883892 0.629417 0.183740
O O8 0.000000 0.553539 0.202250
O O9 0.893573 0.750000 0.625887
O O10 0.875247 0.623907 0.705329
O O11 0.882677 0.639058 0.512216
O O12 0.750000 0.936423 0.750000
O O13 0.500000 0.428336 0.002311
O O14 0.381832 0.500000 0.000000
O O15 0.176909 0.250000 0.810543
O O16 0.250000 0.358581 0.750000
#
# Coordination Sequence:
#
# PCOD8299011 Si02
#       6
#    16  16  16  16  16  16
#     4   9  19  36  57  83 113 143 181 236 286 327
#     4  11  23  38  57  81 114 150 188 233 281 333
#     4  10  19  33  57  86 112 143 183 228 281 340
#     4  10  20  35  57  85 115 149 184 225 278 342
#     4  10  20  35  53  76 111 149 179 219 279 339
#     4  10  21  39  61  84 111 145 189 237 284 335
#
# _framework density 19.528331999999999
#
# number of rings (size 3 to 8) (size 9 to 14) (size 15 to 20)
#    0.000    2.000    1.667    2.000    0.000    5.333 
#    0.000    3.333    0.000    2.500    0.000    0.000 
#    0.000    0.000    0.000    0.000    0.000    0.000 
#
# Total GULP energy -595071.431805 kJ/mol
# GULP energy per Si atom -12397.321496 kJ/mol
# Density = 1.948388 g / cm^3
# Si number density = 19.528332 Si / 1000 Ang^3
#
#
#
# Elastic Constant Matrix: (Units=GPa)
#
#
# Indices 1 2 3 4 5 6 
#
# 1 69.5513 45.5886 25.4101 0.0000 0.0000 0.0000
# 2 45.5886 115.4500 38.9498 0.0000 0.0000 0.0000
# 3 25.4101 38.9498 101.3248 0.0000 0.0000 0.0000
# 4 0.0000 0.0000 0.0000 34.0721 0.0000 0.0000
# 5 0.0000 0.0000 0.0000 0.0000 14.0889 0.0000
# 6 0.0000 0.0000 0.0000 0.0000 0.0000 9.1075
#
#
#
# Elastic Compliance Matrix: (Units=1/GPa)
#
#
# Indices 1 2 3 4 5 6 
#
# 1 0.019838 -0.007072 -0.002256 0.000000 0.000000 0.000000
# 2 -0.007072 0.012474 -0.003021 0.000000 0.000000 0.000000
# 3 -0.002256 -0.003021 0.011597 0.000000 0.000000 0.000000
# 4 0.000000 0.000000 0.000000 0.029350 0.000000 0.000000
# 5 0.000000 0.000000 0.000000 0.000000 0.070978 0.000000
# 6 0.000000 0.000000 0.000000 0.000000 0.000000 0.109799
#
#
# Mechanical properties :
#
#
# Convention : Reuss Voigt Hill
#
# Bulk Modulus (GPa) = 52.06116 56.24703 54.15409
# Shear Modulus (GPa) = 17.53540 23.21221 20.37380
#
# Velocity S-wave (km/s) = 2.99983 3.45141 3.23351
# Velocity P-wave (km/s) = 6.22220 6.68942 6.46003
#
# Compressibility (1/GPa) = 0.01920818
#
# Stress axis : x y z
#
# Youngs Moduli (GPa) = 50.40865 80.16808 86.23274
#
# Poissons Ratio (x) = 0.56697 0.19457
# Poissons Ratio (y) = 0.35651 0.26054
# Poissons Ratio (z) = 0.11374 0.24222
#
# Static dielectric constant tensor:
#      x y z
#    x 3.338720 0.000000 0.000000 
#    y 0.000000 3.764140 0.000000 
#    z 0.000000 0.000000 3.557120 
# 
# 
# High freq. dielectric constant tensor:
#      x y z
#    x 1.723980 0.000000 0.000000 
#    y 0.000000 1.774190 0.000000 
#    z 0.000000 0.000000 1.762250 
# 
# From -- ./inp_files/23948.got.cif
#   From: 2010.03.12/outbox.cif.g09.slc.cpg/sg74_12_cif.got.tgz:23948.got - 2010.04.16 15:46:19.
