data_PCOD8299720
_publ_section_title
;
Structure prediction by ZEFSAII (Michael W. Deem and Ramdas Pophale) SiO2 
 PCOD8299720
Probable space group: I M M A
;
_chemical_formula_sum "Si O2"
_cell_formula_units_Z 96
_cell_length_a 23.866057
_cell_length_b 22.425823
_cell_length_c 9.662169
_cell_angle_alpha 90.000000
_cell_angle_beta 90.000000
_cell_angle_gamma 90.000000
_cell_volume 5171.347154
_symmetry_space_group_name_H-M "I M M A"
_symmetry_group_IT_number 74
_symmetry_cell_setting 'orthorhombic'
loop_
_space_group_symop_operation_xyz
x,y,z
-x,1/2-y,z
x,-y,-z
-x,1/2+y,-z
-x,-y,-z
x,1/2+y,-z
-x,y,z
x,1/2-y,z
1/2+x,1/2+y,1/2+z
1/2-x,-y,1/2+z
1/2+x,1/2-y,1/2-z
1/2-x,y,1/2-z
1/2-x,1/2-y,1/2-z
1/2+x,y,1/2-z
1/2-x,1/2+y,1/2+z
1/2+x,-y,1/2+z
loop_
_atom_site_type_symbol
_atom_site_label
_atom_site_fract_x
_atom_site_fract_y
_atom_site_fract_z
Si Si1 0.663178 0.599516 0.774446
Si Si2 0.345780 0.631253 0.476869
Si Si3 0.562823 0.318702 0.724193
Si Si4 0.629075 0.615993 0.061776
Si Si5 0.813505 0.035799 0.768155
Si Si6 0.772143 0.318733 0.462960
O O1 0.635283 0.627135 0.637086
O O2 0.684706 0.535144 0.727646
O O3 0.617347 0.599004 0.900105
O O4 0.715956 0.639457 0.827839
O O5 0.394258 0.666585 0.398229
O O6 0.337436 0.565894 0.408398
O O7 0.287821 0.667660 0.469386
O O8 0.500000 0.334605 0.674678
O O9 0.567914 0.250000 0.764251
O O10 0.574960 0.356848 0.863125
O O11 0.649602 0.556286 0.137745
O O12 0.679155 0.665403 0.074474
O O13 0.750000 0.057156 0.750000
O O14 0.776031 0.250000 0.418565
#
# Coordination Sequence:
#
# PCOD8299720 Si02
#       6
#    16  16  16  16  16  16
#     4  10  22  33  54  86 120 157 181 227 283 347
#     4  11  21  34  55  86 119 153 183 241 283 342
#     4  10  22  41  61  79 106 149 198 243 286 337
#     4   9  21  35  56  82 112 147 187 236 276 339
#     4  11  18  33  54  84 120 154 196 223 275 339
#     4  10  20  33  52  86 120 151 181 222 289 348
#
# _framework density 18.563827
#
# number of rings (size 3 to 8) (size 9 to 14) (size 15 to 20)
#    1.000    0.833    1.667    3.500    0.000    3.333 
#    0.000    3.333    0.000   18.000    0.000    0.000 
#    0.000    0.000    0.000    0.000    0.000    0.000 
#
# Total GULP energy -594777.009280 kJ/mol
# GULP energy per Si atom -12391.187693 kJ/mol
# Density = 1.852157 g / cm^3
# Si number density = 18.563827 Si / 1000 Ang^3
#
#
#
# Elastic Constant Matrix: (Units=GPa)
#
#
# Indices 1 2 3 4 5 6 
#
# 1 71.7359 26.0226 34.8329 0.0000 0.0000 0.0000
# 2 26.0226 100.3904 1.6023 0.0000 0.0000 0.0000
# 3 34.8329 1.6023 83.4581 0.0000 0.0000 0.0000
# 4 0.0000 0.0000 0.0000 11.4943 0.0000 0.0000
# 5 0.0000 0.0000 0.0000 0.0000 17.5890 0.0000
# 6 0.0000 0.0000 0.0000 0.0000 0.0000 19.6408
#
#
#
# Elastic Compliance Matrix: (Units=1/GPa)
#
#
# Indices 1 2 3 4 5 6 
#
# 1 0.019688 -0.004974 -0.008122 0.000000 0.000000 0.000000
# 2 -0.004974 0.011221 0.001860 0.000000 0.000000 0.000000
# 3 -0.008122 0.001860 0.015336 0.000000 0.000000 0.000000
# 4 0.000000 0.000000 0.000000 0.087000 0.000000 0.000000
# 5 0.000000 0.000000 0.000000 0.000000 0.056854 0.000000
# 6 0.000000 0.000000 0.000000 0.000000 0.000000 0.050914
#
#
# Mechanical properties :
#
#
# Convention : Reuss Voigt Hill
#
# Bulk Modulus (GPa) = 42.06134 42.27778 42.16956
# Shear Modulus (GPa) = 18.42248 22.61992 20.52120
#
# Velocity S-wave (km/s) = 3.15363 3.49448 3.32842
# Velocity P-wave (km/s) = 5.99728 6.25345 6.12670
#
# Compressibility (1/GPa) = 0.02377480
#
# Stress axis : x y z
#
# Youngs Moduli (GPa) = 50.79251 89.12104 65.20570
#
# Poissons Ratio (x) = 0.44327 0.52958
# Poissons Ratio (y) = 0.25263 -0.12131
# Poissons Ratio (z) = 0.41252 -0.16581
#
# Static dielectric constant tensor:
#      x y z
#    x 3.071460 0.000000 0.000000 
#    y 0.000000 3.277580 0.000000 
#    z 0.000000 0.000000 3.494790 
# 
# 
# High freq. dielectric constant tensor:
#      x y z
#    x 1.675460 0.000000 0.000000 
#    y 0.000000 1.723280 0.000000 
#    z 0.000000 0.000000 1.728250 
# 
# From -- ./inp_files/25478.got.cif
#   From: 2010.03.12/outbox.cif.g09.slc.cpg/sg74_13_cif.got.tgz:25478.got - 2010.04.16 15:46:19.
