data_PCOD8299675
_publ_section_title
;
Structure prediction by ZEFSAII (Michael W. Deem and Ramdas Pophale) SiO2 
 PCOD8299675
Probable space group: I M M A
;
_chemical_formula_sum "Si O2"
_cell_formula_units_Z 104
_cell_length_a 9.212315
_cell_length_b 20.770627
_cell_length_c 28.145714
_cell_angle_alpha 90.000000
_cell_angle_beta 90.000000
_cell_angle_gamma 90.000000
_cell_volume 5385.557370
_symmetry_space_group_name_H-M "I M M A"
_symmetry_group_IT_number 74
_symmetry_cell_setting 'orthorhombic'
loop_
_space_group_symop_operation_xyz
x,y,z
-x,1/2-y,z
x,-y,-z
-x,1/2+y,-z
-x,-y,-z
x,1/2+y,-z
-x,y,z
x,1/2-y,z
1/2+x,1/2+y,1/2+z
1/2-x,-y,1/2+z
1/2+x,1/2-y,1/2-z
1/2-x,y,1/2-z
1/2-x,1/2-y,1/2-z
1/2+x,y,1/2-z
1/2-x,1/2+y,1/2+z
1/2+x,-y,1/2+z
loop_
_atom_site_type_symbol
_atom_site_label
_atom_site_fract_x
_atom_site_fract_y
_atom_site_fract_z
Si Si1 0.834632 0.825613 0.643829
Si Si2 0.828839 0.250000 0.699248
Si Si3 0.669474 0.606589 0.562366
Si Si4 0.661783 0.485517 0.618627
Si Si5 0.335949 0.918421 0.705323
Si Si6 0.671184 0.355541 0.876946
Si Si7 0.664085 0.178633 0.530584
O O1 0.826439 0.750000 0.648618
O O2 0.765191 0.846506 0.594183
O O3 0.745355 0.854518 0.687746
O O4 0.000000 0.850577 0.645560
O O5 0.750000 0.250000 0.750000
O O6 0.782365 0.313321 0.669006
O O7 0.000000 0.250000 0.708894
O O8 0.500000 0.619848 0.573861
O O9 0.705316 0.531455 0.573842
O O10 0.706545 0.623939 0.507857
O O11 0.500000 0.457411 0.610416
O O12 0.666759 0.527860 0.665401
O O13 0.772849 0.428112 0.626611
O O14 0.500000 0.900429 0.719533
O O15 0.250000 0.947179 0.750000
O O16 0.500000 0.356627 0.881238
O O17 0.731657 0.323827 0.924515
O O18 0.500000 0.166254 0.548048
O O19 0.678076 0.250000 0.507638
#
# Coordination Sequence:
#
# PCOD8299675 Si02
#       7
#    16   8  16  16  16  16  16
#     4  10  20  33  51  78 112 149 191 237 284 336
#     4  10  24  44  64  88 116 148 188 238 293 350
#     4   9  19  36  57  83 115 152 195 239 281 333
#     4   9  20  38  58  82 113 149 189 233 284 342
#     4  10  21  37  57  79 107 144 186 236 288 341
#     4  11  23  40  60  85 118 149 183 232 288 343
#     4  10  20  35  59  87 115 153 196 235 281 338
#
# _framework density 19.310908000000001
#
# number of rings (size 3 to 8) (size 9 to 14) (size 15 to 20)
#    0.000    2.154    0.769    2.769    0.000    8.308 
#    0.000    6.154    0.000    0.000    0.000    0.000 
#    0.000    0.000    0.000    0.000    0.000    0.000 
#
# Total GULP energy -644736.394001 kJ/mol
# GULP energy per Si atom -12398.776808 kJ/mol
# Density = 1.926696 g / cm^3
# Si number density = 19.310908 Si / 1000 Ang^3
#
#
#
# Elastic Constant Matrix: (Units=GPa)
#
#
# Indices 1 2 3 4 5 6 
#
# 1 109.2579 53.0883 56.9164 0.0000 0.0000 0.0000
# 2 53.0883 111.7096 56.3412 0.0000 0.0000 0.0000
# 3 56.9164 56.3412 122.1585 0.0000 0.0000 0.0000
# 4 0.0000 0.0000 0.0000 19.5327 0.0000 0.0000
# 5 0.0000 0.0000 0.0000 0.0000 34.7432 0.0000
# 6 0.0000 0.0000 0.0000 0.0000 0.0000 33.3946
#
#
#
# Elastic Compliance Matrix: (Units=1/GPa)
#
#
# Indices 1 2 3 4 5 6 
#
# 1 0.013452 -0.004211 -0.004325 0.000000 0.000000 0.000000
# 2 -0.004211 0.012984 -0.004026 0.000000 0.000000 0.000000
# 3 -0.004325 -0.004026 0.012058 0.000000 0.000000 0.000000
# 4 0.000000 0.000000 0.000000 0.051196 0.000000 0.000000
# 5 0.000000 0.000000 0.000000 0.000000 0.028783 0.000000
# 6 0.000000 0.000000 0.000000 0.000000 0.000000 0.029945
#
#
# Mechanical properties :
#
#
# Convention : Reuss Voigt Hill
#
# Bulk Modulus (GPa) = 74.80263 75.09087 74.94675
# Shear Modulus (GPa) = 28.08990 29.31944 28.70467
#
# Velocity S-wave (km/s) = 3.81808 3.90074 3.85963
# Velocity P-wave (km/s) = 7.63263 7.69788 7.66532
#
# Compressibility (1/GPa) = 0.01336851
#
# Stress axis : x y z
#
# Youngs Moduli (GPa) = 74.33724 77.01908 82.93095
#
# Poissons Ratio (x) = 0.32436 0.35870
# Poissons Ratio (y) = 0.31307 0.33389
# Poissons Ratio (z) = 0.32153 0.31009
#
# Static dielectric constant tensor:
#      x y z
#    x 3.628030 0.000000 0.000000 
#    y 0.000000 3.614770 0.000000 
#    z 0.000000 0.000000 3.590580 
# 
# 
# High freq. dielectric constant tensor:
#      x y z
#    x 1.754240 0.000000 0.000000 
#    y 0.000000 1.752980 0.000000 
#    z 0.000000 0.000000 1.749960 
# 
# From -- ./inp_files/64531.got.cif
#   From: 2010.03.12/outbox.cif.g09.slc.cpg/sg74_33_cif.got.tgz:64531.got - 2010.04.16 15:46:19.
