data_PCOD8299214
_publ_section_title
;
Structure prediction by ZEFSAII (Michael W. Deem and Ramdas Pophale) SiO2 
 PCOD8299214
Probable space group: I M M A
;
_chemical_formula_sum "Si O2"
_cell_formula_units_Z 112
_cell_length_a 24.039732
_cell_length_b 13.911501
_cell_length_c 14.975111
_cell_angle_alpha 90.000000
_cell_angle_beta 90.000000
_cell_angle_gamma 90.000000
_cell_volume 5008.107739
_symmetry_space_group_name_H-M "I M M A"
_symmetry_group_IT_number 74
_symmetry_cell_setting 'orthorhombic'
loop_
_space_group_symop_operation_xyz
x,y,z
-x,1/2-y,z
x,-y,-z
-x,1/2+y,-z
-x,-y,-z
x,1/2+y,-z
-x,y,z
x,1/2-y,z
1/2+x,1/2+y,1/2+z
1/2-x,-y,1/2+z
1/2+x,1/2-y,1/2-z
1/2-x,y,1/2-z
1/2-x,1/2-y,1/2-z
1/2+x,y,1/2-z
1/2-x,1/2+y,1/2+z
1/2+x,-y,1/2+z
loop_
_atom_site_type_symbol
_atom_site_label
_atom_site_fract_x
_atom_site_fract_y
_atom_site_fract_z
Si Si1 0.722870 0.137714 0.481070
Si Si2 0.937537 0.609148 0.028758
Si Si3 0.563355 0.860179 0.087549
Si Si4 0.838741 0.359647 0.848388
Si Si5 0.120718 0.997770 0.283830
Si Si6 0.625688 0.145538 0.360784
Si Si7 0.653133 0.638076 0.936656
O O1 0.712318 0.250000 0.487263
O O2 0.700568 0.094220 0.574551
O O3 0.685513 0.103547 0.396352
O O4 0.787295 0.110940 0.477327
O O5 0.902465 0.633571 0.117335
O O6 0.000000 0.641860 0.049889
O O7 0.933000 0.500000 0.000000
O O8 0.913940 0.667172 0.944625
O O9 0.500000 0.872280 0.053549
O O10 0.574317 0.750000 0.118573
O O11 0.572932 0.933732 0.169333
O O12 0.604843 0.887459 0.007082
O O13 0.822606 0.250000 0.824225
O O14 0.834158 0.423494 0.758229
O O15 0.097511 0.067166 0.205134
O O16 0.149327 0.070631 0.351547
O O17 0.633346 0.250000 0.312683
O O18 0.650103 0.750000 0.908744
#
# Coordination Sequence:
#
# PCOD8299214 Si02
#       7
#    16  16  16  16  16  16  16
#     4   8  18  40  65  88 126 173 214 253 304 381
#     4  10  19  35  57  85 123 169 215 253 298 369
#     4  10  24  48  71  89 121 170 220 272 330 384
#     4  10  21  39  62  90 128 171 209 256 313 370
#     4  12  23  38  60 101 127 156 206 269 316 383
#     4  10  21  38  60  90 131 172 206 258 319 374
#     4  10  22  44  69  92 122 167 216 264 324 385
#
# _framework density 22.363735999999999
#
# number of rings (size 3 to 8) (size 9 to 14) (size 15 to 20)
#    0.000    2.000    1.429    2.571    0.000    4.000 
#    7.714    2.143    0.000    6.000    0.000    0.000 
#    0.000    0.000    0.000    0.000    0.000    0.000 
#
# Total GULP energy -694038.176838 kJ/mol
# GULP energy per Si atom -12393.538872 kJ/mol
# Density = 2.231283 g / cm^3
# Si number density = 22.363736 Si / 1000 Ang^3
#
#
#
# Elastic Constant Matrix: (Units=GPa)
#
#
# Indices 1 2 3 4 5 6 
#
# 1 139.3159 22.2233 49.3202 0.0000 0.0000 0.0000
# 2 22.2233 118.5057 55.9700 0.0000 0.0000 0.0000
# 3 49.3202 55.9700 114.1179 0.0000 0.0000 0.0000
# 4 0.0000 0.0000 0.0000 44.1904 0.0000 0.0000
# 5 0.0000 0.0000 0.0000 0.0000 20.1052 0.0000
# 6 0.0000 0.0000 0.0000 0.0000 0.0000 -8.8120
#
#
#
# Elastic Compliance Matrix: (Units=1/GPa)
#
#
# Indices 1 2 3 4 5 6 
#
# 1 0.008478 0.000183 -0.003754 0.000000 0.000000 0.000000
# 2 0.000183 0.010986 -0.005467 0.000000 0.000000 0.000000
# 3 -0.003754 -0.005467 0.013067 0.000000 0.000000 0.000000
# 4 0.000000 0.000000 0.000000 0.022629 0.000000 0.000000
# 5 0.000000 0.000000 0.000000 0.000000 0.049738 0.000000
# 6 0.000000 0.000000 0.000000 0.000000 0.000000 -0.113482
#
#
# Mechanical properties :
#
#
# Convention : Reuss Voigt Hill
#
# Bulk Modulus (GPa) = 69.18259 69.66294 69.42277
# Shear Modulus (GPa) = 349.38172 27.39180 188.38676
#
# Velocity S-wave (km/s) = 12.51264 3.50356 9.18806
# Velocity P-wave (km/s) = 15.48409 6.89812 11.98627
#
# Compressibility (1/GPa) = 0.01445450
#
# Stress axis : x y z
#
# Youngs Moduli (GPa) = 117.95790 91.02200 76.53035
#
# Poissons Ratio (x) = -0.01666 0.28727
# Poissons Ratio (y) = -0.02159 0.41843
# Poissons Ratio (z) = 0.44278 0.49766
#
# Static dielectric constant tensor:
#      x y z
#    x 3.845700 0.000000 0.000000 
#    y 0.000000 4.332650 0.000000 
#    z 0.000000 0.000000 3.932110 
# 
# 
# High freq. dielectric constant tensor:
#      x y z
#    x 1.854720 0.000000 0.000000 
#    y 0.000000 1.910910 0.000000 
#    z 0.000000 0.000000 1.862500 
# 
# From -- ./inp_files/36534.got.cif
#   From: 2010.03.12/outbox.cif.g09.slc.cpg/sg74_19_cif.got.tgz:36534.got - 2010.04.16 15:46:19.
