data_PCOD8299810
_publ_section_title
;
Structure prediction by ZEFSAII (Michael W. Deem and Ramdas Pophale) SiO2 
 PCOD8299810
Probable space group: I M M A
;
_chemical_formula_sum "Si O2"
_cell_formula_units_Z 88
_cell_length_a 8.730622
_cell_length_b 19.405249
_cell_length_c 27.443870
_cell_angle_alpha 90.000000
_cell_angle_beta 90.000000
_cell_angle_gamma 90.000000
_cell_volume 4649.537542
_symmetry_space_group_name_H-M "I M M A"
_symmetry_group_IT_number 74
_symmetry_cell_setting 'orthorhombic'
loop_
_space_group_symop_operation_xyz
x,y,z
-x,1/2-y,z
x,-y,-z
-x,1/2+y,-z
-x,-y,-z
x,1/2+y,-z
-x,y,z
x,1/2-y,z
1/2+x,1/2+y,1/2+z
1/2-x,-y,1/2+z
1/2+x,1/2-y,1/2-z
1/2-x,y,1/2-z
1/2-x,1/2-y,1/2-z
1/2+x,y,1/2-z
1/2-x,1/2+y,1/2+z
1/2+x,-y,1/2+z
loop_
_atom_site_type_symbol
_atom_site_label
_atom_site_fract_x
_atom_site_fract_y
_atom_site_fract_z
Si Si1 0.178775 0.750000 0.197762
Si Si2 0.680161 0.172864 0.021107
Si Si3 0.828833 0.114963 0.665246
Si Si4 0.680168 0.068867 0.101477
Si Si5 0.318258 0.023358 0.300609
Si Si6 0.669214 0.931395 0.056739
O O1 0.250000 0.750000 0.250000
O O2 0.232360 0.683428 0.169331
O O3 0.000000 0.750000 0.202312
O O4 0.500000 0.178966 0.011122
O O5 0.752924 0.250000 0.018180
O O6 0.710950 0.141536 0.074939
O O7 0.755251 0.120449 0.981029
O O8 0.839286 0.104844 0.608229
O O9 0.000000 0.121897 0.687637
O O10 0.742477 0.054021 0.693049
O O11 0.500000 0.054847 0.111183
O O12 0.764069 0.069895 0.153645
O O13 0.744387 0.007239 0.065758
O O14 0.500000 0.024061 0.297978
O O15 0.250000 0.053553 0.250000
O O16 0.500000 0.943524 0.034720
#
# Coordination Sequence:
#
# PCOD8299810 Si02
#       6
#     8  16  16  16  16  16
#     4  12  24  36  48  66  98 140 182 222 267 314
#     4   9  16  26  47  79 109 136 173 219 260 301
#     4  10  20  34  52  75 103 136 175 220 262 307
#     4   9  17  31  50  76 107 138 173 215 260 308
#     4  11  21  35  55  77 101 130 168 215 264 318
#     4   8  15  27  47  74 104 136 172 214 256 298
#
# _framework density 18.926613
#
# number of rings (size 3 to 8) (size 9 to 14) (size 15 to 20)
#    0.000    2.364    0.000    5.182    1.273    2.182 
#    0.000    0.000    0.000   10.909    0.000    0.000 
#    0.000    0.000    0.000    0.000    0.000    0.000 
#
# Total GULP energy -545275.358201 kJ/mol
# GULP energy per Si atom -12392.621777 kJ/mol
# Density = 1.888354 g / cm^3
# Si number density = 18.926613 Si / 1000 Ang^3
#
#
#
# Elastic Constant Matrix: (Units=GPa)
#
#
# Indices 1 2 3 4 5 6 
#
# 1 94.9284 20.4304 31.8465 0.0000 0.0000 0.0000
# 2 20.4304 89.8715 54.4329 0.0000 0.0000 0.0000
# 3 31.8465 54.4329 104.5658 0.0000 0.0000 0.0000
# 4 0.0000 0.0000 0.0000 11.0271 0.0000 0.0000
# 5 0.0000 0.0000 0.0000 0.0000 21.1882 0.0000
# 6 0.0000 0.0000 0.0000 0.0000 0.0000 15.8710
#
#
#
# Elastic Compliance Matrix: (Units=1/GPa)
#
#
# Indices 1 2 3 4 5 6 
#
# 1 0.011766 -0.000737 -0.003200 0.000000 0.000000 0.000000
# 2 -0.000737 0.016297 -0.008259 0.000000 0.000000 0.000000
# 3 -0.003200 -0.008259 0.014837 0.000000 0.000000 0.000000
# 4 0.000000 0.000000 0.000000 0.090686 0.000000 0.000000
# 5 0.000000 0.000000 0.000000 0.000000 0.047196 0.000000
# 6 0.000000 0.000000 0.000000 0.000000 0.000000 0.063008
#
#
# Mechanical properties :
#
#
# Convention : Reuss Voigt Hill
#
# Bulk Modulus (GPa) = 54.02832 55.86504 54.94668
# Shear Modulus (GPa) = 18.22480 21.79433 20.00956
#
# Velocity S-wave (km/s) = 3.10646 3.39708 3.25502
# Velocity P-wave (km/s) = 6.44011 6.70579 6.57429
#
# Compressibility (1/GPa) = 0.01850881
#
# Stress axis : x y z
#
# Youngs Moduli (GPa) = 84.98809 61.36170 67.39743
#
# Poissons Ratio (x) = 0.04520 0.21568
# Poissons Ratio (y) = 0.06260 0.55664
# Poissons Ratio (z) = 0.27197 0.50679
#
# Static dielectric constant tensor:
#      x y z
#    x 2.973590 0.000000 0.000000 
#    y 0.000000 3.441550 0.000000 
#    z 0.000000 0.000000 3.552910 
# 
# 
# High freq. dielectric constant tensor:
#      x y z
#    x 1.694560 0.000000 0.000000 
#    y 0.000000 1.721260 0.000000 
#    z 0.000000 0.000000 1.745440 
# 
# From -- ./inp_files/70214.got.cif
#   From: 2010.03.12/outbox.cif.g09.slc.cpg/sg74_36_cif.got.tgz:70214.got - 2010.04.16 15:46:19.
