data_PCOD8299330
_publ_section_title
;
Structure prediction by ZEFSAII (Michael W. Deem and Ramdas Pophale) SiO2 
 PCOD8299330
Probable space group: I M M A
;
_chemical_formula_sum "Si O2"
_cell_formula_units_Z 48
_cell_length_a 16.838038
_cell_length_b 14.275036
_cell_length_c 9.147241
_cell_angle_alpha 90.000000
_cell_angle_beta 90.000000
_cell_angle_gamma 90.000000
_cell_volume 2198.663764
_symmetry_space_group_name_H-M "I M M A"
_symmetry_group_IT_number 74
_symmetry_cell_setting 'orthorhombic'
loop_
_space_group_symop_operation_xyz
x,y,z
-x,1/2-y,z
x,-y,-z
-x,1/2+y,-z
-x,-y,-z
x,1/2+y,-z
-x,y,z
x,1/2-y,z
1/2+x,1/2+y,1/2+z
1/2-x,-y,1/2+z
1/2+x,1/2-y,1/2-z
1/2-x,y,1/2-z
1/2-x,1/2-y,1/2-z
1/2+x,y,1/2-z
1/2-x,1/2+y,1/2+z
1/2+x,-y,1/2+z
loop_
_atom_site_type_symbol
_atom_site_label
_atom_site_fract_x
_atom_site_fract_y
_atom_site_fract_z
Si Si1 0.095465 0.250000 0.679686
Si Si2 0.406482 0.440980 0.366205
Si Si3 0.678159 0.558545 0.140617
Si Si4 0.905685 0.250000 0.020219
O O1 0.133359 0.156856 0.605096
O O2 0.000000 0.250000 0.656926
O O3 0.119882 0.250000 0.850522
O O4 0.371954 0.500000 0.500000
O O5 0.500000 0.435377 0.373999
O O6 0.383458 0.486775 0.213949
O O7 0.369886 0.337885 0.391637
O O8 0.750000 0.579528 0.250000
O O9 0.708080 0.500000 0.000000
O O10 0.000000 0.250000 0.024215
#
# Coordination Sequence:
#
# PCOD8299330 Si02
#       4
#     8  16  16   8
#     4  11  23  44  74 100 128 175 227 279 336 392
#     4  10  19  37  65  96 129 170 222 275 327 392
#     4  12  27  45  65  98 138 182 221 274 335 402
#     4   9  18  34  66 101 126 164 215 271 328 390
#
# _framework density 21.831440000000001
#
# number of rings (size 3 to 8) (size 9 to 14) (size 15 to 20)
#    0.000    1.333    3.333    2.500    0.000    4.000 
#    0.000    3.333    0.000    0.000    0.000    0.000 
#    0.000    0.000    0.000    0.000    0.000    0.000 
#
# Total GULP energy -297471.631199 kJ/mol
# GULP energy per Si atom -12394.651300 kJ/mol
# Density = 2.178175 g / cm^3
# Si number density = 21.831440 Si / 1000 Ang^3
#
#
#
# Elastic Constant Matrix: (Units=GPa)
#
#
# Indices 1 2 3 4 5 6 
#
# 1 62.6597 55.7954 25.3802 0.0000 0.0000 0.0000
# 2 55.7954 197.1353 41.7231 0.0000 0.0000 0.0000
# 3 25.3802 41.7231 70.8039 0.0000 0.0000 0.0000
# 4 0.0000 0.0000 0.0000 31.6193 0.0000 0.0000
# 5 0.0000 0.0000 0.0000 0.0000 23.0032 0.0000
# 6 0.0000 0.0000 0.0000 0.0000 0.0000 19.4587
#
#
#
# Elastic Compliance Matrix: (Units=1/GPa)
#
#
# Indices 1 2 3 4 5 6 
#
# 1 0.022781 -0.005392 -0.004989 0.000000 0.000000 0.000000
# 2 -0.005392 0.007072 -0.002234 0.000000 0.000000 0.000000
# 3 -0.004989 -0.002234 0.017228 0.000000 0.000000 0.000000
# 4 0.000000 0.000000 0.000000 0.031626 0.000000 0.000000
# 5 0.000000 0.000000 0.000000 0.000000 0.043472 0.000000
# 6 0.000000 0.000000 0.000000 0.000000 0.000000 0.051391
#
#
# Mechanical properties :
#
#
# Convention : Reuss Voigt Hill
#
# Bulk Modulus (GPa) = 45.76423 64.04403 54.90413
# Shear Modulus (GPa) = 24.26192 28.66293 26.46242
#
# Velocity S-wave (km/s) = 3.33728 3.62735 3.48533
# Velocity P-wave (km/s) = 5.98815 6.85149 6.43432
#
# Compressibility (1/GPa) = 0.02185113
#
# Stress axis : x y z
#
# Youngs Moduli (GPa) = 43.89596 141.41010 58.04360
#
# Poissons Ratio (x) = 0.76247 0.28957
# Poissons Ratio (y) = 0.23668 0.12969
# Poissons Ratio (z) = 0.21899 0.31596
#
# Static dielectric constant tensor:
#      x y z
#    x 3.718150 0.000000 0.000000 
#    y 0.000000 4.460790 0.000000 
#    z 0.000000 0.000000 4.033970 
# 
# 
# High freq. dielectric constant tensor:
#      x y z
#    x 1.848240 0.000000 0.000000 
#    y 0.000000 1.881220 0.000000 
#    z 0.000000 0.000000 1.831080 
# 
# From -- ./inp_files/8090.got.cif
#   From: 2010.03.12/outbox.cif.g09.slc.cpg/sg74_5_cif.got.tgz:8090.got - 2010.04.16 15:46:19.
