data_PCOD8299508
_publ_section_title
;
Structure prediction by ZEFSAII (Michael W. Deem and Ramdas Pophale) SiO2 
 PCOD8299508
Probable space group: I M M A
;
_chemical_formula_sum "Si O2"
_cell_formula_units_Z 64
_cell_length_a 14.269530
_cell_length_b 8.927971
_cell_length_c 27.948769
_cell_angle_alpha 90.000000
_cell_angle_beta 90.000000
_cell_angle_gamma 90.000000
_cell_volume 3560.615876
_symmetry_space_group_name_H-M "I M M A"
_symmetry_group_IT_number 74
_symmetry_cell_setting 'orthorhombic'
loop_
_space_group_symop_operation_xyz
x,y,z
-x,1/2-y,z
x,-y,-z
-x,1/2+y,-z
-x,-y,-z
x,1/2+y,-z
-x,y,z
x,1/2-y,z
1/2+x,1/2+y,1/2+z
1/2-x,-y,1/2+z
1/2+x,1/2-y,1/2-z
1/2-x,y,1/2-z
1/2-x,1/2-y,1/2-z
1/2+x,y,1/2-z
1/2-x,1/2+y,1/2+z
1/2+x,-y,1/2+z
loop_
_atom_site_type_symbol
_atom_site_label
_atom_site_fract_x
_atom_site_fract_y
_atom_site_fract_z
Si Si1 0.607149 0.573986 0.550045
Si Si2 0.783866 0.072668 0.864720
Si Si3 0.144499 0.913072 0.234382
Si Si4 0.604070 0.578793 0.825462
O O1 0.634563 0.500000 0.500000
O O2 0.500000 0.534482 0.563761
O O3 0.622619 0.750000 0.545784
O O4 0.677339 0.508625 0.588959
O O5 0.782394 0.250000 0.872530
O O6 0.852642 0.028436 0.820492
O O7 0.677058 0.020628 0.855213
O O8 0.094143 0.750000 0.237201
O O9 0.250000 0.890289 0.250000
O O10 0.095277 0.029831 0.269694
O O11 0.500000 0.561506 0.848094
O O12 0.638141 0.750000 0.826883
#
# Coordination Sequence:
#
# PCOD8299508 Si02
#       4
#    16  16  16  16
#     4  10  21  37  57  80 105 132 164 206 256 308
#     4  10  20  34  53  76 103 137 175 213 255 305
#     4   8  16  30  46  67  96 131 170 209 249 294
#     4  10  20  32  48  73 105 140 177 216 256 300
#
# _framework density 17.974418
#
# number of rings (size 3 to 8) (size 9 to 14) (size 15 to 20)
#    0.000    2.500    0.000    3.750    0.000   10.000 
#    0.000    5.000    0.000    0.750    0.000    0.000 
#    0.000    0.000    0.000    0.000    0.000    0.000 
#
# Total GULP energy -396631.460507 kJ/mol
# GULP energy per Si atom -12394.733141 kJ/mol
# Density = 1.793351 g / cm^3
# Si number density = 17.974418 Si / 1000 Ang^3
#
#
#
# Elastic Constant Matrix: (Units=GPa)
#
#
# Indices 1 2 3 4 5 6 
#
# 1 80.0118 36.4921 49.7017 0.0000 0.0000 0.0000
# 2 36.4921 92.0299 50.3778 0.0000 0.0000 0.0000
# 3 49.7017 50.3778 119.6674 0.0000 0.0000 0.0000
# 4 0.0000 0.0000 0.0000 31.8222 0.0000 0.0000
# 5 0.0000 0.0000 0.0000 0.0000 19.5535 0.0000
# 6 0.0000 0.0000 0.0000 0.0000 0.0000 -39.8997
#
#
#
# Elastic Compliance Matrix: (Units=1/GPa)
#
#
# Indices 1 2 3 4 5 6 
#
# 1 0.017874 -0.003929 -0.005770 0.000000 0.000000 0.000000
# 2 -0.003929 0.014984 -0.004676 0.000000 0.000000 0.000000
# 3 -0.005770 -0.004676 0.012721 0.000000 0.000000 0.000000
# 4 0.000000 0.000000 0.000000 0.031425 0.000000 0.000000
# 5 0.000000 0.000000 0.000000 0.000000 0.051142 0.000000
# 6 0.000000 0.000000 0.000000 0.000000 0.000000 -0.025063
#
#
# Mechanical properties :
#
#
# Convention : Reuss Voigt Hill
#
# Bulk Modulus (GPa) = 59.41893 62.76137 61.09015
# Shear Modulus (GPa) = 36.37892 12.63768 24.50830
#
# Velocity S-wave (km/s) = 4.50369 2.65447 3.69658
# Velocity P-wave (km/s) = 7.75716 6.66241 7.23054
#
# Compressibility (1/GPa) = 0.01682965
#
# Stress axis : x y z
#
# Youngs Moduli (GPa) = 55.94660 66.73909 78.60845
#
# Poissons Ratio (x) = 0.26223 0.45354
# Poissons Ratio (y) = 0.21983 0.36757
# Poissons Ratio (z) = 0.32279 0.31207
#
# Static dielectric constant tensor:
#      x y z
#    x 3.205540 0.000000 0.000000 
#    y 0.000000 3.416400 0.000000 
#    z 0.000000 0.000000 3.417290 
# 
# 
# High freq. dielectric constant tensor:
#      x y z
#    x 1.687300 0.000000 0.000000 
#    y 0.000000 1.707830 0.000000 
#    z 0.000000 0.000000 1.676570 
# 
# From -- ./inp_files/56396.got.cif
#   From: 2010.03.12/outbox.cif.g09.slc.cpg/sg74_29_cif.got.tgz:56396.got - 2010.04.16 15:46:19.
