data_PCOD8299608
_publ_section_title
;
Structure prediction by ZEFSAII (Michael W. Deem and Ramdas Pophale) SiO2 
 PCOD8299608
Probable space group: I M M A
;
_chemical_formula_sum "Si O2"
_cell_formula_units_Z 104
_cell_length_a 25.505486
_cell_length_b 8.964386
_cell_length_c 23.656898
_cell_angle_alpha 90.000000
_cell_angle_beta 90.000000
_cell_angle_gamma 90.000000
_cell_volume 5408.937327
_symmetry_space_group_name_H-M "I M M A"
_symmetry_group_IT_number 74
_symmetry_cell_setting 'orthorhombic'
loop_
_space_group_symop_operation_xyz
x,y,z
-x,1/2-y,z
x,-y,-z
-x,1/2+y,-z
-x,-y,-z
x,1/2+y,-z
-x,y,z
x,1/2-y,z
1/2+x,1/2+y,1/2+z
1/2-x,-y,1/2+z
1/2+x,1/2-y,1/2-z
1/2-x,y,1/2-z
1/2-x,1/2-y,1/2-z
1/2+x,y,1/2-z
1/2-x,1/2+y,1/2+z
1/2+x,-y,1/2+z
loop_
_atom_site_type_symbol
_atom_site_label
_atom_site_fract_x
_atom_site_fract_y
_atom_site_fract_z
Si Si1 0.940228 0.587794 0.051339
Si Si2 0.560176 0.422494 0.746307
Si Si3 0.819069 0.926184 0.559522
Si Si4 0.906695 0.575829 0.374057
Si Si5 0.500000 0.427243 0.060488
Si Si6 0.301441 0.923173 0.558424
Si Si7 0.889837 0.574383 0.855483
O O1 0.913109 0.750000 0.059374
O O2 0.937775 0.488796 0.107632
O O3 0.000000 0.613797 0.035207
O O4 0.911736 0.500000 0.000000
O O5 0.500000 0.483613 0.742157
O O6 0.560167 0.250000 0.729327
O O7 0.582785 0.447714 0.808330
O O8 0.601974 0.507073 0.706624
O O9 0.831285 0.750000 0.557297
O O10 0.758555 0.959004 0.573493
O O11 0.835504 0.000000 0.500000
O O12 0.850403 0.007419 0.609758
O O13 0.910128 0.750000 0.390485
O O14 0.948811 0.481220 0.407659
O O15 0.500000 0.250000 0.055689
O O16 0.500000 0.500000 0.000000
O O17 0.310921 0.750000 0.548843
O O18 0.336779 0.978760 0.611734
O O19 0.318118 0.000000 0.500000
O O20 0.892531 0.750000 0.850026
#
# Coordination Sequence:
#
# PCOD8299608 Si02
#       7
#    16  16  16  16   8  16  16
#     4  10  20  33  49  72 104 140 178 228 289 347
#     4  10  22  41  60  79 110 153 193 236 287 337
#     4  10  20  37  60  87 117 151 187 229 283 346
#     4  11  22  40  61  85 117 152 190 236 284 335
#     4  12  24  38  60  90 122 154 189 228 279 342
#     4   9  20  37  57  83 116 149 187 236 290 340
#     4  11  22  35  54  81 109 144 191 239 284 339
#
# _framework density 19.227436000000001
#
# number of rings (size 3 to 8) (size 9 to 14) (size 15 to 20)
#    0.000    1.692    0.769    3.923    0.000    7.385 
#    0.000    0.769    0.000    4.615    0.000    0.000 
#    0.000    0.000    0.000    0.000    0.000    0.000 
#
# Total GULP energy -644684.825727 kJ/mol
# GULP energy per Si atom -12397.785110 kJ/mol
# Density = 1.918367 g / cm^3
# Si number density = 19.227436 Si / 1000 Ang^3
#
#
#
# Elastic Constant Matrix: (Units=GPa)
#
#
# Indices 1 2 3 4 5 6 
#
# 1 110.9024 57.4338 60.4216 0.0000 0.0000 0.0000
# 2 57.4338 116.6310 74.4967 0.0000 0.0000 0.0000
# 3 60.4216 74.4967 125.3390 0.0000 0.0000 0.0000
# 4 0.0000 0.0000 0.0000 37.5341 0.0000 0.0000
# 5 0.0000 0.0000 0.0000 0.0000 37.9844 0.0000
# 6 0.0000 0.0000 0.0000 0.0000 0.0000 26.3111
#
#
#
# Elastic Compliance Matrix: (Units=1/GPa)
#
#
# Indices 1 2 3 4 5 6 
#
# 1 0.013267 -0.003946 -0.004050 0.000000 0.000000 0.000000
# 2 -0.003946 0.014995 -0.007010 0.000000 0.000000 0.000000
# 3 -0.004050 -0.007010 0.014097 0.000000 0.000000 0.000000
# 4 0.000000 0.000000 0.000000 0.026642 0.000000 0.000000
# 5 0.000000 0.000000 0.000000 0.000000 0.026327 0.000000
# 6 0.000000 0.000000 0.000000 0.000000 0.000000 0.038007
#
#
# Mechanical properties :
#
#
# Convention : Reuss Voigt Hill
#
# Bulk Modulus (GPa) = 80.99477 81.95297 81.47387
# Shear Modulus (GPa) = 29.85719 31.06727 30.46223
#
# Velocity S-wave (km/s) = 3.94489 4.02404 3.98466
# Velocity P-wave (km/s) = 7.93508 8.01910 7.97720
#
# Compressibility (1/GPa) = 0.01234648
#
# Stress axis : x y z
#
# Youngs Moduli (GPa) = 75.37358 66.68899 70.93566
#
# Poissons Ratio (x) = 0.26318 0.28730
# Poissons Ratio (y) = 0.29745 0.49726
# Poissons Ratio (z) = 0.30527 0.46749
#
# Static dielectric constant tensor:
#      x y z
#    x 3.619200 0.000000 0.000000 
#    y 0.000000 3.757440 0.000000 
#    z 0.000000 0.000000 3.468880 
# 
# 
# High freq. dielectric constant tensor:
#      x y z
#    x 1.746950 0.000000 0.000000 
#    y 0.000000 1.760230 0.000000 
#    z 0.000000 0.000000 1.742160 
# 
# From -- ./inp_files/55193.got.cif
#   From: 2010.03.12/outbox.cif.g09.slc.cpg/sg74_28_cif.got.tgz:55193.got - 2010.04.16 15:46:19.
