data_PCOD8299910
_publ_section_title
;
Structure prediction by ZEFSAII (Michael W. Deem and Ramdas Pophale) SiO2 
 PCOD8299910
Probable space group: I M M A
;
_chemical_formula_sum "Si O2"
_cell_formula_units_Z 56
_cell_length_a 8.093602
_cell_length_b 9.690656
_cell_length_c 39.034573
_cell_angle_alpha 90.000000
_cell_angle_beta 90.000000
_cell_angle_gamma 90.000000
_cell_volume 3061.571839
_symmetry_space_group_name_H-M "I M M A"
_symmetry_group_IT_number 74
_symmetry_cell_setting 'orthorhombic'
loop_
_space_group_symop_operation_xyz
x,y,z
-x,1/2-y,z
x,-y,-z
-x,1/2+y,-z
-x,-y,-z
x,1/2+y,-z
-x,y,z
x,1/2-y,z
1/2+x,1/2+y,1/2+z
1/2-x,-y,1/2+z
1/2+x,1/2-y,1/2-z
1/2-x,y,1/2-z
1/2-x,1/2-y,1/2-z
1/2+x,y,1/2-z
1/2-x,1/2+y,1/2+z
1/2+x,-y,1/2+z
loop_
_atom_site_type_symbol
_atom_site_label
_atom_site_fract_x
_atom_site_fract_y
_atom_site_fract_z
Si Si1 0.191920 0.096144 0.844862
Si Si2 0.809106 0.401627 0.285750
Si Si3 0.316148 0.913615 0.421431
Si Si4 0.500000 0.414858 0.965425
O O1 0.268702 0.250000 0.841835
O O2 0.222590 0.034687 0.882932
O O3 0.000000 0.102868 0.836726
O O4 0.275898 0.997870 0.817785
O O5 0.724377 0.250000 0.290711
O O6 0.750000 0.470224 0.250000
O O7 0.000000 0.379374 0.282826
O O8 0.500000 0.967820 0.433363
O O9 0.323187 0.750000 0.420538
O O10 0.166723 0.962945 0.445726
O O11 0.500000 0.250000 0.971887
O O12 0.500000 0.500000 0.000000
#
# Coordination Sequence:
#
# PCOD8299910 Si02
#       4
#    16  16  16   8
#     4   9  18  33  54  78 100 126 168 218 260 303
#     4  10  21  35  50  70  99 137 174 208 254 311
#     4   8  16  32  53  77 104 135 172 211 256 311
#     4  10  20  34  54  78 106 140 172 210 260 308
#
# _framework density 18.291257000000002
#
# number of rings (size 3 to 8) (size 9 to 14) (size 15 to 20)
#    0.000    2.857    0.000    2.571    2.000    3.429 
#    0.000    1.429    0.000    1.714    0.000    0.000 
#    0.000    0.000    0.000    0.000    0.000    0.000 
#
# Total GULP energy -346952.259723 kJ/mol
# GULP energy per Si atom -12391.152133 kJ/mol
# Density = 1.824962 g / cm^3
# Si number density = 18.291257 Si / 1000 Ang^3
#
#
#
# Elastic Constant Matrix: (Units=GPa)
#
#
# Indices 1 2 3 4 5 6 
#
# 1 112.6416 33.1519 79.8556 0.0000 0.0000 0.0000
# 2 33.1519 48.0892 44.1745 0.0000 0.0000 0.0000
# 3 79.8556 44.1745 135.5542 0.0000 0.0000 0.0000
# 4 0.0000 0.0000 0.0000 33.0939 0.0000 0.0000
# 5 0.0000 0.0000 0.0000 0.0000 35.6335 0.0000
# 6 0.0000 0.0000 0.0000 0.0000 0.0000 14.9630
#
#
#
# Elastic Compliance Matrix: (Units=1/GPa)
#
#
# Indices 1 2 3 4 5 6 
#
# 1 0.015603 -0.003301 -0.008116 0.000000 0.000000 0.000000
# 2 -0.003301 0.030378 -0.007955 0.000000 0.000000 0.000000
# 3 -0.008116 -0.007955 0.014751 0.000000 0.000000 0.000000
# 4 0.000000 0.000000 0.000000 0.030217 0.000000 0.000000
# 5 0.000000 0.000000 0.000000 0.000000 0.028063 0.000000
# 6 0.000000 0.000000 0.000000 0.000000 0.000000 0.066832
#
#
# Mechanical properties :
#
#
# Convention : Reuss Voigt Hill
#
# Bulk Modulus (GPa) = 45.48059 67.84988 56.66523
# Shear Modulus (GPa) = 21.55951 26.01163 23.78557
#
# Velocity S-wave (km/s) = 3.43691 3.77514 3.60999
# Velocity P-wave (km/s) = 6.37718 7.49513 6.95864
#
# Compressibility (1/GPa) = 0.02198740
#
# Stress axis : x y z
#
# Youngs Moduli (GPa) = 64.09018 32.91900 67.79377
#
# Poissons Ratio (x) = 0.10867 0.55022
# Poissons Ratio (y) = 0.21157 0.53928
# Poissons Ratio (z) = 0.52016 0.26186
#
# Static dielectric constant tensor:
#      x y z
#    x 5.385020 0.000000 0.000000 
#    y 0.000000 3.781690 0.000000 
#    z 0.000000 0.000000 3.249060 
# 
# 
# High freq. dielectric constant tensor:
#      x y z
#    x 1.719930 0.000000 0.000000 
#    y 0.000000 1.671080 0.000000 
#    z 0.000000 0.000000 1.709210 
# 
# From -- ./inp_files/63254.got.cif
#   From: 2010.03.12/outbox.cif.g09.slc.cpg/sg74_32_cif.got.tgz:63254.got - 2010.04.16 15:46:19.
