data_PCOD8299114
_publ_section_title
;
Structure prediction by ZEFSAII (Michael W. Deem and Ramdas Pophale) SiO2 
 PCOD8299114
Probable space group: I M M A
;
_chemical_formula_sum "Si O2"
_cell_formula_units_Z 96
_cell_length_a 29.456886
_cell_length_b 9.604095
_cell_length_c 18.427856
_cell_angle_alpha 90.000000
_cell_angle_beta 90.000000
_cell_angle_gamma 90.000000
_cell_volume 5213.364510
_symmetry_space_group_name_H-M "I M M A"
_symmetry_group_IT_number 74
_symmetry_cell_setting 'orthorhombic'
loop_
_space_group_symop_operation_xyz
x,y,z
-x,1/2-y,z
x,-y,-z
-x,1/2+y,-z
-x,-y,-z
x,1/2+y,-z
-x,y,z
x,1/2-y,z
1/2+x,1/2+y,1/2+z
1/2-x,-y,1/2+z
1/2+x,1/2-y,1/2-z
1/2-x,y,1/2-z
1/2-x,1/2-y,1/2-z
1/2+x,y,1/2-z
1/2-x,1/2+y,1/2+z
1/2+x,-y,1/2+z
loop_
_atom_site_type_symbol
_atom_site_label
_atom_site_fract_x
_atom_site_fract_y
_atom_site_fract_z
Si Si1 0.820885 0.417132 0.428123
Si Si2 0.298079 0.411075 0.786442
Si Si3 0.947998 0.587932 0.071328
Si Si4 0.612749 0.088932 0.704218
Si Si5 0.549278 0.902517 0.785267
Si Si6 0.924936 0.400879 0.441171
O O1 0.802475 0.500000 0.500000
O O2 0.809516 0.250000 0.431845
O O3 0.799876 0.486331 0.355544
O O4 0.874067 0.446647 0.420367
O O5 0.304453 0.250000 0.811736
O O6 0.250000 0.435804 0.750000
O O7 0.334686 0.445851 0.721852
O O8 0.941163 0.750000 0.052892
O O9 0.909389 0.535249 0.128465
O O10 0.000000 0.561697 0.099171
O O11 0.938275 0.500000 0.000000
O O12 0.602508 0.250000 0.708648
O O13 0.585103 0.019407 0.768330
O O14 0.500000 0.935402 0.751072
O O15 0.566156 0.750000 0.758269
O O16 0.543415 0.901103 0.871457
O O17 0.947610 0.500000 0.500000
O O18 0.923027 0.250000 0.477906
#
# Coordination Sequence:
#
# PCOD8299114 Si02
#       6
#    16  16  16  16  16  16
#     4  10  19  34  57  81 107 141 183 226 269 323
#     4  10  21  37  57  82 111 143 180 228 283 334
#     4   9  18  33  53  78 106 136 172 212 259 321
#     4  10  20  35  55  77 105 139 176 220 268 321
#     4  10  20  33  49  73 106 140 175 217 263 311
#     4   9  18  31  47  70 100 135 174 215 255 301
#
# _framework density 18.414211000000002
#
# number of rings (size 3 to 8) (size 9 to 14) (size 15 to 20)
#    0.000    2.333    1.667    1.000    0.000    3.667 
#    0.000    2.500    0.000    2.000    0.000    0.000 
#    0.000    0.000    0.000    0.000    0.000    0.000 
#
# Total GULP energy -594665.500759 kJ/mol
# GULP energy per Si atom -12388.864599 kJ/mol
# Density = 1.837230 g / cm^3
# Si number density = 18.414211 Si / 1000 Ang^3
#
#
#
# Elastic Constant Matrix: (Units=GPa)
#
#
# Indices 1 2 3 4 5 6 
#
# 1 99.5298 38.6684 52.9486 0.0000 0.0000 0.0000
# 2 38.6684 67.6977 59.9554 0.0000 0.0000 0.0000
# 3 52.9486 59.9554 105.1082 0.0000 0.0000 0.0000
# 4 0.0000 0.0000 0.0000 36.8037 0.0000 0.0000
# 5 0.0000 0.0000 0.0000 0.0000 10.4872 0.0000
# 6 0.0000 0.0000 0.0000 0.0000 0.0000 3.6048
#
#
#
# Elastic Compliance Matrix: (Units=1/GPa)
#
#
# Indices 1 2 3 4 5 6 
#
# 1 0.014141 -0.003574 -0.005085 0.000000 0.000000 0.000000
# 2 -0.003574 0.030755 -0.015743 0.000000 0.000000 0.000000
# 3 -0.005085 -0.015743 0.021056 0.000000 0.000000 0.000000
# 4 0.000000 0.000000 0.000000 0.027171 0.000000 0.000000
# 5 0.000000 0.000000 0.000000 0.000000 0.095354 0.000000
# 6 0.000000 0.000000 0.000000 0.000000 0.000000 0.277406
#
#
# Mechanical properties :
#
#
# Convention : Reuss Voigt Hill
#
# Bulk Modulus (GPa) = 58.31461 63.94227 61.12844
# Shear Modulus (GPa) = 9.60793 18.23004 13.91899
#
# Velocity S-wave (km/s) = 2.28670 3.14984 2.75232
# Velocity P-wave (km/s) = 6.22166 6.93025 6.58549
#
# Compressibility (1/GPa) = 0.01714836
#
# Stress axis : x y z
#
# Youngs Moduli (GPa) = 70.71737 32.51456 47.49299
#
# Poissons Ratio (x) = 0.11620 0.24150
# Poissons Ratio (y) = 0.25272 0.74769
# Poissons Ratio (z) = 0.35960 0.51188
#
# Static dielectric constant tensor:
#      x y z
#    x 3.298530 0.000000 0.000000 
#    y 0.000000 3.538700 0.000000 
#    z 0.000000 0.000000 3.342490 
# 
# 
# High freq. dielectric constant tensor:
#      x y z
#    x 1.697650 0.000000 0.000000 
#    y 0.000000 1.719850 0.000000 
#    z 0.000000 0.000000 1.705400 
# 
# From -- ./inp_files/55107.got.cif
#   From: 2010.03.12/outbox.cif.g09.slc.cpg/sg74_28_cif.got.tgz:55107.got - 2010.04.16 15:46:19.
