data_PCOD8299914
_publ_section_title
;
Structure prediction by ZEFSAII (Michael W. Deem and Ramdas Pophale) SiO2 
 PCOD8299914
Probable space group: I M M A
;
_chemical_formula_sum "Si O2"
_cell_formula_units_Z 80
_cell_length_a 17.937112
_cell_length_b 9.130561
_cell_length_c 25.882295
_cell_angle_alpha 90.000000
_cell_angle_beta 90.000000
_cell_angle_gamma 90.000000
_cell_volume 4238.896036
_symmetry_space_group_name_H-M "I M M A"
_symmetry_group_IT_number 74
_symmetry_cell_setting 'orthorhombic'
loop_
_space_group_symop_operation_xyz
x,y,z
-x,1/2-y,z
x,-y,-z
-x,1/2+y,-z
-x,-y,-z
x,1/2+y,-z
-x,y,z
x,1/2-y,z
1/2+x,1/2+y,1/2+z
1/2-x,-y,1/2+z
1/2+x,1/2-y,1/2-z
1/2-x,y,1/2-z
1/2-x,1/2-y,1/2-z
1/2+x,y,1/2-z
1/2-x,1/2+y,1/2+z
1/2+x,-y,1/2+z
loop_
_atom_site_type_symbol
_atom_site_label
_atom_site_fract_x
_atom_site_fract_y
_atom_site_fract_z
Si Si1 0.588486 0.417261 0.837773
Si Si2 0.837590 0.581689 0.753683
Si Si3 0.588722 0.915445 0.549905
Si Si4 0.914772 0.419188 0.548010
Si Si5 0.413032 0.078906 0.652517
O O1 0.500000 0.436711 0.835243
O O2 0.609207 0.250000 0.822815
O O3 0.626848 0.531076 0.799908
O O4 0.619552 0.453586 0.895468
O O5 0.859735 0.750000 0.763890
O O6 0.750000 0.560627 0.750000
O O7 0.867845 0.481677 0.799365
O O8 0.500000 0.914721 0.547670
O O9 0.619952 0.750000 0.550261
O O10 0.620969 0.000000 0.500000
O O11 0.616090 0.998416 0.601139
O O12 0.873405 0.500000 0.500000
O O13 0.908825 0.250000 0.535692
O O14 0.000000 0.472263 0.550190
O O15 0.500000 0.048084 0.662244
O O16 0.396947 0.250000 0.645968
#
# Coordination Sequence:
#
# PCOD8299914 Si02
#       5
#    16  16  16  16  16
#     4   9  18  33  53  77 103 131 166 207 248 295
#     4  11  24  38  51  71 100 133 170 213 258 304
#     4   9  16  27  46  74 107 138 167 203 248 297
#     4   8  14  25  43  70 102 130 157 193 237 285
#     4  10  20  34  54  79 104 132 169 211 255 305
#
# _framework density 18.872838000000002
#
# number of rings (size 3 to 8) (size 9 to 14) (size 15 to 20)
#    0.000    2.600    0.000    3.600    0.000    8.800 
#    0.000    2.000    0.000    1.200    0.000    2.800 
#    0.000    0.000    0.000    0.000    0.000    0.000 
#
# Total GULP energy -495891.174877 kJ/mol
# GULP energy per Si atom -12397.279372 kJ/mol
# Density = 1.882988 g / cm^3
# Si number density = 18.872838 Si / 1000 Ang^3
#
#
#
# Elastic Constant Matrix: (Units=GPa)
#
#
# Indices 1 2 3 4 5 6 
#
# 1 29.4101 28.6817 27.7793 0.0000 0.0000 0.0000
# 2 28.6817 115.2300 72.6449 0.0000 0.0000 0.0000
# 3 27.7793 72.6449 154.1887 0.0000 0.0000 0.0000
# 4 0.0000 0.0000 0.0000 45.5834 0.0000 0.0000
# 5 0.0000 0.0000 0.0000 0.0000 -6.2270 0.0000
# 6 0.0000 0.0000 0.0000 0.0000 0.0000 19.3831
#
#
#
# Elastic Compliance Matrix: (Units=1/GPa)
#
#
# Indices 1 2 3 4 5 6 
#
# 1 0.046722 -0.008994 -0.004180 0.000000 0.000000 0.000000
# 2 -0.008994 0.014077 -0.005012 0.000000 0.000000 0.000000
# 3 -0.004180 -0.005012 0.009600 0.000000 0.000000 0.000000
# 4 0.000000 0.000000 0.000000 0.021938 0.000000 0.000000
# 5 0.000000 0.000000 0.000000 0.000000 -0.160590 0.000000
# 6 0.000000 0.000000 0.000000 0.000000 0.000000 0.051591
#
#
# Mechanical properties :
#
#
# Convention : Reuss Voigt Hill
#
# Bulk Modulus (GPa) = 29.38898 61.89339 45.64119
# Shear Modulus (GPa) = 161.02853 23.06277 92.04565
#
# Velocity S-wave (km/s) = 9.24706 3.49952 6.99124
# Velocity P-wave (km/s) = 11.38494 7.01391 9.45547
#
# Compressibility (1/GPa) = 0.03402636
#
# Stress axis : x y z
#
# Youngs Moduli (GPa) = 21.40338 71.04036 104.16839
#
# Poissons Ratio (x) = 0.63895 0.43543
# Poissons Ratio (y) = 0.19250 0.52205
# Poissons Ratio (z) = 0.08947 0.35603
#
# Static dielectric constant tensor:
#      x y z
#    x 2.948510 0.000000 0.000000 
#    y 0.000000 3.574080 0.000000 
#    z 0.000000 0.000000 4.002650 
# 
# 
# High freq. dielectric constant tensor:
#      x y z
#    x 1.675270 0.000000 0.000000 
#    y 0.000000 1.741710 0.000000 
#    z 0.000000 0.000000 1.756130 
# 
# From -- ./inp_files/67527.got.cif
#   From: 2010.03.12/outbox.cif.g09.slc.cpg/sg74_34_cif.got.tgz:67527.got - 2010.04.16 15:46:19.
