data_PCOD8299342
_publ_section_title
;
Structure prediction by ZEFSAII (Michael W. Deem and Ramdas Pophale) SiO2 
 PCOD8299342
Probable space group: I M M A
;
_chemical_formula_sum "Si O2"
_cell_formula_units_Z 96
_cell_length_a 18.020912
_cell_length_b 23.284601
_cell_length_c 11.588577
_cell_angle_alpha 90.000000
_cell_angle_beta 90.000000
_cell_angle_gamma 90.000000
_cell_volume 4862.679847
_symmetry_space_group_name_H-M "I M M A"
_symmetry_group_IT_number 74
_symmetry_cell_setting 'orthorhombic'
loop_
_space_group_symop_operation_xyz
x,y,z
-x,1/2-y,z
x,-y,-z
-x,1/2+y,-z
-x,-y,-z
x,1/2+y,-z
-x,y,z
x,1/2-y,z
1/2+x,1/2+y,1/2+z
1/2-x,-y,1/2+z
1/2+x,1/2-y,1/2-z
1/2-x,y,1/2-z
1/2-x,1/2-y,1/2-z
1/2+x,y,1/2-z
1/2-x,1/2+y,1/2+z
1/2+x,-y,1/2+z
loop_
_atom_site_type_symbol
_atom_site_label
_atom_site_fract_x
_atom_site_fract_y
_atom_site_fract_z
Si Si1 0.587909 0.183430 0.123308
Si Si2 0.082273 0.316416 0.795714
Si Si3 0.161393 0.625632 0.406181
Si Si4 0.332485 0.393889 0.553085
Si Si5 0.665325 0.398456 0.284288
Si Si6 0.162770 0.522729 0.253165
O O1 0.500000 0.180346 0.115007
O O2 0.614251 0.250000 0.114136
O O3 0.616011 0.155607 0.243087
O O4 0.622915 0.143330 0.024767
O O5 0.078071 0.250000 0.817181
O O6 0.138029 0.329015 0.690873
O O7 0.112412 0.342381 0.914894
O O8 0.000000 0.340602 0.766536
O O9 0.249454 0.626548 0.418506
O O10 0.136431 0.562010 0.361526
O O11 0.341213 0.407888 0.420209
O O12 0.358684 0.448046 0.631073
O O13 0.750000 0.386115 0.250000
O O14 0.631781 0.457960 0.231317
O O15 0.250000 0.515275 0.250000
#
# Coordination Sequence:
#
# PCOD8299342 Si02
#       6
#    16  16  16  16  16  16
#     4  11  25  42  59  83 121 165 202 243 298 352
#     4  10  21  36  56  82 115 156 196 243 303 353
#     4  10  19  38  61  90 115 147 197 249 299 350
#     4  10  20  36  59  90 116 150 197 245 294 353
#     4  11  21  39  60  86 118 158 197 240 286 353
#     4   8  18  34  62  90 118 144 187 244 303 351
#
# _framework density 19.7422
#
# number of rings (size 3 to 8) (size 9 to 14) (size 15 to 20)
#    0.000    2.000    1.667    3.000    0.000    5.667 
#    0.000    6.667    0.000    5.000    0.000    0.000 
#    0.000    0.000    0.000    0.000    0.000    0.000 
#
# Total GULP energy -594957.157696 kJ/mol
# GULP energy per Si atom -12394.940785 kJ/mol
# Density = 1.969727 g / cm^3
# Si number density = 19.742200 Si / 1000 Ang^3
#
#
#
# Elastic Constant Matrix: (Units=GPa)
#
#
# Indices 1 2 3 4 5 6 
#
# 1 54.7398 55.3204 14.6399 0.0000 0.0000 0.0000
# 2 55.3204 122.2674 47.8053 0.0000 0.0000 0.0000
# 3 14.6399 47.8053 84.5988 0.0000 0.0000 0.0000
# 4 0.0000 0.0000 0.0000 17.8301 0.0000 0.0000
# 5 0.0000 0.0000 0.0000 0.0000 3.1852 0.0000
# 6 0.0000 0.0000 0.0000 0.0000 0.0000 14.3998
#
#
#
# Elastic Compliance Matrix: (Units=1/GPa)
#
#
# Indices 1 2 3 4 5 6 
#
# 1 0.034520 -0.017050 0.003661 0.000000 0.000000 0.000000
# 2 -0.017050 0.018920 -0.007741 0.000000 0.000000 0.000000
# 3 0.003661 -0.007741 0.015561 0.000000 0.000000 0.000000
# 4 0.000000 0.000000 0.000000 0.056085 0.000000 0.000000
# 5 0.000000 0.000000 0.000000 0.000000 0.313953 0.000000
# 6 0.000000 0.000000 0.000000 0.000000 0.000000 0.069445
#
#
# Mechanical properties :
#
#
# Convention : Reuss Voigt Hill
#
# Bulk Modulus (GPa) = 37.39535 55.23747 46.31641
# Shear Modulus (GPa) = 8.93403 16.67239 12.80321
#
# Velocity S-wave (km/s) = 2.12959 2.90919 2.54937
# Velocity P-wave (km/s) = 5.00298 6.27094 5.67250
#
# Compressibility (1/GPa) = 0.02674129
#
# Stress axis : x y z
#
# Youngs Moduli (GPa) = 28.96856 52.85476 64.26294
#
# Poissons Ratio (x) = 0.90119 -0.23527
# Poissons Ratio (y) = 0.49392 0.49744
# Poissons Ratio (z) = -0.10606 0.40913
#
# Static dielectric constant tensor:
#      x y z
#    x 3.586310 0.000000 0.000000 
#    y 0.000000 3.900110 0.000000 
#    z 0.000000 0.000000 3.771760 
# 
# 
# High freq. dielectric constant tensor:
#      x y z
#    x 1.750820 0.000000 0.000000 
#    y 0.000000 1.776220 0.000000 
#    z 0.000000 0.000000 1.769310 
# 
# From -- ./inp_files/22494.got.cif
#   From: 2010.03.12/outbox.cif.g09.slc.cpg/sg74_12_cif.got.tgz:22494.got - 2010.04.16 15:46:19.
