data_PCOD8299176
_publ_section_title
;
Structure prediction by ZEFSAII (Michael W. Deem and Ramdas Pophale) SiO2 
 PCOD8299176
Probable space group: I M M A
;
_chemical_formula_sum "Si O2"
_cell_formula_units_Z 112
_cell_length_a 14.255771
_cell_length_b 14.318519
_cell_length_c 30.097816
_cell_angle_alpha 90.000000
_cell_angle_beta 90.000000
_cell_angle_gamma 90.000000
_cell_volume 6143.612189
_symmetry_space_group_name_H-M "I M M A"
_symmetry_group_IT_number 74
_symmetry_cell_setting 'orthorhombic'
loop_
_space_group_symop_operation_xyz
x,y,z
-x,1/2-y,z
x,-y,-z
-x,1/2+y,-z
-x,-y,-z
x,1/2+y,-z
-x,y,z
x,1/2-y,z
1/2+x,1/2+y,1/2+z
1/2-x,-y,1/2+z
1/2+x,1/2-y,1/2-z
1/2-x,y,1/2-z
1/2-x,1/2-y,1/2-z
1/2+x,y,1/2-z
1/2-x,1/2+y,1/2+z
1/2+x,-y,1/2+z
loop_
_atom_site_type_symbol
_atom_site_label
_atom_site_fract_x
_atom_site_fract_y
_atom_site_fract_z
Si Si1 0.611147 0.145223 0.271412
Si Si2 0.603158 0.008539 0.197590
Si Si3 0.393272 0.358554 0.054837
Si Si4 0.606057 0.359101 0.953246
Si Si5 0.108147 0.992086 0.158152
Si Si6 0.712889 0.494084 0.891313
Si Si7 0.857071 0.856043 0.235943
O O1 0.500000 0.148753 0.267027
O O2 0.653590 0.250000 0.274661
O O3 0.637410 0.085248 0.314717
O O4 0.648936 0.092730 0.226982
O O5 0.500000 0.036936 0.179431
O O6 0.587176 0.917682 0.228358
O O7 0.671225 0.983914 0.157715
O O8 0.500000 0.387501 0.066549
O O9 0.378474 0.250000 0.062856
O O10 0.320118 0.409736 0.086609
O O11 0.371821 0.385864 0.004027
O O12 0.500000 0.390891 0.941378
O O13 0.617003 0.250000 0.945616
O O14 0.680059 0.408546 0.921557
O O15 0.174306 0.990334 0.114282
O O16 0.000000 0.995836 0.142545
O O17 0.126207 0.899391 0.187235
O O18 0.895304 0.750000 0.235775
O O19 0.750000 0.859218 0.250000
#
# Coordination Sequence:
#
# PCOD8299176 Si02
#       7
#    16  16  16  16  16  16  16
#     4   8  16  33  52  67  94 138 178 213 256 301
#     4  10  20  31  47  76 105 129 165 215 265 314
#     4   9  19  36  57  82 110 137 165 199 252 325
#     4   9  19  36  57  81 108 137 166 199 252 326
#     4  10  22  37  52  73 104 141 186 227 258 302
#     4  12  21  32  53  79 107 136 172 214 264 306
#     4  10  19  35  54  69  96 140 182 219 263 308
#
# _framework density 18.230318
#
# number of rings (size 3 to 8) (size 9 to 14) (size 15 to 20)
#    0.000    2.286    1.429    3.857    0.000    4.571 
#    0.000    2.143    0.000    1.714    0.000    2.000 
#    0.000    0.000    0.000    0.000    0.000    0.000 
#
# Total GULP energy -694277.608143 kJ/mol
# GULP energy per Si atom -12397.814431 kJ/mol
# Density = 1.818882 g / cm^3
# Si number density = 18.230318 Si / 1000 Ang^3
#
#
#
# Elastic Constant Matrix: (Units=GPa)
#
#
# Indices 1 2 3 4 5 6 
#
# 1 102.4461 25.9149 51.3976 0.0000 0.0000 0.0000
# 2 25.9149 123.0787 41.8338 0.0000 0.0000 0.0000
# 3 51.3976 41.8338 89.1884 0.0000 0.0000 0.0000
# 4 0.0000 0.0000 0.0000 25.4158 0.0000 0.0000
# 5 0.0000 0.0000 0.0000 0.0000 30.5060 0.0000
# 6 0.0000 0.0000 0.0000 0.0000 0.0000 2.1999
#
#
#
# Elastic Compliance Matrix: (Units=1/GPa)
#
#
# Indices 1 2 3 4 5 6 
#
# 1 0.013737 -0.000240 -0.007804 0.000000 0.000000 0.000000
# 2 -0.000240 0.009670 -0.004397 0.000000 0.000000 0.000000
# 3 -0.007804 -0.004397 0.017772 0.000000 0.000000 0.000000
# 4 0.000000 0.000000 0.000000 0.039346 0.000000 0.000000
# 5 0.000000 0.000000 0.000000 0.000000 0.032780 0.000000
# 6 0.000000 0.000000 0.000000 0.000000 0.000000 0.454563
#
#
# Mechanical properties :
#
#
# Convention : Reuss Voigt Hill
#
# Bulk Modulus (GPa) = 61.36215 61.44507 61.40361
# Shear Modulus (GPa) = 8.35864 24.66215 16.51039
#
# Velocity S-wave (km/s) = 2.14359 3.68205 3.01268
# Velocity P-wave (km/s) = 6.31341 7.20102 6.77177
#
# Compressibility (1/GPa) = 0.01629669
#
# Stress axis : x y z
#
# Youngs Moduli (GPa) = 72.79514 103.41170 56.26790
#
# Poissons Ratio (x) = 0.02481 0.43911
# Poissons Ratio (y) = 0.01746 0.24744
# Poissons Ratio (z) = 0.56809 0.45475
#
# Static dielectric constant tensor:
#      x y z
#    x 3.348650 0.000000 0.000000 
#    y 0.000000 3.586210 0.000000 
#    z 0.000000 0.000000 3.166430 
# 
# 
# High freq. dielectric constant tensor:
#      x y z
#    x 1.695320 0.000000 0.000000 
#    y 0.000000 1.716460 0.000000 
#    z 0.000000 0.000000 1.681350 
# 
# From -- ./inp_files/67229.got.cif
#   From: 2010.03.12/outbox.cif.g09.slc.cpg/sg74_34_cif.got.tgz:67229.got - 2010.04.16 15:46:19.
