data_PCOD8299654
_publ_section_title
;
Structure prediction by ZEFSAII (Michael W. Deem and Ramdas Pophale) SiO2 
 PCOD8299654
Probable space group: I M M A
;
_chemical_formula_sum "Si O2"
_cell_formula_units_Z 96
_cell_length_a 18.709938
_cell_length_b 9.113237
_cell_length_c 30.858340
_cell_angle_alpha 90.000000
_cell_angle_beta 90.000000
_cell_angle_gamma 90.000000
_cell_volume 5261.596899
_symmetry_space_group_name_H-M "I M M A"
_symmetry_group_IT_number 74
_symmetry_cell_setting 'orthorhombic'
loop_
_space_group_symop_operation_xyz
x,y,z
-x,1/2-y,z
x,-y,-z
-x,1/2+y,-z
-x,-y,-z
x,1/2+y,-z
-x,y,z
x,1/2-y,z
1/2+x,1/2+y,1/2+z
1/2-x,-y,1/2+z
1/2+x,1/2-y,1/2-z
1/2-x,y,1/2-z
1/2-x,1/2-y,1/2-z
1/2+x,y,1/2-z
1/2-x,1/2+y,1/2+z
1/2+x,-y,1/2+z
loop_
_atom_site_type_symbol
_atom_site_label
_atom_site_fract_x
_atom_site_fract_y
_atom_site_fract_z
Si Si1 0.672538 0.079333 0.043551
Si Si2 0.417011 0.078923 0.884465
Si Si3 0.338427 0.078428 0.456184
Si Si4 0.584849 0.587427 0.212466
Si Si5 0.414875 0.914172 0.705803
Si Si6 0.084791 0.917405 0.121092
O O1 0.656940 0.250000 0.037699
O O2 0.755392 0.046676 0.052418
O O3 0.628885 0.019902 0.083920
O O4 0.646180 0.000000 0.000000
O O5 0.500000 0.044407 0.892359
O O6 0.401187 0.250000 0.892630
O O7 0.393823 0.034007 0.835653
O O8 0.354926 0.250000 0.460381
O O9 0.364107 0.000000 0.500000
O O10 0.383158 0.012752 0.417176
O O11 0.500000 0.594970 0.215551
O O12 0.615959 0.750000 0.221146
O O13 0.615784 0.478412 0.248990
O O14 0.500000 0.912256 0.707018
O O15 0.384635 0.750000 0.699801
O O16 0.387863 0.014916 0.666371
O O17 0.111834 0.750000 0.118148
O O18 0.000000 0.925880 0.117790
#
# Coordination Sequence:
#
# PCOD8299654 Si02
#       6
#    16  16  16  16  16  16
#     4  10  21  36  54  74  97 129 167 205 247 297
#     4   9  18  32  51  76 104 133 166 205 248 292
#     4  10  21  37  55  74  97 128 166 204 246 297
#     4   8  14  26  44  67  97 131 164 198 238 287
#     4   9  16  26  43  69 100 132 164 199 240 286
#     4  10  20  33  51  76 103 131 164 202 245 291
#
# _framework density 18.245412000000002
#
# number of rings (size 3 to 8) (size 9 to 14) (size 15 to 20)
#    0.000    2.667    0.000    3.000    0.000    6.667 
#    0.000    1.667    0.000    1.000    0.000    7.000 
#    0.000    0.000    0.000    0.000    0.000    0.000 
#
# Total GULP energy -595176.462167 kJ/mol
# GULP energy per Si atom -12399.509628 kJ/mol
# Density = 1.820388 g / cm^3
# Si number density = 18.245412 Si / 1000 Ang^3
#
#
#
# Elastic Constant Matrix: (Units=GPa)
#
#
# Indices 1 2 3 4 5 6 
#
# 1 21.9998 28.6879 32.9979 0.0000 0.0000 0.0000
# 2 28.6879 122.1855 76.2324 0.0000 0.0000 0.0000
# 3 32.9979 76.2324 153.1208 0.0000 0.0000 0.0000
# 4 0.0000 0.0000 0.0000 41.0057 0.0000 0.0000
# 5 0.0000 0.0000 0.0000 0.0000 -26.6361 0.0000
# 6 0.0000 0.0000 0.0000 0.0000 0.0000 23.6891
#
#
#
# Elastic Compliance Matrix: (Units=1/GPa)
#
#
# Indices 1 2 3 4 5 6 
#
# 1 0.076310 -0.011107 -0.010916 0.000000 0.000000 0.000000
# 2 -0.011107 0.013488 -0.004322 0.000000 0.000000 0.000000
# 3 -0.010916 -0.004322 0.011035 0.000000 0.000000 0.000000
# 4 0.000000 0.000000 0.000000 0.024387 0.000000 0.000000
# 5 0.000000 0.000000 0.000000 0.000000 -0.037543 0.000000
# 6 0.000000 0.000000 0.000000 0.000000 0.000000 0.042214
#
#
# Mechanical properties :
#
#
# Convention : Reuss Voigt Hill
#
# Bulk Modulus (GPa) = 20.77033 63.68251 42.22642
# Shear Modulus (GPa) = 25.17276 18.23759 21.70518
#
# Velocity S-wave (km/s) = 3.71843 3.16503 3.45283
# Velocity P-wave (km/s) = 5.46298 6.95238 6.25219
#
# Compressibility (1/GPa) = 0.04814559
#
# Stress axis : x y z
#
# Youngs Moduli (GPa) = 13.10439 74.13777 90.62251
#
# Poissons Ratio (x) = 0.82342 0.98920
# Poissons Ratio (y) = 0.14554 0.39165
# Poissons Ratio (z) = 0.14304 0.32041
#
# Static dielectric constant tensor:
#      x y z
#    x 2.935400 0.000000 0.000000 
#    y 0.000000 3.567080 0.000000 
#    z 0.000000 0.000000 3.585980 
# 
# 
# High freq. dielectric constant tensor:
#      x y z
#    x 1.658850 0.000000 0.000000 
#    y 0.000000 1.718760 0.000000 
#    z 0.000000 0.000000 1.723690 
# 
# From -- ./inp_files/64340.got.cif
#   From: 2010.03.12/outbox.cif.g09.slc.cpg/sg74_33_cif.got.tgz:64340.got - 2010.04.16 15:46:19.
