data_PCOD8299477
_publ_section_title
;
Structure prediction by ZEFSAII (Michael W. Deem and Ramdas Pophale) SiO2 
 PCOD8299477
Probable space group: I M M A
;
_chemical_formula_sum "Si O2"
_cell_formula_units_Z 96
_cell_length_a 14.420201
_cell_length_b 14.303624
_cell_length_c 27.307099
_cell_angle_alpha 90.000000
_cell_angle_beta 90.000000
_cell_angle_gamma 90.000000
_cell_volume 5632.393182
_symmetry_space_group_name_H-M "I M M A"
_symmetry_group_IT_number 74
_symmetry_cell_setting 'orthorhombic'
loop_
_space_group_symop_operation_xyz
x,y,z
-x,1/2-y,z
x,-y,-z
-x,1/2+y,-z
-x,-y,-z
x,1/2+y,-z
-x,y,z
x,1/2-y,z
1/2+x,1/2+y,1/2+z
1/2-x,-y,1/2+z
1/2+x,1/2-y,1/2-z
1/2-x,y,1/2-z
1/2-x,1/2-y,1/2-z
1/2+x,y,1/2-z
1/2-x,1/2+y,1/2+z
1/2+x,-y,1/2+z
loop_
_atom_site_type_symbol
_atom_site_label
_atom_site_fract_x
_atom_site_fract_y
_atom_site_fract_z
Si Si1 0.609450 0.250000 0.423234
Si Si2 0.858184 0.750000 0.260327
Si Si3 0.149810 0.059824 0.231644
Si Si4 0.898640 0.250000 0.182907
Si Si5 0.799627 0.556617 0.139560
Si Si6 0.101126 0.563702 0.318170
Si Si7 0.108740 0.547705 0.948913
Si Si8 0.604322 0.250000 0.650983
O O1 0.500000 0.250000 0.420777
O O2 0.658444 0.250000 0.368565
O O3 0.639689 0.156418 0.452119
O O4 0.750000 0.750000 0.250000
O O5 0.885911 0.839098 0.291080
O O6 0.910732 0.750000 0.209053
O O7 0.250000 0.084421 0.250000
O O8 0.109890 0.158494 0.215622
O O9 0.150735 0.985599 0.187444
O O10 0.094206 0.017142 0.277120
O O11 0.000000 0.250000 0.160955
O O12 0.687242 0.550720 0.144534
O O13 0.828488 0.498681 0.092419
O O14 0.836258 0.661597 0.132879
O O15 0.000000 0.562919 0.345311
O O16 0.000000 0.535820 0.935615
O O17 0.133018 0.500000 0.000000
O O18 0.500000 0.250000 0.627688
#
# Coordination Sequence:
#
# PCOD8299477 Si02
#       8
#     8   8  16   8  16  16  16   8
#     4   9  18  32  52  77 100 129 167 203 252 314
#     4  12  18  33  47  73 108 146 182 213 253 306
#     4  10  20  32  47  70 100 134 171 211 248 296
#     4  11  19  29  48  70  97 133 170 202 244 301
#     4  11  21  35  50  74 104 135 175 213 260 310
#     4  11  21  33  50  72 105 142 179 216 253 301
#     4  10  21  37  57  78 103 133 168 214 267 321
#     4  12  22  30  48  75 107 141 174 212 255 306
#
# _framework density 17.044263999999998
#
# number of rings (size 3 to 8) (size 9 to 14) (size 15 to 20)
#    0.000    1.333    5.000    2.500    0.000    2.000 
#    0.000    1.667    0.000    0.500    0.000    0.000 
#    0.000    0.000    0.000    0.000    0.000    0.000 
#
# Total GULP energy -594871.815381 kJ/mol
# GULP energy per Si atom -12393.162820 kJ/mol
# Density = 1.700547 g / cm^3
# Si number density = 17.044264 Si / 1000 Ang^3
#
#
#
# Elastic Constant Matrix: (Units=GPa)
#
#
# Indices 1 2 3 4 5 6 
#
# 1 113.4003 38.8203 39.0249 0.0000 0.0000 0.0000
# 2 38.8203 140.5391 40.3652 0.0000 0.0000 0.0000
# 3 39.0249 40.3652 73.9719 0.0000 0.0000 0.0000
# 4 0.0000 0.0000 0.0000 41.9069 0.0000 0.0000
# 5 0.0000 0.0000 0.0000 0.0000 20.2532 0.0000
# 6 0.0000 0.0000 0.0000 0.0000 0.0000 -31.8641
#
#
#
# Elastic Compliance Matrix: (Units=1/GPa)
#
#
# Indices 1 2 3 4 5 6 
#
# 1 0.011084 -0.001639 -0.004953 0.000000 0.000000 0.000000
# 2 -0.001639 0.008680 -0.003872 0.000000 0.000000 0.000000
# 3 -0.004953 -0.003872 0.018245 0.000000 0.000000 0.000000
# 4 0.000000 0.000000 0.000000 0.023862 0.000000 0.000000
# 5 0.000000 0.000000 0.000000 0.000000 0.049375 0.000000
# 6 0.000000 0.000000 0.000000 0.000000 0.000000 -0.031383
#
#
# Mechanical properties :
#
#
# Convention : Reuss Voigt Hill
#
# Bulk Modulus (GPa) = 58.54600 62.70358 60.62479
# Shear Modulus (GPa) = 46.95515 20.03926 33.49721
#
# Velocity S-wave (km/s) = 5.25440 3.43260 4.43799
# Velocity P-wave (km/s) = 8.44012 7.25113 7.86811
#
# Compressibility (1/GPa) = 0.01708059
#
# Stress axis : x y z
#
# Youngs Moduli (GPa) = 90.22068 115.20332 54.81075
#
# Poissons Ratio (x) = 0.18882 0.27148
# Poissons Ratio (y) = 0.14788 0.21223
# Poissons Ratio (z) = 0.44687 0.44607
#
# Static dielectric constant tensor:
#      x y z
#    x 3.068990 0.000000 0.000000 
#    y 0.000000 3.492540 0.000000 
#    z 0.000000 0.000000 3.024990 
# 
# 
# High freq. dielectric constant tensor:
#      x y z
#    x 1.643920 0.000000 0.000000 
#    y 0.000000 1.678220 0.000000 
#    z 0.000000 0.000000 1.620660 
# 
# From -- ./inp_files/67144.got.cif
#   From: 2010.03.12/outbox.cif.g09.slc.cpg/sg74_34_cif.got.tgz:67144.got - 2010.04.16 15:46:19.
