data_PCOD8299701
_publ_section_title
;
Structure prediction by ZEFSAII (Michael W. Deem and Ramdas Pophale) SiO2 
 PCOD8299701
Probable space group: I M M A
;
_chemical_formula_sum "Si O2"
_cell_formula_units_Z 72
_cell_length_a 17.574116
_cell_length_b 19.948288
_cell_length_c 10.871479
_cell_angle_alpha 90.000000
_cell_angle_beta 90.000000
_cell_angle_gamma 90.000000
_cell_volume 3811.252740
_symmetry_space_group_name_H-M "I M M A"
_symmetry_group_IT_number 74
_symmetry_cell_setting 'orthorhombic'
loop_
_space_group_symop_operation_xyz
x,y,z
-x,1/2-y,z
x,-y,-z
-x,1/2+y,-z
-x,-y,-z
x,1/2+y,-z
-x,y,z
x,1/2-y,z
1/2+x,1/2+y,1/2+z
1/2-x,-y,1/2+z
1/2+x,1/2-y,1/2-z
1/2-x,y,1/2-z
1/2-x,1/2-y,1/2-z
1/2+x,y,1/2-z
1/2-x,1/2+y,1/2+z
1/2+x,-y,1/2+z
loop_
_atom_site_type_symbol
_atom_site_label
_atom_site_fract_x
_atom_site_fract_y
_atom_site_fract_z
Si Si1 0.356486 0.854690 0.347968
Si Si2 0.087449 0.626519 0.884345
Si Si3 0.915705 0.250000 0.666987
Si Si4 0.245426 0.250000 0.579557
Si Si5 0.692652 0.502233 0.641833
Si Si6 0.825517 0.750000 0.824028
O O1 0.402670 0.851083 0.475066
O O2 0.408957 0.817515 0.247941
O O3 0.274706 0.816701 0.350401
O O4 0.340941 0.931500 0.313881
O O5 0.124577 0.554963 0.858613
O O6 0.124714 0.683673 0.797940
O O7 0.000000 0.620327 0.848863
O O8 0.846566 0.250000 0.566869
O O9 0.000000 0.250000 0.604744
O O10 0.292539 0.250000 0.458109
O O11 0.726985 0.500000 0.500000
O O12 0.750000 0.525566 0.750000
O O13 0.750000 0.750000 0.750000
#
# Coordination Sequence:
#
# PCOD8299701 Si02
#       6
#    16  16   8   8  16   8
#     4   9  18  32  51  72 100 136 170 206 252 306
#     4  10  20  33  52  79 103 125 166 222 265 294
#     4  11  19  28  47  74 105 133 161 205 259 307
#     4   9  18  32  49  71  96 128 171 210 245 301
#     4  10  20  34  54  77 104 139 175 213 254 307
#     4  10  20  36  55  69  93 135 174 205 249 314
#
# _framework density 18.891427
#
# number of rings (size 3 to 8) (size 9 to 14) (size 15 to 20)
#    0.000    2.222    0.000    5.000    0.000    4.889 
#    0.000    1.111    0.000    0.667    0.000    0.000 
#    0.000    0.000    0.000    0.000    0.000    0.000 
#
# Total GULP energy -446045.520922 kJ/mol
# GULP energy per Si atom -12390.153359 kJ/mol
# Density = 1.884843 g / cm^3
# Si number density = 18.891427 Si / 1000 Ang^3
#
#
#
# Elastic Constant Matrix: (Units=GPa)
#
#
# Indices 1 2 3 4 5 6 
#
# 1 161.1450 52.4095 32.1175 0.0000 0.0000 0.0000
# 2 52.4095 145.7705 22.1475 0.0000 0.0000 0.0000
# 3 32.1175 22.1475 44.3101 0.0000 0.0000 0.0000
# 4 0.0000 0.0000 0.0000 20.3391 0.0000 0.0000
# 5 0.0000 0.0000 0.0000 0.0000 26.1932 0.0000
# 6 0.0000 0.0000 0.0000 0.0000 0.0000 24.9634
#
#
#
# Elastic Compliance Matrix: (Units=1/GPa)
#
#
# Indices 1 2 3 4 5 6 
#
# 1 0.007809 -0.002108 -0.004607 0.000000 0.000000 0.000000
# 2 -0.002108 0.007993 -0.002467 0.000000 0.000000 0.000000
# 3 -0.004607 -0.002467 0.027141 0.000000 0.000000 0.000000
# 4 0.000000 0.000000 0.000000 0.049166 0.000000 0.000000
# 5 0.000000 0.000000 0.000000 0.000000 0.038178 0.000000
# 6 0.000000 0.000000 0.000000 0.000000 0.000000 0.040059
#
#
# Mechanical properties :
#
#
# Convention : Reuss Voigt Hill
#
# Bulk Modulus (GPa) = 40.68532 62.73050 51.70791
# Shear Modulus (GPa) = 25.39329 30.60255 27.99792
#
# Velocity S-wave (km/s) = 3.67027 4.02919 3.85391
# Velocity P-wave (km/s) = 6.28843 7.41105 6.87270
#
# Compressibility (1/GPa) = 0.02457889
#
# Stress axis : x y z
#
# Youngs Moduli (GPa) = 128.05237 125.11310 36.84505
#
# Poissons Ratio (x) = 0.26371 0.16974
# Poissons Ratio (y) = 0.26990 0.09091
# Poissons Ratio (z) = 0.58993 0.30868
#
# Static dielectric constant tensor:
#      x y z
#    x 3.283360 0.000000 0.000000 
#    y 0.000000 3.727930 0.000000 
#    z 0.000000 0.000000 3.218540 
# 
# 
# High freq. dielectric constant tensor:
#      x y z
#    x 1.723380 0.000000 0.000000 
#    y 0.000000 1.750350 0.000000 
#    z 0.000000 0.000000 1.704210 
# 
# From -- ./inp_files/22061.got.cif
#   From: 2010.03.12/outbox.cif.g09.slc.cpg/sg74_12_cif.got.tgz:22061.got - 2010.04.16 15:46:19.
