data_PCOD8299973
_publ_section_title
;
Structure prediction by ZEFSAII (Michael W. Deem and Ramdas Pophale) SiO2 
 PCOD8299973
Probable space group: I M M A
;
_chemical_formula_sum "Si O2"
_cell_formula_units_Z 104
_cell_length_a 7.707374
_cell_length_b 23.077007
_cell_length_c 30.646772
_cell_angle_alpha 90.000000
_cell_angle_beta 90.000000
_cell_angle_gamma 90.000000
_cell_volume 5450.930601
_symmetry_space_group_name_H-M "I M M A"
_symmetry_group_IT_number 74
_symmetry_cell_setting 'orthorhombic'
loop_
_space_group_symop_operation_xyz
x,y,z
-x,1/2-y,z
x,-y,-z
-x,1/2+y,-z
-x,-y,-z
x,1/2+y,-z
-x,y,z
x,1/2-y,z
1/2+x,1/2+y,1/2+z
1/2-x,-y,1/2+z
1/2+x,1/2-y,1/2-z
1/2-x,y,1/2-z
1/2-x,1/2-y,1/2-z
1/2+x,y,1/2-z
1/2-x,1/2+y,1/2+z
1/2+x,-y,1/2+z
loop_
_atom_site_type_symbol
_atom_site_label
_atom_site_fract_x
_atom_site_fract_y
_atom_site_fract_z
Si Si1 0.500000 0.314555 0.981135
Si Si2 0.700224 0.515797 0.549511
Si Si3 0.198486 0.185415 0.913271
Si Si4 0.693254 0.992469 0.796600
Si Si5 0.500000 0.182714 0.145104
Si Si6 0.197305 0.431219 0.872758
Si Si7 0.000000 0.396272 0.437949
Si Si8 0.305290 0.367966 0.299435
O O1 0.500000 0.250000 0.001594
O O2 0.674381 0.323222 0.953577
O O3 0.500000 0.363634 0.016689
O O4 0.749685 0.500000 0.500000
O O5 0.500000 0.536523 0.552659
O O6 0.735182 0.460417 0.580332
O O7 0.825499 0.566180 0.566313
O O8 0.222613 0.250000 0.893001
O O9 0.242832 0.137081 0.876771
O O10 0.000000 0.176321 0.929748
O O11 0.500000 0.967944 0.791676
O O12 0.750000 0.019384 0.750000
O O13 0.806409 0.936801 0.810175
O O14 0.692605 0.041579 0.833650
O O15 0.500000 0.250000 0.134632
O O16 0.500000 0.149837 0.099881
O O17 0.674648 0.167309 0.170618
O O18 0.000000 0.440809 0.858870
O O19 0.500000 0.344672 0.307609
O O20 0.250000 0.357381 0.250000
#
# Coordination Sequence:
#
# PCOD8299973 Si02
#       8
#     8  16  16  16   8  16   8  16
#     4  10  21  37  57  80 107 148 201 244 279 334
#     4  10  22  38  58  88 120 153 194 243 294 357
#     4   9  19  36  58  83 112 149 194 240 282 327
#     4  11  21  35  58  87 119 151 189 234 292 357
#     4  12  27  43  59  88 121 156 205 250 300 365
#     4  10  20  34  55  84 116 150 189 237 286 342
#     4  12  24  38  58  82 119 162 189 236 302 361
#     4  11  21  42  66  87 112 147 192 250 309 356
#
# _framework density 19.079311000000001
#
# number of rings (size 3 to 8) (size 9 to 14) (size 15 to 20)
#    0.000    1.538    1.538    4.615    2.154    4.308 
#    0.000    0.000    0.000    3.231    0.000    0.000 
#    0.000    0.000    0.000    0.000    0.000    0.000 
#
# Total GULP energy -644810.093244 kJ/mol
# GULP energy per Si atom -12400.194101 kJ/mol
# Density = 1.903589 g / cm^3
# Si number density = 19.079311 Si / 1000 Ang^3
#
#
#
# Elastic Constant Matrix: (Units=GPa)
#
#
# Indices 1 2 3 4 5 6 
#
# 1 121.6718 48.6918 35.6029 0.0000 0.0000 0.0000
# 2 48.6918 123.9818 56.7991 0.0000 0.0000 0.0000
# 3 35.6029 56.7991 93.7266 0.0000 0.0000 0.0000
# 4 0.0000 0.0000 0.0000 16.0426 0.0000 0.0000
# 5 0.0000 0.0000 0.0000 0.0000 22.7731 0.0000
# 6 0.0000 0.0000 0.0000 0.0000 0.0000 18.7003
#
#
#
# Elastic Compliance Matrix: (Units=1/GPa)
#
#
# Indices 1 2 3 4 5 6 
#
# 1 0.010006 -0.003030 -0.001965 0.000000 0.000000 0.000000
# 2 -0.003030 0.012083 -0.006171 0.000000 0.000000 0.000000
# 3 -0.001965 -0.006171 0.015156 0.000000 0.000000 0.000000
# 4 0.000000 0.000000 0.000000 0.062334 0.000000 0.000000
# 5 0.000000 0.000000 0.000000 0.000000 0.043911 0.000000
# 6 0.000000 0.000000 0.000000 0.000000 0.000000 0.053475
#
#
# Mechanical properties :
#
#
# Convention : Reuss Voigt Hill
#
# Bulk Modulus (GPa) = 67.05714 69.06309 68.06011
# Shear Modulus (GPa) = 22.29470 24.72228 23.50849
#
# Velocity S-wave (km/s) = 3.42208 3.60358 3.51400
# Velocity P-wave (km/s) = 7.13001 7.32058 7.22592
#
# Compressibility (1/GPa) = 0.01491266
#
# Stress axis : x y z
#
# Youngs Moduli (GPa) = 99.93782 82.76213 65.98160
#
# Poissons Ratio (x) = 0.25073 0.12965
# Poissons Ratio (y) = 0.30277 0.40720
# Poissons Ratio (z) = 0.19638 0.51077
#
# Static dielectric constant tensor:
#      x y z
#    x 3.790860 0.000000 0.000000 
#    y 0.000000 3.525830 0.000000 
#    z 0.000000 0.000000 3.430900 
# 
# 
# High freq. dielectric constant tensor:
#      x y z
#    x 1.760870 0.000000 0.000000 
#    y 0.000000 1.734810 0.000000 
#    z 0.000000 0.000000 1.725890 
# 
# From -- ./inp_files/64814.got.cif
#   From: 2010.03.12/outbox.cif.g09.slc.cpg/sg74_33_cif.got.tgz:64814.got - 2010.04.16 15:46:19.
