data_PCOD8299008
_publ_section_title
;
Structure prediction by ZEFSAII (Michael W. Deem and Ramdas Pophale) SiO2 
 PCOD8299008
Probable space group: I M M A
;
_chemical_formula_sum "Si O2"
_cell_formula_units_Z 96
_cell_length_a 23.565947
_cell_length_b 9.027063
_cell_length_c 24.014842
_cell_angle_alpha 90.000000
_cell_angle_beta 90.000000
_cell_angle_gamma 90.000000
_cell_volume 5108.708275
_symmetry_space_group_name_H-M "I M M A"
_symmetry_group_IT_number 74
_symmetry_cell_setting 'orthorhombic'
loop_
_space_group_symop_operation_xyz
x,y,z
-x,1/2-y,z
x,-y,-z
-x,1/2+y,-z
-x,-y,-z
x,1/2+y,-z
-x,y,z
x,1/2-y,z
1/2+x,1/2+y,1/2+z
1/2-x,-y,1/2+z
1/2+x,1/2-y,1/2-z
1/2-x,y,1/2-z
1/2-x,1/2-y,1/2-z
1/2+x,y,1/2-z
1/2-x,1/2+y,1/2+z
1/2+x,-y,1/2+z
loop_
_atom_site_type_symbol
_atom_site_label
_atom_site_fract_x
_atom_site_fract_y
_atom_site_fract_z
Si Si1 0.871295 0.578074 0.276875
Si Si2 0.848056 0.919135 0.444437
Si Si3 0.434311 0.575941 0.557504
Si Si4 0.233830 0.581999 0.343352
Si Si5 0.640991 0.422547 0.650316
Si Si6 0.066073 0.419180 0.369564
O O1 0.874598 0.750000 0.295295
O O2 0.808486 0.517533 0.295526
O O3 0.884155 0.557007 0.212089
O O4 0.919425 0.489479 0.309736
O O5 0.863169 0.750000 0.457546
O O6 0.795564 0.933284 0.402855
O O7 0.828415 0.000000 0.500000
O O8 0.903753 0.995001 0.419508
O O9 0.414866 0.500000 0.500000
O O10 0.500000 0.539120 0.569961
O O11 0.423809 0.750000 0.551893
O O12 0.397335 0.513584 0.607962
O O13 0.247444 0.750000 0.326570
O O14 0.295587 0.505836 0.347960
O O15 0.640742 0.250000 0.632385
O O16 0.086613 0.250000 0.369594
O O17 0.000000 0.433331 0.380443
#
# Coordination Sequence:
#
# PCOD8299008 Si02
#       6
#    16  16  16  16  16  16
#     4   9  18  33  54  79 108 141 174 211 256 306
#     4  10  20  35  55  77 104 138 175 216 262 312
#     4  10  22  40  58  76 103 137 173 216 263 309
#     4   8  16  32  53  78 108 140 172 210 256 303
#     4  10  19  33  57  85 109 136 173 212 253 309
#     4  10  21  36  53  74 103 139 178 221 265 306
#
# _framework density 18.791443999999998
#
# number of rings (size 3 to 8) (size 9 to 14) (size 15 to 20)
#    0.000    2.500    0.000    3.000    0.000    6.667 
#    0.000    9.167    0.000    5.000    0.000    0.000 
#    0.000    0.000    0.000    0.000    0.000    0.000 
#
# Total GULP energy -595138.566717 kJ/mol
# GULP energy per Si atom -12398.720140 kJ/mol
# Density = 1.874867 g / cm^3
# Si number density = 18.791444 Si / 1000 Ang^3
#
#
#
# Elastic Constant Matrix: (Units=GPa)
#
#
# Indices 1 2 3 4 5 6 
#
# 1 54.3314 26.5363 24.2630 0.0000 0.0000 0.0000
# 2 26.5363 87.6752 39.6031 0.0000 0.0000 0.0000
# 3 24.2630 39.6031 102.3572 0.0000 0.0000 0.0000
# 4 0.0000 0.0000 0.0000 34.5664 0.0000 0.0000
# 5 0.0000 0.0000 0.0000 0.0000 20.8614 0.0000
# 6 0.0000 0.0000 0.0000 0.0000 0.0000 22.5030
#
#
#
# Elastic Compliance Matrix: (Units=1/GPa)
#
#
# Indices 1 2 3 4 5 6 
#
# 1 0.022464 -0.005324 -0.003265 0.000000 0.000000 0.000000
# 2 -0.005324 0.015083 -0.004574 0.000000 0.000000 0.000000
# 3 -0.003265 -0.004574 0.012313 0.000000 0.000000 0.000000
# 4 0.000000 0.000000 0.000000 0.028930 0.000000 0.000000
# 5 0.000000 0.000000 0.000000 0.000000 0.047935 0.000000
# 6 0.000000 0.000000 0.000000 0.000000 0.000000 0.044439
#
#
# Mechanical properties :
#
#
# Convention : Reuss Voigt Hill
#
# Bulk Modulus (GPa) = 42.49072 47.24095 44.86584
# Shear Modulus (GPa) = 24.35045 25.85026 25.10035
#
# Velocity S-wave (km/s) = 3.60366 3.71299 3.65873
# Velocity P-wave (km/s) = 6.32266 6.60120 6.46343
#
# Compressibility (1/GPa) = 0.02353455
#
# Stress axis : x y z
#
# Youngs Moduli (GPa) = 44.51556 66.29887 81.21330
#
# Poissons Ratio (x) = 0.35300 0.26515
# Poissons Ratio (y) = 0.23702 0.37145
# Poissons Ratio (z) = 0.14534 0.30324
#
# Static dielectric constant tensor:
#      x y z
#    x 3.422530 0.000000 0.000000 
#    y 0.000000 3.390090 0.000000 
#    z 0.000000 0.000000 3.438770 
# 
# 
# High freq. dielectric constant tensor:
#      x y z
#    x 1.728220 0.000000 0.000000 
#    y 0.000000 1.714560 0.000000 
#    z 0.000000 0.000000 1.736080 
# 
# From -- ./inp_files/57286.got.cif
#   From: 2010.03.12/outbox.cif.g09.slc.cpg/sg74_29_cif.got.tgz:57286.got - 2010.04.16 15:46:19.
