data_PCOD8299117
_publ_section_title
;
Structure prediction by ZEFSAII (Michael W. Deem and Ramdas Pophale) SiO2 
 PCOD8299117
Probable space group: I M M A
;
_chemical_formula_sum "Si O2"
_cell_formula_units_Z 104
_cell_length_a 8.782320
_cell_length_b 20.626035
_cell_length_c 29.417437
_cell_angle_alpha 90.000000
_cell_angle_beta 90.000000
_cell_angle_gamma 90.000000
_cell_volume 5328.805143
_symmetry_space_group_name_H-M "I M M A"
_symmetry_group_IT_number 74
_symmetry_cell_setting 'orthorhombic'
loop_
_space_group_symop_operation_xyz
x,y,z
-x,1/2-y,z
x,-y,-z
-x,1/2+y,-z
-x,-y,-z
x,1/2+y,-z
-x,y,z
x,1/2-y,z
1/2+x,1/2+y,1/2+z
1/2-x,-y,1/2+z
1/2+x,1/2-y,1/2-z
1/2-x,y,1/2-z
1/2-x,1/2-y,1/2-z
1/2+x,y,1/2-z
1/2-x,1/2+y,1/2+z
1/2+x,-y,1/2+z
loop_
_atom_site_type_symbol
_atom_site_label
_atom_site_fract_x
_atom_site_fract_y
_atom_site_fract_z
Si Si1 0.818936 0.930514 0.953947
Si Si2 0.182417 0.250000 0.698928
Si Si3 0.320333 0.373312 0.857827
Si Si4 0.179831 0.987265 0.296254
Si Si5 0.326153 0.821885 0.615766
Si Si6 0.821310 0.866812 0.703498
Si Si7 0.181086 0.568488 0.450381
O O1 0.764724 0.873940 0.920232
O O2 0.000000 0.939644 0.955331
O O3 0.740062 0.996703 0.937505
O O4 0.761134 0.908626 0.003522
O O5 0.250000 0.250000 0.750000
O O6 0.244828 0.311332 0.669518
O O7 0.000000 0.250000 0.703173
O O8 0.500000 0.369124 0.854082
O O9 0.260229 0.439752 0.835415
O O10 0.273336 0.379432 0.911011
O O11 0.250000 0.960152 0.250000
O O12 0.000000 0.985619 0.291946
O O13 0.237781 0.059984 0.306132
O O14 0.500000 0.837557 0.628273
O O15 0.309552 0.750000 0.594474
O O16 0.229248 0.822929 0.661708
O O17 0.750000 0.839595 0.750000
O O18 0.000000 0.863749 0.709017
O O19 0.000000 0.564962 0.456740
#
# Coordination Sequence:
#
# PCOD8299117 Si02
#       7
#    16   8  16  16  16  16  16
#     4  10  20  36  57  82 109 137 172 219 274 323
#     4  10  20  36  54  74 106 146 186 224 267 320
#     4   9  18  32  51  75 104 139 175 217 265 313
#     4   9  17  30  48  73 102 132 168 212 261 306
#     4  10  22  39  56  75 104 142 178 212 259 315
#     4  10  20  34  54  79 107 137 175 220 264 311
#     4  10  19  34  57  82 107 137 176 220 270 322
#
# _framework density 19.516569
#
# number of rings (size 3 to 8) (size 9 to 14) (size 15 to 20)
#    0.000    2.308    0.000    3.692    0.000    3.692 
#    1.385    3.077    0.000    0.000    0.000    0.000 
#    0.000    0.000    0.000    0.000    0.000    0.000 
#
# Total GULP energy -644653.044998 kJ/mol
# GULP energy per Si atom -12397.173942 kJ/mol
# Density = 1.947215 g / cm^3
# Si number density = 19.516569 Si / 1000 Ang^3
#
#
#
# Elastic Constant Matrix: (Units=GPa)
#
#
# Indices 1 2 3 4 5 6 
#
# 1 44.9250 20.2620 22.5214 0.0000 0.0000 0.0000
# 2 20.2620 87.6603 62.3861 0.0000 0.0000 0.0000
# 3 22.5214 62.3861 128.9118 0.0000 0.0000 0.0000
# 4 0.0000 0.0000 0.0000 36.9367 0.0000 0.0000
# 5 0.0000 0.0000 0.0000 0.0000 32.4581 0.0000
# 6 0.0000 0.0000 0.0000 0.0000 0.0000 19.3051
#
#
#
# Elastic Compliance Matrix: (Units=1/GPa)
#
#
# Indices 1 2 3 4 5 6 
#
# 1 0.025339 -0.004128 -0.002429 0.000000 0.000000 0.000000
# 2 -0.004128 0.018073 -0.008025 0.000000 0.000000 0.000000
# 3 -0.002429 -0.008025 0.012065 0.000000 0.000000 0.000000
# 4 0.000000 0.000000 0.000000 0.027073 0.000000 0.000000
# 5 0.000000 0.000000 0.000000 0.000000 0.030809 0.000000
# 6 0.000000 0.000000 0.000000 0.000000 0.000000 0.051800
#
#
# Mechanical properties :
#
#
# Convention : Reuss Voigt Hill
#
# Bulk Modulus (GPa) = 38.00455 52.42625 45.21540
# Shear Modulus (GPa) = 24.61896 28.16181 26.39039
#
# Velocity S-wave (km/s) = 3.55553 3.80276 3.68122
# Velocity P-wave (km/s) = 6.03083 6.79721 6.42546
#
# Compressibility (1/GPa) = 0.02631264
#
# Stress axis : x y z
#
# Youngs Moduli (GPa) = 39.46505 55.33024 82.88179
#
# Poissons Ratio (x) = 0.22842 0.20132
# Poissons Ratio (y) = 0.16292 0.66515
# Poissons Ratio (z) = 0.09586 0.44404
#
# Static dielectric constant tensor:
#      x y z
#    x 3.351970 0.000000 0.000000 
#    y 0.000000 3.691220 0.000000 
#    z 0.000000 0.000000 3.575770 
# 
# 
# High freq. dielectric constant tensor:
#      x y z
#    x 1.744790 0.000000 0.000000 
#    y 0.000000 1.754120 0.000000 
#    z 0.000000 0.000000 1.767290 
# 
# From -- ./inp_files/70614.got.cif
#   From: 2010.03.12/outbox.cif.g09.slc.cpg/sg74_36_cif.got.tgz:70614.got - 2010.04.16 15:46:19.
