data_PCOD8299472
_publ_section_title
;
Structure prediction by ZEFSAII (Michael W. Deem and Ramdas Pophale) SiO2 
 PCOD8299472
Probable space group: I M M A
;
_chemical_formula_sum "Si O2"
_cell_formula_units_Z 96
_cell_length_a 28.997378
_cell_length_b 9.172974
_cell_length_c 20.699402
_cell_angle_alpha 90.000000
_cell_angle_beta 90.000000
_cell_angle_gamma 90.000000
_cell_volume 5505.879362
_symmetry_space_group_name_H-M "I M M A"
_symmetry_group_IT_number 74
_symmetry_cell_setting 'orthorhombic'
loop_
_space_group_symop_operation_xyz
x,y,z
-x,1/2-y,z
x,-y,-z
-x,1/2+y,-z
-x,-y,-z
x,1/2+y,-z
-x,y,z
x,1/2-y,z
1/2+x,1/2+y,1/2+z
1/2-x,-y,1/2+z
1/2+x,1/2-y,1/2-z
1/2-x,y,1/2-z
1/2-x,1/2-y,1/2-z
1/2+x,y,1/2-z
1/2-x,1/2+y,1/2+z
1/2+x,-y,1/2+z
loop_
_atom_site_type_symbol
_atom_site_label
_atom_site_fract_x
_atom_site_fract_y
_atom_site_fract_z
Si Si1 0.613560 0.090307 0.441175
Si Si2 0.276939 0.585321 0.562022
Si Si3 0.945069 0.413924 0.561456
Si Si4 0.784630 0.580155 0.191226
Si Si5 0.447192 0.080610 0.187315
Si Si6 0.121127 0.577444 0.800761
O O1 0.592400 0.250000 0.449163
O O2 0.668479 0.093090 0.445761
O O3 0.600557 0.027878 0.370426
O O4 0.591651 0.000000 0.500000
O O5 0.255850 0.500000 0.500000
O O6 0.256597 0.750000 0.564835
O O7 0.264244 0.499701 0.627770
O O8 0.924763 0.500000 0.500000
O O9 0.925707 0.250000 0.560079
O O10 0.927820 0.491728 0.626414
O O11 0.000000 0.415324 0.558900
O O12 0.791987 0.750000 0.174627
O O13 0.750000 0.557486 0.250000
O O14 0.832567 0.510192 0.214417
O O15 0.500000 0.039595 0.202850
O O16 0.442382 0.250000 0.170280
O O17 0.417066 0.035693 0.248591
O O18 0.132613 0.750000 0.802038
#
# Coordination Sequence:
#
# PCOD8299472 Si02
#       6
#    16  16  16  16  16  16
#     4   8  14  24  39  61  86 112 145 183 220 259
#     4   9  16  27  45  68  93 120 152 191 233 275
#     4   9  16  26  42  65  91 118 150 188 228 270
#     4  10  20  32  47  69  96 125 157 193 233 276
#     4   9  17  30  48  69  93 121 153 190 232 277
#     4   9  18  31  47  68  93 122 155 190 232 279
#
# _framework density 17.435905999999999
#
# number of rings (size 3 to 8) (size 9 to 14) (size 15 to 20)
#    0.000    3.000    0.000    2.500    0.000    8.000 
#    0.000    0.000    0.000    1.500    0.000    7.000 
#    0.000    0.000    0.000    0.000    0.000    1.833 
#
# Total GULP energy -595005.314796 kJ/mol
# GULP energy per Si atom -12395.944058 kJ/mol
# Density = 1.739622 g / cm^3
# Si number density = 17.435906 Si / 1000 Ang^3
#
#
#
# Elastic Constant Matrix: (Units=GPa)
#
#
# Indices 1 2 3 4 5 6 
#
# 1 36.7754 34.3083 49.5370 0.0000 0.0000 0.0000
# 2 34.3083 113.8428 86.1041 0.0000 0.0000 0.0000
# 3 49.5370 86.1041 176.0546 0.0000 0.0000 0.0000
# 4 0.0000 0.0000 0.0000 36.7047 0.0000 0.0000
# 5 0.0000 0.0000 0.0000 0.0000 22.7294 0.0000
# 6 0.0000 0.0000 0.0000 0.0000 0.0000 12.3659
#
#
#
# Elastic Compliance Matrix: (Units=1/GPa)
#
#
# Indices 1 2 3 4 5 6 
#
# 1 0.046685 -0.006561 -0.009927 0.000000 0.000000 0.000000
# 2 -0.006561 0.014863 -0.005423 0.000000 0.000000 0.000000
# 3 -0.009927 -0.005423 0.011126 0.000000 0.000000 0.000000
# 4 0.000000 0.000000 0.000000 0.027244 0.000000 0.000000
# 5 0.000000 0.000000 0.000000 0.000000 0.043996 0.000000
# 6 0.000000 0.000000 0.000000 0.000000 0.000000 0.080868
#
#
# Mechanical properties :
#
#
# Convention : Reuss Voigt Hill
#
# Bulk Modulus (GPa) = 34.66057 74.06351 54.36204
# Shear Modulus (GPa) = 17.97136 24.80821 21.38979
#
# Velocity S-wave (km/s) = 3.21395 3.77613 3.50632
# Velocity P-wave (km/s) = 5.80471 7.84742 6.90205
#
# Compressibility (1/GPa) = 0.02885123
#
# Stress axis : x y z
#
# Youngs Moduli (GPa) = 21.42025 67.28134 89.88330
#
# Poissons Ratio (x) = 0.44143 0.89228
# Poissons Ratio (y) = 0.14054 0.48744
# Poissons Ratio (z) = 0.21264 0.36487
#
# Static dielectric constant tensor:
#      x y z
#    x 2.679270 0.000000 0.000000 
#    y 0.000000 3.453720 0.000000 
#    z 0.000000 0.000000 3.544650 
# 
# 
# High freq. dielectric constant tensor:
#      x y z
#    x 1.605510 0.000000 0.000000 
#    y 0.000000 1.681850 0.000000 
#    z 0.000000 0.000000 1.692970 
# 
# From -- ./inp_files/55024.got.cif
#   From: 2010.03.12/outbox.cif.g09.slc.cpg/sg74_28_cif.got.tgz:55024.got - 2010.04.16 15:46:19.
