data_PCOD8299897
_publ_section_title
;
Structure prediction by ZEFSAII (Michael W. Deem and Ramdas Pophale) SiO2 
 PCOD8299897
Probable space group: I M M A
;
_chemical_formula_sum "Si O2"
_cell_formula_units_Z 104
_cell_length_a 17.811034
_cell_length_b 9.533273
_cell_length_c 33.163752
_cell_angle_alpha 90.000000
_cell_angle_beta 90.000000
_cell_angle_gamma 90.000000
_cell_volume 5631.120507
_symmetry_space_group_name_H-M "I M M A"
_symmetry_group_IT_number 74
_symmetry_cell_setting 'orthorhombic'
loop_
_space_group_symop_operation_xyz
x,y,z
-x,1/2-y,z
x,-y,-z
-x,1/2+y,-z
-x,-y,-z
x,1/2+y,-z
-x,y,z
x,1/2-y,z
1/2+x,1/2+y,1/2+z
1/2-x,-y,1/2+z
1/2+x,1/2-y,1/2-z
1/2-x,y,1/2-z
1/2-x,1/2-y,1/2-z
1/2+x,y,1/2-z
1/2-x,1/2+y,1/2+z
1/2+x,-y,1/2+z
loop_
_atom_site_type_symbol
_atom_site_label
_atom_site_fract_x
_atom_site_fract_y
_atom_site_fract_z
Si Si1 0.665571 0.416729 0.748770
Si Si2 0.414722 0.087613 0.408080
Si Si3 0.587135 0.415573 0.830179
Si Si4 0.500000 0.087083 0.040432
Si Si5 0.223332 0.588242 0.960719
Si Si6 0.639546 0.587180 0.904237
Si Si7 0.912251 0.089821 0.831316
O O1 0.664325 0.250000 0.747919
O O2 0.750000 0.475564 0.750000
O O3 0.618920 0.469077 0.787397
O O4 0.627939 0.474211 0.707967
O O5 0.500000 0.048325 0.420650
O O6 0.407839 0.250000 0.396145
O O7 0.360451 0.051470 0.445380
O O8 0.387426 0.999732 0.369741
O O9 0.500000 0.457388 0.832927
O O10 0.598855 0.250000 0.835654
O O11 0.634344 0.493921 0.864373
O O12 0.500000 0.250000 0.028866
O O13 0.426975 0.045093 0.065672
O O14 0.500000 0.000000 0.000000
O O15 0.230455 0.750000 0.973067
O O16 0.281771 0.551654 0.925430
O O17 0.242673 0.500000 0.000000
O O18 0.633788 0.750000 0.891964
O O19 0.887891 0.250000 0.839380
O O20 0.000000 0.077950 0.823217
#
# Coordination Sequence:
#
# PCOD8299897 Si02
#       7
#    16  16  16   8  16  16  16
#     4   9  18  31  49  76 108 139 172 215 263 306
#     4   9  19  36  56  78 107 140 172 212 266 322
#     4  10  20  34  54  80 107 140 182 222 261 310
#     4  10  20  34  54  76 102 136 174 216 260 308
#     4  10  22  38  56  79 107 139 174 217 267 318
#     4  10  21  37  54  76 108 143 176 216 268 316
#     4   9  17  31  52  76 102 135 174 214 254 301
#
# _framework density 18.468793000000002
#
# number of rings (size 3 to 8) (size 9 to 14) (size 15 to 20)
#    0.000    2.462    0.769    0.923    2.154    4.000 
#    0.000    0.769    0.000    2.769    0.000    0.000 
#    0.000    0.000    0.000    0.000    0.000    0.000 
#
# Total GULP energy -644924.855697 kJ/mol
# GULP energy per Si atom -12402.401071 kJ/mol
# Density = 1.842676 g / cm^3
# Si number density = 18.468793 Si / 1000 Ang^3
#
#
#
# Elastic Constant Matrix: (Units=GPa)
#
#
# Indices 1 2 3 4 5 6 
#
# 1 91.8682 29.0496 41.5767 0.0000 0.0000 0.0000
# 2 29.0496 44.9678 43.1002 0.0000 0.0000 0.0000
# 3 41.5767 43.1002 94.3033 0.0000 0.0000 0.0000
# 4 0.0000 0.0000 0.0000 30.9177 0.0000 0.0000
# 5 0.0000 0.0000 0.0000 0.0000 25.6480 0.0000
# 6 0.0000 0.0000 0.0000 0.0000 0.0000 17.8194
#
#
#
# Elastic Compliance Matrix: (Units=1/GPa)
#
#
# Indices 1 2 3 4 5 6 
#
# 1 0.014380 -0.005718 -0.003727 0.000000 0.000000 0.000000
# 2 -0.005718 0.041847 -0.016605 0.000000 0.000000 0.000000
# 3 -0.003727 -0.016605 0.019836 0.000000 0.000000 0.000000
# 4 0.000000 0.000000 0.000000 0.032344 0.000000 0.000000
# 5 0.000000 0.000000 0.000000 0.000000 0.038989 0.000000
# 6 0.000000 0.000000 0.000000 0.000000 0.000000 0.056119
#
#
# Mechanical properties :
#
#
# Convention : Reuss Voigt Hill
#
# Bulk Modulus (GPa) = 41.72807 50.95470 46.34139
# Shear Modulus (GPa) = 18.96805 22.70454 20.83629
#
# Velocity S-wave (km/s) = 3.20821 3.51001 3.36250
# Velocity P-wave (km/s) = 6.03045 6.63900 6.34203
#
# Compressibility (1/GPa) = 0.02396468
#
# Stress axis : x y z
#
# Youngs Moduli (GPa) = 69.54275 23.89657 50.41289
#
# Poissons Ratio (x) = 0.13663 0.18787
# Poissons Ratio (y) = 0.39761 0.83710
# Poissons Ratio (z) = 0.25916 0.39680
#
# Static dielectric constant tensor:
#      x y z
#    x 3.626400 0.000000 0.000000 
#    y 0.000000 3.212120 0.000000 
#    z 0.000000 0.000000 3.345980 
# 
# 
# High freq. dielectric constant tensor:
#      x y z
#    x 1.729120 0.000000 0.000000 
#    y 0.000000 1.691960 0.000000 
#    z 0.000000 0.000000 1.718420 
# 
# From -- ./inp_files/67765.got.cif
#   From: 2010.03.12/outbox.cif.g09.slc.cpg/sg74_34_cif.got.tgz:67765.got - 2010.04.16 15:46:19.
