data_PCOD8299855
_publ_section_title
;
Structure prediction by ZEFSAII (Michael W. Deem and Ramdas Pophale) SiO2 
 PCOD8299855
Probable space group: I M M A
;
_chemical_formula_sum "Si O2"
_cell_formula_units_Z 112
_cell_length_a 18.028192
_cell_length_b 9.431474
_cell_length_c 35.911131
_cell_angle_alpha 90.000000
_cell_angle_beta 90.000000
_cell_angle_gamma 90.000000
_cell_volume 6106.056657
_symmetry_space_group_name_H-M "I M M A"
_symmetry_group_IT_number 74
_symmetry_cell_setting 'orthorhombic'
loop_
_space_group_symop_operation_xyz
x,y,z
-x,1/2-y,z
x,-y,-z
-x,1/2+y,-z
-x,-y,-z
x,1/2+y,-z
-x,y,z
x,1/2-y,z
1/2+x,1/2+y,1/2+z
1/2-x,-y,1/2+z
1/2+x,1/2-y,1/2-z
1/2-x,y,1/2-z
1/2-x,1/2-y,1/2-z
1/2+x,y,1/2-z
1/2-x,1/2+y,1/2+z
1/2+x,-y,1/2+z
loop_
_atom_site_type_symbol
_atom_site_label
_atom_site_fract_x
_atom_site_fract_y
_atom_site_fract_z
Si Si1 0.585893 0.417182 0.183433
Si Si2 0.667140 0.081833 0.109671
Si Si3 0.585224 0.085623 0.464448
Si Si4 0.335558 0.582683 0.610813
Si Si5 0.586409 0.914657 0.963812
Si Si6 0.336435 0.085484 0.751294
Si Si7 0.586289 0.913459 0.325019
O O1 0.500000 0.458568 0.183612
O O2 0.597976 0.250000 0.187814
O O3 0.620757 0.474136 0.144909
O O4 0.626321 0.492941 0.217090
O O5 0.663818 0.250000 0.108300
O O6 0.751302 0.028001 0.113582
O O7 0.631100 0.023713 0.071574
O O8 0.500000 0.047842 0.455579
O O9 0.595321 0.250000 0.473598
O O10 0.634033 0.038809 0.429459
O O11 0.614610 0.000000 0.500000
O O12 0.341838 0.750000 0.617302
O O13 0.385341 0.508004 0.641413
O O14 0.500000 0.939560 0.955689
O O15 0.603946 0.750000 0.970792
O O16 0.613087 0.000000 0.000000
O O17 0.351724 0.250000 0.759930
O O18 0.250000 0.050385 0.750000
O O19 0.371202 0.039925 0.712103
O O20 0.500000 0.942761 0.318600
O O21 0.602096 0.750000 0.334628
#
# Coordination Sequence:
#
# PCOD8299855 Si02
#       7
#    16  16  16  16  16  16  16
#     4  10  20  34  54  79 104 134 175 215 251 300
#     4   9  18  33  52  74 102 135 168 207 258 306
#     4   9  18  32  49  70  96 126 161 201 246 297
#     4  10  20  34  53  76 101 130 168 213 255 296
#     4   9  17  31  51  73 100 135 172 209 250 298
#     4  10  21  37  56  78 106 138 170 208 257 308
#     4  10  21  36  53  74 102 135 168 202 247 304
#
# _framework density 18.342442999999999
#
# number of rings (size 3 to 8) (size 9 to 14) (size 15 to 20)
#    0.000    2.429    0.000    2.143    0.000    5.429 
#    0.000    2.857    0.000    1.714    0.000    0.000 
#    0.000    0.000    0.000    0.000    0.000    0.000 
#
# Total GULP energy -694579.733421 kJ/mol
# GULP energy per Si atom -12403.209525 kJ/mol
# Density = 1.830069 g / cm^3
# Si number density = 18.342443 Si / 1000 Ang^3
#
#
#
# Elastic Constant Matrix: (Units=GPa)
#
#
# Indices 1 2 3 4 5 6 
#
# 1 115.3988 39.4008 79.9822 0.0000 0.0000 0.0000
# 2 39.4008 42.1796 58.4224 0.0000 0.0000 0.0000
# 3 79.9822 58.4224 163.7615 0.0000 0.0000 0.0000
# 4 0.0000 0.0000 0.0000 32.9479 0.0000 0.0000
# 5 0.0000 0.0000 0.0000 0.0000 14.2264 0.0000
# 6 0.0000 0.0000 0.0000 0.0000 0.0000 20.4776
#
#
#
# Elastic Compliance Matrix: (Units=1/GPa)
#
#
# Indices 1 2 3 4 5 6 
#
# 1 0.014124 -0.007193 -0.004332 0.000000 0.000000 0.000000
# 2 -0.007193 0.050530 -0.014513 0.000000 0.000000 0.000000
# 3 -0.004332 -0.014513 0.013400 0.000000 0.000000 0.000000
# 4 0.000000 0.000000 0.000000 0.030351 0.000000 0.000000
# 5 0.000000 0.000000 0.000000 0.000000 0.070292 0.000000
# 6 0.000000 0.000000 0.000000 0.000000 0.000000 0.048834
#
#
# Mechanical properties :
#
#
# Convention : Reuss Voigt Hill
#
# Bulk Modulus (GPa) = 38.49656 75.21675 56.85665
# Shear Modulus (GPa) = 17.34503 23.09936 20.22220
#
# Velocity S-wave (km/s) = 3.07843 3.55257 3.32397
# Velocity P-wave (km/s) = 5.80249 7.61076 6.76729
#
# Compressibility (1/GPa) = 0.02597635
#
# Stress axis : x y z
#
# Youngs Moduli (GPa) = 70.80051 19.79027 74.62709
#
# Poissons Ratio (x) = 0.14236 0.32329
# Poissons Ratio (y) = 0.50929 1.08309
# Poissons Ratio (z) = 0.30671 0.28722
#
# Static dielectric constant tensor:
#      x y z
#    x 3.564460 0.000000 0.000000 
#    y 0.000000 3.177310 0.000000 
#    z 0.000000 0.000000 3.577360 
# 
# 
# High freq. dielectric constant tensor:
#      x y z
#    x 1.722190 0.000000 0.000000 
#    y 0.000000 1.687990 0.000000 
#    z 0.000000 0.000000 1.724720 
# 
# From -- ./inp_files/72498.got.cif
#   From: 2010.03.12/outbox.cif.g09.slc.cpg/sg74_37_cif.got.tgz:72498.got - 2010.04.16 15:46:19.
