data_PCOD8299714
_publ_section_title
;
Structure prediction by ZEFSAII (Michael W. Deem and Ramdas Pophale) SiO2 
 PCOD8299714
Probable space group: I M M A
;
_chemical_formula_sum "Si O2"
_cell_formula_units_Z 112
_cell_length_a 17.815855
_cell_length_b 14.266867
_cell_length_c 22.401366
_cell_angle_alpha 90.000000
_cell_angle_beta 90.000000
_cell_angle_gamma 90.000000
_cell_volume 5693.899322
_symmetry_space_group_name_H-M "I M M A"
_symmetry_group_IT_number 74
_symmetry_cell_setting 'orthorhombic'
loop_
_space_group_symop_operation_xyz
x,y,z
-x,1/2-y,z
x,-y,-z
-x,1/2+y,-z
-x,-y,-z
x,1/2+y,-z
-x,y,z
x,1/2-y,z
1/2+x,1/2+y,1/2+z
1/2-x,-y,1/2+z
1/2+x,1/2-y,1/2-z
1/2-x,y,1/2-z
1/2-x,1/2-y,1/2-z
1/2+x,y,1/2-z
1/2-x,1/2+y,1/2+z
1/2+x,-y,1/2+z
loop_
_atom_site_type_symbol
_atom_site_label
_atom_site_fract_x
_atom_site_fract_y
_atom_site_fract_z
Si Si1 0.588684 0.642950 0.749521
Si Si2 0.842994 0.645239 0.091227
Si Si3 0.414672 0.857707 0.533571
Si Si4 0.328255 0.850504 0.087253
Si Si5 0.916305 0.396319 0.475699
Si Si6 0.837848 0.953913 0.861201
Si Si7 0.162847 0.953317 0.639910
O O1 0.500000 0.638954 0.752978
O O2 0.617284 0.750000 0.756453
O O3 0.613891 0.602691 0.686191
O O4 0.621851 0.576834 0.800227
O O5 0.856896 0.750000 0.117816
O O6 0.757811 0.633390 0.068083
O O7 0.856623 0.565836 0.141910
O O8 0.897559 0.626378 0.035892
O O9 0.500000 0.889044 0.545454
O O10 0.402470 0.750000 0.551455
O O11 0.358869 0.919850 0.572710
O O12 0.336770 0.750000 0.121593
O O13 0.355435 0.936327 0.128774
O O14 0.374952 0.837599 0.026477
O O15 0.921761 0.500000 0.500000
O O16 0.868789 0.391409 0.414658
O O17 0.000000 0.356027 0.463747
O O18 0.750414 0.934506 0.850668
#
# Coordination Sequence:
#
# PCOD8299714 Si02
#       7
#    16  16  16  16  16  16  16
#     4  11  25  43  60  78 103 137 177 222 271 321
#     4   9  19  35  54  80 113 145 178 217 262 315
#     4  10  20  33  52  81 114 145 178 219 269 321
#     4   9  18  34  56  82 112 144 178 217 262 315
#     4   9  17  30  50  78 112 145 176 214 259 307
#     4  11  21  35  58  82 106 141 182 223 267 314
#     4  10  21  37  57  81 108 141 181 223 267 315
#
# _framework density 19.670176000000001
#
# number of rings (size 3 to 8) (size 9 to 14) (size 15 to 20)
#    0.000    2.143    0.000    3.000    0.000    8.286 
#    0.000    0.714    0.000    4.286    0.000    0.000 
#    0.000    0.000    0.000    0.000    0.000    0.000 
#
# Total GULP energy -694275.672781 kJ/mol
# GULP energy per Si atom -12397.779871 kJ/mol
# Density = 1.962541 g / cm^3
# Si number density = 19.670176 Si / 1000 Ang^3
#
#
#
# Elastic Constant Matrix: (Units=GPa)
#
#
# Indices 1 2 3 4 5 6 
#
# 1 76.0660 42.6848 24.7365 0.0000 0.0000 0.0000
# 2 42.6848 121.3306 43.3415 0.0000 0.0000 0.0000
# 3 24.7365 43.3415 57.6059 0.0000 0.0000 0.0000
# 4 0.0000 0.0000 0.0000 24.9991 0.0000 0.0000
# 5 0.0000 0.0000 0.0000 0.0000 33.8886 0.0000
# 6 0.0000 0.0000 0.0000 0.0000 0.0000 18.8730
#
#
#
# Elastic Compliance Matrix: (Units=1/GPa)
#
#
# Indices 1 2 3 4 5 6 
#
# 1 0.016975 -0.004606 -0.003824 0.000000 0.000000 0.000000
# 2 -0.004606 0.012521 -0.007443 0.000000 0.000000 0.000000
# 3 -0.003824 -0.007443 0.024601 0.000000 0.000000 0.000000
# 4 0.000000 0.000000 0.000000 0.040002 0.000000 0.000000
# 5 0.000000 0.000000 0.000000 0.000000 0.029508 0.000000
# 6 0.000000 0.000000 0.000000 0.000000 0.000000 0.052986
#
#
# Mechanical properties :
#
#
# Convention : Reuss Voigt Hill
#
# Bulk Modulus (GPa) = 44.73872 52.94758 48.84315
# Shear Modulus (GPa) = 23.17094 25.16810 24.16952
#
# Velocity S-wave (km/s) = 3.43589 3.58090 3.50914
# Velocity P-wave (km/s) = 6.20759 6.63877 6.42680
#
# Compressibility (1/GPa) = 0.02235200
#
# Stress axis : x y z
#
# Youngs Moduli (GPa) = 58.91175 79.86587 40.64873
#
# Poissons Ratio (x) = 0.36785 0.15543
# Poissons Ratio (y) = 0.27134 0.30254
# Poissons Ratio (z) = 0.22526 0.59442
#
# Static dielectric constant tensor:
#      x y z
#    x 3.702070 0.000000 0.000000 
#    y 0.000000 3.958280 0.000000 
#    z 0.000000 0.000000 3.304210 
# 
# 
# High freq. dielectric constant tensor:
#      x y z
#    x 1.774600 0.000000 0.000000 
#    y 0.000000 1.781340 0.000000 
#    z 0.000000 0.000000 1.734230 
# 
# From -- ./inp_files/60199.got.cif
#   From: 2010.03.12/outbox.cif.g09.slc.cpg/sg74_31_cif.got.tgz:60199.got - 2010.04.16 15:46:19.
