data_PCOD8299771
_publ_section_title
;
Structure prediction by ZEFSAII (Michael W. Deem and Ramdas Pophale) SiO2 
 PCOD8299771
Probable space group: I M M A
;
_chemical_formula_sum "Si O2"
_cell_formula_units_Z 104
_cell_length_a 28.592624
_cell_length_b 8.859499
_cell_length_c 24.258887
_cell_angle_alpha 90.000000
_cell_angle_beta 90.000000
_cell_angle_gamma 90.000000
_cell_volume 6145.172073
_symmetry_space_group_name_H-M "I M M A"
_symmetry_group_IT_number 74
_symmetry_cell_setting 'orthorhombic'
loop_
_space_group_symop_operation_xyz
x,y,z
-x,1/2-y,z
x,-y,-z
-x,1/2+y,-z
-x,-y,-z
x,1/2+y,-z
-x,y,z
x,1/2-y,z
1/2+x,1/2+y,1/2+z
1/2-x,-y,1/2+z
1/2+x,1/2-y,1/2-z
1/2-x,y,1/2-z
1/2-x,1/2-y,1/2-z
1/2+x,y,1/2-z
1/2-x,1/2+y,1/2+z
1/2+x,-y,1/2+z
loop_
_atom_site_type_symbol
_atom_site_label
_atom_site_fract_x
_atom_site_fract_y
_atom_site_fract_z
Si Si1 0.174206 0.073014 0.059445
Si Si2 0.774949 0.074188 0.441615
Si Si3 0.500000 0.429498 0.560039
Si Si4 0.123810 0.572062 0.559641
Si Si5 0.445331 0.424943 0.733554
Si Si6 0.584395 0.428309 0.374162
Si Si7 0.946237 0.073849 0.347530
O O1 0.170932 0.250000 0.049394
O O2 0.225244 0.028589 0.086778
O O3 0.134584 0.021346 0.102049
O O4 0.165782 0.000000 0.000000
O O5 0.775488 0.250000 0.451541
O O6 0.824776 0.028096 0.414053
O O7 0.774010 0.000000 0.500000
O O8 0.500000 0.250000 0.555811
O O9 0.500000 0.500000 0.500000
O O10 0.545598 0.482347 0.592130
O O11 0.115450 0.500000 0.500000
O O12 0.118826 0.750000 0.551952
O O13 0.084832 0.512316 0.601944
O O14 0.500000 0.453566 0.722939
O O15 0.432376 0.250000 0.727847
O O16 0.416434 0.521504 0.689328
O O17 0.430762 0.482133 0.793726
O O18 0.575408 0.250000 0.379052
O O19 0.937386 0.250000 0.336067
O O20 0.000000 0.041686 0.362716
#
# Coordination Sequence:
#
# PCOD8299771 Si02
#       7
#    16  16   8  16  16  16  16
#     4   9  18  30  46  69  94 122 156 195 238 284
#     4   8  14  27  45  66  93 122 156 193 229 277
#     4  12  24  36  48  68  98 130 161 196 241 290
#     4   9  17  29  48  73 100 130 158 189 234 283
#     4  10  20  34  51  70  91 120 161 203 241 282
#     4  11  21  33  50  70  93 124 159 198 244 289
#     4   9  18  32  49  70  97 128 161 196 234 280
#
# _framework density 16.923856000000001
#
# number of rings (size 3 to 8) (size 9 to 14) (size 15 to 20)
#    0.000    2.462    0.769    2.077    0.000    4.000 
#    0.000    0.000    0.000    0.923    0.000    6.462 
#    0.000    0.000    0.000    0.000    0.000    0.000 
#
# Total GULP energy -644344.414105 kJ/mol
# GULP energy per Si atom -12391.238733 kJ/mol
# Density = 1.688534 g / cm^3
# Si number density = 16.923856 Si / 1000 Ang^3
#
#
#
# Elastic Constant Matrix: (Units=GPa)
#
#
# Indices 1 2 3 4 5 6 
#
# 1 138.1233 38.5093 76.4385 0.0000 0.0000 0.0000
# 2 38.5093 51.9634 36.4553 0.0000 0.0000 0.0000
# 3 76.4385 36.4553 107.8794 0.0000 0.0000 0.0000
# 4 0.0000 0.0000 0.0000 26.5752 0.0000 0.0000
# 5 0.0000 0.0000 0.0000 0.0000 7.6123 0.0000
# 6 0.0000 0.0000 0.0000 0.0000 0.0000 13.7822
#
#
#
# Elastic Compliance Matrix: (Units=1/GPa)
#
#
# Indices 1 2 3 4 5 6 
#
# 1 0.012514 -0.004002 -0.007515 0.000000 0.000000 0.000000
# 2 -0.004002 0.026504 -0.006121 0.000000 0.000000 0.000000
# 3 -0.007515 -0.006121 0.016663 0.000000 0.000000 0.000000
# 4 0.000000 0.000000 0.000000 0.037629 0.000000 0.000000
# 5 0.000000 0.000000 0.000000 0.000000 0.131366 0.000000
# 6 0.000000 0.000000 0.000000 0.000000 0.000000 0.072557
#
#
# Mechanical properties :
#
#
# Convention : Reuss Voigt Hill
#
# Bulk Modulus (GPa) = 49.00519 66.75248 57.87884
# Shear Modulus (GPa) = 14.73573 19.36481 17.05027
#
# Velocity S-wave (km/s) = 2.95398 3.38632 3.17751
# Velocity P-wave (km/s) = 6.37603 7.40392 6.90912
#
# Compressibility (1/GPa) = 0.02040600
#
# Stress axis : x y z
#
# Youngs Moduli (GPa) = 79.90768 37.72964 60.01491
#
# Poissons Ratio (x) = 0.15100 0.45099
# Poissons Ratio (y) = 0.31981 0.36733
# Poissons Ratio (z) = 0.60048 0.23093
#
# Static dielectric constant tensor:
#      x y z
#    x 3.817350 0.000000 0.000000 
#    y 0.000000 3.250010 0.000000 
#    z 0.000000 0.000000 3.112970 
# 
# 
# High freq. dielectric constant tensor:
#      x y z
#    x 1.660580 0.000000 0.000000 
#    y 0.000000 1.655910 0.000000 
#    z 0.000000 0.000000 1.626990 
# 
# From -- ./inp_files/62658.got.cif
#   From: 2010.03.12/outbox.cif.g09.slc.cpg/sg74_32_cif.got.tgz:62658.got - 2010.04.16 15:46:19.
