data_PCOD8299713
_publ_section_title
;
Structure prediction by ZEFSAII (Michael W. Deem and Ramdas Pophale) SiO2 
 PCOD8299713
Probable space group: I M M A
;
_chemical_formula_sum "Si O2"
_cell_formula_units_Z 112
_cell_length_a 14.776764
_cell_length_b 27.633980
_cell_length_c 13.966031
_cell_angle_alpha 90.000000
_cell_angle_beta 90.000000
_cell_angle_gamma 90.000000
_cell_volume 5702.900283
_symmetry_space_group_name_H-M "I M M A"
_symmetry_group_IT_number 74
_symmetry_cell_setting 'orthorhombic'
loop_
_space_group_symop_operation_xyz
x,y,z
-x,1/2-y,z
x,-y,-z
-x,1/2+y,-z
-x,-y,-z
x,1/2+y,-z
-x,y,z
x,1/2-y,z
1/2+x,1/2+y,1/2+z
1/2-x,-y,1/2+z
1/2+x,1/2-y,1/2-z
1/2-x,y,1/2-z
1/2-x,1/2-y,1/2-z
1/2+x,y,1/2-z
1/2-x,1/2+y,1/2+z
1/2+x,-y,1/2+z
loop_
_atom_site_type_symbol
_atom_site_label
_atom_site_fract_x
_atom_site_fract_y
_atom_site_fract_z
Si Si1 0.779132 0.694026 0.979242
Si Si2 0.898295 0.443839 0.091846
Si Si3 0.654194 0.145911 0.295270
Si Si4 0.896542 0.042723 0.574882
Si Si5 0.782908 0.597770 0.075932
Si Si6 0.396718 0.538552 0.293518
Si Si7 0.597553 0.304448 0.113462
O O1 0.793251 0.750000 0.012622
O O2 0.835745 0.684488 0.882278
O O3 0.674751 0.679675 0.959918
O O4 0.804849 0.655217 0.061824
O O5 0.895260 0.401878 0.170054
O O6 0.868197 0.493039 0.142552
O O7 0.000000 0.448071 0.051194
O O8 0.831264 0.433809 0.005454
O O9 0.750000 0.132049 0.250000
O O10 0.592070 0.166828 0.212342
O O11 0.824360 0.086488 0.565319
O O12 0.885408 0.023088 0.683001
O O13 0.000000 0.061709 0.557653
O O14 0.874410 0.000000 0.500000
O O15 0.827774 0.582032 0.177242
O O16 0.500000 0.555010 0.312962
O O17 0.500000 0.309750 0.061978
O O18 0.619694 0.250000 0.144207
#
# Coordination Sequence:
#
# PCOD8299713 Si02
#       7
#    16  16  16  16  16  16  16
#     4   9  19  33  47  69 100 134 178 230 277 318
#     4  10  20  33  52  81 113 143 177 215 255 309
#     4   9  17  28  45  70 103 143 181 220 266 319
#     4  10  22  38  56  82 112 140 172 213 264 321
#     4  11  21  34  57  80 105 144 182 218 262 315
#     4  10  21  37  57  79 107 140 173 214 262 315
#     4   9  16  27  45  68  98 140 184 223 266 316
#
# _framework density 19.639130000000002
#
# number of rings (size 3 to 8) (size 9 to 14) (size 15 to 20)
#    0.000    2.286    0.000    3.000    0.000    8.000 
#    0.000    1.429    0.000   10.286    0.000    2.000 
#    0.000    0.000    0.000    0.000    0.000    0.000 
#
# Total GULP energy -694040.445330 kJ/mol
# GULP energy per Si atom -12393.579381 kJ/mol
# Density = 1.959443 g / cm^3
# Si number density = 19.639130 Si / 1000 Ang^3
#
#
#
# Elastic Constant Matrix: (Units=GPa)
#
#
# Indices 1 2 3 4 5 6 
#
# 1 79.5258 31.4197 24.6591 0.0000 0.0000 0.0000
# 2 31.4197 107.7366 42.0353 0.0004 -0.0001 -0.0001
# 3 24.6591 42.0353 76.1646 0.0007 -0.0001 0.0000
# 4 0.0000 0.0004 0.0007 21.9425 -0.0001 0.0000
# 5 0.0000 -0.0001 -0.0001 -0.0001 17.4506 0.0000
# 6 0.0000 -0.0001 0.0000 0.0000 0.0000 20.1321
#
#
#
# Elastic Compliance Matrix: (Units=1/GPa)
#
#
# Indices 1 2 3 4 5 6 
#
# 1 0.014751 -0.003108 -0.003061 0.000000 0.000000 0.000000
# 2 -0.003108 0.012484 -0.005884 0.000000 0.000000 0.000000
# 3 -0.003061 -0.005884 0.017368 0.000000 0.000000 0.000000
# 4 0.000000 0.000000 0.000000 0.045574 0.000000 0.000000
# 5 0.000000 0.000000 0.000000 0.000000 0.057305 0.000000
# 6 0.000000 0.000000 0.000000 0.000000 0.000000 0.049672
#
#
# Mechanical properties :
#
#
# Convention : Reuss Voigt Hill
#
# Bulk Modulus (GPa) = 48.78411 51.07281 49.92846
# Shear Modulus (GPa) = 21.92114 22.92590 22.42352
#
# Velocity S-wave (km/s) = 3.34458 3.42037 3.38269
# Velocity P-wave (km/s) = 6.30945 6.45451 6.38239
#
# Compressibility (1/GPa) = 0.02049848
#
# Stress axis : x y z
#
# Youngs Moduli (GPa) = 67.78990 80.10339 57.57856
#
# Poissons Ratio (x) = 0.24895 0.17623
# Poissons Ratio (y) = 0.21068 0.33877
# Poissons Ratio (z) = 0.20749 0.47130
#
# Static dielectric constant tensor:
#      x y z
#    x 3.748440 0.000000 0.000000 
#    y 0.000000 3.495700 0.000000 
#    z 0.000000 0.000000 3.479790 
# 
# 
# High freq. dielectric constant tensor:
#      x y z
#    x 1.776190 0.000000 0.000000 
#    y 0.000000 1.747940 0.000000 
#    z 0.000000 0.000000 1.743980 
# 
# From -- ./inp_files/33167.got.cif
#   From: 2010.03.12/outbox.cif.g09.slc.cpg/sg74_17_cif.got.tgz:33167.got - 2010.04.16 15:46:19.
