data_PCOD8299156
_publ_section_title
;
Structure prediction by ZEFSAII (Michael W. Deem and Ramdas Pophale) SiO2 
 PCOD8299156
Probable space group: I M M A
;
_chemical_formula_sum "Si O2"
_cell_formula_units_Z 80
_cell_length_a 23.303710
_cell_length_b 9.125266
_cell_length_c 19.364351
_cell_angle_alpha 90.000000
_cell_angle_beta 90.000000
_cell_angle_gamma 90.000000
_cell_volume 4117.878668
_symmetry_space_group_name_H-M "I M M A"
_symmetry_group_IT_number 74
_symmetry_cell_setting 'orthorhombic'
loop_
_space_group_symop_operation_xyz
x,y,z
-x,1/2-y,z
x,-y,-z
-x,1/2+y,-z
-x,-y,-z
x,1/2+y,-z
-x,y,z
x,1/2-y,z
1/2+x,1/2+y,1/2+z
1/2-x,-y,1/2+z
1/2+x,1/2-y,1/2-z
1/2-x,y,1/2-z
1/2-x,1/2-y,1/2-z
1/2+x,y,1/2-z
1/2-x,1/2+y,1/2+z
1/2+x,-y,1/2+z
loop_
_atom_site_type_symbol
_atom_site_label
_atom_site_fract_x
_atom_site_fract_y
_atom_site_fract_z
Si Si1 0.435036 0.921920 0.674548
Si Si2 0.757123 0.580983 0.331213
Si Si3 0.336172 0.923452 0.573939
Si Si4 0.367771 0.584238 0.806724
Si Si5 0.437009 0.913002 0.940544
O O1 0.500000 0.989604 0.670437
O O2 0.440903 0.750000 0.687477
O O3 0.400087 0.954996 0.604008
O O4 0.396598 0.985924 0.737752
O O5 0.753930 0.750000 0.354743
O O6 0.750000 0.561623 0.250000
O O7 0.710383 0.488912 0.373392
O O8 0.819602 0.514536 0.343123
O O9 0.325110 0.750000 0.566287
O O10 0.330645 0.000000 0.500000
O O11 0.344887 0.750000 0.791831
O O12 0.416307 0.582998 0.863100
O O13 0.500000 0.983508 0.935688
O O14 0.437833 0.750000 0.968843
O O15 0.401228 0.000000 0.000000
#
# Coordination Sequence:
#
# PCOD8299156 Si02
#       5
#    16  16  16  16  16
#     4   9  18  34  59  89 117 151 197 244 291 350
#     4  11  23  39  60  85 117 152 191 241 293 344
#     4  11  23  40  63  89 120 156 198 244 296 355
#     4  10  19  34  59  86 113 149 196 241 285 344
#     4   9  18  32  51  77 111 149 186 229 279 332
#
# _framework density 19.427479000000002
#
# number of rings (size 3 to 8) (size 9 to 14) (size 15 to 20)
#    0.000    2.000    2.000    1.800    0.000    5.200 
#    0.000    2.000    0.000    6.000    0.000    0.000 
#    0.000    0.000    0.000    0.000    0.000    0.000 
#
# Total GULP energy -495599.999229 kJ/mol
# GULP energy per Si atom -12389.999981 kJ/mol
# Density = 1.938326 g / cm^3
# Si number density = 19.427479 Si / 1000 Ang^3
#
#
#
# Elastic Constant Matrix: (Units=GPa)
#
#
# Indices 1 2 3 4 5 6 
#
# 1 122.3226 46.0052 45.7733 0.0000 0.0000 0.0000
# 2 46.0052 90.9913 52.3848 0.0000 0.0000 0.0000
# 3 45.7733 52.3848 106.0427 0.0000 0.0000 0.0000
# 4 0.0000 0.0000 0.0000 28.9049 0.0000 0.0000
# 5 0.0000 0.0000 0.0000 0.0000 20.9632 0.0000
# 6 0.0000 0.0000 0.0000 0.0000 0.0000 -16.4845
#
#
#
# Elastic Compliance Matrix: (Units=1/GPa)
#
#
# Indices 1 2 3 4 5 6 
#
# 1 0.010620 -0.003816 -0.002699 0.000000 0.000000 0.000000
# 2 -0.003816 0.016729 -0.006617 0.000000 0.000000 0.000000
# 3 -0.002699 -0.006617 0.013864 0.000000 0.000000 0.000000
# 4 0.000000 0.000000 0.000000 0.034596 0.000000 0.000000
# 5 0.000000 0.000000 0.000000 0.000000 0.047703 0.000000
# 6 0.000000 0.000000 0.000000 0.000000 0.000000 -0.060663
#
#
# Mechanical properties :
#
#
# Convention : Reuss Voigt Hill
#
# Bulk Modulus (GPa) = 66.89271 67.52036 67.20653
# Shear Modulus (GPa) = 53.13770 18.35630 35.74700
#
# Velocity S-wave (km/s) = 5.23557 3.07720 4.29420
# Velocity P-wave (km/s) = 8.42941 6.88884 7.69776
#
# Compressibility (1/GPa) = 0.01494931
#
# Stress axis : x y z
#
# Youngs Moduli (GPa) = 94.16001 59.77776 72.12891
#
# Poissons Ratio (x) = 0.22808 0.19470
# Poissons Ratio (y) = 0.35927 0.47727
# Poissons Ratio (z) = 0.25417 0.39554
#
# Static dielectric constant tensor:
#      x y z
#    x 3.814130 0.000000 0.000000 
#    y 0.000000 3.601440 0.000000 
#    z 0.000000 0.000000 3.626980 
# 
# 
# High freq. dielectric constant tensor:
#      x y z
#    x 1.756270 0.000000 0.000000 
#    y 0.000000 1.735670 0.000000 
#    z 0.000000 0.000000 1.764860 
# 
# From -- ./inp_files/39724.got.cif
#   From: 2010.03.12/outbox.cif.g09.slc.cpg/sg74_20_cif.got.tgz:39724.got - 2010.04.16 15:46:19.
