data_PCOD8299249
_publ_section_title
;
Structure prediction by ZEFSAII (Michael W. Deem and Ramdas Pophale) SiO2 
 PCOD8299249
Probable space group: I M M A
;
_chemical_formula_sum "Si O2"
_cell_formula_units_Z 96
_cell_length_a 13.709096
_cell_length_b 23.359891
_cell_length_c 14.649289
_cell_angle_alpha 90.000000
_cell_angle_beta 90.000000
_cell_angle_gamma 90.000000
_cell_volume 4691.332085
_symmetry_space_group_name_H-M "I M M A"
_symmetry_group_IT_number 74
_symmetry_cell_setting 'orthorhombic'
loop_
_space_group_symop_operation_xyz
x,y,z
-x,1/2-y,z
x,-y,-z
-x,1/2+y,-z
-x,-y,-z
x,1/2+y,-z
-x,y,z
x,1/2-y,z
1/2+x,1/2+y,1/2+z
1/2-x,-y,1/2+z
1/2+x,1/2-y,1/2-z
1/2-x,y,1/2-z
1/2-x,1/2-y,1/2-z
1/2+x,y,1/2-z
1/2-x,1/2+y,1/2+z
1/2+x,-y,1/2+z
loop_
_atom_site_type_symbol
_atom_site_label
_atom_site_fract_x
_atom_site_fract_y
_atom_site_fract_z
Si Si1 0.385956 0.126520 0.341528
Si Si2 0.614397 0.404483 0.013469
Si Si3 0.885372 0.815069 0.028883
Si Si4 0.722220 0.518671 0.593591
Si Si5 0.885486 0.187056 0.337978
Si Si6 0.747752 0.604723 0.352654
O O1 0.500000 0.115622 0.333619
O O2 0.358589 0.167493 0.425620
O O3 0.337418 0.064814 0.350303
O O4 0.342102 0.155464 0.250902
O O5 0.500000 0.419392 0.012005
O O6 0.671709 0.457028 0.061124
O O7 0.638831 0.347808 0.071069
O O8 0.651711 0.390515 0.910752
O O9 0.849336 0.750000 0.045867
O O10 0.835634 0.859544 0.096924
O O11 0.000000 0.819845 0.045691
O O12 0.666698 0.500000 0.500000
O O13 0.726141 0.462801 0.656617
O O14 0.838522 0.250000 0.347705
O O15 0.000000 0.192590 0.323224
O O16 0.750000 0.629735 0.250000
#
# Coordination Sequence:
#
# PCOD8299249 Si02
#       6
#    16  16  16  16  16  16
#     4  10  19  35  61  93 128 163 197 245 307 371
#     4  10  22  42  62  87 125 167 209 255 305 363
#     4  10  21  40  64  90 122 158 201 255 315 372
#     4  10  21  39  58  88 123 163 206 253 303 367
#     4   9  19  36  60  93 128 162 201 243 299 377
#     4  11  25  42  62  88 120 159 211 265 309 362
#
# _framework density 20.463270999999999
#
# number of rings (size 3 to 8) (size 9 to 14) (size 15 to 20)
#    0.000    2.000    3.333    0.500    2.333    7.667 
#    0.000    0.833    0.000    2.000    0.000    0.000 
#    0.000    0.000    0.000    0.000    0.000    0.000 
#
# Total GULP energy -595011.509539 kJ/mol
# GULP energy per Si atom -12396.073115 kJ/mol
# Density = 2.041670 g / cm^3
# Si number density = 20.463271 Si / 1000 Ang^3
#
#
#
# Elastic Constant Matrix: (Units=GPa)
#
#
# Indices 1 2 3 4 5 6 
#
# 1 58.2608 46.5672 28.5559 0.0000 0.0000 0.0000
# 2 46.5672 160.7309 55.6116 0.0003 -0.0002 0.0000
# 3 28.5559 55.6116 128.5617 0.0003 -0.0003 0.0000
# 4 0.0000 0.0003 0.0003 24.9413 -0.0002 0.0000
# 5 0.0000 -0.0002 -0.0003 -0.0002 -13.1749 0.0000
# 6 0.0000 0.0000 0.0000 0.0000 0.0000 28.8405
#
#
#
# Elastic Compliance Matrix: (Units=1/GPa)
#
#
# Indices 1 2 3 4 5 6 
#
# 1 0.023067 -0.005774 -0.002626 0.000000 0.000000 0.000000
# 2 -0.005774 0.008762 -0.002508 0.000000 0.000000 0.000000
# 3 -0.002626 -0.002508 0.009446 0.000000 0.000000 0.000000
# 4 0.000000 0.000000 0.000000 0.040094 -0.000001 0.000000
# 5 0.000000 0.000000 0.000000 -0.000001 -0.075902 0.000000
# 6 0.000000 0.000000 0.000000 0.000000 0.000000 0.034674
#
#
# Mechanical properties :
#
#
# Convention : Reuss Voigt Hill
#
# Bulk Modulus (GPa) = 51.38855 67.66920 59.52887
# Shear Modulus (GPa) = 73.05382 22.57595 47.81489
#
# Velocity S-wave (km/s) = 5.98143 3.32511 4.83910
# Velocity P-wave (km/s) = 8.53642 6.91970 7.77022
#
# Compressibility (1/GPa) = 0.01945959
#
# Stress axis : x y z
#
# Youngs Moduli (GPa) = 43.35279 114.12698 105.86154
#
# Poissons Ratio (x) = 0.65902 0.27796
# Poissons Ratio (y) = 0.25034 0.26546
# Poissons Ratio (z) = 0.11383 0.28619
#
# Static dielectric constant tensor:
#      x y z
#    x 3.622430 0.000000 0.000000 
#    y 0.000000 3.965040 0.000000 
#    z 0.000000 0.000000 3.719210 
# 
# 
# High freq. dielectric constant tensor:
#      x y z
#    x 1.793340 0.000000 0.000000 
#    y 0.000000 1.811230 0.000000 
#    z 0.000000 0.000000 1.794260 
# 
# From -- ./inp_files/32343.got.cif
#   From: 2010.03.12/outbox.cif.g09.slc.cpg/sg74_17_cif.got.tgz:32343.got - 2010.04.16 15:46:19.
