data_PCOD8299382
_publ_section_title
;
Structure prediction by ZEFSAII (Michael W. Deem and Ramdas Pophale) SiO2 
 PCOD8299382
Probable space group: I M M A
;
_chemical_formula_sum "Si O2"
_cell_formula_units_Z 84
_cell_length_a 7.583339
_cell_length_b 20.899358
_cell_length_c 27.833086
_cell_angle_alpha 90.000000
_cell_angle_beta 90.000000
_cell_angle_gamma 90.000000
_cell_volume 4411.179980
_symmetry_space_group_name_H-M "I M M A"
_symmetry_group_IT_number 74
_symmetry_cell_setting 'orthorhombic'
loop_
_space_group_symop_operation_xyz
x,y,z
-x,1/2-y,z
x,-y,-z
-x,1/2+y,-z
-x,-y,-z
x,1/2+y,-z
-x,y,z
x,1/2-y,z
1/2+x,1/2+y,1/2+z
1/2-x,-y,1/2+z
1/2+x,1/2-y,1/2-z
1/2-x,y,1/2-z
1/2-x,1/2-y,1/2-z
1/2+x,y,1/2-z
1/2-x,1/2+y,1/2+z
1/2+x,-y,1/2+z
loop_
_atom_site_type_symbol
_atom_site_label
_atom_site_fract_x
_atom_site_fract_y
_atom_site_fract_z
Si Si1 0.300363 0.501898 0.447078
Si Si2 0.000000 0.250000 0.013976
Si Si3 0.208674 0.750000 0.432648
Si Si4 0.707503 0.617243 0.110940
Si Si5 0.500000 0.820596 0.608236
Si Si6 0.802137 0.415321 0.365028
Si Si7 0.705443 0.531527 0.195249
O O1 0.218363 0.500000 0.500000
O O2 0.500000 0.474968 0.446711
O O3 0.298823 0.575180 0.430051
O O4 0.183007 0.457133 0.413376
O O5 0.000000 0.187401 0.049551
O O6 0.176830 0.250000 0.981517
O O7 0.261253 0.809727 0.398867
O O8 0.000000 0.750000 0.446487
O O9 0.500000 0.608663 0.106800
O O10 0.775950 0.591295 0.163061
O O11 0.500000 0.750000 0.632002
O O12 0.325288 0.855474 0.627431
O O13 0.721144 0.462906 0.323754
O O14 0.000000 0.390627 0.352560
O O15 0.500000 0.526481 0.187665
O O16 0.750000 0.545000 0.250000
#
# Coordination Sequence:
#
# PCOD8299382 Si02
#       7
#    16   4   8  16   8  16  16
#     4  10  20  30  51  79 111 144 188 243 290 338
#     4  10  26  38  56  88 116 156 218 234 266 356
#     4  10  22  40  59  77 122 170 199 242 291 337
#     4   9  20  36  52  79 113 153 198 239 292 350
#     4  10  24  40  56  85 121 151 195 244 279 346
#     4  10  21  38  57  83 114 149 190 237 297 350
#     4   9  19  35  59  90 114 143 194 248 300 364
#
# _framework density 19.042525000000001
#
# number of rings (size 3 to 8) (size 9 to 14) (size 15 to 20)
#    0.286    2.095    0.952    1.714    5.333    3.429 
#    0.000    0.476    0.000    0.571    0.000    0.000 
#    0.000    0.000    0.000    0.000    0.000    0.000 
#
# Total GULP energy -520500.359641 kJ/mol
# GULP energy per Si atom -12392.865706 kJ/mol
# Density = 1.899918 g / cm^3
# Si number density = 19.042525 Si / 1000 Ang^3
#
#
#
# Elastic Constant Matrix: (Units=GPa)
#
#
# Indices 1 2 3 4 5 6 
#
# 1 68.0931 37.2723 14.4384 0.0000 0.0000 0.0000
# 2 37.2723 134.2228 48.0603 0.0000 0.0000 0.0000
# 3 14.4384 48.0603 127.2268 0.0000 0.0000 0.0000
# 4 0.0000 0.0000 0.0000 21.2595 0.0000 0.0000
# 5 0.0000 0.0000 0.0000 0.0000 25.1203 0.0000
# 6 0.0000 0.0000 0.0000 0.0000 0.0000 30.1798
#
#
#
# Elastic Compliance Matrix: (Units=1/GPa)
#
#
# Indices 1 2 3 4 5 6 
#
# 1 0.017321 -0.004748 -0.000172 0.000000 0.000000 0.000000
# 2 -0.004748 0.009917 -0.003207 0.000000 0.000000 0.000000
# 3 -0.000172 -0.003207 0.009091 0.000000 0.000000 0.000000
# 4 0.000000 0.000000 0.000000 0.047038 0.000000 0.000000
# 5 0.000000 0.000000 0.000000 0.000000 0.039809 0.000000
# 6 0.000000 0.000000 0.000000 0.000000 0.000000 0.033135
#
#
# Mechanical properties :
#
#
# Convention : Reuss Voigt Hill
#
# Bulk Modulus (GPa) = 49.81521 58.78718 54.30120
# Shear Modulus (GPa) = 27.89277 30.63003 29.26140
#
# Velocity S-wave (km/s) = 3.83137 4.01497 3.92425
# Velocity P-wave (km/s) = 6.76678 7.24098 7.00790
#
# Compressibility (1/GPa) = 0.02007419
#
# Stress axis : x y z
#
# Youngs Moduli (GPa) = 57.73214 100.83354 109.99752
#
# Poissons Ratio (x) = 0.47880 0.01892
# Poissons Ratio (y) = 0.27413 0.35281
# Poissons Ratio (z) = 0.00993 0.32342
#
# Static dielectric constant tensor:
#      x y z
#    x 3.421860 0.000000 0.000000 
#    y 0.000000 3.553180 0.000000 
#    z 0.000000 0.000000 2.742350 
# 
# 
# High freq. dielectric constant tensor:
#      x y z
#    x 1.743830 0.000000 0.000000 
#    y 0.000000 1.728170 0.000000 
#    z 0.000000 0.000000 1.724910 
# 
# From -- ./inp_files/64232.got.cif
#   From: 2010.03.12/outbox.cif.g09.slc.cpg/sg74_33_cif.got.tgz:64232.got - 2010.04.16 15:46:19.
