data_PCOD8299814
_publ_section_title
;
Structure prediction by ZEFSAII (Michael W. Deem and Ramdas Pophale) SiO2 
 PCOD8299814
Probable space group: I M M A
;
_chemical_formula_sum "Si O2"
_cell_formula_units_Z 80
_cell_length_a 8.599429
_cell_length_b 18.044250
_cell_length_c 27.431210
_cell_angle_alpha 90.000000
_cell_angle_beta 90.000000
_cell_angle_gamma 90.000000
_cell_volume 4256.507624
_symmetry_space_group_name_H-M "I M M A"
_symmetry_group_IT_number 74
_symmetry_cell_setting 'orthorhombic'
loop_
_space_group_symop_operation_xyz
x,y,z
-x,1/2-y,z
x,-y,-z
-x,1/2+y,-z
-x,-y,-z
x,1/2+y,-z
-x,y,z
x,1/2-y,z
1/2+x,1/2+y,1/2+z
1/2-x,-y,1/2+z
1/2+x,1/2-y,1/2-z
1/2-x,y,1/2-z
1/2-x,1/2-y,1/2-z
1/2+x,y,1/2-z
1/2-x,1/2+y,1/2+z
1/2+x,-y,1/2+z
loop_
_atom_site_type_symbol
_atom_site_label
_atom_site_fract_x
_atom_site_fract_y
_atom_site_fract_z
Si Si1 0.319023 0.389470 0.062976
Si Si2 0.180967 0.166823 0.158679
Si Si3 0.678437 0.165754 0.534436
Si Si4 0.681156 0.033247 0.601730
Si Si5 0.817594 0.522508 0.698851
O O1 0.500000 0.383421 0.075400
O O2 0.224617 0.340725 0.101925
O O3 0.267037 0.474981 0.066402
O O4 0.288462 0.358026 0.009602
O O5 0.220040 0.250000 0.176249
O O6 0.278157 0.109165 0.190986
O O7 0.000000 0.148687 0.165316
O O8 0.500000 0.155571 0.517739
O O9 0.714339 0.250000 0.549693
O O10 0.714740 0.115310 0.581483
O O11 0.500000 0.013632 0.601685
O O12 0.744256 0.028063 0.656594
O O13 0.750000 0.494595 0.750000
O O14 0.000000 0.511306 0.698497
#
# Coordination Sequence:
#
# PCOD8299814 Si02
#       5
#    16  16  16  16  16
#     4  11  21  32  50  77 109 144 180 214 250 298
#     4  10  20  34  52  75 106 142 178 215 255 301
#     4  10  21  36  54  77 106 140 175 212 257 308
#     4  10  20  36  57  78 103 136 174 215 258 306
#     4  11  22  37  57  78 102 132 170 215 261 311
#
# _framework density 18.794750000000001
#
# number of rings (size 3 to 8) (size 9 to 14) (size 15 to 20)
#    0.000    1.600    0.000    8.400    0.000    8.800 
#    0.000    0.000    0.000    0.600    0.000    0.000 
#    0.000    0.000    0.000    0.000    0.000    0.000 
#
# Total GULP energy -496145.383833 kJ/mol
# GULP energy per Si atom -12403.634596 kJ/mol
# Density = 1.875197 g / cm^3
# Si number density = 18.794750 Si / 1000 Ang^3
#
#
#
# Elastic Constant Matrix: (Units=GPa)
#
#
# Indices 1 2 3 4 5 6 
#
# 1 58.0389 14.1780 12.3117 0.0000 0.0000 0.0000
# 2 14.1780 94.7789 37.2365 0.0000 0.0000 0.0000
# 3 12.3117 37.2365 91.5351 0.0000 0.0000 0.0000
# 4 0.0000 0.0000 0.0000 11.5023 0.0000 0.0000
# 5 0.0000 0.0000 0.0000 0.0000 31.3268 0.0000
# 6 0.0000 0.0000 0.0000 0.0000 0.0000 11.8057
#
#
#
# Elastic Compliance Matrix: (Units=1/GPa)
#
#
# Indices 1 2 3 4 5 6 
#
# 1 0.018074 -0.002081 -0.001584 0.000000 0.000000 0.000000
# 2 -0.002081 0.012798 -0.004926 0.000000 0.000000 0.000000
# 3 -0.001584 -0.004926 0.013142 0.000000 0.000000 0.000000
# 4 0.000000 0.000000 0.000000 0.086939 0.000000 0.000000
# 5 0.000000 0.000000 0.000000 0.000000 0.031922 0.000000
# 6 0.000000 0.000000 0.000000 0.000000 0.000000 0.084705
#
#
# Mechanical properties :
#
#
# Convention : Reuss Voigt Hill
#
# Bulk Modulus (GPa) = 37.27145 41.31169 39.29157
# Shear Modulus (GPa) = 18.26773 22.96873 20.61823
#
# Velocity S-wave (km/s) = 3.12101 3.49962 3.31572
# Velocity P-wave (km/s) = 5.73249 6.19338 5.96739
#
# Compressibility (1/GPa) = 0.02683019
#
# Stress axis : x y z
#
# Youngs Moduli (GPa) = 55.32705 78.13977 76.09291
#
# Poissons Ratio (x) = 0.16263 0.12056
# Poissons Ratio (y) = 0.11515 0.37484
# Poissons Ratio (z) = 0.08766 0.38493
#
# Static dielectric constant tensor:
#      x y z
#    x 3.514960 0.000000 0.000000 
#    y 0.000000 3.423090 0.000000 
#    z 0.000000 0.000000 3.176440 
# 
# 
# High freq. dielectric constant tensor:
#      x y z
#    x 1.742420 0.000000 0.000000 
#    y 0.000000 1.714560 0.000000 
#    z 0.000000 0.000000 1.720520 
# 
# From -- ./inp_files/63940.got.cif
#   From: 2010.03.12/outbox.cif.g09.slc.cpg/sg74_32_cif.got.tgz:63940.got - 2010.04.16 15:46:19.
