data_PCOD8299181
_publ_section_title
;
Structure prediction by ZEFSAII (Michael W. Deem and Ramdas Pophale) SiO2 
 PCOD8299181
Probable space group: I M M A
;
_chemical_formula_sum "Si O2"
_cell_formula_units_Z 104
_cell_length_a 22.747918
_cell_length_b 9.247052
_cell_length_c 28.265690
_cell_angle_alpha 90.000000
_cell_angle_beta 90.000000
_cell_angle_gamma 90.000000
_cell_volume 5945.721263
_symmetry_space_group_name_H-M "I M M A"
_symmetry_group_IT_number 74
_symmetry_cell_setting 'orthorhombic'
loop_
_space_group_symop_operation_xyz
x,y,z
-x,1/2-y,z
x,-y,-z
-x,1/2+y,-z
-x,-y,-z
x,1/2+y,-z
-x,y,z
x,1/2-y,z
1/2+x,1/2+y,1/2+z
1/2-x,-y,1/2+z
1/2+x,1/2-y,1/2-z
1/2-x,y,1/2-z
1/2-x,1/2-y,1/2-z
1/2+x,y,1/2-z
1/2-x,1/2+y,1/2+z
1/2+x,-y,1/2+z
loop_
_atom_site_type_symbol
_atom_site_label
_atom_site_fract_x
_atom_site_fract_y
_atom_site_fract_z
Si Si1 0.686426 0.079067 0.298256
Si Si2 0.000000 0.581262 0.550445
Si Si3 0.273685 0.078323 0.952290
Si Si4 0.835025 0.581192 0.112980
Si Si5 0.123222 0.921203 0.597764
Si Si6 0.819821 0.420291 0.305462
Si Si7 0.435868 0.086416 0.547408
O O1 0.683472 0.250000 0.304325
O O2 0.753036 0.022626 0.307282
O O3 0.658666 0.033478 0.247237
O O4 0.650309 0.999762 0.338479
O O5 0.000000 0.500000 0.500000
O O6 0.943563 0.540977 0.582899
O O7 0.000000 0.750000 0.537963
O O8 0.280100 0.250000 0.960825
O O9 0.227414 0.043191 0.910810
O O10 0.335891 0.009368 0.938128
O O11 0.251678 0.000000 0.000000
O O12 0.840899 0.750000 0.122540
O O13 0.886618 0.519014 0.080550
O O14 0.135474 0.750000 0.592696
O O15 0.138274 0.976450 0.651633
O O16 0.818534 0.250000 0.308919
O O17 0.500000 0.077522 0.572070
O O18 0.418662 0.250000 0.534859
O O19 0.436391 0.000000 0.500000
#
# Coordination Sequence:
#
# PCOD8299181 Si02
#       7
#    16   8  16  16  16  16  16
#     4   9  16  29  51  76  99 128 161 195 241 294
#     4  10  22  36  54  76  98 132 174 214 255 298
#     4  11  22  33  47  72 103 131 161 200 248 296
#     4  10  20  32  47  73 103 128 159 202 246 289
#     4  10  19  35  55  74  98 131 169 207 251 299
#     4   8  15  29  51  75  98 125 161 200 240 293
#     4   9  18  33  51  69  93 129 167 200 237 284
#
# _framework density 17.491568999999998
#
# number of rings (size 3 to 8) (size 9 to 14) (size 15 to 20)
#    0.000    2.462    1.538    2.308    0.000    3.077 
#    0.000    2.308    1.692    0.000    0.000    0.000 
#    0.000    0.000    0.000    0.000    0.000    0.000 
#
# Total GULP energy -644344.315403 kJ/mol
# GULP energy per Si atom -12391.236835 kJ/mol
# Density = 1.745176 g / cm^3
# Si number density = 17.491569 Si / 1000 Ang^3
#
#
#
# Elastic Constant Matrix: (Units=GPa)
#
#
# Indices 1 2 3 4 5 6 
#
# 1 85.8742 24.7084 42.5810 0.0000 0.0000 0.0000
# 2 24.7084 42.8730 36.2585 0.0000 0.0000 0.0000
# 3 42.5810 36.2585 124.7163 0.0000 0.0000 0.0000
# 4 0.0000 0.0000 0.0000 28.4405 0.0000 0.0000
# 5 0.0000 0.0000 0.0000 0.0000 26.3576 0.0000
# 6 0.0000 0.0000 0.0000 0.0000 0.0000 18.1584
#
#
#
# Elastic Compliance Matrix: (Units=1/GPa)
#
#
# Indices 1 2 3 4 5 6 
#
# 1 0.015007 -0.005723 -0.003460 0.000000 0.000000 0.000000
# 2 -0.005723 0.033112 -0.007673 0.000000 0.000000 0.000000
# 3 -0.003460 -0.007673 0.011430 0.000000 0.000000 0.000000
# 4 0.000000 0.000000 0.000000 0.035161 0.000000 0.000000
# 5 0.000000 0.000000 0.000000 0.000000 0.037940 0.000000
# 6 0.000000 0.000000 0.000000 0.000000 0.000000 0.055071
#
#
# Mechanical properties :
#
#
# Convention : Reuss Voigt Hill
#
# Bulk Modulus (GPa) = 38.70215 51.17325 44.93770
# Shear Modulus (GPa) = 21.73495 24.58569 23.16032
#
# Velocity S-wave (km/s) = 3.52887 3.75317 3.64275
# Velocity P-wave (km/s) = 6.22721 6.93550 6.59087
#
# Compressibility (1/GPa) = 0.02583836
#
# Stress axis : x y z
#
# Youngs Moduli (GPa) = 66.63473 30.20081 87.48761
#
# Poissons Ratio (x) = 0.17283 0.30271
# Poissons Ratio (y) = 0.38133 0.67126
# Poissons Ratio (z) = 0.23056 0.23172
#
# Static dielectric constant tensor:
#      x y z
#    x 3.399950 0.000000 0.000000 
#    y 0.000000 3.062510 0.000000 
#    z 0.000000 0.000000 3.570460 
# 
# 
# High freq. dielectric constant tensor:
#      x y z
#    x 1.659120 0.000000 0.000000 
#    y 0.000000 1.658960 0.000000 
#    z 0.000000 0.000000 1.684560 
# 
# From -- ./inp_files/68648.got.cif
#   From: 2010.03.12/outbox.cif.g09.slc.cpg/sg74_35_cif.got.tgz:68648.got - 2010.04.16 15:46:19.
