data_PCOD8299496
_publ_section_title
;
Structure prediction by ZEFSAII (Michael W. Deem and Ramdas Pophale) SiO2 
 PCOD8299496
Probable space group: I M M A
;
_chemical_formula_sum "Si O2"
_cell_formula_units_Z 80
_cell_length_a 9.117320
_cell_length_b 18.199930
_cell_length_c 27.164365
_cell_angle_alpha 90.000000
_cell_angle_beta 90.000000
_cell_angle_gamma 90.000000
_cell_volume 4507.507654
_symmetry_space_group_name_H-M "I M M A"
_symmetry_group_IT_number 74
_symmetry_cell_setting 'orthorhombic'
loop_
_space_group_symop_operation_xyz
x,y,z
-x,1/2-y,z
x,-y,-z
-x,1/2+y,-z
-x,-y,-z
x,1/2+y,-z
-x,y,z
x,1/2-y,z
1/2+x,1/2+y,1/2+z
1/2-x,-y,1/2+z
1/2+x,1/2-y,1/2-z
1/2-x,y,1/2-z
1/2-x,1/2-y,1/2-z
1/2+x,y,1/2-z
1/2-x,1/2+y,1/2+z
1/2+x,-y,1/2+z
loop_
_atom_site_type_symbol
_atom_site_label
_atom_site_fract_x
_atom_site_fract_y
_atom_site_fract_z
Si Si1 0.831862 0.835108 0.299813
Si Si2 0.831836 0.667549 0.609542
Si Si3 0.329927 0.951600 0.357881
Si Si4 0.170982 0.401963 0.198759
Si Si5 0.169501 0.023454 0.445322
O O1 0.815178 0.750000 0.312767
O O2 0.750000 0.856166 0.250000
O O3 0.758867 0.878902 0.344176
O O4 0.000000 0.858561 0.293509
O O5 0.798190 0.750000 0.590172
O O6 0.732490 0.651980 0.656992
O O7 0.799764 0.610132 0.565101
O O8 0.000000 0.659921 0.626682
O O9 0.500000 0.932188 0.361889
O O10 0.299648 0.014184 0.317251
O O11 0.273099 0.975947 0.410763
O O12 0.250000 0.385814 0.250000
O O13 0.000000 0.385566 0.205118
O O14 0.000000 0.004361 0.434618
O O15 0.213852 0.000000 0.500000
#
# Coordination Sequence:
#
# PCOD8299496 Si02
#       5
#    16  16  16  16  16
#     4  10  20  33  50  73 102 136 171 207 250 300
#     4   9  18  33  52  73  98 129 164 202 244 291
#     4  10  20  33  51  74 100 131 168 210 252 298
#     4  10  20  32  48  72 100 132 167 201 240 288
#     4   9  18  34  55  76  99 129 166 209 256 302
#
# _framework density 17.748166999999999
#
# number of rings (size 3 to 8) (size 9 to 14) (size 15 to 20)
#    0.000    2.400    0.000    2.400    0.000    6.400 
#    0.000    1.000    0.000    3.600    0.000    0.000 
#    0.000    0.000    0.000    0.000    0.000    0.000 
#
# Total GULP energy -496064.402011 kJ/mol
# GULP energy per Si atom -12401.610050 kJ/mol
# Density = 1.770777 g / cm^3
# Si number density = 17.748167 Si / 1000 Ang^3
#
#
#
# Elastic Constant Matrix: (Units=GPa)
#
#
# Indices 1 2 3 4 5 6 
#
# 1 109.6450 62.1936 58.9788 0.0000 0.0000 0.0000
# 2 62.1936 102.4287 67.6060 0.0000 0.0000 0.0000
# 3 58.9788 67.6060 115.6814 0.0000 0.0000 0.0000
# 4 0.0000 0.0000 0.0000 17.8699 0.0000 0.0000
# 5 0.0000 0.0000 0.0000 0.0000 29.4967 0.0000
# 6 0.0000 0.0000 0.0000 0.0000 0.0000 23.9874
#
#
#
# Elastic Compliance Matrix: (Units=1/GPa)
#
#
# Indices 1 2 3 4 5 6 
#
# 1 0.014846 -0.006542 -0.003746 0.000000 0.000000 0.000000
# 2 -0.006542 0.018776 -0.007638 0.000000 0.000000 0.000000
# 3 -0.003746 -0.007638 0.015018 0.000000 0.000000 0.000000
# 4 0.000000 0.000000 0.000000 0.055960 0.000000 0.000000
# 5 0.000000 0.000000 0.000000 0.000000 0.033902 0.000000
# 6 0.000000 0.000000 0.000000 0.000000 0.000000 0.041688
#
#
# Mechanical properties :
#
#
# Convention : Reuss Voigt Hill
#
# Bulk Modulus (GPa) = 78.19265 78.36801 78.28033
# Shear Modulus (GPa) = 22.69579 23.53591 23.11585
#
# Velocity S-wave (km/s) = 3.57987 3.64552 3.61284
# Velocity P-wave (km/s) = 7.82558 7.87218 7.84891
#
# Compressibility (1/GPa) = 0.01278893
#
# Stress axis : x y z
#
# Youngs Moduli (GPa) = 67.35797 53.25860 66.58739
#
# Poissons Ratio (x) = 0.34842 0.24943
# Poissons Ratio (y) = 0.44066 0.50858
# Poissons Ratio (z) = 0.25231 0.40678
#
# Static dielectric constant tensor:
#      x y z
#    x 3.404890 0.000000 0.000000 
#    y 0.000000 3.358900 0.000000 
#    z 0.000000 0.000000 3.081990 
# 
# 
# High freq. dielectric constant tensor:
#      x y z
#    x 1.697480 0.000000 0.000000 
#    y 0.000000 1.686360 0.000000 
#    z 0.000000 0.000000 1.667710 
# 
# From -- ./inp_files/63893.got.cif
#   From: 2010.03.12/outbox.cif.g09.slc.cpg/sg74_32_cif.got.tgz:63893.got - 2010.04.16 15:46:19.
