data_PCOD8299251
_publ_section_title
;
Structure prediction by ZEFSAII (Michael W. Deem and Ramdas Pophale) SiO2 
 PCOD8299251
Probable space group: I M M A
;
_chemical_formula_sum "Si O2"
_cell_formula_units_Z 64
_cell_length_a 24.740855
_cell_length_b 14.985920
_cell_length_c 6.004762
_cell_angle_alpha 90.000000
_cell_angle_beta 90.000000
_cell_angle_gamma 90.000000
_cell_volume 2226.352423
_symmetry_space_group_name_H-M "I M M A"
_symmetry_group_IT_number 74
_symmetry_cell_setting 'orthorhombic'
loop_
_space_group_symop_operation_xyz
x,y,z
-x,1/2-y,z
x,-y,-z
-x,1/2+y,-z
-x,-y,-z
x,1/2+y,-z
-x,y,z
x,1/2-y,z
1/2+x,1/2+y,1/2+z
1/2-x,-y,1/2+z
1/2+x,1/2-y,1/2-z
1/2-x,y,1/2-z
1/2-x,1/2-y,1/2-z
1/2+x,y,1/2-z
1/2-x,1/2+y,1/2+z
1/2+x,-y,1/2+z
loop_
_atom_site_type_symbol
_atom_site_label
_atom_site_fract_x
_atom_site_fract_y
_atom_site_fract_z
Si Si1 0.118084 0.648854 0.882501
Si Si2 0.232154 0.603193 0.992849
Si Si3 0.848658 0.852258 0.390982
Si Si4 0.939467 0.024153 0.755833
O O1 0.093100 0.750000 0.877669
O O2 0.173595 0.652561 0.039033
O O3 0.140598 0.615911 0.643113
O O4 0.073007 0.566957 0.911686
O O5 0.250000 0.637782 0.750000
O O6 0.218612 0.500000 0.000000
O O7 0.284716 0.622784 0.156443
O O8 0.861714 0.750000 0.376774
O O9 0.893329 0.896866 0.220953
O O10 0.000000 0.057892 0.806004
O O11 0.935341 0.000000 0.500000
#
# Coordination Sequence:
#
# PCOD8299251 Si02
#       4
#    16  16  16  16
#     4  10  21  38  63  95 129 167 214 270 332 397
#     4  10  19  35  61  94 136 177 214 263 326 394
#     4  10  21  39  65  96 128 167 216 270 331 398
#     4  11  25  44  64  89 128 177 226 279 337 399
#
# _framework density 28.746573999999999
#
# number of rings (size 3 to 8) (size 9 to 14) (size 15 to 20)
#    0.000    1.750    0.000    5.250    0.000    7.000 
#    0.000    5.000    0.000    6.000    0.000    0.000 
#    0.000    0.000    0.000    0.000    0.000    0.000 
#
# Total GULP energy -397001.176708 kJ/mol
# GULP energy per Si atom -12406.286772 kJ/mol
# Density = 2.868115 g / cm^3
# Si number density = 28.746574 Si / 1000 Ang^3
#
#
#
# Elastic Constant Matrix: (Units=GPa)
#
#
# Indices 1 2 3 4 5 6 
#
# 1 268.6329 105.7454 109.9330 0.0000 0.0000 0.0000
# 2 105.7454 171.4512 31.7948 0.0000 0.0000 0.0000
# 3 109.9330 31.7948 160.1192 0.0000 0.0000 0.0000
# 4 0.0000 0.0000 0.0000 40.5177 0.0000 0.0000
# 5 0.0000 0.0000 0.0000 0.0000 44.9299 0.0000
# 6 0.0000 0.0000 0.0000 0.0000 0.0000 34.5165
#
#
#
# Elastic Compliance Matrix: (Units=1/GPa)
#
#
# Indices 1 2 3 4 5 6 
#
# 1 0.006644 -0.003376 -0.003891 0.000000 0.000000 0.000000
# 2 -0.003376 0.007771 0.000775 0.000000 0.000000 0.000000
# 3 -0.003891 0.000775 0.008763 0.000000 0.000000 0.000000
# 4 0.000000 0.000000 0.000000 0.024681 0.000000 0.000000
# 5 0.000000 0.000000 0.000000 0.000000 0.022257 0.000000
# 6 0.000000 0.000000 0.000000 0.000000 0.000000 0.028972
#
#
# Mechanical properties :
#
#
# Convention : Reuss Voigt Hill
#
# Bulk Modulus (GPa) = 98.10407 121.68332 109.89369
# Shear Modulus (GPa) = 43.30136 47.50816 45.40476
#
# Velocity S-wave (km/s) = 3.88534 4.06970 3.97858
# Velocity P-wave (km/s) = 7.37083 8.03149 7.70824
#
# Compressibility (1/GPa) = 0.01019326
#
# Stress axis : x y z
#
# Youngs Moduli (GPa) = 150.51353 128.68069 114.11607
#
# Poissons Ratio (x) = 0.43445 0.44404
# Poissons Ratio (y) = 0.50816 -0.08842
# Poissons Ratio (z) = 0.58567 -0.09971
#
# Static dielectric constant tensor:
#      x y z
#    x 5.810940 0.000000 0.000000 
#    y 0.000000 4.769650 0.000000 
#    z 0.000000 0.000000 7.655880 
# 
# 
# High freq. dielectric constant tensor:
#      x y z
#    x 2.180410 0.000000 0.000000 
#    y 0.000000 2.136940 0.000000 
#    z 0.000000 0.000000 2.331580 
# 
# From -- ./inp_files/8802.got.cif
#   From: 2010.03.12/outbox.cif.g09.slc.cpg/sg74_5_cif.got.tgz:8802.got - 2010.04.16 15:46:19.
