data_PCOD8299059
_publ_section_title
;
Structure prediction by ZEFSAII (Michael W. Deem and Ramdas Pophale) SiO2 
 PCOD8299059
Probable space group: I M M A
;
_chemical_formula_sum "Si O2"
_cell_formula_units_Z 80
_cell_length_a 15.148891
_cell_length_b 8.976140
_cell_length_c 30.795505
_cell_angle_alpha 90.000000
_cell_angle_beta 90.000000
_cell_angle_gamma 90.000000
_cell_volume 4187.528623
_symmetry_space_group_name_H-M "I M M A"
_symmetry_group_IT_number 74
_symmetry_cell_setting 'orthorhombic'
loop_
_space_group_symop_operation_xyz
x,y,z
-x,1/2-y,z
x,-y,-z
-x,1/2+y,-z
-x,-y,-z
x,1/2+y,-z
-x,y,z
x,1/2-y,z
1/2+x,1/2+y,1/2+z
1/2-x,-y,1/2+z
1/2+x,1/2-y,1/2-z
1/2-x,y,1/2-z
1/2-x,1/2-y,1/2-z
1/2+x,y,1/2-z
1/2-x,1/2+y,1/2+z
1/2+x,-y,1/2+z
loop_
_atom_site_type_symbol
_atom_site_label
_atom_site_fract_x
_atom_site_fract_y
_atom_site_fract_z
Si Si1 0.320449 0.073109 0.137078
Si Si2 0.000000 0.074011 0.320430
Si Si3 0.500000 0.927008 0.720977
Si Si4 0.098732 0.080749 0.932375
Si Si5 0.852722 0.577511 0.165347
Si Si6 0.232259 0.423505 0.457897
O O1 0.308560 0.250000 0.141964
O O2 0.413253 0.013168 0.155187
O O3 0.315435 0.024836 0.086415
O O4 0.244409 0.994109 0.164941
O O5 0.000000 0.250000 0.323650
O O6 0.000000 0.021792 0.270900
O O7 0.500000 0.750000 0.715470
O O8 0.411336 0.992487 0.700458
O O9 0.126649 0.250000 0.943611
O O10 0.100813 0.056435 0.880847
O O11 0.000000 0.045657 0.948710
O O12 0.164687 0.968669 0.956227
O O13 0.845522 0.750000 0.178500
O O14 0.187233 0.500000 0.500000
O O15 0.224107 0.250000 0.464654
#
# Coordination Sequence:
#
# PCOD8299059 Si02
#       6
#    16   8   8  16  16  16
#     4   9  19  38  60  80 104 142 186 226 270 322
#     4   9  20  39  60  80 106 139 183 236 278 312
#     4  11  21  33  55  84 111 145 186 224 260 320
#     4   9  17  31  50  72 103 143 178 211 257 310
#     4  10  19  34  54  80 114 149 179 219 272 320
#     4  10  20  33  52  77 103 134 174 220 268 321
#
# _framework density 19.104347000000001
#
# number of rings (size 3 to 8) (size 9 to 14) (size 15 to 20)
#    0.000    2.400    1.000    1.500    0.000    3.200 
#    0.000    7.000    0.000    0.000    0.000    0.000 
#    0.000    0.000    0.000    0.000    0.000    0.000 
#
# Total GULP energy -496022.694697 kJ/mol
# GULP energy per Si atom -12400.567367 kJ/mol
# Density = 1.906086 g / cm^3
# Si number density = 19.104347 Si / 1000 Ang^3
#
#
#
# Elastic Constant Matrix: (Units=GPa)
#
#
# Indices 1 2 3 4 5 6 
#
# 1 134.5283 42.5248 70.8182 0.0000 0.0000 0.0000
# 2 42.5248 68.7765 48.1679 0.0000 0.0000 0.0000
# 3 70.8182 48.1679 130.6527 0.0000 0.0000 0.0000
# 4 0.0000 0.0000 0.0000 27.6713 0.0000 0.0000
# 5 0.0000 0.0000 0.0000 0.0000 14.7715 0.0000
# 6 0.0000 0.0000 0.0000 0.0000 0.0000 18.0826
#
#
#
# Elastic Compliance Matrix: (Units=1/GPa)
#
#
# Indices 1 2 3 4 5 6 
#
# 1 0.011006 -0.003541 -0.004660 0.000000 0.000000 0.000000
# 2 -0.003541 0.020740 -0.005727 0.000000 0.000000 0.000000
# 3 -0.004660 -0.005727 0.012291 0.000000 0.000000 0.000000
# 4 0.000000 0.000000 0.000000 0.036139 0.000000 0.000000
# 5 0.000000 0.000000 0.000000 0.000000 0.067698 0.000000
# 6 0.000000 0.000000 0.000000 0.000000 0.000000 0.055302
#
#
# Mechanical properties :
#
#
# Convention : Reuss Voigt Hill
#
# Bulk Modulus (GPa) = 61.80108 72.99772 67.39940
# Shear Modulus (GPa) = 21.14830 23.60151 22.37490
#
# Velocity S-wave (km/s) = 3.33075 3.51864 3.42598
# Velocity P-wave (km/s) = 6.87105 7.40275 7.14185
#
# Compressibility (1/GPa) = 0.01618095
#
# Stress axis : x y z
#
# Youngs Moduli (GPa) = 90.86018 48.21537 81.36002
#
# Poissons Ratio (x) = 0.17075 0.37914
# Poissons Ratio (y) = 0.32177 0.46593
# Poissons Ratio (z) = 0.42341 0.27612
#
# Static dielectric constant tensor:
#      x y z
#    x 3.489810 0.000000 0.000000 
#    y 0.000000 3.389080 0.000000 
#    z 0.000000 0.000000 3.597240 
# 
# 
# High freq. dielectric constant tensor:
#      x y z
#    x 1.729640 0.000000 0.000000 
#    y 0.000000 1.735290 0.000000 
#    z 0.000000 0.000000 1.745430 
# 
# From -- ./inp_files/67558.got.cif
#   From: 2010.03.12/outbox.cif.g09.slc.cpg/sg74_34_cif.got.tgz:67558.got - 2010.04.16 15:46:19.
