data_PCOD8299248
_publ_section_title
;
Structure prediction by ZEFSAII (Michael W. Deem and Ramdas Pophale) SiO2 
 PCOD8299248
Probable space group: I M M A
;
_chemical_formula_sum "Si O2"
_cell_formula_units_Z 88
_cell_length_a 14.516892
_cell_length_b 23.090381
_cell_length_c 12.331362
_cell_angle_alpha 90.000000
_cell_angle_beta 90.000000
_cell_angle_gamma 90.000000
_cell_volume 4133.479537
_symmetry_space_group_name_H-M "I M M A"
_symmetry_group_IT_number 74
_symmetry_cell_setting 'orthorhombic'
loop_
_space_group_symop_operation_xyz
x,y,z
-x,1/2-y,z
x,-y,-z
-x,1/2+y,-z
-x,-y,-z
x,1/2+y,-z
-x,y,z
x,1/2-y,z
1/2+x,1/2+y,1/2+z
1/2-x,-y,1/2+z
1/2+x,1/2-y,1/2-z
1/2-x,y,1/2-z
1/2-x,1/2-y,1/2-z
1/2+x,y,1/2-z
1/2-x,1/2+y,1/2+z
1/2+x,-y,1/2+z
loop_
_atom_site_type_symbol
_atom_site_label
_atom_site_fract_x
_atom_site_fract_y
_atom_site_fract_z
Si Si1 0.357819 0.750000 0.242112
Si Si2 0.398779 0.476659 0.808809
Si Si3 0.104608 0.644369 0.415789
Si Si4 0.398535 0.055635 0.563022
Si Si5 0.219776 0.642319 0.953686
Si Si6 0.250000 0.932819 0.750000
Si Si7 0.104653 0.750000 0.004712
O O1 0.250000 0.750000 0.250000
O O2 0.389554 0.691987 0.179853
O O3 0.396235 0.750000 0.364136
O O4 0.500000 0.498762 0.848718
O O5 0.368489 0.420212 0.876253
O O6 0.407520 0.457027 0.687251
O O7 0.324557 0.528202 0.815172
O O8 0.174934 0.658679 0.514096
O O9 0.000000 0.645256 0.460518
O O10 0.500000 0.073396 0.517074
O O11 0.323938 0.105491 0.551041
O O12 0.360419 0.000000 0.500000
O O13 0.206682 0.608515 0.840783
O O14 0.157231 0.698089 0.947304
O O15 0.000000 0.750000 0.964692
#
# Coordination Sequence:
#
# PCOD8299248 Si02
#       7
#     8  16  16  16  16   8   8
#     4  12  22  43  71 101 129 163 199 251 322 396
#     4  10  22  38  61  96 131 168 214 265 323 383
#     4  11  24  41  64  96 136 171 208 258 320 392
#     4  10  19  35  61  92 124 159 205 262 322 378
#     4  12  25  42  64  92 127 170 220 265 324 376
#     4  12  26  41  64  85 126 178 224 274 312 370
#     4  12  26  44  70 101 128 157 203 268 325 384
#
# _framework density 21.289570000000001
#
# number of rings (size 3 to 8) (size 9 to 14) (size 15 to 20)
#    0.000    0.909    3.636    3.545    1.273    3.273 
#    0.000    1.818    0.000    0.000    0.000    0.000 
#    0.000    0.000    0.000    0.000    0.000    0.000 
#
# Total GULP energy -545455.672292 kJ/mol
# GULP energy per Si atom -12396.719825 kJ/mol
# Density = 2.124111 g / cm^3
# Si number density = 21.289570 Si / 1000 Ang^3
#
#
#
# Elastic Constant Matrix: (Units=GPa)
#
#
# Indices 1 2 3 4 5 6 
#
# 1 151.9564 69.6291 22.0798 0.0001 0.0000 0.0020
# 2 69.6291 125.5414 31.0442 -0.0001 0.0000 0.0004
# 3 22.0798 31.0442 48.2290 -0.0006 0.0001 -0.0025
# 4 0.0001 -0.0001 -0.0006 9.1415 0.0000 -0.0034
# 5 0.0000 0.0000 0.0001 0.0000 19.7470 -0.0012
# 6 0.0020 0.0004 -0.0025 -0.0034 -0.0012 366.6502
#
#
#
# Elastic Compliance Matrix: (Units=1/GPa)
#
#
# Indices 1 2 3 4 5 6 
#
# 1 0.008869 -0.004656 -0.001063 0.000000 0.000000 0.000000
# 2 -0.004656 0.011918 -0.005540 0.000000 0.000000 0.000000
# 3 -0.001063 -0.005540 0.024787 0.000002 0.000000 0.000000
# 4 0.000000 0.000000 0.000002 0.109391 0.000000 0.000001
# 5 0.000000 0.000000 0.000000 0.000000 0.050641 0.000000
# 6 0.000000 0.000000 0.000000 0.000001 0.000000 0.002727
#
#
# Mechanical properties :
#
#
# Convention : Reuss Voigt Hill
#
# Bulk Modulus (GPa) = 43.37327 63.47032 53.42180
# Shear Modulus (GPa) = 20.96127 92.63933 56.80030
#
# Velocity S-wave (km/s) = 3.14120 6.60367 5.17086
# Velocity P-wave (km/s) = 5.79426 9.38201 7.79729
#
# Compressibility (1/GPa) = 0.02305568
#
# Stress axis : x y z
#
# Youngs Moduli (GPa) = 112.75503 83.90872 40.34374
#
# Poissons Ratio (x) = 0.39068 0.04290
# Poissons Ratio (y) = 0.52498 0.22349
# Poissons Ratio (z) = 0.11989 0.46483
#
# Static dielectric constant tensor:
#      x y z
#    x 4.376190 0.000000 0.000020 
#    y 0.000000 1.966850 0.000010 
#    z 0.000020 0.000010 3.376000 
# 
# 
# High freq. dielectric constant tensor:
#      x y z
#    x 1.856620 0.000000 0.000000 
#    y 0.000000 1.838660 0.000000 
#    z 0.000000 0.000000 1.805110 
# 
# From -- ./inp_files/20702.got.cif
#   From: 2010.03.12/outbox.cif.g09.slc.cpg/sg74_11_cif.got.tgz:20702.got - 2010.04.16 15:46:19.
