data_PCOD8299882
_publ_section_title
;
Structure prediction by ZEFSAII (Michael W. Deem and Ramdas Pophale) SiO2 
 PCOD8299882
Probable space group: I M M A
;
_chemical_formula_sum "Si O2"
_cell_formula_units_Z 104
_cell_length_a 25.365773
_cell_length_b 9.152870
_cell_length_c 21.435570
_cell_angle_alpha 90.000000
_cell_angle_beta 90.000000
_cell_angle_gamma 90.000000
_cell_volume 4976.688200
_symmetry_space_group_name_H-M "I M M A"
_symmetry_group_IT_number 74
_symmetry_cell_setting 'orthorhombic'
loop_
_space_group_symop_operation_xyz
x,y,z
-x,1/2-y,z
x,-y,-z
-x,1/2+y,-z
-x,-y,-z
x,1/2+y,-z
-x,y,z
x,1/2-y,z
1/2+x,1/2+y,1/2+z
1/2-x,-y,1/2+z
1/2+x,1/2-y,1/2-z
1/2-x,y,1/2-z
1/2-x,1/2-y,1/2-z
1/2+x,y,1/2-z
1/2-x,1/2+y,1/2+z
1/2+x,-y,1/2+z
loop_
_atom_site_type_symbol
_atom_site_label
_atom_site_fract_x
_atom_site_fract_y
_atom_site_fract_z
Si Si1 0.108928 0.084023 0.371954
Si Si2 0.118623 0.086640 0.939573
Si Si3 0.634940 0.422166 0.749878
Si Si4 0.000000 0.578051 0.565914
Si Si5 0.439042 0.584731 0.657275
Si Si6 0.783274 0.911770 0.152207
Si Si7 0.213224 0.084845 0.437749
O O1 0.105242 0.250000 0.345868
O O2 0.150122 0.077779 0.429355
O O3 0.051799 0.030278 0.395407
O O4 0.132498 0.975337 0.320627
O O5 0.100066 0.250000 0.957164
O O6 0.166805 0.091581 0.892667
O O7 0.070450 0.000804 0.907383
O O8 0.137562 0.000000 0.000000
O O9 0.623997 0.250000 0.745424
O O10 0.589009 0.506061 0.714390
O O11 0.693026 0.457870 0.720203
O O12 0.000000 0.500000 0.500000
O O13 0.000000 0.750000 0.553350
O O14 0.500000 0.584131 0.673551
O O15 0.417591 0.750000 0.650619
O O16 0.757429 0.750000 0.156193
O O17 0.740315 0.022363 0.125034
O O18 0.233005 0.250000 0.446398
O O19 0.230261 0.000000 0.500000
#
# Coordination Sequence:
#
# PCOD8299882 Si02
#       7
#    16  16  16   8  16  16  16
#     4  10  23  41  61  89 122 157 197 243 299 358
#     4  10  20  34  53  78 109 147 193 242 293 351
#     4  10  22  39  60  87 117 152 196 244 293 350
#     4  10  22  42  66  90 122 160 199 246 299 354
#     4  10  21  36  55  78 108 148 190 239 296 352
#     4   9  20  38  58  83 116 154 194 239 292 348
#     4  11  23  38  60  89 120 156 198 245 295 353
#
# _framework density 20.897431000000001
#
# number of rings (size 3 to 8) (size 9 to 14) (size 15 to 20)
#    0.000    2.000    0.000    3.692    1.077    8.923 
#    0.000    3.077    0.000    0.000    0.000    0.000 
#    0.000    0.000    0.000    0.000    0.000    0.000 
#
# Total GULP energy -644835.747338 kJ/mol
# GULP energy per Si atom -12400.687449 kJ/mol
# Density = 2.084987 g / cm^3
# Si number density = 20.897431 Si / 1000 Ang^3
#
#
#
# Elastic Constant Matrix: (Units=GPa)
#
#
# Indices 1 2 3 4 5 6 
#
# 1 93.5628 44.5767 25.4085 0.0000 0.0000 0.0000
# 2 44.5767 138.6859 46.2697 0.0000 0.0000 0.0000
# 3 25.4085 46.2697 85.2421 0.0000 0.0000 0.0000
# 4 0.0000 0.0000 0.0000 38.7992 0.0000 0.0000
# 5 0.0000 0.0000 0.0000 0.0000 22.8178 0.0000
# 6 0.0000 0.0000 0.0000 0.0000 0.0000 25.1939
#
#
#
# Elastic Compliance Matrix: (Units=1/GPa)
#
#
# Indices 1 2 3 4 5 6 
#
# 1 0.012879 -0.003491 -0.001944 0.000000 0.000000 0.000000
# 2 -0.003491 0.009751 -0.004253 0.000000 0.000000 0.000000
# 3 -0.001944 -0.004253 0.014619 0.000000 0.000000 0.000000
# 4 0.000000 0.000000 0.000000 0.025774 0.000000 0.000000
# 5 0.000000 0.000000 0.000000 0.000000 0.043825 0.000000
# 6 0.000000 0.000000 0.000000 0.000000 0.000000 0.039692
#
#
# Mechanical properties :
#
#
# Convention : Reuss Voigt Hill
#
# Bulk Modulus (GPa) = 55.94565 61.11118 58.52842
# Shear Modulus (GPa) = 29.09104 30.77791 29.93448
#
# Velocity S-wave (km/s) = 3.73512 3.84188 3.78887
# Velocity P-wave (km/s) = 6.74026 6.99907 6.87088
#
# Compressibility (1/GPa) = 0.01787449
#
# Stress axis : x y z
#
# Youngs Moduli (GPa) = 77.64453 102.54920 68.40401
#
# Poissons Ratio (x) = 0.35801 0.13298
# Poissons Ratio (y) = 0.27106 0.29089
# Poissons Ratio (z) = 0.15094 0.43609
#
# Static dielectric constant tensor:
#      x y z
#    x 3.743340 0.000000 0.000000 
#    y 0.000000 3.945180 0.000000 
#    z 0.000000 0.000000 3.837650 
# 
# 
# High freq. dielectric constant tensor:
#      x y z
#    x 1.815790 0.000000 0.000000 
#    y 0.000000 1.824140 0.000000 
#    z 0.000000 0.000000 1.817390 
# 
# From -- ./inp_files/55189.got.cif
#   From: 2010.03.12/outbox.cif.g09.slc.cpg/sg74_28_cif.got.tgz:55189.got - 2010.04.16 15:46:19.
