data_PCOD8299112
_publ_section_title
;
Structure prediction by ZEFSAII (Michael W. Deem and Ramdas Pophale) SiO2 
 PCOD8299112
Probable space group: I M M A
;
_chemical_formula_sum "Si O2"
_cell_formula_units_Z 72
_cell_length_a 15.427849
_cell_length_b 16.259715
_cell_length_c 15.431078
_cell_angle_alpha 90.000000
_cell_angle_beta 90.000000
_cell_angle_gamma 90.000000
_cell_volume 3870.923380
_symmetry_space_group_name_H-M "I M M A"
_symmetry_group_IT_number 74
_symmetry_cell_setting 'orthorhombic'
loop_
_space_group_symop_operation_xyz
x,y,z
-x,1/2-y,z
x,-y,-z
-x,1/2+y,-z
-x,-y,-z
x,1/2+y,-z
-x,y,z
x,1/2-y,z
1/2+x,1/2+y,1/2+z
1/2-x,-y,1/2+z
1/2+x,1/2-y,1/2-z
1/2-x,y,1/2-z
1/2-x,1/2-y,1/2-z
1/2+x,y,1/2-z
1/2-x,1/2+y,1/2+z
1/2+x,-y,1/2+z
loop_
_atom_site_type_symbol
_atom_site_label
_atom_site_fract_x
_atom_site_fract_y
_atom_site_fract_z
Si Si1 0.315637 0.000000 0.000000
Si Si2 0.148974 0.750000 0.659342
Si Si3 0.724403 0.389529 0.380183
Si Si4 0.250000 0.529186 0.250000
Si Si5 0.902053 0.750000 0.461933
Si Si6 0.398006 0.406213 0.858196
Si Si7 0.404170 0.750000 0.650271
O O1 0.379739 0.014966 0.918779
O O2 0.255976 0.920585 0.975170
O O3 0.205131 0.832375 0.667371
O O4 0.102755 0.750000 0.566075
O O5 0.089088 0.750000 0.744342
O O6 0.710707 0.472666 0.325879
O O7 0.639193 0.333025 0.387886
O O8 0.332312 0.586024 0.222970
O O9 0.863489 0.830272 0.416093
O O10 0.000000 0.750000 0.434130
O O11 0.500000 0.403299 0.830386
O O12 0.500000 0.750000 0.612418
#
# Coordination Sequence:
#
# PCOD8299112 Si02
#       7
#     8   8  16   8   8  16   8
#     4  10  19  34  57  80 110 146 177 232 282 320
#     4  11  17  35  53  81 111 143 175 216 270 344
#     4  10  19  35  54  78 108 145 186 218 277 334
#     4  10  20  36  52  80 116 148 180 226 280 318
#     4  10  20  34  53  85 112 139 179 226 279 331
#     4  10  21  35  55  83 112 143 187 227 275 336
#     4  11  22  34  53  80 113 151 185 222 266 334
#
# _framework density 18.600214000000001
#
# number of rings (size 3 to 8) (size 9 to 14) (size 15 to 20)
#    0.000    1.778    4.444    1.333    0.000    1.333 
#    0.000    0.556    0.000    1.333    0.000    0.000 
#    0.000    0.000    0.000    0.000    0.000    0.000 
#
# Total GULP energy -445975.658506 kJ/mol
# GULP energy per Si atom -12388.212736 kJ/mol
# Density = 1.855788 g / cm^3
# Si number density = 18.600214 Si / 1000 Ang^3
#
#
#
# Elastic Constant Matrix: (Units=GPa)
#
#
# Indices 1 2 3 4 5 6 
#
# 1 121.5837 39.5319 36.8817 0.0000 0.0000 0.0000
# 2 39.5319 78.7688 26.7860 0.0000 0.0000 0.0000
# 3 36.8817 26.7860 62.5493 0.0000 0.0000 0.0000
# 4 0.0000 0.0000 0.0000 38.0875 0.0000 0.0000
# 5 0.0000 0.0000 0.0000 0.0000 24.9810 0.0000
# 6 0.0000 0.0000 0.0000 0.0000 0.0000 -26.3181
#
#
#
# Elastic Compliance Matrix: (Units=1/GPa)
#
#
# Indices 1 2 3 4 5 6 
#
# 1 0.010933 -0.003856 -0.004795 0.000000 0.000000 0.000000
# 2 -0.003856 0.016220 -0.004672 0.000000 0.000000 0.000000
# 3 -0.004795 -0.004672 0.020816 0.000000 0.000000 0.000000
# 4 0.000000 0.000000 0.000000 0.026255 0.000000 0.000000
# 5 0.000000 0.000000 0.000000 0.000000 0.040030 0.000000
# 6 0.000000 0.000000 0.000000 0.000000 0.000000 -0.037997
#
#
# Mechanical properties :
#
#
# Convention : Reuss Voigt Hill
#
# Bulk Modulus (GPa) = 46.90170 52.14455 49.52312
# Shear Modulus (GPa) = 45.44971 17.99690 31.72331
#
# Velocity S-wave (km/s) = 4.94854 3.11394 4.13429
# Velocity P-wave (km/s) = 7.61060 6.40501 7.03368
#
# Compressibility (1/GPa) = 0.02132119
#
# Stress axis : x y z
#
# Youngs Moduli (GPa) = 91.46376 61.65402 48.04099
#
# Poissons Ratio (x) = 0.23777 0.23037
# Poissons Ratio (y) = 0.35273 0.22444
# Poissons Ratio (z) = 0.43859 0.28804
#
# Static dielectric constant tensor:
#      x y z
#    x 3.227340 0.000000 0.000000 
#    y 0.000000 3.742240 0.000000 
#    z 0.000000 0.000000 3.311080 
# 
# 
# High freq. dielectric constant tensor:
#      x y z
#    x 1.698680 0.000000 0.000000 
#    y 0.000000 1.728960 0.000000 
#    z 0.000000 0.000000 1.703870 
# 
# From -- ./inp_files/31990.got.cif
#   From: 2010.03.12/outbox.cif.g09.slc.cpg/sg74_16_cif.got.tgz:31990.got - 2010.04.16 15:46:19.
