data_PCOD8299246
_publ_section_title
;
Structure prediction by ZEFSAII (Michael W. Deem and Ramdas Pophale) SiO2 
 PCOD8299246
Probable space group: I M M A
;
_chemical_formula_sum "Si O2"
_cell_formula_units_Z 96
_cell_length_a 14.431056
_cell_length_b 14.954201
_cell_length_c 22.691872
_cell_angle_alpha 90.000000
_cell_angle_beta 90.000000
_cell_angle_gamma 90.000000
_cell_volume 4897.017442
_symmetry_space_group_name_H-M "I M M A"
_symmetry_group_IT_number 74
_symmetry_cell_setting 'orthorhombic'
loop_
_space_group_symop_operation_xyz
x,y,z
-x,1/2-y,z
x,-y,-z
-x,1/2+y,-z
-x,-y,-z
x,1/2+y,-z
-x,y,z
x,1/2-y,z
1/2+x,1/2+y,1/2+z
1/2-x,-y,1/2+z
1/2+x,1/2-y,1/2-z
1/2-x,y,1/2-z
1/2-x,1/2-y,1/2-z
1/2+x,y,1/2-z
1/2-x,1/2+y,1/2+z
1/2+x,-y,1/2+z
loop_
_atom_site_type_symbol
_atom_site_label
_atom_site_fract_x
_atom_site_fract_y
_atom_site_fract_z
Si Si1 0.858977 0.148766 0.247343
Si Si2 0.892675 0.853708 0.376170
Si Si3 0.109688 0.847859 0.243297
Si Si4 0.730738 0.498840 0.068166
Si Si5 0.103727 0.352369 0.377767
Si Si6 0.395077 0.499550 0.656964
O O1 0.891725 0.250000 0.235532
O O2 0.750000 0.140326 0.250000
O O3 0.897745 0.114165 0.309986
O O4 0.899015 0.090339 0.194444
O O5 0.880503 0.750000 0.393293
O O6 0.858564 0.871455 0.309405
O O7 0.827995 0.912585 0.417865
O O8 0.000000 0.882484 0.384279
O O9 0.148519 0.750000 0.224936
O O10 0.000000 0.845772 0.242530
O O11 0.147446 0.921079 0.197985
O O12 0.671612 0.411142 0.083101
O O13 0.828960 0.493313 0.101018
O O14 0.755615 0.500000 0.000000
O O15 0.139327 0.250000 0.380179
O O16 0.000000 0.360781 0.403483
O O17 0.500000 0.477854 0.635806
#
# Coordination Sequence:
#
# PCOD8299246 Si02
#       6
#    16  16  16  16  16  16
#     4  10  19  35  61  91 121 146 176 228 295 360
#     4   9  19  37  61  90 120 145 175 225 292 359
#     4   8  16  33  58  88 117 140 170 222 287 351
#     4  12  26  40  55  78 112 156 206 246 274 319
#     4  10  21  38  61  89 119 147 178 228 295 358
#     4  11  23  38  59  84 114 154 195 237 286 337
#
# _framework density 19.603769
#
# number of rings (size 3 to 8) (size 9 to 14) (size 15 to 20)
#    0.000    2.000    1.667    3.000    0.000    5.333 
#    0.000    3.333    0.000    0.000    0.000    4.667 
#    0.000    0.000    0.000    0.000    0.000    0.000 
#
# Total GULP energy -595231.389335 kJ/mol
# GULP energy per Si atom -12400.653944 kJ/mol
# Density = 1.955915 g / cm^3
# Si number density = 19.603769 Si / 1000 Ang^3
#
#
#
# Elastic Constant Matrix: (Units=GPa)
#
#
# Indices 1 2 3 4 5 6 
#
# 1 87.2043 31.0995 40.3258 0.0000 0.0000 0.0000
# 2 31.0995 100.2198 57.8013 0.0000 0.0000 0.0000
# 3 40.3258 57.8013 128.1126 0.0000 0.0000 0.0000
# 4 0.0000 0.0000 0.0000 12.9806 0.0000 0.0000
# 5 0.0000 0.0000 0.0000 0.0000 -17.3202 0.0000
# 6 0.0000 0.0000 0.0000 0.0000 0.0000 20.2330
#
#
#
# Elastic Compliance Matrix: (Units=1/GPa)
#
#
# Indices 1 2 3 4 5 6 
#
# 1 0.013838 -0.002409 -0.003269 0.000000 0.000000 0.000000
# 2 -0.002409 0.013907 -0.005516 0.000000 0.000000 0.000000
# 3 -0.003269 -0.005516 0.011323 0.000000 0.000000 0.000000
# 4 0.000000 0.000000 0.000000 0.077038 0.000000 0.000000
# 5 0.000000 0.000000 0.000000 0.000000 -0.057736 0.000000
# 6 0.000000 0.000000 0.000000 0.000000 0.000000 0.049424
#
#
# Mechanical properties :
#
#
# Convention : Reuss Voigt Hill
#
# Bulk Modulus (GPa) = 59.95067 63.77664 61.86365
# Shear Modulus (GPa) = 36.83424 15.59934 26.21679
#
# Velocity S-wave (km/s) = 4.33937 2.82393 3.66093
# Velocity P-wave (km/s) = 7.46689 6.57543 7.03529
#
# Compressibility (1/GPa) = 0.01668038
#
# Stress axis : x y z
#
# Youngs Moduli (GPa) = 72.26460 71.90604 88.31229
#
# Poissons Ratio (x) = 0.17320 0.28869
# Poissons Ratio (y) = 0.17407 0.48716
# Poissons Ratio (z) = 0.23623 0.39666
#
# Static dielectric constant tensor:
#      x y z
#    x 3.518550 0.000000 0.000000 
#    y 0.000000 4.001460 0.000000 
#    z 0.000000 0.000000 3.282040 
# 
# 
# High freq. dielectric constant tensor:
#      x y z
#    x 1.766870 0.000000 0.000000 
#    y 0.000000 1.776030 0.000000 
#    z 0.000000 0.000000 1.728240 
# 
# From -- ./inp_files/51841.got.cif
#   From: 2010.03.12/outbox.cif.g09.slc.cpg/sg74_26_cif.got.tgz:51841.got - 2010.04.16 15:46:19.
