data_PCOD8299225
_publ_section_title
;
Structure prediction by ZEFSAII (Michael W. Deem and Ramdas Pophale) SiO2 
 PCOD8299225
Probable space group: I M M A
;
_chemical_formula_sum "Si O2"
_cell_formula_units_Z 96
_cell_length_a 14.534235
_cell_length_b 22.125104
_cell_length_c 15.490028
_cell_angle_alpha 90.000000
_cell_angle_beta 90.000000
_cell_angle_gamma 90.000000
_cell_volume 4981.150934
_symmetry_space_group_name_H-M "I M M A"
_symmetry_group_IT_number 74
_symmetry_cell_setting 'orthorhombic'
loop_
_space_group_symop_operation_xyz
x,y,z
-x,1/2-y,z
x,-y,-z
-x,1/2+y,-z
-x,-y,-z
x,1/2+y,-z
-x,y,z
x,1/2-y,z
1/2+x,1/2+y,1/2+z
1/2-x,-y,1/2+z
1/2+x,1/2-y,1/2-z
1/2-x,y,1/2-z
1/2-x,1/2-y,1/2-z
1/2+x,y,1/2-z
1/2-x,1/2+y,1/2+z
1/2+x,-y,1/2+z
loop_
_atom_site_type_symbol
_atom_site_label
_atom_site_fract_x
_atom_site_fract_y
_atom_site_fract_z
Si Si1 0.396990 0.007733 0.598761
Si Si2 0.897793 0.250000 0.561299
Si Si3 0.357781 0.250000 0.740726
Si Si4 0.266741 0.433118 0.158064
Si Si5 0.396320 0.029932 0.907627
Si Si6 0.714794 0.136173 0.984394
Si Si7 0.898387 0.853977 0.109089
O O1 0.500000 0.981909 0.606979
O O2 0.329496 0.967490 0.652906
O O3 0.362765 0.000000 0.500000
O O4 0.391642 0.075852 0.635222
O O5 0.900710 0.250000 0.664863
O O6 0.851077 0.192419 0.519987
O O7 0.000000 0.250000 0.525542
O O8 0.250000 0.250000 0.750000
O O9 0.388826 0.310811 0.691981
O O10 0.250000 0.399924 0.250000
O O11 0.350446 0.481924 0.158014
O O12 0.282503 0.384898 0.083124
O O13 0.500000 0.048180 0.875123
O O14 0.326645 0.086563 0.917840
O O15 0.406298 0.000000 0.000000
O O16 0.817010 0.158522 0.958512
O O17 0.000000 0.842180 0.067471
#
# Coordination Sequence:
#
# PCOD8299225 Si02
#       7
#    16   8   8  16  16  16  16
#     4  10  19  35  59  85 117 161 203 240 298 367
#     4  12  26  43  65  85 118 162 203 246 302 371
#     4  12  24  41  61  94 126 153 194 252 303 357
#     4  11  22  36  58  88 122 155 201 257 303 351
#     4   9  18  35  58  82 115 156 201 248 297 355
#     4  11  21  40  61  86 116 165 206 246 296 363
#     4  11  21  36  61  88 124 162 197 244 298 361
#
# _framework density 19.272655
#
# number of rings (size 3 to 8) (size 9 to 14) (size 15 to 20)
#    0.000    1.333    5.000    1.750    0.000    3.333 
#    0.000    2.083    0.000    0.000    0.000    0.000 
#    0.000    0.000    0.000    0.000    0.000    0.000 
#
# Total GULP energy -594913.147067 kJ/mol
# GULP energy per Si atom -12394.023897 kJ/mol
# Density = 1.922879 g / cm^3
# Si number density = 19.272655 Si / 1000 Ang^3
#
#
#
# Elastic Constant Matrix: (Units=GPa)
#
#
# Indices 1 2 3 4 5 6 
#
# 1 160.2533 40.7281 44.2629 -0.0001 0.0000 0.0000
# 2 40.7281 110.0917 52.9158 -0.0004 0.0000 -0.0001
# 3 44.2629 52.9158 107.8382 -0.0007 0.0000 -0.0001
# 4 -0.0001 -0.0004 -0.0007 25.7814 0.0000 -0.0001
# 5 0.0000 0.0000 0.0000 0.0000 17.4903 0.0000
# 6 0.0000 -0.0001 -0.0001 -0.0001 0.0000 25.3650
#
#
#
# Elastic Compliance Matrix: (Units=1/GPa)
#
#
# Indices 1 2 3 4 5 6 
#
# 1 0.007257 -0.001640 -0.002174 0.000000 0.000000 0.000000
# 2 -0.001640 0.012257 -0.005342 0.000000 0.000000 0.000000
# 3 -0.002174 -0.005342 0.012787 0.000000 0.000000 0.000000
# 4 0.000000 0.000000 0.000000 0.038788 0.000000 0.000000
# 5 0.000000 0.000000 0.000000 0.000000 0.057174 0.000000
# 6 0.000000 0.000000 0.000000 0.000000 0.000000 0.039424
#
#
# Mechanical properties :
#
#
# Convention : Reuss Voigt Hill
#
# Bulk Modulus (GPa) = 71.47824 72.66630 72.07227
# Shear Modulus (GPa) = 26.22434 29.74578 27.98506
#
# Velocity S-wave (km/s) = 3.69277 3.93290 3.81473
# Velocity P-wave (km/s) = 7.43979 7.64263 7.54189
#
# Compressibility (1/GPa) = 0.01399027
#
# Stress axis : x y z
#
# Youngs Moduli (GPa) = 137.79034 81.58319 78.20654
#
# Poissons Ratio (x) = 0.13378 0.17004
# Poissons Ratio (y) = 0.22595 0.41775
# Poissons Ratio (z) = 0.29958 0.43578
#
# Static dielectric constant tensor:
#      x y z
#    x 4.015460 0.000000 0.000000 
#    y 0.000000 4.672410 -0.000020 
#    z 0.000000 -0.000020 3.457900 
# 
# 
# High freq. dielectric constant tensor:
#      x y z
#    x 1.781330 0.000000 0.000000 
#    y 0.000000 1.732410 0.000000 
#    z 0.000000 0.000000 1.720570 
# 
# From -- ./inp_files/32468.got.cif
#   From: 2010.03.12/outbox.cif.g09.slc.cpg/sg74_17_cif.got.tgz:32468.got - 2010.04.16 15:46:19.
