data_PCOD8299528
_publ_section_title
;
Structure prediction by ZEFSAII (Michael W. Deem and Ramdas Pophale) SiO2 
 PCOD8299528
Probable space group: I M M A
;
_chemical_formula_sum "Si O2"
_cell_formula_units_Z 112
_cell_length_a 18.104879
_cell_length_b 21.870164
_cell_length_c 14.837313
_cell_angle_alpha 90.000000
_cell_angle_beta 90.000000
_cell_angle_gamma 90.000000
_cell_volume 5874.933091
_symmetry_space_group_name_H-M "I M M A"
_symmetry_group_IT_number 74
_symmetry_cell_setting 'orthorhombic'
loop_
_space_group_symop_operation_xyz
x,y,z
-x,1/2-y,z
x,-y,-z
-x,1/2+y,-z
-x,-y,-z
x,1/2+y,-z
-x,y,z
x,1/2-y,z
1/2+x,1/2+y,1/2+z
1/2-x,-y,1/2+z
1/2+x,1/2-y,1/2-z
1/2-x,y,1/2-z
1/2-x,1/2-y,1/2-z
1/2+x,y,1/2-z
1/2-x,1/2+y,1/2+z
1/2+x,-y,1/2+z
loop_
_atom_site_type_symbol
_atom_site_label
_atom_site_fract_x
_atom_site_fract_y
_atom_site_fract_z
Si Si1 0.914872 0.680292 0.924643
Si Si2 0.585260 0.494383 0.396065
Si Si3 0.172335 0.820165 0.269316
Si Si4 0.912290 0.819021 0.632371
Si Si5 0.083032 0.131400 0.886805
Si Si6 0.418800 0.678281 0.068079
Si Si7 0.164795 0.390754 0.218905
O O1 0.905329 0.750000 0.953644
O O2 0.854728 0.665464 0.847659
O O3 0.000000 0.667791 0.892413
O O4 0.892491 0.637923 0.009088
O O5 0.612492 0.500000 0.500000
O O6 0.500000 0.470659 0.394724
O O7 0.591718 0.561758 0.353719
O O8 0.635805 0.451501 0.332489
O O9 0.186660 0.750000 0.294637
O O10 0.250000 0.853771 0.250000
O O11 0.126480 0.823779 0.178052
O O12 0.132676 0.852187 0.354964
O O13 0.886570 0.750000 0.661499
O O14 0.884848 0.832970 0.530724
O O15 0.879639 0.874209 0.690830
O O16 0.000000 0.821303 0.636529
O O17 0.000000 0.154757 0.880699
O O18 0.500000 0.648068 0.076057
O O19 0.426614 0.750000 0.086493
O O20 0.250000 0.396298 0.250000
#
# Coordination Sequence:
#
# PCOD8299528 Si02
#       7
#    16  16  16  16  16  16  16
#     4  10  20  35  57  87 121 153 189 236 288 343
#     4  10  20  40  65  81 103 146 201 245 280 332
#     4  10  20  32  49  79 117 150 179 221 287 351
#     4   9  18  34  56  80 110 152 196 231 268 326
#     4  10  20  35  60  86 106 141 192 250 295 329
#     4   8  15  30  51  71  97 141 189 223 254 310
#     4  12  24  35  54  85 119 151 184 228 289 344
#
# _framework density 19.064046999999999
#
# number of rings (size 3 to 8) (size 9 to 14) (size 15 to 20)
#    0.000    2.143    1.429    3.429    0.000    5.429 
#    0.000    1.429    0.000    0.000    0.000    4.000 
#    0.000    0.000    0.000    0.000    0.000    0.000 
#
# Total GULP energy -693910.655374 kJ/mol
# GULP energy per Si atom -12391.261703 kJ/mol
# Density = 1.902066 g / cm^3
# Si number density = 19.064047 Si / 1000 Ang^3
#
#
#
# Elastic Constant Matrix: (Units=GPa)
#
#
# Indices 1 2 3 4 5 6 
#
# 1 90.8851 35.1464 80.3198 0.0000 0.0000 0.0000
# 2 35.1464 61.8441 26.3502 0.0000 0.0000 0.0000
# 3 80.3198 26.3502 131.3770 0.0000 0.0000 0.0000
# 4 0.0000 0.0000 0.0000 26.5720 0.0000 0.0000
# 5 0.0000 0.0000 0.0000 0.0000 -0.5069 0.0000
# 6 0.0000 0.0000 0.0000 0.0000 0.0000 15.4893
#
#
#
# Elastic Compliance Matrix: (Units=1/GPa)
#
#
# Indices 1 2 3 4 5 6 
#
# 1 0.028270 -0.009515 -0.015375 0.000000 0.000000 0.000000
# 2 -0.009515 0.020883 0.001629 0.000000 0.000000 0.000000
# 3 -0.015375 0.001629 0.016685 0.000000 0.000000 0.000000
# 4 0.000000 0.000000 0.000000 0.037634 0.000000 0.000000
# 5 0.000000 0.000000 0.000000 0.000000 -1.972852 0.000000
# 6 0.000000 0.000000 0.000000 0.000000 0.000000 0.064561
#
#
# Mechanical properties :
#
#
# Convention : Reuss Voigt Hill
#
# Bulk Modulus (GPa) = 51.77247 63.08210 57.42728
# Shear Modulus (GPa) = -2.85411 17.79689 7.47139
#
# Velocity S-wave (km/s) = -1.22490 3.05869 1.98182
# Velocity P-wave (km/s) = 5.02151 6.75541 5.95194
#
# Compressibility (1/GPa) = 0.01931529
#
# Stress axis : x y z
#
# Youngs Moduli (GPa) = 35.37276 47.88520 59.93459
#
# Poissons Ratio (x) = 0.45564 0.92150
# Poissons Ratio (y) = 0.33658 -0.09762
# Poissons Ratio (z) = 0.54386 -0.07799
#
# Static dielectric constant tensor:
#      x y z
#    x 3.548170 0.000000 0.000000 
#    y 0.000000 3.277540 0.000000 
#    z 0.000000 0.000000 3.685330 
# 
# 
# High freq. dielectric constant tensor:
#      x y z
#    x 1.722990 0.000000 0.000000 
#    y 0.000000 1.712050 0.000000 
#    z 0.000000 0.000000 1.750990 
# 
# From -- ./inp_files/32748.got.cif
#   From: 2010.03.12/outbox.cif.g09.slc.cpg/sg74_17_cif.got.tgz:32748.got - 2010.04.16 15:46:19.
