data_PCOD8299733
_publ_section_title
;
Structure prediction by ZEFSAII (Michael W. Deem and Ramdas Pophale) SiO2 
 PCOD8299733
Probable space group: I M M A
;
_chemical_formula_sum "Si O2"
_cell_formula_units_Z 120
_cell_length_a 26.903678
_cell_length_b 8.876392
_cell_length_c 27.898356
_cell_angle_alpha 90.000000
_cell_angle_beta 90.000000
_cell_angle_gamma 90.000000
_cell_volume 6662.339222
_symmetry_space_group_name_H-M "I M M A"
_symmetry_group_IT_number 74
_symmetry_cell_setting 'orthorhombic'
loop_
_space_group_symop_operation_xyz
x,y,z
-x,1/2-y,z
x,-y,-z
-x,1/2+y,-z
-x,-y,-z
x,1/2+y,-z
-x,y,z
x,1/2-y,z
1/2+x,1/2+y,1/2+z
1/2-x,-y,1/2+z
1/2+x,1/2-y,1/2-z
1/2-x,y,1/2-z
1/2-x,1/2-y,1/2-z
1/2+x,y,1/2-z
1/2-x,1/2+y,1/2+z
1/2+x,-y,1/2+z
loop_
_atom_site_type_symbol
_atom_site_label
_atom_site_fract_x
_atom_site_fract_y
_atom_site_fract_z
Si Si1 0.556664 0.923790 0.641484
Si Si2 0.142020 0.073949 0.806242
Si Si3 0.616944 0.425218 0.452096
Si Si4 0.296009 0.928323 0.398458
Si Si5 0.306532 0.929036 0.883469
Si Si6 0.300613 0.427975 0.226286
Si Si7 0.391466 0.071556 0.947250
Si Si8 0.000000 0.576827 0.449944
O O1 0.500000 0.975574 0.644666
O O2 0.563765 0.750000 0.655700
O O3 0.575232 0.952897 0.587754
O O4 0.586997 0.024918 0.678644
O O5 0.143178 0.250000 0.797931
O O6 0.181824 0.023928 0.846712
O O7 0.153674 0.993252 0.756340
O O8 0.595260 0.500000 0.500000
O O9 0.628397 0.250000 0.459512
O O10 0.667934 0.509961 0.439416
O O11 0.290699 0.750000 0.403279
O O12 0.243267 0.006540 0.407257
O O13 0.307289 0.750000 0.888302
O O14 0.306954 0.982426 0.828205
O O15 0.353633 0.997663 0.910249
O O16 0.301512 0.250000 0.229624
O O17 0.250000 0.492240 0.250000
O O18 0.381597 0.250000 0.951005
O O19 0.447027 0.036319 0.924901
O O20 0.384906 0.000000 0.000000
O O21 0.000000 0.500000 0.500000
O O22 0.000000 0.750000 0.462056
#
# Coordination Sequence:
#
# PCOD8299733 Si02
#       8
#    16  16  16  16  16  16  16   8
#     4   9  19  36  57  78 103 140 183 225 272 329
#     4  10  20  33  54  81 107 135 174 223 273 321
#     4  10  20  34  52  75 105 140 180 224 273 325
#     4  10  20  34  51  74 104 139 176 216 266 322
#     4  11  22  35  54  82 112 142 180 221 263 313
#     4  10  20  35  56  80 108 144 181 217 262 317
#     4  10  20  36  57  82 111 142 178 217 262 312
#     4   8  16  32  56  80 102 134 172 210 252 304
#
# _framework density 18.011692
#
# number of rings (size 3 to 8) (size 9 to 14) (size 15 to 20)
#    0.000    2.133    1.333    2.000    0.000    4.533 
#    0.000    2.667    1.467    0.000    0.000    0.000 
#    0.000    0.000    0.000    0.000    0.000    0.000 
#
# Total GULP energy -743940.581051 kJ/mol
# GULP energy per Si atom -12399.009684 kJ/mol
# Density = 1.797070 g / cm^3
# Si number density = 18.011692 Si / 1000 Ang^3
#
#
#
# Elastic Constant Matrix: (Units=GPa)
#
#
# Indices 1 2 3 4 5 6 
#
# 1 131.2235 33.4141 42.6806 0.0000 0.0000 0.0000
# 2 33.4141 50.1684 29.0746 0.0000 0.0000 0.0000
# 3 42.6806 29.0746 80.4100 0.0000 0.0000 0.0000
# 4 0.0000 0.0000 0.0000 30.2497 0.0000 0.0000
# 5 0.0000 0.0000 0.0000 0.0000 20.0140 0.0000
# 6 0.0000 0.0000 0.0000 0.0000 0.0000 27.7696
#
#
#
# Elastic Compliance Matrix: (Units=1/GPa)
#
#
# Indices 1 2 3 4 5 6 
#
# 1 0.009959 -0.004516 -0.003653 0.000000 0.000000 0.000000
# 2 -0.004516 0.027265 -0.007461 0.000000 0.000000 0.000000
# 3 -0.003653 -0.007461 0.017073 0.000000 0.000000 0.000000
# 4 0.000000 0.000000 0.000000 0.033058 0.000000 0.000000
# 5 0.000000 0.000000 0.000000 0.000000 0.049965 0.000000
# 6 0.000000 0.000000 0.000000 0.000000 0.000000 0.036011
#
#
# Mechanical properties :
#
#
# Convention : Reuss Voigt Hill
#
# Bulk Modulus (GPa) = 43.41041 52.46005 47.93523
# Shear Modulus (GPa) = 23.55495 26.04884 24.80190
#
# Velocity S-wave (km/s) = 3.62022 3.80704 3.71481
# Velocity P-wave (km/s) = 6.45199 6.96517 6.71348
#
# Compressibility (1/GPa) = 0.02303595
#
# Stress axis : x y z
#
# Youngs Moduli (GPa) = 100.41547 36.67740 58.57130
#
# Poissons Ratio (x) = 0.16562 0.21397
# Poissons Ratio (y) = 0.45345 0.43703
# Poissons Ratio (z) = 0.36683 0.27367
#
# Static dielectric constant tensor:
#      x y z
#    x 3.680770 0.000000 0.000000 
#    y 0.000000 3.327930 0.000000 
#    z 0.000000 0.000000 3.220970 
# 
# 
# High freq. dielectric constant tensor:
#      x y z
#    x 1.698990 0.000000 0.000000 
#    y 0.000000 1.706940 0.000000 
#    z 0.000000 0.000000 1.680190 
# 
# From -- ./inp_files/69015.got.cif
#   From: 2010.03.12/outbox.cif.g09.slc.cpg/sg74_35_cif.got.tgz:69015.got - 2010.04.16 15:46:19.
