data_PCOD8299258
_publ_section_title
;
Structure prediction by ZEFSAII (Michael W. Deem and Ramdas Pophale) SiO2 
 PCOD8299258
Probable space group: I M M A
;
_chemical_formula_sum "Si O2"
_cell_formula_units_Z 96
_cell_length_a 8.871267
_cell_length_b 25.339325
_cell_length_c 23.683736
_cell_angle_alpha 90.000000
_cell_angle_beta 90.000000
_cell_angle_gamma 90.000000
_cell_volume 5323.912433
_symmetry_space_group_name_H-M "I M M A"
_symmetry_group_IT_number 74
_symmetry_cell_setting 'orthorhombic'
loop_
_space_group_symop_operation_xyz
x,y,z
-x,1/2-y,z
x,-y,-z
-x,1/2+y,-z
-x,-y,-z
x,1/2+y,-z
-x,y,z
x,1/2-y,z
1/2+x,1/2+y,1/2+z
1/2-x,-y,1/2+z
1/2+x,1/2-y,1/2-z
1/2-x,y,1/2-z
1/2-x,1/2-y,1/2-z
1/2+x,y,1/2-z
1/2-x,1/2+y,1/2+z
1/2+x,-y,1/2+z
loop_
_atom_site_type_symbol
_atom_site_label
_atom_site_fract_x
_atom_site_fract_y
_atom_site_fract_z
Si Si1 0.675870 0.190983 0.807675
Si Si2 0.323330 0.906616 0.119000
Si Si3 0.677982 0.809378 0.691251
Si Si4 0.179014 0.998444 0.188959
Si Si5 0.676957 0.061704 0.505166
Si Si6 0.178485 0.096198 0.116005
O O1 0.500000 0.191474 0.795941
O O2 0.734409 0.250000 0.822880
O O3 0.750000 0.169976 0.750000
O O4 0.715242 0.152333 0.859511
O O5 0.500000 0.919276 0.123892
O O6 0.270962 0.911327 0.054678
O O7 0.230166 0.945952 0.157851
O O8 0.500000 0.813197 0.698611
O O9 0.729028 0.750000 0.675397
O O10 0.750000 0.827710 0.750000
O O11 0.735580 0.848286 0.641855
O O12 0.250000 0.001534 0.250000
O O13 0.241056 0.048218 0.153561
O O14 0.000000 0.998494 0.194049
O O15 0.500000 0.069948 0.516656
O O16 0.734007 0.090535 0.448263
O O17 0.714546 0.000000 0.500000
O O18 0.000000 0.092955 0.116479
#
# Coordination Sequence:
#
# PCOD8299258 Si02
#       6
#    16  16  16  16  16  16
#     4   9  19  36  56  77 104 137 171 210 260 313
#     4  11  22  35  53  79 106 135 174 218 261 308
#     4   9  17  31  52  76 102 132 167 209 254 303
#     4  11  21  34  51  75 106 137 169 210 262 315
#     4  10  19  36  56  73 100 143 179 211 258 311
#     4   9  18  33  52  73 100 135 173 208 255 308
#
# _framework density 18.031852000000001
#
# number of rings (size 3 to 8) (size 9 to 14) (size 15 to 20)
#    0.000    2.167    1.667    2.000    0.000    3.000 
#    0.000    2.500    0.000    1.000    0.000    0.000 
#    0.000    0.000    0.000    0.000    0.000    0.000 
#
# Total GULP energy -595209.738088 kJ/mol
# GULP energy per Si atom -12400.202877 kJ/mol
# Density = 1.799081 g / cm^3
# Si number density = 18.031852 Si / 1000 Ang^3
#
#
#
# Elastic Constant Matrix: (Units=GPa)
#
#
# Indices 1 2 3 4 5 6 
#
# 1 36.1395 35.5034 44.1349 0.0000 0.0000 0.0000
# 2 35.5034 113.0182 71.4838 0.0000 0.0000 0.0000
# 3 44.1349 71.4838 147.9439 0.0000 0.0000 0.0000
# 4 0.0000 0.0000 0.0000 30.7782 0.0000 0.0000
# 5 0.0000 0.0000 0.0000 0.0000 33.1575 0.0000
# 6 0.0000 0.0000 0.0000 0.0000 0.0000 20.1040
#
#
#
# Elastic Compliance Matrix: (Units=1/GPa)
#
#
# Indices 1 2 3 4 5 6 
#
# 1 0.048992 -0.008851 -0.010339 0.000000 0.000000 0.000000
# 2 -0.008851 0.014341 -0.004289 0.000000 0.000000 0.000000
# 3 -0.010339 -0.004289 0.011916 0.000000 0.000000 0.000000
# 4 0.000000 0.000000 0.000000 0.032491 0.000000 0.000000
# 5 0.000000 0.000000 0.000000 0.000000 0.030159 0.000000
# 6 0.000000 0.000000 0.000000 0.000000 0.000000 0.049741
#
#
# Mechanical properties :
#
#
# Convention : Reuss Voigt Hill
#
# Bulk Modulus (GPa) = 35.34616 66.59399 50.97007
# Shear Modulus (GPa) = 20.48945 26.53990 23.51468
#
# Velocity S-wave (km/s) = 3.37455 3.84061 3.61510
# Velocity P-wave (km/s) = 5.90153 7.52852 6.76412
#
# Compressibility (1/GPa) = 0.02829162
#
# Stress axis : x y z
#
# Youngs Moduli (GPa) = 20.41162 69.72826 83.92115
#
# Poissons Ratio (x) = 0.61717 0.86763
# Poissons Ratio (y) = 0.18066 0.35994
# Poissons Ratio (z) = 0.21103 0.29907
#
# Static dielectric constant tensor:
#      x y z
#    x 3.178250 0.000000 0.000000 
#    y 0.000000 3.620970 0.000000 
#    z 0.000000 0.000000 3.619800 
# 
# 
# High freq. dielectric constant tensor:
#      x y z
#    x 1.683420 0.000000 0.000000 
#    y 0.000000 1.701720 0.000000 
#    z 0.000000 0.000000 1.701140 
# 
# From -- ./inp_files/49163.got.cif
#   From: 2010.03.12/outbox.cif.g09.slc.cpg/sg74_25_cif.got.tgz:49163.got - 2010.04.16 15:46:19.
