data_PCOD8299620
_publ_section_title
;
Structure prediction by ZEFSAII (Michael W. Deem and Ramdas Pophale) SiO2 
 PCOD8299620
Probable space group: I M M A
;
_chemical_formula_sum "Si O2"
_cell_formula_units_Z 96
_cell_length_a 18.589338
_cell_length_b 15.036046
_cell_length_c 18.698591
_cell_angle_alpha 90.000000
_cell_angle_beta 90.000000
_cell_angle_gamma 90.000000
_cell_volume 5226.445812
_symmetry_space_group_name_H-M "I M M A"
_symmetry_group_IT_number 74
_symmetry_cell_setting 'orthorhombic'
loop_
_space_group_symop_operation_xyz
x,y,z
-x,1/2-y,z
x,-y,-z
-x,1/2+y,-z
-x,-y,-z
x,1/2+y,-z
-x,y,z
x,1/2-y,z
1/2+x,1/2+y,1/2+z
1/2-x,-y,1/2+z
1/2+x,1/2-y,1/2-z
1/2-x,y,1/2-z
1/2-x,1/2-y,1/2-z
1/2+x,y,1/2-z
1/2-x,1/2+y,1/2+z
1/2+x,-y,1/2+z
loop_
_atom_site_type_symbol
_atom_site_label
_atom_site_fract_x
_atom_site_fract_y
_atom_site_fract_z
Si Si1 0.921178 0.403443 0.465572
Si Si2 0.836335 0.646086 0.085047
Si Si3 0.916423 0.148717 0.059506
Si Si4 0.828584 0.150922 0.589150
Si Si5 0.583771 0.995945 0.167645
Si Si6 0.416234 0.498573 0.669711
O O1 0.925643 0.500000 0.500000
O O2 0.863417 0.346677 0.509553
O O3 0.897761 0.418595 0.382640
O O4 0.000000 0.357289 0.469410
O O5 0.847846 0.750000 0.102424
O O6 0.753125 0.618855 0.081029
O O7 0.873060 0.589246 0.147420
O O8 0.871919 0.620140 0.009852
O O9 0.899179 0.250000 0.082505
O O10 0.000000 0.137160 0.040369
O O11 0.892946 0.084390 0.123867
O O12 0.831390 0.250000 0.620990
O O13 0.870230 0.089331 0.644701
O O14 0.500000 0.970415 0.158422
O O15 0.602804 0.021731 0.248492
O O16 0.500000 0.477428 0.659923
#
# Coordination Sequence:
#
# PCOD8299620 Si02
#       6
#    16  16  16  16  16  16
#     4   8  15  30  50  69  91 122 160 201 244 290
#     4  10  21  34  49  74 105 134 170 213 248 289
#     4   9  18  34  55  77 101 129 165 210 253 296
#     4  10  20  33  50  73 100 131 168 208 250 295
#     4   9  19  34  50  72 102 131 163 205 250 300
#     4  10  20  34  53  76 102 135 169 201 250 307
#
# _framework density 18.368123000000001
#
# number of rings (size 3 to 8) (size 9 to 14) (size 15 to 20)
#    0.000    2.667    0.000    2.500    0.000    9.000 
#    0.000    4.167    0.000    3.000    0.000    5.833 
#    0.000    0.000    0.000    0.000    0.000    0.000 
#
# Total GULP energy -595119.513612 kJ/mol
# GULP energy per Si atom -12398.323200 kJ/mol
# Density = 1.832632 g / cm^3
# Si number density = 18.368123 Si / 1000 Ang^3
#
#
#
# Elastic Constant Matrix: (Units=GPa)
#
#
# Indices 1 2 3 4 5 6 
#
# 1 71.9888 23.7602 35.7578 0.0000 0.0000 0.0000
# 2 23.7602 47.0086 25.9634 0.0000 0.0000 0.0000
# 3 35.7578 25.9634 114.9942 0.0000 0.0000 0.0000
# 4 0.0000 0.0000 0.0000 21.1566 0.0000 0.0000
# 5 0.0000 0.0000 0.0000 0.0000 5.6363 0.0000
# 6 0.0000 0.0000 0.0000 0.0000 0.0000 20.5376
#
#
#
# Elastic Compliance Matrix: (Units=1/GPa)
#
#
# Indices 1 2 3 4 5 6 
#
# 1 0.018218 -0.006946 -0.004097 0.000000 0.000000 0.000000
# 2 -0.006946 0.026951 -0.003925 0.000000 0.000000 0.000000
# 3 -0.004097 -0.003925 0.010856 0.000000 0.000000 0.000000
# 4 0.000000 0.000000 0.000000 0.047266 0.000000 0.000000
# 5 0.000000 0.000000 0.000000 0.000000 0.177422 0.000000
# 6 0.000000 0.000000 0.000000 0.000000 0.000000 0.048691
#
#
# Mechanical properties :
#
#
# Convention : Reuss Voigt Hill
#
# Bulk Modulus (GPa) = 38.32829 44.99494 41.66161
# Shear Modulus (GPa) = 13.58556 19.36678 16.47617
#
# Velocity S-wave (km/s) = 2.72256 3.25063 2.99824
# Velocity P-wave (km/s) = 5.54934 6.21596 5.89208
#
# Compressibility (1/GPa) = 0.02609039
#
# Stress axis : x y z
#
# Youngs Moduli (GPa) = 54.88931 37.10392 92.11249
#
# Poissons Ratio (x) = 0.25771 0.37738
# Poissons Ratio (y) = 0.38124 0.36157
# Poissons Ratio (z) = 0.22488 0.14564
#
# Static dielectric constant tensor:
#      x y z
#    x 3.413970 0.000000 0.000000 
#    y 0.000000 3.267740 0.000000 
#    z 0.000000 0.000000 3.612270 
# 
# 
# High freq. dielectric constant tensor:
#      x y z
#    x 1.710190 0.000000 0.000000 
#    y 0.000000 1.698230 0.000000 
#    z 0.000000 0.000000 1.708530 
# 
# From -- ./inp_files/44118.got.cif
#   From: 2010.03.12/outbox.cif.g09.slc.cpg/sg74_23_cif.got.tgz:44118.got - 2010.04.16 15:46:19.
