data_PCOD8299172
_publ_section_title
;
Structure prediction by ZEFSAII (Michael W. Deem and Ramdas Pophale) SiO2 
 PCOD8299172
Probable space group: I M M A
;
_chemical_formula_sum "Si O2"
_cell_formula_units_Z 80
_cell_length_a 17.830996
_cell_length_b 17.712955
_cell_length_c 14.312528
_cell_angle_alpha 90.000000
_cell_angle_beta 90.000000
_cell_angle_gamma 90.000000
_cell_volume 4520.463544
_symmetry_space_group_name_H-M "I M M A"
_symmetry_group_IT_number 74
_symmetry_cell_setting 'orthorhombic'
loop_
_space_group_symop_operation_xyz
x,y,z
-x,1/2-y,z
x,-y,-z
-x,1/2+y,-z
-x,-y,-z
x,1/2+y,-z
-x,y,z
x,1/2-y,z
1/2+x,1/2+y,1/2+z
1/2-x,-y,1/2+z
1/2+x,1/2-y,1/2-z
1/2-x,y,1/2-z
1/2-x,1/2-y,1/2-z
1/2+x,y,1/2-z
1/2-x,1/2+y,1/2+z
1/2+x,-y,1/2+z
loop_
_atom_site_type_symbol
_atom_site_label
_atom_site_fract_x
_atom_site_fract_y
_atom_site_fract_z
Si Si1 0.585866 0.573323 0.716232
Si Si2 0.352286 0.910493 0.908079
Si Si3 0.786741 0.836606 0.849794
Si Si4 0.085976 0.836561 0.415495
Si Si5 0.170158 0.447032 0.701079
O O1 0.500000 0.576908 0.684633
O O2 0.599055 0.614709 0.816740
O O3 0.636133 0.616631 0.638869
O O4 0.613788 0.486283 0.724179
O O5 0.276079 0.861901 0.923949
O O6 0.327213 0.998326 0.891762
O O7 0.403905 0.892565 0.996520
O O8 0.807004 0.750000 0.862587
O O9 0.750000 0.857073 0.750000
O O10 0.107655 0.750000 0.439230
O O11 0.137700 0.866138 0.330288
O O12 0.000000 0.842481 0.383590
O O13 0.250000 0.435801 0.750000
#
# Coordination Sequence:
#
# PCOD8299172 Si02
#       5
#    16  16  16  16  16
#     4   9  16  27  45  70  98 134 170 206 249 297
#     4   9  17  32  49  72 100 135 165 204 255 317
#     4   9  15  26  42  65  98 133 168 204 246 305
#     4  11  23  34  50  80 111 136 165 208 261 311
#     4  10  19  35  51  70  97 139 180 210 246 302
#
# _framework density 17.697301
#
# number of rings (size 3 to 8) (size 9 to 14) (size 15 to 20)
#    1.200    1.200    2.000    2.400    0.000    2.400 
#    0.000    0.000    0.000    0.000    0.000    4.200 
#    0.000    3.200    0.000    0.000    0.000    0.000 
#
# Total GULP energy -495535.053197 kJ/mol
# GULP energy per Si atom -12388.376330 kJ/mol
# Density = 1.765702 g / cm^3
# Si number density = 17.697301 Si / 1000 Ang^3
#
#
#
# Elastic Constant Matrix: (Units=GPa)
#
#
# Indices 1 2 3 4 5 6 
#
# 1 128.0390 36.9583 20.2439 0.0000 0.0000 0.0000
# 2 36.9583 72.5844 23.5179 0.0000 0.0000 0.0000
# 3 20.2439 23.5179 18.5195 0.0000 0.0000 0.0000
# 4 0.0000 0.0000 0.0000 19.2688 0.0000 0.0000
# 5 0.0000 0.0000 0.0000 0.0000 26.8048 0.0000
# 6 0.0000 0.0000 0.0000 0.0000 0.0000 26.4643
#
#
#
# Elastic Compliance Matrix: (Units=1/GPa)
#
#
# Indices 1 2 3 4 5 6 
#
# 1 0.009714 -0.002558 -0.007369 0.000000 0.000000 0.000000
# 2 -0.002558 0.024082 -0.027786 0.000000 0.000000 0.000000
# 3 -0.007369 -0.027786 0.097338 0.000000 0.000000 0.000000
# 4 0.000000 0.000000 0.000000 0.051897 0.000000 0.000000
# 5 0.000000 0.000000 0.000000 0.000000 0.037307 0.000000
# 6 0.000000 0.000000 0.000000 0.000000 0.000000 0.037787
#
#
# Mechanical properties :
#
#
# Convention : Reuss Voigt Hill
#
# Bulk Modulus (GPa) = 17.95109 42.28700 30.11905
# Shear Modulus (GPa) = 14.19968 23.73577 18.96772
#
# Velocity S-wave (km/s) = 2.83568 3.66622 3.27737
# Velocity P-wave (km/s) = 4.57021 6.47055 5.60156
#
# Compressibility (1/GPa) = 0.05570692
#
# Stress axis : x y z
#
# Youngs Moduli (GPa) = 102.94718 41.52403 10.27351
#
# Poissons Ratio (x) = 0.10623 0.07571
# Poissons Ratio (y) = 0.26336 0.28546
# Poissons Ratio (z) = 0.75867 1.15378
#
# Static dielectric constant tensor:
#      x y z
#    x 3.211950 0.000000 0.000000 
#    y 0.000000 3.176740 0.000000 
#    z 0.000000 0.000000 2.740530 
# 
# 
# High freq. dielectric constant tensor:
#      x y z
#    x 1.685640 0.000000 0.000000 
#    y 0.000000 1.676340 0.000000 
#    z 0.000000 0.000000 1.620650 
# 
# From -- ./inp_files/34173.got.cif
#   From: 2010.03.12/outbox.cif.g09.slc.cpg/sg74_18_cif.got.tgz:34173.got - 2010.04.16 15:46:19.
