data_PCOD8299843
_publ_section_title
;
Structure prediction by ZEFSAII (Michael W. Deem and Ramdas Pophale) SiO2 
 PCOD8299843
Probable space group: I M M A
;
_chemical_formula_sum "Si O2"
_cell_formula_units_Z 112
_cell_length_a 14.064903
_cell_length_b 14.867749
_cell_length_c 26.189300
_cell_angle_alpha 90.000000
_cell_angle_beta 90.000000
_cell_angle_gamma 90.000000
_cell_volume 5476.534811
_symmetry_space_group_name_H-M "I M M A"
_symmetry_group_IT_number 74
_symmetry_cell_setting 'orthorhombic'
loop_
_space_group_symop_operation_xyz
x,y,z
-x,1/2-y,z
x,-y,-z
-x,1/2+y,-z
-x,-y,-z
x,1/2+y,-z
-x,y,z
x,1/2-y,z
1/2+x,1/2+y,1/2+z
1/2-x,-y,1/2+z
1/2+x,1/2-y,1/2-z
1/2-x,y,1/2-z
1/2-x,1/2-y,1/2-z
1/2+x,y,1/2-z
1/2-x,1/2+y,1/2+z
1/2+x,-y,1/2+z
loop_
_atom_site_type_symbol
_atom_site_label
_atom_site_fract_x
_atom_site_fract_y
_atom_site_fract_z
Si Si1 0.394499 0.598342 0.905139
Si Si2 0.891383 0.651017 0.487150
Si Si3 0.233263 0.648368 0.192675
Si Si4 0.392941 0.600658 0.120467
Si Si5 0.191462 0.348645 0.088706
Si Si6 0.608771 0.852012 0.480029
Si Si7 0.110263 0.966653 0.118151
O O1 0.500000 0.644317 0.895835
O O2 0.390221 0.506866 0.873586
O O3 0.301365 0.656560 0.891610
O O4 0.382337 0.580586 0.966238
O O5 0.853402 0.750000 0.504947
O O6 0.841510 0.622158 0.434116
O O7 0.000000 0.657734 0.470476
O O8 0.192249 0.750000 0.192442
O O9 0.250000 0.613875 0.250000
O O10 0.334679 0.647830 0.164827
O O11 0.161440 0.581026 0.165191
O O12 0.500000 0.636725 0.125686
O O13 0.146605 0.250000 0.101203
O O14 0.137324 0.427961 0.118089
O O15 0.180759 0.366535 0.027518
O O16 0.500000 0.872210 0.498079
O O17 0.616240 0.750000 0.459156
O O18 0.639331 0.919986 0.435261
O O19 0.000000 0.955886 0.128524
#
# Coordination Sequence:
#
# PCOD8299843 Si02
#       7
#    16  16  16  16  16  16  16
#     4  10  20  34  52  81 121 162 200 235 280 344
#     4   9  17  28  45  76 117 157 193 227 268 328
#     4  11  25  43  64  91 119 147 190 247 304 361
#     4  10  20  36  58  83 115 156 195 234 284 348
#     4  11  22  35  57  90 125 163 203 244 290 345
#     4   9  19  35  56  86 123 161 203 247 290 344
#     4  11  23  41  63  87 119 160 203 249 300 353
#
# _framework density 20.450889
#
# number of rings (size 3 to 8) (size 9 to 14) (size 15 to 20)
#    0.000    1.857    1.429    2.571    2.000    8.000 
#    0.000    1.429    0.000    0.429    0.000    0.000 
#    0.000    0.000    0.000    0.000    0.000    0.000 
#
# Total GULP energy -693901.138267 kJ/mol
# GULP energy per Si atom -12391.091755 kJ/mol
# Density = 2.040434 g / cm^3
# Si number density = 20.450889 Si / 1000 Ang^3
#
#
#
# Elastic Constant Matrix: (Units=GPa)
#
#
# Indices 1 2 3 4 5 6 
#
# 1 90.3385 31.9917 21.9585 0.0000 0.0000 0.0000
# 2 31.9917 110.9369 43.0794 0.0000 0.0000 0.0000
# 3 21.9585 43.0794 78.7386 0.0000 0.0000 0.0000
# 4 0.0000 0.0000 0.0000 23.9441 0.0000 0.0000
# 5 0.0000 0.0000 0.0000 0.0000 -16.7581 0.0000
# 6 0.0000 0.0000 0.0000 0.0000 0.0000 21.0561
#
#
#
# Elastic Compliance Matrix: (Units=1/GPa)
#
#
# Indices 1 2 3 4 5 6 
#
# 1 0.012555 -0.002871 -0.001931 0.000000 0.000000 0.000000
# 2 -0.002871 0.012102 -0.005821 0.000000 0.000000 0.000000
# 3 -0.001931 -0.005821 0.016423 0.000000 0.000000 0.000000
# 4 0.000000 0.000000 0.000000 0.041764 0.000000 0.000000
# 5 0.000000 0.000000 0.000000 0.000000 -0.059673 0.000000
# 6 0.000000 0.000000 0.000000 0.000000 0.000000 0.047492
#
#
# Mechanical properties :
#
#
# Convention : Reuss Voigt Hill
#
# Bulk Modulus (GPa) = 50.41262 52.67479 51.54371
# Shear Modulus (GPa) = 50.75031 17.84740 34.29885
#
# Velocity S-wave (km/s) = 4.98694 2.95735 4.09972
# Velocity P-wave (km/s) = 7.60681 6.12159 6.90425
#
# Compressibility (1/GPa) = 0.01983630
#
# Stress axis : x y z
#
# Youngs Moduli (GPa) = 79.64659 82.62808 60.88887
#
# Poissons Ratio (x) = 0.23722 0.11756
# Poissons Ratio (y) = 0.22866 0.35442
# Poissons Ratio (z) = 0.15377 0.48096
#
# Static dielectric constant tensor:
#      x y z
#    x 3.857720 0.000000 0.000000 
#    y 0.000000 3.769720 0.000000 
#    z 0.000000 0.000000 3.248380 
# 
# 
# High freq. dielectric constant tensor:
#      x y z
#    x 1.811820 0.000000 0.000000 
#    y 0.000000 1.802210 0.000000 
#    z 0.000000 0.000000 1.735860 
# 
# From -- ./inp_files/60187.got.cif
#   From: 2010.03.12/outbox.cif.g09.slc.cpg/sg74_31_cif.got.tgz:60187.got - 2010.04.16 15:46:19.
