data_PCOD8299866
_publ_section_title
;
Structure prediction by ZEFSAII (Michael W. Deem and Ramdas Pophale) SiO2 
 PCOD8299866
Probable space group: I M M A
;
_chemical_formula_sum "Si O2"
_cell_formula_units_Z 80
_cell_length_a 28.192277
_cell_length_b 8.989166
_cell_length_c 17.394565
_cell_angle_alpha 90.000000
_cell_angle_beta 90.000000
_cell_angle_gamma 90.000000
_cell_volume 4408.218642
_symmetry_space_group_name_H-M "I M M A"
_symmetry_group_IT_number 74
_symmetry_cell_setting 'orthorhombic'
loop_
_space_group_symop_operation_xyz
x,y,z
-x,1/2-y,z
x,-y,-z
-x,1/2+y,-z
-x,-y,-z
x,1/2+y,-z
-x,y,z
x,1/2-y,z
1/2+x,1/2+y,1/2+z
1/2-x,-y,1/2+z
1/2+x,1/2-y,1/2-z
1/2-x,y,1/2-z
1/2-x,1/2-y,1/2-z
1/2+x,y,1/2-z
1/2-x,1/2+y,1/2+z
1/2+x,-y,1/2+z
loop_
_atom_site_type_symbol
_atom_site_label
_atom_site_fract_x
_atom_site_fract_y
_atom_site_fract_z
Si Si1 0.215328 0.086544 0.821742
Si Si2 0.053872 0.073776 0.241433
Si Si3 0.444356 0.587992 0.570949
Si Si4 0.142461 0.425730 0.700971
Si Si5 0.712636 0.926341 0.917862
O O1 0.211803 0.250000 0.861026
O O2 0.250000 0.097809 0.750000
O O3 0.164835 0.037704 0.785436
O O4 0.235573 0.969409 0.883391
O O5 0.062733 0.250000 0.245918
O O6 0.063677 0.014356 0.154568
O O7 0.000000 0.036573 0.266070
O O8 0.088719 0.986290 0.298767
O O9 0.420397 0.500000 0.500000
O O10 0.500000 0.603589 0.555970
O O11 0.420486 0.750000 0.570221
O O12 0.143902 0.250000 0.683587
O O13 0.170625 0.511601 0.634943
O O14 0.708873 0.750000 0.923953
O O15 0.706275 0.000000 0.000000
#
# Coordination Sequence:
#
# PCOD8299866 Si02
#       5
#    16  16  16  16  16
#     4   8  16  32  51  73 102 131 161 201 248 299
#     4   9  18  32  49  71 101 138 180 222 261 304
#     4   8  14  25  41  61  86 117 155 200 247 292
#     4  10  20  34  53  77 105 136 172 213 256 305
#     4  11  21  34  55  80 106 135 168 207 254 309
#
# _framework density 18.147921
#
# number of rings (size 3 to 8) (size 9 to 14) (size 15 to 20)
#    0.000    2.800    0.000    4.800    0.000    5.600 
#    0.000    3.000    0.000    3.000    0.000    0.000 
#    0.000    0.000    0.000    0.000    0.000    0.000 
#
# Total GULP energy -495670.807058 kJ/mol
# GULP energy per Si atom -12391.770176 kJ/mol
# Density = 1.810662 g / cm^3
# Si number density = 18.147921 Si / 1000 Ang^3
#
#
#
# Elastic Constant Matrix: (Units=GPa)
#
#
# Indices 1 2 3 4 5 6 
#
# 1 88.3745 49.0355 38.9156 0.0000 0.0000 0.0000
# 2 49.0355 121.4857 60.3524 0.0000 0.0000 0.0000
# 3 38.9156 60.3524 87.6512 0.0000 0.0000 0.0000
# 4 0.0000 0.0000 0.0000 30.4677 0.0000 0.0000
# 5 0.0000 0.0000 0.0000 0.0000 17.3475 0.0000
# 6 0.0000 0.0000 0.0000 0.0000 0.0000 16.8494
#
#
#
# Elastic Compliance Matrix: (Units=1/GPa)
#
#
# Indices 1 2 3 4 5 6 
#
# 1 0.015406 -0.004287 -0.003889 0.000000 0.000000 0.000000
# 2 -0.004287 0.013704 -0.007532 0.000000 0.000000 0.000000
# 3 -0.003889 -0.007532 0.018322 0.000000 0.000000 0.000000
# 4 0.000000 0.000000 0.000000 0.032822 0.000000 0.000000
# 5 0.000000 0.000000 0.000000 0.000000 0.057645 0.000000
# 6 0.000000 0.000000 0.000000 0.000000 0.000000 0.059349
#
#
# Mechanical properties :
#
#
# Convention : Reuss Voigt Hill
#
# Bulk Modulus (GPa) = 62.43604 66.01315 64.22459
# Shear Modulus (GPa) = 21.36733 22.88011 22.12372
#
# Velocity S-wave (km/s) = 3.43505 3.55457 3.49532
# Velocity P-wave (km/s) = 7.08600 7.30073 7.19416
#
# Compressibility (1/GPa) = 0.01601639
#
# Stress axis : x y z
#
# Youngs Moduli (GPa) = 64.90839 72.97290 54.57978
#
# Poissons Ratio (x) = 0.31282 0.21223
# Poissons Ratio (y) = 0.27824 0.41112
# Poissons Ratio (z) = 0.25240 0.54967
#
# Static dielectric constant tensor:
#      x y z
#    x 3.389810 0.000000 0.000000 
#    y 0.000000 3.464870 0.000000 
#    z 0.000000 0.000000 3.193100 
# 
# 
# High freq. dielectric constant tensor:
#      x y z
#    x 1.683650 0.000000 0.000000 
#    y 0.000000 1.703960 0.000000 
#    z 0.000000 0.000000 1.680160 
# 
# From -- ./inp_files/39948.got.cif
#   From: 2010.03.12/outbox.cif.g09.slc.cpg/sg74_20_cif.got.tgz:39948.got - 2010.04.16 15:46:19.
