data_PCOD8299693
_publ_section_title
;
Structure prediction by ZEFSAII (Michael W. Deem and Ramdas Pophale) SiO2 
 PCOD8299693
Probable space group: I M M A
;
_chemical_formula_sum "Si O2"
_cell_formula_units_Z 96
_cell_length_a 23.536934
_cell_length_b 10.102612
_cell_length_c 20.838793
_cell_angle_alpha 90.000000
_cell_angle_beta 90.000000
_cell_angle_gamma 90.000000
_cell_volume 4955.142221
_symmetry_space_group_name_H-M "I M M A"
_symmetry_group_IT_number 74
_symmetry_cell_setting 'orthorhombic'
loop_
_space_group_symop_operation_xyz
x,y,z
-x,1/2-y,z
x,-y,-z
-x,1/2+y,-z
-x,-y,-z
x,1/2+y,-z
-x,y,z
x,1/2-y,z
1/2+x,1/2+y,1/2+z
1/2-x,-y,1/2+z
1/2+x,1/2-y,1/2-z
1/2-x,y,1/2-z
1/2-x,1/2-y,1/2-z
1/2+x,y,1/2-z
1/2-x,1/2+y,1/2+z
1/2+x,-y,1/2+z
loop_
_atom_site_type_symbol
_atom_site_label
_atom_site_fract_x
_atom_site_fract_y
_atom_site_fract_z
Si Si1 0.240404 0.402577 0.824792
Si Si2 0.357006 0.898723 0.669133
Si Si3 0.935186 0.103625 0.048932
Si Si4 0.063468 0.598866 0.716148
Si Si5 0.937190 0.602006 0.397662
Si Si6 0.183046 0.600223 0.445824
O O1 0.221186 0.250000 0.829226
O O2 0.250000 0.440411 0.750000
O O3 0.191078 0.497622 0.849851
O O4 0.293252 0.429403 0.873487
O O5 0.331469 0.750000 0.675463
O O6 0.404481 0.902833 0.615811
O O7 0.388572 0.942940 0.733662
O O8 0.930283 0.250000 0.018511
O O9 0.000000 0.063807 0.062419
O O10 0.906812 0.000000 0.000000
O O11 0.072397 0.750000 0.693707
O O12 0.072360 0.505243 0.656406
O O13 0.000000 0.581095 0.745233
O O14 0.933728 0.750000 0.367639
O O15 0.885488 0.584823 0.447375
O O16 0.000000 0.582150 0.430060
O O17 0.207899 0.500000 0.500000
O O18 0.200347 0.750000 0.465606
#
# Coordination Sequence:
#
# PCOD8299693 Si02
#       6
#    16  16  16  16  16  16
#     4  10  22  40  59  78 105 143 184 225 269 318
#     4  10  20  33  52  77 103 134 174 219 265 315
#     4   9  18  33  51  72 102 138 173 213 263 316
#     4   9  17  30  50  78 110 140 171 212 264 318
#     4   9  18  34  56  81 108 138 173 213 258 311
#     4  10  22  39  58  81 110 143 178 220 270 321
#
# _framework density 19.373812999999998
#
# number of rings (size 3 to 8) (size 9 to 14) (size 15 to 20)
#    0.000    2.500    0.000    1.500    0.000    7.333 
#    0.000    3.333    0.000    5.000    0.000    0.000 
#    0.000    0.000    0.000    0.000    0.000    0.000 
#
# Total GULP energy -594859.246280 kJ/mol
# GULP energy per Si atom -12392.900964 kJ/mol
# Density = 1.932972 g / cm^3
# Si number density = 19.373813 Si / 1000 Ang^3
#
#
#
# Elastic Constant Matrix: (Units=GPa)
#
#
# Indices 1 2 3 4 5 6 
#
# 1 70.0045 40.8506 21.5409 0.0000 0.0000 0.0000
# 2 40.8506 92.6567 44.2933 0.0000 0.0000 0.0000
# 3 21.5409 44.2933 81.4129 0.0000 0.0000 0.0000
# 4 0.0000 0.0000 0.0000 33.4855 0.0000 0.0000
# 5 0.0000 0.0000 0.0000 0.0000 15.9265 0.0000
# 6 0.0000 0.0000 0.0000 0.0000 0.0000 40.0851
#
#
#
# Elastic Compliance Matrix: (Units=1/GPa)
#
#
# Indices 1 2 3 4 5 6 
#
# 1 0.019258 -0.008183 -0.000643 0.000000 0.000000 0.000000
# 2 -0.008183 0.018063 -0.007662 0.000000 0.000000 0.000000
# 3 -0.000643 -0.007662 0.016622 0.000000 0.000000 0.000000
# 4 0.000000 0.000000 0.000000 0.029864 0.000000 0.000000
# 5 0.000000 0.000000 0.000000 0.000000 0.062788 0.000000
# 6 0.000000 0.000000 0.000000 0.000000 0.000000 0.024947
#
#
# Mechanical properties :
#
#
# Convention : Reuss Voigt Hill
#
# Bulk Modulus (GPa) = 47.69673 50.82708 49.26191
# Shear Modulus (GPa) = 23.63983 27.05872 25.34927
#
# Velocity S-wave (km/s) = 3.49692 3.74125 3.62115
# Velocity P-wave (km/s) = 6.40134 6.70481 6.55483
#
# Compressibility (1/GPa) = 0.02096580
#
# Stress axis : x y z
#
# Youngs Moduli (GPa) = 51.92696 55.36179 60.16120
#
# Poissons Ratio (x) = 0.45302 0.03871
# Poissons Ratio (y) = 0.42491 0.46097
# Poissons Ratio (z) = 0.03341 0.42419
#
# Static dielectric constant tensor:
#      x y z
#    x 3.579380 0.000000 0.000000 
#    y 0.000000 4.067990 0.000000 
#    z 0.000000 0.000000 3.308120 
# 
# 
# High freq. dielectric constant tensor:
#      x y z
#    x 1.751210 0.000000 0.000000 
#    y 0.000000 1.764810 0.000000 
#    z 0.000000 0.000000 1.733940 
# 
# From -- ./inp_files/55036.got.cif
#   From: 2010.03.12/outbox.cif.g09.slc.cpg/sg74_28_cif.got.tgz:55036.got - 2010.04.16 15:46:19.
