data_PCOD8299247
_publ_section_title
;
Structure prediction by ZEFSAII (Michael W. Deem and Ramdas Pophale) SiO2 
 PCOD8299247
Probable space group: I M M A
;
_chemical_formula_sum "Si O2"
_cell_formula_units_Z 88
_cell_length_a 27.878575
_cell_length_b 23.429932
_cell_length_c 6.948253
_cell_angle_alpha 90.000000
_cell_angle_beta 90.000000
_cell_angle_gamma 90.000000
_cell_volume 4538.551031
_symmetry_space_group_name_H-M "I M M A"
_symmetry_group_IT_number 74
_symmetry_cell_setting 'orthorhombic'
loop_
_space_group_symop_operation_xyz
x,y,z
-x,1/2-y,z
x,-y,-z
-x,1/2+y,-z
-x,-y,-z
x,1/2+y,-z
-x,y,z
x,1/2-y,z
1/2+x,1/2+y,1/2+z
1/2-x,-y,1/2+z
1/2+x,1/2-y,1/2-z
1/2-x,y,1/2-z
1/2-x,1/2-y,1/2-z
1/2+x,y,1/2-z
1/2-x,1/2+y,1/2+z
1/2+x,-y,1/2+z
loop_
_atom_site_type_symbol
_atom_site_label
_atom_site_fract_x
_atom_site_fract_y
_atom_site_fract_z
Si Si1 0.553119 0.250000 0.582888
Si Si2 0.804087 0.250000 0.823019
Si Si3 0.869398 0.630735 0.613494
Si Si4 0.445187 0.368153 0.788607
Si Si5 0.877823 0.567239 0.009585
Si Si6 0.193455 0.873863 0.275428
Si Si7 0.641878 0.750000 0.696773
O O1 0.500000 0.250000 0.487469
O O2 0.559994 0.196167 0.718582
O O3 0.591778 0.250000 0.415441
O O4 0.750000 0.250000 0.750000
O O5 0.827555 0.308953 0.747606
O O6 0.811907 0.250000 0.054126
O O7 0.917978 0.626943 0.490591
O O8 0.824721 0.606462 0.485966
O O9 0.855608 0.694770 0.670884
O O10 0.877761 0.590883 0.794763
O O11 0.500000 0.386269 0.822484
O O12 0.423321 0.409742 0.627248
O O13 0.828597 0.586210 0.111492
O O14 0.880802 0.500000 0.000000
O O15 0.250000 0.876967 0.250000
#
# Coordination Sequence:
#
# PCOD8299247 Si02
#       7
#     8   8  16  16  16  16   8
#     4  10  19  35  61  91 126 155 190 248 306 363
#     4  10  19  37  61  89 125 151 192 253 312 377
#     4  11  22  37  65  89 119 162 203 242 312 373
#     4  10  22  40  62  92 127 157 198 256 304 360
#     4  11  24  43  61  87 121 164 210 256 298 357
#     4  10  22  42  60  90 124 155 201 261 311 365
#     4  12  18  36  64  92 124 166 190 244 316 371
#
# _framework density 19.389448000000002
#
# number of rings (size 3 to 8) (size 9 to 14) (size 15 to 20)
#    0.000    1.455    3.636    2.182    0.000    5.455 
#    3.273    2.727    0.000    0.000    0.000    0.000 
#    0.000    0.000    0.000    0.000    0.000    0.000 
#
# Total GULP energy -545540.895620 kJ/mol
# GULP energy per Si atom -12398.656719 kJ/mol
# Density = 1.934532 g / cm^3
# Si number density = 19.389448 Si / 1000 Ang^3
#
#
#
# Elastic Constant Matrix: (Units=GPa)
#
#
# Indices 1 2 3 4 5 6 
#
# 1 154.3678 38.2519 71.0688 0.0000 0.0000 0.0000
# 2 38.2519 142.6224 53.3401 0.0000 0.0000 0.0000
# 3 71.0688 53.3401 150.5161 0.0000 0.0000 0.0000
# 4 0.0000 0.0000 0.0000 944.0882 0.0000 0.0000
# 5 0.0000 0.0000 0.0000 0.0000 19.0125 0.0000
# 6 0.0000 0.0000 0.0000 0.0000 0.0000 252.2115
#
#
#
# Elastic Compliance Matrix: (Units=1/GPa)
#
#
# Indices 1 2 3 4 5 6 
#
# 1 0.008373 -0.000884 -0.003640 0.000000 0.000000 0.000000
# 2 -0.000884 0.008176 -0.002480 0.000000 0.000000 0.000000
# 3 -0.003640 -0.002480 0.009241 0.000000 0.000000 0.000000
# 4 0.000000 0.000000 0.000000 0.001059 0.000000 0.000000
# 5 0.000000 0.000000 0.000000 0.000000 0.052597 0.000000
# 6 0.000000 0.000000 0.000000 0.000000 0.000000 0.003965
#
#
# Mechanical properties :
#
#
# Convention : Reuss Voigt Hill
#
# Bulk Modulus (GPa) = 84.87588 85.86978 85.37283
# Shear Modulus (GPa) = 49.33519 262.05215 155.69367
#
# Velocity S-wave (km/s) = 5.04971 11.63810 8.97064
# Velocity P-wave (km/s) = 8.82433 14.99923 12.30540
#
# Compressibility (1/GPa) = 0.01178191
#
# Stress axis : x y z
#
# Youngs Moduli (GPa) = 119.43141 122.30644 108.20891
#
# Poissons Ratio (x) = 0.10816 0.39389
# Poissons Ratio (y) = 0.10561 0.26835
# Poissons Ratio (z) = 0.43474 0.30331
#
# Static dielectric constant tensor:
#      x y z
#    x 3.629190 0.000000 0.000000 
#    y 0.000000 3.547100 0.000000 
#    z 0.000000 0.000000 3.626930 
# 
# 
# High freq. dielectric constant tensor:
#      x y z
#    x 1.758560 0.000000 0.000000 
#    y 0.000000 1.746920 0.000000 
#    z 0.000000 0.000000 1.764170 
# 
# From -- ./inp_files/3973.got.cif
#   From: 2010.03.12/outbox.cif.g09.slc.cpg/sg74_2_cif.got.tgz:3973.got - 2010.04.16 15:46:19.
