data_PCOD8299506
_publ_section_title
;
Structure prediction by ZEFSAII (Michael W. Deem and Ramdas Pophale) SiO2 
 PCOD8299506
Probable space group: I M M A
;
_chemical_formula_sum "Si O2"
_cell_formula_units_Z 96
_cell_length_a 28.909987
_cell_length_b 9.168437
_cell_length_c 20.662796
_cell_angle_alpha 90.000000
_cell_angle_beta 90.000000
_cell_angle_gamma 90.000000
_cell_volume 5476.868196
_symmetry_space_group_name_H-M "I M M A"
_symmetry_group_IT_number 74
_symmetry_cell_setting 'orthorhombic'
loop_
_space_group_symop_operation_xyz
x,y,z
-x,1/2-y,z
x,-y,-z
-x,1/2+y,-z
-x,-y,-z
x,1/2+y,-z
-x,y,z
x,1/2-y,z
1/2+x,1/2+y,1/2+z
1/2-x,-y,1/2+z
1/2+x,1/2-y,1/2-z
1/2-x,y,1/2-z
1/2-x,1/2-y,1/2-z
1/2+x,y,1/2-z
1/2-x,1/2+y,1/2+z
1/2+x,-y,1/2+z
loop_
_atom_site_type_symbol
_atom_site_label
_atom_site_fract_x
_atom_site_fract_y
_atom_site_fract_z
Si Si1 0.613964 0.090304 0.441052
Si Si2 0.276261 0.585100 0.562209
Si Si3 0.945268 0.409716 0.558749
Si Si4 0.785093 0.580421 0.191284
Si Si5 0.446084 0.919696 0.202504
Si Si6 0.119799 0.575948 0.799474
O O1 0.592735 0.250000 0.449042
O O2 0.669017 0.093713 0.445768
O O3 0.600854 0.027769 0.370381
O O4 0.591974 0.000000 0.500000
O O5 0.255102 0.500000 0.500000
O O6 0.255890 0.750000 0.565591
O O7 0.263821 0.497728 0.627773
O O8 0.922622 0.500000 0.500000
O O9 0.923322 0.250000 0.553549
O O10 0.934003 0.473589 0.629664
O O11 0.000000 0.400655 0.550027
O O12 0.794417 0.750000 0.174867
O O13 0.750000 0.562776 0.250000
O O14 0.832101 0.504007 0.214670
O O15 0.500000 0.940886 0.217231
O O16 0.432345 0.750000 0.211766
O O17 0.418033 0.025605 0.248638
O O18 0.127617 0.750000 0.796658
#
# Coordination Sequence:
#
# PCOD8299506 Si02
#       6
#    16  16  16  16  16  16
#     4   8  15  26  41  64  90 116 149 189 230 271
#     4   9  16  27  45  69  96 124 157 198 240 282
#     4   8  14  25  42  65  91 118 151 191 232 274
#     4  10  20  33  50  72  98 129 163 199 242 290
#     4   9  18  32  49  70  97 128 160 195 237 285
#     4  10  20  32  48  72  99 126 158 197 240 286
#
# _framework density 17.528265999999999
#
# number of rings (size 3 to 8) (size 9 to 14) (size 15 to 20)
#    0.000    3.000    0.000    3.500    0.000    7.000 
#    0.000    1.667    0.000    1.500    0.000    4.667 
#    0.000    0.000    0.000    0.000    0.000    0.000 
#
# Total GULP energy -594855.159071 kJ/mol
# GULP energy per Si atom -12392.815814 kJ/mol
# Density = 1.748837 g / cm^3
# Si number density = 17.528266 Si / 1000 Ang^3
#
#
#
# Elastic Constant Matrix: (Units=GPa)
#
#
# Indices 1 2 3 4 5 6 
#
# 1 32.6035 33.1826 41.1546 0.0000 0.0000 0.0000
# 2 33.1826 114.3636 76.9374 0.0000 0.0000 0.0000
# 3 41.1546 76.9374 152.9027 0.0000 0.0000 0.0000
# 4 0.0000 0.0000 0.0000 37.7893 0.0000 0.0000
# 5 0.0000 0.0000 0.0000 0.0000 21.6303 0.0000
# 6 0.0000 0.0000 0.0000 0.0000 0.0000 17.7543
#
#
#
# Elastic Compliance Matrix: (Units=1/GPa)
#
#
# Indices 1 2 3 4 5 6 
#
# 1 0.051362 -0.008469 -0.009563 0.000000 0.000000 0.000000
# 2 -0.008469 0.014615 -0.005074 0.000000 0.000000 0.000000
# 3 -0.009563 -0.005074 0.011667 0.000000 0.000000 0.000000
# 4 0.000000 0.000000 0.000000 0.026463 0.000000 0.000000
# 5 0.000000 0.000000 0.000000 0.000000 0.046231 0.000000
# 6 0.000000 0.000000 0.000000 0.000000 0.000000 0.056324
#
#
# Mechanical properties :
#
#
# Convention : Reuss Voigt Hill
#
# Bulk Modulus (GPa) = 31.81527 66.93544 49.37535
# Shear Modulus (GPa) = 18.98587 25.34115 22.16351
#
# Velocity S-wave (km/s) = 3.29471 3.80640 3.55976
# Velocity P-wave (km/s) = 5.71522 7.58870 6.71759
#
# Compressibility (1/GPa) = 0.03143145
#
# Stress axis : x y z
#
# Youngs Moduli (GPa) = 19.46953 68.42159 85.70908
#
# Poissons Ratio (x) = 0.57949 0.81962
# Poissons Ratio (y) = 0.16490 0.43493
# Poissons Ratio (z) = 0.18618 0.34721
#
# Static dielectric constant tensor:
#      x y z
#    x 2.662590 0.000000 0.000000 
#    y 0.000000 3.552940 0.000000 
#    z 0.000000 0.000000 3.570040 
# 
# 
# High freq. dielectric constant tensor:
#      x y z
#    x 1.610780 0.000000 0.000000 
#    y 0.000000 1.686180 0.000000 
#    z 0.000000 0.000000 1.696440 
# 
# From -- ./inp_files/55023.got.cif
#   From: 2010.03.12/outbox.cif.g09.slc.cpg/sg74_28_cif.got.tgz:55023.got - 2010.04.16 15:46:19.
