data_PCOD8299940
_publ_section_title
;
Structure prediction by ZEFSAII (Michael W. Deem and Ramdas Pophale) SiO2 
 PCOD8299940
Probable space group: I M M A
;
_chemical_formula_sum "Si O2"
_cell_formula_units_Z 104
_cell_length_a 21.863003
_cell_length_b 8.881767
_cell_length_c 29.896330
_cell_angle_alpha 90.000000
_cell_angle_beta 90.000000
_cell_angle_gamma 90.000000
_cell_volume 5805.332099
_symmetry_space_group_name_H-M "I M M A"
_symmetry_group_IT_number 74
_symmetry_cell_setting 'orthorhombic'
loop_
_space_group_symop_operation_xyz
x,y,z
-x,1/2-y,z
x,-y,-z
-x,1/2+y,-z
-x,-y,-z
x,1/2+y,-z
-x,y,z
x,1/2-y,z
1/2+x,1/2+y,1/2+z
1/2-x,-y,1/2+z
1/2+x,1/2-y,1/2-z
1/2-x,y,1/2-z
1/2-x,1/2-y,1/2-z
1/2+x,y,1/2-z
1/2-x,1/2+y,1/2+z
1/2+x,-y,1/2+z
loop_
_atom_site_type_symbol
_atom_site_label
_atom_site_fract_x
_atom_site_fract_y
_atom_site_fract_z
Si Si1 0.430148 0.576342 0.802577
Si Si2 0.000000 0.570538 0.451230
Si Si3 0.356033 0.925257 0.453991
Si Si4 0.214735 0.427222 0.546596
Si Si5 0.427264 0.080502 0.714458
Si Si6 0.887867 0.072933 0.399668
Si Si7 0.072181 0.422954 0.125158
O O1 0.500000 0.528267 0.812247
O O2 0.426858 0.750000 0.789081
O O3 0.401357 0.484449 0.761118
O O4 0.391606 0.540956 0.846836
O O5 0.000000 0.500000 0.500000
O O6 0.940178 0.516456 0.425422
O O7 0.000000 0.750000 0.454647
O O8 0.367440 0.750000 0.459143
O O9 0.285461 0.962723 0.444083
O O10 0.377917 0.000000 0.500000
O O11 0.396648 0.985218 0.414019
O O12 0.193357 0.500000 0.500000
O O13 0.200785 0.250000 0.545508
O O14 0.177619 0.509157 0.585738
O O15 0.500000 0.071513 0.716238
O O16 0.403566 0.250000 0.708494
O O17 0.403097 0.983889 0.672630
O O18 0.894543 0.250000 0.410017
O O19 0.091024 0.250000 0.121071
O O20 0.000000 0.447074 0.121115
#
# Coordination Sequence:
#
# PCOD8299940 Si02
#       7
#    16   8  16  16  16  16  16
#     4   9  17  31  49  71 102 136 171 212 259 311
#     4  12  24  36  50  70 102 138 174 220 273 322
#     4  10  21  37  57  79 106 138 175 215 255 305
#     4  10  21  37  55  76 100 134 177 218 260 309
#     4   9  17  29  48  75 105 137 172 209 252 305
#     4  11  21  35  53  75 103 136 175 219 267 316
#     4  10  20  34  54  81 111 141 172 207 254 308
#
# _framework density 17.914565
#
# number of rings (size 3 to 8) (size 9 to 14) (size 15 to 20)
#    0.000    2.000    0.769    3.462    0.000    6.154 
#    0.000    0.000    0.000    0.923    0.000    6.462 
#    0.000    0.000    0.000    0.000    0.000    0.000 
#
# Total GULP energy -644944.181173 kJ/mol
# GULP energy per Si atom -12402.772715 kJ/mol
# Density = 1.787379 g / cm^3
# Si number density = 17.914565 Si / 1000 Ang^3
#
#
#
# Elastic Constant Matrix: (Units=GPa)
#
#
# Indices 1 2 3 4 5 6 
#
# 1 35.5586 32.2301 37.5407 0.0000 0.0000 0.0000
# 2 32.2301 107.0131 60.7610 0.0000 0.0000 0.0000
# 3 37.5407 60.7610 136.2275 0.0000 0.0000 0.0000
# 4 0.0000 0.0000 0.0000 38.2119 0.0000 0.0000
# 5 0.0000 0.0000 0.0000 0.0000 11.9956 0.0000
# 6 0.0000 0.0000 0.0000 0.0000 0.0000 26.7630
#
#
#
# Elastic Compliance Matrix: (Units=1/GPa)
#
#
# Indices 1 2 3 4 5 6 
#
# 1 0.045020 -0.008724 -0.008515 0.000000 0.000000 0.000000
# 2 -0.008724 0.014204 -0.003931 0.000000 0.000000 0.000000
# 3 -0.008515 -0.003931 0.011441 0.000000 0.000000 0.000000
# 4 0.000000 0.000000 0.000000 0.026170 0.000000 0.000000
# 5 0.000000 0.000000 0.000000 0.000000 0.083364 0.000000
# 6 0.000000 0.000000 0.000000 0.000000 0.000000 0.037365
#
#
# Mechanical properties :
#
#
# Convention : Reuss Voigt Hill
#
# Bulk Modulus (GPa) = 35.30621 59.98474 47.64547
# Shear Modulus (GPa) = 18.56345 25.27859 21.92102
#
# Velocity S-wave (km/s) = 3.22253 3.76049 3.50185
# Velocity P-wave (km/s) = 5.79631 7.23958 6.55777
#
# Compressibility (1/GPa) = 0.02832363
#
# Stress axis : x y z
#
# Youngs Moduli (GPa) = 22.21239 70.40073 87.40760
#
# Poissons Ratio (x) = 0.61420 0.74428
# Poissons Ratio (y) = 0.19379 0.34363
# Poissons Ratio (z) = 0.18914 0.27677
#
# Static dielectric constant tensor:
#      x y z
#    x 3.040450 0.000000 0.000000 
#    y 0.000000 3.491930 0.000000 
#    z 0.000000 0.000000 3.469300 
# 
# 
# High freq. dielectric constant tensor:
#      x y z
#    x 1.657580 0.000000 0.000000 
#    y 0.000000 1.710640 0.000000 
#    z 0.000000 0.000000 1.704960 
# 
# From -- ./inp_files/68642.got.cif
#   From: 2010.03.12/outbox.cif.g09.slc.cpg/sg74_35_cif.got.tgz:68642.got - 2010.04.16 15:46:19.
