data_PCOD8299749
_publ_section_title
;
Structure prediction by ZEFSAII (Michael W. Deem and Ramdas Pophale) SiO2 
 PCOD8299749
Probable space group: I M M A
;
_chemical_formula_sum "Si O2"
_cell_formula_units_Z 120
_cell_length_a 20.090930
_cell_length_b 14.531492
_cell_length_c 22.740989
_cell_angle_alpha 90.000000
_cell_angle_beta 90.000000
_cell_angle_gamma 90.000000
_cell_volume 6639.258768
_symmetry_space_group_name_H-M "I M M A"
_symmetry_group_IT_number 74
_symmetry_cell_setting 'orthorhombic'
loop_
_space_group_symop_operation_xyz
x,y,z
-x,1/2-y,z
x,-y,-z
-x,1/2+y,-z
-x,-y,-z
x,1/2+y,-z
-x,y,z
x,1/2-y,z
1/2+x,1/2+y,1/2+z
1/2-x,-y,1/2+z
1/2+x,1/2-y,1/2-z
1/2-x,y,1/2-z
1/2-x,1/2-y,1/2-z
1/2+x,y,1/2-z
1/2-x,1/2+y,1/2+z
1/2+x,-y,1/2+z
loop_
_atom_site_type_symbol
_atom_site_label
_atom_site_fract_x
_atom_site_fract_y
_atom_site_fract_z
Si Si1 0.815593 0.091487 0.593392
Si Si2 0.210158 0.352758 0.089644
Si Si3 0.925824 0.854054 0.489390
Si Si4 0.717710 0.348188 0.687006
Si Si5 0.142986 0.101323 0.396878
Si Si6 0.276110 0.500000 0.500000
Si Si7 0.576290 0.146832 0.219558
Si Si8 0.815003 0.953910 0.791364
O O1 0.881075 0.141547 0.569135
O O2 0.776425 0.154657 0.638883
O O3 0.836120 0.998699 0.628036
O O4 0.768427 0.066883 0.539074
O O5 0.180989 0.250000 0.077046
O O6 0.290155 0.343820 0.086517
O O7 0.190215 0.383818 0.154760
O O8 0.182549 0.428593 0.041911
O O9 0.925925 0.750000 0.513062
O O10 0.898942 0.915626 0.543346
O O11 0.000000 0.886867 0.472507
O O12 0.678016 0.250000 0.678524
O O13 0.750000 0.347651 0.750000
O O14 0.674384 0.441973 0.682867
O O15 0.099432 0.152024 0.348145
O O16 0.500000 0.114022 0.222635
O O17 0.584157 0.250000 0.245442
O O18 0.619597 0.073976 0.255646
O O19 0.750000 0.945256 0.750000
#
# Coordination Sequence:
#
# PCOD8299749 Si02
#       8
#    16  16  16  16  16   8  16  16
#     4  11  19  35  49  71 104 139 181 232 278 319
#     4  11  20  32  53  78 109 145 180 229 277 319
#     4  11  22  32  45  68 102 151 200 230 263 314
#     4  10  20  35  55  76 101 134 177 234 288 326
#     4  11  19  32  49  73 107 143 189 229 259 315
#     4  10  20  34  45  78 105 132 176 218 264 336
#     4  11  23  36  53  80 113 147 180 220 275 333
#     4  11  20  36  56  83 110 141 187 227 274 336
#
# _framework density 18.074306
#
# number of rings (size 3 to 8) (size 9 to 14) (size 15 to 20)
#    0.000    1.200    6.667    3.200    0.000    3.733 
#    0.000    0.000    0.000    0.400    0.000    0.467 
#    0.000    0.000    0.000    0.000    0.000    0.133 
#
# Total GULP energy -743581.992042 kJ/mol
# GULP energy per Si atom -12393.033201 kJ/mol
# Density = 1.803317 g / cm^3
# Si number density = 18.074306 Si / 1000 Ang^3
#
#
#
# Elastic Constant Matrix: (Units=GPa)
#
#
# Indices 1 2 3 4 5 6 
#
# 1 50.7128 17.6751 29.2036 0.0000 0.0000 0.0000
# 2 17.6751 112.8939 27.7590 0.0000 0.0000 0.0000
# 3 29.2036 27.7590 98.3111 0.0000 0.0000 0.0000
# 4 0.0000 0.0000 0.0000 12.1641 0.0000 0.0000
# 5 0.0000 0.0000 0.0000 0.0000 21.0295 0.0000
# 6 0.0000 0.0000 0.0000 0.0000 0.0000 16.2939
#
#
#
# Elastic Compliance Matrix: (Units=1/GPa)
#
#
# Indices 1 2 3 4 5 6 
#
# 1 0.024277 -0.002179 -0.006596 0.000000 0.000000 0.000000
# 2 -0.002179 0.009714 -0.002096 0.000000 0.000000 0.000000
# 3 -0.006596 -0.002096 0.012723 0.000000 0.000000 0.000000
# 4 0.000000 0.000000 0.000000 0.082209 0.000000 0.000000
# 5 0.000000 0.000000 0.000000 0.000000 0.047552 0.000000
# 6 0.000000 0.000000 0.000000 0.000000 0.000000 0.061373
#
#
# Mechanical properties :
#
#
# Convention : Reuss Voigt Hill
#
# Bulk Modulus (GPa) = 40.04421 45.68812 42.86617
# Shear Modulus (GPa) = 18.66269 22.38283 20.52276
#
# Velocity S-wave (km/s) = 3.21682 3.52288 3.37332
# Velocity P-wave (km/s) = 6.00006 6.47150 6.24023
#
# Compressibility (1/GPa) = 0.02497240
#
# Stress axis : x y z
#
# Youngs Moduli (GPa) = 41.19143 102.94086 78.59800
#
# Poissons Ratio (x) = 0.22430 0.51845
# Poissons Ratio (y) = 0.08975 0.16471
# Poissons Ratio (z) = 0.27171 0.21573
#
# Static dielectric constant tensor:
#      x y z
#    x 2.954920 0.000000 0.000000 
#    y 0.000000 3.785500 0.000000 
#    z 0.000000 0.000000 3.225030 
# 
# 
# High freq. dielectric constant tensor:
#      x y z
#    x 1.636210 0.000000 0.000000 
#    y 0.000000 1.718470 0.000000 
#    z 0.000000 0.000000 1.702160 
# 
# From -- ./inp_files/61736.got.cif
#   From: 2010.03.12/outbox.cif.g09.slc.cpg/sg74_31_cif.got.tgz:61736.got - 2010.04.16 15:46:19.
