data_PCOD8299769
_publ_section_title
;
Structure prediction by ZEFSAII (Michael W. Deem and Ramdas Pophale) SiO2 
 PCOD8299769
Probable space group: I M M A
;
_chemical_formula_sum "Si O2"
_cell_formula_units_Z 80
_cell_length_a 9.338758
_cell_length_b 33.823741
_cell_length_c 13.912899
_cell_angle_alpha 90.000000
_cell_angle_beta 90.000000
_cell_angle_gamma 90.000000
_cell_volume 4394.691502
_symmetry_space_group_name_H-M "I M M A"
_symmetry_group_IT_number 74
_symmetry_cell_setting 'orthorhombic'
loop_
_space_group_symop_operation_xyz
x,y,z
-x,1/2-y,z
x,-y,-z
-x,1/2+y,-z
-x,-y,-z
x,1/2+y,-z
-x,y,z
x,1/2-y,z
1/2+x,1/2+y,1/2+z
1/2-x,-y,1/2+z
1/2+x,1/2-y,1/2-z
1/2-x,y,1/2-z
1/2-x,1/2-y,1/2-z
1/2+x,y,1/2-z
1/2-x,1/2+y,1/2+z
1/2+x,-y,1/2+z
loop_
_atom_site_type_symbol
_atom_site_label
_atom_site_fract_x
_atom_site_fract_y
_atom_site_fract_z
Si Si1 0.835058 0.705043 0.476027
Si Si2 0.169911 0.018459 0.347988
Si Si3 0.166652 0.133125 0.652803
Si Si4 0.660648 0.296961 0.338932
Si Si5 0.331151 0.942093 0.039599
O O1 0.798443 0.750000 0.445629
O O2 0.801429 0.677085 0.385897
O O3 0.737938 0.690231 0.563436
O O4 0.000000 0.701305 0.508784
O O5 0.250000 0.029502 0.250000
O O6 0.221201 0.049501 0.430625
O O7 0.000000 0.020262 0.329963
O O8 0.221258 0.975232 0.384538
O O9 0.250000 0.126296 0.750000
O O10 0.220902 0.100983 0.574722
O O11 0.000000 0.127070 0.674515
O O12 0.500000 0.314370 0.337417
O O13 0.656354 0.250000 0.330762
O O14 0.750000 0.314870 0.250000
O O15 0.500000 0.945091 0.036635
#
# Coordination Sequence:
#
# PCOD8299769 Si02
#       5
#    16  16  16  16  16
#     4   9  18  32  48  67  93 125 160 197 237 281
#     4   9  16  29  50  73  97 125 156 188 226 274
#     4  10  20  34  51  69  92 123 158 197 240 284
#     4   9  16  27  46  70  93 118 150 190 235 282
#     4   8  16  31  49  69  96 129 157 184 228 283
#
# _framework density 18.203780999999999
#
# number of rings (size 3 to 8) (size 9 to 14) (size 15 to 20)
#    0.000    3.000    0.000    2.400    0.000    3.600 
#    0.000    4.000    0.000    2.400    0.000    0.000 
#    0.000    0.000    0.000    0.000    0.000    0.000 
#
# Total GULP energy -495843.168610 kJ/mol
# GULP energy per Si atom -12396.079215 kJ/mol
# Density = 1.816235 g / cm^3
# Si number density = 18.203781 Si / 1000 Ang^3
#
#
#
# Elastic Constant Matrix: (Units=GPa)
#
#
# Indices 1 2 3 4 5 6 
#
# 1 66.1910 29.6463 54.1775 -0.0003 0.0000 0.0000
# 2 29.6463 93.7350 61.5918 -0.0005 -0.0001 0.0001
# 3 54.1775 61.5918 148.6496 -0.0017 -0.0002 0.0001
# 4 -0.0003 -0.0005 -0.0017 23.8378 -0.0001 0.0001
# 5 0.0000 -0.0001 -0.0002 -0.0001 37.3931 -0.0002
# 6 0.0000 0.0001 0.0001 0.0001 -0.0002 12.5254
#
#
#
# Elastic Compliance Matrix: (Units=1/GPa)
#
#
# Indices 1 2 3 4 5 6 
#
# 1 0.021889 -0.002310 -0.007021 0.000000 0.000000 0.000000
# 2 -0.002310 0.014903 -0.005333 0.000000 0.000000 0.000000
# 3 -0.007021 -0.005333 0.011496 0.000001 0.000000 0.000000
# 4 0.000000 0.000000 0.000001 0.041950 0.000000 0.000000
# 5 0.000000 0.000000 0.000000 0.000000 0.026743 0.000000
# 6 0.000000 0.000000 0.000000 0.000000 0.000000 0.079838
#
#
# Mechanical properties :
#
#
# Convention : Reuss Voigt Hill
#
# Bulk Modulus (GPa) = 52.74111 66.60074 59.67093
# Shear Modulus (GPa) = 21.50849 25.62858 23.56854
#
# Velocity S-wave (km/s) = 3.44108 3.75623 3.60211
# Velocity P-wave (km/s) = 6.69504 7.44836 7.08172
#
# Compressibility (1/GPa) = 0.01896054
#
# Stress axis : x y z
#
# Youngs Moduli (GPa) = 45.68563 67.09932 86.98843
#
# Poissons Ratio (x) = 0.15498 0.61071
# Poissons Ratio (y) = 0.10552 0.46393
# Poissons Ratio (z) = 0.32074 0.35786
#
# Static dielectric constant tensor:
#      x y z
#    x 3.203690 0.000000 0.000000 
#    y 0.000000 3.382780 0.000000 
#    z 0.000000 0.000000 3.354470 
# 
# 
# High freq. dielectric constant tensor:
#      x y z
#    x 1.684300 0.000000 0.000000 
#    y 0.000000 1.685560 0.000000 
#    z 0.000000 0.000000 1.707170 
# 
# From -- ./inp_files/18992.got.cif
#   From: 2010.03.12/outbox.cif.g09.slc.cpg/sg74_10_cif.got.tgz:18992.got - 2010.04.16 15:46:19.
