data_PCOD8299650
_publ_section_title
;
Structure prediction by ZEFSAII (Michael W. Deem and Ramdas Pophale) SiO2 
 PCOD8299650
Probable space group: I M M A
;
_chemical_formula_sum "Si O2"
_cell_formula_units_Z 104
_cell_length_a 20.040694
_cell_length_b 8.991084
_cell_length_c 32.373410
_cell_angle_alpha 90.000000
_cell_angle_beta 90.000000
_cell_angle_gamma 90.000000
_cell_volume 5833.285859
_symmetry_space_group_name_H-M "I M M A"
_symmetry_group_IT_number 74
_symmetry_cell_setting 'orthorhombic'
loop_
_space_group_symop_operation_xyz
x,y,z
-x,1/2-y,z
x,-y,-z
-x,1/2+y,-z
-x,-y,-z
x,1/2+y,-z
-x,y,z
x,1/2-y,z
1/2+x,1/2+y,1/2+z
1/2-x,-y,1/2+z
1/2+x,1/2-y,1/2-z
1/2-x,y,1/2-z
1/2-x,1/2-y,1/2-z
1/2+x,y,1/2-z
1/2-x,1/2+y,1/2+z
1/2+x,-y,1/2+z
loop_
_atom_site_type_symbol
_atom_site_label
_atom_site_fract_x
_atom_site_fract_y
_atom_site_fract_z
Si Si1 0.762181 0.918628 0.958605
Si Si2 0.500000 0.577007 0.043217
Si Si3 0.924664 0.424433 0.731447
Si Si4 0.623164 0.580203 0.921540
Si Si5 0.199253 0.425416 0.131593
Si Si6 0.425427 0.922262 0.684242
Si Si7 0.675172 0.426477 0.841280
O O1 0.784878 0.750000 0.964125
O O2 0.682145 0.933496 0.955088
O O3 0.795030 0.981570 0.916106
O O4 0.787469 0.000000 0.000000
O O5 0.500000 0.750000 0.035706
O O6 0.564835 0.531957 0.068023
O O7 0.500000 0.500000 0.000000
O O8 0.924574 0.250000 0.737247
O O9 0.902352 0.493767 0.774683
O O10 0.869119 0.471426 0.698152
O O11 0.000000 0.477596 0.718670
O O12 0.597390 0.750000 0.919409
O O13 0.647955 0.528128 0.877574
O O14 0.217863 0.250000 0.133977
O O15 0.124295 0.458657 0.146624
O O16 0.247855 0.519980 0.162189
O O17 0.500000 0.971533 0.670669
O O18 0.423220 0.750000 0.695463
O O19 0.670998 0.250000 0.850332
#
# Coordination Sequence:
#
# PCOD8299650 Si02
#       7
#    16   8  16  16  16  16  16
#     4   9  18  32  51  72  97 127 161 202 250 302
#     4  12  24  36  50  70  98 134 178 224 270 318
#     4   9  19  34  50  71 103 138 170 210 258 302
#     4  10  21  36  51  71  99 133 173 219 267 308
#     4   9  19  35  52  74 105 133 163 212 262 304
#     4   9  18  34  56  78  98 129 173 211 251 308
#     4  10  20  33  51  75 102 136 175 212 256 311
#
# _framework density 17.828716
#
# number of rings (size 3 to 8) (size 9 to 14) (size 15 to 20)
#    0.000    2.462    0.000    3.000    1.077    6.769 
#    0.000    3.077    0.000    0.462    0.000    0.000 
#    0.000    0.000    0.000    0.000    0.000    0.308 
#
# Total GULP energy -644587.267789 kJ/mol
# GULP energy per Si atom -12395.908996 kJ/mol
# Density = 1.778814 g / cm^3
# Si number density = 17.828716 Si / 1000 Ang^3
#
#
#
# Elastic Constant Matrix: (Units=GPa)
#
#
# Indices 1 2 3 4 5 6 
#
# 1 93.3299 30.2067 58.2449 0.0000 0.0000 0.0000
# 2 30.2067 63.2593 33.9334 0.0000 0.0000 0.0000
# 3 58.2449 33.9334 101.4299 0.0000 0.0000 0.0000
# 4 0.0000 0.0000 0.0000 31.4615 0.0000 0.0000
# 5 0.0000 0.0000 0.0000 0.0000 16.2361 0.0000
# 6 0.0000 0.0000 0.0000 0.0000 0.0000 22.4757
#
#
#
# Elastic Compliance Matrix: (Units=1/GPa)
#
#
# Indices 1 2 3 4 5 6 
#
# 1 0.017340 -0.003581 -0.008759 0.000000 0.000000 0.000000
# 2 -0.003581 0.020005 -0.004636 0.000000 0.000000 0.000000
# 3 -0.008759 -0.004636 0.016440 0.000000 0.000000 0.000000
# 4 0.000000 0.000000 0.000000 0.031785 0.000000 0.000000
# 5 0.000000 0.000000 0.000000 0.000000 0.061591 0.000000
# 6 0.000000 0.000000 0.000000 0.000000 0.000000 0.044493
#
#
# Mechanical properties :
#
#
# Convention : Reuss Voigt Hill
#
# Bulk Modulus (GPa) = 50.42455 55.86544 53.14500
# Shear Modulus (GPa) = 21.53151 23.07694 22.30422
#
# Velocity S-wave (km/s) = 3.47895 3.60164 3.54082
# Velocity P-wave (km/s) = 6.66945 6.97841 6.82568
#
# Compressibility (1/GPa) = 0.01983161
#
# Stress axis : x y z
#
# Youngs Moduli (GPa) = 57.66925 49.98759 60.82758
#
# Poissons Ratio (x) = 0.17903 0.53280
# Poissons Ratio (y) = 0.20654 0.28200
# Poissons Ratio (z) = 0.50514 0.23175
#
# Static dielectric constant tensor:
#      x y z
#    x 3.459710 0.000000 0.000000 
#    y 0.000000 3.194050 0.000000 
#    z 0.000000 0.000000 3.102180 
# 
# 
# High freq. dielectric constant tensor:
#      x y z
#    x 1.679830 0.000000 0.000000 
#    y 0.000000 1.690930 0.000000 
#    z 0.000000 0.000000 1.683510 
# 
# From -- ./inp_files/73432.got.cif
#   From: 2010.03.12/outbox.cif.g09.slc.cpg/sg74_37_cif.got.tgz:73432.got - 2010.04.16 15:46:19.
