data_PCOD8299815
_publ_section_title
;
Structure prediction by ZEFSAII (Michael W. Deem and Ramdas Pophale) SiO2 
 PCOD8299815
Probable space group: I M M A
;
_chemical_formula_sum "Si O2"
_cell_formula_units_Z 80
_cell_length_a 8.533614
_cell_length_b 18.464106
_cell_length_c 26.954474
_cell_angle_alpha 90.000000
_cell_angle_beta 90.000000
_cell_angle_gamma 90.000000
_cell_volume 4247.096614
_symmetry_space_group_name_H-M "I M M A"
_symmetry_group_IT_number 74
_symmetry_cell_setting 'orthorhombic'
loop_
_space_group_symop_operation_xyz
x,y,z
-x,1/2-y,z
x,-y,-z
-x,1/2+y,-z
-x,-y,-z
x,1/2+y,-z
-x,y,z
x,1/2-y,z
1/2+x,1/2+y,1/2+z
1/2-x,-y,1/2+z
1/2+x,1/2-y,1/2-z
1/2-x,y,1/2-z
1/2-x,1/2-y,1/2-z
1/2+x,y,1/2-z
1/2-x,1/2+y,1/2+z
1/2+x,-y,1/2+z
loop_
_atom_site_type_symbol
_atom_site_label
_atom_site_fract_x
_atom_site_fract_y
_atom_site_fract_z
Si Si1 0.815804 0.101148 0.696820
Si Si2 0.315868 0.832185 0.803254
Si Si3 0.183955 0.167480 0.901128
Si Si4 0.183083 0.531249 0.446663
Si Si5 0.317964 0.465309 0.351273
O O1 0.750000 0.125289 0.750000
O O2 0.737530 0.150828 0.654826
O O3 0.000000 0.113416 0.695661
O O4 0.776539 0.017132 0.686329
O O5 0.500000 0.844139 0.803538
O O6 0.270103 0.750000 0.816588
O O7 0.250000 0.854383 0.750000
O O8 0.235124 0.882774 0.843955
O O9 0.226769 0.250000 0.914520
O O10 0.271414 0.115910 0.940927
O O11 0.000000 0.152897 0.904808
O O12 0.228603 0.500000 0.500000
O O13 0.282489 0.484958 0.407836
O O14 0.000000 0.521754 0.435407
O O15 0.500000 0.475024 0.339953
#
# Coordination Sequence:
#
# PCOD8299815 Si02
#       5
#    16  16  16  16  16
#     4  11  21  34  53  77 108 144 182 219 258 308
#     4  10  20  34  52  75 106 142 179 219 264 315
#     4  10  21  37  57  82 111 141 175 216 263 314
#     4  10  21  38  60  83 106 136 176 219 265 316
#     4  11  21  34  54  78 106 138 176 221 266 316
#
# _framework density 18.836397000000002
#
# number of rings (size 3 to 8) (size 9 to 14) (size 15 to 20)
#    0.000    1.600    0.000    8.400    0.000    4.800 
#    0.000    1.000    0.000    1.200    0.000    0.000 
#    0.000    0.000    0.000    0.000    0.000    0.000 
#
# Total GULP energy -496149.580810 kJ/mol
# GULP energy per Si atom -12403.739520 kJ/mol
# Density = 1.879352 g / cm^3
# Si number density = 18.836397 Si / 1000 Ang^3
#
#
#
# Elastic Constant Matrix: (Units=GPa)
#
#
# Indices 1 2 3 4 5 6 
#
# 1 52.5761 26.2122 15.4387 0.0000 0.0000 0.0000
# 2 26.2122 121.9196 50.2624 0.0000 0.0000 0.0000
# 3 15.4387 50.2624 89.9213 0.0000 0.0000 0.0000
# 4 0.0000 0.0000 0.0000 19.3965 0.0000 0.0000
# 5 0.0000 0.0000 0.0000 0.0000 31.2775 0.0000
# 6 0.0000 0.0000 0.0000 0.0000 0.0000 32.5326
#
#
#
# Elastic Compliance Matrix: (Units=1/GPa)
#
#
# Indices 1 2 3 4 5 6 
#
# 1 0.021445 -0.004019 -0.001436 0.000000 0.000000 0.000000
# 2 -0.004019 0.011411 -0.005688 0.000000 0.000000 0.000000
# 3 -0.001436 -0.005688 0.014547 0.000000 0.000000 0.000000
# 4 0.000000 0.000000 0.000000 0.051556 0.000000 0.000000
# 5 0.000000 0.000000 0.000000 0.000000 0.031972 0.000000
# 6 0.000000 0.000000 0.000000 0.000000 0.000000 0.030738
#
#
# Mechanical properties :
#
#
# Convention : Reuss Voigt Hill
#
# Bulk Modulus (GPa) = 39.81255 49.80484 44.80870
# Shear Modulus (GPa) = 25.99730 28.14155 27.06943
#
# Velocity S-wave (km/s) = 3.71908 3.86942 3.79500
# Velocity P-wave (km/s) = 6.29476 6.81626 6.56069
#
# Compressibility (1/GPa) = 0.02511771
#
# Stress axis : x y z
#
# Youngs Moduli (GPa) = 46.63044 87.63276 68.74306
#
# Poissons Ratio (x) = 0.35218 0.09869
# Poissons Ratio (y) = 0.18740 0.39104
# Poissons Ratio (z) = 0.06694 0.49849
#
# Static dielectric constant tensor:
#      x y z
#    x 3.583130 0.000000 0.000000 
#    y 0.000000 3.580620 0.000000 
#    z 0.000000 0.000000 3.458380 
# 
# 
# High freq. dielectric constant tensor:
#      x y z
#    x 1.751670 0.000000 0.000000 
#    y 0.000000 1.734020 0.000000 
#    z 0.000000 0.000000 1.712970 
# 
# From -- ./inp_files/70386.got.cif
#   From: 2010.03.12/outbox.cif.g09.slc.cpg/sg74_36_cif.got.tgz:70386.got - 2010.04.16 15:46:19.
