data_PCOD8299241
_publ_section_title
;
Structure prediction by ZEFSAII (Michael W. Deem and Ramdas Pophale) SiO2 
 PCOD8299241
Probable space group: I M M A
;
_chemical_formula_sum "Si O2"
_cell_formula_units_Z 96
_cell_length_a 14.088117
_cell_length_b 15.215601
_cell_length_c 22.253683
_cell_angle_alpha 90.000000
_cell_angle_beta 90.000000
_cell_angle_gamma 90.000000
_cell_volume 4770.280953
_symmetry_space_group_name_H-M "I M M A"
_symmetry_group_IT_number 74
_symmetry_cell_setting 'orthorhombic'
loop_
_space_group_symop_operation_xyz
x,y,z
-x,1/2-y,z
x,-y,-z
-x,1/2+y,-z
-x,-y,-z
x,1/2+y,-z
-x,y,z
x,1/2-y,z
1/2+x,1/2+y,1/2+z
1/2-x,-y,1/2+z
1/2+x,1/2-y,1/2-z
1/2-x,y,1/2-z
1/2-x,1/2-y,1/2-z
1/2+x,y,1/2-z
1/2-x,1/2+y,1/2+z
1/2+x,-y,1/2+z
loop_
_atom_site_type_symbol
_atom_site_label
_atom_site_fract_x
_atom_site_fract_y
_atom_site_fract_z
Si Si1 0.779552 0.653332 0.816292
Si Si2 0.752222 0.650874 0.382260
Si Si3 0.393457 0.425827 0.802028
Si Si4 0.894204 0.648127 0.487788
Si Si5 0.606290 0.903553 0.881488
Si Si6 0.889911 0.016673 0.833300
O O1 0.828317 0.750000 0.815684
O O2 0.750000 0.623280 0.750000
O O3 0.684354 0.662631 0.855797
O O4 0.851844 0.582099 0.843924
O O5 0.713215 0.750000 0.388856
O O6 0.818938 0.648213 0.322631
O O7 0.815073 0.622549 0.439454
O O8 0.663563 0.584882 0.376928
O O9 0.500000 0.388280 0.805335
O O10 0.376596 0.503557 0.849642
O O11 0.370312 0.457153 0.735269
O O12 0.884819 0.750000 0.506922
O O13 0.879999 0.587847 0.546762
O O14 0.000000 0.630883 0.460628
O O15 0.500000 0.868491 0.866774
O O16 0.000000 0.019087 0.850269
#
# Coordination Sequence:
#
# PCOD8299241 Si02
#       6
#    16  16  16  16  16  16
#     4  11  21  35  58  87 120 158 196 235 291 355
#     4  11  22  38  60  84 117 158 200 248 299 348
#     4  10  20  35  57  86 121 155 188 235 297 359
#     4   9  19  35  57  90 126 155 189 237 294 362
#     4  10  19  35  60  89 122 155 184 226 292 362
#     4  11  23  41  58  80 118 156 201 256 294 337
#
# _framework density 20.124600999999998
#
# number of rings (size 3 to 8) (size 9 to 14) (size 15 to 20)
#    0.000    1.667    3.333    1.500    0.000    4.667 
#    0.000    5.833    0.000    2.000    0.000    2.333 
#    0.000    0.000    0.000    0.000    0.000    0.000 
#
# Total GULP energy -595116.760142 kJ/mol
# GULP energy per Si atom -12398.265836 kJ/mol
# Density = 2.007880 g / cm^3
# Si number density = 20.124601 Si / 1000 Ang^3
#
#
#
# Elastic Constant Matrix: (Units=GPa)
#
#
# Indices 1 2 3 4 5 6 
#
# 1 133.1443 53.3005 59.5831 0.0000 0.0000 0.0000
# 2 53.3005 91.7792 37.4465 0.0000 0.0000 0.0000
# 3 59.5831 37.4465 92.6729 0.0000 0.0000 0.0000
# 4 0.0000 0.0000 0.0000 190.6178 0.0000 0.0000
# 5 0.0000 0.0000 0.0000 0.0000 34.0290 0.0000
# 6 0.0000 0.0000 0.0000 0.0000 0.0000 11.8249
#
#
#
# Elastic Compliance Matrix: (Units=1/GPa)
#
#
# Indices 1 2 3 4 5 6 
#
# 1 0.011948 -0.004556 -0.005841 0.000000 0.000000 0.000000
# 2 -0.004556 0.014784 -0.003045 0.000000 0.000000 0.000000
# 3 -0.005841 -0.003045 0.015776 0.000000 0.000000 0.000000
# 4 0.000000 0.000000 0.000000 0.005246 0.000000 0.000000
# 5 0.000000 0.000000 0.000000 0.000000 0.029387 0.000000
# 6 0.000000 0.000000 0.000000 0.000000 0.000000 0.084567
#
#
# Mechanical properties :
#
#
# Convention : Reuss Voigt Hill
#
# Bulk Modulus (GPa) = 63.99863 68.69520 66.34692
# Shear Modulus (GPa) = 25.79975 58.44542 42.12258
#
# Velocity S-wave (km/s) = 3.58439 5.39489 4.57999
# Velocity P-wave (km/s) = 7.00005 8.54491 7.81077
#
# Compressibility (1/GPa) = 0.01562533
#
# Stress axis : x y z
#
# Youngs Moduli (GPa) = 83.69309 67.64227 63.38553
#
# Poissons Ratio (x) = 0.30816 0.37025
# Poissons Ratio (y) = 0.38128 0.19298
# Poissons Ratio (z) = 0.48887 0.20594
#
# Static dielectric constant tensor:
#      x y z
#    x 3.657530 0.000000 0.000000 
#    y 0.000000 3.563990 0.000000 
#    z 0.000000 0.000000 3.544640 
# 
# 
# High freq. dielectric constant tensor:
#      x y z
#    x 1.774550 0.000000 0.000000 
#    y 0.000000 1.784480 0.000000 
#    z 0.000000 0.000000 1.770070 
# 
# From -- ./inp_files/51872.got.cif
#   From: 2010.03.12/outbox.cif.g09.slc.cpg/sg74_26_cif.got.tgz:51872.got - 2010.04.16 15:46:19.
