data_PCOD8299931
_publ_section_title
;
Structure prediction by ZEFSAII (Michael W. Deem and Ramdas Pophale) SiO2 
 PCOD8299931
Probable space group: I M M A
;
_chemical_formula_sum "Si O2"
_cell_formula_units_Z 64
_cell_length_a 17.200595
_cell_length_b 24.197310
_cell_length_c 8.089098
_cell_angle_alpha 90.000000
_cell_angle_beta 90.000000
_cell_angle_gamma 90.000000
_cell_volume 3366.748347
_symmetry_space_group_name_H-M "I M M A"
_symmetry_group_IT_number 74
_symmetry_cell_setting 'orthorhombic'
loop_
_space_group_symop_operation_xyz
x,y,z
-x,1/2-y,z
x,-y,-z
-x,1/2+y,-z
-x,-y,-z
x,1/2+y,-z
-x,y,z
x,1/2-y,z
1/2+x,1/2+y,1/2+z
1/2-x,-y,1/2+z
1/2+x,1/2-y,1/2-z
1/2-x,y,1/2-z
1/2-x,1/2-y,1/2-z
1/2+x,y,1/2-z
1/2-x,1/2+y,1/2+z
1/2+x,-y,1/2+z
loop_
_atom_site_type_symbol
_atom_site_label
_atom_site_fract_x
_atom_site_fract_y
_atom_site_fract_z
Si Si1 0.776730 0.061895 0.938129
Si Si2 0.315273 0.350123 0.125281
Si Si3 0.177190 0.750000 0.377295
Si Si4 0.911160 0.750000 0.069139
Si Si5 0.908768 0.135645 0.071459
O O1 0.750000 0.064913 0.750000
O O2 0.711251 0.092736 0.043837
O O3 0.861170 0.089613 0.969143
O O4 0.782253 0.000000 0.000000
O O5 0.250000 0.327477 0.250000
O O6 0.392605 0.365026 0.231003
O O7 0.328531 0.304410 0.986902
O O8 0.250000 0.750000 0.250000
O O9 0.100205 0.750000 0.265798
O O10 0.000000 0.750000 0.020440
O O11 0.874920 0.805383 0.991312
O O12 0.000000 0.126559 0.036756
#
# Coordination Sequence:
#
# PCOD8299931 Si02
#       5
#    16  16   8   8  16
#     4  11  22  39  60  82 109 143 183 228 278 329
#     4  10  20  34  54  80 109 144 183 225 272 324
#     4  12  20  31  54  83 112 143 187 227 265 322
#     4  10  21  35  51  77 112 145 175 217 274 324
#     4  10  21  38  58  81 112 148 185 226 276 330
#
# _framework density 19.009440000000001
#
# number of rings (size 3 to 8) (size 9 to 14) (size 15 to 20)
#    0.000    1.500    0.000    8.625    0.000    1.500 
#    0.000    1.250    0.000    3.000    0.000    0.000 
#    0.000    0.000    0.000    0.000    0.000    0.000 
#
# Total GULP energy -396711.393844 kJ/mol
# GULP energy per Si atom -12397.231058 kJ/mol
# Density = 1.896617 g / cm^3
# Si number density = 19.009440 Si / 1000 Ang^3
#
#
#
# Elastic Constant Matrix: (Units=GPa)
#
#
# Indices 1 2 3 4 5 6 
#
# 1 79.5977 57.5807 57.4754 0.0000 0.0000 0.0000
# 2 57.5807 172.3929 68.1053 0.0000 0.0000 0.0000
# 3 57.4754 68.1053 144.0612 0.0000 0.0000 0.0000
# 4 0.0000 0.0000 0.0000 62.9884 0.0000 0.0000
# 5 0.0000 0.0000 0.0000 0.0000 1.5011 0.0000
# 6 0.0000 0.0000 0.0000 0.0000 0.0000 -11.6753
#
#
#
# Elastic Compliance Matrix: (Units=1/GPa)
#
#
# Indices 1 2 3 4 5 6 
#
# 1 0.019972 -0.004332 -0.005920 0.000000 0.000000 0.000000
# 2 -0.004332 0.008072 -0.002088 0.000000 0.000000 0.000000
# 3 -0.005920 -0.002088 0.010290 0.000000 0.000000 0.000000
# 4 0.000000 0.000000 0.000000 0.015876 0.000000 0.000000
# 5 0.000000 0.000000 0.000000 0.000000 0.666197 0.000000
# 6 0.000000 0.000000 0.000000 0.000000 0.000000 -0.085651
#
#
# Mechanical properties :
#
#
# Convention : Reuss Voigt Hill
#
# Bulk Modulus (GPa) = 73.23521 84.70829 78.97175
# Shear Modulus (GPa) = 7.53025 24.75552 16.14289
#
# Velocity S-wave (km/s) = 1.99247 3.61262 2.91727
# Velocity P-wave (km/s) = 6.62590 7.87777 7.27880
#
# Compressibility (1/GPa) = 0.01365463
#
# Stress axis : x y z
#
# Youngs Moduli (GPa) = 50.07119 123.87756 97.17707
#
# Poissons Ratio (x) = 0.53663 0.57529
# Poissons Ratio (y) = 0.21690 0.20291
# Poissons Ratio (z) = 0.29642 0.25866
#
# Static dielectric constant tensor:
#      x y z
#    x 3.357410 0.000000 0.000000 
#    y 0.000000 3.603140 0.000000 
#    z 0.000000 0.000000 3.913170 
# 
# 
# High freq. dielectric constant tensor:
#      x y z
#    x 1.725120 0.000000 0.000000 
#    y 0.000000 1.745090 0.000000 
#    z 0.000000 0.000000 1.754970 
# 
# From -- ./inp_files/10262.got.cif
#   From: 2010.03.12/outbox.cif.g09.slc.cpg/sg74_6_cif.got.tgz:10262.got - 2010.04.16 15:46:19.
