data_PCOD8299500
_publ_section_title
;
Structure prediction by ZEFSAII (Michael W. Deem and Ramdas Pophale) SiO2 
 PCOD8299500
Probable space group: I M M A
;
_chemical_formula_sum "Si O2"
_cell_formula_units_Z 104
_cell_length_a 20.842529
_cell_length_b 9.488282
_cell_length_c 27.762236
_cell_angle_alpha 90.000000
_cell_angle_beta 90.000000
_cell_angle_gamma 90.000000
_cell_volume 5490.254038
_symmetry_space_group_name_H-M "I M M A"
_symmetry_group_IT_number 74
_symmetry_cell_setting 'orthorhombic'
loop_
_space_group_symop_operation_xyz
x,y,z
-x,1/2-y,z
x,-y,-z
-x,1/2+y,-z
-x,-y,-z
x,1/2+y,-z
-x,y,z
x,1/2-y,z
1/2+x,1/2+y,1/2+z
1/2-x,-y,1/2+z
1/2+x,1/2-y,1/2-z
1/2-x,y,1/2-z
1/2-x,1/2-y,1/2-z
1/2+x,y,1/2-z
1/2-x,1/2+y,1/2+z
1/2+x,-y,1/2+z
loop_
_atom_site_type_symbol
_atom_site_label
_atom_site_fract_x
_atom_site_fract_y
_atom_site_fract_z
Si Si1 0.925501 0.584458 0.192515
Si Si2 0.872132 0.410152 0.386320
Si Si3 0.500000 0.910603 0.547174
Si Si4 0.426774 0.096740 0.959540
Si Si5 0.250551 0.586051 0.950935
Si Si6 0.426622 0.090719 0.214488
Si Si7 0.374859 0.914143 0.607065
O O1 0.910904 0.750000 0.193217
O O2 0.908707 0.520640 0.244559
O O3 0.878122 0.509024 0.154876
O O4 0.000000 0.553450 0.179908
O O5 0.892239 0.250000 0.398840
O O6 0.923276 0.518001 0.408740
O O7 0.803423 0.446462 0.409736
O O8 0.875988 0.433766 0.328983
O O9 0.500000 0.750000 0.530742
O O10 0.438278 0.948824 0.577792
O O11 0.500000 0.000000 0.500000
O O12 0.500000 0.119184 0.974165
O O13 0.392589 0.250000 0.957903
O O14 0.391657 0.000000 0.000000
O O15 0.249525 0.750000 0.964877
O O16 0.184160 0.539141 0.926326
O O17 0.262141 0.500000 0.000000
O O18 0.500000 0.067930 0.196457
O O19 0.419039 0.250000 0.234634
O O20 0.369885 0.750000 0.621915
#
# Coordination Sequence:
#
# PCOD8299500 Si02
#       7
#    16  16   8  16  16  16  16
#     4  10  20  34  55  84 112 138 173 222 276 326
#     4  10  20  35  54  77 105 141 184 225 269 320
#     4  10  20  32  52  80 108 138 174 218 267 322
#     4  10  20  32  48  72 101 134 174 223 276 326
#     4  10  22  38  56  79 109 145 185 226 268 321
#     4   9  18  33  55  80 107 141 179 221 270 324
#     4  10  20  36  56  79 108 144 182 219 267 327
#
# _framework density 18.942658000000002
#
# number of rings (size 3 to 8) (size 9 to 14) (size 15 to 20)
#    0.000    2.154    0.769    2.308    0.000    5.846 
#    0.000    2.308    0.000    4.615    0.000    0.000 
#    0.000    0.000    0.000    0.000    0.000    0.000 
#
# Total GULP energy -644691.480971 kJ/mol
# GULP energy per Si atom -12397.913096 kJ/mol
# Density = 1.889954 g / cm^3
# Si number density = 18.942658 Si / 1000 Ang^3
#
#
#
# Elastic Constant Matrix: (Units=GPa)
#
#
# Indices 1 2 3 4 5 6 
#
# 1 79.3441 34.3965 50.2670 0.0000 0.0000 0.0000
# 2 34.3965 116.7608 76.4312 0.0000 0.0000 0.0000
# 3 50.2670 76.4312 128.0776 0.0000 0.0000 0.0000
# 4 0.0000 0.0000 0.0000 39.6301 0.0000 0.0000
# 5 0.0000 0.0000 0.0000 0.0000 33.1976 0.0000
# 6 0.0000 0.0000 0.0000 0.0000 0.0000 16.6564
#
#
#
# Elastic Compliance Matrix: (Units=1/GPa)
#
#
# Indices 1 2 3 4 5 6 
#
# 1 0.016851 -0.001042 -0.005992 0.000000 0.000000 0.000000
# 2 -0.001042 0.014119 -0.008017 0.000000 0.000000 0.000000
# 3 -0.005992 -0.008017 0.014943 0.000000 0.000000 0.000000
# 4 0.000000 0.000000 0.000000 0.025233 0.000000 0.000000
# 5 0.000000 0.000000 0.000000 0.000000 0.030123 0.000000
# 6 0.000000 0.000000 0.000000 0.000000 0.000000 0.060037
#
#
# Mechanical properties :
#
#
# Convention : Reuss Voigt Hill
#
# Bulk Modulus (GPa) = 63.24054 71.81912 67.52983
# Shear Modulus (GPa) = 25.42218 28.76934 27.09576
#
# Velocity S-wave (km/s) = 3.66739 3.90135 3.78618
# Velocity P-wave (km/s) = 7.16873 7.63481 7.40544
#
# Compressibility (1/GPa) = 0.01581264
#
# Stress axis : x y z
#
# Youngs Moduli (GPa) = 59.34357 70.82535 66.91883
#
# Poissons Ratio (x) = 0.07380 0.40096
# Poissons Ratio (y) = 0.06183 0.53648
# Poissons Ratio (z) = 0.35557 0.56779
#
# Static dielectric constant tensor:
#      x y z
#    x 3.404600 0.000000 0.000000 
#    y 0.000000 3.640480 0.000000 
#    z 0.000000 0.000000 3.371870 
# 
# 
# High freq. dielectric constant tensor:
#      x y z
#    x 1.717850 0.000000 0.000000 
#    y 0.000000 1.740560 0.000000 
#    z 0.000000 0.000000 1.733820 
# 
# From -- ./inp_files/68210.got.cif
#   From: 2010.03.12/outbox.cif.g09.slc.cpg/sg74_35_cif.got.tgz:68210.got - 2010.04.16 15:46:19.
