data_PCOD8299444
_publ_section_title
;
Structure prediction by ZEFSAII (Michael W. Deem and Ramdas Pophale) SiO2 
 PCOD8299444
Probable space group: I M M A
;
_chemical_formula_sum "Si O2"
_cell_formula_units_Z 80
_cell_length_a 9.321500
_cell_length_b 18.394185
_cell_length_c 27.455840
_cell_angle_alpha 90.000000
_cell_angle_beta 90.000000
_cell_angle_gamma 90.000000
_cell_volume 4707.616640
_symmetry_space_group_name_H-M "I M M A"
_symmetry_group_IT_number 74
_symmetry_cell_setting 'orthorhombic'
loop_
_space_group_symop_operation_xyz
x,y,z
-x,1/2-y,z
x,-y,-z
-x,1/2+y,-z
-x,-y,-z
x,1/2+y,-z
-x,y,z
x,1/2-y,z
1/2+x,1/2+y,1/2+z
1/2-x,-y,1/2+z
1/2+x,1/2-y,1/2-z
1/2-x,y,1/2-z
1/2-x,1/2-y,1/2-z
1/2+x,y,1/2-z
1/2-x,1/2+y,1/2+z
1/2+x,-y,1/2+z
loop_
_atom_site_type_symbol
_atom_site_label
_atom_site_fract_x
_atom_site_fract_y
_atom_site_fract_z
Si Si1 0.834875 0.166053 0.201236
Si Si2 0.328905 0.330889 0.895998
Si Si3 0.165739 0.406277 0.701291
Si Si4 0.330177 0.030305 0.949830
Si Si5 0.334921 0.947499 0.853667
O O1 0.818012 0.250000 0.187155
O O2 0.750000 0.146679 0.250000
O O3 0.767217 0.120348 0.157368
O O4 0.000000 0.144428 0.209155
O O5 0.500000 0.332974 0.896016
O O6 0.270821 0.250000 0.908201
O O7 0.276643 0.354795 0.842250
O O8 0.271576 0.388661 0.936379
O O9 0.250000 0.387074 0.750000
O O10 0.189719 0.489901 0.686294
O O11 0.000000 0.390686 0.711579
O O12 0.500000 0.035205 0.955051
O O13 0.288965 0.975316 0.906823
O O14 0.261240 0.000000 0.000000
O O15 0.500000 0.921927 0.853467
#
# Coordination Sequence:
#
# PCOD8299444 Si02
#       5
#    16  16  16  16  16
#     4  10  20  32  46  65  90 120 152 186 225 270
#     4   8  14  25  40  58  83 114 144 175 215 259
#     4   9  17  27  40  61  87 115 146 177 210 252
#     4   8  14  26  44  65  89 116 148 187 225 261
#     4   9  17  29  45  65  90 118 147 183 226 269
#
# _framework density 16.993736999999999
#
# number of rings (size 3 to 8) (size 9 to 14) (size 15 to 20)
#    0.000    3.200    0.000    3.600    0.000    4.000 
#    0.000    1.000    0.000    4.200    0.000    0.000 
#    0.000    0.000    0.000    0.000    0.000    0.000 
#
# Total GULP energy -495812.951805 kJ/mol
# GULP energy per Si atom -12395.323795 kJ/mol
# Density = 1.695506 g / cm^3
# Si number density = 16.993737 Si / 1000 Ang^3
#
#
#
# Elastic Constant Matrix: (Units=GPa)
#
#
# Indices 1 2 3 4 5 6 
#
# 1 52.1248 43.7824 33.0742 0.0000 0.0000 0.0000
# 2 43.7824 120.3527 75.8534 0.0000 0.0000 0.0000
# 3 33.0742 75.8534 130.4196 0.0000 0.0000 0.0000
# 4 0.0000 0.0000 0.0000 19.7544 0.0000 0.0000
# 5 0.0000 0.0000 0.0000 0.0000 18.1390 0.0000
# 6 0.0000 0.0000 0.0000 0.0000 0.0000 17.8466
#
#
#
# Elastic Compliance Matrix: (Units=1/GPa)
#
#
# Indices 1 2 3 4 5 6 
#
# 1 0.027907 -0.008985 -0.001851 0.000000 0.000000 0.000000
# 2 -0.008985 0.016010 -0.007033 0.000000 0.000000 0.000000
# 3 -0.001851 -0.007033 0.012228 0.000000 0.000000 0.000000
# 4 0.000000 0.000000 0.000000 0.050622 0.000000 0.000000
# 5 0.000000 0.000000 0.000000 0.000000 0.055130 0.000000
# 6 0.000000 0.000000 0.000000 0.000000 0.000000 0.056033
#
#
# Mechanical properties :
#
#
# Convention : Reuss Voigt Hill
#
# Bulk Modulus (GPa) = 49.00677 67.59079 58.29878
# Shear Modulus (GPa) = 19.19610 21.16047 20.17828
#
# Velocity S-wave (km/s) = 3.36460 3.53256 3.44960
# Velocity P-wave (km/s) = 6.63285 7.51657 7.08850
#
# Compressibility (1/GPa) = 0.02040535
#
# Stress axis : x y z
#
# Youngs Moduli (GPa) = 35.83392 62.45987 81.78272
#
# Poissons Ratio (x) = 0.56122 0.15139
# Poissons Ratio (y) = 0.32198 0.57519
# Poissons Ratio (z) = 0.06633 0.43929
#
# Static dielectric constant tensor:
#      x y z
#    x 2.775460 0.000000 0.000000 
#    y 0.000000 3.362320 0.000000 
#    z 0.000000 0.000000 3.254400 
# 
# 
# High freq. dielectric constant tensor:
#      x y z
#    x 1.612250 0.000000 0.000000 
#    y 0.000000 1.658540 0.000000 
#    z 0.000000 0.000000 1.645930 
# 
# From -- ./inp_files/63924.got.cif
#   From: 2010.03.12/outbox.cif.g09.slc.cpg/sg74_32_cif.got.tgz:63924.got - 2010.04.16 15:46:19.
