data_PCOD8299220
_publ_section_title
;
Structure prediction by ZEFSAII (Michael W. Deem and Ramdas Pophale) SiO2 
 PCOD8299220
Probable space group: I M M A
;
_chemical_formula_sum "Si O2"
_cell_formula_units_Z 80
_cell_length_a 25.789450
_cell_length_b 16.744937
_cell_length_c 9.058477
_cell_angle_alpha 90.000000
_cell_angle_beta 90.000000
_cell_angle_gamma 90.000000
_cell_volume 3911.837306
_symmetry_space_group_name_H-M "I M M A"
_symmetry_group_IT_number 74
_symmetry_cell_setting 'orthorhombic'
loop_
_space_group_symop_operation_xyz
x,y,z
-x,1/2-y,z
x,-y,-z
-x,1/2+y,-z
-x,-y,-z
x,1/2+y,-z
-x,y,z
x,1/2-y,z
1/2+x,1/2+y,1/2+z
1/2-x,-y,1/2+z
1/2+x,1/2-y,1/2-z
1/2-x,y,1/2-z
1/2-x,1/2-y,1/2-z
1/2+x,y,1/2-z
1/2-x,1/2+y,1/2+z
1/2+x,-y,1/2+z
loop_
_atom_site_type_symbol
_atom_site_label
_atom_site_fract_x
_atom_site_fract_y
_atom_site_fract_z
Si Si1 0.191374 0.655451 0.908044
Si Si2 0.598553 0.154505 0.875616
Si Si3 0.094001 0.911765 0.056205
Si Si4 0.500000 0.655769 0.935490
Si Si5 0.307371 0.155808 0.076810
Si Si6 0.500000 0.158741 0.387555
O O1 0.184086 0.750000 0.919131
O O2 0.248763 0.630425 0.964381
O O3 0.180373 0.624276 0.741789
O O4 0.151936 0.612157 0.014856
O O5 0.599258 0.250000 0.840458
O O6 0.590522 0.101097 0.730902
O O7 0.551557 0.128620 0.980362
O O8 0.651520 0.125185 0.955994
O O9 0.051400 0.856965 0.980047
O O10 0.081330 0.000000 0.000000
O O11 0.500000 0.750000 0.925289
O O12 0.500000 0.614928 0.772494
O O13 0.311297 0.250000 0.085021
O O14 0.500000 0.250000 0.346648
#
# Coordination Sequence:
#
# PCOD8299220 Si02
#       6
#    16  16  16   8  16   8
#     4   9  17  35  59  82 109 148 191 235 282 333
#     4  10  19  35  58  86 114 144 184 236 283 327
#     4  12  25  38  52  81 120 152 183 225 276 337
#     4   9  19  35  62  90 106 127 178 237 286 338
#     4   8  16  32  59  87 110 141 194 246 279 320
#     4  11  22  41  65  82 101 143 190 231 280 338
#
# _framework density 20.450747
#
# number of rings (size 3 to 8) (size 9 to 14) (size 15 to 20)
#    0.000    2.200    0.000    5.100    0.000    4.800 
#    0.000   12.000    0.000    0.000    0.000    0.000 
#    0.000    0.000    0.000    0.000    0.000    0.000 
#
# Total GULP energy -495851.151279 kJ/mol
# GULP energy per Si atom -12396.278782 kJ/mol
# Density = 2.040420 g / cm^3
# Si number density = 20.450747 Si / 1000 Ang^3
#
#
#
# Elastic Constant Matrix: (Units=GPa)
#
#
# Indices 1 2 3 4 5 6 
#
# 1 149.5249 15.2036 82.4918 0.0000 0.0000 0.0000
# 2 15.2036 32.3568 22.6343 0.0000 0.0000 0.0000
# 3 82.4918 22.6343 163.7033 0.0000 0.0000 0.0000
# 4 0.0000 0.0000 0.0000 1.0533 0.0000 0.0000
# 5 0.0000 0.0000 0.0000 0.0000 96.7708 0.0000
# 6 0.0000 0.0000 0.0000 0.0000 0.0000 -39.7272
#
#
#
# Elastic Compliance Matrix: (Units=1/GPa)
#
#
# Indices 1 2 3 4 5 6 
#
# 1 0.009306 -0.001209 -0.004522 0.000000 0.000000 0.000000
# 2 -0.001209 0.034372 -0.004143 0.000000 0.000000 0.000000
# 3 -0.004522 -0.004143 0.008960 0.000000 0.000000 0.000000
# 4 0.000000 0.000000 0.000000 0.949412 0.000000 0.000000
# 5 0.000000 0.000000 0.000000 0.000000 0.010334 0.000000
# 6 0.000000 0.000000 0.000000 0.000000 0.000000 -0.025172
#
#
# Mechanical properties :
#
#
# Convention : Reuss Voigt Hill
#
# Bulk Modulus (GPa) = 30.40539 65.13828 47.77183
# Shear Modulus (GPa) = 4.91197 26.63639 15.77418
#
# Velocity S-wave (km/s) = 1.55147 3.61288 2.78029
# Velocity P-wave (km/s) = 4.25550 7.02313 5.80662
#
# Compressibility (1/GPa) = 0.03288891
#
# Stress axis : x y z
#
# Youngs Moduli (GPa) = 107.46287 29.09370 111.60566
#
# Poissons Ratio (x) = 0.03518 0.50468
# Poissons Ratio (y) = 0.12994 0.46239
# Poissons Ratio (z) = 0.48594 0.12054
#
# Static dielectric constant tensor:
#      x y z
#    x 4.195760 0.000000 0.000000 
#    y 0.000000 3.256410 0.000000 
#    z 0.000000 0.000000 3.906540 
# 
# 
# High freq. dielectric constant tensor:
#      x y z
#    x 1.818880 0.000000 0.000000 
#    y 0.000000 1.752910 0.000000 
#    z 0.000000 0.000000 1.806460 
# 
# From -- ./inp_files/11045.got.cif
#   From: 2010.03.12/outbox.cif.g09.slc.cpg/sg74_6_cif.got.tgz:11045.got - 2010.04.16 15:46:19.
