data_PCOD8299344
_publ_section_title
;
Structure prediction by ZEFSAII (Michael W. Deem and Ramdas Pophale) SiO2 
 PCOD8299344
Probable space group: I M M A
;
_chemical_formula_sum "Si O2"
_cell_formula_units_Z 80
_cell_length_a 19.177809
_cell_length_b 24.972343
_cell_length_c 8.839551
_cell_angle_alpha 90.000000
_cell_angle_beta 90.000000
_cell_angle_gamma 90.000000
_cell_volume 4233.392014
_symmetry_space_group_name_H-M "I M M A"
_symmetry_group_IT_number 74
_symmetry_cell_setting 'orthorhombic'
loop_
_space_group_symop_operation_xyz
x,y,z
-x,1/2-y,z
x,-y,-z
-x,1/2+y,-z
-x,-y,-z
x,1/2+y,-z
-x,y,z
x,1/2-y,z
1/2+x,1/2+y,1/2+z
1/2-x,-y,1/2+z
1/2+x,1/2-y,1/2-z
1/2-x,y,1/2-z
1/2-x,1/2-y,1/2-z
1/2+x,y,1/2-z
1/2-x,1/2+y,1/2+z
1/2+x,-y,1/2+z
loop_
_atom_site_type_symbol
_atom_site_label
_atom_site_fract_x
_atom_site_fract_y
_atom_site_fract_z
Si Si1 0.695033 0.157209 0.950373
Si Si2 0.581786 0.459001 0.636763
Si Si3 0.649263 0.156668 0.618059
Si Si4 0.920965 0.750000 0.953566
Si Si5 0.324486 0.250000 0.172439
Si Si6 0.309956 0.958656 0.125202
O O1 0.665909 0.175129 0.788107
O O2 0.778321 0.160725 0.971915
O O3 0.672356 0.095229 0.968391
O O4 0.662577 0.196376 0.074408
O O5 0.594895 0.500000 0.500000
O O6 0.500000 0.452921 0.671863
O O7 0.616300 0.402025 0.598996
O O8 0.621244 0.480583 0.787724
O O9 0.594561 0.197546 0.550285
O O10 0.882763 0.750000 0.796180
O O11 0.000000 0.750000 0.907656
O O12 0.250000 0.250000 0.250000
O O13 0.250000 0.945865 0.250000
O O14 0.282978 0.000000 0.000000
#
# Coordination Sequence:
#
# PCOD8299344 Si02
#       6
#    16  16  16   8   8  16
#     4  10  20  38  61  89 112 146 197 239 279 342
#     4  10  21  38  59  86 119 156 194 231 283 347
#     4  10  19  38  62  85 112 149 196 237 278 338
#     4  12  25  39  57  87 119 150 192 238 291 345
#     4  12  23  37  58  87 118 153 183 242 297 339
#     4  11  22  37  59  88 118 150 193 244 286 335
#
# _framework density 18.897376000000001
#
# number of rings (size 3 to 8) (size 9 to 14) (size 15 to 20)
#    0.000    1.400    6.000    1.800    0.000    4.400 
#    0.000    6.000    0.000    0.000    0.000    0.000 
#    0.000    0.000    0.000    0.000    0.000    0.000 
#
# Total GULP energy -495887.129688 kJ/mol
# GULP energy per Si atom -12397.178242 kJ/mol
# Density = 1.885436 g / cm^3
# Si number density = 18.897376 Si / 1000 Ang^3
#
#
#
# Elastic Constant Matrix: (Units=GPa)
#
#
# Indices 1 2 3 4 5 6 
#
# 1 121.9023 37.8122 44.8230 0.0000 0.0000 0.0000
# 2 37.8122 113.4943 65.9078 0.0000 0.0000 0.0000
# 3 44.8230 65.9078 82.8211 0.0000 0.0000 0.0000
# 4 0.0000 0.0000 0.0000 33.4671 0.0000 0.0000
# 5 0.0000 0.0000 0.0000 0.0000 30.7050 0.0000
# 6 0.0000 0.0000 0.0000 0.0000 0.0000 24.5638
#
#
#
# Elastic Compliance Matrix: (Units=1/GPa)
#
#
# Indices 1 2 3 4 5 6 
#
# 1 0.010249 -0.000360 -0.005261 0.000000 0.000000 0.000000
# 2 -0.000360 0.016394 -0.012851 0.000000 0.000000 0.000000
# 3 -0.005261 -0.012851 0.025148 0.000000 0.000000 0.000000
# 4 0.000000 0.000000 0.000000 0.029880 0.000000 0.000000
# 5 0.000000 0.000000 0.000000 0.000000 0.032568 0.000000
# 6 0.000000 0.000000 0.000000 0.000000 0.000000 0.040710
#
#
# Mechanical properties :
#
#
# Convention : Reuss Voigt Hill
#
# Bulk Modulus (GPa) = 67.34965 68.36708 67.85837
# Shear Modulus (GPa) = 25.40110 29.05882 27.22996
#
# Velocity S-wave (km/s) = 3.67026 3.92563 3.80009
# Velocity P-wave (km/s) = 7.32653 7.53684 7.43243
#
# Compressibility (1/GPa) = 0.01484789
#
# Stress axis : x y z
#
# Youngs Moduli (GPa) = 97.56876 60.99882 39.76447
#
# Poissons Ratio (x) = 0.02194 0.20919
# Poissons Ratio (y) = 0.03510 0.51102
# Poissons Ratio (z) = 0.51327 0.78391
#
# Static dielectric constant tensor:
#      x y z
#    x 4.339170 0.000000 0.000000 
#    y 0.000000 3.526520 0.000000 
#    z 0.000000 0.000000 3.255280 
# 
# 
# High freq. dielectric constant tensor:
#      x y z
#    x 1.726200 0.000000 0.000000 
#    y 0.000000 1.746320 0.000000 
#    z 0.000000 0.000000 1.727600 
# 
# From -- ./inp_files/11004.got.cif
#   From: 2010.03.12/outbox.cif.g09.slc.cpg/sg74_6_cif.got.tgz:11004.got - 2010.04.16 15:46:19.
