data_PCOD8299210
_publ_section_title
;
Structure prediction by ZEFSAII (Michael W. Deem and Ramdas Pophale) SiO2 
 PCOD8299210
Probable space group: I M M A
;
_chemical_formula_sum "Si O2"
_cell_formula_units_Z 104
_cell_length_a 21.460366
_cell_length_b 8.781089
_cell_length_c 27.034133
_cell_angle_alpha 90.000000
_cell_angle_beta 90.000000
_cell_angle_gamma 90.000000
_cell_volume 5094.457569
_symmetry_space_group_name_H-M "I M M A"
_symmetry_group_IT_number 74
_symmetry_cell_setting 'orthorhombic'
loop_
_space_group_symop_operation_xyz
x,y,z
-x,1/2-y,z
x,-y,-z
-x,1/2+y,-z
-x,-y,-z
x,1/2+y,-z
-x,y,z
x,1/2-y,z
1/2+x,1/2+y,1/2+z
1/2-x,-y,1/2+z
1/2+x,1/2-y,1/2-z
1/2-x,y,1/2-z
1/2-x,1/2-y,1/2-z
1/2+x,y,1/2-z
1/2-x,1/2+y,1/2+z
1/2+x,-y,1/2+z
loop_
_atom_site_type_symbol
_atom_site_label
_atom_site_fract_x
_atom_site_fract_y
_atom_site_fract_z
Si Si1 0.385991 0.930123 0.382565
Si Si2 0.500000 0.928731 0.447386
Si Si3 0.215010 0.429326 0.051994
Si Si4 0.572388 0.574005 0.947983
Si Si5 0.676575 0.929690 0.106629
Si Si6 0.190977 0.930572 0.281430
Si Si7 0.429640 0.069012 0.724822
O O1 0.374085 0.750000 0.383198
O O2 0.439566 0.985422 0.419088
O O3 0.405945 0.986495 0.328578
O O4 0.324293 0.013075 0.401055
O O5 0.500000 0.750000 0.451735
O O6 0.500000 0.000000 0.500000
O O7 0.210823 0.250000 0.046868
O O8 0.284454 0.483738 0.064352
O O9 0.191931 0.500000 0.000000
O O10 0.500000 0.553306 0.937106
O O11 0.592258 0.750000 0.948677
O O12 0.606119 0.483855 0.903377
O O13 0.591281 0.500000 0.000000
O O14 0.683392 0.750000 0.099928
O O15 0.697975 0.979807 0.161577
O O16 0.190823 0.750000 0.275688
O O17 0.250000 0.996496 0.250000
O O18 0.123374 0.992010 0.262626
O O19 0.500000 0.004793 0.736081
O O20 0.433655 0.250000 0.725726
#
# Coordination Sequence:
#
# PCOD8299210 Si02
#       7
#    16   8  16  16  16  16  16
#     4  10  19  35  57  83 114 148 190 234 284 335
#     4  10  20  32  50  78 110 146 184 228 279 330
#     4  12  25  40  58  82 113 152 194 237 288 345
#     4  10  21  38  60  86 118 155 191 230 281 344
#     4  11  22  37  59  87 117 149 189 241 292 343
#     4   9  18  32  53  84 116 147 188 241 296 342
#     4   9  16  30  55  85 116 150 190 238 288 340
#
# _framework density 20.414342000000001
#
# number of rings (size 3 to 8) (size 9 to 14) (size 15 to 20)
#    0.000    1.846    0.769    4.154    0.000    5.846 
#    0.000    1.538    0.000    8.308    0.000    0.000 
#    0.000    0.000    0.000    0.000    0.000    0.000 
#
# Total GULP energy -644739.580984 kJ/mol
# GULP energy per Si atom -12398.838096 kJ/mol
# Density = 2.036788 g / cm^3
# Si number density = 20.414342 Si / 1000 Ang^3
#
#
#
# Elastic Constant Matrix: (Units=GPa)
#
#
# Indices 1 2 3 4 5 6 
#
# 1 116.0671 27.2693 43.8998 0.0000 0.0000 0.0000
# 2 27.2693 61.4865 30.4551 0.0000 0.0000 0.0000
# 3 43.8998 30.4551 90.2223 0.0000 0.0000 0.0000
# 4 0.0000 0.0000 0.0000 21.7465 0.0000 0.0000
# 5 0.0000 0.0000 0.0000 0.0000 46.1258 0.0000
# 6 0.0000 0.0000 0.0000 0.0000 0.0000 21.3913
#
#
#
# Elastic Compliance Matrix: (Units=1/GPa)
#
#
# Indices 1 2 3 4 5 6 
#
# 1 0.010908 -0.002652 -0.004412 0.000000 0.000000 0.000000
# 2 -0.002652 0.020174 -0.005519 0.000000 0.000000 0.000000
# 3 -0.004412 -0.005519 0.015094 0.000000 0.000000 0.000000
# 4 0.000000 0.000000 0.000000 0.045985 0.000000 0.000000
# 5 0.000000 0.000000 0.000000 0.000000 0.021680 0.000000
# 6 0.000000 0.000000 0.000000 0.000000 0.000000 0.046748
#
#
# Mechanical properties :
#
#
# Convention : Reuss Voigt Hill
#
# Bulk Modulus (GPa) = 47.60126 52.33603 49.96864
# Shear Modulus (GPa) = 25.93939 28.92949 27.43444
#
# Velocity S-wave (km/s) = 3.56848 3.76854 3.66987
# Velocity P-wave (km/s) = 6.35192 6.68045 6.51826
#
# Compressibility (1/GPa) = 0.02100785
#
# Stress axis : x y z
#
# Youngs Moduli (GPa) = 91.67921 49.56940 66.25309
#
# Poissons Ratio (x) = 0.13146 0.29232
# Poissons Ratio (y) = 0.24315 0.36567
# Poissons Ratio (z) = 0.40450 0.27359
#
# Static dielectric constant tensor:
#      x y z
#    x 3.994890 0.000000 0.000000 
#    y 0.000000 3.301420 0.000000 
#    z 0.000000 0.000000 3.736370 
# 
# 
# High freq. dielectric constant tensor:
#      x y z
#    x 1.816930 0.000000 0.000000 
#    y 0.000000 1.757630 0.000000 
#    z 0.000000 0.000000 1.800880 
# 
# From -- ./inp_files/68233.got.cif
#   From: 2010.03.12/outbox.cif.g09.slc.cpg/sg74_35_cif.got.tgz:68233.got - 2010.04.16 15:46:19.
