data_PCOD8299806
_publ_section_title
;
Structure prediction by ZEFSAII (Michael W. Deem and Ramdas Pophale) SiO2 
 PCOD8299806
Probable space group: I M M A
;
_chemical_formula_sum "Si O2"
_cell_formula_units_Z 104
_cell_length_a 8.748964
_cell_length_b 28.293224
_cell_length_c 24.216691
_cell_angle_alpha 90.000000
_cell_angle_beta 90.000000
_cell_angle_gamma 90.000000
_cell_volume 5994.512467
_symmetry_space_group_name_H-M "I M M A"
_symmetry_group_IT_number 74
_symmetry_cell_setting 'orthorhombic'
loop_
_space_group_symop_operation_xyz
x,y,z
-x,1/2-y,z
x,-y,-z
-x,1/2+y,-z
-x,-y,-z
x,1/2+y,-z
-x,y,z
x,1/2-y,z
1/2+x,1/2+y,1/2+z
1/2-x,-y,1/2+z
1/2+x,1/2-y,1/2-z
1/2-x,y,1/2-z
1/2-x,1/2-y,1/2-z
1/2+x,y,1/2-z
1/2-x,1/2+y,1/2+z
1/2+x,-y,1/2+z
loop_
_atom_site_type_symbol
_atom_site_label
_atom_site_fract_x
_atom_site_fract_y
_atom_site_fract_z
Si Si1 0.178761 0.978330 0.809824
Si Si2 0.178664 0.695666 0.903212
Si Si3 0.821775 0.625728 0.809706
Si Si4 0.680116 0.250000 0.690038
Si Si5 0.819506 0.428152 0.689076
Si Si6 0.678748 0.695365 0.018281
Si Si7 0.319717 0.157729 0.624649
O O1 0.250000 0.975812 0.750000
O O2 0.211140 0.926576 0.835880
O O3 0.000000 0.989588 0.806772
O O4 0.262135 0.022584 0.839459
O O5 0.211357 0.750000 0.888022
O O6 0.241922 0.664160 0.852740
O O7 0.000000 0.686644 0.914177
O O8 0.271195 0.679948 0.957223
O O9 0.750000 0.633874 0.750000
O O10 0.000000 0.632864 0.800755
O O11 0.500000 0.250000 0.695467
O O12 0.750000 0.250000 0.750000
O O13 0.737024 0.296131 0.657632
O O14 0.750000 0.421074 0.750000
O O15 0.767252 0.386714 0.649237
O O16 0.000000 0.428190 0.694365
O O17 0.500000 0.686263 0.026033
O O18 0.722427 0.750000 0.028061
O O19 0.772689 0.663439 0.061019
O O20 0.500000 0.150032 0.629558
#
# Coordination Sequence:
#
# PCOD8299806 Si02
#       7
#    16  16  16   8  16  16  16
#     4   9  16  29  48  70  97 130 167 206 246 295
#     4   9  18  33  52  74 103 138 171 205 245 296
#     4   9  18  31  50  77 106 136 169 203 247 298
#     4  10  22  34  48  70  98 130 163 198 245 298
#     4  11  21  33  49  73 101 131 167 208 254 301
#     4  10  20  34  52  74  98 129 171 214 251 292
#     4  11  21  35  52  72  97 132 170 207 252 301
#
# _framework density 17.349201000000001
#
# number of rings (size 3 to 8) (size 9 to 14) (size 15 to 20)
#    0.000    2.154    0.769    4.154    0.000    4.615 
#    0.000    0.000    0.000    0.923    0.000    6.462 
#    0.000    0.000    0.000    0.000    0.000    0.000 
#
# Total GULP energy -644678.298217 kJ/mol
# GULP energy per Si atom -12397.659581 kJ/mol
# Density = 1.730971 g / cm^3
# Si number density = 17.349201 Si / 1000 Ang^3
#
#
#
# Elastic Constant Matrix: (Units=GPa)
#
#
# Indices 1 2 3 4 5 6 
#
# 1 80.6795 45.4708 36.1687 -0.0001 0.0000 0.0000
# 2 45.4708 127.5371 67.1453 -0.0002 0.0000 0.0000
# 3 36.1687 67.1453 99.2294 -0.0006 0.0000 0.0000
# 4 -0.0001 -0.0002 -0.0006 8.3873 0.0000 0.0000
# 5 0.0000 0.0000 0.0000 0.0000 27.4342 0.0000
# 6 0.0000 0.0000 0.0000 0.0000 0.0000 21.8670
#
#
#
# Elastic Compliance Matrix: (Units=1/GPa)
#
#
# Indices 1 2 3 4 5 6 
#
# 1 0.016096 -0.004116 -0.003082 0.000000 0.000000 0.000000
# 2 -0.004116 0.013233 -0.007454 0.000000 0.000000 0.000000
# 3 -0.003082 -0.007454 0.016245 0.000001 0.000000 0.000000
# 4 0.000000 0.000000 0.000001 0.119228 0.000000 0.000000
# 5 0.000000 0.000000 0.000000 0.000000 0.036451 0.000000
# 6 0.000000 0.000000 0.000000 0.000000 0.000000 0.045731
#
#
# Mechanical properties :
#
#
# Convention : Reuss Voigt Hill
#
# Bulk Modulus (GPa) = 61.46254 67.22396 64.34325
# Shear Modulus (GPa) = 17.74878 22.11512 19.93195
#
# Velocity S-wave (km/s) = 3.20196 3.57417 3.39317
# Velocity P-wave (km/s) = 7.01239 7.47427 7.24701
#
# Compressibility (1/GPa) = 0.01627007
#
# Stress axis : x y z
#
# Youngs Moduli (GPa) = 62.12654 75.57056 61.55910
#
# Poissons Ratio (x) = 0.31108 0.18970
# Poissons Ratio (y) = 0.25574 0.45884
# Poissons Ratio (z) = 0.19145 0.56328
#
# Static dielectric constant tensor:
#      x y z
#    x 3.288910 0.000000 0.000000 
#    y 0.000000 3.907950 0.000000 
#    z 0.000000 0.000000 3.058700 
# 
# 
# High freq. dielectric constant tensor:
#      x y z
#    x 1.678650 0.000000 0.000000 
#    y 0.000000 1.674970 0.000000 
#    z 0.000000 0.000000 1.644350 
# 
# From -- ./inp_files/57623.got.cif
#   From: 2010.03.12/outbox.cif.g09.slc.cpg/sg74_29_cif.got.tgz:57623.got - 2010.04.16 15:46:19.
