data_PCOD8299322
_publ_section_title
;
Structure prediction by ZEFSAII (Michael W. Deem and Ramdas Pophale) SiO2 
 PCOD8299322
Probable space group: I M M A
;
_chemical_formula_sum "Si O2"
_cell_formula_units_Z 80
_cell_length_a 14.519823
_cell_length_b 17.677184
_cell_length_c 15.720610
_cell_angle_alpha 90.000000
_cell_angle_beta 90.000000
_cell_angle_gamma 90.000000
_cell_volume 4035.002410
_symmetry_space_group_name_H-M "I M M A"
_symmetry_group_IT_number 74
_symmetry_cell_setting 'orthorhombic'
loop_
_space_group_symop_operation_xyz
x,y,z
-x,1/2-y,z
x,-y,-z
-x,1/2+y,-z
-x,-y,-z
x,1/2+y,-z
-x,y,z
x,1/2-y,z
1/2+x,1/2+y,1/2+z
1/2-x,-y,1/2+z
1/2+x,1/2-y,1/2-z
1/2-x,y,1/2-z
1/2-x,1/2-y,1/2-z
1/2+x,y,1/2-z
1/2-x,1/2+y,1/2+z
1/2+x,-y,1/2+z
loop_
_atom_site_type_symbol
_atom_site_label
_atom_site_fract_x
_atom_site_fract_y
_atom_site_fract_z
Si Si1 0.751295 0.836659 0.625210
Si Si2 0.604644 0.664514 0.343061
Si Si3 0.746182 0.921224 0.458377
Si Si4 0.603623 0.107357 0.253718
Si Si5 0.654056 0.447522 0.793036
O O1 0.720626 0.750000 0.622858
O O2 0.778430 0.864186 0.531513
O O3 0.663715 0.884977 0.659762
O O4 0.842288 0.845038 0.682486
O O5 0.500000 0.665616 0.374114
O O6 0.644142 0.750000 0.338400
O O7 0.659656 0.614189 0.409826
O O8 0.611487 0.627800 0.249045
O O9 0.831765 0.933160 0.393679
O O10 0.715154 0.000000 0.500000
O O11 0.500000 0.139596 0.266911
O O12 0.591195 0.020438 0.224017
O O13 0.750000 0.468789 0.750000
#
# Coordination Sequence:
#
# PCOD8299322 Si02
#       5
#    16  16  16  16  16
#     4  11  23  39  59  90 123 154 199 250 296 358
#     4  10  22  38  58  89 122 152 196 249 299 357
#     4  11  21  38  62  84 118 158 195 245 299 352
#     4  11  21  39  63  86 117 160 201 244 298 354
#     4  10  19  37  62  84 115 154 198 237 289 351
#
# _framework density 19.826506999999999
#
# number of rings (size 3 to 8) (size 9 to 14) (size 15 to 20)
#    0.000    1.400    4.000    3.600    0.000    7.200 
#    0.000    3.000    0.000    0.000    0.000    0.000 
#    0.000    0.000    0.000    0.000    0.000    0.000 
#
# Total GULP energy -495991.189090 kJ/mol
# GULP energy per Si atom -12399.779727 kJ/mol
# Density = 1.978138 g / cm^3
# Si number density = 19.826507 Si / 1000 Ang^3
#
#
#
# Elastic Constant Matrix: (Units=GPa)
#
#
# Indices 1 2 3 4 5 6 
#
# 1 83.9042 17.5572 16.7307 0.0000 0.0000 0.0000
# 2 17.5572 143.2377 46.7579 0.0001 0.0000 0.0000
# 3 16.7307 46.7579 123.9882 0.0001 0.0000 0.0000
# 4 0.0000 0.0001 0.0001 30.2405 0.0000 0.0000
# 5 0.0000 0.0000 0.0000 0.0000 11.0965 0.0000
# 6 0.0000 0.0000 0.0000 0.0000 0.0000 23.9838
#
#
#
# Elastic Compliance Matrix: (Units=1/GPa)
#
#
# Indices 1 2 3 4 5 6 
#
# 1 0.012401 -0.001110 -0.001255 0.000000 0.000000 0.000000
# 2 -0.001110 0.008061 -0.002890 0.000000 0.000000 0.000000
# 3 -0.001255 -0.002890 0.009324 0.000000 0.000000 0.000000
# 4 0.000000 0.000000 0.000000 0.033068 0.000000 0.000000
# 5 0.000000 0.000000 0.000000 0.000000 0.090119 0.000000
# 6 0.000000 0.000000 0.000000 0.000000 0.000000 0.041695
#
#
# Mechanical properties :
#
#
# Convention : Reuss Voigt Hill
#
# Bulk Modulus (GPa) = 51.87783 57.02463 54.45123
# Shear Modulus (GPa) = 23.62910 31.06980 27.34945
#
# Velocity S-wave (km/s) = 3.45598 3.96294 3.71811
# Velocity P-wave (km/s) = 6.49213 7.05436 6.77908
#
# Compressibility (1/GPa) = 0.01927606
#
# Stress axis : x y z
#
# Youngs Moduli (GPa) = 80.63940 124.05508 107.24479
#
# Poissons Ratio (x) = 0.13776 0.13455
# Poissons Ratio (y) = 0.08955 0.30994
# Poissons Ratio (z) = 0.10117 0.35853
#
# Static dielectric constant tensor:
#      x y z
#    x 3.341840 0.000000 0.000000 
#    y 0.000000 3.729810 0.000000 
#    z 0.000000 0.000000 3.810020 
# 
# 
# High freq. dielectric constant tensor:
#      x y z
#    x 1.750610 0.000000 0.000000 
#    y 0.000000 1.786440 0.000000 
#    z 0.000000 0.000000 1.771000 
# 
# From -- ./inp_files/42706.got.cif
#   From: 2010.03.12/outbox.cif.g09.slc.cpg/sg74_22_cif.got.tgz:42706.got - 2010.04.16 15:46:19.
