data_PCOD8299664
_publ_section_title
;
Structure prediction by ZEFSAII (Michael W. Deem and Ramdas Pophale) SiO2 
 PCOD8299664
Probable space group: I M M A
;
_chemical_formula_sum "Si O2"
_cell_formula_units_Z 96
_cell_length_a 9.237891
_cell_length_b 23.612435
_cell_length_c 23.838471
_cell_angle_alpha 90.000000
_cell_angle_beta 90.000000
_cell_angle_gamma 90.000000
_cell_volume 5199.864243
_symmetry_space_group_name_H-M "I M M A"
_symmetry_group_IT_number 74
_symmetry_cell_setting 'orthorhombic'
loop_
_space_group_symop_operation_xyz
x,y,z
-x,1/2-y,z
x,-y,-z
-x,1/2+y,-z
-x,-y,-z
x,1/2+y,-z
-x,y,z
x,1/2-y,z
1/2+x,1/2+y,1/2+z
1/2-x,-y,1/2+z
1/2+x,1/2-y,1/2-z
1/2-x,y,1/2-z
1/2-x,1/2-y,1/2-z
1/2+x,y,1/2-z
1/2-x,1/2+y,1/2+z
1/2+x,-y,1/2+z
loop_
_atom_site_type_symbol
_atom_site_label
_atom_site_fract_x
_atom_site_fract_y
_atom_site_fract_z
Si Si1 0.668072 0.901344 0.805136
Si Si2 0.833495 0.314990 0.126310
Si Si3 0.833967 0.479302 0.409797
Si Si4 0.169524 0.609752 0.410784
Si Si5 0.168174 0.892294 0.978828
Si Si6 0.169025 0.315145 0.693862
O O1 0.500000 0.892701 0.792093
O O2 0.750000 0.922427 0.750000
O O3 0.733811 0.841775 0.825590
O O4 0.697249 0.949218 0.851051
O O5 0.789922 0.250000 0.120053
O O6 0.802834 0.344191 0.066968
O O7 0.000000 0.322921 0.144240
O O8 0.792005 0.544267 0.400438
O O9 0.738504 0.451676 0.459067
O O10 0.000000 0.472022 0.428454
O O11 0.256913 0.630782 0.464957
O O12 0.222840 0.646073 0.357551
O O13 0.000000 0.619399 0.421493
O O14 0.000000 0.903050 0.989826
O O15 0.206086 0.250000 0.679442
O O16 0.250000 0.335063 0.750000
O O17 0.000000 0.323882 0.704707
#
# Coordination Sequence:
#
# PCOD8299664 Si02
#       6
#    16  16  16  16  16  16
#     4  10  20  34  52  74 100 131 168 209 252 297
#     4   9  19  36  54  72  99 134 169 207 250 294
#     4   9  19  35  52  71 100 137 170 202 246 298
#     4  10  20  34  53  76 102 134 169 202 243 300
#     4  10  20  33  51  77 105 131 164 208 252 292
#     4   9  19  36  55  75 101 132 166 206 250 294
#
# _framework density 18.462021
#
# number of rings (size 3 to 8) (size 9 to 14) (size 15 to 20)
#    0.000    2.500    0.000    1.500    0.000    6.667 
#    0.000    0.000    0.000    0.000    0.000    0.000 
#    0.000    0.000    0.000    0.000    0.000    0.000 
#
# Total GULP energy -595385.990742 kJ/mol
# GULP energy per Si atom -12403.874807 kJ/mol
# Density = 1.842000 g / cm^3
# Si number density = 18.462021 Si / 1000 Ang^3
#
#
#
# Elastic Constant Matrix: (Units=GPa)
#
#
# Indices 1 2 3 4 5 6 
#
# 1 70.5502 20.4318 52.3149 0.0000 0.0000 0.0000
# 2 20.4318 62.4973 29.1707 0.0000 0.0000 0.0000
# 3 52.3149 29.1707 120.3964 0.0000 0.0000 0.0000
# 4 0.0000 0.0000 0.0000 25.5417 0.0000 0.0000
# 5 0.0000 0.0000 0.0000 0.0000 40.2308 0.0000
# 6 0.0000 0.0000 0.0000 0.0000 0.0000 22.9739
#
#
#
# Elastic Compliance Matrix: (Units=1/GPa)
#
#
# Indices 1 2 3 4 5 6 
#
# 1 0.021398 -0.002994 -0.008573 0.000000 0.000000 0.000000
# 2 -0.002994 0.018460 -0.003172 0.000000 0.000000 0.000000
# 3 -0.008573 -0.003172 0.012799 0.000000 0.000000 0.000000
# 4 0.000000 0.000000 0.000000 0.039152 0.000000 0.000000
# 5 0.000000 0.000000 0.000000 0.000000 0.024857 0.000000
# 6 0.000000 0.000000 0.000000 0.000000 0.000000 0.043528
#
#
# Mechanical properties :
#
#
# Convention : Reuss Voigt Hill
#
# Bulk Modulus (GPa) = 43.13938 50.80874 46.97406
# Shear Modulus (GPa) = 25.32967 27.85105 26.59036
#
# Velocity S-wave (km/s) = 3.70805 3.88823 3.79921
# Velocity P-wave (km/s) = 6.46144 6.90928 6.68911
#
# Compressibility (1/GPa) = 0.02318067
#
# Stress axis : x y z
#
# Youngs Moduli (GPa) = 46.73285 54.17138 78.12949
#
# Poissons Ratio (x) = 0.16221 0.66977
# Poissons Ratio (y) = 0.13993 0.24779
# Poissons Ratio (z) = 0.40062 0.17181
#
# Static dielectric constant tensor:
#      x y z
#    x 3.399760 0.000000 0.000000 
#    y 0.000000 3.391830 0.000000 
#    z 0.000000 0.000000 3.441920 
# 
# 
# High freq. dielectric constant tensor:
#      x y z
#    x 1.715820 0.000000 0.000000 
#    y 0.000000 1.711990 0.000000 
#    z 0.000000 0.000000 1.721450 
# 
# From -- ./inp_files/49082.got.cif
#   From: 2010.03.12/outbox.cif.g09.slc.cpg/sg74_25_cif.got.tgz:49082.got - 2010.04.16 15:46:19.
