data_PCOD8299986
_publ_section_title
;
Structure prediction by ZEFSAII (Michael W. Deem and Ramdas Pophale) SiO2 
 PCOD8299986
Probable space group: I M M A
;
_chemical_formula_sum "Si O2"
_cell_formula_units_Z 80
_cell_length_a 15.479479
_cell_length_b 13.907933
_cell_length_c 16.663876
_cell_angle_alpha 90.000000
_cell_angle_beta 90.000000
_cell_angle_gamma 90.000000
_cell_volume 3587.525151
_symmetry_space_group_name_H-M "I M M A"
_symmetry_group_IT_number 74
_symmetry_cell_setting 'orthorhombic'
loop_
_space_group_symop_operation_xyz
x,y,z
-x,1/2-y,z
x,-y,-z
-x,1/2+y,-z
-x,-y,-z
x,1/2+y,-z
-x,y,z
x,1/2-y,z
1/2+x,1/2+y,1/2+z
1/2-x,-y,1/2+z
1/2+x,1/2-y,1/2-z
1/2-x,y,1/2-z
1/2-x,1/2-y,1/2-z
1/2+x,y,1/2-z
1/2-x,1/2+y,1/2+z
1/2+x,-y,1/2+z
loop_
_atom_site_type_symbol
_atom_site_label
_atom_site_fract_x
_atom_site_fract_y
_atom_site_fract_z
Si Si1 0.258858 0.363391 0.482153
Si Si2 0.097726 0.361881 0.582149
Si Si3 0.647017 0.046474 0.752594
Si Si4 0.906018 0.362260 0.904508
Si Si5 0.175487 0.145636 0.188663
O O1 0.262083 0.250000 0.486293
O O2 0.163994 0.397342 0.512611
O O3 0.331024 0.409882 0.541133
O O4 0.279965 0.396615 0.392134
O O5 0.115023 0.250000 0.604183
O O6 0.110934 0.426730 0.660723
O O7 0.000000 0.376198 0.550117
O O8 0.750000 0.048248 0.750000
O O9 0.610838 0.122658 0.689531
O O10 0.614746 0.938774 0.725218
O O11 0.906819 0.250000 0.921081
O O12 0.000000 0.405600 0.928131
O O13 0.127337 0.250000 0.173928
O O14 0.250000 0.168671 0.250000
#
# Coordination Sequence:
#
# PCOD8299986 Si02
#       5
#    16  16  16  16  16
#     4   9  18  36  61  87 117 153 199 249 295 350
#     4  10  20  35  60  95 130 158 189 239 305 373
#     4  11  20  33  55  86 120 159 192 236 293 357
#     4  10  20  34  55  87 125 157 185 229 294 364
#     4   9  20  39  61  83 109 156 211 253 294 343
#
# _framework density 22.299496000000001
#
# number of rings (size 3 to 8) (size 9 to 14) (size 15 to 20)
#    0.000    2.200    2.000    1.200    0.000    3.200 
#    0.000    3.000    0.000   20.400    0.000   19.600 
#    0.000    0.000    0.000    0.000    0.000    0.000 
#
# Total GULP energy -495632.975692 kJ/mol
# GULP energy per Si atom -12390.824392 kJ/mol
# Density = 2.224874 g / cm^3
# Si number density = 22.299496 Si / 1000 Ang^3
#
#
#
# Elastic Constant Matrix: (Units=GPa)
#
#
# Indices 1 2 3 4 5 6 
#
# 1 103.2613 25.0897 6.5308 0.0000 0.0000 0.0000
# 2 25.0897 72.3697 34.9321 0.0000 0.0000 0.0000
# 3 6.5308 34.9321 98.4875 0.0000 0.0000 0.0000
# 4 0.0000 0.0000 0.0000 25.0051 0.0000 0.0000
# 5 0.0000 0.0000 0.0000 0.0000 -2.4623 0.0000
# 6 0.0000 0.0000 0.0000 0.0000 0.0000 14.6503
#
#
#
# Elastic Compliance Matrix: (Units=1/GPa)
#
#
# Indices 1 2 3 4 5 6 
#
# 1 0.010618 -0.004031 0.000726 0.000000 0.000000 0.000000
# 2 -0.004031 0.018203 -0.006189 0.000000 0.000000 0.000000
# 3 0.000726 -0.006189 0.012301 0.000000 0.000000 0.000000
# 4 0.000000 0.000000 0.000000 0.039992 0.000000 0.000000
# 5 0.000000 0.000000 0.000000 0.000000 -0.406122 0.000000
# 6 0.000000 0.000000 0.000000 0.000000 0.000000 0.068258
#
#
# Mechanical properties :
#
#
# Convention : Reuss Voigt Hill
#
# Bulk Modulus (GPa) = 45.18316 45.24707 45.21512
# Shear Modulus (GPa) = -21.70289 21.27633 -0.21328
#
# Velocity S-wave (km/s) = -3.12307 3.09223 -0.30960
# Velocity P-wave (km/s) = 2.70207 5.75186 4.49361
#
# Compressibility (1/GPa) = 0.02213214
#
# Stress axis : x y z
#
# Youngs Moduli (GPa) = 94.18151 54.93620 81.29687
#
# Poissons Ratio (x) = 0.22147 -0.05901
# Poissons Ratio (y) = 0.37968 0.50315
# Poissons Ratio (z) = -0.06836 0.34000
#
# Static dielectric constant tensor:
#      x y z
#    x 4.199840 0.000000 0.000000 
#    y 0.000000 4.297290 0.000000 
#    z 0.000000 0.000000 4.147530 
# 
# 
# High freq. dielectric constant tensor:
#      x y z
#    x 1.853860 0.000000 0.000000 
#    y 0.000000 1.884600 0.000000 
#    z 0.000000 0.000000 1.876930 
# 
# From -- ./inp_files/43860.got.cif
#   From: 2010.03.12/outbox.cif.g09.slc.cpg/sg74_22_cif.got.tgz:43860.got - 2010.04.16 15:46:19.
