data_PCOD8299586
_publ_section_title
;
Structure prediction by ZEFSAII (Michael W. Deem and Ramdas Pophale) SiO2 
 PCOD8299586
Probable space group: I M M A
;
_chemical_formula_sum "Si O2"
_cell_formula_units_Z 120
_cell_length_a 27.628853
_cell_length_b 9.192540
_cell_length_c 27.600296
_cell_angle_alpha 90.000000
_cell_angle_beta 90.000000
_cell_angle_gamma 90.000000
_cell_volume 7009.904861
_symmetry_space_group_name_H-M "I M M A"
_symmetry_group_IT_number 74
_symmetry_cell_setting 'orthorhombic'
loop_
_space_group_symop_operation_xyz
x,y,z
-x,1/2-y,z
x,-y,-z
-x,1/2+y,-z
-x,-y,-z
x,1/2+y,-z
-x,y,z
x,1/2-y,z
1/2+x,1/2+y,1/2+z
1/2-x,-y,1/2+z
1/2+x,1/2-y,1/2-z
1/2-x,y,1/2-z
1/2-x,1/2-y,1/2-z
1/2+x,y,1/2-z
1/2-x,1/2+y,1/2+z
1/2+x,-y,1/2+z
loop_
_atom_site_type_symbol
_atom_site_label
_atom_site_fract_x
_atom_site_fract_y
_atom_site_fract_z
Si Si1 0.222568 0.084192 0.954224
Si Si2 0.665307 0.578582 0.048577
Si Si3 0.000000 0.920295 0.550187
Si Si4 0.215551 0.587970 0.704420
Si Si5 0.444286 0.080081 0.218625
Si Si6 0.293358 0.418584 0.651175
Si Si7 0.138520 0.921344 0.238192
Si Si8 0.591986 0.080089 0.112055
O O1 0.217805 0.250000 0.968961
O O2 0.278282 0.042335 0.944931
O O3 0.192680 0.049971 0.904879
O O4 0.200130 0.000000 0.000000
O O5 0.655041 0.750000 0.044708
O O6 0.638469 0.512524 0.095465
O O7 0.645466 0.500000 0.000000
O O8 0.953111 0.968914 0.579740
O O9 0.000000 0.750000 0.540883
O O10 0.000000 0.000000 0.500000
O O11 0.198880 0.750000 0.687864
O O12 0.250000 0.600172 0.750000
O O13 0.245236 0.510666 0.661909
O O14 0.169023 0.493016 0.718182
O O15 0.500000 0.030533 0.219891
O O16 0.439690 0.250000 0.230205
O O17 0.421211 0.041492 0.166970
O O18 0.415149 0.989859 0.259645
O O19 0.279332 0.250000 0.658612
O O20 0.338166 0.460527 0.685904
O O21 0.136537 0.750000 0.246598
O O22 0.603515 0.250000 0.105990
#
# Coordination Sequence:
#
# PCOD8299586 Si02
#       8
#    16  16   8  16  16  16  16  16
#     4   9  19  34  50  70  99 131 163 196 236 285
#     4  10  20  33  48  68  92 121 160 201 241 287
#     4  10  20  34  50  66  84 110 148 198 253 302
#     4   9  17  29  46  71  99 127 163 202 239 283
#     4  10  21  38  55  71  96 128 162 206 258 305
#     4   9  18  33  50  71 102 135 163 200 247 292
#     4  10  20  33  51  73  99 130 164 203 248 298
#     4  10  20  35  51  66  88 118 155 200 253 302
#
# _framework density 17.118634
#
# number of rings (size 3 to 8) (size 9 to 14) (size 15 to 20)
#    0.000    2.400    0.667    1.600    1.867    5.600 
#    0.000    0.000    0.000    0.000    0.000    0.000 
#    0.000    0.533    0.000    1.200    0.000    2.133 
#
# Total GULP energy -743957.399686 kJ/mol
# GULP energy per Si atom -12399.289995 kJ/mol
# Density = 1.707967 g / cm^3
# Si number density = 17.118634 Si / 1000 Ang^3
#
#
#
# Elastic Constant Matrix: (Units=GPa)
#
#
# Indices 1 2 3 4 5 6 
#
# 1 68.4992 39.2843 45.7940 0.0000 0.0000 0.0000
# 2 39.2843 72.8568 46.7692 0.0000 0.0000 0.0000
# 3 45.7940 46.7692 101.1557 0.0000 0.0000 0.0000
# 4 0.0000 0.0000 0.0000 25.3892 0.0000 0.0000
# 5 0.0000 0.0000 0.0000 0.0000 23.6561 0.0000
# 6 0.0000 0.0000 0.0000 0.0000 0.0000 23.0575
#
#
#
# Elastic Compliance Matrix: (Units=1/GPa)
#
#
# Indices 1 2 3 4 5 6 
#
# 1 0.024175 -0.008546 -0.006993 0.000000 0.000000 0.000000
# 2 -0.008546 0.022540 -0.006552 0.000000 0.000000 0.000000
# 3 -0.006993 -0.006552 0.016081 0.000000 0.000000 0.000000
# 4 0.000000 0.000000 0.000000 0.039387 0.000000 0.000000
# 5 0.000000 0.000000 0.000000 0.000000 0.042272 0.000000
# 6 0.000000 0.000000 0.000000 0.000000 0.000000 0.043370
#
#
# Mechanical properties :
#
#
# Convention : Reuss Voigt Hill
#
# Bulk Modulus (GPa) = 53.72607 56.24520 54.98564
# Shear Modulus (GPa) = 20.98973 21.79816 21.39395
#
# Velocity S-wave (km/s) = 3.50542 3.57229 3.53901
# Velocity P-wave (km/s) = 6.91640 7.06700 6.99210
#
# Compressibility (1/GPa) = 0.01861294
#
# Stress axis : x y z
#
# Youngs Moduli (GPa) = 41.36526 44.36597 62.18527
#
# Poissons Ratio (x) = 0.37916 0.43485
# Poissons Ratio (y) = 0.35351 0.40746
# Poissons Ratio (z) = 0.28926 0.29070
#
# Static dielectric constant tensor:
#      x y z
#    x 7.908460 0.000000 0.000000 
#    y 0.000000 3.250270 0.000000 
#    z 0.000000 0.000000 3.220600 
# 
# 
# High freq. dielectric constant tensor:
#      x y z
#    x 1.631220 0.000000 0.000000 
#    y 0.000000 1.665130 0.000000 
#    z 0.000000 0.000000 1.652030 
# 
# From -- ./inp_files/69029.got.cif
#   From: 2010.03.12/outbox.cif.g09.slc.cpg/sg74_35_cif.got.tgz:69029.got - 2010.04.16 15:46:19.
