data_PCOD8299957
_publ_section_title
;
Structure prediction by ZEFSAII (Michael W. Deem and Ramdas Pophale) SiO2 
 PCOD8299957
Probable space group: I M M A
;
_chemical_formula_sum "Si O2"
_cell_formula_units_Z 80
_cell_length_a 25.042240
_cell_length_b 8.762627
_cell_length_c 19.806990
_cell_angle_alpha 90.000000
_cell_angle_beta 90.000000
_cell_angle_gamma 90.000000
_cell_volume 4346.362862
_symmetry_space_group_name_H-M "I M M A"
_symmetry_group_IT_number 74
_symmetry_cell_setting 'orthorhombic'
loop_
_space_group_symop_operation_xyz
x,y,z
-x,1/2-y,z
x,-y,-z
-x,1/2+y,-z
-x,-y,-z
x,1/2+y,-z
-x,y,z
x,1/2-y,z
1/2+x,1/2+y,1/2+z
1/2-x,-y,1/2+z
1/2+x,1/2-y,1/2-z
1/2-x,y,1/2-z
1/2-x,1/2-y,1/2-z
1/2+x,y,1/2-z
1/2-x,1/2+y,1/2+z
1/2+x,-y,1/2+z
loop_
_atom_site_type_symbol
_atom_site_label
_atom_site_fract_x
_atom_site_fract_y
_atom_site_fract_z
Si Si1 0.562439 0.573558 0.824125
Si Si2 0.364476 0.928076 0.573772
Si Si3 0.753390 0.573253 0.572681
Si Si4 0.641912 0.429688 0.925841
Si Si5 0.438054 0.926951 0.315561
O O1 0.500000 0.543102 0.834335
O O2 0.577407 0.750000 0.831666
O O3 0.591904 0.477550 0.881121
O O4 0.580868 0.517939 0.750507
O O5 0.378781 0.750000 0.568712
O O6 0.304947 0.950076 0.606322
O O7 0.368520 0.000000 0.500000
O O8 0.406149 0.013260 0.620537
O O9 0.749027 0.500000 0.500000
O O10 0.768022 0.750000 0.566425
O O11 0.802954 0.489467 0.609966
O O12 0.643710 0.250000 0.932167
O O13 0.635384 0.500000 0.000000
O O14 0.500000 0.956888 0.330639
O O15 0.425886 0.750000 0.303523
#
# Coordination Sequence:
#
# PCOD8299957 Si02
#       5
#    16  16  16  16  16
#     4  10  21  38  58  78 104 139 176 216 264 315
#     4  10  20  34  55  81 108 140 177 219 263 309
#     4   9  17  31  51  76 106 138 173 213 260 311
#     4  11  21  34  55  81 109 140 175 216 260 309
#     4  10  21  37  56  78 106 140 176 216 264 317
#
# _framework density 18.406195
#
# number of rings (size 3 to 8) (size 9 to 14) (size 15 to 20)
#    0.000    2.000    0.000    5.400    0.000    5.600 
#    0.000    1.000    0.000    6.000    0.000    0.000 
#    0.000    0.000    0.000    0.000    0.000    0.000 
#
# Total GULP energy -495908.311268 kJ/mol
# GULP energy per Si atom -12397.707782 kJ/mol
# Density = 1.836430 g / cm^3
# Si number density = 18.406195 Si / 1000 Ang^3
#
#
#
# Elastic Constant Matrix: (Units=GPa)
#
#
# Indices 1 2 3 4 5 6 
#
# 1 89.3827 58.1622 54.7452 0.0000 0.0000 0.0000
# 2 58.1622 132.8954 40.6209 0.0000 0.0000 0.0000
# 3 54.7452 40.6209 79.3022 0.0000 0.0000 0.0000
# 4 0.0000 0.0000 0.0000 33.0295 0.0000 0.0000
# 5 0.0000 0.0000 0.0000 0.0000 -1.9444 0.0000
# 6 0.0000 0.0000 0.0000 0.0000 0.0000 32.5495
#
#
#
# Elastic Compliance Matrix: (Units=1/GPa)
#
#
# Indices 1 2 3 4 5 6 
#
# 1 0.022990 -0.006178 -0.012707 0.000000 0.000000 0.000000
# 2 -0.006178 0.010582 -0.001155 0.000000 0.000000 0.000000
# 3 -0.012707 -0.001155 0.021974 0.000000 0.000000 0.000000
# 4 0.000000 0.000000 0.000000 0.030276 0.000000 0.000000
# 5 0.000000 0.000000 0.000000 0.000000 -0.514297 0.000000
# 6 0.000000 0.000000 0.000000 0.000000 0.000000 0.030722
#
#
# Mechanical properties :
#
#
# Convention : Reuss Voigt Hill
#
# Bulk Modulus (GPa) = 64.65844 67.62631 66.14237
# Shear Modulus (GPa) = -14.18370 22.59705 4.20668
#
# Velocity S-wave (km/s) = -2.77897 3.50764 1.51342
# Velocity P-wave (km/s) = 4.99079 7.29558 6.25034
#
# Compressibility (1/GPa) = 0.01546589
#
# Stress axis : x y z
#
# Youngs Moduli (GPa) = 43.49628 94.50303 45.50899
#
# Poissons Ratio (x) = 0.58383 0.57827
# Poissons Ratio (y) = 0.26872 0.05258
# Poissons Ratio (z) = 0.55269 0.10919
#
# Static dielectric constant tensor:
#      x y z
#    x 3.941170 0.000000 0.000000 
#    y 0.000000 3.591960 0.000000 
#    z 0.000000 0.000000 3.110980 
# 
# 
# High freq. dielectric constant tensor:
#      x y z
#    x 1.726390 0.000000 0.000000 
#    y 0.000000 1.736660 0.000000 
#    z 0.000000 0.000000 1.684760 
# 
# From -- ./inp_files/46477.got.cif
#   From: 2010.03.12/outbox.cif.g09.slc.cpg/sg74_24_cif.got.tgz:46477.got - 2010.04.16 15:46:19.
