data_PCOD8299694
_publ_section_title
;
Structure prediction by ZEFSAII (Michael W. Deem and Ramdas Pophale) SiO2 
 PCOD8299694
Probable space group: I M M A
;
_chemical_formula_sum "Si O2"
_cell_formula_units_Z 96
_cell_length_a 27.509337
_cell_length_b 9.231867
_cell_length_c 18.991496
_cell_angle_alpha 90.000000
_cell_angle_beta 90.000000
_cell_angle_gamma 90.000000
_cell_volume 4823.128571
_symmetry_space_group_name_H-M "I M M A"
_symmetry_group_IT_number 74
_symmetry_cell_setting 'orthorhombic'
loop_
_space_group_symop_operation_xyz
x,y,z
-x,1/2-y,z
x,-y,-z
-x,1/2+y,-z
-x,-y,-z
x,1/2+y,-z
-x,y,z
x,1/2-y,z
1/2+x,1/2+y,1/2+z
1/2-x,-y,1/2+z
1/2+x,1/2-y,1/2-z
1/2-x,y,1/2-z
1/2-x,1/2-y,1/2-z
1/2+x,y,1/2-z
1/2-x,1/2+y,1/2+z
1/2+x,-y,1/2+z
loop_
_atom_site_type_symbol
_atom_site_label
_atom_site_fract_x
_atom_site_fract_y
_atom_site_fract_z
Si Si1 0.419576 0.577941 0.569614
Si Si2 0.444069 0.917405 0.838547
Si Si3 0.648242 0.920293 0.926381
Si Si4 0.190513 0.588949 0.937651
Si Si5 0.231335 0.414674 0.322179
Si Si6 0.555108 0.909254 0.294614
O O1 0.441054 0.500000 0.500000
O O2 0.429314 0.750000 0.566081
O O3 0.363478 0.533640 0.578370
O O4 0.444931 0.510092 0.637087
O O5 0.500000 0.957549 0.859630
O O6 0.441110 0.750000 0.816456
O O7 0.407637 0.949301 0.903494
O O8 0.422459 0.007433 0.772521
O O9 0.658673 0.750000 0.937951
O O10 0.685320 0.981100 0.865380
O O11 0.658221 0.000000 0.000000
O O12 0.188000 0.750000 0.966843
O O13 0.220635 0.574468 0.867825
O O14 0.215830 0.500000 0.000000
O O15 0.216772 0.250000 0.303666
O O16 0.250000 0.493571 0.250000
O O17 0.500000 0.882772 0.273863
O O18 0.579994 0.750000 0.306096
#
# Coordination Sequence:
#
# PCOD8299694 Si02
#       6
#    16  16  16  16  16  16
#     4  10  20  33  52  77 105 140 182 225 272 325
#     4   9  19  36  57  82 110 143 185 228 273 329
#     4  10  21  36  58  84 113 148 184 227 276 328
#     4   9  18  32  52  75 101 137 175 217 262 311
#     4   9  18  32  53  80 107 140 183 224 263 316
#     4  10  21  36  54  77 106 140 178 225 279 330
#
# _framework density 19.904093
#
# number of rings (size 3 to 8) (size 9 to 14) (size 15 to 20)
#    0.000    2.500    0.000    1.500    2.333    3.000 
#    0.000    0.000    0.000    1.000    0.000    0.000 
#    0.000    0.000    0.000    0.000    0.000    0.000 
#
# Total GULP energy -594772.188128 kJ/mol
# GULP energy per Si atom -12391.087253 kJ/mol
# Density = 1.985879 g / cm^3
# Si number density = 19.904093 Si / 1000 Ang^3
#
#
#
# Elastic Constant Matrix: (Units=GPa)
#
#
# Indices 1 2 3 4 5 6 
#
# 1 76.4227 20.9629 47.2898 0.0000 0.0000 0.0000
# 2 20.9629 76.9864 47.7900 0.0000 0.0000 0.0000
# 3 47.2898 47.7900 134.0206 0.0000 0.0000 0.0000
# 4 0.0000 0.0000 0.0000 35.1022 0.0000 0.0000
# 5 0.0000 0.0000 0.0000 0.0000 17.7553 0.0000
# 6 0.0000 0.0000 0.0000 0.0000 0.0000 24.4521
#
#
#
# Elastic Compliance Matrix: (Units=1/GPa)
#
#
# Indices 1 2 3 4 5 6 
#
# 1 0.016819 -0.001150 -0.005525 0.000000 0.000000 0.000000
# 2 -0.001150 0.016761 -0.005571 0.000000 0.000000 0.000000
# 3 -0.005525 -0.005571 0.011397 0.000000 0.000000 0.000000
# 4 0.000000 0.000000 0.000000 0.028488 0.000000 0.000000
# 5 0.000000 0.000000 0.000000 0.000000 0.056321 0.000000
# 6 0.000000 0.000000 0.000000 0.000000 0.000000 0.040896
#
#
# Mechanical properties :
#
#
# Convention : Reuss Voigt Hill
#
# Bulk Modulus (GPa) = 48.81391 57.72389 53.26890
# Shear Modulus (GPa) = 24.75211 26.88770 25.81991
#
# Velocity S-wave (km/s) = 3.53025 3.67940 3.60560
# Velocity P-wave (km/s) = 6.41831 6.86401 6.64490
#
# Compressibility (1/GPa) = 0.02048596
#
# Stress axis : x y z
#
# Youngs Moduli (GPa) = 59.45582 59.66370 87.73981
#
# Poissons Ratio (x) = 0.06863 0.48472
# Poissons Ratio (y) = 0.06840 0.48877
# Poissons Ratio (z) = 0.32847 0.33237
#
# Static dielectric constant tensor:
#      x y z
#    x 3.680200 0.000000 0.000000 
#    y 0.000000 3.682910 0.000000 
#    z 0.000000 0.000000 3.609840 
# 
# 
# High freq. dielectric constant tensor:
#      x y z
#    x 1.774080 0.000000 0.000000 
#    y 0.000000 1.754970 0.000000 
#    z 0.000000 0.000000 1.777060 
# 
# From -- ./inp_files/49174.got.cif
#   From: 2010.03.12/outbox.cif.g09.slc.cpg/sg74_25_cif.got.tgz:49174.got - 2010.04.16 15:46:19.
