data_PCOD8299930
_publ_section_title
;
Structure prediction by ZEFSAII (Michael W. Deem and Ramdas Pophale) SiO2 
 PCOD8299930
Probable space group: I M M A
;
_chemical_formula_sum "Si O2"
_cell_formula_units_Z 104
_cell_length_a 30.788384
_cell_length_b 9.385499
_cell_length_c 18.763626
_cell_angle_alpha 90.000000
_cell_angle_beta 90.000000
_cell_angle_gamma 90.000000
_cell_volume 5422.018939
_symmetry_space_group_name_H-M "I M M A"
_symmetry_group_IT_number 74
_symmetry_cell_setting 'orthorhombic'
loop_
_space_group_symop_operation_xyz
x,y,z
-x,1/2-y,z
x,-y,-z
-x,1/2+y,-z
-x,-y,-z
x,1/2+y,-z
-x,y,z
x,1/2-y,z
1/2+x,1/2+y,1/2+z
1/2-x,-y,1/2+z
1/2+x,1/2-y,1/2-z
1/2-x,y,1/2-z
1/2-x,1/2-y,1/2-z
1/2+x,y,1/2-z
1/2-x,1/2+y,1/2+z
1/2+x,-y,1/2+z
loop_
_atom_site_type_symbol
_atom_site_label
_atom_site_fract_x
_atom_site_fract_y
_atom_site_fract_z
Si Si1 0.450367 0.916832 0.217969
Si Si2 0.000000 0.414757 0.071492
Si Si3 0.314211 0.415654 0.930539
Si Si4 0.245912 0.586152 0.666959
Si Si5 0.585489 0.083302 0.342860
Si Si6 0.329519 0.084150 0.427133
Si Si7 0.084259 0.086859 0.567582
O O1 0.500000 0.955488 0.237204
O O2 0.441021 0.750000 0.226902
O O3 0.441419 0.965326 0.137135
O O4 0.416759 0.000295 0.268250
O O5 0.042418 0.458205 0.114785
O O6 0.000000 0.250000 0.051832
O O7 0.000000 0.500000 0.000000
O O8 0.301938 0.250000 0.939202
O O9 0.291071 0.481699 0.861940
O O10 0.365013 0.439207 0.919252
O O11 0.297335 0.500000 0.000000
O O12 0.231998 0.750000 0.654551
O O13 0.250000 0.552296 0.750000
O O14 0.290905 0.552049 0.627553
O O15 0.588756 0.250000 0.325626
O O16 0.626492 0.031252 0.388856
O O17 0.332768 0.250000 0.446595
O O18 0.321908 0.000000 0.500000
O O19 0.074120 0.250000 0.550888
O O20 0.066910 0.000000 0.500000
#
# Coordination Sequence:
#
# PCOD8299930 Si02
#       7
#    16   8  16  16  16  16  16
#     4  10  21  37  57  82 114 149 184 227 278 331
#     4  10  20  34  54  80 109 138 179 226 265 320
#     4  10  20  36  58  82 110 145 185 229 275 327
#     4  10  22  38  56  83 116 149 186 229 278 331
#     4  10  21  37  56  82 112 144 185 228 272 327
#     4  10  22  39  58  82 113 148 186 230 279 329
#     4   9  20  37  56  83 114 145 186 231 277 331
#
# _framework density 19.181045999999998
#
# number of rings (size 3 to 8) (size 9 to 14) (size 15 to 20)
#    0.000    2.154    0.769    1.385    2.154    4.923 
#    0.000    0.000    0.000    0.000    0.000    0.000 
#    0.000    0.000    0.000    0.000    0.000    0.000 
#
# Total GULP energy -645015.026052 kJ/mol
# GULP energy per Si atom -12404.135116 kJ/mol
# Density = 1.913739 g / cm^3
# Si number density = 19.181046 Si / 1000 Ang^3
#
#
#
# Elastic Constant Matrix: (Units=GPa)
#
#
# Indices 1 2 3 4 5 6 
#
# 1 56.9112 28.7424 45.1014 0.0000 0.0000 0.0000
# 2 28.7424 70.1226 64.2613 0.0000 0.0000 0.0000
# 3 45.1014 64.2613 147.7675 0.0000 0.0000 0.0000
# 4 0.0000 0.0000 0.0000 42.3030 0.0000 0.0000
# 5 0.0000 0.0000 0.0000 0.0000 33.9196 0.0000
# 6 0.0000 0.0000 0.0000 0.0000 0.0000 22.1415
#
#
#
# Elastic Compliance Matrix: (Units=1/GPa)
#
#
# Indices 1 2 3 4 5 6 
#
# 1 0.024290 -0.005257 -0.005127 0.000000 0.000000 0.000000
# 2 -0.005257 0.024848 -0.009201 0.000000 0.000000 0.000000
# 3 -0.005127 -0.009201 0.012334 0.000000 0.000000 0.000000
# 4 0.000000 0.000000 0.000000 0.023639 0.000000 0.000000
# 5 0.000000 0.000000 0.000000 0.000000 0.029481 0.000000
# 6 0.000000 0.000000 0.000000 0.000000 0.000000 0.045164
#
#
# Mechanical properties :
#
#
# Convention : Reuss Voigt Hill
#
# Bulk Modulus (GPa) = 44.84397 61.22350 53.03373
# Shear Modulus (GPa) = 24.22944 28.78591 26.50767
#
# Velocity S-wave (km/s) = 3.55800 3.87815 3.72152
# Velocity P-wave (km/s) = 6.34896 7.21398 6.79524
#
# Compressibility (1/GPa) = 0.02229954
#
# Stress axis : x y z
#
# Youngs Moduli (GPa) = 41.16962 40.24517 81.07820
#
# Poissons Ratio (x) = 0.21158 0.41572
# Poissons Ratio (y) = 0.21644 0.74601
# Poissons Ratio (z) = 0.21109 0.37030
#
# Static dielectric constant tensor:
#      x y z
#    x 3.531020 0.000000 0.000000 
#    y 0.000000 3.674580 0.000000 
#    z 0.000000 0.000000 3.527080 
# 
# 
# High freq. dielectric constant tensor:
#      x y z
#    x 1.750190 0.000000 0.000000 
#    y 0.000000 1.740010 0.000000 
#    z 0.000000 0.000000 1.754710 
# 
# From -- ./inp_files/55614.got.cif
#   From: 2010.03.12/outbox.cif.g09.slc.cpg/sg74_28_cif.got.tgz:55614.got - 2010.04.16 15:46:19.
