data_PCOD8299332
_publ_section_title
;
Structure prediction by ZEFSAII (Michael W. Deem and Ramdas Pophale) SiO2 
 PCOD8299332
Probable space group: I M M A
;
_chemical_formula_sum "Si O2"
_cell_formula_units_Z 88
_cell_length_a 10.738114
_cell_length_b 22.587946
_cell_length_c 17.744251
_cell_angle_alpha 90.000000
_cell_angle_beta 90.000000
_cell_angle_gamma 90.000000
_cell_volume 4303.902489
_symmetry_space_group_name_H-M "I M M A"
_symmetry_group_IT_number 74
_symmetry_cell_setting 'orthorhombic'
loop_
_space_group_symop_operation_xyz
x,y,z
-x,1/2-y,z
x,-y,-z
-x,1/2+y,-z
-x,-y,-z
x,1/2+y,-z
-x,y,z
x,1/2-y,z
1/2+x,1/2+y,1/2+z
1/2-x,-y,1/2+z
1/2+x,1/2-y,1/2-z
1/2-x,y,1/2-z
1/2-x,1/2-y,1/2-z
1/2+x,y,1/2-z
1/2-x,1/2+y,1/2+z
1/2+x,-y,1/2+z
loop_
_atom_site_type_symbol
_atom_site_label
_atom_site_fract_x
_atom_site_fract_y
_atom_site_fract_z
Si Si1 0.767366 0.854146 0.407710
Si Si2 0.000000 0.185189 0.907964
Si Si3 0.859304 0.410335 0.309943
Si Si4 0.145020 0.517697 0.419022
Si Si5 0.231654 0.320830 0.419968
Si Si6 0.360415 0.750000 0.190007
Si Si7 0.500000 0.185637 0.414472
O O1 0.623450 0.848909 0.382626
O O2 0.800294 0.921215 0.388112
O O3 0.794119 0.840091 0.494889
O O4 0.850238 0.808794 0.360486
O O5 0.000000 0.250000 0.869832
O O6 0.000000 0.193922 0.996522
O O7 0.750000 0.401677 0.250000
O O8 0.824176 0.468038 0.357839
O O9 0.864667 0.353146 0.364982
O O10 0.000000 0.415495 0.275010
O O11 0.205177 0.500000 0.500000
O O12 0.000000 0.526774 0.430772
O O13 0.220855 0.250000 0.412856
O O14 0.369314 0.345178 0.392941
O O15 0.500000 0.750000 0.225811
O O16 0.250000 0.750000 0.250000
O O17 0.500000 0.250000 0.375551
#
# Coordination Sequence:
#
# PCOD8299332 Si02
#       7
#    16   8  16  16  16   8   8
#     4  11  20  40  68  99 129 169 224 271 327 384
#     4   9  16  32  60  94 134 168 195 261 330 380
#     4  11  26  45  65  93 134 175 212 270 335 391
#     4  10  21  41  67  94 125 167 223 279 327 376
#     4  10  19  37  66 101 128 168 219 275 324 387
#     4  12  28  42  64 100 137 174 218 271 336 405
#     4   7  14  28  53  91 127 159 197 245 320 374
#
# _framework density 20.446559000000001
#
# number of rings (size 3 to 8) (size 9 to 14) (size 15 to 20)
#    0.000    1.818    3.636    1.636    2.545    2.182 
#    1.636    0.455    0.000    0.000    0.000    0.000 
#    0.000    0.000    0.000    0.000    0.000    0.000 
#
# Total GULP energy -545303.399230 kJ/mol
# GULP energy per Si atom -12393.259073 kJ/mol
# Density = 2.040002 g / cm^3
# Si number density = 20.446559 Si / 1000 Ang^3
#
#
#
# Elastic Constant Matrix: (Units=GPa)
#
#
# Indices 1 2 3 4 5 6 
#
# 1 100.6184 33.5125 50.6288 0.0000 0.0000 0.0000
# 2 33.5125 130.3900 35.4696 0.0000 0.0000 0.0000
# 3 50.6288 35.4696 75.6276 0.0001 0.0000 0.0000
# 4 0.0000 0.0000 0.0001 21.0538 0.0000 0.0000
# 5 0.0000 0.0000 0.0000 0.0000 25.5124 0.0000
# 6 0.0000 0.0000 0.0000 0.0000 0.0000 29.1891
#
#
#
# Elastic Compliance Matrix: (Units=1/GPa)
#
#
# Indices 1 2 3 4 5 6 
#
# 1 0.015178 -0.001303 -0.009549 0.000000 0.000000 0.000000
# 2 -0.001303 0.008903 -0.003303 0.000000 0.000000 0.000000
# 3 -0.009549 -0.003303 0.021165 0.000000 0.000000 0.000000
# 4 0.000000 0.000000 0.000000 0.047497 0.000000 0.000000
# 5 0.000000 0.000000 0.000000 0.000000 0.039197 0.000000
# 6 0.000000 0.000000 0.000000 0.000000 0.000000 0.034259
#
#
# Mechanical properties :
#
#
# Convention : Reuss Voigt Hill
#
# Bulk Modulus (GPa) = 59.05360 60.65087 59.85224
# Shear Modulus (GPa) = 24.98071 27.61939 26.30005
#
# Velocity S-wave (km/s) = 3.49915 3.67932 3.59037
# Velocity P-wave (km/s) = 6.72830 6.91212 6.82083
#
# Compressibility (1/GPa) = 0.01693377
#
# Stress axis : x y z
#
# Youngs Moduli (GPa) = 65.88630 112.32487 47.24857
#
# Poissons Ratio (x) = 0.14638 0.45120
# Poissons Ratio (y) = 0.08586 0.15606
# Poissons Ratio (z) = 0.62918 0.37101
#
# Static dielectric constant tensor:
#      x y z
#    x 4.036320 0.000000 0.000000 
#    y 0.000000 3.752680 0.000000 
#    z 0.000000 0.000000 3.487370 
# 
# 
# High freq. dielectric constant tensor:
#      x y z
#    x 1.805580 0.000000 0.000000 
#    y 0.000000 1.794540 0.000000 
#    z 0.000000 0.000000 1.779960 
# 
# From -- ./inp_files/41321.got.cif
#   From: 2010.03.12/outbox.cif.g09.slc.cpg/sg74_21_cif.got.tgz:41321.got - 2010.04.16 15:46:19.
