data_PCOD8299430
_publ_section_title
;
Structure prediction by ZEFSAII (Michael W. Deem and Ramdas Pophale) SiO2 
 PCOD8299430
Probable space group: I M M A
;
_chemical_formula_sum "Si O2"
_cell_formula_units_Z 104
_cell_length_a 8.515610
_cell_length_b 32.009661
_cell_length_c 20.641855
_cell_angle_alpha 90.000000
_cell_angle_beta 90.000000
_cell_angle_gamma 90.000000
_cell_volume 5626.593771
_symmetry_space_group_name_H-M "I M M A"
_symmetry_group_IT_number 74
_symmetry_cell_setting 'orthorhombic'
loop_
_space_group_symop_operation_xyz
x,y,z
-x,1/2-y,z
x,-y,-z
-x,1/2+y,-z
-x,-y,-z
x,1/2+y,-z
-x,y,z
x,1/2-y,z
1/2+x,1/2+y,1/2+z
1/2-x,-y,1/2+z
1/2+x,1/2-y,1/2-z
1/2-x,y,1/2-z
1/2-x,1/2-y,1/2-z
1/2+x,y,1/2-z
1/2-x,1/2+y,1/2+z
1/2+x,-y,1/2+z
loop_
_atom_site_type_symbol
_atom_site_label
_atom_site_fract_x
_atom_site_fract_y
_atom_site_fract_z
Si Si1 0.182462 0.750000 0.319065
Si Si2 0.184645 0.964107 0.180288
Si Si3 0.817818 0.795361 0.948768
Si Si4 0.680108 0.591073 0.065084
Si Si5 0.179439 0.685013 0.419028
Si Si6 0.815334 0.555356 0.682995
Si Si7 0.813620 0.112399 0.072287
O O1 0.250000 0.750000 0.250000
O O2 0.238563 0.708341 0.355275
O O3 0.000000 0.750000 0.312437
O O4 0.250000 0.948071 0.250000
O O5 0.251402 0.940229 0.118026
O O6 0.000000 0.958014 0.181724
O O7 0.227408 0.012172 0.169106
O O8 0.746478 0.750000 0.923720
O O9 0.750715 0.839254 0.920105
O O10 0.000000 0.794322 0.933239
O O11 0.792193 0.798478 0.025072
O O12 0.500000 0.578987 0.050507
O O13 0.696102 0.636471 0.096511
O O14 0.773293 0.591463 0.996995
O O15 0.000000 0.696516 0.438056
O O16 0.750000 0.574631 0.750000
O O17 0.779235 0.587654 0.626589
O O18 0.000000 0.546902 0.688148
O O19 0.000000 0.109685 0.082584
#
# Coordination Sequence:
#
# PCOD8299430 Si02
#       7
#     8  16  16  16  16  16  16
#     4  10  20  32  44  64  92 130 175 220 265 312
#     4  11  22  38  58  80 107 144 185 226 274 329
#     4   9  17  30  52  79 106 137 173 213 260 313
#     4  10  20  35  54  80 110 142 182 231 277 322
#     4   9  18  32  49  68  97 133 173 219 268 314
#     4  11  22  39  61  84 110 142 179 220 268 327
#     4  10  20  35  55  84 116 145 181 224 272 324
#
# _framework density 18.483651999999999
#
# number of rings (size 3 to 8) (size 9 to 14) (size 15 to 20)
#    0.000    2.000    0.769    4.615    0.000    3.077 
#    0.000    4.615    0.000    0.462    0.000    0.000 
#    0.000    0.000    0.000    0.000    0.000    0.000 
#
# Total GULP energy -644371.777325 kJ/mol
# GULP energy per Si atom -12391.764949 kJ/mol
# Density = 1.844158 g / cm^3
# Si number density = 18.483652 Si / 1000 Ang^3
#
#
#
# Elastic Constant Matrix: (Units=GPa)
#
#
# Indices 1 2 3 4 5 6 
#
# 1 51.6103 6.6275 7.1251 0.0000 0.0000 0.0000
# 2 6.6275 85.3406 48.7929 0.0000 0.0000 0.0000
# 3 7.1251 48.7929 91.6620 0.0001 0.0000 0.0000
# 4 0.0000 0.0000 0.0001 24.1882 0.0000 0.0000
# 5 0.0000 0.0000 0.0000 0.0000 31.1782 0.0000
# 6 0.0000 0.0000 0.0000 0.0000 0.0000 21.3919
#
#
#
# Elastic Compliance Matrix: (Units=1/GPa)
#
#
# Indices 1 2 3 4 5 6 
#
# 1 0.019638 -0.000938 -0.001027 0.000000 0.000000 0.000000
# 2 -0.000938 0.016889 -0.008917 0.000000 0.000000 0.000000
# 3 -0.001027 -0.008917 0.015736 0.000000 0.000000 0.000000
# 4 0.000000 0.000000 0.000000 0.041342 0.000000 0.000000
# 5 0.000000 0.000000 0.000000 0.000000 0.032074 0.000000
# 6 0.000000 0.000000 0.000000 0.000000 0.000000 0.046747
#
#
# Mechanical properties :
#
#
# Convention : Reuss Voigt Hill
#
# Bulk Modulus (GPa) = 32.78827 39.30042 36.04434
# Shear Modulus (GPa) = 24.46694 26.42283 25.44489
#
# Velocity S-wave (km/s) = 3.64223 3.78501 3.71430
# Velocity P-wave (km/s) = 5.95528 6.35690 6.15936
#
# Compressibility (1/GPa) = 0.03049871
#
# Stress axis : x y z
#
# Youngs Moduli (GPa) = 50.92113 59.21012 63.54723
#
# Poissons Ratio (x) = 0.05552 0.06529
# Poissons Ratio (y) = 0.04775 0.56667
# Poissons Ratio (z) = 0.05232 0.52800
#
# Static dielectric constant tensor:
#      x y z
#    x 3.554600 0.000000 0.000000 
#    y 0.000000 4.449980 0.000000 
#    z 0.000000 0.000000 3.272700 
# 
# 
# High freq. dielectric constant tensor:
#      x y z
#    x 1.721610 0.000000 0.000000 
#    y 0.000000 1.727130 0.000000 
#    z 0.000000 0.000000 1.698310 
# 
# From -- ./inp_files/49611.got.cif
#   From: 2010.03.12/outbox.cif.g09.slc.cpg/sg74_25_cif.got.tgz:49611.got - 2010.04.16 15:46:19.
