data_PCOD8299642
_publ_section_title
;
Structure prediction by ZEFSAII (Michael W. Deem and Ramdas Pophale) SiO2 
 PCOD8299642
Probable space group: I M M A
;
_chemical_formula_sum "Si O2"
_cell_formula_units_Z 96
_cell_length_a 16.652034
_cell_length_b 18.178290
_cell_length_c 18.598902
_cell_angle_alpha 90.000000
_cell_angle_beta 90.000000
_cell_angle_gamma 90.000000
_cell_volume 5629.989988
_symmetry_space_group_name_H-M "I M M A"
_symmetry_group_IT_number 74
_symmetry_cell_setting 'orthorhombic'
loop_
_space_group_symop_operation_xyz
x,y,z
-x,1/2-y,z
x,-y,-z
-x,1/2+y,-z
-x,-y,-z
x,1/2+y,-z
-x,y,z
x,1/2-y,z
1/2+x,1/2+y,1/2+z
1/2-x,-y,1/2+z
1/2+x,1/2-y,1/2-z
1/2-x,y,1/2-z
1/2-x,1/2-y,1/2-z
1/2+x,y,1/2-z
1/2-x,1/2+y,1/2+z
1/2+x,-y,1/2+z
loop_
_atom_site_type_symbol
_atom_site_label
_atom_site_fract_x
_atom_site_fract_y
_atom_site_fract_z
Si Si1 0.145060 0.964064 0.177996
Si Si2 0.500000 0.525279 0.584499
Si Si3 0.675239 0.334845 0.938923
Si Si4 0.144100 0.168502 0.912633
Si Si5 0.170690 0.026867 0.659746
Si Si6 0.500000 0.665325 0.514468
Si Si7 0.410043 0.929290 0.949924
O O1 0.129036 0.972320 0.262266
O O2 0.234760 0.991023 0.159914
O O3 0.079857 0.003540 0.127823
O O4 0.140565 0.877747 0.160272
O O5 0.500000 0.500000 0.500000
O O6 0.500000 0.614338 0.584816
O O7 0.649490 0.250000 0.919670
O O8 0.650902 0.393572 0.876691
O O9 0.770417 0.338198 0.951988
O O10 0.634444 0.360153 0.013348
O O11 0.125073 0.250000 0.886247
O O12 0.077660 0.142278 0.968750
O O13 0.133188 0.955245 0.622420
O O14 0.500000 0.750000 0.538437
O O15 0.500000 0.903505 0.932392
O O16 0.408959 0.000000 0.000000
#
# Coordination Sequence:
#
# PCOD8299642 Si02
#       7
#    16   8  16  16  16   8  16
#     4  10  20  33  50  79 108 141 178 214 259 313
#     4  12  22  32  56  84 105 138 183 228 258 312
#     4   9  18  32  53  78 102 136 176 215 260 315
#     4   9  17  30  49  75 109 139 168 207 260 318
#     4   9  20  34  51  74 110 144 173 213 263 320
#     4  10  20  34  50  76 108 138 168 214 270 311
#     4   9  18  32  51  71  96 131 173 218 258 298
#
# _framework density 17.051539999999999
#
# number of rings (size 3 to 8) (size 9 to 14) (size 15 to 20)
#    0.000    2.500    1.667    0.000    3.500    1.667 
#    0.000    3.333    0.000    1.000    0.000    2.333 
#    0.000    0.000    0.000    0.000    0.000    0.000 
#
# Total GULP energy -594810.963641 kJ/mol
# GULP energy per Si atom -12391.895076 kJ/mol
# Density = 1.701273 g / cm^3
# Si number density = 17.051540 Si / 1000 Ang^3
#
#
#
# Elastic Constant Matrix: (Units=GPa)
#
#
# Indices 1 2 3 4 5 6 
#
# 1 92.8603 38.0157 60.8325 0.0000 0.0000 0.0000
# 2 38.0157 70.7788 61.9184 0.0000 0.0000 0.0000
# 3 60.8325 61.9184 122.2224 0.0000 0.0000 0.0000
# 4 0.0000 0.0000 0.0000 22.6538 0.0000 0.0000
# 5 0.0000 0.0000 0.0000 0.0000 26.5489 0.0000
# 6 0.0000 0.0000 0.0000 0.0000 0.0000 24.5504
#
#
#
# Elastic Compliance Matrix: (Units=1/GPa)
#
#
# Indices 1 2 3 4 5 6 
#
# 1 0.016322 -0.002981 -0.006613 0.000000 0.000000 0.000000
# 2 -0.002981 0.025918 -0.011647 0.000000 0.000000 0.000000
# 3 -0.006613 -0.011647 0.017374 0.000000 0.000000 0.000000
# 4 0.000000 0.000000 0.000000 0.044143 0.000000 0.000000
# 5 0.000000 0.000000 0.000000 0.000000 0.037666 0.000000
# 6 0.000000 0.000000 0.000000 0.000000 0.000000 0.040733
#
#
# Mechanical properties :
#
#
# Convention : Reuss Voigt Hill
#
# Bulk Modulus (GPa) = 58.37170 67.48831 62.93001
# Shear Modulus (GPa) = 21.70631 23.09028 22.39829
#
# Velocity S-wave (km/s) = 3.57176 3.68386 3.62824
# Velocity P-wave (km/s) = 7.16357 7.59996 7.38499
#
# Compressibility (1/GPa) = 0.01713159
#
# Stress axis : x y z
#
# Youngs Moduli (GPa) = 61.26820 38.58284 57.55820
#
# Poissons Ratio (x) = 0.11501 0.38066
# Poissons Ratio (y) = 0.18263 0.67036
# Poissons Ratio (z) = 0.40520 0.44936
#
# Static dielectric constant tensor:
#      x y z
#    x 3.356860 0.000000 0.000000 
#    y 0.000000 3.250320 0.000000 
#    z 0.000000 0.000000 3.075250 
# 
# 
# High freq. dielectric constant tensor:
#      x y z
#    x 1.669660 0.000000 0.000000 
#    y 0.000000 1.648440 0.000000 
#    z 0.000000 0.000000 1.633730 
# 
# From -- ./inp_files/44146.got.cif
#   From: 2010.03.12/outbox.cif.g09.slc.cpg/sg74_23_cif.got.tgz:44146.got - 2010.04.16 15:46:19.
