data_PCOD8299641
_publ_section_title
;
Structure prediction by ZEFSAII (Michael W. Deem and Ramdas Pophale) SiO2 
 PCOD8299641
Probable space group: I M M A
;
_chemical_formula_sum "Si O2"
_cell_formula_units_Z 80
_cell_length_a 11.102164
_cell_length_b 13.871129
_cell_length_c 26.363599
_cell_angle_alpha 90.000000
_cell_angle_beta 90.000000
_cell_angle_gamma 90.000000
_cell_volume 4059.982357
_symmetry_space_group_name_H-M "I M M A"
_symmetry_group_IT_number 74
_symmetry_cell_setting 'orthorhombic'
loop_
_space_group_symop_operation_xyz
x,y,z
-x,1/2-y,z
x,-y,-z
-x,1/2+y,-z
-x,-y,-z
x,1/2+y,-z
-x,y,z
x,1/2-y,z
1/2+x,1/2+y,1/2+z
1/2-x,-y,1/2+z
1/2+x,1/2-y,1/2-z
1/2-x,y,1/2-z
1/2-x,1/2-y,1/2-z
1/2+x,y,1/2-z
1/2-x,1/2+y,1/2+z
1/2+x,-y,1/2+z
loop_
_atom_site_type_symbol
_atom_site_label
_atom_site_fract_x
_atom_site_fract_y
_atom_site_fract_z
Si Si1 0.637831 0.637088 0.285530
Si Si2 0.774084 0.855329 0.572090
Si Si3 0.869798 0.607094 0.019235
Si Si4 0.500000 0.134316 0.895197
Si Si5 0.749646 0.053847 0.881199
Si Si6 0.000000 0.636262 0.510436
O O1 0.500000 0.614436 0.265242
O O2 0.650391 0.750000 0.295917
O O3 0.750000 0.603168 0.250000
O O4 0.654912 0.580558 0.338088
O O5 0.799411 0.750000 0.598378
O O6 0.676254 0.832270 0.528660
O O7 0.886570 0.901088 0.542019
O O8 0.738682 0.937204 0.612776
O O9 0.781912 0.612321 0.067526
O O10 0.000000 0.647766 0.035691
O O11 0.881656 0.500000 0.000000
O O12 0.500000 0.250000 0.890043
O O13 0.615797 0.089842 0.866394
O O14 0.500000 0.095800 0.953345
O O15 0.000000 0.750000 0.507526
#
# Coordination Sequence:
#
# PCOD8299641 Si02
#       6
#    16  16  16   8  16   8
#     4  10  23  43  65  88 113 142 180 234 296 357
#     4  10  20  33  50  78 114 153 192 228 268 323
#     4   9  18  31  47  71 105 144 185 226 269 321
#     4  11  21  31  52  84 113 149 196 240 282 331
#     4  11  21  34  57  81 110 148 187 232 283 338
#     4   9  17  31  47  72 115 155 192 231 267 312
#
# _framework density 19.704519000000001
#
# number of rings (size 3 to 8) (size 9 to 14) (size 15 to 20)
#    0.000    2.000    2.000    1.800    1.400    2.800 
#    0.000    0.000    0.000    0.600    0.000    0.000 
#    0.000    0.000    0.000    0.000    0.000    0.000 
#
# Total GULP energy -495644.573992 kJ/mol
# GULP energy per Si atom -12391.114350 kJ/mol
# Density = 1.965967 g / cm^3
# Si number density = 19.704519 Si / 1000 Ang^3
#
#
#
# Elastic Constant Matrix: (Units=GPa)
#
#
# Indices 1 2 3 4 5 6 
#
# 1 137.8026 21.5464 25.8891 0.0000 0.0000 0.0000
# 2 21.5464 91.5854 26.0709 0.0000 0.0000 0.0000
# 3 25.8891 26.0709 55.0484 0.0000 0.0000 0.0000
# 4 0.0000 0.0000 0.0000 23.6290 0.0000 0.0000
# 5 0.0000 0.0000 0.0000 0.0000 30.4085 0.0000
# 6 0.0000 0.0000 0.0000 0.0000 0.0000 4.5800
#
#
#
# Elastic Compliance Matrix: (Units=1/GPa)
#
#
# Indices 1 2 3 4 5 6 
#
# 1 0.008030 -0.000941 -0.003331 0.000000 0.000000 0.000000
# 2 -0.000941 0.012730 -0.005587 0.000000 0.000000 0.000000
# 3 -0.003331 -0.005587 0.022378 0.000000 0.000000 0.000000
# 4 0.000000 0.000000 0.000000 0.042321 0.000000 0.000000
# 5 0.000000 0.000000 0.000000 0.000000 0.032886 0.000000
# 6 0.000000 0.000000 0.000000 0.000000 0.000000 0.218343
#
#
# Mechanical properties :
#
#
# Convention : Reuss Voigt Hill
#
# Bulk Modulus (GPa) = 42.69554 47.93881 45.31717
# Shear Modulus (GPa) = 13.72831 25.78549 19.75690
#
# Velocity S-wave (km/s) = 2.64239 3.62139 3.16991
# Velocity P-wave (km/s) = 5.56997 6.47052 6.03706
#
# Compressibility (1/GPa) = 0.02342165
#
# Stress axis : x y z
#
# Youngs Moduli (GPa) = 124.53896 78.55195 44.68666
#
# Poissons Ratio (x) = 0.07391 0.14884
# Poissons Ratio (y) = 0.11718 0.24965
# Poissons Ratio (z) = 0.41480 0.43884
#
# Static dielectric constant tensor:
#      x y z
#    x 4.166500 0.000000 0.000000 
#    y 0.000000 4.279510 0.000000 
#    z 0.000000 0.000000 3.226410 
# 
# 
# High freq. dielectric constant tensor:
#      x y z
#    x 1.788020 0.000000 0.000000 
#    y 0.000000 1.762260 0.000000 
#    z 0.000000 0.000000 1.714320 
# 
# From -- ./inp_files/58556.got.cif
#   From: 2010.03.12/outbox.cif.g09.slc.cpg/sg74_30_cif.got.tgz:58556.got - 2010.04.16 15:46:19.
