data_PCOD8299110
_publ_section_title
;
Structure prediction by ZEFSAII (Michael W. Deem and Ramdas Pophale) SiO2 
 PCOD8299110
Probable space group: I M M A
;
_chemical_formula_sum "Si O2"
_cell_formula_units_Z 96
_cell_length_a 15.092568
_cell_length_b 14.896560
_cell_length_c 21.901316
_cell_angle_alpha 90.000000
_cell_angle_beta 90.000000
_cell_angle_gamma 90.000000
_cell_volume 4924.014723
_symmetry_space_group_name_H-M "I M M A"
_symmetry_group_IT_number 74
_symmetry_cell_setting 'orthorhombic'
loop_
_space_group_symop_operation_xyz
x,y,z
-x,1/2-y,z
x,-y,-z
-x,1/2+y,-z
-x,-y,-z
x,1/2+y,-z
-x,y,z
x,1/2-y,z
1/2+x,1/2+y,1/2+z
1/2-x,-y,1/2+z
1/2+x,1/2-y,1/2-z
1/2-x,y,1/2-z
1/2-x,1/2-y,1/2-z
1/2+x,y,1/2-z
1/2-x,1/2+y,1/2+z
1/2+x,-y,1/2+z
loop_
_atom_site_type_symbol
_atom_site_label
_atom_site_fract_x
_atom_site_fract_y
_atom_site_fract_z
Si Si1 0.600200 0.452887 0.165526
Si Si2 0.897662 0.146864 0.889241
Si Si3 0.732294 0.644305 0.628592
Si Si4 0.229294 0.351214 0.992518
Si Si5 0.898832 0.486135 0.196129
Si Si6 0.597615 0.925583 0.051812
O O1 0.500000 0.414727 0.159216
O O2 0.668193 0.372036 0.153046
O O3 0.617676 0.494617 0.231903
O O4 0.616637 0.532910 0.118025
O O5 0.870496 0.250000 0.873428
O O6 0.842218 0.106383 0.946278
O O7 0.000000 0.141529 0.907812
O O8 0.875859 0.083864 0.831469
O O9 0.712694 0.750000 0.632628
O O10 0.725846 0.603944 0.559579
O O11 0.661675 0.592512 0.669521
O O12 0.200930 0.250000 0.002884
O O13 0.327171 0.353366 0.963019
O O14 0.000000 0.459529 0.181331
O O15 0.500000 0.880052 0.050800
O O16 0.603172 0.000000 0.000000
#
# Coordination Sequence:
#
# PCOD8299110 Si02
#       6
#    16  16  16  16  16  16
#     4  10  21  37  56  81 109 142 187 229 271 327
#     4   9  19  37  60  85 112 143 181 226 279 335
#     4  11  23  37  55  80 112 151 189 228 273 319
#     4  10  21  35  54  82 112 143 183 230 274 324
#     4  10  22  38  57  82 112 146 184 228 274 327
#     4  10  19  34  57  79 103 141 181 224 277 327
#
# _framework density 19.496286000000001
#
# number of rings (size 3 to 8) (size 9 to 14) (size 15 to 20)
#    0.000    2.000    1.667    1.500    0.000    3.000 
#    0.000    7.500    0.000    7.000    0.000    0.000 
#    0.000    0.000    0.000    0.000    0.000    0.000 
#
# Total GULP energy -595080.507939 kJ/mol
# GULP energy per Si atom -12397.510582 kJ/mol
# Density = 1.945191 g / cm^3
# Si number density = 19.496286 Si / 1000 Ang^3
#
#
#
# Elastic Constant Matrix: (Units=GPa)
#
#
# Indices 1 2 3 4 5 6 
#
# 1 88.8279 32.0325 60.1506 0.0000 0.0000 0.0000
# 2 32.0325 61.8517 44.4763 0.0000 0.0000 0.0000
# 3 60.1506 44.4763 160.8810 0.0000 0.0000 0.0000
# 4 0.0000 0.0000 0.0000 25.9010 0.0000 0.0000
# 5 0.0000 0.0000 0.0000 0.0000 33.6696 0.0000
# 6 0.0000 0.0000 0.0000 0.0000 0.0000 28.2829
#
#
#
# Elastic Compliance Matrix: (Units=1/GPa)
#
#
# Indices 1 2 3 4 5 6 
#
# 1 0.016247 -0.005050 -0.004678 0.000000 0.000000 0.000000
# 2 -0.005050 0.021749 -0.004124 0.000000 0.000000 0.000000
# 3 -0.004678 -0.004124 0.009105 0.000000 0.000000 0.000000
# 4 0.000000 0.000000 0.000000 0.038609 0.000000 0.000000
# 5 0.000000 0.000000 0.000000 0.000000 0.029700 0.000000
# 6 0.000000 0.000000 0.000000 0.000000 0.000000 0.035357
#
#
# Mechanical properties :
#
#
# Convention : Reuss Voigt Hill
#
# Bulk Modulus (GPa) = 51.55903 64.98661 58.27282
# Shear Modulus (GPa) = 27.03618 29.23078 28.13348
#
# Velocity S-wave (km/s) = 3.72793 3.87628 3.80283
# Velocity P-wave (km/s) = 6.71066 7.31021 7.01684
#
# Compressibility (1/GPa) = 0.01939524
#
# Stress axis : x y z
#
# Youngs Moduli (GPa) = 61.55071 45.97941 109.82820
#
# Poissons Ratio (x) = 0.23220 0.51381
# Poissons Ratio (y) = 0.31083 0.45298
# Poissons Ratio (z) = 0.28795 0.18964
#
# Static dielectric constant tensor:
#      x y z
#    x 3.811590 0.000000 0.000000 
#    y 0.000000 3.236090 0.000000 
#    z 0.000000 0.000000 3.874970 
# 
# 
# High freq. dielectric constant tensor:
#      x y z
#    x 1.772360 0.000000 0.000000 
#    y 0.000000 1.732230 0.000000 
#    z 0.000000 0.000000 1.771070 
# 
# From -- ./inp_files/51826.got.cif
#   From: 2010.03.12/outbox.cif.g09.slc.cpg/sg74_26_cif.got.tgz:51826.got - 2010.04.16 15:46:19.
