data_PCOD8299646
_publ_section_title
;
Structure prediction by ZEFSAII (Michael W. Deem and Ramdas Pophale) SiO2 
 PCOD8299646
Probable space group: I M M A
;
_chemical_formula_sum "Si O2"
_cell_formula_units_Z 96
_cell_length_a 8.743502
_cell_length_b 23.663841
_cell_length_c 24.015603
_cell_angle_alpha 90.000000
_cell_angle_beta 90.000000
_cell_angle_gamma 90.000000
_cell_volume 4968.944523
_symmetry_space_group_name_H-M "I M M A"
_symmetry_group_IT_number 74
_symmetry_cell_setting 'orthorhombic'
loop_
_space_group_symop_operation_xyz
x,y,z
-x,1/2-y,z
x,-y,-z
-x,1/2+y,-z
-x,-y,-z
x,1/2+y,-z
-x,y,z
x,1/2-y,z
1/2+x,1/2+y,1/2+z
1/2-x,-y,1/2+z
1/2+x,1/2-y,1/2-z
1/2-x,y,1/2-z
1/2-x,1/2-y,1/2-z
1/2+x,y,1/2-z
1/2-x,1/2+y,1/2+z
1/2+x,-y,1/2+z
loop_
_atom_site_type_symbol
_atom_site_label
_atom_site_fract_x
_atom_site_fract_y
_atom_site_fract_z
Si Si1 0.330683 0.689117 0.200205
Si Si2 0.824706 0.185146 0.393780
Si Si3 0.317277 0.982299 0.190010
Si Si4 0.827839 0.109102 0.600946
Si Si5 0.319535 0.103145 0.308022
Si Si6 0.322111 0.685704 0.487836
O O1 0.500000 0.696548 0.221943
O O2 0.248401 0.750000 0.193591
O O3 0.250000 0.653661 0.250000
O O4 0.328568 0.661886 0.140920
O O5 0.804684 0.250000 0.375828
O O6 0.714098 0.148804 0.355031
O O7 0.776502 0.176288 0.457169
O O8 0.000000 0.165465 0.386697
O O9 0.500000 0.978995 0.194545
O O10 0.250000 0.962948 0.250000
O O11 0.262356 0.943323 0.137660
O O12 0.260502 0.044602 0.175001
O O13 0.721636 0.132259 0.551374
O O14 0.000000 0.095660 0.579117
O O15 0.500000 0.093626 0.301598
O O16 0.250000 0.125384 0.250000
O O17 0.500000 0.679975 0.502148
O O18 0.288596 0.750000 0.464627
#
# Coordination Sequence:
#
# PCOD8299646 Si02
#       6
#    16  16  16  16  16  16
#     4   9  17  28  42  63  93 128 169 220 276 327
#     4  10  21  39  63  88 115 146 178 217 269 327
#     4  10  20  35  55  80 111 147 189 234 281 331
#     4  10  20  33  51  74 102 142 188 231 275 326
#     4  11  22  38  61  87 117 149 181 220 267 323
#     4  10  21  36  55  81 112 146 185 230 278 328
#
# _framework density 19.319997999999998
#
# number of rings (size 3 to 8) (size 9 to 14) (size 15 to 20)
#    0.000    2.000    0.000    5.000    0.000    5.000 
#    0.000    2.500    0.000    5.000    0.000    0.000 
#    0.000    0.000    0.000    0.000    0.000    0.000 
#
# Total GULP energy -594695.319359 kJ/mol
# GULP energy per Si atom -12389.485820 kJ/mol
# Density = 1.927602 g / cm^3
# Si number density = 19.319998 Si / 1000 Ang^3
#
#
#
# Elastic Constant Matrix: (Units=GPa)
#
#
# Indices 1 2 3 4 5 6 
#
# 1 75.3649 29.3185 28.1859 0.0000 0.0000 0.0000
# 2 29.3185 87.9193 48.5051 0.0000 0.0000 0.0000
# 3 28.1859 48.5051 76.3895 0.0000 0.0000 0.0000
# 4 0.0000 0.0000 0.0000 36.4867 0.0000 0.0000
# 5 0.0000 0.0000 0.0000 0.0000 35.6942 0.0000
# 6 0.0000 0.0000 0.0000 0.0000 0.0000 26.7553
#
#
#
# Elastic Compliance Matrix: (Units=1/GPa)
#
#
# Indices 1 2 3 4 5 6 
#
# 1 0.015954 -0.003190 -0.003861 0.000000 0.000000 0.000000
# 2 -0.003190 0.018145 -0.010344 0.000000 0.000000 0.000000
# 3 -0.003861 -0.010344 0.021084 0.000000 0.000000 0.000000
# 4 0.000000 0.000000 0.000000 0.027407 0.000000 0.000000
# 5 0.000000 0.000000 0.000000 0.000000 0.028016 0.000000
# 6 0.000000 0.000000 0.000000 0.000000 0.000000 0.037376
#
#
# Mechanical properties :
#
#
# Convention : Reuss Voigt Hill
#
# Bulk Modulus (GPa) = 49.03982 50.18808 49.61395
# Shear Modulus (GPa) = 26.37558 28.69818 27.53688
#
# Velocity S-wave (km/s) = 3.69886 3.85829 3.77942
# Velocity P-wave (km/s) = 6.60910 6.77364 6.69187
#
# Compressibility (1/GPa) = 0.02039159
#
# Stress axis : x y z
#
# Youngs Moduli (GPa) = 62.68128 55.11197 47.42969
#
# Poissons Ratio (x) = 0.17581 0.18313
# Poissons Ratio (y) = 0.19995 0.49063
# Poissons Ratio (z) = 0.24201 0.57010
#
# Static dielectric constant tensor:
#      x y z
#    x 3.646880 0.000000 0.000000 
#    y 0.000000 3.550550 0.000000 
#    z 0.000000 0.000000 3.397530 
# 
# 
# High freq. dielectric constant tensor:
#      x y z
#    x 1.757440 0.000000 0.000000 
#    y 0.000000 1.747240 0.000000 
#    z 0.000000 0.000000 1.743240 
# 
# From -- ./inp_files/57231.got.cif
#   From: 2010.03.12/outbox.cif.g09.slc.cpg/sg74_29_cif.got.tgz:57231.got - 2010.04.16 15:46:19.
