data_PCOD8299100
_publ_section_title
;
Structure prediction by ZEFSAII (Michael W. Deem and Ramdas Pophale) SiO2 
 PCOD8299100
Probable space group: I M M A
;
_chemical_formula_sum "Si O2"
_cell_formula_units_Z 112
_cell_length_a 18.547192
_cell_length_b 18.146590
_cell_length_c 18.892505
_cell_angle_alpha 90.000000
_cell_angle_beta 90.000000
_cell_angle_gamma 90.000000
_cell_volume 6358.618080
_symmetry_space_group_name_H-M "I M M A"
_symmetry_group_IT_number 74
_symmetry_cell_setting 'orthorhombic'
loop_
_space_group_symop_operation_xyz
x,y,z
-x,1/2-y,z
x,-y,-z
-x,1/2+y,-z
-x,-y,-z
x,1/2+y,-z
-x,y,z
x,1/2-y,z
1/2+x,1/2+y,1/2+z
1/2-x,-y,1/2+z
1/2+x,1/2-y,1/2-z
1/2-x,y,1/2-z
1/2-x,1/2-y,1/2-z
1/2+x,y,1/2-z
1/2-x,1/2+y,1/2+z
1/2+x,-y,1/2+z
loop_
_atom_site_type_symbol
_atom_site_label
_atom_site_fract_x
_atom_site_fract_y
_atom_site_fract_z
Si Si1 0.195072 0.332357 0.623163
Si Si2 0.351928 0.334909 0.566200
Si Si3 0.915307 0.035391 0.843742
Si Si4 0.582635 0.834822 0.002969
Si Si5 0.174686 0.947825 0.568696
Si Si6 0.821332 0.968238 0.288403
Si Si7 0.334317 0.565966 0.554286
O O1 0.191750 0.250000 0.653440
O O2 0.266136 0.344238 0.575572
O O3 0.125805 0.350169 0.575208
O O4 0.197555 0.384425 0.690944
O O5 0.377274 0.250000 0.574703
O O6 0.391926 0.386415 0.622868
O O7 0.369435 0.363829 0.486471
O O8 0.889349 0.031645 0.763257
O O9 0.000000 0.029681 0.846502
O O10 0.884357 0.962668 0.882457
O O11 0.500000 0.858295 0.015588
O O12 0.588949 0.750000 0.980199
O O13 0.617042 0.882307 0.939602
O O14 0.254306 0.914039 0.580790
O O15 0.169651 0.000000 0.500000
O O16 0.155305 0.989901 0.640680
O O17 0.750000 0.001506 0.250000
O O18 0.325723 0.500000 0.500000
#
# Coordination Sequence:
#
# PCOD8299100 Si02
#       7
#    16  16  16  16  16  16  16
#     4  10  19  34  56  81 114 154 188 222 273 339
#     4  10  19  34  60  87 110 146 194 234 272 333
#     4  11  24  38  53  79 117 153 185 232 292 336
#     4  10  21  36  56  86 119 146 180 234 291 333
#     4  11  19  35  60  84 110 146 194 238 274 327
#     4  12  21  36  57  84 113 150 193 235 277 336
#     4   9  17  33  57  81 106 144 190 232 271 326
#
# _framework density 17.613890000000001
#
# number of rings (size 3 to 8) (size 9 to 14) (size 15 to 20)
#    0.000    1.571    5.714    0.857    0.000    5.143 
#    0.000    0.000    0.000    1.286    0.000    0.000 
#    0.000    0.000    0.000    0.000    0.000    0.000 
#
# Total GULP energy -694286.248705 kJ/mol
# GULP energy per Si atom -12397.968727 kJ/mol
# Density = 1.757380 g / cm^3
# Si number density = 17.613890 Si / 1000 Ang^3
#
#
#
# Elastic Constant Matrix: (Units=GPa)
#
#
# Indices 1 2 3 4 5 6 
#
# 1 105.5869 44.5465 32.8653 0.0000 0.0000 0.0000
# 2 44.5465 60.1779 54.5130 0.0000 0.0000 0.0000
# 3 32.8653 54.5130 110.1769 0.0000 0.0000 0.0000
# 4 0.0000 0.0000 0.0000 25.7652 0.0000 0.0000
# 5 0.0000 0.0000 0.0000 0.0000 25.3957 0.0000
# 6 0.0000 0.0000 0.0000 0.0000 0.0000 21.8148
#
#
#
# Elastic Compliance Matrix: (Units=1/GPa)
#
#
# Indices 1 2 3 4 5 6 
#
# 1 0.013949 -0.011882 0.001718 0.000000 0.000000 0.000000
# 2 -0.011882 0.040236 -0.016364 0.000000 0.000000 0.000000
# 3 0.001718 -0.016364 0.016660 0.000000 0.000000 0.000000
# 4 0.000000 0.000000 0.000000 0.038812 0.000000 0.000000
# 5 0.000000 0.000000 0.000000 0.000000 0.039377 0.000000
# 6 0.000000 0.000000 0.000000 0.000000 0.000000 0.045840
#
#
# Mechanical properties :
#
#
# Convention : Reuss Voigt Hill
#
# Bulk Modulus (GPa) = 56.21067 59.97680 58.09374
# Shear Modulus (GPa) = 19.69591 24.19629 21.94610
#
# Velocity S-wave (km/s) = 3.34758 3.71037 3.53364
# Velocity P-wave (km/s) = 6.85009 7.24435 7.04998
#
# Compressibility (1/GPa) = 0.01779022
#
# Stress axis : x y z
#
# Youngs Moduli (GPa) = 71.68928 24.85325 60.02344
#
# Poissons Ratio (x) = 0.29531 -0.10312
# Poissons Ratio (y) = 0.85181 0.98220
# Poissons Ratio (z) = -0.12316 0.40669
#
# Static dielectric constant tensor:
#      x y z
#    x 3.230740 0.000000 0.000000 
#    y 0.000000 3.448440 0.000000 
#    z 0.000000 0.000000 3.202920 
# 
# 
# High freq. dielectric constant tensor:
#      x y z
#    x 1.676640 0.000000 0.000000 
#    y 0.000000 1.670430 0.000000 
#    z 0.000000 0.000000 1.666770 
# 
# From -- ./inp_files/44414.got.cif
#   From: 2010.03.12/outbox.cif.g09.slc.cpg/sg74_23_cif.got.tgz:44414.got - 2010.04.16 15:46:19.
