data_PCOD8299309
_publ_section_title
;
Structure prediction by ZEFSAII (Michael W. Deem and Ramdas Pophale) SiO2 
 PCOD8299309
Probable space group: I M M A
;
_chemical_formula_sum "Si O2"
_cell_formula_units_Z 96
_cell_length_a 25.150950
_cell_length_b 8.706297
_cell_length_c 23.568320
_cell_angle_alpha 90.000000
_cell_angle_beta 90.000000
_cell_angle_gamma 90.000000
_cell_volume 5160.793695
_symmetry_space_group_name_H-M "I M M A"
_symmetry_group_IT_number 74
_symmetry_cell_setting 'orthorhombic'
loop_
_space_group_symop_operation_xyz
x,y,z
-x,1/2-y,z
x,-y,-z
-x,1/2+y,-z
-x,-y,-z
x,1/2+y,-z
-x,y,z
x,1/2-y,z
1/2+x,1/2+y,1/2+z
1/2-x,-y,1/2+z
1/2+x,1/2-y,1/2-z
1/2-x,y,1/2-z
1/2-x,1/2-y,1/2-z
1/2+x,y,1/2-z
1/2-x,1/2+y,1/2+z
1/2+x,-y,1/2+z
loop_
_atom_site_type_symbol
_atom_site_label
_atom_site_fract_x
_atom_site_fract_y
_atom_site_fract_z
Si Si1 0.750117 0.067767 0.560990
Si Si2 0.061480 0.570278 0.439909
Si Si3 0.653011 0.930350 0.874298
Si Si4 0.653749 0.431948 0.637123
Si Si5 0.059756 0.068124 0.940181
Si Si6 0.311852 0.929390 0.241291
O O1 0.750299 0.250000 0.557653
O O2 0.704693 0.004231 0.603251
O O3 0.737357 0.000000 0.500000
O O4 0.806746 0.012387 0.583012
O O5 0.078936 0.500000 0.500000
O O6 0.073851 0.750000 0.440924
O O7 0.094245 0.489183 0.389804
O O8 0.000000 0.535672 0.427286
O O9 0.657167 0.750000 0.883006
O O10 0.664988 0.971387 0.809516
O O11 0.655819 0.250000 0.634290
O O12 0.599252 0.493573 0.608787
O O13 0.656622 0.484059 0.702488
O O14 0.062638 0.250000 0.945152
O O15 0.000000 0.012900 0.925166
O O16 0.078618 0.000000 0.000000
O O17 0.320522 0.750000 0.227792
O O18 0.250000 0.964579 0.250000
#
# Coordination Sequence:
#
# PCOD8299309 Si02
#       6
#    16  16  16  16  16  16
#     4  11  21  35  53  78 109 142 180 226 279 332
#     4  10  21  39  63  88 114 147 186 228 277 334
#     4  12  24  37  55  82 114 147 184 229 277 332
#     4   9  18  33  54  77 104 140 182 224 273 326
#     4   9  17  31  52  78 107 138 173 215 264 320
#     4  10  19  37  59  77 104 148 190 231 278 329
#
# _framework density 18.601790999999999
#
# number of rings (size 3 to 8) (size 9 to 14) (size 15 to 20)
#    0.000    1.833    1.667    3.500    0.000    1.333 
#    0.000    2.500    0.000    3.000    0.000    0.000 
#    0.000    0.000    0.000    0.000    0.000    0.000 
#
# Total GULP energy -595325.912910 kJ/mol
# GULP energy per Si atom -12402.623186 kJ/mol
# Density = 1.855945 g / cm^3
# Si number density = 18.601791 Si / 1000 Ang^3
#
#
#
# Elastic Constant Matrix: (Units=GPa)
#
#
# Indices 1 2 3 4 5 6 
#
# 1 96.5309 32.9421 51.5903 0.0000 0.0000 0.0000
# 2 32.9421 67.9196 39.4670 0.0000 0.0000 0.0000
# 3 51.5903 39.4670 112.9177 0.0000 0.0000 0.0000
# 4 0.0000 0.0000 0.0000 33.4951 0.0000 0.0000
# 5 0.0000 0.0000 0.0000 0.0000 35.2733 0.0000
# 6 0.0000 0.0000 0.0000 0.0000 0.0000 18.1870
#
#
#
# Elastic Compliance Matrix: (Units=1/GPa)
#
#
# Indices 1 2 3 4 5 6 
#
# 1 0.014524 -0.004001 -0.005237 0.000000 0.000000 0.000000
# 2 -0.004001 0.019578 -0.005015 0.000000 0.000000 0.000000
# 3 -0.005237 -0.005015 0.013002 0.000000 0.000000 0.000000
# 4 0.000000 0.000000 0.000000 0.029855 0.000000 0.000000
# 5 0.000000 0.000000 0.000000 0.000000 0.028350 0.000000
# 6 0.000000 0.000000 0.000000 0.000000 0.000000 0.054984
#
#
# Mechanical properties :
#
#
# Convention : Reuss Voigt Hill
#
# Bulk Modulus (GPa) = 53.77195 58.37411 56.07303
# Shear Modulus (GPa) = 25.64129 27.61567 26.62848
#
# Velocity S-wave (km/s) = 3.71675 3.85719 3.78762
# Velocity P-wave (km/s) = 6.88394 7.16144 7.02406
#
# Compressibility (1/GPa) = 0.01859706
#
# Stress axis : x y z
#
# Youngs Moduli (GPa) = 68.85266 51.07803 76.91342
#
# Poissons Ratio (x) = 0.20436 0.40282
# Poissons Ratio (y) = 0.27548 0.38571
# Poissons Ratio (z) = 0.36060 0.25615
#
# Static dielectric constant tensor:
#      x y z
#    x 3.617690 0.000000 0.000000 
#    y 0.000000 3.262610 0.000000 
#    z 0.000000 0.000000 3.632030 
# 
# 
# High freq. dielectric constant tensor:
#      x y z
#    x 1.725330 0.000000 0.000000 
#    y 0.000000 1.709120 0.000000 
#    z 0.000000 0.000000 1.724480 
# 
# From -- ./inp_files/57488.got.cif
#   From: 2010.03.12/outbox.cif.g09.slc.cpg/sg74_29_cif.got.tgz:57488.got - 2010.04.16 15:46:19.
