data_PCOD8299167
_publ_section_title
;
Structure prediction by ZEFSAII (Michael W. Deem and Ramdas Pophale) SiO2 
 PCOD8299167
Probable space group: I M M A
;
_chemical_formula_sum "Si O2"
_cell_formula_units_Z 84
_cell_length_a 11.048768
_cell_length_b 14.979092
_cell_length_c 24.876706
_cell_angle_alpha 90.000000
_cell_angle_beta 90.000000
_cell_angle_gamma 90.000000
_cell_volume 4117.107589
_symmetry_space_group_name_H-M "I M M A"
_symmetry_group_IT_number 74
_symmetry_cell_setting 'orthorhombic'
loop_
_space_group_symop_operation_xyz
x,y,z
-x,1/2-y,z
x,-y,-z
-x,1/2+y,-z
-x,-y,-z
x,1/2+y,-z
-x,y,z
x,1/2-y,z
1/2+x,1/2+y,1/2+z
1/2-x,-y,1/2+z
1/2+x,1/2-y,1/2-z
1/2-x,y,1/2-z
1/2-x,1/2-y,1/2-z
1/2+x,y,1/2-z
1/2-x,1/2+y,1/2+z
1/2+x,-y,1/2+z
loop_
_atom_site_type_symbol
_atom_site_label
_atom_site_fract_x
_atom_site_fract_y
_atom_site_fract_z
Si Si1 0.749751 0.600776 0.410935
Si Si2 0.855934 0.067532 0.358093
Si Si3 0.500000 0.405658 0.526256
Si Si4 0.239922 0.250000 0.405462
Si Si5 0.636732 0.250000 0.979102
Si Si6 0.367746 0.653021 0.307442
Si Si7 0.000000 0.250000 0.059605
Si Si8 0.750000 0.004767 0.750000
O O1 0.804996 0.501965 0.402632
O O2 0.619392 0.602129 0.438257
O O3 0.841675 0.660669 0.444801
O O4 0.735457 0.644120 0.352367
O O5 0.820744 0.165032 0.377998
O O6 0.793606 0.055567 0.299702
O O7 0.000000 0.057680 0.353230
O O8 0.500000 0.500000 0.500000
O O9 0.500000 0.335569 0.478299
O O10 0.221429 0.250000 0.469302
O O11 0.385482 0.250000 0.399634
O O12 0.500000 0.250000 0.999513
O O13 0.500000 0.646695 0.334514
O O14 0.351953 0.750000 0.279067
O O15 0.359100 0.572161 0.265177
#
# Coordination Sequence:
#
# PCOD8299167 Si02
#       8
#    16  16   8   8   8  16   4   8
#     4  11  22  38  63  96 131 174 209 257 327 381
#     4  11  25  46  67  94 133 171 221 273 330 390
#     4  12  22  38  62  94 136 170 214 272 312 375
#     4  12  26  47  68  96 122 177 218 279 329 376
#     4  12  24  40  63  97 136 170 212 249 318 400
#     4  10  19  34  60  91 127 166 207 258 319 387
#     4  12  24  44  70  98 138 158 230 274 314 382
#     4  10  23  41  64  92 124 168 224 270 328 384
#
# _framework density 20.402673
#
# number of rings (size 3 to 8) (size 9 to 14) (size 15 to 20)
#    0.000    0.952    3.810    3.429    0.000    0.381 
#    3.429    1.905    0.000    0.000    0.000    0.000 
#    0.000    0.000    0.000    0.000    0.000    0.000 
#
# Total GULP energy -520707.244400 kJ/mol
# GULP energy per Si atom -12397.791533 kJ/mol
# Density = 2.035624 g / cm^3
# Si number density = 20.402673 Si / 1000 Ang^3
#
#
#
# Elastic Constant Matrix: (Units=GPa)
#
#
# Indices 1 2 3 4 5 6 
#
# 1 110.3129 27.3054 9.4912 0.0000 0.0000 0.0000
# 2 27.3054 151.4640 40.6655 0.0000 0.0000 0.0000
# 3 9.4912 40.6655 74.7337 0.0000 0.0000 0.0000
# 4 0.0000 0.0000 0.0000 18.8944 0.0000 0.0000
# 5 0.0000 0.0000 0.0000 0.0000 32.2446 0.0000
# 6 0.0000 0.0000 0.0000 0.0000 0.0000 27.8623
#
#
#
# Elastic Compliance Matrix: (Units=1/GPa)
#
#
# Indices 1 2 3 4 5 6 
#
# 1 0.009495 -0.001625 -0.000321 0.000000 0.000000 0.000000
# 2 -0.001625 0.008010 -0.004152 0.000000 0.000000 0.000000
# 3 -0.000321 -0.004152 0.015681 0.000000 0.000000 0.000000
# 4 0.000000 0.000000 0.000000 0.052926 0.000000 0.000000
# 5 0.000000 0.000000 0.000000 0.000000 0.031013 0.000000
# 6 0.000000 0.000000 0.000000 0.000000 0.000000 0.035891
#
#
# Mechanical properties :
#
#
# Convention : Reuss Voigt Hill
#
# Bulk Modulus (GPa) = 47.64594 54.60388 51.12491
# Shear Modulus (GPa) = 29.03435 33.07015 31.05225
#
# Velocity S-wave (km/s) = 3.77645 4.03037 3.90548
# Velocity P-wave (km/s) = 6.51298 6.96274 6.74161
#
# Compressibility (1/GPa) = 0.02098815
#
# Stress axis : x y z
#
# Youngs Moduli (GPa) = 105.31729 124.84341 63.77148
#
# Poissons Ratio (x) = 0.20293 0.02050
# Poissons Ratio (y) = 0.17119 0.26479
# Poissons Ratio (z) = 0.03385 0.51837
#
# Static dielectric constant tensor:
#      x y z
#    x 3.754920 0.000000 0.000000 
#    y 0.000000 3.782390 0.000000 
#    z 0.000000 0.000000 3.184290 
# 
# 
# High freq. dielectric constant tensor:
#      x y z
#    x 1.807050 0.000000 0.000000 
#    y 0.000000 1.805660 0.000000 
#    z 0.000000 0.000000 1.791410 
# 
# From -- ./inp_files/58718.got.cif
#   From: 2010.03.12/outbox.cif.g09.slc.cpg/sg74_30_cif.got.tgz:58718.got - 2010.04.16 15:46:19.
