data_PCOD8299036
_publ_section_title
;
Structure prediction by ZEFSAII (Michael W. Deem and Ramdas Pophale) SiO2 
 PCOD8299036
Probable space group: I M M A
;
_chemical_formula_sum "Si O2"
_cell_formula_units_Z 72
_cell_length_a 28.964369
_cell_length_b 25.280892
_cell_length_c 4.929365
_cell_angle_alpha 90.000000
_cell_angle_beta 90.000000
_cell_angle_gamma 90.000000
_cell_volume 3609.503291
_symmetry_space_group_name_H-M "I M M A"
_symmetry_group_IT_number 74
_symmetry_cell_setting 'orthorhombic'
loop_
_space_group_symop_operation_xyz
x,y,z
-x,1/2-y,z
x,-y,-z
-x,1/2+y,-z
-x,-y,-z
x,1/2+y,-z
-x,y,z
x,1/2-y,z
1/2+x,1/2+y,1/2+z
1/2-x,-y,1/2+z
1/2+x,1/2-y,1/2-z
1/2-x,y,1/2-z
1/2-x,1/2-y,1/2-z
1/2+x,y,1/2-z
1/2-x,1/2+y,1/2+z
1/2+x,-y,1/2+z
loop_
_atom_site_type_symbol
_atom_site_label
_atom_site_fract_x
_atom_site_fract_y
_atom_site_fract_z
Si Si1 0.658143 0.088485 0.611322
Si Si2 0.108496 0.308922 0.958369
Si Si3 0.750000 0.965147 0.250000
Si Si4 0.553170 0.842134 0.949595
Si Si5 0.896723 0.443952 0.386958
O O1 0.651975 0.150602 0.534859
O O2 0.711347 0.071389 0.608271
O O3 0.627932 0.051972 0.406609
O O4 0.641451 0.080623 0.916358
O O5 0.126395 0.250000 0.887042
O O6 0.069565 0.329724 0.752765
O O7 0.084010 0.306843 0.249843
O O8 0.770553 0.000000 0.500000
O O9 0.500000 0.826668 0.920610
O O10 0.559623 0.904404 0.877504
O O11 0.914347 0.500000 0.500000
#
# Coordination Sequence:
#
# PCOD8299036 Si02
#       5
#    16  16   8  16  16
#     4  10  21  35  52  79 106 134 175 213 253 311
#     4  10  21  37  55  74 104 141 174 216 265 305
#     4  12  22  34  57  84 109 134 168 212 258 308
#     4  10  21  34  52  80 105 133 180 223 256 307
#     4  10  19  34  53  73 107 144 170 207 262 314
#
# _framework density 19.947341000000002
#
# number of rings (size 3 to 8) (size 9 to 14) (size 15 to 20)
#    0.000    1.778    0.000    5.333    0.000    3.111 
#    0.000    0.556    0.000    8.000    0.000   10.889 
#    0.000    0.000    0.000    0.000    0.000    0.000 
#
# Total GULP energy -446370.036412 kJ/mol
# GULP energy per Si atom -12399.167678 kJ/mol
# Density = 1.990194 g / cm^3
# Si number density = 19.947341 Si / 1000 Ang^3
#
#
#
# Elastic Constant Matrix: (Units=GPa)
#
#
# Indices 1 2 3 4 5 6 
#
# 1 71.5982 40.6011 16.3169 0.0000 0.0000 0.0000
# 2 40.6011 143.4364 17.1864 0.0000 0.0000 0.0000
# 3 16.3169 17.1864 79.1797 0.0000 0.0000 0.0000
# 4 0.0000 0.0000 0.0000 23.2590 0.0000 0.0000
# 5 0.0000 0.0000 0.0000 0.0000 21.7659 0.0000
# 6 0.0000 0.0000 0.0000 0.0000 0.0000 12.6046
#
#
#
# Elastic Compliance Matrix: (Units=1/GPa)
#
#
# Indices 1 2 3 4 5 6 
#
# 1 0.017122 -0.004542 -0.002543 0.000000 0.000000 0.000000
# 2 -0.004542 0.008363 -0.000879 0.000000 0.000000 0.000000
# 3 -0.002543 -0.000879 0.013344 0.000000 0.000000 0.000000
# 4 0.000000 0.000000 0.000000 0.042994 0.000000 0.000000
# 5 0.000000 0.000000 0.000000 0.000000 0.045944 0.000000
# 6 0.000000 0.000000 0.000000 0.000000 0.000000 0.079336
#
#
# Mechanical properties :
#
#
# Convention : Reuss Voigt Hill
#
# Bulk Modulus (GPa) = 43.66506 49.15811 46.41158
# Shear Modulus (GPa) = 21.67660 26.19989 23.93824
#
# Velocity S-wave (km/s) = 3.30008 3.62809 3.46796
# Velocity P-wave (km/s) = 6.03808 6.49986 6.27322
#
# Compressibility (1/GPa) = 0.02290161
#
# Stress axis : x y z
#
# Youngs Moduli (GPa) = 58.40500 119.57865 74.93843
#
# Poissons Ratio (x) = 0.54311 0.19053
# Poissons Ratio (y) = 0.26527 0.06589
# Poissons Ratio (z) = 0.14850 0.10513
#
# Static dielectric constant tensor:
#      x y z
#    x 3.213110 0.000000 0.000000 
#    y 0.000000 3.773030 0.000000 
#    z 0.000000 0.000000 3.819490 
# 
# 
# High freq. dielectric constant tensor:
#      x y z
#    x 1.735200 0.000000 0.000000 
#    y 0.000000 1.779230 0.000000 
#    z 0.000000 0.000000 1.801660 
# 
# From -- ./inp_files/3807.got.cif
#   From: 2010.03.12/outbox.cif.g09.slc.cpg/sg74_2_cif.got.tgz:3807.got - 2010.04.16 15:46:19.
