data_PCOD8299127
_publ_section_title
;
Structure prediction by ZEFSAII (Michael W. Deem and Ramdas Pophale) SiO2 
 PCOD8299127
Probable space group: I M M A
;
_chemical_formula_sum "Si O2"
_cell_formula_units_Z 80
_cell_length_a 15.474433
_cell_length_b 8.999840
_cell_length_c 29.230282
_cell_angle_alpha 90.000000
_cell_angle_beta 90.000000
_cell_angle_gamma 90.000000
_cell_volume 4070.825992
_symmetry_space_group_name_H-M "I M M A"
_symmetry_group_IT_number 74
_symmetry_cell_setting 'orthorhombic'
loop_
_space_group_symop_operation_xyz
x,y,z
-x,1/2-y,z
x,-y,-z
-x,1/2+y,-z
-x,-y,-z
x,1/2+y,-z
-x,y,z
x,1/2-y,z
1/2+x,1/2+y,1/2+z
1/2-x,-y,1/2+z
1/2+x,1/2-y,1/2-z
1/2-x,y,1/2-z
1/2-x,1/2-y,1/2-z
1/2+x,y,1/2-z
1/2-x,1/2+y,1/2+z
1/2+x,-y,1/2+z
loop_
_atom_site_type_symbol
_atom_site_label
_atom_site_fract_x
_atom_site_fract_y
_atom_site_fract_z
Si Si1 0.402215 0.579235 0.861703
Si Si2 0.742420 0.425582 0.802748
Si Si3 0.652658 0.919669 0.455145
Si Si4 0.856292 0.078214 0.546155
Si Si5 0.405247 0.073290 0.641292
O O1 0.500000 0.567198 0.842928
O O2 0.374098 0.750000 0.868159
O O3 0.340559 0.502956 0.824620
O O4 0.399363 0.498663 0.910459
O O5 0.731611 0.250000 0.810088
O O6 0.750000 0.468865 0.750000
O O7 0.830116 0.487971 0.825920
O O8 0.626592 0.750000 0.460941
O O9 0.754295 0.941426 0.449193
O O10 0.608270 0.988561 0.410063
O O11 0.616628 0.000000 0.500000
O O12 0.883709 0.250000 0.544802
O O13 0.890397 0.000000 0.500000
O O14 0.500000 0.022132 0.659065
O O15 0.398619 0.250000 0.640158
#
# Coordination Sequence:
#
# PCOD8299127 Si02
#       5
#    16  16  16  16  16
#     4  11  24  40  59  85 118 157 198 240 291 348
#     4  10  21  39  63  88 113 146 191 242 296 350
#     4   9  17  30  50  77 109 146 183 223 271 328
#     4  10  19  34  57  85 117 154 196 240 288 345
#     4   9  17  32  54  81 113 146 181 226 282 341
#
# _framework density 19.652031999999998
#
# number of rings (size 3 to 8) (size 9 to 14) (size 15 to 20)
#    0.000    2.200    2.000    1.200    0.000    4.400 
#    0.000    2.000    0.000    1.800    0.000    0.000 
#    0.000    0.000    0.000    0.000    0.000    0.000 
#
# Total GULP energy -495979.983482 kJ/mol
# GULP energy per Si atom -12399.499587 kJ/mol
# Density = 1.960730 g / cm^3
# Si number density = 19.652032 Si / 1000 Ang^3
#
#
#
# Elastic Constant Matrix: (Units=GPa)
#
#
# Indices 1 2 3 4 5 6 
#
# 1 115.4905 42.6086 78.4892 0.0000 0.0000 0.0000
# 2 42.6086 78.5828 53.9221 0.0000 0.0000 0.0000
# 3 78.4892 53.9221 153.7602 0.0000 0.0000 0.0000
# 4 0.0000 0.0000 0.0000 30.8035 0.0000 0.0000
# 5 0.0000 0.0000 0.0000 0.0000 9.9402 0.0000
# 6 0.0000 0.0000 0.0000 0.0000 0.0000 19.8235
#
#
#
# Elastic Compliance Matrix: (Units=1/GPa)
#
#
# Indices 1 2 3 4 5 6 
#
# 1 0.013964 -0.003530 -0.005890 0.000000 0.000000 0.000000
# 2 -0.003530 0.017650 -0.004388 0.000000 0.000000 0.000000
# 3 -0.005890 -0.004388 0.011049 0.000000 0.000000 0.000000
# 4 0.000000 0.000000 0.000000 0.032464 0.000000 0.000000
# 5 0.000000 0.000000 0.000000 0.000000 0.100601 0.000000
# 6 0.000000 0.000000 0.000000 0.000000 0.000000 0.050445
#
#
# Mechanical properties :
#
#
# Convention : Reuss Voigt Hill
#
# Bulk Modulus (GPa) = 66.45583 77.54147 71.99865
# Shear Modulus (GPa) = 19.31949 23.63436 21.47693
#
# Velocity S-wave (km/s) = 3.13881 3.47168 3.30943
# Velocity P-wave (km/s) = 6.85754 7.45741 7.16376
#
# Compressibility (1/GPa) = 0.01504759
#
# Stress axis : x y z
#
# Youngs Moduli (GPa) = 71.61193 56.65655 90.50361
#
# Poissons Ratio (x) = 0.19998 0.53310
# Poissons Ratio (y) = 0.25277 0.39713
# Poissons Ratio (z) = 0.42182 0.24861
#
# Static dielectric constant tensor:
#      x y z
#    x 3.651890 0.000000 0.000000 
#    y 0.000000 3.408030 0.000000 
#    z 0.000000 0.000000 3.660480 
# 
# 
# High freq. dielectric constant tensor:
#      x y z
#    x 1.770830 0.000000 0.000000 
#    y 0.000000 1.740470 0.000000 
#    z 0.000000 0.000000 1.767650 
# 
# From -- ./inp_files/67525.got.cif
#   From: 2010.03.12/outbox.cif.g09.slc.cpg/sg74_34_cif.got.tgz:67525.got - 2010.04.16 15:46:19.
