data_PCOD8299137
_publ_section_title
;
Structure prediction by ZEFSAII (Michael W. Deem and Ramdas Pophale) SiO2 
 PCOD8299137
Probable space group: I M M A
;
_chemical_formula_sum "Si O2"
_cell_formula_units_Z 88
_cell_length_a 9.353779
_cell_length_b 23.697786
_cell_length_c 19.969848
_cell_angle_alpha 90.000000
_cell_angle_beta 90.000000
_cell_angle_gamma 90.000000
_cell_volume 4426.593452
_symmetry_space_group_name_H-M "I M M A"
_symmetry_group_IT_number 74
_symmetry_cell_setting 'orthorhombic'
loop_
_space_group_symop_operation_xyz
x,y,z
-x,1/2-y,z
x,-y,-z
-x,1/2+y,-z
-x,-y,-z
x,1/2+y,-z
-x,y,z
x,1/2-y,z
1/2+x,1/2+y,1/2+z
1/2-x,-y,1/2+z
1/2+x,1/2-y,1/2-z
1/2-x,y,1/2-z
1/2-x,1/2-y,1/2-z
1/2+x,y,1/2-z
1/2-x,1/2+y,1/2+z
1/2+x,-y,1/2+z
loop_
_atom_site_type_symbol
_atom_site_label
_atom_site_fract_x
_atom_site_fract_y
_atom_site_fract_z
Si Si1 0.668672 0.844090 0.424744
Si Si2 0.834201 0.026605 0.927661
Si Si3 0.842192 0.354334 0.309782
Si Si4 0.657358 0.515251 0.809126
Si Si5 0.170954 0.750000 0.178903
Si Si6 0.337999 0.814485 0.570507
O O1 0.500000 0.839587 0.425821
O O2 0.718945 0.908855 0.419885
O O3 0.722701 0.805504 0.362841
O O4 0.724793 0.819975 0.495516
O O5 0.000000 0.021423 0.907875
O O6 0.738989 0.989843 0.878706
O O7 0.806558 0.000000 0.000000
O O8 0.750000 0.325554 0.250000
O O9 0.862106 0.419493 0.292592
O O10 0.762858 0.349173 0.380371
O O11 0.000000 0.325874 0.313035
O O12 0.500000 0.486589 0.812292
O O13 0.750000 0.485891 0.750000
O O14 0.250000 0.750000 0.250000
O O15 0.000000 0.750000 0.190134
O O16 0.500000 0.839072 0.574499
O O17 0.336426 0.750000 0.593241
#
# Coordination Sequence:
#
# PCOD8299137 Si02
#       6
#    16  16  16  16   8  16
#     4   9  18  35  58  82 111 147 185 228 281 340
#     4  10  20  34  56  86 116 147 186 231 281 342
#     4  10  21  36  54  78 109 146 184 226 272 322
#     4  10  21  37  56  78 108 145 185 227 277 332
#     4  10  20  38  60  82 111 148 191 236 285 338
#     4  10  19  34  58  82 105 141 185 227 274 326
#
# _framework density 19.879847000000002
#
# number of rings (size 3 to 8) (size 9 to 14) (size 15 to 20)
#    0.000    2.182    0.909    2.182    0.000    5.455 
#    0.000    4.545    0.000    0.000    0.000    0.000 
#    0.000    0.000    0.000    0.000    0.000    0.000 
#
# Total GULP energy -545472.621523 kJ/mol
# GULP energy per Si atom -12397.105035 kJ/mol
# Density = 1.983460 g / cm^3
# Si number density = 19.879847 Si / 1000 Ang^3
#
#
#
# Elastic Constant Matrix: (Units=GPa)
#
#
# Indices 1 2 3 4 5 6 
#
# 1 117.4608 19.9156 74.9580 0.0000 0.0000 0.0000
# 2 19.9156 67.1602 28.5674 0.0000 0.0000 0.0000
# 3 74.9580 28.5674 153.2513 0.0001 0.0000 0.0000
# 4 0.0000 0.0000 0.0001 32.0352 0.0000 0.0000
# 5 0.0000 0.0000 0.0000 0.0000 33.1116 0.0000
# 6 0.0000 0.0000 0.0000 0.0000 0.0000 16.4480
#
#
#
# Elastic Compliance Matrix: (Units=1/GPa)
#
#
# Indices 1 2 3 4 5 6 
#
# 1 0.012465 -0.001198 -0.005873 0.000000 0.000000 0.000000
# 2 -0.001198 0.016287 -0.002450 0.000000 0.000000 0.000000
# 3 -0.005873 -0.002450 0.009855 0.000000 0.000000 0.000000
# 4 0.000000 0.000000 0.000000 0.031216 0.000000 0.000000
# 5 0.000000 0.000000 0.000000 0.000000 0.030201 0.000000
# 6 0.000000 0.000000 0.000000 0.000000 0.000000 0.060798
#
#
# Mechanical properties :
#
#
# Convention : Reuss Voigt Hill
#
# Bulk Modulus (GPa) = 51.11513 64.97270 58.04391
# Shear Modulus (GPa) = 26.82618 30.61438 28.72028
#
# Velocity S-wave (km/s) = 3.67742 3.92850 3.80504
# Velocity P-wave (km/s) = 6.61809 7.30282 6.96887
#
# Compressibility (1/GPa) = 0.01956368
#
# Stress axis : x y z
#
# Youngs Moduli (GPa) = 80.22634 61.39785 101.47393
#
# Poissons Ratio (x) = 0.07355 0.59600
# Poissons Ratio (y) = 0.09611 0.24863
# Poissons Ratio (z) = 0.47120 0.15043
#
# Static dielectric constant tensor:
#      x y z
#    x 3.639270 0.000000 0.000000 
#    y 0.000000 3.582180 0.000000 
#    z 0.000000 0.000000 3.608630 
# 
# 
# High freq. dielectric constant tensor:
#      x y z
#    x 1.756680 0.000000 0.000000 
#    y 0.000000 1.761280 0.000000 
#    z 0.000000 0.000000 1.783330 
# 
# From -- ./inp_files/48701.got.cif
#   From: 2010.03.12/outbox.cif.g09.slc.cpg/sg74_25_cif.got.tgz:48701.got - 2010.04.16 15:46:19.
