data_PCOD8299689
_publ_section_title
;
Structure prediction by ZEFSAII (Michael W. Deem and Ramdas Pophale) SiO2 
 PCOD8299689
Probable space group: I M M A
;
_chemical_formula_sum "Si O2"
_cell_formula_units_Z 104
_cell_length_a 8.579434
_cell_length_b 26.278633
_cell_length_c 24.164140
_cell_angle_alpha 90.000000
_cell_angle_beta 90.000000
_cell_angle_gamma 90.000000
_cell_volume 5447.945453
_symmetry_space_group_name_H-M "I M M A"
_symmetry_group_IT_number 74
_symmetry_cell_setting 'orthorhombic'
loop_
_space_group_symop_operation_xyz
x,y,z
-x,1/2-y,z
x,-y,-z
-x,1/2+y,-z
-x,-y,-z
x,1/2+y,-z
-x,y,z
x,1/2-y,z
1/2+x,1/2+y,1/2+z
1/2-x,-y,1/2+z
1/2+x,1/2-y,1/2-z
1/2-x,y,1/2-z
1/2-x,1/2-y,1/2-z
1/2+x,y,1/2-z
1/2-x,1/2+y,1/2+z
1/2+x,-y,1/2+z
loop_
_atom_site_type_symbol
_atom_site_label
_atom_site_fract_x
_atom_site_fract_y
_atom_site_fract_z
Si Si1 0.679658 0.016559 0.370489
Si Si2 0.184739 0.107156 0.055233
Si Si3 0.330978 0.954859 0.038934
Si Si4 0.817959 0.567984 0.308620
Si Si5 0.316333 0.191150 0.995226
Si Si6 0.315620 0.250000 0.810808
Si Si7 0.684629 0.157172 0.620952
O O1 0.500000 0.020535 0.353453
O O2 0.741745 0.072124 0.392525
O O3 0.702383 0.975063 0.418469
O O4 0.775383 0.992176 0.319151
O O5 0.000000 0.105762 0.055019
O O6 0.250447 0.088766 0.996387
O O7 0.252239 0.164767 0.052829
O O8 0.500000 0.937098 0.065642
O O9 0.379509 0.000000 0.000000
O O10 0.750000 0.585954 0.250000
O O11 0.748666 0.602542 0.358325
O O12 0.000000 0.575208 0.305431
O O13 0.500000 0.183600 0.990539
O O14 0.269792 0.250000 0.998985
O O15 0.234671 0.166320 0.941922
O O16 0.500000 0.250000 0.810023
O O17 0.250000 0.250000 0.750000
O O18 0.257441 0.299899 0.841043
O O19 0.500000 0.158277 0.626249
#
# Coordination Sequence:
#
# PCOD8299689 Si02
#       7
#    16  16  16  16  16   8  16
#     4  10  20  35  53  76 105 137 174 216 265 323
#     4  10  20  33  52  76 105 139 175 216 264 323
#     4   9  16  27  45  70  99 131 168 208 252 305
#     4  12  25  41  59  80 108 141 180 228 277 327
#     4  11  23  38  56  79 110 145 184 230 275 324
#     4  12  24  40  58  78 102 134 184 238 285 330
#     4  12  24  40  59  79 105 141 183 230 281 329
#
# _framework density 19.089766000000001
#
# number of rings (size 3 to 8) (size 9 to 14) (size 15 to 20)
#    0.000    1.231    0.769    6.692    0.000    4.615 
#    0.000    0.000    0.000    0.000    0.000    0.000 
#    0.000    0.615    0.000    2.000    0.000    2.923 
#
# Total GULP energy -644250.336714 kJ/mol
# GULP energy per Si atom -12389.429552 kJ/mol
# Density = 1.904632 g / cm^3
# Si number density = 19.089766 Si / 1000 Ang^3
#
#
#
# Elastic Constant Matrix: (Units=GPa)
#
#
# Indices 1 2 3 4 5 6 
#
# 1 129.2289 46.9175 24.6429 0.0000 0.0000 0.0000
# 2 46.9175 119.2997 48.5971 0.0000 0.0000 0.0000
# 3 24.6429 48.5971 30.6697 -0.0001 0.0000 0.0000
# 4 0.0000 0.0000 -0.0001 35.2590 0.0000 0.0000
# 5 0.0000 0.0000 0.0000 0.0000 25.1494 0.0000
# 6 0.0000 0.0000 0.0000 0.0000 0.0000 31.1939
#
#
#
# Elastic Compliance Matrix: (Units=1/GPa)
#
#
# Indices 1 2 3 4 5 6 
#
# 1 0.009262 -0.001723 -0.004711 0.000000 0.000000 0.000000
# 2 -0.001723 0.023964 -0.036586 0.000000 0.000000 0.000000
# 3 -0.004711 -0.036586 0.094363 0.000000 0.000000 0.000000
# 4 0.000000 0.000000 0.000000 0.028362 0.000000 0.000000
# 5 0.000000 0.000000 0.000000 0.000000 0.039762 0.000000
# 6 0.000000 0.000000 0.000000 0.000000 0.000000 0.032058
#
#
# Mechanical properties :
#
#
# Convention : Reuss Voigt Hill
#
# Bulk Modulus (GPa) = 24.06924 57.72370 40.89647
# Shear Modulus (GPa) = 15.25967 28.92318 22.09143
#
# Velocity S-wave (km/s) = 2.83037 3.89667 3.40551
# Velocity P-wave (km/s) = 4.82878 7.10979 6.07726
#
# Compressibility (1/GPa) = 0.04154680
#
# Stress axis : x y z
#
# Youngs Moduli (GPa) = 107.96411 41.73013 10.59739
#
# Poissons Ratio (x) = 0.07192 0.04993
# Poissons Ratio (y) = 0.18607 0.38772
# Poissons Ratio (z) = 0.50866 1.52674
#
# Static dielectric constant tensor:
#      x y z
#    x 3.544380 0.000000 0.000000 
#    y 0.000000 3.925000 0.000000 
#    z 0.000000 0.000000 3.324160 
# 
# 
# High freq. dielectric constant tensor:
#      x y z
#    x 1.760880 0.000000 0.000000 
#    y 0.000000 1.744900 0.000000 
#    z 0.000000 0.000000 1.702920 
# 
# From -- ./inp_files/65017.got.cif
#   From: 2010.03.12/outbox.cif.g09.slc.cpg/sg74_33_cif.got.tgz:65017.got - 2010.04.16 15:46:19.
