data_PCOD8299240
_publ_section_title
;
Structure prediction by ZEFSAII (Michael W. Deem and Ramdas Pophale) SiO2 
 PCOD8299240
Probable space group: I M M A
;
_chemical_formula_sum "Si O2"
_cell_formula_units_Z 88
_cell_length_a 14.164923
_cell_length_b 23.299238
_cell_length_c 12.427827
_cell_angle_alpha 90.000000
_cell_angle_beta 90.000000
_cell_angle_gamma 90.000000
_cell_volume 4101.579510
_symmetry_space_group_name_H-M "I M M A"
_symmetry_group_IT_number 74
_symmetry_cell_setting 'orthorhombic'
loop_
_space_group_symop_operation_xyz
x,y,z
-x,1/2-y,z
x,-y,-z
-x,1/2+y,-z
-x,-y,-z
x,1/2+y,-z
-x,y,z
x,1/2-y,z
1/2+x,1/2+y,1/2+z
1/2-x,-y,1/2+z
1/2+x,1/2-y,1/2-z
1/2-x,y,1/2-z
1/2-x,1/2-y,1/2-z
1/2+x,y,1/2-z
1/2-x,1/2+y,1/2+z
1/2+x,-y,1/2+z
loop_
_atom_site_type_symbol
_atom_site_label
_atom_site_fract_x
_atom_site_fract_y
_atom_site_fract_z
Si Si1 0.389566 0.750000 0.239732
Si Si2 0.396228 0.475793 0.808855
Si Si3 0.110788 0.645018 0.412731
Si Si4 0.395448 0.054353 0.563114
Si Si5 0.217706 0.642355 0.949639
Si Si6 0.250000 0.932423 0.750000
Si Si7 0.112731 0.750000 0.014494
O O1 0.500000 0.750000 0.253549
O O2 0.358407 0.692239 0.176600
O O3 0.347553 0.750000 0.361543
O O4 0.500000 0.496677 0.848373
O O5 0.365159 0.419643 0.874782
O O6 0.402035 0.457681 0.687000
O O7 0.323071 0.528264 0.818226
O O8 0.172719 0.655854 0.520724
O O9 0.000000 0.652080 0.440778
O O10 0.500000 0.069472 0.517688
O O11 0.324628 0.106368 0.548370
O O12 0.353514 0.000000 0.500000
O O13 0.202056 0.608741 0.837779
O O14 0.153692 0.698192 0.944705
O O15 0.000000 0.750000 0.011937
#
# Coordination Sequence:
#
# PCOD8299240 Si02
#       7
#     8  16  16  16  16   8   8
#     4   9  19  41  67  93 124 153 187 241 314 383
#     4  10  21  37  60  92 127 163 205 258 310 363
#     4  10  22  39  62  93 129 163 200 247 307 374
#     4  10  19  35  60  89 119 154 198 249 309 365
#     4  12  25  40  63  88 123 164 210 254 307 362
#     4  12  26  41  58  83 122 170 218 256 298 358
#     4  11  25  44  68  98 122 148 194 258 317 369
#
# _framework density 21.45515
#
# number of rings (size 3 to 8) (size 9 to 14) (size 15 to 20)
#    0.000    1.455    1.818    3.273    0.000    7.636 
#    0.000    1.818    0.000    1.091    0.000    0.000 
#    0.000    0.000    0.000    0.000    0.000    0.000 
#
# Total GULP energy -545456.021459 kJ/mol
# GULP energy per Si atom -12396.727760 kJ/mol
# Density = 2.140632 g / cm^3
# Si number density = 21.455150 Si / 1000 Ang^3
#
#
#
# Elastic Constant Matrix: (Units=GPa)
#
#
# Indices 1 2 3 4 5 6 
#
# 1 100.8276 56.0536 20.6975 0.0000 0.0000 0.0000
# 2 56.0536 127.5820 30.3784 0.0001 0.0000 0.0000
# 3 20.6975 30.3784 49.2991 0.0005 0.0000 0.0000
# 4 0.0000 0.0001 0.0005 20.3562 0.0000 0.0000
# 5 0.0000 0.0000 0.0000 0.0000 27.2251 0.0000
# 6 0.0000 0.0000 0.0000 0.0000 0.0000 37.8385
#
#
#
# Elastic Compliance Matrix: (Units=1/GPa)
#
#
# Indices 1 2 3 4 5 6 
#
# 1 0.013348 -0.005309 -0.002333 0.000000 0.000000 0.000000
# 2 -0.005309 0.011298 -0.004733 0.000000 0.000000 0.000000
# 3 -0.002333 -0.004733 0.024180 -0.000001 0.000000 0.000000
# 4 0.000000 0.000000 -0.000001 0.049125 0.000000 0.000000
# 5 0.000000 0.000000 0.000000 0.000000 0.036731 0.000000
# 6 0.000000 0.000000 0.000000 0.000000 0.000000 0.026428
#
#
# Mechanical properties :
#
#
# Convention : Reuss Voigt Hill
#
# Bulk Modulus (GPa) = 41.53334 54.66307 48.09820
# Shear Modulus (GPa) = 25.78856 28.45589 27.12223
#
# Velocity S-wave (km/s) = 3.47071 3.64579 3.55933
# Velocity P-wave (km/s) = 5.95494 6.57689 6.27363
#
# Compressibility (1/GPa) = 0.02407704
#
# Stress axis : x y z
#
# Youngs Moduli (GPa) = 74.91580 88.51431 41.35663
#
# Poissons Ratio (x) = 0.46994 0.09647
# Poissons Ratio (y) = 0.39775 0.19573
# Poissons Ratio (z) = 0.17474 0.41891
#
# Static dielectric constant tensor:
#      x y z
#    x 4.336310 0.000000 0.000000 
#    y 0.000000 4.557310 0.000000 
#    z 0.000000 0.000000 3.102810 
# 
# 
# High freq. dielectric constant tensor:
#      x y z
#    x 1.853630 0.000000 0.000000 
#    y 0.000000 1.845740 0.000000 
#    z 0.000000 0.000000 1.812730 
# 
# From -- ./inp_files/20703.got.cif
#   From: 2010.03.12/outbox.cif.g09.slc.cpg/sg74_11_cif.got.tgz:20703.got - 2010.04.16 15:46:19.
