data_PCOD8299003
_publ_section_title
;
Structure prediction by ZEFSAII (Michael W. Deem and Ramdas Pophale) SiO2 
 PCOD8299003
Probable space group: I M M A
;
_chemical_formula_sum "Si O2"
_cell_formula_units_Z 112
_cell_length_a 17.131535
_cell_length_b 19.238998
_cell_length_c 18.047606
_cell_angle_alpha 90.000000
_cell_angle_beta 90.000000
_cell_angle_gamma 90.000000
_cell_volume 5948.374848
_symmetry_space_group_name_H-M "I M M A"
_symmetry_group_IT_number 74
_symmetry_cell_setting 'orthorhombic'
loop_
_space_group_symop_operation_xyz
x,y,z
-x,1/2-y,z
x,-y,-z
-x,1/2+y,-z
-x,-y,-z
x,1/2+y,-z
-x,y,z
x,1/2-y,z
1/2+x,1/2+y,1/2+z
1/2-x,-y,1/2+z
1/2+x,1/2-y,1/2-z
1/2-x,y,1/2-z
1/2-x,1/2-y,1/2-z
1/2+x,y,1/2-z
1/2-x,1/2+y,1/2+z
1/2+x,-y,1/2+z
loop_
_atom_site_type_symbol
_atom_site_label
_atom_site_fract_x
_atom_site_fract_y
_atom_site_fract_z
Si Si1 0.407096 0.561237 0.696788
Si Si2 0.085054 0.332171 0.473844
Si Si3 0.908867 0.169100 0.900672
Si Si4 0.159326 0.911774 0.234452
Si Si5 0.907201 0.172231 0.632756
Si Si6 0.407675 0.928246 0.531347
Si Si7 0.406491 0.172046 0.185004
O O1 0.500000 0.554416 0.700088
O O2 0.370874 0.488209 0.718487
O O3 0.377888 0.583845 0.615018
O O4 0.375012 0.619718 0.752709
O O5 0.073967 0.250000 0.472175
O O6 0.128090 0.351298 0.551717
O O7 0.127293 0.352874 0.396023
O O8 0.000000 0.368379 0.474301
O O9 0.891083 0.250000 0.907214
O O10 0.858250 0.138095 0.834459
O O11 0.000000 0.154126 0.884288
O O12 0.881962 0.134887 0.978230
O O13 0.250000 0.912982 0.250000
O O14 0.117019 0.883357 0.306987
O O15 0.877181 0.250000 0.653976
O O16 0.000000 0.173979 0.626076
O O17 0.500000 0.934247 0.532616
O O18 0.371795 0.000000 0.500000
O O19 0.500000 0.171146 0.181618
O O20 0.377531 0.250000 0.204612
#
# Coordination Sequence:
#
# PCOD8299003 Si02
#       7
#    16  16  16  16  16  16  16
#     4  10  19  33  57  81 107 141 177 216 268 329
#     4   7  11  23  45  72 101 130 157 195 251 301
#     4  10  20  35  58  86 111 137 177 226 275 329
#     4  12  24  35  49  72 108 150 181 219 261 316
#     4   9  17  31  53  76  99 133 177 219 260 312
#     4   9  16  30  54  79 101 132 172 214 267 326
#     4   8  14  26  49  82 110 129 160 214 269 309
#
# _framework density 18.828672000000001
#
# number of rings (size 3 to 8) (size 9 to 14) (size 15 to 20)
#    0.000    2.714    1.429    3.429    0.000    2.857 
#    0.000    3.571    6.286    3.857    0.000    0.000 
#    0.000    0.000    0.000    0.000    0.000    0.000 
#
# Total GULP energy -693869.569148 kJ/mol
# GULP energy per Si atom -12390.528020 kJ/mol
# Density = 1.878582 g / cm^3
# Si number density = 18.828672 Si / 1000 Ang^3
#
#
#
# Elastic Constant Matrix: (Units=GPa)
#
#
# Indices 1 2 3 4 5 6 
#
# 1 27.9231 21.0421 27.5937 0.0000 0.0000 0.0000
# 2 21.0421 119.1886 90.3317 0.0000 0.0000 0.0000
# 3 27.5937 90.3317 211.2490 0.0000 0.0000 0.0000
# 4 0.0000 0.0000 0.0000 39.7904 0.0000 0.0000
# 5 0.0000 0.0000 0.0000 0.0000 3.1757 0.0000
# 6 0.0000 0.0000 0.0000 0.0000 0.0000 -4.6269
#
#
#
# Elastic Compliance Matrix: (Units=1/GPa)
#
#
# Indices 1 2 3 4 5 6 
#
# 1 0.042995 -0.004933 -0.003507 0.000000 0.000000 0.000000
# 2 -0.004933 0.012979 -0.004905 0.000000 0.000000 0.000000
# 3 -0.003507 -0.004905 0.007289 0.000000 0.000000 0.000000
# 4 0.000000 0.000000 0.000000 0.025132 0.000000 0.000000
# 5 0.000000 0.000000 0.000000 0.000000 0.314887 0.000000
# 6 0.000000 0.000000 0.000000 0.000000 0.000000 -0.216129
#
#
# Mechanical properties :
#
#
# Convention : Reuss Voigt Hill
#
# Bulk Modulus (GPa) = 27.34233 70.69953 49.02093
# Shear Modulus (GPa) = 22.12046 22.29406 22.20726
#
# Velocity S-wave (km/s) = 3.43130 3.44473 3.43802
# Velocity P-wave (km/s) = 5.50014 7.31109 6.46929
#
# Compressibility (1/GPa) = 0.03657333
#
# Stress axis : x y z
#
# Youngs Moduli (GPa) = 23.25828 77.04917 137.18494
#
# Poissons Ratio (x) = 0.38007 0.48108
# Poissons Ratio (y) = 0.11473 0.67296
# Poissons Ratio (z) = 0.08156 0.37796
#
# Static dielectric constant tensor:
#      x y z
#    x 2.857380 0.000000 0.000000 
#    y 0.000000 3.400180 0.000000 
#    z 0.000000 0.000000 4.155280 
# 
# 
# High freq. dielectric constant tensor:
#      x y z
#    x 1.667570 0.000000 0.000000 
#    y 0.000000 1.719410 0.000000 
#    z 0.000000 0.000000 1.759230 
# 
# From -- ./inp_files/45475.got.cif
#   From: 2010.03.12/outbox.cif.g09.slc.cpg/sg74_23_cif.got.tgz:45475.got - 2010.04.16 15:46:19.
