data_PCOD8299142
_publ_section_title
;
Structure prediction by ZEFSAII (Michael W. Deem and Ramdas Pophale) SiO2 
 PCOD8299142
Probable space group: I M M A
;
_chemical_formula_sum "Si O2"
_cell_formula_units_Z 96
_cell_length_a 23.264468
_cell_length_b 17.185299
_cell_length_c 12.598150
_cell_angle_alpha 90.000000
_cell_angle_beta 90.000000
_cell_angle_gamma 90.000000
_cell_volume 5036.826524
_symmetry_space_group_name_H-M "I M M A"
_symmetry_group_IT_number 74
_symmetry_cell_setting 'orthorhombic'
loop_
_space_group_symop_operation_xyz
x,y,z
-x,1/2-y,z
x,-y,-z
-x,1/2+y,-z
-x,-y,-z
x,1/2+y,-z
-x,y,z
x,1/2-y,z
1/2+x,1/2+y,1/2+z
1/2-x,-y,1/2+z
1/2+x,1/2-y,1/2-z
1/2-x,y,1/2-z
1/2-x,1/2-y,1/2-z
1/2+x,y,1/2-z
1/2-x,1/2+y,1/2+z
1/2+x,-y,1/2+z
loop_
_atom_site_type_symbol
_atom_site_label
_atom_site_fract_x
_atom_site_fract_y
_atom_site_fract_z
Si Si1 0.565812 0.398691 0.715726
Si Si2 0.066220 0.924398 0.841404
Si Si3 0.755034 0.340295 0.867379
Si Si4 0.869528 0.661320 0.026592
Si Si5 0.566482 0.160226 0.129550
Si Si6 0.872257 0.659528 0.418116
O O1 0.500000 0.380220 0.743702
O O2 0.573275 0.483606 0.665241
O O3 0.588070 0.338562 0.627685
O O4 0.602405 0.391263 0.822784
O O5 0.087209 0.887889 0.730887
O O6 0.000000 0.900924 0.865281
O O7 0.106629 0.892684 0.933657
O O8 0.769938 0.250000 0.851168
O O9 0.750000 0.378905 0.750000
O O10 0.807797 0.374459 0.936470
O O11 0.695809 0.353780 0.929377
O O12 0.864547 0.750000 0.984993
O O13 0.500000 0.145353 0.105340
O O14 0.579762 0.250000 0.152558
O O15 0.601005 0.129636 0.027794
O O16 0.887230 0.750000 0.397121
#
# Coordination Sequence:
#
# PCOD8299142 Si02
#       6
#    16  16  16  16  16  16
#     4  11  22  34  54  82 113 146 180 228 287 338
#     4  10  22  38  54  77 116 157 183 217 279 345
#     4   9  17  33  56  81 106 139 176 221 285 330
#     4  11  21  35  59  83 107 143 188 232 275 331
#     4   9  18  34  57  82 109 145 187 230 274 325
#     4  10  19  34  58  84 110 141 187 239 280 326
#
# _framework density 19.059621
#
# number of rings (size 3 to 8) (size 9 to 14) (size 15 to 20)
#    0.000    2.000    1.667    2.500    0.000    5.667 
#    0.000    3.333   11.000    4.000    0.000    0.000 
#    0.000    0.000    0.000    0.000    0.000    0.000 
#
# Total GULP energy -595306.836141 kJ/mol
# GULP energy per Si atom -12402.225753 kJ/mol
# Density = 1.901624 g / cm^3
# Si number density = 19.059621 Si / 1000 Ang^3
#
#
#
# Elastic Constant Matrix: (Units=GPa)
#
#
# Indices 1 2 3 4 5 6 
#
# 1 116.5698 34.0187 70.0792 0.0000 0.0000 0.0000
# 2 34.0187 36.2332 24.8842 0.0000 0.0000 0.0000
# 3 70.0792 24.8842 130.0462 0.0000 0.0000 0.0000
# 4 0.0000 0.0000 0.0000 1.2235 0.0000 0.0000
# 5 0.0000 0.0000 0.0000 0.0000 34.4946 0.0000
# 6 0.0000 0.0000 0.0000 0.0000 0.0000 18.7240
#
#
#
# Elastic Compliance Matrix: (Units=1/GPa)
#
#
# Indices 1 2 3 4 5 6 
#
# 1 0.015312 -0.010027 -0.006333 0.000000 0.000000 0.000000
# 2 -0.010027 0.038341 -0.001933 0.000000 0.000000 0.000000
# 3 -0.006333 -0.001933 0.011472 0.000000 0.000000 0.000000
# 4 0.000000 0.000000 0.000000 0.817332 0.000000 0.000000
# 5 0.000000 0.000000 0.000000 0.000000 0.028990 0.000000
# 6 0.000000 0.000000 0.000000 0.000000 0.000000 0.053408
#
#
# Mechanical properties :
#
#
# Convention : Reuss Voigt Hill
#
# Bulk Modulus (GPa) = 35.03953 60.09040 47.56496
# Shear Modulus (GPa) = 4.94583 21.14623 13.04603
#
# Velocity S-wave (km/s) = 1.61263 3.33450 2.61911
# Velocity P-wave (km/s) = 4.67883 6.81331 5.84434
#
# Compressibility (1/GPa) = 0.02853920
#
# Stress axis : x y z
#
# Youngs Moduli (GPa) = 65.30976 26.08199 87.16915
#
# Poissons Ratio (x) = 0.26152 0.55200
# Poissons Ratio (y) = 0.65485 0.16852
# Poissons Ratio (z) = 0.41357 0.05042
#
# Static dielectric constant tensor:
#      x y z
#    x 3.555500 0.000000 0.000000 
#    y 0.000000 3.241060 0.000000 
#    z 0.000000 0.000000 3.557670 
# 
# 
# High freq. dielectric constant tensor:
#      x y z
#    x 1.741690 0.000000 0.000000 
#    y 0.000000 1.717300 0.000000 
#    z 0.000000 0.000000 1.745440 
# 
# From -- ./inp_files/22412.got.cif
#   From: 2010.03.12/outbox.cif.g09.slc.cpg/sg74_12_cif.got.tgz:22412.got - 2010.04.16 15:46:19.
