data_PCOD8299422
_publ_section_title
;
Structure prediction by ZEFSAII (Michael W. Deem and Ramdas Pophale) SiO2 
 PCOD8299422
Probable space group: I M M A
;
_chemical_formula_sum "Si O2"
_cell_formula_units_Z 88
_cell_length_a 26.311176
_cell_length_b 9.383769
_cell_length_c 27.143911
_cell_angle_alpha 90.000000
_cell_angle_beta 90.000000
_cell_angle_gamma 90.000000
_cell_volume 6701.777276
_symmetry_space_group_name_H-M "I M M A"
_symmetry_group_IT_number 74
_symmetry_cell_setting 'orthorhombic'
loop_
_space_group_symop_operation_xyz
x,y,z
-x,1/2-y,z
x,-y,-z
-x,1/2+y,-z
-x,-y,-z
x,1/2+y,-z
-x,y,z
x,1/2-y,z
1/2+x,1/2+y,1/2+z
1/2-x,-y,1/2+z
1/2+x,1/2-y,1/2-z
1/2-x,y,1/2-z
1/2-x,1/2-y,1/2-z
1/2+x,y,1/2-z
1/2-x,1/2+y,1/2+z
1/2+x,-y,1/2+z
loop_
_atom_site_type_symbol
_atom_site_label
_atom_site_fract_x
_atom_site_fract_y
_atom_site_fract_z
Si Si1 0.300947 0.091646 0.717685
Si Si2 0.247987 0.913769 0.646380
Si Si3 0.101494 0.083013 0.392659
Si Si4 0.200782 0.588747 0.547622
Si Si5 0.348070 0.917502 0.185452
Si Si6 0.000000 0.584130 0.550334
O O1 0.306618 0.250000 0.695351
O O2 0.250000 0.081221 0.750000
O O3 0.348147 0.059210 0.754975
O O4 0.298687 0.980092 0.671935
O O5 0.241862 0.750000 0.663275
O O6 0.247344 0.924222 0.586875
O O7 0.201402 0.007171 0.664306
O O8 0.105117 0.250000 0.379828
O O9 0.147618 0.036483 0.428520
O O10 0.049098 0.041160 0.418321
O O11 0.104238 0.993524 0.341410
O O12 0.215620 0.500000 0.500000
O O13 0.193923 0.750000 0.530033
O O14 0.346892 0.750000 0.172798
O O15 0.000000 0.500000 0.500000
O O16 0.000000 0.750000 0.537262
#
# Coordination Sequence:
#
# PCOD8299422 Si02
#       6
#    16  16  16  16  16   8
#     4   8  14  23  34  50  69  86 105 129 160 199
#     4   9  16  24  34  50  69  87 109 135 164 200
#     4   9  18  30  40  52  68  85 110 144 181 218
#     4   9  17  26  35  48  65  86 113 142 171 204
#     4   9  16  25  37  52  68  85 106 133 166 206
#     4  10  20  32  44  56  70  88 114 150 187 224
#
# _framework density 13.130846
#
# number of rings (size 3 to 8) (size 9 to 14) (size 15 to 20)
#    0.000    3.091    0.000    3.818    0.000    8.364 
#    0.000    0.000    0.000    0.000    0.000    0.000 
#    0.000    0.000    0.000    0.000    0.000    0.000 
#
# Total GULP energy -545102.975037 kJ/mol
# GULP energy per Si atom -12388.703978 kJ/mol
# Density = 1.310096 g / cm^3
# Si number density = 13.130846 Si / 1000 Ang^3
#
#
#
# Elastic Constant Matrix: (Units=GPa)
#
#
# Indices 1 2 3 4 5 6 
#
# 1 35.6186 30.6137 43.4649 0.0000 0.0000 0.0000
# 2 30.6137 77.5130 55.2045 0.0000 0.0000 0.0000
# 3 43.4649 55.2045 88.4848 0.0000 0.0000 0.0000
# 4 0.0000 0.0000 0.0000 27.7024 0.0000 0.0000
# 5 0.0000 0.0000 0.0000 0.0000 18.7376 0.0000
# 6 0.0000 0.0000 0.0000 0.0000 0.0000 9.7435
#
#
#
# Elastic Compliance Matrix: (Units=1/GPa)
#
#
# Indices 1 2 3 4 5 6 
#
# 1 0.071509 -0.005805 -0.031504 0.000000 0.000000 0.000000
# 2 -0.005805 0.023688 -0.011927 0.000000 0.000000 0.000000
# 3 -0.031504 -0.011927 0.034218 0.000000 0.000000 0.000000
# 4 0.000000 0.000000 0.000000 0.036098 0.000000 0.000000
# 5 0.000000 0.000000 0.000000 0.000000 0.053369 0.000000
# 6 0.000000 0.000000 0.000000 0.000000 0.000000 0.102632
#
#
# Mechanical properties :
#
#
# Convention : Reuss Voigt Hill
#
# Bulk Modulus (GPa) = 32.31884 51.13142 41.72513
# Shear Modulus (GPa) = 11.61975 16.05891 13.83933
#
# Velocity S-wave (km/s) = 2.97799 3.50092 3.24999
# Velocity P-wave (km/s) = 6.04077 7.44086 6.77707
#
# Compressibility (1/GPa) = 0.03094170
#
# Stress axis : x y z
#
# Youngs Moduli (GPa) = 13.98429 42.21478 29.22435
#
# Poissons Ratio (x) = 0.24506 0.92069
# Poissons Ratio (y) = 0.08118 0.34857
# Poissons Ratio (z) = 0.44057 0.50351
#
# Static dielectric constant tensor:
#      x y z
#    x 2.504090 0.000000 0.000000 
#    y 0.000000 2.814680 0.000000 
#    z 0.000000 0.000000 3.020080 
# 
# 
# High freq. dielectric constant tensor:
#      x y z
#    x 1.437130 0.000000 0.000000 
#    y 0.000000 1.513750 0.000000 
#    z 0.000000 0.000000 1.493030 
# 
# From -- ./inp_files/57758.got.cif
#   From: 2010.03.12/outbox.cif.g09.slc.cpg/sg74_29_cif.got.tgz:57758.got - 2010.04.16 15:46:19.
