data_PCOD8299346
_publ_section_title
;
Structure prediction by ZEFSAII (Michael W. Deem and Ramdas Pophale) SiO2 
 PCOD8299346
Probable space group: I M M A
;
_chemical_formula_sum "Si O2"
_cell_formula_units_Z 112
_cell_length_a 23.759829
_cell_length_b 13.942168
_cell_length_c 15.650754
_cell_angle_alpha 90.000000
_cell_angle_beta 90.000000
_cell_angle_gamma 90.000000
_cell_volume 5184.523979
_symmetry_space_group_name_H-M "I M M A"
_symmetry_group_IT_number 74
_symmetry_cell_setting 'orthorhombic'
loop_
_space_group_symop_operation_xyz
x,y,z
-x,1/2-y,z
x,-y,-z
-x,1/2+y,-z
-x,-y,-z
x,1/2+y,-z
-x,y,z
x,1/2-y,z
1/2+x,1/2+y,1/2+z
1/2-x,-y,1/2+z
1/2+x,1/2-y,1/2-z
1/2-x,y,1/2-z
1/2-x,1/2-y,1/2-z
1/2+x,y,1/2-z
1/2-x,1/2+y,1/2+z
1/2+x,-y,1/2+z
loop_
_atom_site_type_symbol
_atom_site_label
_atom_site_fract_x
_atom_site_fract_y
_atom_site_fract_z
Si Si1 0.611025 0.144276 0.523247
Si Si2 0.267171 0.393684 0.475742
Si Si3 0.794094 0.537867 0.683508
Si Si4 0.665263 0.648330 0.092204
Si Si5 0.062955 0.521092 0.877843
Si Si6 0.562140 0.108975 0.025208
Si Si7 0.401665 0.360599 0.219741
O O1 0.589505 0.250000 0.551231
O O2 0.674245 0.160724 0.487562
O O3 0.573441 0.105161 0.445879
O O4 0.605075 0.069468 0.603360
O O5 0.282537 0.500000 0.500000
O O6 0.241606 0.397164 0.381323
O O7 0.220578 0.346527 0.534870
O O8 0.750000 0.492665 0.750000
O O9 0.831504 0.449225 0.646824
O O10 0.835933 0.613351 0.726794
O O11 0.664923 0.750000 0.145279
O O12 0.610070 0.655395 0.033019
O O13 0.067666 0.566057 0.783676
O O14 0.000000 0.481246 0.888742
O O15 0.500000 0.154153 0.007743
O O16 0.576026 0.122899 0.124481
O O17 0.560791 0.000000 0.000000
O O18 0.411139 0.250000 0.247072
#
# Coordination Sequence:
#
# PCOD8299346 Si02
#       7
#    16  16  16  16  16  16  16
#     4  11  22  40  69  98 129 175 224 270 331 397
#     4  10  19  38  62  91 129 167 206 262 318 382
#     4  11  24  40  64  93 133 172 213 268 330 389
#     4  11  22  40  65  96 130 169 216 264 320 391
#     4  11  25  43  64  96 135 174 220 274 332 396
#     4  11  22  42  70  98 131 174 220 268 327 392
#     4  12  25  43  66  98 134 172 222 277 337 395
#
# _framework density 21.602754999999998
#
# number of rings (size 3 to 8) (size 9 to 14) (size 15 to 20)
#    0.000    1.000    4.286    3.857    2.000    4.857 
#    0.000    0.714    0.000    0.000    0.000    0.000 
#    0.000    0.000    0.000    0.000    0.000    0.000 
#
# Total GULP energy -693836.874370 kJ/mol
# GULP energy per Si atom -12389.944185 kJ/mol
# Density = 2.155359 g / cm^3
# Si number density = 21.602755 Si / 1000 Ang^3
#
#
#
# Elastic Constant Matrix: (Units=GPa)
#
#
# Indices 1 2 3 4 5 6 
#
# 1 128.7459 26.1273 19.0316 0.0000 0.0000 0.0000
# 2 26.1273 150.9755 29.1168 0.0000 0.0000 0.0000
# 3 19.0316 29.1168 55.4190 0.0000 0.0000 0.0000
# 4 0.0000 0.0000 0.0000 11.0483 0.0000 0.0000
# 5 0.0000 0.0000 0.0000 0.0000 33.2469 0.0000
# 6 0.0000 0.0000 0.0000 0.0000 0.0000 82.0630
#
#
#
# Elastic Compliance Matrix: (Units=1/GPa)
#
#
# Indices 1 2 3 4 5 6 
#
# 1 0.008313 -0.000988 -0.002336 0.000000 0.000000 0.000000
# 2 -0.000988 0.007488 -0.003595 0.000000 0.000000 0.000000
# 3 -0.002336 -0.003595 0.020735 0.000000 0.000000 0.000000
# 4 0.000000 0.000000 0.000000 0.090512 0.000000 0.000000
# 5 0.000000 0.000000 0.000000 0.000000 0.030078 0.000000
# 6 0.000000 0.000000 0.000000 0.000000 0.000000 0.012186
#
#
# Mechanical properties :
#
#
# Convention : Reuss Voigt Hill
#
# Bulk Modulus (GPa) = 44.05493 53.74352 48.89922
# Shear Modulus (GPa) = 26.21718 42.66263 34.43990
#
# Velocity S-wave (km/s) = 3.48746 4.44877 3.99712
# Velocity P-wave (km/s) = 6.05425 7.16386 6.63230
#
# Compressibility (1/GPa) = 0.02269894
#
# Stress axis : x y z
#
# Youngs Moduli (GPa) = 120.29300 133.54927 48.22745
#
# Poissons Ratio (x) = 0.13197 0.11264
# Poissons Ratio (y) = 0.11887 0.17336
# Poissons Ratio (z) = 0.28096 0.48007
#
# Static dielectric constant tensor:
#      x y z
#    x 4.361280 0.000000 0.000000 
#    y 0.000000 3.923240 0.000000 
#    z 0.000000 0.000000 3.760580 
# 
# 
# High freq. dielectric constant tensor:
#      x y z
#    x 1.863800 0.000000 0.000000 
#    y 0.000000 1.856870 0.000000 
#    z 0.000000 0.000000 1.821950 
# 
# From -- ./inp_files/36478.got.cif
#   From: 2010.03.12/outbox.cif.g09.slc.cpg/sg74_19_cif.got.tgz:36478.got - 2010.04.16 15:46:19.
