data_PCOD8299804
_publ_section_title
;
Structure prediction by ZEFSAII (Michael W. Deem and Ramdas Pophale) SiO2 
 PCOD8299804
Probable space group: I M M A
;
_chemical_formula_sum "Si O2"
_cell_formula_units_Z 88
_cell_length_a 9.100566
_cell_length_b 16.967750
_cell_length_c 28.503789
_cell_angle_alpha 90.000000
_cell_angle_beta 90.000000
_cell_angle_gamma 90.000000
_cell_volume 4401.444752
_symmetry_space_group_name_H-M "I M M A"
_symmetry_group_IT_number 74
_symmetry_cell_setting 'orthorhombic'
loop_
_space_group_symop_operation_xyz
x,y,z
-x,1/2-y,z
x,-y,-z
-x,1/2+y,-z
-x,-y,-z
x,1/2+y,-z
-x,y,z
x,1/2-y,z
1/2+x,1/2+y,1/2+z
1/2-x,-y,1/2+z
1/2+x,1/2-y,1/2-z
1/2-x,y,1/2-z
1/2-x,1/2-y,1/2-z
1/2+x,y,1/2-z
1/2-x,1/2+y,1/2+z
1/2+x,-y,1/2+z
loop_
_atom_site_type_symbol
_atom_site_label
_atom_site_fract_x
_atom_site_fract_y
_atom_site_fract_z
Si Si1 0.170514 0.411221 0.845181
Si Si2 0.328950 0.250000 0.701711
Si Si3 0.674157 0.557087 0.799523
Si Si4 0.833606 0.661303 0.059318
Si Si5 0.825806 0.338601 0.386029
Si Si6 0.673918 0.417385 0.019636
O O1 0.219604 0.327322 0.825697
O O2 0.273992 0.474693 0.820932
O O3 0.200394 0.404149 0.900831
O O4 0.000000 0.430969 0.834569
O O5 0.500000 0.250000 0.710827
O O6 0.250000 0.250000 0.750000
O O7 0.500000 0.553802 0.792100
O O8 0.750000 0.575430 0.750000
O O9 0.721950 0.624968 0.836124
O O10 0.813418 0.750000 0.079382
O O11 0.724273 0.650383 0.015970
O O12 0.000000 0.649841 0.041537
O O13 0.760512 0.250000 0.389847
O O14 0.766022 0.393888 0.428535
O O15 0.000000 0.335065 0.389457
O O16 0.500000 0.421278 0.020530
O O17 0.739532 0.500000 0.000000
#
# Coordination Sequence:
#
# PCOD8299804 Si02
#       6
#    16   8  16  16  16  16
#     4  10  20  37  57  79 113 153 191 231 282 340
#     4  10  20  34  52  74 104 146 190 230 273 328
#     4  11  23  39  60  85 111 143 188 240 295 350
#     4  10  20  35  55  81 115 153 189 230 280 334
#     4   9  19  37  59  82 113 153 193 235 286 341
#     4  10  20  35  57  86 117 150 191 236 280 336
#
# _framework density 19.993435999999999
#
# number of rings (size 3 to 8) (size 9 to 14) (size 15 to 20)
#    0.000    2.000    0.909    2.727    0.000    6.182 
#    0.000    1.818    0.000    3.818    0.000    0.000 
#    0.000    0.000    0.000    0.000    0.000    0.000 
#
# Total GULP energy -545505.382302 kJ/mol
# GULP energy per Si atom -12397.849598 kJ/mol
# Density = 1.994793 g / cm^3
# Si number density = 19.993436 Si / 1000 Ang^3
#
#
#
# Elastic Constant Matrix: (Units=GPa)
#
#
# Indices 1 2 3 4 5 6 
#
# 1 31.9633 33.4490 39.1492 0.0000 0.0000 0.0000
# 2 33.4490 131.5343 72.0691 0.0000 0.0000 0.0000
# 3 39.1492 72.0691 163.2071 0.0000 0.0000 0.0000
# 4 0.0000 0.0000 0.0000 30.9647 0.0000 0.0000
# 5 0.0000 0.0000 0.0000 0.0000 31.4325 0.0000
# 6 0.0000 0.0000 0.0000 0.0000 0.0000 22.6614
#
#
#
# Elastic Compliance Matrix: (Units=1/GPa)
#
#
# Indices 1 2 3 4 5 6 
#
# 1 0.050118 -0.008123 -0.008435 0.000000 0.000000 0.000000
# 2 -0.008123 0.011346 -0.003061 0.000000 0.000000 0.000000
# 3 -0.008435 -0.003061 0.009502 0.000000 0.000000 0.000000
# 4 0.000000 0.000000 0.000000 0.032295 0.000000 0.000000
# 5 0.000000 0.000000 0.000000 0.000000 0.031814 0.000000
# 6 0.000000 0.000000 0.000000 0.000000 0.000000 0.044128
#
#
# Mechanical properties :
#
#
# Convention : Reuss Voigt Hill
#
# Bulk Modulus (GPa) = 31.51924 68.44884 49.98404
# Shear Modulus (GPa) = 21.83233 29.14756 25.48995
#
# Velocity S-wave (km/s) = 3.30809 3.82233 3.57447
# Velocity P-wave (km/s) = 5.51274 7.33418 6.48770
#
# Compressibility (1/GPa) = 0.03172666
#
# Stress axis : x y z
#
# Youngs Moduli (GPa) = 19.95289 88.13867 105.23659
#
# Poissons Ratio (x) = 0.71598 0.88766
# Poissons Ratio (y) = 0.16208 0.32218
# Poissons Ratio (z) = 0.16830 0.26983
#
# Static dielectric constant tensor:
#      x y z
#    x 3.265040 0.000000 0.000000 
#    y 0.000000 3.781840 0.000000 
#    z 0.000000 0.000000 3.792820 
# 
# 
# High freq. dielectric constant tensor:
#      x y z
#    x 1.751220 0.000000 0.000000 
#    y 0.000000 1.784950 0.000000 
#    z 0.000000 0.000000 1.793100 
# 
# From -- ./inp_files/65944.got.cif
#   From: 2010.03.12/outbox.cif.g09.slc.cpg/sg74_33_cif.got.tgz:65944.got - 2010.04.16 15:46:19.
