data_PCOD8299580
_publ_section_title
;
Structure prediction by ZEFSAII (Michael W. Deem and Ramdas Pophale) SiO2 
 PCOD8299580
Probable space group: I M M A
;
_chemical_formula_sum "Si O2"
_cell_formula_units_Z 112
_cell_length_a 13.972274
_cell_length_b 14.154220
_cell_length_c 31.730770
_cell_angle_alpha 90.000000
_cell_angle_beta 90.000000
_cell_angle_gamma 90.000000
_cell_volume 6275.287771
_symmetry_space_group_name_H-M "I M M A"
_symmetry_group_IT_number 74
_symmetry_cell_setting 'orthorhombic'
loop_
_space_group_symop_operation_xyz
x,y,z
-x,1/2-y,z
x,-y,-z
-x,1/2+y,-z
-x,-y,-z
x,1/2+y,-z
-x,y,z
x,1/2-y,z
1/2+x,1/2+y,1/2+z
1/2-x,-y,1/2+z
1/2+x,1/2-y,1/2-z
1/2-x,y,1/2-z
1/2-x,1/2-y,1/2-z
1/2+x,y,1/2-z
1/2-x,1/2+y,1/2+z
1/2+x,-y,1/2+z
loop_
_atom_site_type_symbol
_atom_site_label
_atom_site_fract_x
_atom_site_fract_y
_atom_site_fract_z
Si Si1 0.387486 0.143007 0.823574
Si Si2 0.643618 0.854906 0.766501
Si Si3 0.302761 0.543369 0.848918
Si Si4 0.604852 0.036507 0.313890
Si Si5 0.613392 0.855215 0.019769
Si Si6 0.613167 0.851270 0.270814
Si Si7 0.113237 0.041948 0.435675
O O1 0.500000 0.118104 0.826625
O O2 0.370739 0.250000 0.840197
O O3 0.345498 0.132973 0.776071
O O4 0.326460 0.068564 0.850721
O O5 0.601100 0.750000 0.773156
O O6 0.750000 0.849222 0.750000
O O7 0.636327 0.910345 0.810754
O O8 0.586195 0.907399 0.729607
O O9 0.190167 0.573317 0.843842
O O10 0.334946 0.582707 0.894096
O O11 0.500000 0.035326 0.336748
O O12 0.644545 0.932259 0.302765
O O13 0.500000 0.850912 0.021172
O O14 0.655814 0.750000 0.029440
O O15 0.647235 0.934131 0.053596
O O16 0.644956 0.888464 0.973208
O O17 0.500000 0.851194 0.265465
O O18 0.648570 0.750000 0.288783
O O19 0.000000 0.044092 0.428535
#
# Coordination Sequence:
#
# PCOD8299580 Si02
#       7
#    16  16  16  16  16  16  16
#     4   9  17  28  43  65  92 119 149 190 240 288
#     4   9  19  34  48  63  86 120 164 210 250 282
#     4  11  20  30  47  71  97 124 156 201 244 276
#     4  10  20  33  46  62  90 130 172 205 235 273
#     4   8  15  31  52  71  95 124 145 168 218 288
#     4   8  14  26  43  59  79 113 155 194 230 271
#     4   9  18  30  47  73  99 120 146 181 223 281
#
# _framework density 17.847788000000001
#
# number of rings (size 3 to 8) (size 9 to 14) (size 15 to 20)
#    0.000    2.857    1.429    2.143    0.000    2.571 
#    0.000    2.857    0.000    0.000    0.000    2.000 
#    0.000    1.143    0.000    0.000    0.000    0.000 
#
# Total GULP energy -693818.084315 kJ/mol
# GULP energy per Si atom -12389.608648 kJ/mol
# Density = 1.780717 g / cm^3
# Si number density = 17.847788 Si / 1000 Ang^3
#
#
#
# Elastic Constant Matrix: (Units=GPa)
#
#
# Indices 1 2 3 4 5 6 
#
# 1 56.2269 8.2982 21.5293 0.0000 0.0000 0.0000
# 2 8.2982 84.2206 15.6255 0.0000 0.0000 0.0000
# 3 21.5293 15.6255 81.5305 0.0000 0.0000 0.0000
# 4 0.0000 0.0000 0.0000 11.1818 0.0000 0.0000
# 5 0.0000 0.0000 0.0000 0.0000 21.0443 0.0000
# 6 0.0000 0.0000 0.0000 0.0000 0.0000 -28.8904
#
#
#
# Elastic Compliance Matrix: (Units=1/GPa)
#
#
# Indices 1 2 3 4 5 6 
#
# 1 0.019870 -0.001021 -0.005051 0.000000 0.000000 0.000000
# 2 -0.001021 0.012364 -0.002100 0.000000 0.000000 0.000000
# 3 -0.005051 -0.002100 0.014002 0.000000 0.000000 0.000000
# 4 0.000000 0.000000 0.000000 0.089431 0.000000 0.000000
# 5 0.000000 0.000000 0.000000 0.000000 0.047519 0.000000
# 6 0.000000 0.000000 0.000000 0.000000 0.000000 -0.034614
#
#
# Mechanical properties :
#
#
# Convention : Reuss Voigt Hill
#
# Bulk Modulus (GPa) = 33.45442 34.76489 34.10966
# Shear Modulus (GPa) = 28.59112 12.43545 20.51329
#
# Velocity S-wave (km/s) = 4.00677 2.64247 3.39388
# Velocity P-wave (km/s) = 6.33960 5.36945 5.87459
#
# Compressibility (1/GPa) = 0.02989141
#
# Stress axis : x y z
#
# Youngs Moduli (GPa) = 50.32744 80.88150 71.41992
#
# Poissons Ratio (x) = 0.08255 0.36076
# Poissons Ratio (y) = 0.05136 0.14999
# Poissons Ratio (z) = 0.25422 0.16985
#
# Static dielectric constant tensor:
#      x y z
#    x 2.970190 0.000000 0.000000 
#    y 0.000000 4.028170 0.000000 
#    z 0.000000 0.000000 3.027160 
# 
# 
# High freq. dielectric constant tensor:
#      x y z
#    x 1.660280 0.000000 0.000000 
#    y 0.000000 1.700300 0.000000 
#    z 0.000000 0.000000 1.646970 
# 
# From -- ./inp_files/67235.got.cif
#   From: 2010.03.12/outbox.cif.g09.slc.cpg/sg74_34_cif.got.tgz:67235.got - 2010.04.16 15:46:19.
