data_PCOD8299090
_publ_section_title
;
Structure prediction by ZEFSAII (Michael W. Deem and Ramdas Pophale) SiO2 
 PCOD8299090
Probable space group: I M M A
;
_chemical_formula_sum "Si O2"
_cell_formula_units_Z 96
_cell_length_a 27.721959
_cell_length_b 8.697542
_cell_length_c 20.485485
_cell_angle_alpha 90.000000
_cell_angle_beta 90.000000
_cell_angle_gamma 90.000000
_cell_volume 4939.314752
_symmetry_space_group_name_H-M "I M M A"
_symmetry_group_IT_number 74
_symmetry_cell_setting 'orthorhombic'
loop_
_space_group_symop_operation_xyz
x,y,z
-x,1/2-y,z
x,-y,-z
-x,1/2+y,-z
-x,-y,-z
x,1/2+y,-z
-x,y,z
x,1/2-y,z
1/2+x,1/2+y,1/2+z
1/2-x,-y,1/2+z
1/2+x,1/2-y,1/2-z
1/2-x,y,1/2-z
1/2-x,1/2-y,1/2-z
1/2+x,y,1/2-z
1/2-x,1/2+y,1/2+z
1/2+x,-y,1/2+z
loop_
_atom_site_type_symbol
_atom_site_label
_atom_site_fract_x
_atom_site_fract_y
_atom_site_fract_z
Si Si1 0.112108 0.431834 0.313328
Si Si2 0.721391 0.567482 0.811864
Si Si3 0.786170 0.432559 0.069113
Si Si4 0.944079 0.927803 0.815578
Si Si5 0.554785 0.931107 0.067589
Si Si6 0.889101 0.568860 0.068835
O O1 0.109215 0.250000 0.322747
O O2 0.166799 0.493164 0.310147
O O3 0.085491 0.483675 0.247390
O O4 0.087433 0.510828 0.374218
O O5 0.721770 0.750000 0.807889
O O6 0.750000 0.498243 0.750000
O O7 0.747261 0.511699 0.877936
O O8 0.789584 0.250000 0.064706
O O9 0.838188 0.496320 0.090104
O O10 0.769378 0.500000 0.000000
O O11 0.933190 0.750000 0.831197
O O12 0.000000 0.956354 0.800818
O O13 0.928876 0.029211 0.877292
O O14 0.500000 0.987409 0.079642
O O15 0.557978 0.750000 0.063045
O O16 0.574770 0.000000 0.000000
O O17 0.883206 0.750000 0.061379
O O18 0.906605 0.500000 0.000000
#
# Coordination Sequence:
#
# PCOD8299090 Si02
#       6
#    16  16  16  16  16  16
#     4  10  20  36  59  85 112 144 183 226 273 325
#     4   9  18  33  55  81 108 141 181 223 267 318
#     4  10  19  34  56  80 109 143 179 221 268 322
#     4  10  21  37  58  83 111 145 184 225 271 326
#     4  10  21  37  57  81 111 147 186 228 274 325
#     4  11  22  37  58  82 110 144 182 226 274 325
#
# _framework density 19.435894999999999
#
# number of rings (size 3 to 8) (size 9 to 14) (size 15 to 20)
#    0.000    2.000    0.000    5.000    0.000    6.333 
#    0.000    3.333    0.000    3.500    0.000    0.000 
#    0.000    0.000    0.000    0.000    0.000    0.000 
#
# Total GULP energy -595388.850934 kJ/mol
# GULP energy per Si atom -12403.934394 kJ/mol
# Density = 1.939166 g / cm^3
# Si number density = 19.435895 Si / 1000 Ang^3
#
#
#
# Elastic Constant Matrix: (Units=GPa)
#
#
# Indices 1 2 3 4 5 6 
#
# 1 120.8130 32.8064 85.3410 0.0000 0.0000 0.0000
# 2 32.8064 71.2639 45.1229 0.0000 0.0000 0.0000
# 3 85.3410 45.1229 156.1069 0.0000 0.0000 0.0000
# 4 0.0000 0.0000 0.0000 33.1942 0.0000 0.0000
# 5 0.0000 0.0000 0.0000 0.0000 61.1922 0.0000
# 6 0.0000 0.0000 0.0000 0.0000 0.0000 23.4658
#
#
#
# Elastic Compliance Matrix: (Units=1/GPa)
#
#
# Indices 1 2 3 4 5 6 
#
# 1 0.013695 -0.001914 -0.006933 0.000000 0.000000 0.000000
# 2 -0.001914 0.017444 -0.003996 0.000000 0.000000 0.000000
# 3 -0.006933 -0.003996 0.011351 0.000000 0.000000 0.000000
# 4 0.000000 0.000000 0.000000 0.030126 0.000000 0.000000
# 5 0.000000 0.000000 0.000000 0.000000 0.016342 0.000000
# 6 0.000000 0.000000 0.000000 0.000000 0.000000 0.042615
#
#
# Mechanical properties :
#
#
# Convention : Reuss Voigt Hill
#
# Bulk Modulus (GPa) = 59.51338 74.96937 67.24137
# Shear Modulus (GPa) = 30.70130 35.89801 33.29965
#
# Velocity S-wave (km/s) = 3.97875 4.30233 4.14370
# Velocity P-wave (km/s) = 7.19681 7.95842 7.58718
#
# Compressibility (1/GPa) = 0.01680294
#
# Stress axis : x y z
#
# Youngs Moduli (GPa) = 73.02088 57.32792 88.09712
#
# Poissons Ratio (x) = 0.10975 0.61081
# Poissons Ratio (y) = 0.13979 0.35199
# Poissons Ratio (z) = 0.50628 0.22906
#
# Static dielectric constant tensor:
#      x y z
#    x 3.654120 0.000000 0.000000 
#    y 0.000000 3.364460 0.000000 
#    z 0.000000 0.000000 3.639080 
# 
# 
# High freq. dielectric constant tensor:
#      x y z
#    x 1.759220 0.000000 0.000000 
#    y 0.000000 1.741260 0.000000 
#    z 0.000000 0.000000 1.771440 
# 
# From -- ./inp_files/55027.got.cif
#   From: 2010.03.12/outbox.cif.g09.slc.cpg/sg74_28_cif.got.tgz:55027.got - 2010.04.16 15:46:19.
