data_PCOD8299473
_publ_section_title
;
Structure prediction by ZEFSAII (Michael W. Deem and Ramdas Pophale) SiO2 
 PCOD8299473
Probable space group: I M M A
;
_chemical_formula_sum "Si O2"
_cell_formula_units_Z 40
_cell_length_a 9.965167
_cell_length_b 9.193994
_cell_length_c 27.663844
_cell_angle_alpha 90.000000
_cell_angle_beta 90.000000
_cell_angle_gamma 90.000000
_cell_volume 2534.552690
_symmetry_space_group_name_H-M "I M M A"
_symmetry_group_IT_number 74
_symmetry_cell_setting 'orthorhombic'
loop_
_space_group_symop_operation_xyz
x,y,z
-x,1/2-y,z
x,-y,-z
-x,1/2+y,-z
-x,-y,-z
x,1/2+y,-z
-x,y,z
x,1/2-y,z
1/2+x,1/2+y,1/2+z
1/2-x,-y,1/2+z
1/2+x,1/2-y,1/2-z
1/2-x,y,1/2-z
1/2-x,1/2-y,1/2-z
1/2+x,y,1/2-z
1/2-x,1/2+y,1/2+z
1/2+x,-y,1/2+z
loop_
_atom_site_type_symbol
_atom_site_label
_atom_site_fract_x
_atom_site_fract_y
_atom_site_fract_z
Si Si1 0.349596 0.750000 0.794209
Si Si2 0.650748 0.089050 0.113455
Si Si3 0.345527 0.080082 0.548492
O O1 0.500000 0.750000 0.773021
O O2 0.250000 0.750000 0.750000
O O3 0.328557 0.607185 0.828382
O O4 0.500000 0.032054 0.102666
O O5 0.669605 0.250000 0.089473
O O6 0.757742 0.975540 0.093230
O O7 0.500000 0.042988 0.559890
O O8 0.322208 0.250000 0.541474
O O9 0.297446 0.000000 0.500000
#
# Coordination Sequence:
#
# PCOD8299473 Si02
#       3
#     8  16  16
#     4   8  16  30  50  76 100 122 158 202 243 290
#     4   8  17  32  48  70  98 124 158 197 238 289
#     4  10  20  32  47  69  97 129 166 203 241 286
#
# _framework density 15.781877
#
# number of rings (size 3 to 8) (size 9 to 14) (size 15 to 20)
#    1.200    2.000    0.000    1.200    0.000    5.600 
#    0.000    0.000    0.000    1.200    0.000    0.000 
#    0.000    0.000    0.000    0.000    0.000    0.000 
#
# Total GULP energy -247790.326814 kJ/mol
# GULP energy per Si atom -12389.516341 kJ/mol
# Density = 1.574596 g / cm^3
# Si number density = 15.781877 Si / 1000 Ang^3
#
#
#
# Elastic Constant Matrix: (Units=GPa)
#
#
# Indices 1 2 3 4 5 6 
#
# 1 107.4195 48.4967 71.2115 0.0000 0.0000 0.0000
# 2 48.4967 64.7398 40.0523 0.0000 0.0000 0.0000
# 3 71.2115 40.0523 89.2076 0.0000 0.0000 0.0000
# 4 0.0000 0.0000 0.0000 16.6128 0.0000 0.0000
# 5 0.0000 0.0000 0.0000 0.0000 34.3561 0.0000
# 6 0.0000 0.0000 0.0000 0.0000 0.0000 29.9101
#
#
#
# Elastic Compliance Matrix: (Units=1/GPa)
#
#
# Indices 1 2 3 4 5 6 
#
# 1 0.022354 -0.007900 -0.014298 0.000000 0.000000 0.000000
# 2 -0.007900 0.024179 -0.004549 0.000000 0.000000 0.000000
# 3 -0.014298 -0.004549 0.024666 0.000000 0.000000 0.000000
# 4 0.000000 0.000000 0.000000 0.060195 0.000000 0.000000
# 5 0.000000 0.000000 0.000000 0.000000 0.029107 0.000000
# 6 0.000000 0.000000 0.000000 0.000000 0.000000 0.033434
#
#
# Mechanical properties :
#
#
# Convention : Reuss Voigt Hill
#
# Bulk Modulus (GPa) = 56.48268 64.54310 60.51289
# Shear Modulus (GPa) = 19.73706 22.94956 21.34331
#
# Velocity S-wave (km/s) = 3.54024 3.81750 3.68148
# Velocity P-wave (km/s) = 7.25109 7.77282 7.51649
#
# Compressibility (1/GPa) = 0.01770454
#
# Stress axis : x y z
#
# Youngs Moduli (GPa) = 44.73398 41.35812 40.54187
#
# Poissons Ratio (x) = 0.32674 0.57966
# Poissons Ratio (y) = 0.35340 0.18444
# Poissons Ratio (z) = 0.63960 0.18816
#
# Static dielectric constant tensor:
#      x y z
#    x 2.948290 0.000000 0.000000 
#    y 0.000000 2.757990 0.000000 
#    z 0.000000 0.000000 2.738590 
# 
# 
# High freq. dielectric constant tensor:
#      x y z
#    x 1.614370 0.000000 0.000000 
#    y 0.000000 1.583490 0.000000 
#    z 0.000000 0.000000 1.585770 
# 
# From -- ./inp_files/38393.got.cif
#   From: 2010.03.12/outbox.cif.g09.slc.cpg/sg74_20_cif.got.tgz:38393.got - 2010.04.16 15:46:19.
