data_PCOD8299421
_publ_section_title
;
Structure prediction by ZEFSAII (Michael W. Deem and Ramdas Pophale) SiO2 
 PCOD8299421
Probable space group: I M M A
;
_chemical_formula_sum "Si O2"
_cell_formula_units_Z 88
_cell_length_a 9.216335
_cell_length_b 27.512621
_cell_length_c 25.139806
_cell_angle_alpha 90.000000
_cell_angle_beta 90.000000
_cell_angle_gamma 90.000000
_cell_volume 6374.588279
_symmetry_space_group_name_H-M "I M M A"
_symmetry_group_IT_number 74
_symmetry_cell_setting 'orthorhombic'
loop_
_space_group_symop_operation_xyz
x,y,z
-x,1/2-y,z
x,-y,-z
-x,1/2+y,-z
-x,-y,-z
x,1/2+y,-z
-x,y,z
x,1/2-y,z
1/2+x,1/2+y,1/2+z
1/2-x,-y,1/2+z
1/2+x,1/2-y,1/2-z
1/2-x,y,1/2-z
1/2-x,1/2-y,1/2-z
1/2+x,y,1/2-z
1/2-x,1/2+y,1/2+z
1/2+x,-y,1/2+z
loop_
_atom_site_type_symbol
_atom_site_label
_atom_site_fract_x
_atom_site_fract_y
_atom_site_fract_z
Si Si1 0.664264 0.016124 0.439045
Si Si2 0.164187 0.426294 0.589359
Si Si3 0.331425 0.664683 0.383161
Si Si4 0.336132 0.105788 0.032430
Si Si5 0.167133 0.804927 0.998096
Si Si6 0.829271 0.250000 0.805578
O O1 0.500000 0.021320 0.418065
O O2 0.745769 0.067548 0.432290
O O3 0.664715 0.000000 0.500000
O O4 0.747723 0.976353 0.403377
O O5 0.239429 0.384473 0.624499
O O6 0.167019 0.410946 0.528236
O O7 0.000000 0.434002 0.609352
O O8 0.500000 0.651043 0.378459
O O9 0.298292 0.689542 0.439614
O O10 0.282020 0.702150 0.337891
O O11 0.500000 0.108114 0.054165
O O12 0.264304 0.158957 0.037270
O O13 0.203846 0.750000 0.980818
O O14 0.000000 0.817753 0.987103
O O15 0.750000 0.250000 0.750000
O O16 0.000000 0.250000 0.796249
#
# Coordination Sequence:
#
# PCOD8299421 Si02
#       6
#    16  16  16  16  16   8
#     4   9  15  23  34  47  63  85 108 127 152 192
#     4   9  16  24  35  51  67  82 100 128 163 197
#     4   9  16  28  41  52  65  83 107 134 166 208
#     4   9  16  23  31  46  67  86 104 131 164 195
#     4   9  15  24  37  49  62  84 113 141 167 200
#     4  10  20  32  44  56  70  88 110 140 178 218
#
# _framework density 13.804814
#
# number of rings (size 3 to 8) (size 9 to 14) (size 15 to 20)
#    0.000    2.909    0.909    1.636    0.000    7.636 
#    0.000    0.000    0.000    0.000    0.000    0.000 
#    0.000    0.000    0.000    0.000    0.000    0.000 
#
# Total GULP energy -545513.232191 kJ/mol
# GULP energy per Si atom -12398.028004 kJ/mol
# Density = 1.377339 g / cm^3
# Si number density = 13.804814 Si / 1000 Ang^3
#
#
#
# Elastic Constant Matrix: (Units=GPa)
#
#
# Indices 1 2 3 4 5 6 
#
# 1 110.8008 76.8032 20.8559 0.0000 0.0000 0.0000
# 2 76.8032 131.2929 29.7497 0.0000 0.0000 0.0000
# 3 20.8559 29.7497 19.6298 0.0000 0.0000 0.0000
# 4 0.0000 0.0000 0.0000 9.6334 0.0000 0.0000
# 5 0.0000 0.0000 0.0000 0.0000 11.3646 0.0000
# 6 0.0000 0.0000 0.0000 0.0000 0.0000 25.1203
#
#
#
# Elastic Compliance Matrix: (Units=1/GPa)
#
#
# Indices 1 2 3 4 5 6 
#
# 1 0.015397 -0.008072 -0.004125 0.000000 0.000000 0.000000
# 2 -0.008072 0.015832 -0.015418 0.000000 0.000000 0.000000
# 3 -0.004125 -0.015418 0.078692 0.000000 0.000000 0.000000
# 4 0.000000 0.000000 0.000000 0.103806 0.000000 0.000000
# 5 0.000000 0.000000 0.000000 0.000000 0.087993 0.000000
# 6 0.000000 0.000000 0.000000 0.000000 0.000000 0.039808
#
#
# Mechanical properties :
#
#
# Convention : Reuss Voigt Hill
#
# Bulk Modulus (GPa) = 18.28451 57.39346 37.83898
# Shear Modulus (GPa) = 12.04853 18.17797 15.11325
#
# Velocity S-wave (km/s) = 2.95749 3.63269 3.31234
# Velocity P-wave (km/s) = 4.99360 7.69808 6.48832
#
# Compressibility (1/GPa) = 0.05469110
#
# Stress axis : x y z
#
# Youngs Moduli (GPa) = 64.94772 63.16283 12.70776
#
# Poissons Ratio (x) = 0.50986 0.05242
# Poissons Ratio (y) = 0.52427 0.19593
# Poissons Ratio (z) = 0.26791 0.97383
#
# Static dielectric constant tensor:
#      x y z
#    x 2.879430 0.000000 0.000000 
#    y 0.000000 2.902550 0.000000 
#    z 0.000000 0.000000 2.079870 
# 
# 
# High freq. dielectric constant tensor:
#      x y z
#    x 1.540460 0.000000 0.000000 
#    y 0.000000 1.537930 0.000000 
#    z 0.000000 0.000000 1.432530 
# 
# From -- ./inp_files/62602.got.cif
#   From: 2010.03.12/outbox.cif.g09.slc.cpg/sg74_32_cif.got.tgz:62602.got - 2010.04.16 15:46:19.
