data_PCOD8299706
_publ_section_title
;
Structure prediction by ZEFSAII (Michael W. Deem and Ramdas Pophale) SiO2 
 PCOD8299706
Probable space group: I M M A
;
_chemical_formula_sum "Si O2"
_cell_formula_units_Z 72
_cell_length_a 8.975832
_cell_length_b 28.790865
_cell_length_c 13.977553
_cell_angle_alpha 90.000000
_cell_angle_beta 90.000000
_cell_angle_gamma 90.000000
_cell_volume 3612.106745
_symmetry_space_group_name_H-M "I M M A"
_symmetry_group_IT_number 74
_symmetry_cell_setting 'orthorhombic'
loop_
_space_group_symop_operation_xyz
x,y,z
-x,1/2-y,z
x,-y,-z
-x,1/2+y,-z
-x,-y,-z
x,1/2+y,-z
-x,y,z
x,1/2-y,z
1/2+x,1/2+y,1/2+z
1/2-x,-y,1/2+z
1/2+x,1/2-y,1/2-z
1/2-x,y,1/2-z
1/2-x,1/2-y,1/2-z
1/2+x,y,1/2-z
1/2-x,1/2+y,1/2+z
1/2+x,-y,1/2+z
loop_
_atom_site_type_symbol
_atom_site_label
_atom_site_fract_x
_atom_site_fract_y
_atom_site_fract_z
Si Si1 0.674387 0.974079 0.352586
Si Si2 0.829036 0.342630 0.458049
Si Si3 0.328593 0.615731 0.150494
Si Si4 0.323739 0.750000 0.853508
Si Si5 0.173178 0.575817 0.851813
O O1 0.500000 0.962979 0.344760
O O2 0.750000 0.977341 0.250000
O O3 0.755390 0.929937 0.401081
O O4 0.699668 0.024780 0.401466
O O5 0.812627 0.342314 0.573834
O O6 0.769716 0.294570 0.413872
O O7 0.732251 0.384729 0.420157
O O8 0.000000 0.350810 0.428324
O O9 0.500000 0.604989 0.173093
O O10 0.250000 0.629749 0.250000
O O11 0.500000 0.750000 0.840084
O O12 0.250000 0.750000 0.750000
O O13 0.250000 0.579611 0.750000
O O14 0.000000 0.583821 0.834168
#
# Coordination Sequence:
#
# PCOD8299706 Si02
#       5
#    16  16  16   8  16
#     4   9  17  30  49  75 108 146 182 219 264 314
#     4  10  22  38  57  80 107 141 181 223 272 325
#     4  10  20  35  55  79 108 144 182 223 267 314
#     4  10  22  42  63  84 110 138 171 216 269 324
#     4  10  20  33  52  79 112 146 182 224 269 319
#
# _framework density 19.932966
#
# number of rings (size 3 to 8) (size 9 to 14) (size 15 to 20)
#    0.000    2.222    0.000    4.000    0.000    8.000 
#    0.000    5.000    0.000    0.000    0.000    0.000 
#    0.000    0.000    0.000    0.000    0.000    0.000 
#
# Total GULP energy -446110.383980 kJ/mol
# GULP energy per Si atom -12391.955111 kJ/mol
# Density = 1.988760 g / cm^3
# Si number density = 19.932966 Si / 1000 Ang^3
#
#
#
# Elastic Constant Matrix: (Units=GPa)
#
#
# Indices 1 2 3 4 5 6 
#
# 1 107.7972 48.3554 43.8080 -0.0001 0.0000 -0.0001
# 2 48.3554 127.0841 74.6842 0.0001 0.0000 0.0001
# 3 43.8080 74.6842 92.4675 0.0003 0.0000 0.0000
# 4 -0.0001 0.0001 0.0003 37.2169 0.0000 0.0002
# 5 0.0000 0.0000 0.0000 0.0000 27.3977 0.0000
# 6 -0.0001 0.0001 0.0000 0.0002 0.0000 16.9426
#
#
#
# Elastic Compliance Matrix: (Units=1/GPa)
#
#
# Indices 1 2 3 4 5 6 
#
# 1 0.011831 -0.002299 -0.003748 0.000000 0.000000 0.000000
# 2 -0.002299 0.015425 -0.011369 0.000000 0.000000 0.000000
# 3 -0.003748 -0.011369 0.021773 0.000000 0.000000 0.000000
# 4 0.000000 0.000000 0.000000 0.026870 0.000000 0.000000
# 5 0.000000 0.000000 0.000000 0.000000 0.036499 0.000000
# 6 0.000000 0.000000 0.000000 0.000000 0.000000 0.059023
#
#
# Mechanical properties :
#
#
# Convention : Reuss Voigt Hill
#
# Bulk Modulus (GPa) = 70.44164 73.44934 71.94549
# Shear Modulus (GPa) = 23.69814 27.01150 25.35482
#
# Velocity S-wave (km/s) = 3.45177 3.68519 3.57039
# Velocity P-wave (km/s) = 7.16256 7.41860 7.29170
#
# Compressibility (1/GPa) = 0.01419615
#
# Stress axis : x y z
#
# Youngs Moduli (GPa) = 84.52178 64.82966 45.92774
#
# Poissons Ratio (x) = 0.14904 0.17216
# Poissons Ratio (y) = 0.19431 0.52217
# Poissons Ratio (z) = 0.31683 0.73707
#
# Static dielectric constant tensor:
#      x y z
#    x 3.695490 0.000000 0.000000 
#    y 0.000000 4.022070 0.000000 
#    z 0.000000 0.000000 3.480640 
# 
# 
# High freq. dielectric constant tensor:
#      x y z
#    x 1.783910 0.000000 0.000000 
#    y 0.000000 1.768040 0.000000 
#    z 0.000000 0.000000 1.772930 
# 
# From -- ./inp_files/29191.got.cif
#   From: 2010.03.12/outbox.cif.g09.slc.cpg/sg74_15_cif.got.tgz:29191.got - 2010.04.16 15:46:19.
