data_PCOD8299044
_publ_section_title
;
Structure prediction by ZEFSAII (Michael W. Deem and Ramdas Pophale) SiO2 
 PCOD8299044
Probable space group: I M M A
;
_chemical_formula_sum "Si O2"
_cell_formula_units_Z 72
_cell_length_a 8.980089
_cell_length_b 22.156980
_cell_length_c 19.581940
_cell_angle_alpha 90.000000
_cell_angle_beta 90.000000
_cell_angle_gamma 90.000000
_cell_volume 3896.250958
_symmetry_space_group_name_H-M "I M M A"
_symmetry_group_IT_number 74
_symmetry_cell_setting 'orthorhombic'
loop_
_space_group_symop_operation_xyz
x,y,z
-x,1/2-y,z
x,-y,-z
-x,1/2+y,-z
-x,-y,-z
x,1/2+y,-z
-x,y,z
x,1/2-y,z
1/2+x,1/2+y,1/2+z
1/2-x,-y,1/2+z
1/2+x,1/2-y,1/2-z
1/2-x,y,1/2-z
1/2-x,1/2-y,1/2-z
1/2+x,y,1/2-z
1/2-x,1/2+y,1/2+z
1/2+x,-y,1/2+z
loop_
_atom_site_type_symbol
_atom_site_label
_atom_site_fract_x
_atom_site_fract_y
_atom_site_fract_z
Si Si1 0.827627 0.465363 0.681872
Si Si2 0.323529 0.250000 0.676583
Si Si3 0.826038 0.145985 0.592854
Si Si4 0.676625 0.601613 0.820094
Si Si5 0.323621 0.182190 0.056360
O O1 0.750000 0.440243 0.750000
O O2 0.792765 0.421970 0.618004
O O3 0.773133 0.532899 0.663779
O O4 0.000000 0.465946 0.699327
O O5 0.500000 0.250000 0.684515
O O6 0.250000 0.250000 0.750000
O O7 0.272743 0.309079 0.636634
O O8 0.775935 0.150374 0.514195
O O9 0.000000 0.163120 0.601587
O O10 0.500000 0.607280 0.813585
O O11 0.750000 0.624435 0.750000
O O12 0.740418 0.643173 0.880929
O O13 0.500000 0.184591 0.061466
O O14 0.257660 0.250000 0.059446
#
# Coordination Sequence:
#
# PCOD8299044 Si02
#       5
#    16   8  16  16  16
#     4   9  18  31  50  75 102 133 170 213 254 300
#     4  12  24  36  52  76 105 138 175 212 249 298
#     4  10  19  34  54  75 102 136 172 211 257 305
#     4   9  18  33  52  76 103 133 171 213 259 307
#     4   9  17  31  53  76 102 135 170 213 260 305
#
# _framework density 18.479302000000001
#
# number of rings (size 3 to 8) (size 9 to 14) (size 15 to 20)
#    0.000    2.444    1.111    1.667    0.000    4.000 
#    0.000    5.556    0.000    0.000    0.000    7.778 
#    0.000    0.000    0.000    0.000    0.000    0.000 
#
# Total GULP energy -446392.422687 kJ/mol
# GULP energy per Si atom -12399.789519 kJ/mol
# Density = 1.843724 g / cm^3
# Si number density = 18.479302 Si / 1000 Ang^3
#
#
#
# Elastic Constant Matrix: (Units=GPa)
#
#
# Indices 1 2 3 4 5 6 
#
# 1 43.4796 27.1025 40.6865 0.0000 0.0000 0.0000
# 2 27.1025 119.8948 98.0290 0.0000 0.0000 0.0000
# 3 40.6865 98.0290 188.1815 0.0000 0.0000 0.0000
# 4 0.0000 0.0000 0.0000 41.7328 0.0000 0.0000
# 5 0.0000 0.0000 0.0000 0.0000 26.5168 0.0000
# 6 0.0000 0.0000 0.0000 0.0000 0.0000 19.4035
#
#
#
# Elastic Compliance Matrix: (Units=1/GPa)
#
#
# Indices 1 2 3 4 5 6 
#
# 1 0.029261 -0.002512 -0.005018 0.000000 0.000000 0.000000
# 2 -0.002512 0.014744 -0.007138 0.000000 0.000000 0.000000
# 3 -0.005018 -0.007138 0.010117 0.000000 0.000000 0.000000
# 4 0.000000 0.000000 0.000000 0.023962 0.000000 0.000000
# 5 0.000000 0.000000 0.000000 0.000000 0.037712 0.000000
# 6 0.000000 0.000000 0.000000 0.000000 0.000000 0.051537
#
#
# Mechanical properties :
#
#
# Convention : Reuss Voigt Hill
#
# Bulk Modulus (GPa) = 40.34295 75.91021 58.12658
# Shear Modulus (GPa) = 24.39854 29.91315 27.15585
#
# Velocity S-wave (km/s) = 3.63756 4.02772 3.83760
# Velocity P-wave (km/s) = 6.28659 7.92450 7.15259
#
# Compressibility (1/GPa) = 0.02478748
#
# Stress axis : x y z
#
# Youngs Moduli (GPa) = 34.17571 67.82246 98.84145
#
# Poissons Ratio (x) = 0.17034 0.49599
# Poissons Ratio (y) = 0.08583 0.70550
# Poissons Ratio (z) = 0.17150 0.48410
#
# Static dielectric constant tensor:
#      x y z
#    x 3.120180 0.000000 0.000000 
#    y 0.000000 3.718690 0.000000 
#    z 0.000000 0.000000 3.660820 
# 
# 
# High freq. dielectric constant tensor:
#      x y z
#    x 1.683600 0.000000 0.000000 
#    y 0.000000 1.723570 0.000000 
#    z 0.000000 0.000000 1.722440 
# 
# From -- ./inp_files/39454.got.cif
#   From: 2010.03.12/outbox.cif.g09.slc.cpg/sg74_20_cif.got.tgz:39454.got - 2010.04.16 15:46:19.
