data_PCOD8299990
_publ_section_title
;
Structure prediction by ZEFSAII (Michael W. Deem and Ramdas Pophale) SiO2 
 PCOD8299990
Probable space group: I M M A
;
_chemical_formula_sum "Si O2"
_cell_formula_units_Z 72
_cell_length_a 9.349705
_cell_length_b 21.585638
_cell_length_c 18.044925
_cell_angle_alpha 90.000000
_cell_angle_beta 90.000000
_cell_angle_gamma 90.000000
_cell_volume 3641.814990
_symmetry_space_group_name_H-M "I M M A"
_symmetry_group_IT_number 74
_symmetry_cell_setting 'orthorhombic'
loop_
_space_group_symop_operation_xyz
x,y,z
-x,1/2-y,z
x,-y,-z
-x,1/2+y,-z
-x,-y,-z
x,1/2+y,-z
-x,y,z
x,1/2-y,z
1/2+x,1/2+y,1/2+z
1/2-x,-y,1/2+z
1/2+x,1/2-y,1/2-z
1/2-x,y,1/2-z
1/2-x,1/2-y,1/2-z
1/2+x,y,1/2-z
1/2-x,1/2+y,1/2+z
1/2+x,-y,1/2+z
loop_
_atom_site_type_symbol
_atom_site_label
_atom_site_fract_x
_atom_site_fract_y
_atom_site_fract_z
Si Si1 0.670267 0.250000 0.672388
Si Si2 0.659061 0.677315 0.817604
Si Si3 0.169108 0.622640 0.098477
Si Si4 0.333392 0.109780 0.431683
Si Si5 0.166440 0.501317 0.177299
O O1 0.500000 0.250000 0.685518
O O2 0.750000 0.250000 0.750000
O O3 0.721477 0.189725 0.626487
O O4 0.500000 0.647596 0.816962
O O5 0.645873 0.750000 0.807773
O O6 0.750000 0.648045 0.750000
O O7 0.741156 0.663297 0.893322
O O8 0.225780 0.568855 0.153081
O O9 0.000000 0.619838 0.097698
O O10 0.223574 0.607785 0.015734
O O11 0.500000 0.128269 0.427749
O O12 0.304328 0.044645 0.391314
O O13 0.250000 0.478891 0.250000
O O14 0.000000 0.503363 0.197238
#
# Coordination Sequence:
#
# PCOD8299990 Si02
#       5
#     8  16  16  16  16
#     4  10  20  36  58  82 107 142 185 226 269 324
#     4  10  21  36  53  76 108 145 184 226 271 323
#     4   9  19  35  56  81 109 143 184 226 272 326
#     4  10  20  34  56  81 108 142 181 226 274 324
#     4  10  20  35  55  80 110 144 183 226 274 326
#
# _framework density 19.770361000000001
#
# number of rings (size 3 to 8) (size 9 to 14) (size 15 to 20)
#    0.000    2.222    0.000    2.667    1.556    6.667 
#    0.000    2.222    0.000    2.667    0.000    0.000 
#    0.000    0.000    0.000    0.000    0.000    0.000 
#
# Total GULP energy -446411.086095 kJ/mol
# GULP energy per Si atom -12400.307947 kJ/mol
# Density = 1.972536 g / cm^3
# Si number density = 19.770361 Si / 1000 Ang^3
#
#
#
# Elastic Constant Matrix: (Units=GPa)
#
#
# Indices 1 2 3 4 5 6 
#
# 1 72.4401 33.0687 49.2614 0.0000 0.0000 0.0000
# 2 33.0687 92.4591 55.8852 0.0000 0.0000 0.0000
# 3 49.2614 55.8852 155.8149 0.0000 0.0000 0.0000
# 4 0.0000 0.0000 0.0000 34.0661 0.0000 0.0000
# 5 0.0000 0.0000 0.0000 0.0000 31.2111 0.0000
# 6 0.0000 0.0000 0.0000 0.0000 0.0000 19.6407
#
#
#
# Elastic Compliance Matrix: (Units=1/GPa)
#
#
# Indices 1 2 3 4 5 6 
#
# 1 0.018660 -0.003968 -0.004476 0.000000 0.000000 0.000000
# 2 -0.003968 0.014653 -0.004001 0.000000 0.000000 0.000000
# 3 -0.004476 -0.004001 0.009268 0.000000 0.000000 0.000000
# 4 0.000000 0.000000 0.000000 0.029355 0.000000 0.000000
# 5 0.000000 0.000000 0.000000 0.000000 0.032040 0.000000
# 6 0.000000 0.000000 0.000000 0.000000 0.000000 0.050915
#
#
# Mechanical properties :
#
#
# Convention : Reuss Voigt Hill
#
# Bulk Modulus (GPa) = 56.52818 66.34940 61.43879
# Shear Modulus (GPa) = 26.92833 29.15017 28.03925
#
# Velocity S-wave (km/s) = 3.69461 3.84401 3.77005
# Velocity P-wave (km/s) = 6.84504 7.30306 7.07776
#
# Compressibility (1/GPa) = 0.01769029
#
# Stress axis : x y z
#
# Youngs Moduli (GPa) = 53.59080 68.24434 107.89824
#
# Poissons Ratio (x) = 0.27082 0.48296
# Poissons Ratio (y) = 0.21267 0.43170
# Poissons Ratio (z) = 0.23988 0.27304
#
# Static dielectric constant tensor:
#      x y z
#    x 3.443790 0.000000 0.000000 
#    y 0.000000 3.769010 0.000000 
#    z 0.000000 0.000000 3.754000 
# 
# 
# High freq. dielectric constant tensor:
#      x y z
#    x 1.741470 0.000000 0.000000 
#    y 0.000000 1.778700 0.000000 
#    z 0.000000 0.000000 1.776770 
# 
# From -- ./inp_files/41117.got.cif
#   From: 2010.03.12/outbox.cif.g09.slc.cpg/sg74_21_cif.got.tgz:41117.got - 2010.04.16 15:46:19.
