data_PCOD8299905
_publ_section_title
;
Structure prediction by ZEFSAII (Michael W. Deem and Ramdas Pophale) SiO2 
 PCOD8299905
Probable space group: I M M A
;
_chemical_formula_sum "Si O2"
_cell_formula_units_Z 104
_cell_length_a 19.753511
_cell_length_b 9.074459
_cell_length_c 32.318395
_cell_angle_alpha 90.000000
_cell_angle_beta 90.000000
_cell_angle_gamma 90.000000
_cell_volume 5793.150698
_symmetry_space_group_name_H-M "I M M A"
_symmetry_group_IT_number 74
_symmetry_cell_setting 'orthorhombic'
loop_
_space_group_symop_operation_xyz
x,y,z
-x,1/2-y,z
x,-y,-z
-x,1/2+y,-z
-x,-y,-z
x,1/2+y,-z
-x,y,z
x,1/2-y,z
1/2+x,1/2+y,1/2+z
1/2-x,-y,1/2+z
1/2+x,1/2-y,1/2-z
1/2-x,y,1/2-z
1/2-x,1/2-y,1/2-z
1/2+x,y,1/2-z
1/2-x,1/2+y,1/2+z
1/2+x,-y,1/2+z
loop_
_atom_site_type_symbol
_atom_site_label
_atom_site_fract_x
_atom_site_fract_y
_atom_site_fract_z
Si Si1 0.818722 0.083717 0.836306
Si Si2 0.122036 0.087862 0.925676
Si Si3 0.732575 0.922868 0.042205
Si Si4 0.696655 0.422151 0.125336
Si Si5 0.076472 0.924740 0.231771
Si Si6 0.423427 0.918929 0.815297
Si Si7 0.000000 0.420471 0.043023
O O1 0.794784 0.250000 0.825039
O O2 0.861664 0.087700 0.877757
O O3 0.868275 0.016786 0.801203
O O4 0.753353 0.981471 0.842754
O O5 0.094550 0.250000 0.938477
O O6 0.187430 0.049610 0.953118
O O7 0.066542 0.963544 0.931929
O O8 0.715088 0.750000 0.040932
O O9 0.695330 0.993864 0.081615
O O10 0.707338 0.000000 0.000000
O O11 0.710178 0.250000 0.117418
O O12 0.624028 0.453102 0.145706
O O13 0.077412 0.750000 0.232167
O O14 0.000000 0.980770 0.220901
O O15 0.098939 0.982673 0.276501
O O16 0.500000 0.956232 0.829069
O O17 0.416212 0.750000 0.801345
O O18 0.000000 0.250000 0.034994
O O19 0.000000 0.500000 0.000000
#
# Coordination Sequence:
#
# PCOD8299905 Si02
#       7
#    16  16  16  16  16  16   8
#     4   9  19  34  52  74 102 136 173 216 262 306
#     4   9  19  34  51  69  94 131 168 208 256 301
#     4  10  20  35  56  79 103 132 166 207 254 306
#     4  10  20  34  54  78 105 136 171 212 256 307
#     4   9  18  32  52  76 101 136 180 220 258 303
#     4   9  19  36  55  76 104 138 172 208 256 310
#     4  12  24  34  46  66  92 126 170 216 260 304
#
# _framework density 17.952234000000001
#
# number of rings (size 3 to 8) (size 9 to 14) (size 15 to 20)
#    0.000    2.462    0.000    3.000    1.077    6.769 
#    0.000    3.077    0.000    0.462    0.000    0.000 
#    0.000    0.000    0.000    0.000    0.000    0.000 
#
# Total GULP energy -644767.551460 kJ/mol
# GULP energy per Si atom -12399.375990 kJ/mol
# Density = 1.791137 g / cm^3
# Si number density = 17.952234 Si / 1000 Ang^3
#
#
#
# Elastic Constant Matrix: (Units=GPa)
#
#
# Indices 1 2 3 4 5 6 
#
# 1 86.6298 44.9511 60.2267 0.0000 0.0000 0.0000
# 2 44.9511 85.5006 45.7452 0.0000 0.0000 0.0000
# 3 60.2267 45.7452 105.3779 0.0000 0.0000 0.0000
# 4 0.0000 0.0000 0.0000 31.8192 0.0000 0.0000
# 5 0.0000 0.0000 0.0000 0.0000 17.9300 0.0000
# 6 0.0000 0.0000 0.0000 0.0000 0.0000 24.9893
#
#
#
# Elastic Compliance Matrix: (Units=1/GPa)
#
#
# Indices 1 2 3 4 5 6 
#
# 1 0.021358 -0.006119 -0.009551 0.000000 0.000000 0.000000
# 2 -0.006119 0.016987 -0.003877 0.000000 0.000000 0.000000
# 3 -0.009551 -0.003877 0.016631 0.000000 0.000000 0.000000
# 4 0.000000 0.000000 0.000000 0.031428 0.000000 0.000000
# 5 0.000000 0.000000 0.000000 0.000000 0.055772 0.000000
# 6 0.000000 0.000000 0.000000 0.000000 0.000000 0.040017
#
#
# Mechanical properties :
#
#
# Convention : Reuss Voigt Hill
#
# Bulk Modulus (GPa) = 62.95935 64.37270 63.66603
# Shear Modulus (GPa) = 22.06713 23.38670 22.72691
#
# Velocity S-wave (km/s) = 3.50982 3.61323 3.56190
# Velocity P-wave (km/s) = 7.18134 7.30362 7.24274
#
# Compressibility (1/GPa) = 0.01588326
#
# Stress axis : x y z
#
# Youngs Moduli (GPa) = 46.82044 58.86797 60.12831
#
# Poissons Ratio (x) = 0.36022 0.57426
# Poissons Ratio (y) = 0.28650 0.23312
# Poissons Ratio (z) = 0.44716 0.22823
#
# Static dielectric constant tensor:
#      x y z
#    x 3.260340 0.000000 0.000000 
#    y 0.000000 3.491310 0.000000 
#    z 0.000000 0.000000 3.266800 
# 
# 
# High freq. dielectric constant tensor:
#      x y z
#    x 1.679860 0.000000 0.000000 
#    y 0.000000 1.697380 0.000000 
#    z 0.000000 0.000000 1.693640 
# 
# From -- ./inp_files/73412.got.cif
#   From: 2010.03.12/outbox.cif.g09.slc.cpg/sg74_37_cif.got.tgz:73412.got - 2010.04.16 15:46:19.
