data_PCOD8299108
_publ_section_title
;
Structure prediction by ZEFSAII (Michael W. Deem and Ramdas Pophale) SiO2 
 PCOD8299108
Probable space group: I M M A
;
_chemical_formula_sum "Si O2"
_cell_formula_units_Z 56
_cell_length_a 10.391539
_cell_length_b 9.537779
_cell_length_c 28.716844
_cell_angle_alpha 90.000000
_cell_angle_beta 90.000000
_cell_angle_gamma 90.000000
_cell_volume 2846.189656
_symmetry_space_group_name_H-M "I M M A"
_symmetry_group_IT_number 74
_symmetry_cell_setting 'orthorhombic'
loop_
_space_group_symop_operation_xyz
x,y,z
-x,1/2-y,z
x,-y,-z
-x,1/2+y,-z
-x,-y,-z
x,1/2+y,-z
-x,y,z
x,1/2-y,z
1/2+x,1/2+y,1/2+z
1/2-x,-y,1/2+z
1/2+x,1/2-y,1/2-z
1/2-x,y,1/2-z
1/2-x,1/2-y,1/2-z
1/2+x,y,1/2-z
1/2-x,1/2+y,1/2+z
1/2+x,-y,1/2+z
loop_
_atom_site_type_symbol
_atom_site_label
_atom_site_fract_x
_atom_site_fract_y
_atom_site_fract_z
Si Si1 0.347904 0.250000 0.662421
Si Si2 0.229686 0.000000 0.500000
Si Si3 0.849273 0.250000 0.941873
Si Si4 0.851975 0.974018 0.788093
Si Si5 0.858877 0.250000 0.134144
Si Si6 0.138733 0.250000 0.440769
O O1 0.500000 0.250000 0.656847
O O2 0.286880 0.250000 0.610333
O O3 0.301643 0.377672 0.694105
O O4 0.313296 0.104517 0.532422
O O5 0.142396 0.106444 0.470386
O O6 0.000000 0.250000 0.937209
O O7 0.750000 0.918170 0.750000
O O8 0.842744 0.884051 0.834208
O O9 0.000000 0.972914 0.768669
O O10 0.755828 0.250000 0.094083
O O11 0.000000 0.250000 0.110135
O O12 0.000000 0.250000 0.415196
#
# Coordination Sequence:
#
# PCOD8299108 Si02
#       6
#     8   8   8  16   8   8
#     4   9  18  32  51  75 108 145 179 222 275 326
#     4  10  22  36  56  84 113 150 193 236 279 336
#     4  10  19  34  56  85 118 151 189 235 287 337
#     4  10  20  35  55  79 108 142 179 223 274 328
#     4  10  22  38  57  82 111 142 181 230 279 329
#     4  11  23  40  60  82 114 154 191 231 283 338
#
# _framework density 19.675428
#
# number of rings (size 3 to 8) (size 9 to 14) (size 15 to 20)
#    0.000    2.000    0.000    3.429    0.000    6.857 
#    0.000    0.000    0.000    3.429    0.000    0.000 
#    0.000    0.000    0.000    0.000    0.000    0.000 
#
# Total GULP energy -346936.284476 kJ/mol
# GULP energy per Si atom -12390.581588 kJ/mol
# Density = 1.963065 g / cm^3
# Si number density = 19.675428 Si / 1000 Ang^3
#
#
#
# Elastic Constant Matrix: (Units=GPa)
#
#
# Indices 1 2 3 4 5 6 
#
# 1 131.8645 36.5041 70.3760 0.0000 0.0000 0.0000
# 2 36.5041 123.3928 19.8028 0.0000 0.0000 0.0000
# 3 70.3760 19.8028 90.7774 0.0000 0.0000 0.0000
# 4 0.0000 0.0000 0.0000 -39.4029 0.0000 0.0000
# 5 0.0000 0.0000 0.0000 0.0000 30.9863 0.0000
# 6 0.0000 0.0000 0.0000 0.0000 0.0000 13.2748
#
#
#
# Elastic Compliance Matrix: (Units=1/GPa)
#
#
# Indices 1 2 3 4 5 6 
#
# 1 0.013597 -0.002415 -0.010014 0.000000 0.000000 0.000000
# 2 -0.002415 0.008827 -0.000053 0.000000 0.000000 0.000000
# 3 -0.010014 -0.000053 0.018791 0.000000 0.000000 0.000000
# 4 0.000000 0.000000 0.000000 -0.025379 0.000000 0.000000
# 5 0.000000 0.000000 0.000000 0.000000 0.032272 0.000000
# 6 0.000000 0.000000 0.000000 0.000000 0.000000 0.075331
#
#
# Mechanical properties :
#
#
# Convention : Reuss Voigt Hill
#
# Bulk Modulus (GPa) = 61.53863 66.60007 64.06935
# Shear Modulus (GPa) = 32.50539 15.59510 24.05025
#
# Velocity S-wave (km/s) = 4.06899 2.81840 3.50000
# Velocity P-wave (km/s) = 7.30892 6.67188 6.99766
#
# Compressibility (1/GPa) = 0.01624996
#
# Stress axis : x y z
#
# Youngs Moduli (GPa) = 73.54759 113.28545 53.21692
#
# Poissons Ratio (x) = 0.27362 0.53292
# Poissons Ratio (y) = 0.17764 0.00283
# Poissons Ratio (z) = 0.73651 0.00602
#
# Static dielectric constant tensor:
#      x y z
#    x 3.405030 0.000000 0.000000 
#    y 0.000000 0.742300 0.000000 
#    z 0.000000 0.000000 3.559020 
# 
# 
# High freq. dielectric constant tensor:
#      x y z
#    x 1.748210 0.000000 0.000000 
#    y 0.000000 1.793040 0.000000 
#    z 0.000000 0.000000 1.762260 
# 
# From -- ./inp_files/65564.got.cif
#   From: 2010.03.12/outbox.cif.g09.slc.cpg/sg74_33_cif.got.tgz:65564.got - 2010.04.16 15:46:19.
