data_PCOD8299136
_publ_section_title
;
Structure prediction by ZEFSAII (Michael W. Deem and Ramdas Pophale) SiO2 
 PCOD8299136
Probable space group: I M M A
;
_chemical_formula_sum "Si O2"
_cell_formula_units_Z 96
_cell_length_a 19.409923
_cell_length_b 17.195980
_cell_length_c 15.061259
_cell_angle_alpha 90.000000
_cell_angle_beta 90.000000
_cell_angle_gamma 90.000000
_cell_volume 5027.036294
_symmetry_space_group_name_H-M "I M M A"
_symmetry_group_IT_number 74
_symmetry_cell_setting 'orthorhombic'
loop_
_space_group_symop_operation_xyz
x,y,z
-x,1/2-y,z
x,-y,-z
-x,1/2+y,-z
-x,-y,-z
x,1/2+y,-z
-x,y,z
x,1/2-y,z
1/2+x,1/2+y,1/2+z
1/2-x,-y,1/2+z
1/2+x,1/2-y,1/2-z
1/2-x,y,1/2-z
1/2-x,1/2-y,1/2-z
1/2+x,y,1/2-z
1/2-x,1/2+y,1/2+z
1/2+x,-y,1/2+z
loop_
_atom_site_type_symbol
_atom_site_label
_atom_site_fract_x
_atom_site_fract_y
_atom_site_fract_z
Si Si1 0.919796 0.660461 0.324788
Si Si2 0.320537 0.342380 0.290874
Si Si3 0.659710 0.909548 0.017800
Si Si4 0.423959 0.157679 0.624422
Si Si5 0.423215 0.342098 0.144376
Si Si6 0.308265 0.157407 0.490916
O O1 0.897929 0.750000 0.338717
O O2 0.874626 0.606022 0.387363
O O3 0.904291 0.632904 0.224377
O O4 0.000000 0.649965 0.347805
O O5 0.318391 0.250000 0.286368
O O6 0.250000 0.376565 0.250000
O O7 0.384123 0.374049 0.232005
O O8 0.328557 0.370415 0.392003
O O9 0.617995 0.863873 0.943219
O O10 0.737645 0.880840 0.021276
O O11 0.656837 0.000000 0.000000
O O12 0.500000 0.125181 0.599386
O O13 0.426209 0.250000 0.619438
O O14 0.367771 0.125067 0.555724
O O15 0.500000 0.378459 0.142663
O O16 0.427717 0.250000 0.147949
O O17 0.300395 0.250000 0.495944
#
# Coordination Sequence:
#
# PCOD8299136 Si02
#       6
#    16  16  16  16  16  16
#     4   9  18  35  57  78 105 140 175 217 272 324
#     4   9  16  30  53  77 102 135 173 214 262 310
#     4  12  24  35  50  76 110 144 181 225 265 313
#     4   8  16  32  56  86 111 133 172 225 271 316
#     4  10  20  35  56  81 106 136 177 218 262 323
#     4  10  19  34  58  81 108 143 177 215 265 323
#
# _framework density 19.096738999999999
#
# number of rings (size 3 to 8) (size 9 to 14) (size 15 to 20)
#    0.000    2.333    1.667    3.000    0.000    4.000 
#    0.000    9.167    0.000    0.500    0.000    0.000 
#    0.000    0.000    0.000    0.000    0.000    0.000 
#
# Total GULP energy -595163.402856 kJ/mol
# GULP energy per Si atom -12399.237560 kJ/mol
# Density = 1.905327 g / cm^3
# Si number density = 19.096739 Si / 1000 Ang^3
#
#
#
# Elastic Constant Matrix: (Units=GPa)
#
#
# Indices 1 2 3 4 5 6 
#
# 1 165.6346 25.9932 102.3439 0.0000 0.0000 0.0000
# 2 25.9932 28.1558 21.7209 0.0000 0.0000 0.0000
# 3 102.3439 21.7209 162.6655 0.0000 0.0000 0.0000
# 4 0.0000 0.0000 0.0000 7.7656 0.0000 0.0000
# 5 0.0000 0.0000 0.0000 0.0000 38.1719 0.0000
# 6 0.0000 0.0000 0.0000 0.0000 0.0000 2.8722
#
#
#
# Elastic Compliance Matrix: (Units=1/GPa)
#
#
# Indices 1 2 3 4 5 6 
#
# 1 0.010501 -0.005126 -0.005923 0.000000 0.000000 0.000000
# 2 -0.005126 0.042097 -0.002396 0.000000 0.000000 0.000000
# 3 -0.005923 -0.002396 0.010194 0.000000 0.000000 0.000000
# 4 0.000000 0.000000 0.000000 0.128773 0.000000 0.000000
# 5 0.000000 0.000000 0.000000 0.000000 0.026197 0.000000
# 6 0.000000 0.000000 0.000000 0.000000 0.000000 0.348160
#
#
# Mechanical properties :
#
#
# Convention : Reuss Voigt Hill
#
# Bulk Modulus (GPa) = 27.85272 72.95245 50.40258
# Shear Modulus (GPa) = 8.26748 23.52181 15.89464
#
# Velocity S-wave (km/s) = 2.08294 3.51339 2.88813
# Velocity P-wave (km/s) = 4.51681 7.39885 6.12963
#
# Compressibility (1/GPa) = 0.03590313
#
# Stress axis : x y z
#
# Youngs Moduli (GPa) = 95.22624 23.75447 98.09761
#
# Poissons Ratio (x) = 0.12176 0.58100
# Poissons Ratio (y) = 0.48810 0.23508
# Poissons Ratio (z) = 0.56399 0.05693
#
# Static dielectric constant tensor:
#      x y z
#    x 3.827070 0.000000 0.000000 
#    y 0.000000 3.038140 0.000000 
#    z 0.000000 0.000000 3.740260 
# 
# 
# High freq. dielectric constant tensor:
#      x y z
#    x 1.752330 0.000000 0.000000 
#    y 0.000000 1.691330 0.000000 
#    z 0.000000 0.000000 1.755030 
# 
# From -- ./inp_files/35236.got.cif
#   From: 2010.03.12/outbox.cif.g09.slc.cpg/sg74_18_cif.got.tgz:35236.got - 2010.04.16 15:46:19.
