data_PCOD8299437
_publ_section_title
;
Structure prediction by ZEFSAII (Michael W. Deem and Ramdas Pophale) SiO2 
 PCOD8299437
Probable space group: I M M A
;
_chemical_formula_sum "Si O2"
_cell_formula_units_Z 88
_cell_length_a 12.318861
_cell_length_b 16.894390
_cell_length_c 26.516560
_cell_angle_alpha 90.000000
_cell_angle_beta 90.000000
_cell_angle_gamma 90.000000
_cell_volume 5518.616977
_symmetry_space_group_name_H-M "I M M A"
_symmetry_group_IT_number 74
_symmetry_cell_setting 'orthorhombic'
loop_
_space_group_symop_operation_xyz
x,y,z
-x,1/2-y,z
x,-y,-z
-x,1/2+y,-z
-x,-y,-z
x,1/2+y,-z
-x,y,z
x,1/2-y,z
1/2+x,1/2+y,1/2+z
1/2-x,-y,1/2+z
1/2+x,1/2-y,1/2-z
1/2-x,y,1/2-z
1/2-x,1/2-y,1/2-z
1/2+x,y,1/2-z
1/2-x,1/2+y,1/2+z
1/2+x,-y,1/2+z
loop_
_atom_site_type_symbol
_atom_site_label
_atom_site_fract_x
_atom_site_fract_y
_atom_site_fract_z
Si Si1 0.123828 0.987296 0.616589
Si Si2 0.373854 0.750000 0.221596
Si Si3 0.873076 0.160452 0.888783
Si Si4 0.235301 0.925390 0.468570
Si Si5 0.872765 0.839179 0.556887
Si Si6 0.724012 0.098392 0.806950
O O1 0.165246 0.899175 0.601215
O O2 0.000000 0.984586 0.631843
O O3 0.140181 0.045610 0.568966
O O4 0.186050 0.018514 0.665616
O O5 0.500000 0.750000 0.246643
O O6 0.250000 0.750000 0.250000
O O7 0.367834 0.668276 0.190030
O O8 0.833226 0.250000 0.896503
O O9 0.832983 0.109232 0.935887
O O10 0.831518 0.129404 0.834866
O O11 0.000000 0.153249 0.886853
O O12 0.188402 0.857918 0.504878
O O13 0.280903 0.000000 0.500000
O O14 0.844503 0.750000 0.573835
O O15 0.000000 0.850732 0.546671
O O16 0.750000 0.074073 0.750000
#
# Coordination Sequence:
#
# PCOD8299437 Si02
#       6
#    16   8  16  16  16  16
#     4   9  17  29  45  66  93 119 147 188 232 279
#     4  10  20  32  48  70  94 124 160 198 236 286
#     4  10  20  32  45  63  90 122 156 194 233 272
#     4   9  17  29  45  65  91 120 150 185 226 277
#     4   9  16  27  46  70  93 118 147 183 233 288
#     4  10  20  33  47  66  90 122 160 195 235 283
#
# _framework density 15.946024
#
# number of rings (size 3 to 8) (size 9 to 14) (size 15 to 20)
#    0.000    2.545    0.909    1.636    0.000    6.182 
#    0.000    0.000    0.000    0.545    0.000    0.000 
#    0.000    0.000    0.000    0.000    0.000    0.000 
#
# Total GULP energy -545099.397702 kJ/mol
# GULP energy per Si atom -12388.622675 kJ/mol
# Density = 1.590973 g / cm^3
# Si number density = 15.946024 Si / 1000 Ang^3
#
#
#
# Elastic Constant Matrix: (Units=GPa)
#
#
# Indices 1 2 3 4 5 6 
#
# 1 53.9419 37.6492 39.4439 0.0000 0.0000 0.0000
# 2 37.6492 113.7637 63.1628 0.0000 0.0000 0.0000
# 3 39.4439 63.1628 112.7467 0.0000 0.0000 0.0000
# 4 0.0000 0.0000 0.0000 22.1622 0.0000 0.0000
# 5 0.0000 0.0000 0.0000 0.0000 14.6702 0.0000
# 6 0.0000 0.0000 0.0000 0.0000 0.0000 17.7692
#
#
#
# Elastic Compliance Matrix: (Units=1/GPa)
#
#
# Indices 1 2 3 4 5 6 
#
# 1 0.026986 -0.005355 -0.006441 0.000000 0.000000 0.000000
# 2 -0.005355 0.013821 -0.005870 0.000000 0.000000 0.000000
# 3 -0.006441 -0.005870 0.014411 0.000000 0.000000 0.000000
# 4 0.000000 0.000000 0.000000 0.045122 0.000000 0.000000
# 5 0.000000 0.000000 0.000000 0.000000 0.068166 0.000000
# 6 0.000000 0.000000 0.000000 0.000000 0.000000 0.056277
#
#
# Mechanical properties :
#
#
# Convention : Reuss Voigt Hill
#
# Bulk Modulus (GPa) = 50.28313 62.32934 56.30624
# Shear Modulus (GPa) = 18.74474 20.26675 19.50574
#
# Velocity S-wave (km/s) = 3.43229 3.56892 3.50127
# Velocity P-wave (km/s) = 6.87818 7.49370 7.19252
#
# Compressibility (1/GPa) = 0.01988738
#
# Stress axis : x y z
#
# Youngs Moduli (GPa) = 37.05681 72.35353 69.39124
#
# Poissons Ratio (x) = 0.38742 0.44695
# Poissons Ratio (y) = 0.19842 0.40729
# Poissons Ratio (z) = 0.23869 0.42468
#
# Static dielectric constant tensor:
#      x y z
#    x 2.962150 0.000000 0.000000 
#    y 0.000000 3.326570 0.000000 
#    z 0.000000 0.000000 2.971590 
# 
# 
# High freq. dielectric constant tensor:
#      x y z
#    x 1.598920 0.000000 0.000000 
#    y 0.000000 1.611690 0.000000 
#    z 0.000000 0.000000 1.601190 
# 
# From -- ./inp_files/65952.got.cif
#   From: 2010.03.12/outbox.cif.g09.slc.cpg/sg74_33_cif.got.tgz:65952.got - 2010.04.16 15:46:19.
