data_PCOD8299371
_publ_section_title
;
Structure prediction by ZEFSAII (Michael W. Deem and Ramdas Pophale) SiO2 
 PCOD8299371
Probable space group: I M M A
;
_chemical_formula_sum "Si O2"
_cell_formula_units_Z 96
_cell_length_a 31.141934
_cell_length_b 7.886323
_cell_length_c 28.437807
_cell_angle_alpha 90.000000
_cell_angle_beta 90.000000
_cell_angle_gamma 90.000000
_cell_volume 6984.193174
_symmetry_space_group_name_H-M "I M M A"
_symmetry_group_IT_number 74
_symmetry_cell_setting 'orthorhombic'
loop_
_space_group_symop_operation_xyz
x,y,z
-x,1/2-y,z
x,-y,-z
-x,1/2+y,-z
-x,-y,-z
x,1/2+y,-z
-x,y,z
x,1/2-y,z
1/2+x,1/2+y,1/2+z
1/2-x,-y,1/2+z
1/2+x,1/2-y,1/2-z
1/2-x,y,1/2-z
1/2-x,1/2-y,1/2-z
1/2+x,y,1/2-z
1/2-x,1/2+y,1/2+z
1/2+x,-y,1/2+z
loop_
_atom_site_type_symbol
_atom_site_label
_atom_site_fract_x
_atom_site_fract_y
_atom_site_fract_z
Si Si1 0.686844 0.553695 0.861247
Si Si2 0.762782 0.250000 0.674461
Si Si3 0.047432 0.057650 0.585934
Si Si4 0.682108 0.750000 0.268431
Si Si5 0.047604 0.444974 0.311866
Si Si6 0.634670 0.941106 0.948990
Si Si7 0.133530 0.558309 0.733362
O O1 0.703059 0.750000 0.866937
O O2 0.726496 0.424233 0.853438
O O3 0.661676 0.475333 0.906494
O O4 0.654207 0.543657 0.817971
O O5 0.711927 0.250000 0.685308
O O6 0.789039 0.250000 0.722429
O O7 0.049418 0.250000 0.568866
O O8 0.000000 0.979957 0.575207
O O9 0.056461 0.053449 0.641574
O O10 0.083519 0.960510 0.556613
O O11 0.653438 0.578718 0.269183
O O12 0.051849 0.250000 0.327622
O O13 0.082944 0.486243 0.272158
O O14 0.000000 0.484193 0.291312
O O15 0.647678 0.750000 0.944367
O O16 0.650184 0.000000 0.000000
O O17 0.140102 0.750000 0.753299
#
# Coordination Sequence:
#
# PCOD8299371 Si02
#       7
#    16   8  16   8  16  16  16
#     4   9  18  30  44  60  76  99 126 153 198 247
#     4   9  18  30  46  58  80 100 118 152 198 243
#     4  10  20  30  42  58  73  95 128 164 203 246
#     4   9  18  28  41  66  76  98 125 150 194 249
#     4   9  16  26  40  57  77 104 134 161 195 235
#     4  11  22  33  45  59  73  96 127 162 204 247
#     4   9  16  27  42  59  81 102 124 159 193 231
#
# _framework density 13.745324999999999
#
# number of rings (size 3 to 8) (size 9 to 14) (size 15 to 20)
#    0.000    2.500    1.667    1.000    3.500    2.000 
#    0.000    3.333    0.000    0.000    0.000    0.000 
#    0.000    0.000    0.000    0.000    0.000    0.000 
#
# Total GULP energy -594837.564544 kJ/mol
# GULP energy per Si atom -12392.449261 kJ/mol
# Density = 1.371404 g / cm^3
# Si number density = 13.745325 Si / 1000 Ang^3
#
#
#
# Elastic Constant Matrix: (Units=GPa)
#
#
# Indices 1 2 3 4 5 6 
#
# 1 72.2680 37.9204 37.0820 0.0000 0.0000 0.0000
# 2 37.9204 71.5204 24.3394 0.0000 0.0000 0.0000
# 3 37.0820 24.3394 37.4421 0.0000 0.0000 0.0000
# 4 0.0000 0.0000 0.0000 14.9040 0.0000 0.0000
# 5 0.0000 0.0000 0.0000 0.0000 18.6342 0.0000
# 6 0.0000 0.0000 0.0000 0.0000 0.0000 19.8884
#
#
#
# Elastic Compliance Matrix: (Units=1/GPa)
#
#
# Indices 1 2 3 4 5 6 
#
# 1 0.031137 -0.007723 -0.025817 0.000000 0.000000 0.000000
# 2 -0.007723 0.019869 -0.005267 0.000000 0.000000 0.000000
# 3 -0.025817 -0.005267 0.055701 0.000000 0.000000 0.000000
# 4 0.000000 0.000000 0.000000 0.067096 0.000000 0.000000
# 5 0.000000 0.000000 0.000000 0.000000 0.053665 0.000000
# 6 0.000000 0.000000 0.000000 0.000000 0.000000 0.050281
#
#
# Mechanical properties :
#
#
# Convention : Reuss Voigt Hill
#
# Bulk Modulus (GPa) = 34.37364 42.21267 38.29316
# Shear Modulus (GPa) = 13.69631 16.14455 14.92043
#
# Velocity S-wave (km/s) = 3.16006 3.43089 3.29825
# Velocity P-wave (km/s) = 6.19487 6.81703 6.51338
#
# Compressibility (1/GPa) = 0.02909206
#
# Stress axis : x y z
#
# Youngs Moduli (GPa) = 32.11597 50.32863 17.95300
#
# Poissons Ratio (x) = 0.38869 0.46350
# Poissons Ratio (y) = 0.24803 0.09457
# Poissons Ratio (z) = 0.82915 0.26510
#
# Static dielectric constant tensor:
#      x y z
#    x 2.751440 0.000000 0.000000 
#    y 0.000000 2.886330 0.000000 
#    z 0.000000 0.000000 2.257700 
# 
# 
# High freq. dielectric constant tensor:
#      x y z
#    x 1.503210 0.000000 0.000000 
#    y 0.000000 1.539530 0.000000 
#    z 0.000000 0.000000 1.462890 
# 
# From -- ./inp_files/68612.got.cif
#   From: 2010.03.12/outbox.cif.g09.slc.cpg/sg74_35_cif.got.tgz:68612.got - 2010.04.16 15:46:19.
