data_PCOD8299351
_publ_section_title
;
Structure prediction by ZEFSAII (Michael W. Deem and Ramdas Pophale) SiO2 
 PCOD8299351
Probable space group: I M M A
;
_chemical_formula_sum "Si O2"
_cell_formula_units_Z 52
_cell_length_a 13.615484
_cell_length_b 13.914280
_cell_length_c 14.111818
_cell_angle_alpha 90.000000
_cell_angle_beta 90.000000
_cell_angle_gamma 90.000000
_cell_volume 2673.479076
_symmetry_space_group_name_H-M "I M M A"
_symmetry_group_IT_number 74
_symmetry_cell_setting 'orthorhombic'
loop_
_space_group_symop_operation_xyz
x,y,z
-x,1/2-y,z
x,-y,-z
-x,1/2+y,-z
-x,-y,-z
x,1/2+y,-z
-x,y,z
x,1/2-y,z
1/2+x,1/2+y,1/2+z
1/2-x,-y,1/2+z
1/2+x,1/2-y,1/2-z
1/2-x,y,1/2-z
1/2-x,1/2-y,1/2-z
1/2+x,y,1/2-z
1/2-x,1/2+y,1/2+z
1/2+x,-y,1/2+z
loop_
_atom_site_type_symbol
_atom_site_label
_atom_site_fract_x
_atom_site_fract_y
_atom_site_fract_z
Si Si1 0.636362 0.250000 0.376941
Si Si2 0.661956 0.750000 0.976450
Si Si3 0.000000 0.598484 0.558145
Si Si4 0.000000 0.250000 0.951706
Si Si5 0.500000 0.601402 0.718961
Si Si6 0.654096 0.250000 0.808701
Si Si7 0.500000 0.382414 0.719890
O O1 0.753549 0.250000 0.394567
O O2 0.595638 0.250000 0.482986
O O3 0.597602 0.343527 0.319087
O O4 0.695774 0.750000 0.084946
O O5 0.598276 0.845341 0.966724
O O6 0.000000 0.500000 0.500000
O O7 0.000000 0.588394 0.669642
O O8 0.000000 0.341755 0.885444
O O9 0.500000 0.492079 0.687283
O O10 0.750000 0.250000 0.750000
O O11 0.592901 0.346461 0.782194
#
# Coordination Sequence:
#
# PCOD8299351 Si02
#       7
#     8   8   8   4   8   8   8
#     4  10  22  39  61  90 125 165 197 249 304 373
#     4  11  21  40  62  85 125 160 203 251 306 360
#     4  11  23  41  63  87 119 159 207 251 301 366
#     4   8  18  38  58  88 122 154 198 242 310 358
#     4  10  22  41  60  89 121 158 206 247 309 363
#     4  10  20  37  62  91 121 156 203 255 310 359
#     4  10  19  38  64  85 123 163 201 263 306 350
#
# _framework density 19.450312
#
# number of rings (size 3 to 8) (size 9 to 14) (size 15 to 20)
#    0.000    2.154    0.000    7.385    0.000    4.923 
#   16.615    0.000    0.000    0.000    0.000    0.000 
#    0.000    0.000    0.000    0.000    0.000    0.000 
#
# Total GULP energy -322107.960524 kJ/mol
# GULP energy per Si atom -12388.767712 kJ/mol
# Density = 1.940604 g / cm^3
# Si number density = 19.450312 Si / 1000 Ang^3
#
#
#
# Elastic Constant Matrix: (Units=GPa)
#
#
# Indices 1 2 3 4 5 6 
#
# 1 143.7712 58.0439 42.4052 0.0000 0.0000 0.0000
# 2 58.0439 186.9531 57.4269 0.0000 0.0000 0.0000
# 3 42.4052 57.4269 151.5468 0.0000 0.0000 0.0000
# 4 0.0000 0.0000 0.0000 32.2036 0.0000 0.0000
# 5 0.0000 0.0000 0.0000 0.0000 37.1061 0.0000
# 6 0.0000 0.0000 0.0000 0.0000 0.0000 1.0072
#
#
#
# Elastic Compliance Matrix: (Units=1/GPa)
#
#
# Indices 1 2 3 4 5 6 
#
# 1 0.008248 -0.002096 -0.001514 0.000000 0.000000 0.000000
# 2 -0.002096 0.006586 -0.001909 0.000000 0.000000 0.000000
# 3 -0.001514 -0.001909 0.007746 0.000000 0.000000 0.000000
# 4 0.000000 0.000000 0.000000 0.031052 0.000000 0.000000
# 5 0.000000 0.000000 0.000000 0.000000 0.026950 0.000000
# 6 0.000000 0.000000 0.000000 0.000000 0.000000 0.992883
#
#
# Mechanical properties :
#
#
# Convention : Reuss Voigt Hill
#
# Bulk Modulus (GPa) = 86.63882 88.66924 87.65403
# Shear Modulus (GPa) = 4.59411 35.68969 20.14190
#
# Velocity S-wave (km/s) = 1.53854 4.28824 3.22150
# Velocity P-wave (km/s) = 6.91350 8.37885 7.68120
#
# Compressibility (1/GPa) = 0.01154217
#
# Stress axis : x y z
#
# Youngs Moduli (GPa) = 121.23975 151.83457 129.10390
#
# Poissons Ratio (x) = 0.31822 0.19543
# Poissons Ratio (y) = 0.25410 0.24650
# Poissons Ratio (z) = 0.18353 0.28990
#
# Static dielectric constant tensor:
#      x y z
#    x 3.305040 0.000000 0.000000 
#    y 0.000000 2.386050 0.000000 
#    z 0.000000 0.000000 4.006450 
# 
# 
# High freq. dielectric constant tensor:
#      x y z
#    x 1.749020 0.000000 0.000000 
#    y 0.000000 1.750610 0.000000 
#    z 0.000000 0.000000 1.785240 
# 
# From -- ./inp_files/31679.got.cif
#   From: 2010.03.12/outbox.cif.g09.slc.cpg/sg74_16_cif.got.tgz:31679.got - 2010.04.16 15:46:19.
