data_PCOD8299480
_publ_section_title
;
Structure prediction by ZEFSAII (Michael W. Deem and Ramdas Pophale) SiO2 
 PCOD8299480
Probable space group: I M M A
;
_chemical_formula_sum "Si O2"
_cell_formula_units_Z 96
_cell_length_a 17.166559
_cell_length_b 24.245000
_cell_length_c 13.250578
_cell_angle_alpha 90.000000
_cell_angle_beta 90.000000
_cell_angle_gamma 90.000000
_cell_volume 5514.933270
_symmetry_space_group_name_H-M "I M M A"
_symmetry_group_IT_number 74
_symmetry_cell_setting 'orthorhombic'
loop_
_space_group_symop_operation_xyz
x,y,z
-x,1/2-y,z
x,-y,-z
-x,1/2+y,-z
-x,-y,-z
x,1/2+y,-z
-x,y,z
x,1/2-y,z
1/2+x,1/2+y,1/2+z
1/2-x,-y,1/2+z
1/2+x,1/2-y,1/2-z
1/2-x,y,1/2-z
1/2-x,1/2-y,1/2-z
1/2+x,y,1/2-z
1/2-x,1/2+y,1/2+z
1/2+x,-y,1/2+z
loop_
_atom_site_type_symbol
_atom_site_label
_atom_site_fract_x
_atom_site_fract_y
_atom_site_fract_z
Si Si1 0.197223 0.607688 0.657244
Si Si2 0.592712 0.311345 0.814521
Si Si3 0.330013 0.438887 0.469015
Si Si4 0.589297 0.029212 0.272080
Si Si5 0.088151 0.185641 0.459156
Si Si6 0.908922 0.906464 0.167818
O O1 0.250000 0.628650 0.750000
O O2 0.251721 0.591446 0.564333
O O3 0.145991 0.554511 0.688016
O O4 0.141296 0.656746 0.624001
O O5 0.500000 0.311227 0.813585
O O6 0.623128 0.250000 0.784246
O O7 0.625137 0.356871 0.736525
O O8 0.619851 0.326562 0.927880
O O9 0.305747 0.500000 0.500000
O O10 0.393919 0.442359 0.379961
O O11 0.365970 0.404205 0.560726
O O12 0.500000 0.040712 0.242967
O O13 0.606938 0.964040 0.275517
O O14 0.091030 0.250000 0.436214
O O15 0.000000 0.163460 0.447647
O O16 0.000000 0.898766 0.146920
#
# Coordination Sequence:
#
# PCOD8299480 Si02
#       6
#    16  16  16  16  16  16
#     4  10  20  32  47  70  98 125 155 196 243 284
#     4   8  15  29  49  72  95 119 153 196 236 276
#     4   9  18  31  46  68 100 132 155 184 238 296
#     4   9  17  30  49  72  95 123 164 204 233 275
#     4   9  18  34  54  71  90 123 163 198 236 283
#     4   9  16  29  51  74  95 125 163 198 235 281
#
# _framework density 17.407281999999999
#
# number of rings (size 3 to 8) (size 9 to 14) (size 15 to 20)
#    0.000    3.000    0.000    2.000    0.000    3.667 
#    0.000    3.333    0.000    8.000    0.000    9.333 
#    0.000    0.000    0.000    0.000    0.000    0.000 
#
# Total GULP energy -595117.503567 kJ/mol
# GULP energy per Si atom -12398.281324 kJ/mol
# Density = 1.736766 g / cm^3
# Si number density = 17.407282 Si / 1000 Ang^3
#
#
#
# Elastic Constant Matrix: (Units=GPa)
#
#
# Indices 1 2 3 4 5 6 
#
# 1 81.5057 48.4859 53.6761 0.0000 0.0000 0.0000
# 2 48.4859 92.6560 66.5028 0.0000 0.0000 0.0000
# 3 53.6761 66.5028 101.9573 -0.0001 -0.0001 -0.0001
# 4 0.0000 0.0000 -0.0001 31.7282 0.0000 0.0000
# 5 0.0000 0.0000 -0.0001 0.0000 29.5330 0.0000
# 6 0.0000 0.0000 -0.0001 0.0000 0.0000 17.4155
#
#
#
# Elastic Compliance Matrix: (Units=1/GPa)
#
#
# Indices 1 2 3 4 5 6 
#
# 1 0.020176 -0.005517 -0.007023 0.000000 0.000000 0.000000
# 2 -0.005517 0.021801 -0.011316 0.000000 0.000000 0.000000
# 3 -0.007023 -0.011316 0.020886 0.000000 0.000000 0.000000
# 4 0.000000 0.000000 0.000000 0.031518 0.000000 0.000000
# 5 0.000000 0.000000 0.000000 0.000000 0.033860 0.000000
# 6 0.000000 0.000000 0.000000 0.000000 0.000000 0.057420
#
#
# Mechanical properties :
#
#
# Convention : Reuss Voigt Hill
#
# Bulk Modulus (GPa) = 65.99918 68.16097 67.08008
# Shear Modulus (GPa) = 20.97095 22.89896 21.93495
#
# Velocity S-wave (km/s) = 3.47468 3.63089 3.55364
# Velocity P-wave (km/s) = 7.35492 7.53787 7.44695
#
# Compressibility (1/GPa) = 0.01515170
#
# Stress axis : x y z
#
# Youngs Moduli (GPa) = 49.56290 45.86866 47.87831
#
# Poissons Ratio (x) = 0.25306 0.33627
# Poissons Ratio (y) = 0.27345 0.54177
# Poissons Ratio (z) = 0.34810 0.51903
#
# Static dielectric constant tensor:
#      x y z
#    x 3.106600 0.000000 0.000000 
#    y 0.000000 3.195370 0.000000 
#    z 0.000000 0.000000 3.271710 
# 
# 
# High freq. dielectric constant tensor:
#      x y z
#    x 1.662630 0.000000 0.000000 
#    y 0.000000 1.660930 0.000000 
#    z 0.000000 0.000000 1.669800 
# 
# From -- ./inp_files/22419.got.cif
#   From: 2010.03.12/outbox.cif.g09.slc.cpg/sg74_12_cif.got.tgz:22419.got - 2010.04.16 15:46:19.
