data_PCOD8299234
_publ_section_title
;
Structure prediction by ZEFSAII (Michael W. Deem and Ramdas Pophale) SiO2 
 PCOD8299234
Probable space group: I M M A
;
_chemical_formula_sum "Si O2"
_cell_formula_units_Z 80
_cell_length_a 17.532550
_cell_length_b 16.918157
_cell_length_c 13.594224
_cell_angle_alpha 90.000000
_cell_angle_beta 90.000000
_cell_angle_gamma 90.000000
_cell_volume 4032.297428
_symmetry_space_group_name_H-M "I M M A"
_symmetry_group_IT_number 74
_symmetry_cell_setting 'orthorhombic'
loop_
_space_group_symop_operation_xyz
x,y,z
-x,1/2-y,z
x,-y,-z
-x,1/2+y,-z
-x,-y,-z
x,1/2+y,-z
-x,y,z
x,1/2-y,z
1/2+x,1/2+y,1/2+z
1/2-x,-y,1/2+z
1/2+x,1/2-y,1/2-z
1/2-x,y,1/2-z
1/2-x,1/2-y,1/2-z
1/2+x,y,1/2-z
1/2-x,1/2+y,1/2+z
1/2+x,-y,1/2+z
loop_
_atom_site_type_symbol
_atom_site_label
_atom_site_fract_x
_atom_site_fract_y
_atom_site_fract_z
Si Si1 0.314147 0.088709 0.471892
Si Si2 0.914137 0.337535 0.521464
Si Si3 0.288658 0.611111 0.149166
Si Si4 0.831850 0.930140 0.643507
Si Si5 0.911440 0.158418 0.181442
O O1 0.278092 0.125583 0.569659
O O2 0.253017 0.097874 0.383353
O O3 0.387696 0.135526 0.430713
O O4 0.337739 0.000000 0.500000
O O5 0.910292 0.250000 0.472099
O O6 0.860833 0.335578 0.618575
O O7 0.887898 0.404656 0.444828
O O8 0.000000 0.357300 0.554470
O O9 0.250000 0.638207 0.250000
O O10 0.325266 0.524021 0.153843
O O11 0.861795 0.893812 0.744311
O O12 0.894974 0.250000 0.201149
O O13 0.000000 0.138392 0.196030
#
# Coordination Sequence:
#
# PCOD8299234 Si02
#       5
#    16  16  16  16  16
#     4   9  19  36  56  78 107 145 187 226 266 320
#     4  10  21  36  55  83 115 144 180 227 276 326
#     4  10  21  38  58  80 107 144 192 235 269 317
#     4  10  19  35  60  84 110 141 177 227 284 335
#     4  11  23  36  54  86 121 147 176 218 274 340
#
# _framework density 19.839804999999998
#
# number of rings (size 3 to 8) (size 9 to 14) (size 15 to 20)
#    0.000    2.000    0.000    6.000    0.000    9.600 
#    0.000    1.000    0.000    2.400    0.000    0.000 
#    0.000    0.000    0.000    0.000    0.000    0.000 
#
# Total GULP energy -495718.421898 kJ/mol
# GULP energy per Si atom -12392.960547 kJ/mol
# Density = 1.979465 g / cm^3
# Si number density = 19.839805 Si / 1000 Ang^3
#
#
#
# Elastic Constant Matrix: (Units=GPa)
#
#
# Indices 1 2 3 4 5 6 
#
# 1 66.9553 25.2186 58.5365 0.0000 0.0000 0.0000
# 2 25.2186 44.7637 32.6367 0.0000 0.0000 0.0000
# 3 58.5365 32.6367 111.1813 0.0000 0.0000 0.0000
# 4 0.0000 0.0000 0.0000 21.5867 0.0000 0.0000
# 5 0.0000 0.0000 0.0000 0.0000 15.7920 0.0000
# 6 0.0000 0.0000 0.0000 0.0000 0.0000 26.1812
#
#
#
# Elastic Compliance Matrix: (Units=1/GPa)
#
#
# Indices 1 2 3 4 5 6 
#
# 1 0.029154 -0.006658 -0.013395 0.000000 0.000000 0.000000
# 2 -0.006658 0.029943 -0.005284 0.000000 0.000000 0.000000
# 3 -0.013395 -0.005284 0.017598 0.000000 0.000000 0.000000
# 4 0.000000 0.000000 0.000000 0.046325 0.000000 0.000000
# 5 0.000000 0.000000 0.000000 0.000000 0.063323 0.000000
# 6 0.000000 0.000000 0.000000 0.000000 0.000000 0.038195
#
#
# Mechanical properties :
#
#
# Convention : Reuss Voigt Hill
#
# Bulk Modulus (GPa) = 38.43166 50.63156 44.53161
# Shear Modulus (GPa) = 17.61268 19.81254 18.71261
#
# Velocity S-wave (km/s) = 2.98274 3.16353 3.07446
# Velocity P-wave (km/s) = 5.59244 6.23855 5.92431
#
# Compressibility (1/GPa) = 0.02602021
#
# Stress axis : x y z
#
# Youngs Moduli (GPa) = 34.30080 33.39647 56.82545
#
# Poissons Ratio (x) = 0.22237 0.76117
# Poissons Ratio (y) = 0.22839 0.30027
# Poissons Ratio (z) = 0.45945 0.17647
#
# Static dielectric constant tensor:
#      x y z
#    x 3.641100 0.000000 0.000000 
#    y 0.000000 3.543440 0.000000 
#    z 0.000000 0.000000 3.628740 
# 
# 
# High freq. dielectric constant tensor:
#      x y z
#    x 1.771360 0.000000 0.000000 
#    y 0.000000 1.765910 0.000000 
#    z 0.000000 0.000000 1.766430 
# 
# From -- ./inp_files/33978.got.cif
#   From: 2010.03.12/outbox.cif.g09.slc.cpg/sg74_17_cif.got.tgz:33978.got - 2010.04.16 15:46:19.
