data_PCOD8299361
_publ_section_title
;
Structure prediction by ZEFSAII (Michael W. Deem and Ramdas Pophale) SiO2 
 PCOD8299361
Probable space group: I M M A
;
_chemical_formula_sum "Si O2"
_cell_formula_units_Z 128
_cell_length_a 24.813850
_cell_length_b 19.377385
_cell_length_c 17.256559
_cell_angle_alpha 90.000000
_cell_angle_beta 90.000000
_cell_angle_gamma 90.000000
_cell_volume 8297.428550
_symmetry_space_group_name_H-M "I M M A"
_symmetry_group_IT_number 74
_symmetry_cell_setting 'orthorhombic'
loop_
_space_group_symop_operation_xyz
x,y,z
-x,1/2-y,z
x,-y,-z
-x,1/2+y,-z
-x,-y,-z
x,1/2+y,-z
-x,y,z
x,1/2-y,z
1/2+x,1/2+y,1/2+z
1/2-x,-y,1/2+z
1/2+x,1/2-y,1/2-z
1/2-x,y,1/2-z
1/2-x,1/2-y,1/2-z
1/2+x,y,1/2-z
1/2-x,1/2+y,1/2+z
1/2+x,-y,1/2+z
loop_
_atom_site_type_symbol
_atom_site_label
_atom_site_fract_x
_atom_site_fract_y
_atom_site_fract_z
Si Si1 0.381165 0.921274 0.004770
Si Si2 0.060782 0.671867 0.613145
Si Si3 0.768538 0.325045 0.923010
Si Si4 0.298353 0.052247 0.307875
Si Si5 0.649871 0.328800 0.856164
Si Si6 0.309573 0.096490 0.713896
Si Si7 0.271902 0.886755 0.925978
Si Si8 0.661403 0.672124 0.786694
O O1 0.381320 0.884316 0.089256
O O2 0.423904 0.877869 0.956501
O O3 0.321514 0.923939 0.968042
O O4 0.401983 0.000000 0.000000
O O5 0.067081 0.750000 0.582106
O O6 0.100552 0.660063 0.684948
O O7 0.000000 0.656637 0.641058
O O8 0.795076 0.250000 0.918775
O O9 0.710077 0.323831 0.885505
O O10 0.807922 0.373362 0.873120
O O11 0.762946 0.343698 0.013057
O O12 0.250000 0.045897 0.250000
O O13 0.271189 0.058029 0.392810
O O14 0.332486 0.120112 0.285531
O O15 0.332306 0.981586 0.297772
O O16 0.625173 0.250000 0.857019
O O17 0.650014 0.359788 0.768757
O O18 0.250000 0.096817 0.750000
O O19 0.295511 0.840047 0.856038
O O20 0.670089 0.750000 0.756608
#
# Coordination Sequence:
#
# PCOD8299361 Si02
#       8
#    16  16  16  16  16  16  16  16
#     4  10  20  27  45  63  86 111 145 181 216 256
#     4   9  18  33  49  63  83 110 141 182 230 272
#     4   9  16  25  37  54  75 106 146 180 209 243
#     4   9  18  26  38  57  82 111 145 175 211 254
#     4   9  17  28  40  55  77 106 142 178 210 245
#     4   9  17  25  38  52  75 105 142 179 211 245
#     4   9  18  26  39  57  84 115 148 177 213 248
#     4   9  17  29  43  60  81 109 145 178 216 265
#
# _framework density 15.426466
#
# number of rings (size 3 to 8) (size 9 to 14) (size 15 to 20)
#    0.000    2.875    0.000    1.125   10.500    7.500 
#    0.000    0.000    0.000    0.000    0.000    0.000 
#    0.000    0.000    0.000    3.375    0.000   15.875 
#
# Total GULP energy -792908.044857 kJ/mol
# GULP energy per Si atom -12389.188201 kJ/mol
# Density = 1.539135 g / cm^3
# Si number density = 15.426466 Si / 1000 Ang^3
#
#
#
# Elastic Constant Matrix: (Units=GPa)
#
#
# Indices 1 2 3 4 5 6 
#
# 1 36.7949 26.2761 22.9636 0.0000 0.0000 0.0000
# 2 26.2761 119.3779 34.8719 0.0000 0.0000 0.0000
# 3 22.9636 34.8719 64.1310 0.0000 0.0000 0.0000
# 4 0.0000 0.0000 0.0000 40.9380 0.0000 0.0000
# 5 0.0000 0.0000 0.0000 0.0000 9.0579 0.0000
# 6 0.0000 0.0000 0.0000 0.0000 0.0000 11.9392
#
#
#
# Elastic Compliance Matrix: (Units=1/GPa)
#
#
# Indices 1 2 3 4 5 6 
#
# 1 0.037483 -0.005147 -0.010623 0.000000 0.000000 0.000000
# 2 -0.005147 0.010665 -0.003956 0.000000 0.000000 0.000000
# 3 -0.010623 -0.003956 0.021548 0.000000 0.000000 0.000000
# 4 0.000000 0.000000 0.000000 0.024427 0.000000 0.000000
# 5 0.000000 0.000000 0.000000 0.000000 0.110401 0.000000
# 6 0.000000 0.000000 0.000000 0.000000 0.000000 0.083758
#
#
# Mechanical properties :
#
#
# Convention : Reuss Voigt Hill
#
# Bulk Modulus (GPa) = 33.06462 43.16966 38.11714
# Shear Modulus (GPa) = 14.80093 21.46650 18.13372
#
# Velocity S-wave (km/s) = 3.10086 3.73438 3.43227
# Velocity P-wave (km/s) = 5.85668 6.82928 6.36159
#
# Compressibility (1/GPa) = 0.03024380
#
# Stress axis : x y z
#
# Youngs Moduli (GPa) = 26.67865 93.76102 46.40773
#
# Poissons Ratio (x) = 0.48261 0.49298
# Poissons Ratio (y) = 0.13732 0.18360
# Poissons Ratio (z) = 0.28340 0.37095
#
# Static dielectric constant tensor:
#      x y z
#    x 2.443170 0.000000 0.000000 
#    y 0.000000 3.402780 0.000000 
#    z 0.000000 0.000000 3.960310 
# 
# 
# High freq. dielectric constant tensor:
#      x y z
#    x 1.519200 0.000000 0.000000 
#    y 0.000000 1.610830 0.000000 
#    z 0.000000 0.000000 1.580020 
# 
# From -- ./inp_files/46325.got.cif
#   From: 2010.03.12/outbox.cif.g09.slc.cpg/sg74_24_cif.got.tgz:46325.got - 2010.04.16 15:46:19.
