data_PCOD8299552
_publ_section_title
;
Structure prediction by ZEFSAII (Michael W. Deem and Ramdas Pophale) SiO2 
 PCOD8299552
Probable space group: I M M A
;
_chemical_formula_sum "Si O2"
_cell_formula_units_Z 72
_cell_length_a 14.819366
_cell_length_b 9.435483
_cell_length_c 29.134637
_cell_angle_alpha 90.000000
_cell_angle_beta 90.000000
_cell_angle_gamma 90.000000
_cell_volume 4073.834409
_symmetry_space_group_name_H-M "I M M A"
_symmetry_group_IT_number 74
_symmetry_cell_setting 'orthorhombic'
loop_
_space_group_symop_operation_xyz
x,y,z
-x,1/2-y,z
x,-y,-z
-x,1/2+y,-z
-x,-y,-z
x,1/2+y,-z
-x,y,z
x,1/2-y,z
1/2+x,1/2+y,1/2+z
1/2-x,-y,1/2+z
1/2+x,1/2-y,1/2-z
1/2-x,y,1/2-z
1/2-x,1/2-y,1/2-z
1/2+x,y,1/2-z
1/2-x,1/2+y,1/2+z
1/2+x,-y,1/2+z
loop_
_atom_site_type_symbol
_atom_site_label
_atom_site_fract_x
_atom_site_fract_y
_atom_site_fract_z
Si Si1 0.267051 0.914417 0.641677
Si Si2 0.500000 0.590063 0.955629
Si Si3 0.695641 0.913546 0.953591
Si Si4 0.894684 0.913598 0.204575
Si Si5 0.897324 0.587346 0.705935
O O1 0.293186 0.750000 0.648660
O O2 0.263398 0.953580 0.587548
O O3 0.169600 0.945436 0.664220
O O4 0.343308 0.013583 0.662658
O O5 0.500000 0.750000 0.972473
O O6 0.404511 0.558124 0.930847
O O7 0.500000 0.500000 0.000000
O O8 0.706564 0.750000 0.967272
O O9 0.715871 0.000000 0.000000
O O10 0.866324 0.750000 0.208223
O O11 0.000000 0.931596 0.194608
O O12 0.867331 0.989545 0.251790
O O13 0.889327 0.750000 0.722216
O O14 0.000000 0.553534 0.689997
#
# Coordination Sequence:
#
# PCOD8299552 Si02
#       5
#    16   8  16  16  16
#     4  10  20  32  51  77 101 130 169 207 244 290
#     4   8  14  26  44  64  92 128 160 190 228 276
#     4   9  18  31  48  71 100 132 165 201 241 286
#     4  10  21  36  52  71  98 131 166 207 255 300
#     4   9  18  32  51  75 104 135 165 199 240 291
#
# _framework density 17.673767000000002
#
# number of rings (size 3 to 8) (size 9 to 14) (size 15 to 20)
#    0.000    2.667    0.000    1.333    1.556    5.778 
#    0.000    0.000    0.000    0.667    0.000    0.000 
#    0.000    0.000    0.000    0.000    0.000    0.000 
#
# Total GULP energy -446111.684794 kJ/mol
# GULP energy per Si atom -12391.991244 kJ/mol
# Density = 1.763354 g / cm^3
# Si number density = 17.673767 Si / 1000 Ang^3
#
#
#
# Elastic Constant Matrix: (Units=GPa)
#
#
# Indices 1 2 3 4 5 6 
#
# 1 46.8349 37.7176 41.5562 0.0000 0.0000 0.0000
# 2 37.7176 86.0690 59.7000 0.0000 0.0000 0.0000
# 3 41.5562 59.7000 112.7505 0.0000 0.0000 0.0000
# 4 0.0000 0.0000 0.0000 23.7240 0.0000 0.0000
# 5 0.0000 0.0000 0.0000 0.0000 24.0013 0.0000
# 6 0.0000 0.0000 0.0000 0.0000 0.0000 26.0323
#
#
#
# Elastic Compliance Matrix: (Units=1/GPa)
#
#
# Indices 1 2 3 4 5 6 
#
# 1 0.037059 -0.010693 -0.007997 0.000000 0.000000 0.000000
# 2 -0.010693 0.021448 -0.007415 0.000000 0.000000 0.000000
# 3 -0.007997 -0.007415 0.015743 0.000000 0.000000 0.000000
# 4 0.000000 0.000000 0.000000 0.042151 0.000000 0.000000
# 5 0.000000 0.000000 0.000000 0.000000 0.041664 0.000000
# 6 0.000000 0.000000 0.000000 0.000000 0.000000 0.038414
#
#
# Mechanical properties :
#
#
# Convention : Reuss Voigt Hill
#
# Bulk Modulus (GPa) = 45.37412 58.17799 51.77605
# Shear Modulus (GPa) = 19.52849 21.86356 20.69602
#
# Velocity S-wave (km/s) = 3.32767 3.52101 3.42570
# Velocity P-wave (km/s) = 6.36344 7.03698 6.70867
#
# Compressibility (1/GPa) = 0.02203900
#
# Stress axis : x y z
#
# Youngs Moduli (GPa) = 26.98422 46.62400 63.52123
#
# Poissons Ratio (x) = 0.49857 0.50796
# Poissons Ratio (y) = 0.28855 0.47103
# Poissons Ratio (z) = 0.21578 0.34573
#
# Static dielectric constant tensor:
#      x y z
#    x 3.127580 0.000000 0.000000 
#    y 0.000000 3.319390 0.000000 
#    z 0.000000 0.000000 3.048140 
# 
# 
# High freq. dielectric constant tensor:
#      x y z
#    x 1.673860 0.000000 0.000000 
#    y 0.000000 1.682290 0.000000 
#    z 0.000000 0.000000 1.669270 
# 
# From -- ./inp_files/56659.got.cif
#   From: 2010.03.12/outbox.cif.g09.slc.cpg/sg74_29_cif.got.tgz:56659.got - 2010.04.16 15:46:19.
