data_PCOD8299587
_publ_section_title
;
Structure prediction by ZEFSAII (Michael W. Deem and Ramdas Pophale) SiO2 
 PCOD8299587
Probable space group: I M M A
;
_chemical_formula_sum "Si O2"
_cell_formula_units_Z 88
_cell_length_a 19.653929
_cell_length_b 8.609911
_cell_length_c 30.497502
_cell_angle_alpha 90.000000
_cell_angle_beta 90.000000
_cell_angle_gamma 90.000000
_cell_volume 5160.743966
_symmetry_space_group_name_H-M "I M M A"
_symmetry_group_IT_number 74
_symmetry_cell_setting 'orthorhombic'
loop_
_space_group_symop_operation_xyz
x,y,z
-x,1/2-y,z
x,-y,-z
-x,1/2+y,-z
-x,-y,-z
x,1/2+y,-z
-x,y,z
x,1/2-y,z
1/2+x,1/2+y,1/2+z
1/2-x,-y,1/2+z
1/2+x,1/2-y,1/2-z
1/2-x,y,1/2-z
1/2-x,1/2-y,1/2-z
1/2+x,y,1/2-z
1/2-x,1/2+y,1/2+z
1/2+x,-y,1/2+z
loop_
_atom_site_type_symbol
_atom_site_label
_atom_site_fract_x
_atom_site_fract_y
_atom_site_fract_z
Si Si1 0.148968 0.566009 0.951456
Si Si2 0.694565 0.431905 0.631723
Si Si3 0.925009 0.574789 0.818340
Si Si4 0.286183 0.930934 0.795545
Si Si5 0.500000 0.931280 0.547234
Si Si6 0.075994 0.070474 0.726467
O O1 0.160224 0.750000 0.952399
O O2 0.204469 0.486675 0.918766
O O3 0.073126 0.519926 0.932055
O O4 0.161017 0.500000 0.000000
O O5 0.682218 0.250000 0.634416
O O6 0.628425 0.527011 0.645762
O O7 0.756906 0.476504 0.663056
O O8 0.909441 0.750000 0.801461
O O9 0.920063 0.456491 0.778242
O O10 0.000000 0.568075 0.840096
O O11 0.272950 0.750000 0.802630
O O12 0.250000 0.985958 0.750000
O O13 0.366651 0.965877 0.796320
O O14 0.500000 0.750000 0.542007
O O15 0.500000 0.000000 0.500000
O O16 0.091364 0.250000 0.716842
O O17 0.000000 0.024723 0.709402
#
# Coordination Sequence:
#
# PCOD8299587 Si02
#       6
#    16  16  16  16   8  16
#     4  10  20  36  53  72  98 130 170 214 261 309
#     4  12  24  35  51  74 100 134 173 216 264 309
#     4  10  20  33  48  68  97 133 174 216 256 302
#     4  11  22  36  54  75 102 138 175 213 257 304
#     4   8  16  30  50  70  92 126 164 210 258 300
#     4  10  20  34  53  76 102 133 169 211 257 305
#
# _framework density 17.051805000000002
#
# number of rings (size 3 to 8) (size 9 to 14) (size 15 to 20)
#    0.000    1.636    1.818    3.818    1.273    3.636 
#    0.000    0.000    0.000    0.000    0.000    0.000 
#    0.000    0.727    0.000    2.727    0.000    4.182 
#
# Total GULP energy -545286.836250 kJ/mol
# GULP energy per Si atom -12392.882642 kJ/mol
# Density = 1.701299 g / cm^3
# Si number density = 17.051805 Si / 1000 Ang^3
#
#
#
# Elastic Constant Matrix: (Units=GPa)
#
#
# Indices 1 2 3 4 5 6 
#
# 1 87.9682 25.4402 37.9520 0.0000 0.0000 0.0000
# 2 25.4402 52.5943 16.0572 0.0000 0.0000 0.0000
# 3 37.9520 16.0572 70.7759 0.0000 0.0000 0.0000
# 4 0.0000 0.0000 0.0000 25.5254 0.0000 0.0000
# 5 0.0000 0.0000 0.0000 0.0000 22.4852 0.0000
# 6 0.0000 0.0000 0.0000 0.0000 0.0000 25.1158
#
#
#
# Elastic Compliance Matrix: (Units=1/GPa)
#
#
# Indices 1 2 3 4 5 6 
#
# 1 0.016173 -0.005560 -0.007411 0.000000 0.000000 0.000000
# 2 -0.005560 0.022340 -0.002087 0.000000 0.000000 0.000000
# 3 -0.007411 -0.002087 0.018576 0.000000 0.000000 0.000000
# 4 0.000000 0.000000 0.000000 0.039177 0.000000 0.000000
# 5 0.000000 0.000000 0.000000 0.000000 0.044474 0.000000
# 6 0.000000 0.000000 0.000000 0.000000 0.000000 0.039816
#
#
# Mechanical properties :
#
#
# Convention : Reuss Voigt Hill
#
# Bulk Modulus (GPa) = 37.07344 41.13747 39.10545
# Shear Modulus (GPa) = 22.76214 23.41789 23.09001
#
# Velocity S-wave (km/s) = 3.65757 3.70988 3.68382
# Velocity P-wave (km/s) = 6.29491 6.52137 6.40914
#
# Compressibility (1/GPa) = 0.02697349
#
# Stress axis : x y z
#
# Youngs Moduli (GPa) = 61.83108 44.76241 53.83154
#
# Poissons Ratio (x) = 0.24890 0.39894
# Poissons Ratio (y) = 0.34381 0.11233
# Poissons Ratio (z) = 0.45823 0.09341
#
# Static dielectric constant tensor:
#      x y z
#    x 3.268680 0.000000 0.000000 
#    y 0.000000 3.101240 0.000000 
#    z 0.000000 0.000000 3.032260 
# 
# 
# High freq. dielectric constant tensor:
#      x y z
#    x 1.637210 0.000000 0.000000 
#    y 0.000000 1.672320 0.000000 
#    z 0.000000 0.000000 1.631700 
# 
# From -- ./inp_files/70249.got.cif
#   From: 2010.03.12/outbox.cif.g09.slc.cpg/sg74_36_cif.got.tgz:70249.got - 2010.04.16 15:46:19.
