data_PCOD8299407
_publ_section_title
;
Structure prediction by ZEFSAII (Michael W. Deem and Ramdas Pophale) SiO2 
 PCOD8299407
Probable space group: I M M A
;
_chemical_formula_sum "Si O2"
_cell_formula_units_Z 96
_cell_length_a 19.160750
_cell_length_b 24.613421
_cell_length_c 11.716316
_cell_angle_alpha 90.000000
_cell_angle_beta 90.000000
_cell_angle_gamma 90.000000
_cell_volume 5525.550610
_symmetry_space_group_name_H-M "I M M A"
_symmetry_group_IT_number 74
_symmetry_cell_setting 'orthorhombic'
loop_
_space_group_symop_operation_xyz
x,y,z
-x,1/2-y,z
x,-y,-z
-x,1/2+y,-z
-x,-y,-z
x,1/2+y,-z
-x,y,z
x,1/2-y,z
1/2+x,1/2+y,1/2+z
1/2-x,-y,1/2+z
1/2+x,1/2-y,1/2-z
1/2-x,y,1/2-z
1/2-x,1/2-y,1/2-z
1/2+x,y,1/2-z
1/2-x,1/2+y,1/2+z
1/2+x,-y,1/2+z
loop_
_atom_site_type_symbol
_atom_site_label
_atom_site_fract_x
_atom_site_fract_y
_atom_site_fract_z
Si Si1 0.335089 0.563566 0.989600
Si Si2 0.680915 0.597082 0.498542
Si Si3 0.680111 0.187468 0.685172
Si Si4 0.922601 0.126518 0.671139
Si Si5 0.078078 0.033238 0.855169
Si Si6 0.827446 0.440211 0.237498
O O1 0.346328 0.585246 0.860106
O O2 0.355140 0.500000 0.000000
O O3 0.255942 0.571642 0.032633
O O4 0.385717 0.601519 0.061315
O O5 0.670663 0.653502 0.431815
O O6 0.621911 0.552647 0.465473
O O7 0.673660 0.605143 0.636029
O O8 0.681673 0.250000 0.648211
O O9 0.750000 0.169315 0.750000
O O10 0.618258 0.177827 0.776032
O O11 0.925829 0.082492 0.769129
O O12 0.000000 0.145679 0.635620
O O13 0.000000 0.015642 0.892689
O O14 0.116252 0.985485 0.789379
O O15 0.750000 0.466909 0.250000
#
# Coordination Sequence:
#
# PCOD8299407 Si02
#       6
#    16  16  16  16  16  16
#     4  11  19  32  52  74 111 154 184 212 251 320
#     4  10  20  33  51  77 105 139 179 227 268 319
#     4  10  20  37  62  81  99 134 180 230 283 322
#     4  10  21  34  52  81 111 139 177 225 271 314
#     4  10  20  32  48  74 108 143 180 220 260 311
#     4  10  20  31  48  73 107 150 184 208 259 315
#
# _framework density 17.373833999999999
#
# number of rings (size 3 to 8) (size 9 to 14) (size 15 to 20)
#    0.000    1.833    3.333    2.500    0.000    2.667 
#    0.000    0.000    0.000    5.500    0.000    0.000 
#    0.000    0.000    0.000    0.000    0.000    0.000 
#
# Total GULP energy -595007.925593 kJ/mol
# GULP energy per Si atom -12395.998450 kJ/mol
# Density = 1.733429 g / cm^3
# Si number density = 17.373834 Si / 1000 Ang^3
#
#
#
# Elastic Constant Matrix: (Units=GPa)
#
#
# Indices 1 2 3 4 5 6 
#
# 1 135.0315 25.6918 49.8733 0.0000 0.0000 0.0000
# 2 25.6918 59.4692 27.9854 0.0000 0.0000 0.0000
# 3 49.8733 27.9854 112.2953 0.0000 0.0000 0.0000
# 4 0.0000 0.0000 0.0000 10.9514 0.0000 0.0000
# 5 0.0000 0.0000 0.0000 0.0000 9.6201 0.0000
# 6 0.0000 0.0000 0.0000 0.0000 0.0000 5.0989
#
#
#
# Elastic Compliance Matrix: (Units=1/GPa)
#
#
# Indices 1 2 3 4 5 6 
#
# 1 0.009130 -0.002307 -0.003480 0.000000 0.000000 0.000000
# 2 -0.002307 0.019632 -0.003868 0.000000 0.000000 0.000000
# 3 -0.003480 -0.003868 0.011415 0.000000 0.000000 0.000000
# 4 0.000000 0.000000 0.000000 0.091313 0.000000 0.000000
# 5 0.000000 0.000000 0.000000 0.000000 0.103949 0.000000
# 6 0.000000 0.000000 0.000000 0.000000 0.000000 0.196122
#
#
# Mechanical properties :
#
#
# Convention : Reuss Voigt Hill
#
# Bulk Modulus (GPa) = 47.92210 57.09966 52.51088
# Shear Modulus (GPa) = 10.92118 18.68376 14.80247
#
# Velocity S-wave (km/s) = 2.50991 3.28288 2.92207
# Velocity P-wave (km/s) = 6.00352 6.87797 6.45557
#
# Compressibility (1/GPa) = 0.02086720
#
# Stress axis : x y z
#
# Youngs Moduli (GPa) = 109.53071 50.93657 87.60683
#
# Poissons Ratio (x) = 0.11749 0.30487
# Poissons Ratio (y) = 0.25265 0.33888
# Poissons Ratio (z) = 0.38116 0.19703
#
# Static dielectric constant tensor:
#      x y z
#    x 3.650040 0.000000 0.000000 
#    y 0.000000 2.828820 0.000000 
#    z 0.000000 0.000000 3.437830 
# 
# 
# High freq. dielectric constant tensor:
#      x y z
#    x 1.681330 0.000000 0.000000 
#    y 0.000000 1.624890 0.000000 
#    z 0.000000 0.000000 1.682670 
# 
# From -- ./inp_files/22455.got.cif
#   From: 2010.03.12/outbox.cif.g09.slc.cpg/sg74_12_cif.got.tgz:22455.got - 2010.04.16 15:46:19.
