data_PCOD8299549
_publ_section_title
;
Structure prediction by ZEFSAII (Michael W. Deem and Ramdas Pophale) SiO2 
 PCOD8299549
Probable space group: I M M A
;
_chemical_formula_sum "Si O2"
_cell_formula_units_Z 72
_cell_length_a 9.380006
_cell_length_b 14.879665
_cell_length_c 29.405255
_cell_angle_alpha 90.000000
_cell_angle_beta 90.000000
_cell_angle_gamma 90.000000
_cell_volume 4104.131049
_symmetry_space_group_name_H-M "I M M A"
_symmetry_group_IT_number 74
_symmetry_cell_setting 'orthorhombic'
loop_
_space_group_symop_operation_xyz
x,y,z
-x,1/2-y,z
x,-y,-z
-x,1/2+y,-z
-x,-y,-z
x,1/2+y,-z
-x,y,z
x,1/2-y,z
1/2+x,1/2+y,1/2+z
1/2-x,-y,1/2+z
1/2+x,1/2-y,1/2-z
1/2-x,y,1/2-z
1/2-x,1/2-y,1/2-z
1/2+x,y,1/2-z
1/2-x,1/2+y,1/2+z
1/2+x,-y,1/2+z
loop_
_atom_site_type_symbol
_atom_site_label
_atom_site_fract_x
_atom_site_fract_y
_atom_site_fract_z
Si Si1 0.166979 0.145660 0.450042
Si Si2 0.163439 0.945411 0.795841
Si Si3 0.334025 0.993269 0.607922
Si Si4 0.663812 0.352323 0.539578
Si Si5 0.660528 0.750000 0.705863
O O1 0.196919 0.250000 0.439075
O O2 0.237421 0.087090 0.410713
O O3 0.237448 0.117977 0.497866
O O4 0.000000 0.124899 0.452920
O O5 0.250000 0.967514 0.750000
O O6 0.201895 0.009747 0.838434
O O7 0.193419 0.845445 0.818221
O O8 0.000000 0.956454 0.781226
O O9 0.500000 0.966322 0.602168
O O10 0.298065 0.085969 0.582556
O O11 0.500000 0.365217 0.524311
O O12 0.694619 0.250000 0.554259
O O13 0.500000 0.750000 0.722603
O O14 0.750000 0.750000 0.750000
#
# Coordination Sequence:
#
# PCOD8299549 Si02
#       5
#    16  16  16  16   8
#     4  10  21  34  48  72 104 133 160 195 241 292
#     4   9  18  31  47  68  94 124 159 197 238 283
#     4  10  20  32  51  75  97 127 167 204 241 287
#     4   9  18  34  53  72  96 128 165 204 244 287
#     4   8  14  26  42  60  84 116 148 182 224 270
#
# _framework density 17.543299000000001
#
# number of rings (size 3 to 8) (size 9 to 14) (size 15 to 20)
#    0.000    2.667    0.000    1.333    1.556    5.778 
#    0.000    0.000    0.000    0.667    0.000    0.000 
#    0.000    0.000    0.000    0.000    0.000    0.000 
#
# Total GULP energy -446072.968503 kJ/mol
# GULP energy per Si atom -12390.915792 kJ/mol
# Density = 1.750337 g / cm^3
# Si number density = 17.543299 Si / 1000 Ang^3
#
#
#
# Elastic Constant Matrix: (Units=GPa)
#
#
# Indices 1 2 3 4 5 6 
#
# 1 74.2205 39.4794 59.1990 0.0000 0.0000 0.0000
# 2 39.4794 57.0747 54.5583 0.0000 0.0000 0.0000
# 3 59.1990 54.5583 134.7145 0.0000 0.0000 0.0000
# 4 0.0000 0.0000 0.0000 22.0943 0.0000 0.0000
# 5 0.0000 0.0000 0.0000 0.0000 23.8744 0.0000
# 6 0.0000 0.0000 0.0000 0.0000 0.0000 18.2544
#
#
#
# Elastic Compliance Matrix: (Units=1/GPa)
#
#
# Indices 1 2 3 4 5 6 
#
# 1 0.024193 -0.010724 -0.006289 0.000000 0.000000 0.000000
# 2 -0.010724 0.033342 -0.008791 0.000000 0.000000 0.000000
# 3 -0.006289 -0.008791 0.013747 0.000000 0.000000 0.000000
# 4 0.000000 0.000000 0.000000 0.045261 0.000000 0.000000
# 5 0.000000 0.000000 0.000000 0.000000 0.041886 0.000000
# 6 0.000000 0.000000 0.000000 0.000000 0.000000 0.054781
#
#
# Mechanical properties :
#
#
# Convention : Reuss Voigt Hill
#
# Bulk Modulus (GPa) = 50.82332 63.60922 57.21627
# Shear Modulus (GPa) = 18.42476 20.36282 19.39379
#
# Velocity S-wave (km/s) = 3.24426 3.41063 3.32848
# Velocity P-wave (km/s) = 6.56253 7.20048 6.88889
#
# Compressibility (1/GPa) = 0.01967601
#
# Stress axis : x y z
#
# Youngs Moduli (GPa) = 41.33387 29.99239 72.74447
#
# Poissons Ratio (x) = 0.32162 0.45746
# Poissons Ratio (y) = 0.44325 0.63948
# Poissons Ratio (z) = 0.25993 0.26366
#
# Static dielectric constant tensor:
#      x y z
#    x 3.279790 0.000000 0.000000 
#    y 0.000000 3.149060 0.000000 
#    z 0.000000 0.000000 3.105600 
# 
# 
# High freq. dielectric constant tensor:
#      x y z
#    x 1.677920 0.000000 0.000000 
#    y 0.000000 1.662690 0.000000 
#    z 0.000000 0.000000 1.668130 
# 
# From -- ./inp_files/56654.got.cif
#   From: 2010.03.12/outbox.cif.g09.slc.cpg/sg74_29_cif.got.tgz:56654.got - 2010.04.16 15:46:19.
