data_PCOD8299937
_publ_section_title
;
Structure prediction by ZEFSAII (Michael W. Deem and Ramdas Pophale) SiO2 
 PCOD8299937
Probable space group: I M M A
;
_chemical_formula_sum "Si O2"
_cell_formula_units_Z 96
_cell_length_a 23.783069
_cell_length_b 17.800985
_cell_length_c 11.706755
_cell_angle_alpha 90.000000
_cell_angle_beta 90.000000
_cell_angle_gamma 90.000000
_cell_volume 4956.195849
_symmetry_space_group_name_H-M "I M M A"
_symmetry_group_IT_number 74
_symmetry_cell_setting 'orthorhombic'
loop_
_space_group_symop_operation_xyz
x,y,z
-x,1/2-y,z
x,-y,-z
-x,1/2+y,-z
-x,-y,-z
x,1/2+y,-z
-x,y,z
x,1/2-y,z
1/2+x,1/2+y,1/2+z
1/2-x,-y,1/2+z
1/2+x,1/2-y,1/2-z
1/2-x,y,1/2-z
1/2-x,1/2-y,1/2-z
1/2+x,y,1/2-z
1/2-x,1/2+y,1/2+z
1/2+x,-y,1/2+z
loop_
_atom_site_type_symbol
_atom_site_label
_atom_site_fract_x
_atom_site_fract_y
_atom_site_fract_z
Si Si1 0.660402 0.335297 0.119354
Si Si2 0.622932 0.587643 0.666921
Si Si3 0.935209 0.437900 0.770988
Si Si4 0.743465 0.546129 0.615506
Si Si5 0.063206 0.164075 0.553789
Si Si6 0.434328 0.666573 0.469043
O O1 0.678104 0.250000 0.099189
O O2 0.636468 0.346403 0.245317
O O3 0.716621 0.382411 0.103218
O O4 0.609490 0.359357 0.037547
O O5 0.600125 0.514330 0.732487
O O6 0.678966 0.568220 0.596391
O O7 0.576006 0.620693 0.584158
O O8 0.927990 0.394842 0.653596
O O9 0.000000 0.457447 0.797276
O O10 0.909022 0.382873 0.866525
O O11 0.760079 0.500000 0.500000
O O12 0.750000 0.513240 0.750000
O O13 0.071654 0.250000 0.597108
O O14 0.000000 0.155532 0.502494
O O15 0.500000 0.675946 0.450105
O O16 0.406544 0.750000 0.470899
#
# Coordination Sequence:
#
# PCOD8299937 Si02
#       6
#    16  16  16  16  16  16
#     4  10  23  40  60  83 113 154 196 242 295 357
#     4  11  22  36  56  84 116 150 195 244 296 350
#     4  10  20  34  56  85 118 153 193 240 292 357
#     4  10  23  40  62  86 115 157 197 251 303 356
#     4   9  19  36  58  85 118 155 195 241 296 356
#     4  10  20  34  54  80 115 155 192 236 292 350
#
# _framework density 19.369693999999999
#
# number of rings (size 3 to 8) (size 9 to 14) (size 15 to 20)
#    0.000    2.000    0.000    3.000    4.667    8.333 
#    0.000    3.333    0.000    0.500    0.000    0.000 
#    0.000    0.000    0.000    0.000    0.000    0.000 
#
# Total GULP energy -594801.864128 kJ/mol
# GULP energy per Si atom -12391.705503 kJ/mol
# Density = 1.932561 g / cm^3
# Si number density = 19.369694 Si / 1000 Ang^3
#
#
#
# Elastic Constant Matrix: (Units=GPa)
#
#
# Indices 1 2 3 4 5 6 
#
# 1 76.2497 36.5067 26.4079 0.0000 0.0000 0.0000
# 2 36.5067 79.7117 37.2368 0.0000 0.0000 0.0000
# 3 26.4079 37.2368 88.3785 0.0000 0.0000 0.0000
# 4 0.0000 0.0000 0.0000 25.5315 0.0000 0.0000
# 5 0.0000 0.0000 0.0000 0.0000 49.3960 0.0000
# 6 0.0000 0.0000 0.0000 0.0000 0.0000 16.5848
#
#
#
# Elastic Compliance Matrix: (Units=1/GPa)
#
#
# Indices 1 2 3 4 5 6 
#
# 1 0.017153 -0.006800 -0.002260 0.000000 0.000000 0.000000
# 2 -0.006800 0.018315 -0.005685 0.000000 0.000000 0.000000
# 3 -0.002260 -0.005685 0.014386 0.000000 0.000000 0.000000
# 4 0.000000 0.000000 0.000000 0.039167 0.000000 0.000000
# 5 0.000000 0.000000 0.000000 0.000000 0.020245 0.000000
# 6 0.000000 0.000000 0.000000 0.000000 0.000000 0.060296
#
#
# Mechanical properties :
#
#
# Convention : Reuss Voigt Hill
#
# Bulk Modulus (GPa) = 49.10758 49.40474 49.25616
# Shear Modulus (GPa) = 24.29060 27.91502 26.10281
#
# Velocity S-wave (km/s) = 3.54510 3.80039 3.67496
# Velocity P-wave (km/s) = 6.49344 6.69469 6.59484
#
# Compressibility (1/GPa) = 0.02036346
#
# Stress axis : x y z
#
# Youngs Moduli (GPa) = 58.29757 54.59943 69.51371
#
# Poissons Ratio (x) = 0.37128 0.15713
# Poissons Ratio (y) = 0.39643 0.39518
# Poissons Ratio (z) = 0.13178 0.31039
#
# Static dielectric constant tensor:
#      x y z
#    x 3.538750 0.000000 0.000000 
#    y 0.000000 3.596120 0.000000 
#    z 0.000000 0.000000 3.661760 
# 
# 
# High freq. dielectric constant tensor:
#      x y z
#    x 1.751500 0.000000 0.000000 
#    y 0.000000 1.755270 0.000000 
#    z 0.000000 0.000000 1.757240 
# 
# From -- ./inp_files/22482.got.cif
#   From: 2010.03.12/outbox.cif.g09.slc.cpg/sg74_12_cif.got.tgz:22482.got - 2010.04.16 15:46:19.
