data_PCOD8299915
_publ_section_title
;
Structure prediction by ZEFSAII (Michael W. Deem and Ramdas Pophale) SiO2 
 PCOD8299915
Probable space group: I M M A
;
_chemical_formula_sum "Si O2"
_cell_formula_units_Z 96
_cell_length_a 8.800675
_cell_length_b 24.207140
_cell_length_c 23.992950
_cell_angle_alpha 90.000000
_cell_angle_beta 90.000000
_cell_angle_gamma 90.000000
_cell_volume 5111.438198
_symmetry_space_group_name_H-M "I M M A"
_symmetry_group_IT_number 74
_symmetry_cell_setting 'orthorhombic'
loop_
_space_group_symop_operation_xyz
x,y,z
-x,1/2-y,z
x,-y,-z
-x,1/2+y,-z
-x,-y,-z
x,1/2+y,-z
-x,y,z
x,1/2-y,z
1/2+x,1/2+y,1/2+z
1/2-x,-y,1/2+z
1/2+x,1/2-y,1/2-z
1/2-x,y,1/2-z
1/2-x,1/2-y,1/2-z
1/2+x,y,1/2-z
1/2-x,1/2+y,1/2+z
1/2+x,-y,1/2+z
loop_
_atom_site_type_symbol
_atom_site_label
_atom_site_fract_x
_atom_site_fract_y
_atom_site_fract_z
Si Si1 0.824134 0.310100 0.595599
Si Si2 0.820031 0.092438 0.520832
Si Si3 0.320672 0.407479 0.107128
Si Si4 0.820781 0.687398 0.691398
Si Si5 0.320556 0.521676 0.388600
Si Si6 0.323937 0.609791 0.191056
O O1 0.744007 0.250000 0.590884
O O2 0.753783 0.353023 0.551341
O O3 0.802695 0.333068 0.657838
O O4 0.000000 0.303587 0.581046
O O5 0.771827 0.099330 0.457085
O O6 0.747384 0.038812 0.550851
O O7 0.000000 0.086513 0.528730
O O8 0.500000 0.416362 0.112875
O O9 0.266749 0.353943 0.142330
O O10 0.234472 0.461065 0.129674
O O11 0.768277 0.750000 0.676262
O O12 0.750000 0.668215 0.750000
O O13 0.000000 0.684788 0.698155
O O14 0.500000 0.523500 0.392319
O O15 0.262898 0.561203 0.340124
O O16 0.500000 0.593255 0.196362
O O17 0.250000 0.620082 0.250000
#
# Coordination Sequence:
#
# PCOD8299915 Si02
#       6
#    16  16  16  16  16  16
#     4   8  15  29  50  76 104 134 169 209 254 305
#     4   9  18  33  53  76 105 139 171 211 262 309
#     4  10  20  34  54  79 105 135 173 214 257 310
#     4   9  19  36  56  78 105 136 169 208 255 306
#     4  11  22  35  52  75 105 139 174 215 260 307
#     4  10  20  35  54  76 104 138 175 216 261 307
#
# _framework density 18.781407999999999
#
# number of rings (size 3 to 8) (size 9 to 14) (size 15 to 20)
#    0.000    2.500    0.000    3.500    0.000    5.000 
#    0.000    5.000    0.000   12.000    0.000    4.667 
#    0.000    0.000    0.000    0.000    0.000    0.000 
#
# Total GULP energy -595105.592623 kJ/mol
# GULP energy per Si atom -12398.033180 kJ/mol
# Density = 1.873866 g / cm^3
# Si number density = 18.781408 Si / 1000 Ang^3
#
#
#
# Elastic Constant Matrix: (Units=GPa)
#
#
# Indices 1 2 3 4 5 6 
#
# 1 43.5525 27.9867 12.8382 0.0000 0.0000 0.0000
# 2 27.9867 124.4009 37.3955 0.0000 0.0000 0.0000
# 3 12.8382 37.3955 70.2425 0.0000 0.0000 0.0000
# 4 0.0000 0.0000 0.0000 25.4222 0.0000 0.0000
# 5 0.0000 0.0000 0.0000 0.0000 28.2195 0.0000
# 6 0.0000 0.0000 0.0000 0.0000 0.0000 14.2150
#
#
#
# Elastic Compliance Matrix: (Units=1/GPa)
#
#
# Indices 1 2 3 4 5 6 
#
# 1 0.027082 -0.005482 -0.002031 0.000000 0.000000 0.000000
# 2 -0.005482 0.010680 -0.004684 0.000000 0.000000 0.000000
# 3 -0.002031 -0.004684 0.017101 0.000000 0.000000 0.000000
# 4 0.000000 0.000000 0.000000 0.039336 0.000000 0.000000
# 5 0.000000 0.000000 0.000000 0.000000 0.035436 0.000000
# 6 0.000000 0.000000 0.000000 0.000000 0.000000 0.070348
#
#
# Mechanical properties :
#
#
# Convention : Reuss Voigt Hill
#
# Bulk Modulus (GPa) = 32.82015 43.84852 38.33433
# Shear Modulus (GPa) = 21.31884 24.23638 22.77761
#
# Velocity S-wave (km/s) = 3.37278 3.59617 3.48627
# Velocity P-wave (km/s) = 5.71667 6.37501 6.05479
#
# Compressibility (1/GPa) = 0.03046909
#
# Stress axis : x y z
#
# Youngs Moduli (GPa) = 36.92434 93.63464 58.47563
#
# Poissons Ratio (x) = 0.51332 0.11878
# Poissons Ratio (y) = 0.20243 0.27388
# Poissons Ratio (z) = 0.07500 0.43856
#
# Static dielectric constant tensor:
#      x y z
#    x 3.206560 0.000000 0.000000 
#    y 0.000000 3.791000 0.000000 
#    z 0.000000 0.000000 3.491900 
# 
# 
# High freq. dielectric constant tensor:
#      x y z
#    x 1.705800 0.000000 0.000000 
#    y 0.000000 1.736990 0.000000 
#    z 0.000000 0.000000 1.729680 
# 
# From -- ./inp_files/57246.got.cif
#   From: 2010.03.12/outbox.cif.g09.slc.cpg/sg74_29_cif.got.tgz:57246.got - 2010.04.16 15:46:19.
