data_PCOD8299647
_publ_section_title
;
Structure prediction by ZEFSAII (Michael W. Deem and Ramdas Pophale) SiO2 
 PCOD8299647
Probable space group: I M M A
;
_chemical_formula_sum "Si O2"
_cell_formula_units_Z 96
_cell_length_a 9.371832
_cell_length_b 24.378721
_cell_length_c 22.397193
_cell_angle_alpha 90.000000
_cell_angle_beta 90.000000
_cell_angle_gamma 90.000000
_cell_volume 5117.160093
_symmetry_space_group_name_H-M "I M M A"
_symmetry_group_IT_number 74
_symmetry_cell_setting 'orthorhombic'
loop_
_space_group_symop_operation_xyz
x,y,z
-x,1/2-y,z
x,-y,-z
-x,1/2+y,-z
-x,-y,-z
x,1/2+y,-z
-x,y,z
x,1/2-y,z
1/2+x,1/2+y,1/2+z
1/2-x,-y,1/2+z
1/2+x,1/2-y,1/2-z
1/2-x,y,1/2-z
1/2-x,1/2-y,1/2-z
1/2+x,y,1/2-z
1/2-x,1/2+y,1/2+z
1/2+x,-y,1/2+z
loop_
_atom_site_type_symbol
_atom_site_label
_atom_site_fract_x
_atom_site_fract_y
_atom_site_fract_z
Si Si1 0.337223 0.562572 0.481835
Si Si2 0.334372 0.436441 0.190438
Si Si3 0.837627 0.336762 0.692847
Si Si4 0.836565 0.550773 0.364925
Si Si5 0.166220 0.132842 0.423477
Si Si6 0.831716 0.750000 0.534800
Si Si7 0.331548 0.250000 0.901610
O O1 0.328312 0.500000 0.500000
O O2 0.500000 0.582730 0.476369
O O3 0.260468 0.570221 0.419078
O O4 0.257752 0.597674 0.531170
O O5 0.500000 0.441285 0.206925
O O6 0.250000 0.421642 0.250000
O O7 0.279618 0.494066 0.163105
O O8 0.304716 0.387715 0.143609
O O9 0.750000 0.317513 0.750000
O O10 0.823508 0.401966 0.684509
O O11 0.781633 0.304306 0.634288
O O12 0.000000 0.319648 0.705022
O O13 0.000000 0.543756 0.387057
O O14 0.216297 0.196091 0.428572
O O15 0.000000 0.125395 0.440301
O O16 0.762632 0.750000 0.468037
O O17 0.000000 0.750000 0.528405
O O18 0.500000 0.250000 0.909687
#
# Coordination Sequence:
#
# PCOD8299647 Si02
#       7
#    16  16  16  16  16   8   8
#     4  11  22  34  53  84 116 146 179 224 280 330
#     4  10  21  35  54  79 108 143 182 225 276 332
#     4  10  20  33  51  74 104 142 183 223 264 313
#     4  10  20  35  54  78 108 145 186 226 270 324
#     4  10  20  37  60  84 110 144 187 229 275 332
#     4   9  18  35  61  85 105 137 184 237 278 325
#     4   9  17  31  50  75 103 135 176 223 272 315
#
# _framework density 18.760404999999999
#
# number of rings (size 3 to 8) (size 9 to 14) (size 15 to 20)
#    0.000    2.000    1.667    2.250    0.000    5.333 
#    0.000    0.833    0.000    1.000    0.000    0.000 
#    0.000    0.000    0.000    0.000    0.000    0.000 
#
# Total GULP energy -595248.982838 kJ/mol
# GULP energy per Si atom -12401.020476 kJ/mol
# Density = 1.871771 g / cm^3
# Si number density = 18.760405 Si / 1000 Ang^3
#
#
#
# Elastic Constant Matrix: (Units=GPa)
#
#
# Indices 1 2 3 4 5 6 
#
# 1 73.2034 35.5453 55.7450 0.0000 0.0000 0.0000
# 2 35.5453 127.0665 60.3001 0.0000 0.0000 0.0000
# 3 55.7450 60.3001 128.2158 0.0000 0.0000 0.0000
# 4 0.0000 0.0000 0.0000 23.5293 0.0000 0.0000
# 5 0.0000 0.0000 0.0000 0.0000 34.8537 0.0000
# 6 0.0000 0.0000 0.0000 0.0000 0.0000 17.1457
#
#
#
# Elastic Compliance Matrix: (Units=1/GPa)
#
#
# Indices 1 2 3 4 5 6 
#
# 1 0.020796 -0.001965 -0.008117 0.000000 0.000000 0.000000
# 2 -0.001965 0.010317 -0.003997 0.000000 0.000000 0.000000
# 3 -0.008117 -0.003997 0.013209 0.000000 0.000000 0.000000
# 4 0.000000 0.000000 0.000000 0.042500 0.000000 0.000000
# 5 0.000000 0.000000 0.000000 0.000000 0.028691 0.000000
# 6 0.000000 0.000000 0.000000 0.000000 0.000000 0.058324
#
#
# Mechanical properties :
#
#
# Convention : Reuss Voigt Hill
#
# Bulk Modulus (GPa) = 61.87668 70.18517 66.03093
# Shear Modulus (GPa) = 24.10979 26.89874 25.50427
#
# Velocity S-wave (km/s) = 3.58878 3.79067 3.69110
# Velocity P-wave (km/s) = 7.08707 7.52671 7.31020
#
# Compressibility (1/GPa) = 0.01616118
#
# Stress axis : x y z
#
# Youngs Moduli (GPa) = 48.08524 96.93020 75.70807
#
# Poissons Ratio (x) = 0.19050 0.61456
# Poissons Ratio (y) = 0.09451 0.30264
# Poissons Ratio (z) = 0.39033 0.38748
#
# Static dielectric constant tensor:
#      x y z
#    x 3.299100 0.000000 0.000000 
#    y 0.000000 3.552160 0.000000 
#    z 0.000000 0.000000 3.423420 
# 
# 
# High freq. dielectric constant tensor:
#      x y z
#    x 1.704520 0.000000 0.000000 
#    y 0.000000 1.735700 0.000000 
#    z 0.000000 0.000000 1.725380 
# 
# From -- ./inp_files/57317.got.cif
#   From: 2010.03.12/outbox.cif.g09.slc.cpg/sg74_29_cif.got.tgz:57317.got - 2010.04.16 15:46:19.
