data_PCOD8299683
_publ_section_title
;
Structure prediction by ZEFSAII (Michael W. Deem and Ramdas Pophale) SiO2 
 PCOD8299683
Probable space group: I M M A
;
_chemical_formula_sum "Si O2"
_cell_formula_units_Z 104
_cell_length_a 17.945191
_cell_length_b 19.444551
_cell_length_c 15.422493
_cell_angle_alpha 90.000000
_cell_angle_beta 90.000000
_cell_angle_gamma 90.000000
_cell_volume 5381.465818
_symmetry_space_group_name_H-M "I M M A"
_symmetry_group_IT_number 74
_symmetry_cell_setting 'orthorhombic'
loop_
_space_group_symop_operation_xyz
x,y,z
-x,1/2-y,z
x,-y,-z
-x,1/2+y,-z
-x,-y,-z
x,1/2+y,-z
-x,y,z
x,1/2-y,z
1/2+x,1/2+y,1/2+z
1/2-x,-y,1/2+z
1/2+x,1/2-y,1/2-z
1/2-x,y,1/2-z
1/2-x,1/2-y,1/2-z
1/2+x,y,1/2-z
1/2-x,1/2+y,1/2+z
1/2+x,-y,1/2+z
loop_
_atom_site_type_symbol
_atom_site_label
_atom_site_fract_x
_atom_site_fract_y
_atom_site_fract_z
Si Si1 0.316363 0.500000 0.500000
Si Si2 0.585165 0.169450 0.079301
Si Si3 0.732112 0.137897 0.002219
Si Si4 0.586762 0.951481 0.339359
Si Si5 0.807574 0.328018 0.823315
Si Si6 0.415752 0.412701 0.251513
Si Si7 0.801818 0.174525 0.174170
O O1 0.259041 0.560936 0.519966
O O2 0.369655 0.516691 0.420122
O O3 0.500000 0.154841 0.049477
O O4 0.594525 0.250000 0.103925
O O5 0.641761 0.146987 0.002112
O O6 0.608016 0.120119 0.159683
O O7 0.761209 0.182457 0.082684
O O8 0.765390 0.167691 0.914405
O O9 0.500000 0.941330 0.362993
O O10 0.621003 0.877502 0.315783
O O11 0.596210 0.004511 0.258067
O O12 0.835417 0.250000 0.808560
O O13 0.750000 0.351399 0.750000
O O14 0.500000 0.393366 0.270625
O O15 0.371765 0.376733 0.330593
O O16 0.829570 0.250000 0.202521
O O17 0.750000 0.143565 0.250000
#
# Coordination Sequence:
#
# PCOD8299683 Si02
#       7
#     8  16  16  16  16  16  16
#     4  10  21  36  57  84 114 154 190 246 291 338
#     4  10  20  35  57  87 125 160 186 222 278 352
#     4  11  21  37  59  85 114 152 198 237 289 347
#     4  10  21  38  60  84 114 153 192 236 294 353
#     4  10  23  42  62  83 109 146 200 262 304 334
#     4  10  20  33  51  82 122 157 183 216 270 342
#     4  11  20  31  53  85 118 151 187 224 269 344
#
# _framework density 19.325589999999998
#
# number of rings (size 3 to 8) (size 9 to 14) (size 15 to 20)
#    0.000    1.692    3.077    2.077    0.000    4.308 
#    0.000    1.154    0.000    2.769    0.000    0.000 
#    0.000    0.000    0.000    0.000    0.000    0.000 
#
# Total GULP energy -644578.856453 kJ/mol
# GULP energy per Si atom -12395.747239 kJ/mol
# Density = 1.928160 g / cm^3
# Si number density = 19.325590 Si / 1000 Ang^3
#
#
#
# Elastic Constant Matrix: (Units=GPa)
#
#
# Indices 1 2 3 4 5 6 
#
# 1 116.7825 60.3086 30.0420 0.0000 0.0000 0.0000
# 2 60.3086 118.5573 22.8919 0.0000 0.0000 0.0000
# 3 30.0420 22.8919 73.6720 0.0000 0.0000 0.0000
# 4 0.0000 0.0000 0.0000 20.6131 0.0000 0.0000
# 5 0.0000 0.0000 0.0000 0.0000 22.3988 0.0000
# 6 0.0000 0.0000 0.0000 0.0000 0.0000 31.9451
#
#
#
# Elastic Compliance Matrix: (Units=1/GPa)
#
#
# Indices 1 2 3 4 5 6 
#
# 1 0.012313 -0.005632 -0.003271 0.000000 0.000000 0.000000
# 2 -0.005632 0.011549 -0.001292 0.000000 0.000000 0.000000
# 3 -0.003271 -0.001292 0.015309 0.000000 0.000000 0.000000
# 4 0.000000 0.000000 0.000000 0.048513 0.000000 0.000000
# 5 0.000000 0.000000 0.000000 0.000000 0.044645 0.000000
# 6 0.000000 0.000000 0.000000 0.000000 0.000000 0.031304
#
#
# Mechanical properties :
#
#
# Convention : Reuss Voigt Hill
#
# Bulk Modulus (GPa) = 53.24478 59.49963 56.37221
# Shear Modulus (GPa) = 26.27675 28.04270 27.15972
#
# Velocity S-wave (km/s) = 3.69139 3.81342 3.75290
# Velocity P-wave (km/s) = 6.76607 7.08833 6.92907
#
# Compressibility (1/GPa) = 0.01878118
#
# Stress axis : x y z
#
# Youngs Moduli (GPa) = 81.21701 86.58748 65.32112
#
# Poissons Ratio (x) = 0.48764 0.21366
# Poissons Ratio (y) = 0.45739 0.08440
# Poissons Ratio (z) = 0.26566 0.11188
#
# Static dielectric constant tensor:
#      x y z
#    x 3.668890 0.000000 0.000000 
#    y 0.000000 3.652880 0.000000 
#    z 0.000000 0.000000 3.360770 
# 
# 
# High freq. dielectric constant tensor:
#      x y z
#    x 1.757250 0.000000 0.000000 
#    y 0.000000 1.761100 0.000000 
#    z 0.000000 0.000000 1.730270 
# 
# From -- ./inp_files/34330.got.cif
#   From: 2010.03.12/outbox.cif.g09.slc.cpg/sg74_18_cif.got.tgz:34330.got - 2010.04.16 15:46:19.
