data_PCOD8299948
_publ_section_title
;
Structure prediction by ZEFSAII (Michael W. Deem and Ramdas Pophale) SiO2 
 PCOD8299948
Probable space group: I M M A
;
_chemical_formula_sum "Si O2"
_cell_formula_units_Z 72
_cell_length_a 16.187088
_cell_length_b 9.326698
_cell_length_c 26.593361
_cell_angle_alpha 90.000000
_cell_angle_beta 90.000000
_cell_angle_gamma 90.000000
_cell_volume 4014.855058
_symmetry_space_group_name_H-M "I M M A"
_symmetry_group_IT_number 74
_symmetry_cell_setting 'orthorhombic'
loop_
_space_group_symop_operation_xyz
x,y,z
-x,1/2-y,z
x,-y,-z
-x,1/2+y,-z
-x,-y,-z
x,1/2+y,-z
-x,y,z
x,1/2-y,z
1/2+x,1/2+y,1/2+z
1/2-x,-y,1/2+z
1/2+x,1/2-y,1/2-z
1/2-x,y,1/2-z
1/2-x,1/2-y,1/2-z
1/2+x,y,1/2-z
1/2-x,1/2+y,1/2+z
1/2+x,-y,1/2+z
loop_
_atom_site_type_symbol
_atom_site_label
_atom_site_fract_x
_atom_site_fract_y
_atom_site_fract_z
Si Si1 0.166523 0.081093 0.890572
Si Si2 0.500000 0.418777 0.552883
Si Si3 0.742139 0.583268 0.808701
Si Si4 0.324348 0.588640 0.047814
Si Si5 0.093444 0.913113 0.350647
O O1 0.171052 0.250000 0.878891
O O2 0.236971 0.034121 0.929992
O O3 0.078987 0.035956 0.913991
O O4 0.183966 0.997828 0.838374
O O5 0.500000 0.250000 0.541225
O O6 0.500000 0.500000 0.500000
O O7 0.746722 0.750000 0.822726
O O8 0.750000 0.555679 0.750000
O O9 0.652536 0.522995 0.822674
O O10 0.313838 0.750000 0.029228
O O11 0.395431 0.572737 0.089433
O O12 0.352318 0.500000 0.000000
O O13 0.115172 0.750000 0.334353
O O14 0.000000 0.952616 0.336360
#
# Coordination Sequence:
#
# PCOD8299948 Si02
#       5
#    16   8  16  16  16
#     4   9  19  35  53  75 106 141 180 221 259 314
#     4  10  20  34  54  82 114 146 182 226 273 322
#     4  10  21  37  56  78 104 135 172 219 272 319
#     4   9  17  29  47  72 102 136 170 206 248 297
#     4   9  19  36  55  76 103 135 172 212 253 305
#
# _framework density 17.933398
#
# number of rings (size 3 to 8) (size 9 to 14) (size 15 to 20)
#    0.000    2.667    0.000    2.667    0.000    7.111 
#    2.000    0.000    0.000    0.000    0.000    0.000 
#    0.000    0.000    0.000    0.000    0.000    0.000 
#
# Total GULP energy -446379.044540 kJ/mol
# GULP energy per Si atom -12399.417904 kJ/mol
# Density = 1.789258 g / cm^3
# Si number density = 17.933398 Si / 1000 Ang^3
#
#
#
# Elastic Constant Matrix: (Units=GPa)
#
#
# Indices 1 2 3 4 5 6 
#
# 1 106.9236 39.8429 48.3351 0.0000 0.0000 0.0000
# 2 39.8429 79.0820 68.3006 0.0000 0.0000 0.0000
# 3 48.3351 68.3006 108.7347 0.0000 0.0000 0.0000
# 4 0.0000 0.0000 0.0000 36.2492 0.0000 0.0000
# 5 0.0000 0.0000 0.0000 0.0000 15.8284 0.0000
# 6 0.0000 0.0000 0.0000 0.0000 0.0000 20.0388
#
#
#
# Elastic Compliance Matrix: (Units=1/GPa)
#
#
# Indices 1 2 3 4 5 6 
#
# 1 0.012055 -0.003159 -0.003374 0.000000 0.000000 0.000000
# 2 -0.003159 0.028468 -0.016477 0.000000 0.000000 0.000000
# 3 -0.003374 -0.016477 0.021047 0.000000 0.000000 0.000000
# 4 0.000000 0.000000 0.000000 0.027587 0.000000 0.000000
# 5 0.000000 0.000000 0.000000 0.000000 0.063178 0.000000
# 6 0.000000 0.000000 0.000000 0.000000 0.000000 0.049903
#
#
# Mechanical properties :
#
#
# Convention : Reuss Voigt Hill
#
# Bulk Modulus (GPa) = 64.31819 67.52194 65.92007
# Shear Modulus (GPa) = 19.72839 23.64071 21.68455
#
# Velocity S-wave (km/s) = 3.32036 3.63471 3.48109
# Velocity P-wave (km/s) = 7.11636 7.43963 7.27979
#
# Compressibility (1/GPa) = 0.01554770
#
# Stress axis : x y z
#
# Youngs Moduli (GPa) = 82.95267 35.12736 47.51328
#
# Poissons Ratio (x) = 0.11098 0.16032
# Poissons Ratio (y) = 0.26207 0.78290
# Poissons Ratio (z) = 0.27990 0.57881
#
# Static dielectric constant tensor:
#      x y z
#    x 3.335730 0.000000 0.000000 
#    y 0.000000 3.282560 0.000000 
#    z 0.000000 0.000000 3.189600 
# 
# 
# High freq. dielectric constant tensor:
#      x y z
#    x 1.693810 0.000000 0.000000 
#    y 0.000000 1.691960 0.000000 
#    z 0.000000 0.000000 1.687080 
# 
# From -- ./inp_files/63627.got.cif
#   From: 2010.03.12/outbox.cif.g09.slc.cpg/sg74_32_cif.got.tgz:63627.got - 2010.04.16 15:46:19.
