data_PCOD8299652
_publ_section_title
;
Structure prediction by ZEFSAII (Michael W. Deem and Ramdas Pophale) SiO2 
 PCOD8299652
Probable space group: I M M A
;
_chemical_formula_sum "Si O2"
_cell_formula_units_Z 72
_cell_length_a 9.347866
_cell_length_b 14.389611
_cell_length_c 28.214740
_cell_angle_alpha 90.000000
_cell_angle_beta 90.000000
_cell_angle_gamma 90.000000
_cell_volume 3795.225492
_symmetry_space_group_name_H-M "I M M A"
_symmetry_group_IT_number 74
_symmetry_cell_setting 'orthorhombic'
loop_
_space_group_symop_operation_xyz
x,y,z
-x,1/2-y,z
x,-y,-z
-x,1/2+y,-z
-x,-y,-z
x,1/2+y,-z
-x,y,z
x,1/2-y,z
1/2+x,1/2+y,1/2+z
1/2-x,-y,1/2+z
1/2+x,1/2-y,1/2-z
1/2-x,y,1/2-z
1/2-x,1/2-y,1/2-z
1/2+x,y,1/2-z
1/2-x,1/2+y,1/2+z
1/2+x,-y,1/2+z
loop_
_atom_site_type_symbol
_atom_site_label
_atom_site_fract_x
_atom_site_fract_y
_atom_site_fract_z
Si Si1 0.164516 0.250000 0.298888
Si Si2 0.170804 0.250000 0.052785
Si Si3 0.837335 0.399125 0.620992
Si Si4 0.662506 0.750000 0.042368
Si Si5 0.655590 0.355970 0.709346
Si Si6 0.665375 0.384706 0.117768
O O1 0.250000 0.250000 0.250000
O O2 0.201386 0.158488 0.330444
O O3 0.000000 0.250000 0.284011
O O4 0.232626 0.159025 0.078283
O O5 0.000000 0.250000 0.054976
O O6 0.221421 0.250000 0.998747
O O7 0.811591 0.343639 0.572518
O O8 0.731909 0.357264 0.659212
O O9 0.801695 0.506953 0.615310
O O10 0.000000 0.384704 0.638507
O O11 0.500000 0.750000 0.022395
O O12 0.500000 0.405349 0.706311
O O13 0.632496 0.250000 0.724653
O O14 0.750000 0.407003 0.750000
O O15 0.500000 0.362713 0.105338
#
# Coordination Sequence:
#
# PCOD8299652 Si02
#       6
#     8   8  16   8  16  16
#     4   9  18  34  56  81 110 143 180 223 271 322
#     4  11  23  39  59  82 109 144 186 233 282 334
#     4  10  20  36  59  85 111 144 188 234 282 336
#     4  10  21  37  59  83 111 145 182 228 282 346
#     4  10  20  33  51  75 109 151 189 228 272 322
#     4   9  20  39  60  82 112 147 184 230 282 335
#
# _framework density 18.971204
#
# number of rings (size 3 to 8) (size 9 to 14) (size 15 to 20)
#    0.000    2.222    1.111    2.333    0.000    6.222 
#    0.000    6.667    0.000    0.000    0.000    0.000 
#    0.000    0.000    0.000    0.000    0.000    0.000 
#
# Total GULP energy -446330.077954 kJ/mol
# GULP energy per Si atom -12398.057721 kJ/mol
# Density = 1.892802 g / cm^3
# Si number density = 18.971204 Si / 1000 Ang^3
#
#
#
# Elastic Constant Matrix: (Units=GPa)
#
#
# Indices 1 2 3 4 5 6 
#
# 1 138.4673 35.2372 79.3373 0.0000 0.0000 0.0000
# 2 35.2372 116.1639 43.0000 0.0000 0.0000 0.0000
# 3 79.3373 43.0000 124.7540 0.0000 0.0000 0.0000
# 4 0.0000 0.0000 0.0000 3.1972 0.0000 0.0000
# 5 0.0000 0.0000 0.0000 0.0000 39.6505 0.0000
# 6 0.0000 0.0000 0.0000 0.0000 0.0000 14.7519
#
#
#
# Elastic Compliance Matrix: (Units=1/GPa)
#
#
# Indices 1 2 3 4 5 6 
#
# 1 0.011442 -0.000891 -0.006969 0.000000 0.000000 0.000000
# 2 -0.000891 0.009937 -0.002858 0.000000 0.000000 0.000000
# 3 -0.006969 -0.002858 0.013433 0.000000 0.000000 0.000000
# 4 0.000000 0.000000 0.000000 0.312774 0.000000 0.000000
# 5 0.000000 0.000000 0.000000 0.000000 0.025220 0.000000
# 6 0.000000 0.000000 0.000000 0.000000 0.000000 0.067788
#
#
# Mechanical properties :
#
#
# Convention : Reuss Voigt Hill
#
# Bulk Modulus (GPa) = 74.76945 77.17045 75.96995
# Shear Modulus (GPa) = 10.71834 26.30730 18.51282
#
# Velocity S-wave (km/s) = 2.37951 3.72788 3.12723
# Velocity P-wave (km/s) = 6.85908 7.70035 7.29186
#
# Compressibility (1/GPa) = 0.01337445
#
# Stress axis : x y z
#
# Youngs Moduli (GPa) = 87.39834 100.63520 74.44257
#
# Poissons Ratio (x) = 0.08966 0.51882
# Poissons Ratio (y) = 0.07787 0.21279
# Poissons Ratio (z) = 0.60911 0.28766
#
# Static dielectric constant tensor:
#      x y z
#    x 3.627240 0.000000 0.000000 
#    y 0.000000 3.582010 0.000000 
#    z 0.000000 0.000000 3.299120 
# 
# 
# High freq. dielectric constant tensor:
#      x y z
#    x 1.739460 0.000000 0.000000 
#    y 0.000000 1.728560 0.000000 
#    z 0.000000 0.000000 1.732720 
# 
# From -- ./inp_files/63721.got.cif
#   From: 2010.03.12/outbox.cif.g09.slc.cpg/sg74_32_cif.got.tgz:63721.got - 2010.04.16 15:46:19.
