data_PCOD8299198
_publ_section_title
;
Structure prediction by ZEFSAII (Michael W. Deem and Ramdas Pophale) SiO2 
 PCOD8299198
Probable space group: I M M A
;
_chemical_formula_sum "Si O2"
_cell_formula_units_Z 88
_cell_length_a 25.997944
_cell_length_b 22.291228
_cell_length_c 8.942700
_cell_angle_alpha 90.000000
_cell_angle_beta 90.000000
_cell_angle_gamma 90.000000
_cell_volume 5182.528030
_symmetry_space_group_name_H-M "I M M A"
_symmetry_group_IT_number 74
_symmetry_cell_setting 'orthorhombic'
loop_
_space_group_symop_operation_xyz
x,y,z
-x,1/2-y,z
x,-y,-z
-x,1/2+y,-z
-x,-y,-z
x,1/2+y,-z
-x,y,z
x,1/2-y,z
1/2+x,1/2+y,1/2+z
1/2-x,-y,1/2+z
1/2+x,1/2-y,1/2-z
1/2-x,y,1/2-z
1/2-x,1/2-y,1/2-z
1/2+x,y,1/2-z
1/2-x,1/2+y,1/2+z
1/2+x,-y,1/2+z
loop_
_atom_site_type_symbol
_atom_site_label
_atom_site_fract_x
_atom_site_fract_y
_atom_site_fract_z
Si Si1 0.146560 0.818778 0.610182
Si Si2 0.755776 0.681809 0.420040
Si Si3 0.798375 0.600290 0.847617
Si Si4 0.940641 0.518039 0.258337
Si Si5 0.441186 0.904761 0.954408
Si Si6 0.366567 0.000000 0.500000
O O1 0.139519 0.750000 0.659142
O O2 0.185176 0.824677 0.470552
O O3 0.167063 0.855619 0.750393
O O4 0.091939 0.844954 0.561377
O O5 0.736773 0.750000 0.444102
O O6 0.750000 0.661607 0.250000
O O7 0.719747 0.638102 0.511717
O O8 0.750000 0.576201 0.750000
O O9 0.830804 0.544872 0.907880
O O10 0.929868 0.451084 0.319805
O O11 0.927572 0.564856 0.388188
O O12 0.903724 0.533147 0.118916
O O13 0.000000 0.524178 0.208145
O O14 0.500000 0.884340 0.950620
#
# Coordination Sequence:
#
# PCOD8299198 Si02
#       6
#    16  16  16  16  16   8
#     4  10  19  35  57  78 105 143 179 216 262 318
#     4   9  19  35  55  76 101 137 179 216 256 314
#     4  10  22  37  48  77 111 143 174 214 267 316
#     4   9  19  35  56  78 105 138 177 216 264 321
#     4   9  18  35  55  79 107 136 171 221 267 314
#     4  12  21  34  56  80 106 144 173 224 264 306
#
# _framework density 16.980129999999999
#
# number of rings (size 3 to 8) (size 9 to 14) (size 15 to 20)
#    0.000    2.364    1.818    1.909    2.545    3.273 
#    3.273    0.000    0.000    0.000    0.000    0.000 
#    0.000    0.000    0.000    0.000    0.000    0.000 
#
# Total GULP energy -545585.413043 kJ/mol
# GULP energy per Si atom -12399.668478 kJ/mol
# Density = 1.694148 g / cm^3
# Si number density = 16.980130 Si / 1000 Ang^3
#
#
#
# Elastic Constant Matrix: (Units=GPa)
#
#
# Indices 1 2 3 4 5 6 
#
# 1 101.7826 60.3757 55.7397 0.0000 0.0000 0.0000
# 2 60.3757 92.0846 45.4767 0.0000 0.0000 0.0000
# 3 55.7397 45.4767 109.4923 0.0000 0.0000 0.0000
# 4 0.0000 0.0000 0.0000 19.8384 0.0000 0.0000
# 5 0.0000 0.0000 0.0000 0.0000 25.5798 0.0000
# 6 0.0000 0.0000 0.0000 0.0000 0.0000 256.2753
#
#
#
# Elastic Compliance Matrix: (Units=1/GPa)
#
#
# Indices 1 2 3 4 5 6 
#
# 1 0.018357 -0.009336 -0.005468 0.000000 0.000000 0.000000
# 2 -0.009336 0.018410 -0.002894 0.000000 0.000000 0.000000
# 3 -0.005468 -0.002894 0.013118 0.000000 0.000000 0.000000
# 4 0.000000 0.000000 0.000000 0.050407 0.000000 0.000000
# 5 0.000000 0.000000 0.000000 0.000000 0.039093 0.000000
# 6 0.000000 0.000000 0.000000 0.000000 0.000000 0.003902
#
#
# Mechanical properties :
#
#
# Convention : Reuss Voigt Hill
#
# Bulk Modulus (GPa) = 69.00826 69.61596 69.31211
# Shear Modulus (GPa) = 27.24627 69.78986 48.51806
#
# Velocity S-wave (km/s) = 4.01009 6.41795 5.35121
# Velocity P-wave (km/s) = 7.88479 9.79835 8.89319
#
# Compressibility (1/GPa) = 0.01449102
#
# Stress axis : x y z
#
# Youngs Moduli (GPa) = 54.47595 54.31950 76.22909
#
# Poissons Ratio (x) = 0.50710 0.41678
# Poissons Ratio (y) = 0.50856 0.22059
# Poissons Ratio (z) = 0.29785 0.15719
#
# Static dielectric constant tensor:
#      x y z
#    x 3.199080 0.000000 0.000000 
#    y 0.000000 3.076190 0.000000 
#    z 0.000000 0.000000 3.222320 
# 
# 
# High freq. dielectric constant tensor:
#      x y z
#    x 1.658890 0.000000 0.000000 
#    y 0.000000 1.640840 0.000000 
#    z 0.000000 0.000000 1.660870 
# 
# From -- ./inp_files/13761.got.cif
#   From: 2010.03.12/outbox.cif.g09.slc.cpg/sg74_7_cif.got.tgz:13761.got - 2010.04.16 15:46:19.
