data_PCOD8299071
_publ_section_title
;
Structure prediction by ZEFSAII (Michael W. Deem and Ramdas Pophale) SiO2 
 PCOD8299071
Probable space group: I M M A
;
_chemical_formula_sum "Si O2"
_cell_formula_units_Z 112
_cell_length_a 18.697287
_cell_length_b 20.807797
_cell_length_c 15.972492
_cell_angle_alpha 90.000000
_cell_angle_beta 90.000000
_cell_angle_gamma 90.000000
_cell_volume 6214.087668
_symmetry_space_group_name_H-M "I M M A"
_symmetry_group_IT_number 74
_symmetry_cell_setting 'orthorhombic'
loop_
_space_group_symop_operation_xyz
x,y,z
-x,1/2-y,z
x,-y,-z
-x,1/2+y,-z
-x,-y,-z
x,1/2+y,-z
-x,y,z
x,1/2-y,z
1/2+x,1/2+y,1/2+z
1/2-x,-y,1/2+z
1/2+x,1/2-y,1/2-z
1/2-x,y,1/2-z
1/2-x,1/2-y,1/2-z
1/2+x,y,1/2-z
1/2-x,1/2+y,1/2+z
1/2+x,-y,1/2+z
loop_
_atom_site_type_symbol
_atom_site_label
_atom_site_fract_x
_atom_site_fract_y
_atom_site_fract_z
Si Si1 0.319434 0.397926 0.463930
Si Si2 0.079357 0.820853 0.860256
Si Si3 0.916646 0.640728 0.685448
Si Si4 0.153873 0.447074 0.575899
Si Si5 0.081496 0.006298 0.728276
Si Si6 0.175222 0.824772 0.526490
Si Si7 0.692510 0.971532 0.374655
O O1 0.390588 0.367539 0.429320
O O2 0.257707 0.344275 0.460773
O O3 0.297878 0.455671 0.403757
O O4 0.340095 0.424283 0.555243
O O5 0.083280 0.750000 0.897977
O O6 0.113388 0.822505 0.767595
O O7 0.000000 0.846689 0.846062
O O8 0.902296 0.566672 0.705053
O O9 0.869105 0.667482 0.610989
O O10 0.000000 0.654776 0.664718
O O11 0.157360 0.500000 0.500000
O O12 0.088402 0.457333 0.639227
O O13 0.142842 0.375106 0.540437
O O14 0.224957 0.449179 0.635171
O O15 0.140139 0.032502 0.794731
O O16 0.000000 0.015917 0.761799
O O17 0.170911 0.750000 0.496493
#
# Coordination Sequence:
#
# PCOD8299071 Si02
#       7
#    16  16  16  16  16  16  16
#     4  10  19  34  55  79 106 142 185 230 268 323
#     4  10  20  33  48  72 113 155 183 218 275 335
#     4  10  20  34  52  78 114 150 181 217 274 341
#     4  11  20  38  59  82 112 150 185 232 287 332
#     4  11  22  35  58  87 114 146 186 231 278 335
#     4  11  22  36  56  82 110 145 189 229 273 335
#     4  10  19  36  58  80 110 146 182 226 286 330
#
# _framework density 18.023562999999999
#
# number of rings (size 3 to 8) (size 9 to 14) (size 15 to 20)
#    0.000    1.571    5.714    1.286    0.000    2.857 
#    0.000    2.857    0.000    7.714    0.000    0.000 
#    0.000    0.000    0.000    0.000    0.000    0.000 
#
# Total GULP energy -693815.234024 kJ/mol
# GULP energy per Si atom -12389.557750 kJ/mol
# Density = 1.798254 g / cm^3
# Si number density = 18.023563 Si / 1000 Ang^3
#
#
#
# Elastic Constant Matrix: (Units=GPa)
#
#
# Indices 1 2 3 4 5 6 
#
# 1 39.2693 35.3725 38.1423 0.0000 0.0000 0.0000
# 2 35.3725 113.2196 39.7031 0.0000 0.0000 0.0000
# 3 38.1423 39.7031 78.3739 0.0000 0.0000 0.0000
# 4 0.0000 0.0000 0.0000 -850.7492 0.0000 0.0000
# 5 0.0000 0.0000 0.0000 0.0000 31.0931 0.0000
# 6 0.0000 0.0000 0.0000 0.0000 0.0000 48.2318
#
#
#
# Elastic Compliance Matrix: (Units=1/GPa)
#
#
# Indices 1 2 3 4 5 6 
#
# 1 0.055742 -0.009609 -0.022260 0.000000 0.000000 0.000000
# 2 -0.009609 0.012397 -0.001604 0.000000 0.000000 0.000000
# 3 -0.022260 -0.001604 0.024405 0.000000 0.000000 0.000000
# 4 0.000000 0.000000 0.000000 -0.001175 0.000000 0.000000
# 5 0.000000 0.000000 0.000000 0.000000 0.032161 0.000000
# 6 0.000000 0.000000 0.000000 0.000000 0.000000 0.020733
#
#
# Mechanical properties :
#
#
# Convention : Reuss Voigt Hill
#
# Bulk Modulus (GPa) = 39.06525 50.81097 44.93811
# Shear Modulus (GPa) = 22.75395 -146.44185 -61.84395
#
# Velocity S-wave (km/s) = 3.55696 -9.02367 -5.86407
# Velocity P-wave (km/s) = 6.21216 8.96193 4.56757
#
# Compressibility (1/GPa) = 0.02559820
#
# Stress axis : x y z
#
# Youngs Moduli (GPa) = 17.93975 80.66576 40.97493
#
# Poissons Ratio (x) = 0.77512 0.91211
# Poissons Ratio (y) = 0.17238 0.06571
# Poissons Ratio (z) = 0.39934 0.12935
#
# Static dielectric constant tensor:
#      x y z
#    x 3.365360 0.000000 0.000000 
#    y 0.000000 3.532270 0.000000 
#    z 0.000000 0.000000 3.345650 
# 
# 
# High freq. dielectric constant tensor:
#      x y z
#    x 1.696280 0.000000 0.000000 
#    y 0.000000 1.690120 0.000000 
#    z 0.000000 0.000000 1.687610 
# 
# From -- ./inp_files/44455.got.cif
#   From: 2010.03.12/outbox.cif.g09.slc.cpg/sg74_23_cif.got.tgz:44455.got - 2010.04.16 15:46:19.
