data_PCOD8299052
_publ_section_title
;
Structure prediction by ZEFSAII (Michael W. Deem and Ramdas Pophale) SiO2 
 PCOD8299052
Probable space group: I M M A
;
_chemical_formula_sum "Si O2"
_cell_formula_units_Z 96
_cell_length_a 8.882673
_cell_length_b 19.547014
_cell_length_c 30.220371
_cell_angle_alpha 90.000000
_cell_angle_beta 90.000000
_cell_angle_gamma 90.000000
_cell_volume 5247.154963
_symmetry_space_group_name_H-M "I M M A"
_symmetry_group_IT_number 74
_symmetry_cell_setting 'orthorhombic'
loop_
_space_group_symop_operation_xyz
x,y,z
-x,1/2-y,z
x,-y,-z
-x,1/2+y,-z
-x,-y,-z
x,1/2+y,-z
-x,y,z
x,1/2-y,z
1/2+x,1/2+y,1/2+z
1/2-x,-y,1/2+z
1/2+x,1/2-y,1/2-z
1/2-x,y,1/2-z
1/2-x,1/2-y,1/2-z
1/2+x,y,1/2-z
1/2-x,1/2+y,1/2+z
1/2+x,-y,1/2+z
loop_
_atom_site_type_symbol
_atom_site_label
_atom_site_fract_x
_atom_site_fract_y
_atom_site_fract_z
Si Si1 0.825440 0.459955 0.371001
Si Si2 0.322718 0.457549 0.957794
Si Si3 0.322254 0.542367 0.298134
Si Si4 0.676317 0.824097 0.202207
Si Si5 0.676720 0.826818 0.488837
Si Si6 0.171901 0.826546 0.580581
O O1 0.773978 0.503533 0.413490
O O2 0.724505 0.479299 0.328979
O O3 0.793168 0.379937 0.380346
O O4 0.000000 0.473264 0.359919
O O5 0.500000 0.449666 0.961169
O O6 0.252698 0.381627 0.956332
O O7 0.261059 0.500000 0.000000
O O8 0.500000 0.546474 0.293439
O O9 0.250000 0.532071 0.250000
O O10 0.258180 0.612089 0.321772
O O11 0.500000 0.840181 0.206595
O O12 0.701568 0.750000 0.178200
O O13 0.750000 0.819611 0.250000
O O14 0.500000 0.834323 0.484618
O O15 0.729355 0.750000 0.475544
O O16 0.722673 0.842474 0.539166
O O17 0.199126 0.750000 0.599119
O O18 0.000000 0.836567 0.564188
#
# Coordination Sequence:
#
# PCOD8299052 Si02
#       6
#    16  16  16  16  16  16
#     4  10  20  35  55  80 109 137 175 222 266 318
#     4  10  19  34  54  78 105 139 177 215 261 313
#     4  11  22  36  55  78 106 140 179 221 270 319
#     4   9  16  28  49  75 101 130 167 211 258 307
#     4  10  20  32  48  74 109 146 181 220 264 309
#     4   9  17  32  55  79 104 138 178 218 261 315
#
# _framework density 18.295629000000002
#
# number of rings (size 3 to 8) (size 9 to 14) (size 15 to 20)
#    0.000    2.167    1.667    3.500    0.000    3.667 
#    0.000    0.833    0.000    1.500    0.000    0.000 
#    0.000    0.000    0.000    0.000    0.000    0.000 
#
# Total GULP energy -595036.276650 kJ/mol
# GULP energy per Si atom -12396.589097 kJ/mol
# Density = 1.825399 g / cm^3
# Si number density = 18.295629 Si / 1000 Ang^3
#
#
#
# Elastic Constant Matrix: (Units=GPa)
#
#
# Indices 1 2 3 4 5 6 
#
# 1 79.4852 45.4472 34.2425 0.0000 0.0000 0.0000
# 2 45.4472 138.4206 48.7488 0.0000 0.0000 0.0000
# 3 34.2425 48.7488 66.7848 0.0000 0.0000 0.0000
# 4 0.0000 0.0000 0.0000 25.2865 0.0000 0.0000
# 5 0.0000 0.0000 0.0000 0.0000 23.4225 0.0000
# 6 0.0000 0.0000 0.0000 0.0000 0.0000 26.1296
#
#
#
# Elastic Compliance Matrix: (Units=1/GPa)
#
#
# Indices 1 2 3 4 5 6 
#
# 1 0.017283 -0.003437 -0.006353 0.000000 0.000000 0.000000
# 2 -0.003437 0.010408 -0.005835 0.000000 0.000000 0.000000
# 3 -0.006353 -0.005835 0.022490 0.000000 0.000000 0.000000
# 4 0.000000 0.000000 0.000000 0.039547 0.000000 0.000000
# 5 0.000000 0.000000 0.000000 0.000000 0.042694 0.000000
# 6 0.000000 0.000000 0.000000 0.000000 0.000000 0.038271
#
#
# Mechanical properties :
#
#
# Convention : Reuss Voigt Hill
#
# Bulk Modulus (GPa) = 52.82218 60.17417 56.49817
# Shear Modulus (GPa) = 24.00950 25.38453 24.69701
#
# Velocity S-wave (km/s) = 3.62651 3.72891 3.67807
# Velocity P-wave (km/s) = 6.81686 7.17642 6.99895
#
# Compressibility (1/GPa) = 0.01893144
#
# Stress axis : x y z
#
# Youngs Moduli (GPa) = 57.86045 96.08248 44.46518
#
# Poissons Ratio (x) = 0.33026 0.28247
# Poissons Ratio (y) = 0.19888 0.25944
# Poissons Ratio (z) = 0.36756 0.56060
#
# Static dielectric constant tensor:
#      x y z
#    x 3.330650 0.000000 0.000000 
#    y 0.000000 3.961780 0.000000 
#    z 0.000000 0.000000 2.967390 
# 
# 
# High freq. dielectric constant tensor:
#      x y z
#    x 1.709100 0.000000 0.000000 
#    y 0.000000 1.724900 0.000000 
#    z 0.000000 0.000000 1.663480 
# 
# From -- ./inp_files/64330.got.cif
#   From: 2010.03.12/outbox.cif.g09.slc.cpg/sg74_33_cif.got.tgz:64330.got - 2010.04.16 15:46:19.
