data_PCOD8299581
_publ_section_title
;
Structure prediction by ZEFSAII (Michael W. Deem and Ramdas Pophale) SiO2 
 PCOD8299581
Probable space group: I M M A
;
_chemical_formula_sum "Si O2"
_cell_formula_units_Z 96
_cell_length_a 21.092554
_cell_length_b 9.265086
_cell_length_c 30.681129
_cell_angle_alpha 90.000000
_cell_angle_beta 90.000000
_cell_angle_gamma 90.000000
_cell_volume 5995.838979
_symmetry_space_group_name_H-M "I M M A"
_symmetry_group_IT_number 74
_symmetry_cell_setting 'orthorhombic'
loop_
_space_group_symop_operation_xyz
x,y,z
-x,1/2-y,z
x,-y,-z
-x,1/2+y,-z
-x,-y,-z
x,1/2+y,-z
-x,y,z
x,1/2-y,z
1/2+x,1/2+y,1/2+z
1/2-x,-y,1/2+z
1/2+x,1/2-y,1/2-z
1/2-x,y,1/2-z
1/2-x,1/2-y,1/2-z
1/2+x,y,1/2-z
1/2-x,1/2+y,1/2+z
1/2+x,-y,1/2+z
loop_
_atom_site_type_symbol
_atom_site_label
_atom_site_fract_x
_atom_site_fract_y
_atom_site_fract_z
Si Si1 0.703861 0.921407 0.542698
Si Si2 0.068144 0.415017 0.071615
Si Si3 0.237331 0.086001 0.873079
Si Si4 0.594612 0.087364 0.653776
Si Si5 0.930761 0.921509 0.249430
Si Si6 0.699929 0.422002 0.785967
O O1 0.713745 0.750000 0.539095
O O2 0.629263 0.968625 0.544581
O O3 0.732021 0.000000 0.500000
O O4 0.740766 0.981064 0.585054
O O5 0.080603 0.250000 0.083467
O O6 0.060685 0.497245 0.116702
O O7 0.000000 0.434898 0.046526
O O8 0.253391 0.250000 0.887972
O O9 0.169752 0.080776 0.850176
O O10 0.284547 0.028513 0.835419
O O11 0.569676 0.250000 0.649254
O O12 0.574837 0.020868 0.700111
O O13 0.925396 0.750000 0.248773
O O14 0.871196 0.982560 0.276903
O O15 0.000000 0.969519 0.268492
O O16 0.702586 0.250000 0.783682
O O17 0.750000 0.483316 0.750000
#
# Coordination Sequence:
#
# PCOD8299581 Si02
#       6
#    16  16  16  16  16  16
#     4  10  20  33  47  62  82 106 137 179 224 264
#     4   9  18  30  41  55  79 110 140 173 217 262
#     4   9  16  27  45  64  83 111 147 180 214 256
#     4   9  15  24  39  59  81 108 145 185 216 244
#     4   9  15  21  33  58  89 115 144 185 221 244
#     4   9  14  23  39  60  86 118 151 180 212 254
#
# _framework density 16.011105000000001
#
# number of rings (size 3 to 8) (size 9 to 14) (size 15 to 20)
#    0.000    2.833    1.667    1.000    0.000    2.000 
#    0.000    0.000    0.000    1.500    0.000    0.000 
#    0.000    0.667    0.000    1.167    0.000    1.667 
#
# Total GULP energy -594695.756571 kJ/mol
# GULP energy per Si atom -12389.494929 kJ/mol
# Density = 1.597466 g / cm^3
# Si number density = 16.011105 Si / 1000 Ang^3
#
#
#
# Elastic Constant Matrix: (Units=GPa)
#
#
# Indices 1 2 3 4 5 6 
#
# 1 78.3367 14.5792 47.4906 0.0000 0.0000 0.0000
# 2 14.5792 35.5506 34.6560 0.0000 0.0000 0.0000
# 3 47.4906 34.6560 106.0085 0.0000 0.0000 0.0000
# 4 0.0000 0.0000 0.0000 16.2749 0.0000 0.0000
# 5 0.0000 0.0000 0.0000 0.0000 8.0837 0.0000
# 6 0.0000 0.0000 0.0000 0.0000 0.0000 11.8548
#
#
#
# Elastic Compliance Matrix: (Units=1/GPa)
#
#
# Indices 1 2 3 4 5 6 
#
# 1 0.017536 0.000685 -0.008080 0.000000 0.000000 0.000000
# 2 0.000685 0.041313 -0.013813 0.000000 0.000000 0.000000
# 3 -0.008080 -0.013813 0.017569 0.000000 0.000000 0.000000
# 4 0.000000 0.000000 0.000000 0.061444 0.000000 0.000000
# 5 0.000000 0.000000 0.000000 0.000000 0.123705 0.000000
# 6 0.000000 0.000000 0.000000 0.000000 0.000000 0.084354
#
#
# Mechanical properties :
#
#
# Convention : Reuss Voigt Hill
#
# Bulk Modulus (GPa) = 29.40954 45.92749 37.66851
# Shear Modulus (GPa) = 12.51025 15.45402 13.98214
#
# Velocity S-wave (km/s) = 2.79829 3.11015 2.95833
# Velocity P-wave (km/s) = 5.37110 6.45325 5.93688
#
# Compressibility (1/GPa) = 0.03400257
#
# Stress axis : x y z
#
# Youngs Moduli (GPa) = 57.02456 24.20521 56.91947
#
# Poissons Ratio (x) = -0.01658 0.45991
# Poissons Ratio (y) = -0.03907 0.78623
# Poissons Ratio (z) = 0.46076 0.33435
#
# Static dielectric constant tensor:
#      x y z
#    x 3.125970 0.000000 0.000000 
#    y 0.000000 2.747840 0.000000 
#    z 0.000000 0.000000 2.948820 
# 
# 
# High freq. dielectric constant tensor:
#      x y z
#    x 1.592280 0.000000 0.000000 
#    y 0.000000 1.581060 0.000000 
#    z 0.000000 0.000000 1.600770 
# 
# From -- ./inp_files/64683.got.cif
#   From: 2010.03.12/outbox.cif.g09.slc.cpg/sg74_33_cif.got.tgz:64683.got - 2010.04.16 15:46:19.
