data_PCOD8299364
_publ_section_title
;
Structure prediction by ZEFSAII (Michael W. Deem and Ramdas Pophale) SiO2 
 PCOD8299364
Probable space group: I M M A
;
_chemical_formula_sum "Si O2"
_cell_formula_units_Z 120
_cell_length_a 15.760912
_cell_length_b 13.771755
_cell_length_c 32.457626
_cell_angle_alpha 90.000000
_cell_angle_beta 90.000000
_cell_angle_gamma 90.000000
_cell_volume 7045.103600
_symmetry_space_group_name_H-M "I M M A"
_symmetry_group_IT_number 74
_symmetry_cell_setting 'orthorhombic'
loop_
_space_group_symop_operation_xyz
x,y,z
-x,1/2-y,z
x,-y,-z
-x,1/2+y,-z
-x,-y,-z
x,1/2+y,-z
-x,y,z
x,1/2-y,z
1/2+x,1/2+y,1/2+z
1/2-x,-y,1/2+z
1/2+x,1/2-y,1/2-z
1/2-x,y,1/2-z
1/2-x,1/2-y,1/2-z
1/2+x,y,1/2-z
1/2-x,1/2+y,1/2+z
1/2+x,-y,1/2+z
loop_
_atom_site_type_symbol
_atom_site_label
_atom_site_fract_x
_atom_site_fract_y
_atom_site_fract_z
Si Si1 0.808481 0.364473 0.978466
Si Si2 0.099989 0.451476 0.146319
Si Si3 0.597924 0.355168 0.063426
Si Si4 0.901547 0.643384 0.103953
Si Si5 0.256766 0.635438 0.702371
Si Si6 0.594661 0.635053 0.559764
Si Si7 0.831563 0.500000 0.500000
Si Si8 0.594738 0.864391 0.845811
O O1 0.792034 0.250000 0.979447
O O2 0.864865 0.393915 0.939461
O O3 0.721168 0.422049 0.973614
O O4 0.848573 0.402349 0.021692
O O5 0.116503 0.566896 0.140418
O O6 0.159470 0.414920 0.183243
O O7 0.129513 0.399941 0.103903
O O8 0.000000 0.429907 0.156064
O O9 0.500000 0.334434 0.067795
O O10 0.641019 0.250000 0.051340
O O11 0.628948 0.389317 0.108410
O O12 0.611286 0.439883 0.031148
O O13 0.864952 0.750000 0.116403
O O14 0.000000 0.651476 0.095293
O O15 0.266580 0.750000 0.694783
O O16 0.250000 0.608760 0.750000
O O17 0.168524 0.593983 0.683662
O O18 0.500000 0.593352 0.553630
O O19 0.593945 0.750000 0.559408
O O20 0.500000 0.909290 0.836744
O O21 0.587491 0.750000 0.839597
#
# Coordination Sequence:
#
# PCOD8299364 Si02
#       8
#    16  16  16  16  16  16   8  16
#     4  10  20  29  41  67  99 132 169 202 234 275
#     4  10  20  32  49  74 102 131 165 203 243 289
#     4   9  19  35  51  66  87 120 162 203 240 283
#     4   9  18  33  49  65  93 134 174 208 237 269
#     4  10  21  34  51  76 104 131 154 186 240 301
#     4   9  17  29  44  64  95 136 172 198 229 273
#     4  12  21  28  43  68  96 124 154 204 251 286
#     4   8  16  32  52  70  90 122 163 199 230 274
#
# _framework density 17.033106
#
# number of rings (size 3 to 8) (size 9 to 14) (size 15 to 20)
#    0.000    2.533    0.000    3.000    3.733    2.933 
#    0.000    4.000    0.000    0.400    0.000    0.000 
#    0.000    0.533    0.000    0.000    0.000    0.000 
#
# Total GULP energy -743572.573931 kJ/mol
# GULP energy per Si atom -12392.876232 kJ/mol
# Density = 1.699434 g / cm^3
# Si number density = 17.033106 Si / 1000 Ang^3
#
#
#
# Elastic Constant Matrix: (Units=GPa)
#
#
# Indices 1 2 3 4 5 6 
#
# 1 66.7222 26.0514 51.1001 0.0000 0.0000 0.0000
# 2 26.0514 39.0960 44.2331 0.0000 0.0000 0.0000
# 3 51.1001 44.2331 108.6288 0.0000 0.0000 0.0000
# 4 0.0000 0.0000 0.0000 18.7727 0.0000 0.0000
# 5 0.0000 0.0000 0.0000 0.0000 28.0955 0.0000
# 6 0.0000 0.0000 0.0000 0.0000 0.0000 20.0980
#
#
#
# Elastic Compliance Matrix: (Units=1/GPa)
#
#
# Indices 1 2 3 4 5 6 
#
# 1 0.024166 -0.006010 -0.008921 0.000000 0.000000 0.000000
# 2 -0.006010 0.048923 -0.017094 0.000000 0.000000 0.000000
# 3 -0.008921 -0.017094 0.020363 0.000000 0.000000 0.000000
# 4 0.000000 0.000000 0.000000 0.053269 0.000000 0.000000
# 5 0.000000 0.000000 0.000000 0.000000 0.035593 0.000000
# 6 0.000000 0.000000 0.000000 0.000000 0.000000 0.049756
#
#
# Mechanical properties :
#
#
# Convention : Reuss Voigt Hill
#
# Bulk Modulus (GPa) = 34.01112 50.80181 42.40647
# Shear Modulus (GPa) = 16.34412 19.59738 17.97075
#
# Velocity S-wave (km/s) = 3.10102 3.39565 3.25167
# Velocity P-wave (km/s) = 5.72999 6.72785 6.24887
#
# Compressibility (1/GPa) = 0.02940214
#
# Stress axis : x y z
#
# Youngs Moduli (GPa) = 41.38002 20.44028 49.10948
#
# Poissons Ratio (x) = 0.12285 0.43809
# Poissons Ratio (y) = 0.24870 0.83948
# Poissons Ratio (z) = 0.36914 0.34941
#
# Static dielectric constant tensor:
#      x y z
#    x 3.232410 0.000000 0.000000 
#    y 0.000000 3.249840 0.000000 
#    z 0.000000 0.000000 3.068550 
# 
# 
# High freq. dielectric constant tensor:
#      x y z
#    x 1.654390 0.000000 0.000000 
#    y 0.000000 1.644410 0.000000 
#    z 0.000000 0.000000 1.633520 
# 
# From -- ./inp_files/72736.got.cif
#   From: 2010.03.12/outbox.cif.g09.slc.cpg/sg74_37_cif.got.tgz:72736.got - 2010.04.16 15:46:19.
