data_PCOD8299252
_publ_section_title
;
Structure prediction by ZEFSAII (Michael W. Deem and Ramdas Pophale) SiO2 
 PCOD8299252
Probable space group: I M M A
;
_chemical_formula_sum "Si O2"
_cell_formula_units_Z 96
_cell_length_a 22.377073
_cell_length_b 7.516134
_cell_length_c 28.672068
_cell_angle_alpha 90.000000
_cell_angle_beta 90.000000
_cell_angle_gamma 90.000000
_cell_volume 4822.328716
_symmetry_space_group_name_H-M "I M M A"
_symmetry_group_IT_number 74
_symmetry_cell_setting 'orthorhombic'
loop_
_space_group_symop_operation_xyz
x,y,z
-x,1/2-y,z
x,-y,-z
-x,1/2+y,-z
-x,-y,-z
x,1/2+y,-z
-x,y,z
x,1/2-y,z
1/2+x,1/2+y,1/2+z
1/2-x,-y,1/2+z
1/2+x,1/2-y,1/2-z
1/2-x,y,1/2-z
1/2-x,1/2-y,1/2-z
1/2+x,y,1/2-z
1/2-x,1/2+y,1/2+z
1/2+x,-y,1/2+z
loop_
_atom_site_type_symbol
_atom_site_label
_atom_site_fract_x
_atom_site_fract_y
_atom_site_fract_z
Si Si1 0.643157 0.953158 0.551653
Si Si2 0.930508 0.543463 0.862034
Si Si3 0.112484 0.750000 0.206738
Si Si4 0.742469 0.046349 0.101252
Si Si5 0.740728 0.750000 0.325982
Si Si6 0.625127 0.750000 0.189714
Si Si7 0.500000 0.956798 0.945975
Si Si8 0.390318 0.541613 0.885670
O O1 0.629892 0.750000 0.559082
O O2 0.604135 0.041402 0.593004
O O3 0.713951 0.998600 0.557539
O O4 0.621428 0.000000 0.500000
O O5 0.914044 0.750000 0.851810
O O6 0.912799 0.427820 0.817125
O O7 0.000000 0.521824 0.872814
O O8 0.184647 0.750000 0.208322
O O9 0.091339 0.750000 0.260764
O O10 0.750648 0.250000 0.117105
O O11 0.673336 0.007294 0.088528
O O12 0.764453 0.927887 0.143675
O O13 0.803976 0.750000 0.299794
O O14 0.606246 0.572553 0.161555
O O15 0.500000 0.750000 0.938601
O O16 0.559376 0.032228 0.921080
O O17 0.500000 0.000000 0.000000
O O18 0.398696 0.750000 0.872988
#
# Coordination Sequence:
#
# PCOD8299252 Si02
#       8
#    16  16   8  16   8   8   8  16
#     4  10  21  34  56  85 113 151 196 244 304 355
#     4  10  23  43  60  81 119 160 201 252 300 359
#     4  12  22  38  66  91 118 155 206 249 303 362
#     4   9  18  35  56  80 115 159 192 237 299 354
#     4  10  19  35  62  86 123 152 188 248 300 361
#     4  10  23  38  61  96 120 160 200 245 311 347
#     4  10  22  38  62  90 118 164 204 243 305 355
#     4   9  20  40  59  83 124 160 197 249 292 358
#
# _framework density 19.907394
#
# number of rings (size 3 to 8) (size 9 to 14) (size 15 to 20)
#    0.000    2.167    1.667    0.500    3.500    1.667 
#    3.000    0.000    0.000    5.000    0.000    0.000 
#    0.000    0.000    0.000    0.000    0.000    0.000 
#
# Total GULP energy -594896.896028 kJ/mol
# GULP energy per Si atom -12393.685334 kJ/mol
# Density = 1.986208 g / cm^3
# Si number density = 19.907394 Si / 1000 Ang^3
#
#
#
# Elastic Constant Matrix: (Units=GPa)
#
#
# Indices 1 2 3 4 5 6 
#
# 1 120.8455 39.7773 66.3065 0.0000 0.0000 0.0000
# 2 39.7773 78.4128 46.6034 0.0000 0.0000 0.0000
# 3 66.3065 46.6034 149.2983 0.0000 0.0000 0.0000
# 4 0.0000 0.0000 0.0000 25.7324 0.0000 0.0000
# 5 0.0000 0.0000 0.0000 0.0000 19.1247 0.0000
# 6 0.0000 0.0000 0.0000 0.0000 0.0000 22.3260
#
#
#
# Elastic Compliance Matrix: (Units=1/GPa)
#
#
# Indices 1 2 3 4 5 6 
#
# 1 0.011669 -0.003486 -0.004094 0.000000 0.000000 0.000000
# 2 -0.003486 0.016699 -0.003664 0.000000 0.000000 0.000000
# 3 -0.004094 -0.003664 0.009660 0.000000 0.000000 0.000000
# 4 0.000000 0.000000 0.000000 0.038862 0.000000 0.000000
# 5 0.000000 0.000000 0.000000 0.000000 0.052289 0.000000
# 6 0.000000 0.000000 0.000000 0.000000 0.000000 0.044791
#
#
# Mechanical properties :
#
#
# Convention : Reuss Voigt Hill
#
# Bulk Modulus (GPa) = 64.35445 72.65900 68.50673
# Shear Modulus (GPa) = 24.79683 26.49456 25.64569
#
# Velocity S-wave (km/s) = 3.53315 3.65209 3.59311
# Velocity P-wave (km/s) = 7.00295 7.37302 7.19037
#
# Compressibility (1/GPa) = 0.01553894
#
# Stress axis : x y z
#
# Youngs Moduli (GPa) = 85.69732 59.88254 103.51743
#
# Poissons Ratio (x) = 0.20876 0.42383
# Poissons Ratio (y) = 0.29875 0.37934
# Poissons Ratio (z) = 0.35087 0.21944
#
# Static dielectric constant tensor:
#      x y z
#    x 3.947310 0.000000 0.000000 
#    y 0.000000 3.875070 0.000000 
#    z 0.000000 0.000000 -7.432830 
# 
# 
# High freq. dielectric constant tensor:
#      x y z
#    x 1.787790 0.000000 0.000000 
#    y 0.000000 1.783030 0.000000 
#    z 0.000000 0.000000 1.750480 
# 
# From -- ./inp_files/61979.got.cif
#   From: 2010.03.12/outbox.cif.g09.slc.cpg/sg74_31_cif.got.tgz:61979.got - 2010.04.16 15:46:19.
