data_PCOD8299544
_publ_section_title
;
Structure prediction by ZEFSAII (Michael W. Deem and Ramdas Pophale) SiO2 
 PCOD8299544
Probable space group: I M M A
;
_chemical_formula_sum "Si O2"
_cell_formula_units_Z 104
_cell_length_a 9.205909
_cell_length_b 25.356784
_cell_length_c 22.012460
_cell_angle_alpha 90.000000
_cell_angle_beta 90.000000
_cell_angle_gamma 90.000000
_cell_volume 5138.417979
_symmetry_space_group_name_H-M "I M M A"
_symmetry_group_IT_number 74
_symmetry_cell_setting 'orthorhombic'
loop_
_space_group_symop_operation_xyz
x,y,z
-x,1/2-y,z
x,-y,-z
-x,1/2+y,-z
-x,-y,-z
x,1/2+y,-z
-x,y,z
x,1/2-y,z
1/2+x,1/2+y,1/2+z
1/2-x,-y,1/2+z
1/2+x,1/2-y,1/2-z
1/2-x,y,1/2-z
1/2-x,1/2-y,1/2-z
1/2+x,y,1/2-z
1/2-x,1/2+y,1/2+z
1/2+x,-y,1/2+z
loop_
_atom_site_type_symbol
_atom_site_label
_atom_site_fract_x
_atom_site_fract_y
_atom_site_fract_z
Si Si1 0.670901 0.465553 0.186280
Si Si2 0.332627 0.642641 0.874942
Si Si3 0.667770 0.477982 0.936563
Si Si4 0.668477 0.856792 0.083826
Si Si5 0.667936 0.689996 0.522442
Si Si6 0.335267 0.750000 0.810022
Si Si7 0.165702 0.190989 0.812075
O O1 0.500000 0.475845 0.196309
O O2 0.750000 0.480793 0.250000
O O3 0.704754 0.404375 0.171181
O O4 0.731166 0.498203 0.127260
O O5 0.500000 0.638736 0.896481
O O6 0.229667 0.643912 0.933696
O O7 0.293854 0.697884 0.845435
O O8 0.500000 0.494847 0.936202
O O9 0.691560 0.415932 0.938998
O O10 0.738109 0.500000 0.000000
O O11 0.500000 0.842573 0.091526
O O12 0.750727 0.851183 0.147157
O O13 0.742179 0.814972 0.039187
O O14 0.500000 0.677921 0.509793
O O15 0.689441 0.750000 0.546999
O O16 0.500000 0.750000 0.790874
O O17 0.250000 0.750000 0.750000
O O18 0.170186 0.250000 0.840326
O O19 0.250000 0.190803 0.750000
O O20 0.000000 0.172409 0.802690
#
# Coordination Sequence:
#
# PCOD8299544 Si02
#       7
#    16  16  16  16  16   8  16
#     4  10  21  38  61  87 117 154 194 241 296 350
#     4  10  20  36  57  81 111 150 193 233 277 335
#     4   9  19  38  61  85 113 150 199 247 293 347
#     4  11  22  36  59  86 113 149 191 238 288 346
#     4  11  23  37  55  83 118 153 189 236 291 344
#     4  10  20  32  50  78 110 142 183 226 269 324
#     4  10  21  38  59  84 117 153 189 232 284 346
#
# _framework density 20.239692999999999
#
# number of rings (size 3 to 8) (size 9 to 14) (size 15 to 20)
#    0.000    1.846    0.769    3.231    0.000    8.000 
#    0.000    3.077    0.000    3.231    0.000    0.000 
#    0.000    0.000    0.000    0.000    0.000    0.000 
#
# Total GULP energy -644546.141378 kJ/mol
# GULP energy per Si atom -12395.118103 kJ/mol
# Density = 2.019363 g / cm^3
# Si number density = 20.239693 Si / 1000 Ang^3
#
#
#
# Elastic Constant Matrix: (Units=GPa)
#
#
# Indices 1 2 3 4 5 6 
#
# 1 97.6725 34.2434 60.2502 0.0000 0.0000 0.0000
# 2 34.2434 53.3229 33.5714 0.0000 0.0000 0.0000
# 3 60.2502 33.5714 129.9881 0.0001 0.0000 0.0000
# 4 0.0000 0.0000 0.0001 35.6918 0.0000 0.0000
# 5 0.0000 0.0000 0.0000 0.0000 41.1736 0.0000
# 6 0.0000 0.0000 0.0000 0.0000 0.0000 19.2563
#
#
#
# Elastic Compliance Matrix: (Units=1/GPa)
#
#
# Indices 1 2 3 4 5 6 
#
# 1 0.016147 -0.006756 -0.005740 0.000000 0.000000 0.000000
# 2 -0.006756 0.025222 -0.003382 0.000000 0.000000 0.000000
# 3 -0.005740 -0.003382 0.011227 0.000000 0.000000 0.000000
# 4 0.000000 0.000000 0.000000 0.028018 0.000000 0.000000
# 5 0.000000 0.000000 0.000000 0.000000 0.024287 0.000000
# 6 0.000000 0.000000 0.000000 0.000000 0.000000 0.051931
#
#
# Mechanical properties :
#
#
# Convention : Reuss Voigt Hill
#
# Bulk Modulus (GPa) = 47.98466 59.67926 53.83196
# Shear Modulus (GPa) = 25.57084 29.41892 27.49488
#
# Velocity S-wave (km/s) = 3.55829 3.81665 3.68973
# Velocity P-wave (km/s) = 6.37507 6.99805 6.69381
#
# Compressibility (1/GPa) = 0.02083999
#
# Stress axis : x y z
#
# Youngs Moduli (GPa) = 61.92928 39.64803 89.07194
#
# Poissons Ratio (x) = 0.26787 0.51123
# Poissons Ratio (y) = 0.41840 0.30128
# Poissons Ratio (z) = 0.35545 0.13411
#
# Static dielectric constant tensor:
#      x y z
#    x 3.491730 0.000000 0.000000 
#    y 0.000000 3.680300 0.000000 
#    z 0.000000 0.000000 2.157250 
# 
# 
# High freq. dielectric constant tensor:
#      x y z
#    x 1.772670 0.000000 0.000000 
#    y 0.000000 1.788630 0.000000 
#    z 0.000000 0.000000 1.800830 
# 
# From -- ./inp_files/49261.got.cif
#   From: 2010.03.12/outbox.cif.g09.slc.cpg/sg74_25_cif.got.tgz:49261.got - 2010.04.16 15:46:19.
