data_PCOD8299078
_publ_section_title
;
Structure prediction by ZEFSAII (Michael W. Deem and Ramdas Pophale) SiO2 
 PCOD8299078
Probable space group: I M M A
;
_chemical_formula_sum "Si O2"
_cell_formula_units_Z 56
_cell_length_a 35.902385
_cell_length_b 8.631521
_cell_length_c 9.892153
_cell_angle_alpha 90.000000
_cell_angle_beta 90.000000
_cell_angle_gamma 90.000000
_cell_volume 3065.500958
_symmetry_space_group_name_H-M "I M M A"
_symmetry_group_IT_number 74
_symmetry_cell_setting 'orthorhombic'
loop_
_space_group_symop_operation_xyz
x,y,z
-x,1/2-y,z
x,-y,-z
-x,1/2+y,-z
-x,-y,-z
x,1/2+y,-z
-x,y,z
x,1/2-y,z
1/2+x,1/2+y,1/2+z
1/2-x,-y,1/2+z
1/2+x,1/2-y,1/2-z
1/2-x,y,1/2-z
1/2-x,1/2-y,1/2-z
1/2+x,y,1/2-z
1/2-x,1/2+y,1/2+z
1/2+x,-y,1/2+z
loop_
_atom_site_type_symbol
_atom_site_label
_atom_site_fract_x
_atom_site_fract_y
_atom_site_fract_z
Si Si1 0.919289 0.933482 0.349372
Si Si2 0.000000 0.429187 0.644812
Si Si3 0.139610 0.432881 0.144901
Si Si4 0.281158 0.932942 0.356485
O O1 0.911784 0.750000 0.351379
O O2 0.960529 0.973763 0.284973
O O3 0.915522 0.000000 0.500000
O O4 0.889861 0.018070 0.256216
O O5 0.000000 0.500000 0.500000
O O6 0.000000 0.250000 0.618012
O O7 0.141459 0.250000 0.133219
O O8 0.179721 0.495939 0.190651
O O9 0.127675 0.500000 0.000000
O O10 0.285703 0.750000 0.367641
O O11 0.250000 0.982804 0.250000
O O12 0.268519 0.000000 0.500000
#
# Coordination Sequence:
#
# PCOD8299078 Si02
#       4
#    16   8  16  16
#     4  10  19  34  55  81 109 139 178 220 264 313
#     4   8  16  30  51  76 105 138 172 216 264 310
#     4  11  22  37  56  78 107 143 178 217 266 316
#     4  10  21  37  57  80 106 137 174 216 262 313
#
# _framework density 18.267814000000001
#
# number of rings (size 3 to 8) (size 9 to 14) (size 15 to 20)
#    0.000    2.000    0.000    6.000    0.000    4.571 
#    0.000    3.571    0.000    0.000    0.000    0.000 
#    0.000    0.000    0.000    0.000    0.000    0.000 
#
# Total GULP energy -347026.360727 kJ/mol
# GULP energy per Si atom -12393.798597 kJ/mol
# Density = 1.822624 g / cm^3
# Si number density = 18.267814 Si / 1000 Ang^3
#
#
#
# Elastic Constant Matrix: (Units=GPa)
#
#
# Indices 1 2 3 4 5 6 
#
# 1 159.5711 61.6725 94.5711 0.0000 0.0000 0.0000
# 2 61.6725 96.7333 42.3175 0.0000 0.0000 0.0000
# 3 94.5711 42.3175 94.5390 0.0000 0.0000 0.0000
# 4 0.0000 0.0000 0.0000 32.6196 0.0000 0.0000
# 5 0.0000 0.0000 0.0000 0.0000 35.1141 0.0000
# 6 0.0000 0.0000 0.0000 0.0000 0.0000 -17.1557
#
#
#
# Elastic Compliance Matrix: (Units=1/GPa)
#
#
# Indices 1 2 3 4 5 6 
#
# 1 0.016623 -0.004133 -0.014778 0.000000 0.000000 0.000000
# 2 -0.004133 0.013882 -0.002080 0.000000 0.000000 0.000000
# 3 -0.014778 -0.002080 0.026292 0.000000 0.000000 0.000000
# 4 0.000000 0.000000 0.000000 0.030656 0.000000 0.000000
# 5 0.000000 0.000000 0.000000 0.000000 0.028479 0.000000
# 6 0.000000 0.000000 0.000000 0.000000 0.000000 -0.058290
#
#
# Mechanical properties :
#
#
# Convention : Reuss Voigt Hill
#
# Bulk Modulus (GPa) = 67.49889 83.10729 75.30309
# Shear Modulus (GPa) = 47.81842 20.26776 34.04309
#
# Velocity S-wave (km/s) = 5.12183 3.33450 4.32158
# Velocity P-wave (km/s) = 8.48572 7.77289 8.13711
#
# Compressibility (1/GPa) = 0.01481506
#
# Stress axis : x y z
#
# Youngs Moduli (GPa) = 60.15941 72.03359 38.03447
#
# Poissons Ratio (x) = 0.29769 0.56208
# Poissons Ratio (y) = 0.24862 0.07911
# Poissons Ratio (z) = 0.88905 0.14982
#
# Static dielectric constant tensor:
#      x y z
#    x 3.340100 0.000000 0.000000 
#    y 0.000000 3.499810 0.000000 
#    z 0.000000 0.000000 2.838590 
# 
# 
# High freq. dielectric constant tensor:
#      x y z
#    x 1.727110 0.000000 0.000000 
#    y 0.000000 1.728200 0.000000 
#    z 0.000000 0.000000 1.686710 
# 
# From -- ./inp_files/17485.got.cif
#   From: 2010.03.12/outbox.cif.g09.slc.cpg/sg74_9_cif.got.tgz:17485.got - 2010.04.16 15:46:19.
