data_PCOD8299700
_publ_section_title
;
Structure prediction by ZEFSAII (Michael W. Deem and Ramdas Pophale) SiO2 
 PCOD8299700
Probable space group: I M M A
;
_chemical_formula_sum "Si O2"
_cell_formula_units_Z 80
_cell_length_a 8.625648
_cell_length_b 25.876291
_cell_length_c 18.338563
_cell_angle_alpha 90.000000
_cell_angle_beta 90.000000
_cell_angle_gamma 90.000000
_cell_volume 4093.163185
_symmetry_space_group_name_H-M "I M M A"
_symmetry_group_IT_number 74
_symmetry_cell_setting 'orthorhombic'
loop_
_space_group_symop_operation_xyz
x,y,z
-x,1/2-y,z
x,-y,-z
-x,1/2+y,-z
-x,-y,-z
x,1/2+y,-z
-x,y,z
x,1/2-y,z
1/2+x,1/2+y,1/2+z
1/2-x,-y,1/2+z
1/2+x,1/2-y,1/2-z
1/2-x,y,1/2-z
1/2-x,1/2-y,1/2-z
1/2+x,y,1/2-z
1/2-x,1/2+y,1/2+z
1/2+x,-y,1/2+z
loop_
_atom_site_type_symbol
_atom_site_label
_atom_site_fract_x
_atom_site_fract_y
_atom_site_fract_z
Si Si1 0.815929 0.442745 0.418076
Si Si2 0.815501 0.557116 0.418458
Si Si3 0.682390 0.152930 0.828927
Si Si4 0.315899 0.845386 0.829841
Si Si5 0.817968 0.750000 0.916065
Si Si6 0.681944 0.250000 0.926624
O O1 0.760526 0.499950 0.392763
O O2 0.753505 0.431559 0.499771
O O3 0.752185 0.399685 0.362359
O O4 0.000000 0.440682 0.419631
O O5 0.747991 0.600067 0.363409
O O6 0.000000 0.560022 0.419476
O O7 0.500000 0.148892 0.821189
O O8 0.750000 0.163001 0.750000
O O9 0.729647 0.199940 0.880712
O O10 0.500000 0.844241 0.826757
O O11 0.250000 0.837017 0.750000
O O12 0.258180 0.800348 0.881695
O O13 0.000000 0.750000 0.900656
O O14 0.784486 0.750000 0.001456
O O15 0.500000 0.250000 0.946793
#
# Coordination Sequence:
#
# PCOD8299700 Si02
#       6
#    16  16  16  16   8   8
#     4   8  15  29  52  77 103 137 180 223 263 309
#     4   8  14  28  50  77 104 137 181 224 263 309
#     4  10  20  33  52  78 111 145 180 220 265 314
#     4  11  22  37  56  80 110 143 177 218 265 316
#     4  12  25  40  59  82 105 134 173 220 269 322
#     4  10  21  38  58  80 105 140 182 222 263 314
#
# _framework density 19.544785999999998
#
# number of rings (size 3 to 8) (size 9 to 14) (size 15 to 20)
#    0.000    2.400    0.000    4.500    0.000    4.800 
#    0.000    0.000    0.000    1.200    0.000    8.400 
#    0.000    0.000    0.000    0.000    0.000    0.000 
#
# Total GULP energy -495922.897277 kJ/mol
# GULP energy per Si atom -12398.072432 kJ/mol
# Density = 1.950030 g / cm^3
# Si number density = 19.544786 Si / 1000 Ang^3
#
#
#
# Elastic Constant Matrix: (Units=GPa)
#
#
# Indices 1 2 3 4 5 6 
#
# 1 40.0823 32.5369 28.9850 0.0000 0.0000 -0.0001
# 2 32.5369 167.6032 78.7374 0.0000 0.0000 -0.0002
# 3 28.9850 78.7374 132.3608 0.0001 0.0000 -0.0015
# 4 0.0000 0.0000 0.0001 81.2260 0.0000 -0.0002
# 5 0.0000 0.0000 0.0000 0.0000 23.2081 0.0000
# 6 -0.0001 -0.0002 -0.0015 -0.0002 0.0000 157.0392
#
#
#
# Elastic Compliance Matrix: (Units=1/GPa)
#
#
# Indices 1 2 3 4 5 6 
#
# 1 0.031448 -0.003983 -0.004517 0.000000 0.000000 0.000000
# 2 -0.003983 0.008785 -0.004354 0.000000 0.000000 0.000000
# 3 -0.004517 -0.004354 0.011134 0.000000 0.000000 0.000000
# 4 0.000000 0.000000 0.000000 0.012311 0.000000 0.000000
# 5 0.000000 0.000000 0.000000 0.000000 0.043088 0.000000
# 6 0.000000 0.000000 0.000000 0.000000 0.000000 0.006368
#
#
# Mechanical properties :
#
#
# Convention : Reuss Voigt Hill
#
# Bulk Modulus (GPa) = 38.97173 68.95164 53.96169
# Shear Modulus (GPa) = 33.92208 65.61382 49.76795
#
# Velocity S-wave (km/s) = 4.17058 5.80034 5.05162
# Velocity P-wave (km/s) = 6.57074 8.95622 7.85457
#
# Compressibility (1/GPa) = 0.02565963
#
# Stress axis : x y z
#
# Youngs Moduli (GPa) = 31.79804 113.83055 89.81295
#
# Poissons Ratio (x) = 0.45337 0.40572
# Poissons Ratio (y) = 0.12665 0.39102
# Poissons Ratio (z) = 0.14365 0.49559
#
# Static dielectric constant tensor:
#      x y z
#    x 3.133990 0.000000 0.000000 
#    y 0.000000 4.095460 0.000000 
#    z 0.000000 0.000000 3.702790 
# 
# 
# High freq. dielectric constant tensor:
#      x y z
#    x 1.717000 0.000000 0.000000 
#    y 0.000000 1.784070 0.000000 
#    z 0.000000 0.000000 1.765580 
# 
# From -- ./inp_files/39819.got.cif
#   From: 2010.03.12/outbox.cif.g09.slc.cpg/sg74_20_cif.got.tgz:39819.got - 2010.04.16 15:46:19.
