data_PCOD8299424
_publ_section_title
;
Structure prediction by ZEFSAII (Michael W. Deem and Ramdas Pophale) SiO2 
 PCOD8299424
Probable space group: I M M A
;
_chemical_formula_sum "Si O2"
_cell_formula_units_Z 80
_cell_length_a 24.590046
_cell_length_b 8.770780
_cell_length_c 23.914122
_cell_angle_alpha 90.000000
_cell_angle_beta 90.000000
_cell_angle_gamma 90.000000
_cell_volume 5157.651566
_symmetry_space_group_name_H-M "I M M A"
_symmetry_group_IT_number 74
_symmetry_cell_setting 'orthorhombic'
loop_
_space_group_symop_operation_xyz
x,y,z
-x,1/2-y,z
x,-y,-z
-x,1/2+y,-z
-x,-y,-z
x,1/2+y,-z
-x,y,z
x,1/2-y,z
1/2+x,1/2+y,1/2+z
1/2-x,-y,1/2+z
1/2+x,1/2-y,1/2-z
1/2-x,y,1/2-z
1/2-x,1/2-y,1/2-z
1/2+x,y,1/2-z
1/2-x,1/2+y,1/2+z
1/2+x,-y,1/2+z
loop_
_atom_site_type_symbol
_atom_site_label
_atom_site_fract_x
_atom_site_fract_y
_atom_site_fract_z
Si Si1 0.662736 0.069484 0.058523
Si Si2 0.059911 0.572101 0.732894
Si Si3 0.329353 0.429639 0.273740
Si Si4 0.561716 0.927344 0.113463
Si Si5 0.270689 0.568929 0.837113
O O1 0.664458 0.250000 0.054560
O O2 0.704870 0.003846 0.105149
O O3 0.601409 0.019653 0.072848
O O4 0.681663 0.000000 0.000000
O O5 0.065508 0.750000 0.717155
O O6 0.106575 0.525278 0.778248
O O7 0.070058 0.477526 0.677172
O O8 0.000000 0.536976 0.758292
O O9 0.322155 0.250000 0.273609
O O10 0.307317 0.491314 0.214323
O O11 0.291673 0.489969 0.325235
O O12 0.500000 0.962059 0.094387
O O13 0.575539 0.750000 0.108691
O O14 0.273164 0.750000 0.840712
#
# Coordination Sequence:
#
# PCOD8299424 Si02
#       5
#    16  16  16  16  16
#     4  11  21  33  47  62  80 107 141 179 214 246
#     4   9  15  24  42  66  88 110 137 171 208 243
#     4   8  12  22  41  64  85 105 133 167 201 249
#     4  10  20  32  44  59  82 112 144 176 208 243
#     4   8  14  24  41  62  82 106 136 166 204 248
#
# _framework density 15.510935
#
# number of rings (size 3 to 8) (size 9 to 14) (size 15 to 20)
#    0.000    2.800    2.000    2.400    0.000    1.600 
#    0.000    0.000    0.000    3.600    0.000    0.000 
#    0.000    0.800    0.000    0.600    0.000    1.200 
#
# Total GULP energy -495531.423821 kJ/mol
# GULP energy per Si atom -12388.285596 kJ/mol
# Density = 1.547563 g / cm^3
# Si number density = 15.510935 Si / 1000 Ang^3
#
#
#
# Elastic Constant Matrix: (Units=GPa)
#
#
# Indices 1 2 3 4 5 6 
#
# 1 130.8040 19.9997 69.2778 0.0000 0.0000 0.0000
# 2 19.9997 33.0297 21.8298 0.0000 0.0000 0.0000
# 3 69.2778 21.8298 85.9752 0.0000 0.0000 0.0000
# 4 0.0000 0.0000 0.0000 14.6908 0.0000 0.0000
# 5 0.0000 0.0000 0.0000 0.0000 23.6057 0.0000
# 6 0.0000 0.0000 0.0000 0.0000 0.0000 9.8173
#
#
#
# Elastic Compliance Matrix: (Units=1/GPa)
#
#
# Indices 1 2 3 4 5 6 
#
# 1 0.013374 -0.001172 -0.010479 0.000000 0.000000 0.000000
# 2 -0.001172 0.036484 -0.008319 0.000000 0.000000 0.000000
# 3 -0.010479 -0.008319 0.022188 0.000000 0.000000 0.000000
# 4 0.000000 0.000000 0.000000 0.068070 0.000000 0.000000
# 5 0.000000 0.000000 0.000000 0.000000 0.042363 0.000000
# 6 0.000000 0.000000 0.000000 0.000000 0.000000 0.101861
#
#
# Mechanical properties :
#
#
# Convention : Reuss Voigt Hill
#
# Bulk Modulus (GPa) = 31.14809 52.44705 41.79757
# Shear Modulus (GPa) = 14.92619 18.86954 16.89786
#
# Velocity S-wave (km/s) = 3.10546 3.49166 3.30421
# Velocity P-wave (km/s) = 5.74313 7.08110 6.44692
#
# Compressibility (1/GPa) = 0.03210470
#
# Stress axis : x y z
#
# Youngs Moduli (GPa) = 74.76955 27.40950 45.07027
#
# Poissons Ratio (x) = 0.03213 0.47230
# Poissons Ratio (y) = 0.08766 0.37493
# Poissons Ratio (z) = 0.78353 0.22802
#
# Static dielectric constant tensor:
#      x y z
#    x 3.435160 0.000000 0.000000 
#    y 0.000000 2.716020 0.000000 
#    z 0.000000 0.000000 2.864760 
# 
# 
# High freq. dielectric constant tensor:
#      x y z
#    x 1.603430 0.000000 0.000000 
#    y 0.000000 1.569360 0.000000 
#    z 0.000000 0.000000 1.550730 
# 
# From -- ./inp_files/46499.got.cif
#   From: 2010.03.12/outbox.cif.g09.slc.cpg/sg74_24_cif.got.tgz:46499.got - 2010.04.16 15:46:19.
