data_PCOD8299844
_publ_section_title
;
Structure prediction by ZEFSAII (Michael W. Deem and Ramdas Pophale) SiO2 
 PCOD8299844
Probable space group: I M M A
;
_chemical_formula_sum "Si O2"
_cell_formula_units_Z 104
_cell_length_a 20.133854
_cell_length_b 8.988000
_cell_length_c 32.595489
_cell_angle_alpha 90.000000
_cell_angle_beta 90.000000
_cell_angle_gamma 90.000000
_cell_volume 5898.580075
_symmetry_space_group_name_H-M "I M M A"
_symmetry_group_IT_number 74
_symmetry_cell_setting 'orthorhombic'
loop_
_space_group_symop_operation_xyz
x,y,z
-x,1/2-y,z
x,-y,-z
-x,1/2+y,-z
-x,-y,-z
x,1/2+y,-z
-x,y,z
x,1/2-y,z
1/2+x,1/2+y,1/2+z
1/2-x,-y,1/2+z
1/2+x,1/2-y,1/2-z
1/2-x,y,1/2-z
1/2-x,1/2-y,1/2-z
1/2+x,y,1/2-z
1/2-x,1/2+y,1/2+z
1/2+x,-y,1/2+z
loop_
_atom_site_type_symbol
_atom_site_label
_atom_site_fract_x
_atom_site_fract_y
_atom_site_fract_z
Si Si1 0.426269 0.074123 0.729707
Si Si2 0.000000 0.577529 0.042782
Si Si3 0.574243 0.073579 0.820926
Si Si4 0.667144 0.078389 0.656899
Si Si5 0.691858 0.921673 0.123856
Si Si6 0.762239 0.577990 0.542283
Si Si7 0.121785 0.080422 0.078518
O O1 0.500000 0.019349 0.714727
O O2 0.428147 0.250000 0.732716
O O3 0.411680 0.009541 0.775191
O O4 0.366443 0.025639 0.699540
O O5 0.064951 0.533555 0.067183
O O6 0.000000 0.750000 0.034825
O O7 0.000000 0.500000 0.000000
O O8 0.500000 0.027560 0.835075
O O9 0.581865 0.250000 0.819890
O O10 0.627700 0.009342 0.853154
O O11 0.647214 0.250000 0.646755
O O12 0.746935 0.062227 0.656044
O O13 0.640562 0.961419 0.624331
O O14 0.681903 0.750000 0.111853
O O15 0.700688 0.008369 0.081325
O O16 0.784396 0.500000 0.500000
O O17 0.782150 0.750000 0.539678
O O18 0.683361 0.557422 0.547844
O O19 0.096352 0.250000 0.076970
#
# Coordination Sequence:
#
# PCOD8299844 Si02
#       7
#    16   8  16  16  16  16  16
#     4   8  14  24  40  65  97 130 167 206 244 285
#     4  12  24  36  50  68  92 124 164 208 252 294
#     4   8  14  26  45  70  99 130 161 199 246 292
#     4   9  17  28  44  69  97 127 165 207 249 288
#     4   9  17  29  47  72  99 125 160 203 245 292
#     4  10  20  34  53  73  96 125 157 196 242 293
#     4  10  21  35  49  68  95 128 164 203 246 291
#
# _framework density 17.631361999999999
#
# number of rings (size 3 to 8) (size 9 to 14) (size 15 to 20)
#    0.000    2.769    0.000    3.000    1.077    3.692 
#    0.000    3.077    0.000    1.846    0.000    6.462 
#    0.000    0.000    0.000    0.000    0.000    0.000 
#
# Total GULP energy -644474.930309 kJ/mol
# GULP energy per Si atom -12393.748660 kJ/mol
# Density = 1.759123 g / cm^3
# Si number density = 17.631362 Si / 1000 Ang^3
#
#
#
# Elastic Constant Matrix: (Units=GPa)
#
#
# Indices 1 2 3 4 5 6 
#
# 1 107.6396 35.4157 73.8474 0.0000 0.0000 0.0000
# 2 35.4157 69.1104 39.0807 0.0000 0.0000 0.0000
# 3 73.8474 39.0807 118.5290 0.0000 0.0000 0.0000
# 4 0.0000 0.0000 0.0000 16.9857 0.0000 0.0000
# 5 0.0000 0.0000 0.0000 0.0000 20.1637 0.0000
# 6 0.0000 0.0000 0.0000 0.0000 0.0000 12.6650
#
#
#
# Elastic Compliance Matrix: (Units=1/GPa)
#
#
# Indices 1 2 3 4 5 6 
#
# 1 0.016820 -0.003311 -0.009388 0.000000 0.000000 0.000000
# 2 -0.003311 0.018437 -0.004016 0.000000 0.000000 0.000000
# 3 -0.009388 -0.004016 0.015610 0.000000 0.000000 0.000000
# 4 0.000000 0.000000 0.000000 0.058873 0.000000 0.000000
# 5 0.000000 0.000000 0.000000 0.000000 0.049594 0.000000
# 6 0.000000 0.000000 0.000000 0.000000 0.000000 0.078958
#
#
# Mechanical properties :
#
#
# Convention : Reuss Voigt Hill
#
# Bulk Modulus (GPa) = 57.34781 65.77408 61.56094
# Shear Modulus (GPa) = 18.01572 19.75856 18.88714
#
# Velocity S-wave (km/s) = 3.20003 3.35124 3.27651
# Velocity P-wave (km/s) = 6.80075 7.23606 7.02178
#
# Compressibility (1/GPa) = 0.01743746
#
# Stress axis : x y z
#
# Youngs Moduli (GPa) = 59.45193 54.23755 64.06155
#
# Poissons Ratio (x) = 0.17957 0.60141
# Poissons Ratio (y) = 0.19684 0.25729
# Poissons Ratio (z) = 0.55813 0.21783
#
# Static dielectric constant tensor:
#      x y z
#    x 3.369370 0.000000 0.000000 
#    y 0.000000 2.971970 0.000000 
#    z 0.000000 0.000000 4.509090 
# 
# 
# High freq. dielectric constant tensor:
#      x y z
#    x 1.671870 0.000000 0.000000 
#    y 0.000000 1.653160 0.000000 
#    z 0.000000 0.000000 1.679850 
# 
# From -- ./inp_files/73376.got.cif
#   From: 2010.03.12/outbox.cif.g09.slc.cpg/sg74_37_cif.got.tgz:73376.got - 2010.04.16 15:46:19.
