data_PCOD8299221
_publ_section_title
;
Structure prediction by ZEFSAII (Michael W. Deem and Ramdas Pophale) SiO2 
 PCOD8299221
Probable space group: I M M A
;
_chemical_formula_sum "Si O2"
_cell_formula_units_Z 80
_cell_length_a 19.138247
_cell_length_b 24.507555
_cell_length_c 9.032206
_cell_angle_alpha 90.000000
_cell_angle_beta 90.000000
_cell_angle_gamma 90.000000
_cell_volume 4236.390402
_symmetry_space_group_name_H-M "I M M A"
_symmetry_group_IT_number 74
_symmetry_cell_setting 'orthorhombic'
loop_
_space_group_symop_operation_xyz
x,y,z
-x,1/2-y,z
x,-y,-z
-x,1/2+y,-z
-x,-y,-z
x,1/2+y,-z
-x,y,z
x,1/2-y,z
1/2+x,1/2+y,1/2+z
1/2-x,-y,1/2+z
1/2+x,1/2-y,1/2-z
1/2-x,y,1/2-z
1/2-x,1/2-y,1/2-z
1/2+x,y,1/2-z
1/2-x,1/2+y,1/2+z
1/2+x,-y,1/2+z
loop_
_atom_site_type_symbol
_atom_site_label
_atom_site_fract_x
_atom_site_fract_y
_atom_site_fract_z
Si Si1 0.424484 0.564661 0.495617
Si Si2 0.779464 0.444972 0.909206
Si Si3 0.274591 0.750000 0.417827
Si Si4 0.077666 0.646539 0.751312
Si Si5 0.578734 0.250000 0.459178
Si Si6 0.214341 0.647718 0.590928
O O1 0.430199 0.500000 0.500000
O O2 0.500000 0.587610 0.435958
O O3 0.357750 0.581511 0.394981
O O4 0.411046 0.589951 0.658994
O O5 0.750000 0.458647 0.750000
O O6 0.786879 0.500000 0.000000
O O7 0.727156 0.405675 0.994341
O O8 0.250000 0.750000 0.250000
O O9 0.359579 0.750000 0.418362
O O10 0.243759 0.698389 0.501765
O O11 0.131072 0.651389 0.614864
O O12 0.000000 0.648857 0.682768
O O13 0.090155 0.696599 0.861483
O O14 0.500000 0.250000 0.529421
O O15 0.250000 0.643138 0.750000
#
# Coordination Sequence:
#
# PCOD8299221 Si02
#       6
#    16  16   8  16   8  16
#     4   9  18  33  55  80 111 151 196 235 288 359
#     4  11  23  37  58  86 117 152 197 244 294 348
#     4  12  24  38  59  91 124 160 198 241 291 354
#     4  10  20  35  59  89 117 153 197 245 298 356
#     4  10  19  35  58  86 117 155 204 239 283 359
#     4  12  21  38  62  86 117 152 194 247 295 345
#
# _framework density 18.884
#
# number of rings (size 3 to 8) (size 9 to 14) (size 15 to 20)
#    0.000    1.400    4.000    2.100    2.800    0.000 
#    0.000    2.000    0.000    1.200    0.000    0.000 
#    0.000    0.000    0.000    0.000    0.000    0.000 
#
# Total GULP energy -495757.705849 kJ/mol
# GULP energy per Si atom -12393.942646 kJ/mol
# Density = 1.884102 g / cm^3
# Si number density = 18.884000 Si / 1000 Ang^3
#
#
#
# Elastic Constant Matrix: (Units=GPa)
#
#
# Indices 1 2 3 4 5 6 
#
# 1 203.3546 25.1336 66.6529 0.0000 0.0000 0.0000
# 2 25.1336 92.6278 30.0042 0.0000 0.0000 0.0000
# 3 66.6529 30.0042 101.9641 0.0000 0.0000 0.0000
# 4 0.0000 0.0000 0.0000 17.9281 0.0000 0.0000
# 5 0.0000 0.0000 0.0000 0.0000 25.1955 0.0000
# 6 0.0000 0.0000 0.0000 0.0000 0.0000 25.5552
#
#
#
# Elastic Compliance Matrix: (Units=1/GPa)
#
#
# Indices 1 2 3 4 5 6 
#
# 1 0.006273 -0.000413 -0.003979 0.000000 0.000000 0.000000
# 2 -0.000413 0.011961 -0.003249 0.000000 0.000000 0.000000
# 3 -0.003979 -0.003249 0.013364 0.000000 0.000000 0.000000
# 4 0.000000 0.000000 0.000000 0.055778 0.000000 0.000000
# 5 0.000000 0.000000 0.000000 0.000000 0.039690 0.000000
# 6 0.000000 0.000000 0.000000 0.000000 0.000000 0.039131
#
#
# Mechanical properties :
#
#
# Convention : Reuss Voigt Hill
#
# Bulk Modulus (GPa) = 61.29389 71.28087 66.28738
# Shear Modulus (GPa) = 26.74973 32.14616 29.44794
#
# Velocity S-wave (km/s) = 3.76776 4.13037 3.95322
# Velocity P-wave (km/s) = 7.17333 7.78301 7.48438
#
# Compressibility (1/GPa) = 0.01631484
#
# Stress axis : x y z
#
# Youngs Moduli (GPa) = 159.42065 83.60806 74.82526
#
# Poissons Ratio (x) = 0.03455 0.29772
# Poissons Ratio (y) = 0.06587 0.24314
# Poissons Ratio (z) = 0.63431 0.27168
#
# Static dielectric constant tensor:
#      x y z
#    x 4.292740 0.000000 0.000000 
#    y 0.000000 3.648550 0.000000 
#    z 0.000000 0.000000 3.243970 
# 
# 
# High freq. dielectric constant tensor:
#      x y z
#    x 1.763300 0.000000 0.000000 
#    y 0.000000 1.749000 0.000000 
#    z 0.000000 0.000000 1.684380 
# 
# From -- ./inp_files/11010.got.cif
#   From: 2010.03.12/outbox.cif.g09.slc.cpg/sg74_6_cif.got.tgz:11010.got - 2010.04.16 15:46:19.
