data_PCOD8299197
_publ_section_title
;
Structure prediction by ZEFSAII (Michael W. Deem and Ramdas Pophale) SiO2 
 PCOD8299197
Probable space group: I M M A
;
_chemical_formula_sum "Si O2"
_cell_formula_units_Z 96
_cell_length_a 23.279992
_cell_length_b 8.853777
_cell_length_c 25.577855
_cell_angle_alpha 90.000000
_cell_angle_beta 90.000000
_cell_angle_gamma 90.000000
_cell_volume 5272.001522
_symmetry_space_group_name_H-M "I M M A"
_symmetry_group_IT_number 74
_symmetry_cell_setting 'orthorhombic'
loop_
_space_group_symop_operation_xyz
x,y,z
-x,1/2-y,z
x,-y,-z
-x,1/2+y,-z
-x,-y,-z
x,1/2+y,-z
-x,y,z
x,1/2-y,z
1/2+x,1/2+y,1/2+z
1/2-x,-y,1/2+z
1/2+x,1/2-y,1/2-z
1/2-x,y,1/2-z
1/2-x,1/2-y,1/2-z
1/2+x,y,1/2-z
1/2-x,1/2+y,1/2+z
1/2+x,-y,1/2+z
loop_
_atom_site_type_symbol
_atom_site_label
_atom_site_fract_x
_atom_site_fract_y
_atom_site_fract_z
Si Si1 0.124027 0.070959 0.847898
Si Si2 0.065379 0.427622 0.553543
Si Si3 0.744953 0.072831 0.691982
Si Si4 0.131378 0.572713 0.343791
Si Si5 0.934083 0.572671 0.945668
Si Si6 0.933702 0.924567 0.751126
O O1 0.121190 0.250000 0.853759
O O2 0.188234 0.009519 0.836155
O O3 0.105976 0.995571 0.901582
O O4 0.081665 0.021324 0.801854
O O5 0.088602 0.500000 0.500000
O O6 0.068726 0.250000 0.546811
O O7 0.105742 0.482152 0.600955
O O8 0.000000 0.480448 0.564914
O O9 0.736799 0.250000 0.698973
O O10 0.750000 0.000057 0.750000
O O11 0.800791 0.035649 0.657042
O O12 0.119553 0.750000 0.334363
O O13 0.102089 0.479621 0.298139
O O14 0.924583 0.750000 0.949019
O O15 0.000000 0.531682 0.932888
O O16 0.914680 0.500000 0.000000
O O17 0.920007 0.750000 0.762560
O O18 0.000000 0.950472 0.737852
#
# Coordination Sequence:
#
# PCOD8299197 Si02
#       6
#    16  16  16  16  16  16
#     4  11  21  35  57  81 108 144 184 221 267 326
#     4   9  18  32  52  77 103 134 171 212 259 310
#     4   9  17  33  55  79 106 141 180 220 266 313
#     4  10  19  35  57  78 103 137 181 223 263 319
#     4  10  21  38  59  83 112 144 181 227 277 328
#     4  11  23  35  49  76 112 142 172 220 276 323
#
# _framework density 18.209403999999999
#
# number of rings (size 3 to 8) (size 9 to 14) (size 15 to 20)
#    0.000    2.000    1.667    2.500    0.000    5.667 
#    0.000    5.000    0.000    2.000    0.000    0.000 
#    0.000    0.000    0.000    0.000    0.000    0.000 
#
# Total GULP energy -595301.566412 kJ/mol
# GULP energy per Si atom -12402.115967 kJ/mol
# Density = 1.816796 g / cm^3
# Si number density = 18.209404 Si / 1000 Ang^3
#
#
#
# Elastic Constant Matrix: (Units=GPa)
#
#
# Indices 1 2 3 4 5 6 
#
# 1 99.4962 33.6443 63.4243 0.0000 0.0000 0.0000
# 2 33.6443 41.1067 39.4891 0.0000 0.0000 0.0000
# 3 63.4243 39.4891 150.4781 0.0000 0.0000 0.0000
# 4 0.0000 0.0000 0.0000 35.4327 0.0000 0.0000
# 5 0.0000 0.0000 0.0000 0.0000 25.8278 0.0000
# 6 0.0000 0.0000 0.0000 0.0000 0.0000 22.6971
#
#
#
# Elastic Compliance Matrix: (Units=1/GPa)
#
#
# Indices 1 2 3 4 5 6 
#
# 1 0.015782 -0.008727 -0.004362 0.000000 0.000000 0.000000
# 2 -0.008727 0.037352 -0.006124 0.000000 0.000000 0.000000
# 3 -0.004362 -0.006124 0.010091 0.000000 0.000000 0.000000
# 4 0.000000 0.000000 0.000000 0.028222 0.000000 0.000000
# 5 0.000000 0.000000 0.000000 0.000000 0.038718 0.000000
# 6 0.000000 0.000000 0.000000 0.000000 0.000000 0.044058
#
#
# Mechanical properties :
#
#
# Convention : Reuss Voigt Hill
#
# Bulk Modulus (GPa) = 40.32203 62.68848 51.50525
# Shear Modulus (GPa) = 22.63301 27.09309 24.86305
#
# Velocity S-wave (km/s) = 3.52935 3.86147 3.69914
# Velocity P-wave (km/s) = 6.22896 7.37444 6.82577
#
# Compressibility (1/GPa) = 0.02480034
#
# Stress axis : x y z
#
# Youngs Moduli (GPa) = 63.36323 26.77198 99.09850
#
# Poissons Ratio (x) = 0.23364 0.43224
# Poissons Ratio (y) = 0.55296 0.60687
# Poissons Ratio (z) = 0.27637 0.16395
#
# Static dielectric constant tensor:
#      x y z
#    x 3.537090 0.000000 0.000000 
#    y 0.000000 3.251850 0.000000 
#    z 0.000000 0.000000 3.304700 
# 
# 
# High freq. dielectric constant tensor:
#      x y z
#    x 1.706480 0.000000 0.000000 
#    y 0.000000 1.694800 0.000000 
#    z 0.000000 0.000000 1.709260 
# 
# From -- ./inp_files/57263.got.cif
#   From: 2010.03.12/outbox.cif.g09.slc.cpg/sg74_29_cif.got.tgz:57263.got - 2010.04.16 15:46:19.
