data_PCOD8299471
_publ_section_title
;
Structure prediction by ZEFSAII (Michael W. Deem and Ramdas Pophale) SiO2 
 PCOD8299471
Probable space group: I M M A
;
_chemical_formula_sum "Si O2"
_cell_formula_units_Z 112
_cell_length_a 9.822591
_cell_length_b 20.654213
_cell_length_c 31.545037
_cell_angle_alpha 90.000000
_cell_angle_beta 90.000000
_cell_angle_gamma 90.000000
_cell_volume 6399.790443
_symmetry_space_group_name_H-M "I M M A"
_symmetry_group_IT_number 74
_symmetry_cell_setting 'orthorhombic'
loop_
_space_group_symop_operation_xyz
x,y,z
-x,1/2-y,z
x,-y,-z
-x,1/2+y,-z
-x,-y,-z
x,1/2+y,-z
-x,y,z
x,1/2-y,z
1/2+x,1/2+y,1/2+z
1/2-x,-y,1/2+z
1/2+x,1/2-y,1/2-z
1/2-x,y,1/2-z
1/2-x,1/2-y,1/2-z
1/2+x,y,1/2-z
1/2-x,1/2+y,1/2+z
1/2+x,-y,1/2+z
loop_
_atom_site_type_symbol
_atom_site_label
_atom_site_fract_x
_atom_site_fract_y
_atom_site_fract_z
Si Si1 0.157071 0.564334 0.854653
Si Si2 0.661771 0.821381 0.331047
Si Si3 0.343132 0.324081 0.289907
Si Si4 0.341237 0.048035 0.711162
Si Si5 0.344190 0.540102 0.933791
Si Si6 0.351009 0.324977 0.575325
Si Si7 0.655040 0.905471 0.024033
O O1 0.196655 0.628276 0.828103
O O2 0.186377 0.499606 0.827893
O O3 0.247615 0.563915 0.896454
O O4 0.000000 0.566950 0.868520
O O5 0.500000 0.818961 0.333579
O O6 0.715967 0.750000 0.315954
O O7 0.708858 0.879014 0.300155
O O8 0.714900 0.837847 0.378299
O O9 0.500000 0.335127 0.276469
O O10 0.318148 0.250000 0.304623
O O11 0.250000 0.341851 0.250000
O O12 0.500000 0.046650 0.724123
O O13 0.250000 0.023489 0.750000
O O14 0.500000 0.542302 0.917932
O O15 0.304198 0.468673 0.949148
O O16 0.323824 0.586737 0.973930
O O17 0.500000 0.358859 0.571599
O O18 0.370789 0.250000 0.568118
O O19 0.252112 0.348573 0.538701
O O20 0.500000 0.886770 0.033718
#
# Coordination Sequence:
#
# PCOD8299471 Si02
#       7
#    16  16  16  16  16  16  16
#     4  10  20  33  50  73  98 124 157 198 242 286
#     4   8  15  29  47  66  92 126 160 195 235 276
#     4   9  18  33  52  73  97 125 157 194 238 289
#     4  10  20  32  47  69  95 123 157 196 238 282
#     4   9  19  34  51  71  96 127 160 195 239 289
#     4   9  17  30  50  74  97 125 163 202 238 280
#     4   9  18  33  50  70  98 128 158 196 242 287
#
# _framework density 17.500572999999999
#
# number of rings (size 3 to 8) (size 9 to 14) (size 15 to 20)
#    0.000    2.857    0.000    3.000    0.000    4.000 
#    0.000    2.857    0.000    3.429    0.000    0.000 
#    0.000    0.000    0.000    0.000    0.000    0.000 
#
# Total GULP energy -694220.527703 kJ/mol
# GULP energy per Si atom -12396.795138 kJ/mol
# Density = 1.746074 g / cm^3
# Si number density = 17.500573 Si / 1000 Ang^3
#
#
#
# Elastic Constant Matrix: (Units=GPa)
#
#
# Indices 1 2 3 4 5 6 
#
# 1 71.0095 33.0963 60.0297 0.0000 0.0000 0.0000
# 2 33.0963 68.5549 41.9584 0.0000 0.0000 0.0000
# 3 60.0297 41.9584 99.9207 0.0000 0.0000 0.0000
# 4 0.0000 0.0000 0.0000 26.1210 0.0000 0.0000
# 5 0.0000 0.0000 0.0000 0.0000 36.1611 0.0000
# 6 0.0000 0.0000 0.0000 0.0000 0.0000 20.6975
#
#
#
# Elastic Compliance Matrix: (Units=1/GPa)
#
#
# Indices 1 2 3 4 5 6 
#
# 1 0.029653 -0.004593 -0.015886 0.000000 0.000000 0.000000
# 2 -0.004593 0.020344 -0.005784 0.000000 0.000000 0.000000
# 3 -0.015886 -0.005784 0.021981 0.000000 0.000000 0.000000
# 4 0.000000 0.000000 0.000000 0.038283 0.000000 0.000000
# 5 0.000000 0.000000 0.000000 0.000000 0.027654 0.000000
# 6 0.000000 0.000000 0.000000 0.000000 0.000000 0.048315
#
#
# Mechanical properties :
#
#
# Convention : Reuss Voigt Hill
#
# Bulk Modulus (GPa) = 51.40711 56.62822 54.01766
# Shear Modulus (GPa) = 20.38829 23.55597 21.97213
#
# Velocity S-wave (km/s) = 3.41692 3.67278 3.54716
# Velocity P-wave (km/s) = 6.70861 7.10028 6.90722
#
# Compressibility (1/GPa) = 0.01945256
#
# Stress axis : x y z
#
# Youngs Moduli (GPa) = 33.72341 49.15500 45.49470
#
# Poissons Ratio (x) = 0.22575 0.72274
# Poissons Ratio (y) = 0.15488 0.26312
# Poissons Ratio (z) = 0.53574 0.28429
#
# Static dielectric constant tensor:
#      x y z
#    x 3.133320 0.000000 0.000000 
#    y 0.000000 3.343930 0.000000 
#    z 0.000000 0.000000 3.157740 
# 
# 
# High freq. dielectric constant tensor:
#      x y z
#    x 1.663470 0.000000 0.000000 
#    y 0.000000 1.677570 0.000000 
#    z 0.000000 0.000000 1.666520 
# 
# From -- ./inp_files/59047.got.cif
#   From: 2010.03.12/outbox.cif.g09.slc.cpg/sg74_30_cif.got.tgz:59047.got - 2010.04.16 15:46:19.
