data_PCOD8299564
_publ_section_title
;
Structure prediction by ZEFSAII (Michael W. Deem and Ramdas Pophale) SiO2 
 PCOD8299564
Probable space group: I M M A
;
_chemical_formula_sum "Si O2"
_cell_formula_units_Z 104
_cell_length_a 32.341382
_cell_length_b 9.021658
_cell_length_c 19.992592
_cell_angle_alpha 90.000000
_cell_angle_beta 90.000000
_cell_angle_gamma 90.000000
_cell_volume 5833.296299
_symmetry_space_group_name_H-M "I M M A"
_symmetry_group_IT_number 74
_symmetry_cell_setting 'orthorhombic'
loop_
_space_group_symop_operation_xyz
x,y,z
-x,1/2-y,z
x,-y,-z
-x,1/2+y,-z
-x,-y,-z
x,1/2+y,-z
-x,y,z
x,1/2-y,z
1/2+x,1/2+y,1/2+z
1/2-x,-y,1/2+z
1/2+x,1/2-y,1/2-z
1/2-x,y,1/2-z
1/2-x,1/2-y,1/2-z
1/2+x,y,1/2-z
1/2-x,1/2+y,1/2+z
1/2+x,-y,1/2+z
loop_
_atom_site_type_symbol
_atom_site_label
_atom_site_fract_x
_atom_site_fract_y
_atom_site_fract_z
Si Si1 0.197432 0.925873 0.569853
Si Si2 0.151419 0.923705 0.199509
Si Si3 0.500000 0.075491 0.429433
Si Si4 0.872223 0.575012 0.349030
Si Si5 0.928694 0.921092 0.832270
Si Si6 0.453523 0.079055 0.182624
Si Si7 0.234114 0.076161 0.178257
O O1 0.193197 0.750000 0.562055
O O2 0.233224 0.970240 0.621885
O O3 0.209686 0.000000 0.500000
O O4 0.153936 0.991975 0.594406
O O5 0.154958 0.750000 0.192145
O O6 0.146672 0.971402 0.277167
O O7 0.111933 0.980261 0.158923
O O8 0.191045 0.995557 0.164480
O O9 0.500000 0.250000 0.438061
O O10 0.540475 0.024258 0.389555
O O11 0.500000 0.000000 0.500000
O O12 0.870261 0.750000 0.360918
O O13 0.919833 0.522134 0.355211
O O14 0.916233 0.750000 0.840298
O O15 0.950890 0.948442 0.761679
O O16 0.500000 0.035466 0.159249
O O17 0.444186 0.250000 0.165464
O O18 0.225904 0.250000 0.178656
O O19 0.250000 0.020437 0.250000
#
# Coordination Sequence:
#
# PCOD8299564 Si02
#       7
#    16  16   8  16  16  16  16
#     4  11  23  39  59  82 111 146 184 225 271 327
#     4  10  20  32  52  82 111 137 173 226 277 316
#     4  10  20  34  52  74 100 140 185 226 271 324
#     4  10  20  33  51  80 114 145 177 217 270 323
#     4   9  17  32  51  72 102 138 178 220 268 324
#     4   9  16  29  52  79 106 137 176 222 268 317
#     4  10  20  36  58  82 108 143 185 225 270 327
#
# _framework density 17.828683999999999
#
# number of rings (size 3 to 8) (size 9 to 14) (size 15 to 20)
#    0.000    2.154    2.308    1.385    0.000    3.692 
#    0.000    0.769    0.000    0.462    0.000    0.000 
#    0.000    0.000    0.000    0.000    0.000    0.000 
#
# Total GULP energy -644926.373465 kJ/mol
# GULP energy per Si atom -12402.430259 kJ/mol
# Density = 1.778811 g / cm^3
# Si number density = 17.828684 Si / 1000 Ang^3
#
#
#
# Elastic Constant Matrix: (Units=GPa)
#
#
# Indices 1 2 3 4 5 6 
#
# 1 142.2978 54.2478 56.5306 0.0000 0.0000 0.0000
# 2 54.2478 60.7772 40.3811 0.0000 0.0000 0.0000
# 3 56.5306 40.3811 96.3660 0.0000 0.0000 0.0000
# 4 0.0000 0.0000 0.0000 27.9413 0.0000 0.0000
# 5 0.0000 0.0000 0.0000 0.0000 24.0431 0.0000
# 6 0.0000 0.0000 0.0000 0.0000 0.0000 24.7965
#
#
#
# Elastic Compliance Matrix: (Units=1/GPa)
#
#
# Indices 1 2 3 4 5 6 
#
# 1 0.011384 -0.007933 -0.003354 0.000000 0.000000 0.000000
# 2 -0.007933 0.028329 -0.007218 0.000000 0.000000 0.000000
# 3 -0.003354 -0.007218 0.015369 0.000000 0.000000 0.000000
# 4 0.000000 0.000000 0.000000 0.035789 0.000000 0.000000
# 5 0.000000 0.000000 0.000000 0.000000 0.041592 0.000000
# 6 0.000000 0.000000 0.000000 0.000000 0.000000 0.040328
#
#
# Mechanical properties :
#
#
# Convention : Reuss Voigt Hill
#
# Bulk Modulus (GPa) = 55.32825 66.86223 61.09524
# Shear Modulus (GPa) = 23.16683 25.24161 24.20422
#
# Velocity S-wave (km/s) = 3.60865 3.76678 3.68856
# Velocity P-wave (km/s) = 6.96159 7.51679 7.24451
#
# Compressibility (1/GPa) = 0.01807395
#
# Stress axis : x y z
#
# Youngs Moduli (GPa) = 87.84152 35.29899 65.06515
#
# Poissons Ratio (x) = 0.28001 0.21824
# Poissons Ratio (y) = 0.69681 0.46962
# Poissons Ratio (z) = 0.29463 0.25478
#
# Static dielectric constant tensor:
#      x y z
#    x 3.445360 0.000000 0.000000 
#    y 0.000000 3.234170 0.000000 
#    z 0.000000 0.000000 3.060230 
# 
# 
# High freq. dielectric constant tensor:
#      x y z
#    x 1.701770 0.000000 0.000000 
#    y 0.000000 1.691000 0.000000 
#    z 0.000000 0.000000 1.657600 
# 
# From -- ./inp_files/55637.got.cif
#   From: 2010.03.12/outbox.cif.g09.slc.cpg/sg74_28_cif.got.tgz:55637.got - 2010.04.16 15:46:19.
