data_PCOD8299370
_publ_section_title
;
Structure prediction by ZEFSAII (Michael W. Deem and Ramdas Pophale) SiO2 
 PCOD8299370
Probable space group: I M M A
;
_chemical_formula_sum "Si O2"
_cell_formula_units_Z 104
_cell_length_a 9.017118
_cell_length_b 31.704163
_cell_length_c 20.705761
_cell_angle_alpha 90.000000
_cell_angle_beta 90.000000
_cell_angle_gamma 90.000000
_cell_volume 5919.366658
_symmetry_space_group_name_H-M "I M M A"
_symmetry_group_IT_number 74
_symmetry_cell_setting 'orthorhombic'
loop_
_space_group_symop_operation_xyz
x,y,z
-x,1/2-y,z
x,-y,-z
-x,1/2+y,-z
-x,-y,-z
x,1/2+y,-z
-x,y,z
x,1/2-y,z
1/2+x,1/2+y,1/2+z
1/2-x,-y,1/2+z
1/2+x,1/2-y,1/2-z
1/2-x,y,1/2-z
1/2-x,1/2-y,1/2-z
1/2+x,y,1/2-z
1/2-x,1/2+y,1/2+z
1/2+x,-y,1/2+z
loop_
_atom_site_type_symbol
_atom_site_label
_atom_site_fract_x
_atom_site_fract_y
_atom_site_fract_z
Si Si1 0.169653 0.750000 0.315437
Si Si2 0.327598 0.963349 0.184037
Si Si3 0.825402 0.795700 0.953712
Si Si4 0.669986 0.590511 0.063120
Si Si5 0.167652 0.685682 0.419059
Si Si6 0.826336 0.561733 0.684300
Si Si7 0.822973 0.111103 0.068790
O O1 0.250000 0.750000 0.250000
O O2 0.215156 0.707998 0.353482
O O3 0.000000 0.750000 0.298535
O O4 0.500000 0.953128 0.192255
O O5 0.250000 0.947159 0.250000
O O6 0.267083 0.940696 0.118811
O O7 0.295979 0.012513 0.173833
O O8 0.769360 0.750000 0.923639
O O9 0.778224 0.796904 0.027589
O O10 0.000000 0.796229 0.949867
O O11 0.768041 0.839781 0.922167
O O12 0.500000 0.578728 0.044906
O O13 0.681243 0.636400 0.094210
O O14 0.767371 0.589741 0.997901
O O15 0.000000 0.698009 0.439860
O O16 0.750000 0.577499 0.750000
O O17 0.749777 0.586060 0.626495
O O18 0.000000 0.572282 0.686819
O O19 0.000000 0.107523 0.070928
#
# Coordination Sequence:
#
# PCOD8299370 Si02
#       7
#     8  16  16  16  16  16  16
#     4  10  20  30  40  60  88 122 163 204 245 290
#     4   9  19  34  52  73  98 133 175 212 252 301
#     4   9  17  30  50  73  97 125 157 196 242 290
#     4   9  18  33  51  72 100 133 168 210 255 298
#     4   9  17  30  46  64  90 123 161 203 245 289
#     4  10  20  36  56  76 101 133 167 205 249 301
#     4  10  20  33  51  79 107 131 165 206 250 300
#
# _framework density 17.569448000000001
#
# number of rings (size 3 to 8) (size 9 to 14) (size 15 to 20)
#    0.000    2.615    0.769    0.923    0.000    3.692 
#    0.000    3.077    0.000    0.462    0.000    0.000 
#    0.000    0.000    0.000    0.000    0.000    0.000 
#
# Total GULP energy -644352.632591 kJ/mol
# GULP energy per Si atom -12391.396781 kJ/mol
# Density = 1.752946 g / cm^3
# Si number density = 17.569448 Si / 1000 Ang^3
#
#
#
# Elastic Constant Matrix: (Units=GPa)
#
#
# Indices 1 2 3 4 5 6 
#
# 1 48.4326 38.3854 49.3839 0.0000 0.0000 0.0000
# 2 38.3854 89.1925 70.1506 0.0000 0.0000 0.0000
# 3 49.3839 70.1506 132.7485 0.0000 0.0000 0.0000
# 4 0.0000 0.0000 0.0000 31.2540 0.0000 0.0000
# 5 0.0000 0.0000 0.0000 0.0000 33.7488 0.0000
# 6 0.0000 0.0000 0.0000 0.0000 0.0000 22.0735
#
#
#
# Elastic Compliance Matrix: (Units=1/GPa)
#
#
# Indices 1 2 3 4 5 6 
#
# 1 0.036814 -0.008679 -0.009108 0.000000 0.000000 0.000000
# 2 -0.008679 0.021232 -0.007991 0.000000 0.000000 0.000000
# 3 -0.009108 -0.007991 0.015144 0.000000 0.000000 0.000000
# 4 0.000000 0.000000 0.000000 0.031996 0.000000 0.000000
# 5 0.000000 0.000000 0.000000 0.000000 0.029631 0.000000
# 6 0.000000 0.000000 0.000000 0.000000 0.000000 0.045303
#
#
# Mechanical properties :
#
#
# Convention : Reuss Voigt Hill
#
# Bulk Modulus (GPa) = 46.22794 65.13483 55.68138
# Shear Modulus (GPa) = 20.93023 24.91217 22.92120
#
# Velocity S-wave (km/s) = 3.45525 3.76962 3.61585
# Velocity P-wave (km/s) = 6.50284 7.48999 7.01381
#
# Compressibility (1/GPa) = 0.02163194
#
# Stress axis : x y z
#
# Youngs Moduli (GPa) = 27.16394 47.09815 66.03078
#
# Poissons Ratio (x) = 0.40879 0.60144
# Poissons Ratio (y) = 0.23577 0.52767
# Poissons Ratio (z) = 0.24742 0.37637
#
# Static dielectric constant tensor:
#      x y z
#    x 1.830030 -0.000010 0.000000 
#    y -0.000010 3.785640 0.000000 
#    z 0.000000 0.000000 3.130510 
# 
# 
# High freq. dielectric constant tensor:
#      x y z
#    x 1.676420 0.000000 0.000000 
#    y 0.000000 1.688850 0.000000 
#    z 0.000000 0.000000 1.660790 
# 
# From -- ./inp_files/49610.got.cif
#   From: 2010.03.12/outbox.cif.g09.slc.cpg/sg74_25_cif.got.tgz:49610.got - 2010.04.16 15:46:19.
