data_PCOD8299291
_publ_section_title
;
Structure prediction by ZEFSAII (Michael W. Deem and Ramdas Pophale) SiO2 
 PCOD8299291
Probable space group: I M M A
;
_chemical_formula_sum "Si O2"
_cell_formula_units_Z 56
_cell_length_a 21.639341
_cell_length_b 14.430223
_cell_length_c 9.184128
_cell_angle_alpha 90.000000
_cell_angle_beta 90.000000
_cell_angle_gamma 90.000000
_cell_volume 2867.840550
_symmetry_space_group_name_H-M "I M M A"
_symmetry_group_IT_number 74
_symmetry_cell_setting 'orthorhombic'
loop_
_space_group_symop_operation_xyz
x,y,z
-x,1/2-y,z
x,-y,-z
-x,1/2+y,-z
-x,-y,-z
x,1/2+y,-z
-x,y,z
x,1/2-y,z
1/2+x,1/2+y,1/2+z
1/2-x,-y,1/2+z
1/2+x,1/2-y,1/2-z
1/2-x,y,1/2-z
1/2-x,1/2-y,1/2-z
1/2+x,y,1/2-z
1/2-x,1/2+y,1/2+z
1/2+x,-y,1/2+z
loop_
_atom_site_type_symbol
_atom_site_label
_atom_site_fract_x
_atom_site_fract_y
_atom_site_fract_z
Si Si1 0.132954 0.250000 0.440933
Si Si2 0.366542 0.602215 0.447357
Si Si3 0.568235 0.853185 0.170495
Si Si4 0.929030 0.750000 0.864321
Si Si5 0.264428 0.750000 0.419828
O O1 0.102553 0.342763 0.514074
O O2 0.118641 0.250000 0.270801
O O3 0.205634 0.250000 0.474137
O O4 0.352539 0.500000 0.500000
O O5 0.391392 0.587806 0.282793
O O6 0.417448 0.656463 0.543369
O O7 0.302819 0.658005 0.454456
O O8 0.500000 0.897029 0.148299
O O9 0.562966 0.750000 0.240467
O O10 0.000000 0.750000 0.810383
O O11 0.250000 0.750000 0.250000
#
# Coordination Sequence:
#
# PCOD8299291 Si02
#       5
#     8  16  16   8   8
#     4  10  19  36  62  87 116 156 201 239 298 358
#     4  11  23  38  61  91 118 157 205 247 292 355
#     4   9  16  33  60  83 111 153 194 233 290 353
#     4  11  22  40  62  89 123 155 195 255 308 348
#     4  11  19  43  66  82 116 166 202 238 293 357
#
# _framework density 19.526888
#
# number of rings (size 3 to 8) (size 9 to 14) (size 15 to 20)
#    0.857    0.857    5.714    1.714    0.000    4.571 
#    5.143    1.429    0.000    3.429    0.000    0.000 
#    0.000    0.000    0.000    0.000    0.000    0.000 
#
# Total GULP energy -347030.391835 kJ/mol
# GULP energy per Si atom -12393.942566 kJ/mol
# Density = 1.948244 g / cm^3
# Si number density = 19.526888 Si / 1000 Ang^3
#
#
#
# Elastic Constant Matrix: (Units=GPa)
#
#
# Indices 1 2 3 4 5 6 
#
# 1 132.2896 22.6189 11.5411 0.0000 0.0000 0.0000
# 2 22.6189 104.4577 16.4821 0.0000 0.0000 0.0000
# 3 11.5411 16.4821 77.6169 0.0000 0.0000 0.0000
# 4 0.0000 0.0000 0.0000 17.3089 0.0000 0.0000
# 5 0.0000 0.0000 0.0000 0.0000 35.2990 0.0000
# 6 0.0000 0.0000 0.0000 0.0000 0.0000 7.3548
#
#
#
# Elastic Compliance Matrix: (Units=1/GPa)
#
#
# Indices 1 2 3 4 5 6 
#
# 1 0.007902 -0.001579 -0.000840 0.000000 0.000000 0.000000
# 2 -0.001579 0.010221 -0.001936 0.000000 0.000000 0.000000
# 3 -0.000840 -0.001936 0.013420 0.000000 0.000000 0.000000
# 4 0.000000 0.000000 0.000000 0.057774 0.000000 0.000000
# 5 0.000000 0.000000 0.000000 0.000000 0.028329 0.000000
# 6 0.000000 0.000000 0.000000 0.000000 0.000000 0.135966
#
#
# Mechanical properties :
#
#
# Convention : Reuss Voigt Hill
#
# Bulk Modulus (GPa) = 43.79349 46.18317 44.98833
# Shear Modulus (GPa) = 18.52326 29.57401 24.04863
#
# Velocity S-wave (km/s) = 3.08328 3.89592 3.51317
# Velocity P-wave (km/s) = 5.92887 6.62872 6.28854
#
# Compressibility (1/GPa) = 0.02283445
#
# Stress axis : x y z
#
# Youngs Moduli (GPa) = 126.54461 97.84256 74.51737
#
# Poissons Ratio (x) = 0.15446 0.06258
# Poissons Ratio (y) = 0.19977 0.14424
# Poissons Ratio (z) = 0.10627 0.18939
#
# Static dielectric constant tensor:
#      x y z
#    x 3.820250 0.000000 0.000000 
#    y 0.000000 3.150140 0.000000 
#    z 0.000000 0.000000 3.431460 
# 
# 
# High freq. dielectric constant tensor:
#      x y z
#    x 1.770150 0.000000 0.000000 
#    y 0.000000 1.716580 0.000000 
#    z 0.000000 0.000000 1.760080 
# 
# From -- ./inp_files/13234.got.cif
#   From: 2010.03.12/outbox.cif.g09.slc.cpg/sg74_7_cif.got.tgz:13234.got - 2010.04.16 15:46:19.
