data_PCOD8299729
_publ_section_title
;
Structure prediction by ZEFSAII (Michael W. Deem and Ramdas Pophale) SiO2 
 PCOD8299729
Probable space group: I M M A
;
_chemical_formula_sum "Si O2"
_cell_formula_units_Z 72
_cell_length_a 28.542554
_cell_length_b 8.739068
_cell_length_c 13.968618
_cell_angle_alpha 90.000000
_cell_angle_beta 90.000000
_cell_angle_gamma 90.000000
_cell_volume 3484.266705
_symmetry_space_group_name_H-M "I M M A"
_symmetry_group_IT_number 74
_symmetry_cell_setting 'orthorhombic'
loop_
_space_group_symop_operation_xyz
x,y,z
-x,1/2-y,z
x,-y,-z
-x,1/2+y,-z
-x,-y,-z
x,1/2+y,-z
-x,y,z
x,1/2-y,z
1/2+x,1/2+y,1/2+z
1/2-x,-y,1/2+z
1/2+x,1/2-y,1/2-z
1/2-x,y,1/2-z
1/2-x,1/2-y,1/2-z
1/2+x,y,1/2-z
1/2-x,1/2+y,1/2+z
1/2+x,-y,1/2+z
loop_
_atom_site_type_symbol
_atom_site_label
_atom_site_fract_x
_atom_site_fract_y
_atom_site_fract_z
Si Si1 0.728718 0.929490 0.104297
Si Si2 0.179862 0.929201 0.895742
Si Si3 0.124571 0.569248 0.395668
Si Si4 0.500000 0.069421 0.604802
Si Si5 0.586094 0.070561 0.284497
O O1 0.736287 0.750000 0.100367
O O2 0.677083 0.969943 0.143804
O O3 0.773749 0.002112 0.159175
O O4 0.732616 0.000000 0.000000
O O5 0.186663 0.750000 0.906442
O O6 0.134903 0.971875 0.833747
O O7 0.172067 0.000000 0.000000
O O8 0.116235 0.500000 0.500000
O O9 0.116199 0.750000 0.400342
O O10 0.087810 0.490457 0.324300
O O11 0.500000 0.250000 0.595273
O O12 0.500000 0.000000 0.500000
O O13 0.545674 0.017024 0.660757
O O14 0.575338 0.250000 0.285279
#
# Coordination Sequence:
#
# PCOD8299729 Si02
#       5
#    16  16  16   8  16
#     4   9  17  30  51  79 115 157 199 242 290 344
#     4  10  20  33  53  82 117 156 198 244 294 350
#     4  10  21  38  60  87 120 160 202 246 295 348
#     4  12  26  46  71  96 123 154 190 238 296 356
#     4  11  24  41  62  89 119 155 199 246 298 357
#
# _framework density 20.664318000000002
#
# number of rings (size 3 to 8) (size 9 to 14) (size 15 to 20)
#    0.000    1.778    0.000    5.667    0.000    8.889 
#    0.000    5.000    0.000    0.000    0.000    0.000 
#    0.000    0.000    0.000    0.000    0.000    0.000 
#
# Total GULP energy -446306.747209 kJ/mol
# GULP energy per Si atom -12397.409645 kJ/mol
# Density = 2.061729 g / cm^3
# Si number density = 20.664318 Si / 1000 Ang^3
#
#
#
# Elastic Constant Matrix: (Units=GPa)
#
#
# Indices 1 2 3 4 5 6 
#
# 1 114.7936 76.0086 71.7601 0.0000 0.0000 0.0000
# 2 76.0086 130.6054 58.5052 0.0000 0.0000 0.0000
# 3 71.7601 58.5052 108.5265 0.0000 0.0000 0.0000
# 4 0.0000 0.0000 0.0000 29.4156 0.0000 0.0000
# 5 0.0000 0.0000 0.0000 0.0000 22.2594 0.0000
# 6 0.0000 0.0000 0.0000 0.0000 0.0000 35.0651
#
#
#
# Elastic Compliance Matrix: (Units=1/GPa)
#
#
# Indices 1 2 3 4 5 6 
#
# 1 0.018768 -0.007071 -0.008598 0.000000 0.000000 0.000000
# 2 -0.007071 0.012758 -0.002202 0.000000 0.000000 0.000000
# 3 -0.008598 -0.002202 0.016087 0.000000 0.000000 0.000000
# 4 0.000000 0.000000 0.000000 0.033996 0.000000 0.000000
# 5 0.000000 0.000000 0.000000 0.000000 0.044925 0.000000
# 6 0.000000 0.000000 0.000000 0.000000 0.000000 0.028518
#
#
# Mechanical properties :
#
#
# Convention : Reuss Voigt Hill
#
# Bulk Modulus (GPa) = 84.24231 85.16369 84.70300
# Shear Modulus (GPa) = 25.67381 27.19147 26.43264
#
# Velocity S-wave (km/s) = 3.52862 3.63142 3.58039
# Velocity P-wave (km/s) = 7.58005 7.67368 7.62701
#
# Compressibility (1/GPa) = 0.01187052
#
# Stress axis : x y z
#
# Youngs Moduli (GPa) = 53.28236 78.38048 62.16296
#
# Poissons Ratio (x) = 0.55422 0.53447
# Poissons Ratio (y) = 0.37676 0.13691
# Poissons Ratio (z) = 0.45812 0.17262
#
# Static dielectric constant tensor:
#      x y z
#    x 4.125790 0.000000 0.000000 
#    y 0.000000 3.864320 0.000000 
#    z 0.000000 0.000000 3.639940 
# 
# 
# High freq. dielectric constant tensor:
#      x y z
#    x 1.808460 0.000000 0.000000 
#    y 0.000000 1.822930 0.000000 
#    z 0.000000 0.000000 1.805210 
# 
# From -- ./inp_files/29211.got.cif
#   From: 2010.03.12/outbox.cif.g09.slc.cpg/sg74_15_cif.got.tgz:29211.got - 2010.04.16 15:46:19.
