data_PCOD8299098
_publ_section_title
;
Structure prediction by ZEFSAII (Michael W. Deem and Ramdas Pophale) SiO2 
 PCOD8299098
Probable space group: I M M A
;
_chemical_formula_sum "Si O2"
_cell_formula_units_Z 104
_cell_length_a 9.648126
_cell_length_b 23.056603
_cell_length_c 25.295566
_cell_angle_alpha 90.000000
_cell_angle_beta 90.000000
_cell_angle_gamma 90.000000
_cell_volume 5627.074819
_symmetry_space_group_name_H-M "I M M A"
_symmetry_group_IT_number 74
_symmetry_cell_setting 'orthorhombic'
loop_
_space_group_symop_operation_xyz
x,y,z
-x,1/2-y,z
x,-y,-z
-x,1/2+y,-z
-x,-y,-z
x,1/2+y,-z
-x,y,z
x,1/2-y,z
1/2+x,1/2+y,1/2+z
1/2-x,-y,1/2+z
1/2+x,1/2-y,1/2-z
1/2-x,y,1/2-z
1/2-x,1/2-y,1/2-z
1/2+x,y,1/2-z
1/2-x,1/2+y,1/2+z
1/2+x,-y,1/2+z
loop_
_atom_site_type_symbol
_atom_site_label
_atom_site_fract_x
_atom_site_fract_y
_atom_site_fract_z
Si Si1 0.844592 0.816293 0.841120
Si Si2 0.338045 0.614600 0.919315
Si Si3 0.340519 0.420750 0.630497
Si Si4 0.750000 0.603617 0.750000
Si Si5 0.161280 0.932935 0.010856
Si Si6 0.658575 0.184717 0.701337
Si Si7 0.848250 0.481263 0.335205
O O1 0.813177 0.750000 0.825215
O O2 0.733380 0.834483 0.885413
O O3 0.839051 0.855562 0.788515
O O4 0.000000 0.822896 0.864416
O O5 0.500000 0.629994 0.928534
O O6 0.257664 0.607542 0.974531
O O7 0.320021 0.554423 0.888508
O O8 0.500000 0.439282 0.633824
O O9 0.289500 0.420530 0.570389
O O10 0.312963 0.356260 0.651570
O O11 0.261768 0.466983 0.667417
O O12 0.845541 0.561691 0.714852
O O13 0.000000 0.916690 0.001589
O O14 0.188260 0.000000 0.000000
O O15 0.500000 0.180908 0.719841
O O16 0.698921 0.250000 0.684268
O O17 0.750000 0.162966 0.750000
O O18 0.000000 0.509715 0.336899
#
# Coordination Sequence:
#
# PCOD8299098 Si02
#       7
#    16  16  16   8  16  16  16
#     4  10  21  38  60  82 108 149 197 237 276 330
#     4  10  21  36  55  80 111 146 183 232 284 331
#     4  10  21  35  54  81 110 143 180 223 270 324
#     4  10  21  36  54  82 113 148 184 234 280 326
#     4  10  19  34  56  81 111 147 184 224 273 331
#     4   9  19  37  58  79 105 138 175 217 266 319
#     4  10  21  34  50  77 111 145 180 222 274 328
#
# _framework density 18.482071999999999
#
# number of rings (size 3 to 8) (size 9 to 14) (size 15 to 20)
#    0.000    2.154    1.538    1.154    1.077    5.538 
#    0.000    0.769    0.000    2.769    0.000    0.000 
#    0.000    0.000    0.000    0.000    0.000    0.000 
#
# Total GULP energy -644795.850339 kJ/mol
# GULP energy per Si atom -12399.920199 kJ/mol
# Density = 1.844001 g / cm^3
# Si number density = 18.482072 Si / 1000 Ang^3
#
#
#
# Elastic Constant Matrix: (Units=GPa)
#
#
# Indices 1 2 3 4 5 6 
#
# 1 100.1189 53.0391 52.5916 0.0000 0.0000 0.0000
# 2 53.0391 91.4781 62.3064 0.0000 0.0000 0.0000
# 3 52.5916 62.3064 118.6005 0.0000 0.0000 0.0000
# 4 0.0000 0.0000 0.0000 24.8475 0.0000 0.0000
# 5 0.0000 0.0000 0.0000 0.0000 27.4593 0.0000
# 6 0.0000 0.0000 0.0000 0.0000 0.0000 26.2842
#
#
#
# Elastic Compliance Matrix: (Units=1/GPa)
#
#
# Indices 1 2 3 4 5 6 
#
# 1 0.015196 -0.006573 -0.003285 0.000000 0.000000 0.000000
# 2 -0.006573 0.019866 -0.007522 0.000000 0.000000 0.000000
# 3 -0.003285 -0.007522 0.013840 0.000000 0.000000 0.000000
# 4 0.000000 0.000000 0.000000 0.040245 0.000000 0.000000
# 5 0.000000 0.000000 0.000000 0.000000 0.036417 0.000000
# 6 0.000000 0.000000 0.000000 0.000000 0.000000 0.038046
#
#
# Mechanical properties :
#
#
# Convention : Reuss Voigt Hill
#
# Bulk Modulus (GPa) = 70.71311 71.78577 71.24944
# Shear Modulus (GPa) = 24.62033 25.20224 24.91129
#
# Velocity S-wave (km/s) = 3.65378 3.69671 3.67531
# Velocity P-wave (km/s) = 7.49290 7.55949 7.52627
#
# Compressibility (1/GPa) = 0.01414165
#
# Stress axis : x y z
#
# Youngs Moduli (GPa) = 65.80676 50.33807 72.25433
#
# Poissons Ratio (x) = 0.33087 0.23738
# Poissons Ratio (y) = 0.43255 0.54347
# Poissons Ratio (z) = 0.21620 0.37863
#
# Static dielectric constant tensor:
#      x y z
#    x 3.400300 0.000000 0.000000 
#    y 0.000000 3.308990 0.000000 
#    z 0.000000 0.000000 3.399200 
# 
# 
# High freq. dielectric constant tensor:
#      x y z
#    x 1.719540 0.000000 0.000000 
#    y 0.000000 1.707030 0.000000 
#    z 0.000000 0.000000 1.710880 
# 
# From -- ./inp_files/64524.got.cif
#   From: 2010.03.12/outbox.cif.g09.slc.cpg/sg74_33_cif.got.tgz:64524.got - 2010.04.16 15:46:19.
