data_PCOD8299685
_publ_section_title
;
Structure prediction by ZEFSAII (Michael W. Deem and Ramdas Pophale) SiO2 
 PCOD8299685
Probable space group: I M M A
;
_chemical_formula_sum "Si O2"
_cell_formula_units_Z 96
_cell_length_a 13.484901
_cell_length_b 14.610135
_cell_length_c 27.598842
_cell_angle_alpha 90.000000
_cell_angle_beta 90.000000
_cell_angle_gamma 90.000000
_cell_volume 5437.419640
_symmetry_space_group_name_H-M "I M M A"
_symmetry_group_IT_number 74
_symmetry_cell_setting 'orthorhombic'
loop_
_space_group_symop_operation_xyz
x,y,z
-x,1/2-y,z
x,-y,-z
-x,1/2+y,-z
-x,-y,-z
x,1/2+y,-z
-x,y,z
x,1/2-y,z
1/2+x,1/2+y,1/2+z
1/2-x,-y,1/2+z
1/2+x,1/2-y,1/2-z
1/2-x,y,1/2-z
1/2-x,1/2-y,1/2-z
1/2+x,y,1/2-z
1/2-x,1/2+y,1/2+z
1/2+x,-y,1/2+z
loop_
_atom_site_type_symbol
_atom_site_label
_atom_site_fract_x
_atom_site_fract_y
_atom_site_fract_z
Si Si1 0.890434 0.141967 0.115916
Si Si2 0.884366 0.061491 0.379261
Si Si3 0.706341 0.938518 0.044089
Si Si4 0.382916 0.750000 0.924510
Si Si5 0.616476 0.250000 0.969245
Si Si6 0.729744 0.857842 0.804863
Si Si7 0.114984 0.642807 0.992682
O O1 0.898605 0.250000 0.113526
O O2 0.820810 0.112585 0.160379
O O3 0.853823 0.111242 0.061983
O O4 0.000000 0.100857 0.126093
O O5 0.845206 0.159804 0.398236
O O6 0.861482 0.075731 0.322093
O O7 0.000000 0.040087 0.389189
O O8 0.812162 0.989167 0.404971
O O9 0.650826 0.843479 0.055163
O O10 0.820840 0.916825 0.030934
O O11 0.658899 0.000000 0.000000
O O12 0.500000 0.750000 0.927022
O O13 0.334975 0.750000 0.977388
O O14 0.500000 0.250000 0.970880
O O15 0.703441 0.750000 0.808056
O O16 0.750000 0.886130 0.750000
O O17 0.136039 0.750000 0.001256
O O18 0.000000 0.620519 0.002242
#
# Coordination Sequence:
#
# PCOD8299685 Si02
#       7
#    16  16  16   8   8  16  16
#     4   8  15  28  47  69  95 128 169 213 257 308
#     4  11  22  35  51  76 108 146 184 219 265 322
#     4  12  22  32  52  77 107 148 185 224 266 316
#     4   9  18  32  49  68 102 147 186 219 255 305
#     4  11  22  34  47  72 109 149 192 227 256 307
#     4  10  20  33  52  76 101 135 178 222 272 325
#     4   9  18  34  54  76 105 142 181 219 263 315
#
# _framework density 17.655432999999999
#
# number of rings (size 3 to 8) (size 9 to 14) (size 15 to 20)
#    0.000    2.000    3.333    2.500    0.000    1.667 
#    0.000    2.500    0.000    0.000    0.000    0.583 
#    0.000    0.000    0.000    0.000    0.000    0.000 
#
# Total GULP energy -594726.963557 kJ/mol
# GULP energy per Si atom -12390.145074 kJ/mol
# Density = 1.761525 g / cm^3
# Si number density = 17.655433 Si / 1000 Ang^3
#
#
#
# Elastic Constant Matrix: (Units=GPa)
#
#
# Indices 1 2 3 4 5 6 
#
# 1 93.4912 30.1332 51.4525 0.0000 0.0000 0.0000
# 2 30.1332 85.2358 44.0761 0.0000 0.0000 0.0000
# 3 51.4525 44.0761 114.0321 0.0000 0.0000 0.0000
# 4 0.0000 0.0000 0.0000 22.7520 0.0000 0.0000
# 5 0.0000 0.0000 0.0000 0.0000 22.7634 0.0000
# 6 0.0000 0.0000 0.0000 0.0000 0.0000 22.5286
#
#
#
# Elastic Compliance Matrix: (Units=1/GPa)
#
#
# Indices 1 2 3 4 5 6 
#
# 1 0.014548 -0.002186 -0.005720 0.000000 0.000000 0.000000
# 2 -0.002186 0.014991 -0.004808 0.000000 0.000000 0.000000
# 3 -0.005720 -0.004808 0.013209 0.000000 0.000000 0.000000
# 4 0.000000 0.000000 0.000000 0.043952 0.000000 0.000000
# 5 0.000000 0.000000 0.000000 0.000000 0.043930 0.000000
# 6 0.000000 0.000000 0.000000 0.000000 0.000000 0.044388
#
#
# Mechanical properties :
#
#
# Convention : Reuss Voigt Hill
#
# Bulk Modulus (GPa) = 57.73225 60.45364 59.09295
# Shear Modulus (GPa) = 24.24602 24.74863 24.49733
#
# Velocity S-wave (km/s) = 3.70981 3.74807 3.72899
# Velocity P-wave (km/s) = 7.14987 7.28326 7.21687
#
# Compressibility (1/GPa) = 0.01732134
#
# Stress axis : x y z
#
# Youngs Moduli (GPa) = 68.73612 66.70565 75.70759
#
# Poissons Ratio (x) = 0.14579 0.43302
# Poissons Ratio (y) = 0.15023 0.36402
# Poissons Ratio (z) = 0.39314 0.32074
#
# Static dielectric constant tensor:
#      x y z
#    x 3.489240 0.000000 0.000000 
#    y 0.000000 3.178250 0.000000 
#    z 0.000000 0.000000 3.142530 
# 
# 
# High freq. dielectric constant tensor:
#      x y z
#    x 1.699650 0.000000 0.000000 
#    y 0.000000 1.656790 0.000000 
#    z 0.000000 0.000000 1.643970 
# 
# From -- ./inp_files/67122.got.cif
#   From: 2010.03.12/outbox.cif.g09.slc.cpg/sg74_34_cif.got.tgz:67122.got - 2010.04.16 15:46:19.
