data_PCOD8299534
_publ_section_title
;
Structure prediction by ZEFSAII (Michael W. Deem and Ramdas Pophale) SiO2 
 PCOD8299534
Probable space group: I M M A
;
_chemical_formula_sum "Si O2"
_cell_formula_units_Z 88
_cell_length_a 9.009441
_cell_length_b 27.796780
_cell_length_c 19.045015
_cell_angle_alpha 90.000000
_cell_angle_beta 90.000000
_cell_angle_gamma 90.000000
_cell_volume 4769.508800
_symmetry_space_group_name_H-M "I M M A"
_symmetry_group_IT_number 74
_symmetry_cell_setting 'orthorhombic'
loop_
_space_group_symop_operation_xyz
x,y,z
-x,1/2-y,z
x,-y,-z
-x,1/2+y,-z
-x,-y,-z
x,1/2+y,-z
-x,y,z
x,1/2-y,z
1/2+x,1/2+y,1/2+z
1/2-x,-y,1/2+z
1/2+x,1/2-y,1/2-z
1/2-x,y,1/2-z
1/2-x,1/2-y,1/2-z
1/2+x,y,1/2-z
1/2-x,1/2+y,1/2+z
1/2+x,-y,1/2+z
loop_
_atom_site_type_symbol
_atom_site_label
_atom_site_fract_x
_atom_site_fract_y
_atom_site_fract_z
Si Si1 0.673915 0.965215 0.825026
Si Si2 0.826093 0.626882 0.824852
Si Si3 0.325206 0.750000 0.175261
Si Si4 0.672946 0.571155 0.175446
Si Si5 0.675244 0.659528 0.084202
Si Si6 0.672998 0.804473 0.550386
O O1 0.500000 0.954220 0.818973
O O2 0.750000 0.966536 0.750000
O O3 0.754593 0.920451 0.863702
O O4 0.702187 0.018067 0.858475
O O5 0.750000 0.637035 0.750000
O O6 0.794459 0.672648 0.873748
O O7 0.000000 0.618095 0.813701
O O8 0.500000 0.750000 0.186577
O O9 0.250000 0.750000 0.250000
O O10 0.271313 0.796569 0.132721
O O11 0.500000 0.578940 0.190067
O O12 0.750000 0.578554 0.250000
O O13 0.731943 0.610150 0.119820
O O14 0.500000 0.659845 0.074420
O O15 0.746483 0.663684 0.007955
O O16 0.500000 0.805012 0.533122
O O17 0.735257 0.750000 0.550825
#
# Coordination Sequence:
#
# PCOD8299534 Si02
#       6
#    16  16   8  16  16  16
#     4   9  16  29  50  76 105 137 169 207 256 304
#     4  10  20  35  56  81 105 130 166 212 258 312
#     4  10  20  32  50  76 103 134 175 218 255 296
#     4   9  18  31  50  77 108 139 175 216 255 300
#     4  10  20  35  52  75 105 138 177 216 256 304
#     4  10  22  39  56  75 102 136 172 212 262 314
#
# _framework density 18.450538000000002
#
# number of rings (size 3 to 8) (size 9 to 14) (size 15 to 20)
#    0.000    2.364    0.909    2.727    0.000    4.000 
#    0.000    0.909    0.000    5.455    0.000    0.000 
#    0.000    0.000    0.000    0.000    0.000    0.000 
#
# Total GULP energy -545401.189423 kJ/mol
# GULP energy per Si atom -12395.481578 kJ/mol
# Density = 1.840854 g / cm^3
# Si number density = 18.450538 Si / 1000 Ang^3
#
#
#
# Elastic Constant Matrix: (Units=GPa)
#
#
# Indices 1 2 3 4 5 6 
#
# 1 67.1846 42.3062 40.3974 0.0000 0.0000 0.0000
# 2 42.3062 127.9721 54.6144 0.0000 0.0000 0.0000
# 3 40.3974 54.6144 93.6233 -0.0001 0.0000 0.0001
# 4 0.0000 0.0000 -0.0001 19.5528 0.0000 0.0000
# 5 0.0000 0.0000 0.0000 0.0000 29.6978 0.0000
# 6 0.0000 0.0000 0.0001 0.0000 0.0000 23.1786
#
#
#
# Elastic Compliance Matrix: (Units=1/GPa)
#
#
# Indices 1 2 3 4 5 6 
#
# 1 0.021692 -0.004230 -0.006893 0.000000 0.000000 0.000000
# 2 -0.004230 0.011229 -0.004725 0.000000 0.000000 0.000000
# 3 -0.006893 -0.004725 0.016412 0.000000 0.000000 0.000000
# 4 0.000000 0.000000 0.000000 0.051144 0.000000 0.000000
# 5 0.000000 0.000000 0.000000 0.000000 0.033672 0.000000
# 6 0.000000 0.000000 0.000000 0.000000 0.000000 0.043143
#
#
# Mechanical properties :
#
#
# Convention : Reuss Voigt Hill
#
# Bulk Modulus (GPa) = 56.69655 62.60178 59.64916
# Shear Modulus (GPa) = 23.27021 24.58330 23.92676
#
# Velocity S-wave (km/s) = 3.55522 3.65415 3.60503
# Velocity P-wave (km/s) = 6.90278 7.19770 7.05179
#
# Compressibility (1/GPa) = 0.01763776
#
# Stress axis : x y z
#
# Youngs Moduli (GPa) = 46.09944 89.05410 60.93225
#
# Poissons Ratio (x) = 0.37667 0.41998
# Poissons Ratio (y) = 0.19499 0.28793
# Poissons Ratio (z) = 0.31774 0.42081
#
# Static dielectric constant tensor:
#      x y z
#    x 3.486800 0.000000 0.000000 
#    y 0.000000 4.265910 0.000000 
#    z 0.000000 0.000000 3.092460 
# 
# 
# High freq. dielectric constant tensor:
#      x y z
#    x 1.715630 0.000000 0.000000 
#    y 0.000000 1.735800 0.000000 
#    z 0.000000 0.000000 1.686830 
# 
# From -- ./inp_files/40132.got.cif
#   From: 2010.03.12/outbox.cif.g09.slc.cpg/sg74_21_cif.got.tgz:40132.got - 2010.04.16 15:46:19.
