data_PCOD8299688
_publ_section_title
;
Structure prediction by ZEFSAII (Michael W. Deem and Ramdas Pophale) SiO2 
 PCOD8299688
Probable space group: I M M A
;
_chemical_formula_sum "Si O2"
_cell_formula_units_Z 72
_cell_length_a 8.926658
_cell_length_b 31.743098
_cell_length_c 13.318963
_cell_angle_alpha 90.000000
_cell_angle_beta 90.000000
_cell_angle_gamma 90.000000
_cell_volume 3774.058422
_symmetry_space_group_name_H-M "I M M A"
_symmetry_group_IT_number 74
_symmetry_cell_setting 'orthorhombic'
loop_
_space_group_symop_operation_xyz
x,y,z
-x,1/2-y,z
x,-y,-z
-x,1/2+y,-z
-x,-y,-z
x,1/2+y,-z
-x,y,z
x,1/2-y,z
1/2+x,1/2+y,1/2+z
1/2-x,-y,1/2+z
1/2+x,1/2-y,1/2-z
1/2-x,y,1/2-z
1/2-x,1/2-y,1/2-z
1/2+x,y,1/2-z
1/2-x,1/2+y,1/2+z
1/2+x,-y,1/2+z
loop_
_atom_site_type_symbol
_atom_site_label
_atom_site_fract_x
_atom_site_fract_y
_atom_site_fract_z
Si Si1 0.837460 0.397779 0.342860
Si Si2 0.167398 0.321956 0.490677
Si Si3 0.179783 0.250000 0.137852
Si Si4 0.322353 0.379434 0.641726
Si Si5 0.675400 0.547246 0.512000
O O1 0.750000 0.377504 0.250000
O O2 0.854366 0.363125 0.426385
O O3 0.748418 0.437592 0.384746
O O4 0.000000 0.413192 0.306819
O O5 0.266819 0.289830 0.426576
O O6 0.254304 0.336930 0.591001
O O7 0.000000 0.303719 0.515972
O O8 0.250000 0.250000 0.250000
O O9 0.000000 0.250000 0.148418
O O10 0.500000 0.373339 0.650217
O O11 0.250000 0.385000 0.750000
O O12 0.281192 0.421937 0.580210
O O13 0.737271 0.500000 0.500000
O O14 0.500000 0.547348 0.528293
#
# Coordination Sequence:
#
# PCOD8299688 Si02
#       5
#    16  16   8  16  16
#     4  10  20  33  52  76 104 139 176 216 264 319
#     4  10  21  38  58  82 111 143 182 226 272 324
#     4  12  24  38  59  88 119 150 182 220 272 328
#     4  10  20  36  58  81 109 147 189 232 279 331
#     4   9  19  35  53  76 107 141 180 227 274 321
#
# _framework density 19.077605999999999
#
# number of rings (size 3 to 8) (size 9 to 14) (size 15 to 20)
#    0.000    2.000    0.000    3.667    0.000    6.667 
#    0.000    2.778    0.000    0.000    0.000    0.000 
#    0.000    0.000    0.000    0.000    0.000    0.000 
#
# Total GULP energy -446212.601548 kJ/mol
# GULP energy per Si atom -12394.794487 kJ/mol
# Density = 1.903418 g / cm^3
# Si number density = 19.077606 Si / 1000 Ang^3
#
#
#
# Elastic Constant Matrix: (Units=GPa)
#
#
# Indices 1 2 3 4 5 6 
#
# 1 116.2738 43.3223 60.8929 0.0000 0.0000 0.0000
# 2 43.3223 88.0233 26.5609 -0.0001 0.0000 0.0001
# 3 60.8929 26.5609 98.1272 0.0004 0.0001 0.0006
# 4 0.0000 -0.0001 0.0004 9.5162 0.0001 0.0004
# 5 0.0000 0.0000 0.0001 0.0001 37.1787 0.0001
# 6 0.0000 0.0001 0.0006 0.0004 0.0001 38.0547
#
#
#
# Elastic Compliance Matrix: (Units=1/GPa)
#
#
# Indices 1 2 3 4 5 6 
#
# 1 0.014373 -0.004772 -0.007627 0.000000 0.000000 0.000000
# 2 -0.004772 0.013956 -0.000816 0.000000 0.000000 0.000000
# 3 -0.007627 -0.000816 0.015145 -0.000001 0.000000 0.000000
# 4 0.000000 0.000000 -0.000001 0.105084 0.000000 -0.000001
# 5 0.000000 0.000000 0.000000 0.000000 0.026897 0.000000
# 6 0.000000 0.000000 0.000000 -0.000001 0.000000 0.026278
#
#
# Mechanical properties :
#
#
# Convention : Reuss Voigt Hill
#
# Bulk Modulus (GPa) = 58.67843 62.66409 60.67126
# Shear Modulus (GPa) = 21.38171 28.39312 24.88742
#
# Velocity S-wave (km/s) = 3.35143 3.86203 3.61575
# Velocity P-wave (km/s) = 6.76762 7.26672 7.02161
#
# Compressibility (1/GPa) = 0.01704204
#
# Stress axis : x y z
#
# Youngs Moduli (GPa) = 69.57478 71.65538 66.02877
#
# Poissons Ratio (x) = 0.34197 0.50363
# Poissons Ratio (y) = 0.33204 0.05388
# Poissons Ratio (z) = 0.53068 0.05847
#
# Static dielectric constant tensor:
#      x y z
#    x 3.934000 0.000000 0.000000 
#    y 0.000000 3.638420 0.000000 
#    z 0.000000 0.000000 3.483780 
# 
# 
# High freq. dielectric constant tensor:
#      x y z
#    x 1.759200 0.000000 0.000000 
#    y 0.000000 1.731500 0.000000 
#    z 0.000000 0.000000 1.738230 
# 
# From -- ./inp_files/29426.got.cif
#   From: 2010.03.12/outbox.cif.g09.slc.cpg/sg74_15_cif.got.tgz:29426.got - 2010.04.16 15:46:19.
