data_PCOD8299054
_publ_section_title
;
Structure prediction by ZEFSAII (Michael W. Deem and Ramdas Pophale) SiO2 
 PCOD8299054
Probable space group: I M M A
;
_chemical_formula_sum "Si O2"
_cell_formula_units_Z 96
_cell_length_a 29.836133
_cell_length_b 9.152212
_cell_length_c 19.427931
_cell_angle_alpha 90.000000
_cell_angle_beta 90.000000
_cell_angle_gamma 90.000000
_cell_volume 5305.119344
_symmetry_space_group_name_H-M "I M M A"
_symmetry_group_IT_number 74
_symmetry_cell_setting 'orthorhombic'
loop_
_space_group_symop_operation_xyz
x,y,z
-x,1/2-y,z
x,-y,-z
-x,1/2+y,-z
-x,-y,-z
x,1/2+y,-z
-x,y,z
x,1/2-y,z
1/2+x,1/2+y,1/2+z
1/2-x,-y,1/2+z
1/2+x,1/2-y,1/2-z
1/2-x,y,1/2-z
1/2-x,1/2-y,1/2-z
1/2+x,y,1/2-z
1/2-x,1/2+y,1/2+z
1/2+x,-y,1/2+z
loop_
_atom_site_type_symbol
_atom_site_label
_atom_site_fract_x
_atom_site_fract_y
_atom_site_fract_z
Si Si1 0.446592 0.914181 0.434266
Si Si2 0.340941 0.922784 0.069313
Si Si3 0.949247 0.082420 0.199284
Si Si4 0.629803 0.419697 0.201729
Si Si5 0.262002 0.918403 0.433280
Si Si6 0.203325 0.581048 0.213522
O O1 0.500000 0.916882 0.436673
O O2 0.427750 0.750000 0.436358
O O3 0.426891 0.000000 0.500000
O O4 0.429815 0.988386 0.363982
O O5 0.348691 0.750000 0.064287
O O6 0.289146 0.964550 0.082672
O O7 0.369323 0.987195 0.132148
O O8 0.358266 0.000000 0.000000
O O9 0.947434 0.250000 0.175201
O O10 0.919362 0.055877 0.266529
O O11 0.000000 0.035813 0.218057
O O12 0.639216 0.250000 0.185824
O O13 0.665985 0.475459 0.256473
O O14 0.263409 0.750000 0.451880
O O15 0.292402 0.954685 0.367432
O O16 0.281403 0.000000 0.500000
O O17 0.190023 0.750000 0.226433
O O18 0.250000 0.546503 0.250000
#
# Coordination Sequence:
#
# PCOD8299054 Si02
#       6
#    16  16  16  16  16  16
#     4   9  16  27  47  74 100 128 167 213 260 310
#     4  10  19  34  54  78 107 138 173 214 257 308
#     4   9  19  36  54  73 103 140 178 222 268 314
#     4  11  22  34  53  82 107 135 176 219 265 313
#     4   9  18  32  51  73 101 139 176 210 252 304
#     4  10  19  35  53  73 105 143 175 208 258 312
#
# _framework density 18.095728000000001
#
# number of rings (size 3 to 8) (size 9 to 14) (size 15 to 20)
#    0.000    2.333    1.667    1.500    0.000    5.000 
#    0.000    0.833    0.000    2.500    0.000    0.000 
#    0.000    0.000    0.000    0.000    0.000    0.000 
#
# Total GULP energy -595284.990702 kJ/mol
# GULP energy per Si atom -12401.770640 kJ/mol
# Density = 1.805454 g / cm^3
# Si number density = 18.095728 Si / 1000 Ang^3
#
#
#
# Elastic Constant Matrix: (Units=GPa)
#
#
# Indices 1 2 3 4 5 6 
#
# 1 50.1029 33.8871 42.2291 0.0000 0.0000 0.0000
# 2 33.8871 104.4647 70.3171 0.0000 0.0000 0.0000
# 3 42.2291 70.3171 137.7585 0.0000 0.0000 0.0000
# 4 0.0000 0.0000 0.0000 40.4820 0.0000 0.0000
# 5 0.0000 0.0000 0.0000 0.0000 19.3353 0.0000
# 6 0.0000 0.0000 0.0000 0.0000 0.0000 19.1853
#
#
#
# Elastic Compliance Matrix: (Units=1/GPa)
#
#
# Indices 1 2 3 4 5 6 
#
# 1 0.028620 -0.005147 -0.006146 0.000000 0.000000 0.000000
# 2 -0.005147 0.015509 -0.006338 0.000000 0.000000 0.000000
# 3 -0.006146 -0.006338 0.012379 0.000000 0.000000 0.000000
# 4 0.000000 0.000000 0.000000 0.024702 0.000000 0.000000
# 5 0.000000 0.000000 0.000000 0.000000 0.051719 0.000000
# 6 0.000000 0.000000 0.000000 0.000000 0.000000 0.052123
#
#
# Mechanical properties :
#
#
# Convention : Reuss Voigt Hill
#
# Bulk Modulus (GPa) = 47.07122 65.02140 56.04631
# Shear Modulus (GPa) = 21.98797 25.52671 23.75734
#
# Velocity S-wave (km/s) = 3.48960 3.75993 3.62729
# Velocity P-wave (km/s) = 6.50425 7.40671 6.97010
#
# Compressibility (1/GPa) = 0.02124440
#
# Stress axis : x y z
#
# Youngs Moduli (GPa) = 34.94007 64.47959 80.78483
#
# Poissons Ratio (x) = 0.33188 0.49652
# Poissons Ratio (y) = 0.17984 0.51205
# Poissons Ratio (z) = 0.21475 0.40870
#
# Static dielectric constant tensor:
#      x y z
#    x 3.068260 0.000000 0.000000 
#    y 0.000000 3.416740 0.000000 
#    z 0.000000 0.000000 3.446010 
# 
# 
# High freq. dielectric constant tensor:
#      x y z
#    x 1.661990 0.000000 0.000000 
#    y 0.000000 1.708130 0.000000 
#    z 0.000000 0.000000 1.708730 
# 
# From -- ./inp_files/49094.got.cif
#   From: 2010.03.12/outbox.cif.g09.slc.cpg/sg74_25_cif.got.tgz:49094.got - 2010.04.16 15:46:19.
