data_PCOD8299159
_publ_section_title
;
Structure prediction by ZEFSAII (Michael W. Deem and Ramdas Pophale) SiO2 
 PCOD8299159
Probable space group: I M M A
;
_chemical_formula_sum "Si O2"
_cell_formula_units_Z 96
_cell_length_a 21.249009
_cell_length_b 26.791634
_cell_length_c 8.772915
_cell_angle_alpha 90.000000
_cell_angle_beta 90.000000
_cell_angle_gamma 90.000000
_cell_volume 4994.382540
_symmetry_space_group_name_H-M "I M M A"
_symmetry_group_IT_number 74
_symmetry_cell_setting 'orthorhombic'
loop_
_space_group_symop_operation_xyz
x,y,z
-x,1/2-y,z
x,-y,-z
-x,1/2+y,-z
-x,-y,-z
x,1/2+y,-z
-x,y,z
x,1/2-y,z
1/2+x,1/2+y,1/2+z
1/2-x,-y,1/2+z
1/2+x,1/2-y,1/2-z
1/2-x,y,1/2-z
1/2-x,1/2-y,1/2-z
1/2+x,y,1/2-z
1/2-x,1/2+y,1/2+z
1/2+x,-y,1/2+z
loop_
_atom_site_type_symbol
_atom_site_label
_atom_site_fract_x
_atom_site_fract_y
_atom_site_fract_z
Si Si1 0.166130 0.441155 0.657984
Si Si2 0.569181 0.091128 0.093057
Si Si3 0.702651 0.305279 0.389140
Si Si4 0.794222 0.902323 0.049495
Si Si5 0.624406 0.531176 0.648982
Si Si6 0.928628 0.305882 0.266442
O O1 0.113735 0.431349 0.533827
O O2 0.161555 0.402554 0.799970
O O3 0.233413 0.436347 0.578506
O O4 0.158793 0.496123 0.728362
O O5 0.500000 0.082293 0.028099
O O6 0.572540 0.062357 0.256535
O O7 0.581764 0.150574 0.109578
O O8 0.714331 0.250000 0.454881
O O9 0.750000 0.314839 0.250000
O O10 0.722363 0.344942 0.517082
O O11 0.628127 0.311984 0.353967
O O12 0.826754 0.926900 0.903945
O O13 0.598480 0.500000 0.500000
O O14 0.923038 0.250000 0.339911
O O15 0.000000 0.311975 0.195119
#
# Coordination Sequence:
#
# PCOD8299159 Si02
#       6
#    16  16  16  16  16  16
#     4  10  23  37  54  81 116 151 189 230 285 349
#     4  11  22  38  58  82 115 152 188 236 290 345
#     4  10  19  34  59  88 114 145 189 241 296 348
#     4  10  21  39  57  84 113 145 189 240 287 339
#     4  10  22  37  56  81 111 147 195 239 283 334
#     4   9  18  34  58  86 112 145 191 236 283 342
#
# _framework density 19.221595000000001
#
# number of rings (size 3 to 8) (size 9 to 14) (size 15 to 20)
#    0.000    2.000    1.667    1.500    0.000    9.667 
#    0.000    5.833    0.000    0.000    0.000    0.000 
#    0.000    0.000    0.000    0.000    0.000    0.000 
#
# Total GULP energy -594665.551261 kJ/mol
# GULP energy per Si atom -12388.865651 kJ/mol
# Density = 1.917785 g / cm^3
# Si number density = 19.221595 Si / 1000 Ang^3
#
#
#
# Elastic Constant Matrix: (Units=GPa)
#
#
# Indices 1 2 3 4 5 6 
#
# 1 77.9500 18.2574 36.4475 0.0000 0.0000 0.0000
# 2 18.2574 110.4561 56.0340 0.0000 0.0000 0.0000
# 3 36.4475 56.0340 84.1461 0.0000 0.0000 0.0000
# 4 0.0000 0.0000 0.0000 24.8829 0.0000 0.0000
# 5 0.0000 0.0000 0.0000 0.0000 16.6898 0.0000
# 6 0.0000 0.0000 0.0000 0.0000 0.0000 14.0781
#
#
#
# Elastic Compliance Matrix: (Units=1/GPa)
#
#
# Indices 1 2 3 4 5 6 
#
# 1 0.016216 0.001333 -0.007912 0.000000 0.000000 0.000000
# 2 0.001333 0.013782 -0.009755 0.000000 0.000000 0.000000
# 3 -0.007912 -0.009755 0.021807 0.000000 0.000000 0.000000
# 4 0.000000 0.000000 0.000000 0.040188 0.000000 0.000000
# 5 0.000000 0.000000 0.000000 0.000000 0.059917 0.000000
# 6 0.000000 0.000000 0.000000 0.000000 0.000000 0.071033
#
#
# Mechanical properties :
#
#
# Convention : Reuss Voigt Hill
#
# Bulk Modulus (GPa) = 52.25269 54.89222 53.57245
# Shear Modulus (GPa) = 19.08491 21.91772 20.50131
#
# Velocity S-wave (km/s) = 3.15443 3.38044 3.26939
# Velocity P-wave (km/s) = 6.36480 6.62239 6.49487
#
# Compressibility (1/GPa) = 0.01913777
#
# Stress axis : x y z
#
# Youngs Moduli (GPa) = 61.66861 72.56062 45.85729
#
# Poissons Ratio (x) = -0.09674 0.36280
# Poissons Ratio (y) = -0.08222 0.44733
# Poissons Ratio (z) = 0.48789 0.70781
#
# Static dielectric constant tensor:
#      x y z
#    x 3.603910 0.000000 0.000000 
#    y 0.000000 3.837820 0.000000 
#    z 0.000000 0.000000 3.418600 
# 
# 
# High freq. dielectric constant tensor:
#      x y z
#    x 1.745980 0.000000 0.000000 
#    y 0.000000 1.766670 0.000000 
#    z 0.000000 0.000000 1.720140 
# 
# From -- ./inp_files/12638.got.cif
#   From: 2010.03.12/outbox.cif.g09.slc.cpg/sg74_7_cif.got.tgz:12638.got - 2010.04.16 15:46:19.
