data_PCOD8299169
_publ_section_title
;
Structure prediction by ZEFSAII (Michael W. Deem and Ramdas Pophale) SiO2 
 PCOD8299169
Probable space group: I M M A
;
_chemical_formula_sum "Si O2"
_cell_formula_units_Z 80
_cell_length_a 10.218591
_cell_length_b 17.484560
_cell_length_c 23.785851
_cell_angle_alpha 90.000000
_cell_angle_beta 90.000000
_cell_angle_gamma 90.000000
_cell_volume 4249.760138
_symmetry_space_group_name_H-M "I M M A"
_symmetry_group_IT_number 74
_symmetry_cell_setting 'orthorhombic'
loop_
_space_group_symop_operation_xyz
x,y,z
-x,1/2-y,z
x,-y,-z
-x,1/2+y,-z
-x,-y,-z
x,1/2+y,-z
-x,y,z
x,1/2-y,z
1/2+x,1/2+y,1/2+z
1/2-x,-y,1/2+z
1/2+x,1/2-y,1/2-z
1/2-x,y,1/2-z
1/2-x,1/2-y,1/2-z
1/2+x,y,1/2-z
1/2-x,1/2+y,1/2+z
1/2+x,-y,1/2+z
loop_
_atom_site_type_symbol
_atom_site_label
_atom_site_fract_x
_atom_site_fract_y
_atom_site_fract_z
Si Si1 0.651872 0.938035 0.595407
Si Si2 0.000000 0.838854 0.189563
Si Si3 0.000000 0.160878 0.677518
Si Si4 0.348443 0.836211 0.491688
Si Si5 0.758726 0.398087 0.878608
Si Si6 0.148080 0.661090 0.795956
O O1 0.500000 0.961111 0.590268
O O2 0.699761 0.895095 0.539177
O O3 0.676879 0.881382 0.646518
O O4 0.737595 0.013364 0.603724
O O5 0.127188 0.879394 0.165115
O O6 0.000000 0.750000 0.172401
O O7 0.000000 0.850246 0.255950
O O8 0.875571 0.119209 0.651992
O O9 0.000000 0.250000 0.661536
O O10 0.500000 0.851205 0.477384
O O11 0.326829 0.750000 0.513810
O O12 0.267378 0.847568 0.434787
O O13 0.171615 0.750000 0.807718
O O14 0.250000 0.629700 0.750000
O O15 0.000000 0.645607 0.774721
#
# Coordination Sequence:
#
# PCOD8299169 Si02
#       6
#    16   8   8  16  16  16
#     4  10  20  36  56  89 119 150 191 246 291 335
#     4  11  22  40  63  86 111 149 201 240 280 344
#     4  11  26  42  59  84 121 157 191 240 294 352
#     4  10  19  34  62  90 116 151 197 244 286 341
#     4  12  22  39  61  88 117 153 192 242 297 348
#     4   9  18  34  56  81 114 155 196 237 285 342
#
# _framework density 18.824591000000002
#
# number of rings (size 3 to 8) (size 9 to 14) (size 15 to 20)
#    0.000    1.600    2.000    3.600    0.000    7.200 
#    1.800    2.000    0.000    0.000    0.000    0.000 
#    0.000    0.000    0.000    0.000    0.000    0.000 
#
# Total GULP energy -496162.593381 kJ/mol
# GULP energy per Si atom -12404.064835 kJ/mol
# Density = 1.878175 g / cm^3
# Si number density = 18.824591 Si / 1000 Ang^3
#
#
#
# Elastic Constant Matrix: (Units=GPa)
#
#
# Indices 1 2 3 4 5 6 
#
# 1 104.8518 43.8429 55.1299 0.0000 0.0000 0.0000
# 2 43.8429 109.7259 53.1034 0.0000 0.0000 0.0000
# 3 55.1299 53.1034 113.5892 0.0000 0.0000 0.0000
# 4 0.0000 0.0000 0.0000 8.6551 0.0000 0.0000
# 5 0.0000 0.0000 0.0000 0.0000 13.3713 0.0000
# 6 0.0000 0.0000 0.0000 0.0000 0.0000 25.1402
#
#
#
# Elastic Compliance Matrix: (Units=1/GPa)
#
#
# Indices 1 2 3 4 5 6 
#
# 1 0.013468 -0.002866 -0.005197 0.000000 0.000000 0.000000
# 2 -0.002866 0.012389 -0.004401 0.000000 0.000000 0.000000
# 3 -0.005197 -0.004401 0.013383 0.000000 0.000000 0.000000
# 4 0.000000 0.000000 0.000000 0.115538 0.000000 0.000000
# 5 0.000000 0.000000 0.000000 0.000000 0.074787 0.000000
# 6 0.000000 0.000000 0.000000 0.000000 0.000000 0.039777
#
#
# Mechanical properties :
#
#
# Convention : Reuss Voigt Hill
#
# Bulk Modulus (GPa) = 69.86810 70.25770 70.06290
# Shear Modulus (GPa) = 16.72013 21.17270 18.94642
#
# Velocity S-wave (km/s) = 2.98351 3.35735 3.17594
# Velocity P-wave (km/s) = 7.00460 7.24102 7.12379
#
# Compressibility (1/GPa) = 0.01431268
#
# Stress axis : x y z
#
# Youngs Moduli (GPa) = 74.24906 80.71899 74.72125
#
# Poissons Ratio (x) = 0.23138 0.38830
# Poissons Ratio (y) = 0.21283 0.32881
# Poissons Ratio (z) = 0.38584 0.35521
#
# Static dielectric constant tensor:
#      x y z
#    x 3.283890 0.000000 0.000000 
#    y 0.000000 3.560280 0.000000 
#    z 0.000000 0.000000 3.562800 
# 
# 
# High freq. dielectric constant tensor:
#      x y z
#    x 1.702500 0.000000 0.000000 
#    y 0.000000 1.744590 0.000000 
#    z 0.000000 0.000000 1.744440 
# 
# From -- ./inp_files/50430.got.cif
#   From: 2010.03.12/outbox.cif.g09.slc.cpg/sg74_26_cif.got.tgz:50430.got - 2010.04.16 15:46:19.
