data_PCOD8299262
_publ_section_title
;
Structure prediction by ZEFSAII (Michael W. Deem and Ramdas Pophale) SiO2 
 PCOD8299262
Probable space group: I M M A
;
_chemical_formula_sum "Si O2"
_cell_formula_units_Z 72
_cell_length_a 14.482421
_cell_length_b 9.131036
_cell_length_c 28.907655
_cell_angle_alpha 90.000000
_cell_angle_beta 90.000000
_cell_angle_gamma 90.000000
_cell_volume 3822.734061
_symmetry_space_group_name_H-M "I M M A"
_symmetry_group_IT_number 74
_symmetry_cell_setting 'orthorhombic'
loop_
_space_group_symop_operation_xyz
x,y,z
-x,1/2-y,z
x,-y,-z
-x,1/2+y,-z
-x,-y,-z
x,1/2+y,-z
-x,y,z
x,1/2-y,z
1/2+x,1/2+y,1/2+z
1/2-x,-y,1/2+z
1/2+x,1/2-y,1/2-z
1/2-x,y,1/2-z
1/2-x,1/2-y,1/2-z
1/2+x,y,1/2-z
1/2-x,1/2+y,1/2+z
1/2+x,-y,1/2+z
loop_
_atom_site_type_symbol
_atom_site_label
_atom_site_fract_x
_atom_site_fract_y
_atom_site_fract_z
Si Si1 0.500000 0.574586 0.050475
Si Si2 0.000000 0.920523 0.295324
Si Si3 0.500000 0.575408 0.699478
Si Si4 0.142372 0.921276 0.372975
Si Si5 0.650723 0.075024 0.638765
Si Si6 0.395195 0.906591 0.460454
O O1 0.500000 0.750000 0.044395
O O2 0.589699 0.521262 0.080643
O O3 0.500000 0.500000 0.000000
O O4 0.088638 0.958395 0.326154
O O5 0.000000 0.750000 0.279519
O O6 0.000000 0.030237 0.252718
O O7 0.500000 0.750000 0.694246
O O8 0.406514 0.508603 0.677881
O O9 0.149859 0.750000 0.379880
O O10 0.244622 0.984797 0.364613
O O11 0.643021 0.250000 0.647654
O O12 0.606359 0.024100 0.590261
O O13 0.500000 0.883915 0.476440
O O14 0.343350 0.750000 0.458409
O O15 0.343175 0.000000 0.500000
#
# Coordination Sequence:
#
# PCOD8299262 Si02
#       6
#     8   8   8  16  16  16
#     4   9  17  33  55  86 118 145 178 219 263 312
#     4   9  18  38  61  80 100 134 179 221 266 318
#     4  12  25  37  52  78 109 139 169 220 279 328
#     4   8  17  34  59  82 105 138 182 226 259 303
#     4  10  19  36  57  78 103 140 185 223 258 310
#     4   9  17  29  46  69  98 133 169 207 248 294
#
# _framework density 18.834686999999999
#
# number of rings (size 3 to 8) (size 9 to 14) (size 15 to 20)
#    0.000    2.667    1.111    2.333    0.000    2.667 
#    0.000    8.889    0.000    0.000    0.000    0.000 
#    0.000    0.000    0.000    0.000    0.000    0.000 
#
# Total GULP energy -445984.027929 kJ/mol
# GULP energy per Si atom -12388.445220 kJ/mol
# Density = 1.879182 g / cm^3
# Si number density = 18.834687 Si / 1000 Ang^3
#
#
#
# Elastic Constant Matrix: (Units=GPa)
#
#
# Indices 1 2 3 4 5 6 
#
# 1 128.6807 37.0552 55.1360 0.0000 0.0000 0.0000
# 2 37.0552 65.5072 51.2098 0.0000 0.0000 0.0000
# 3 55.1360 51.2098 134.3684 0.0000 0.0000 0.0000
# 4 0.0000 0.0000 0.0000 34.2408 0.0000 0.0000
# 5 0.0000 0.0000 0.0000 0.0000 4.6578 0.0000
# 6 0.0000 0.0000 0.0000 0.0000 0.0000 10.7358
#
#
#
# Elastic Compliance Matrix: (Units=1/GPa)
#
#
# Indices 1 2 3 4 5 6 
#
# 1 0.009954 -0.003472 -0.002761 0.000000 0.000000 0.000000
# 2 -0.003472 0.022955 -0.007324 0.000000 0.000000 0.000000
# 3 -0.002761 -0.007324 0.011366 0.000000 0.000000 0.000000
# 4 0.000000 0.000000 0.000000 0.029205 0.000000 0.000000
# 5 0.000000 0.000000 0.000000 0.000000 0.214694 0.000000
# 6 0.000000 0.000000 0.000000 0.000000 0.000000 0.093146
#
#
# Mechanical properties :
#
#
# Convention : Reuss Voigt Hill
#
# Bulk Modulus (GPa) = 58.27084 68.37316 63.32200
# Shear Modulus (GPa) = 12.07278 22.27057 17.17167
#
# Velocity S-wave (km/s) = 2.53452 3.44237 3.02272
# Velocity P-wave (km/s) = 6.29049 7.22360 6.77313
#
# Compressibility (1/GPa) = 0.01716124
#
# Stress axis : x y z
#
# Youngs Moduli (GPa) = 100.46074 43.56387 87.97849
#
# Poissons Ratio (x) = 0.15126 0.24293
# Poissons Ratio (y) = 0.34881 0.64433
# Poissons Ratio (z) = 0.27740 0.31905
#
# Static dielectric constant tensor:
#      x y z
#    x 2.660870 0.000000 0.000000 
#    y 0.000000 3.364670 0.000000 
#    z 0.000000 0.000000 3.452990 
# 
# 
# High freq. dielectric constant tensor:
#      x y z
#    x 1.727740 0.000000 0.000000 
#    y 0.000000 1.692580 0.000000 
#    z 0.000000 0.000000 1.740030 
# 
# From -- ./inp_files/63720.got.cif
#   From: 2010.03.12/outbox.cif.g09.slc.cpg/sg74_32_cif.got.tgz:63720.got - 2010.04.16 15:46:19.
