data_PCOD8299487
_publ_section_title
;
Structure prediction by ZEFSAII (Michael W. Deem and Ramdas Pophale) SiO2 
 PCOD8299487
Probable space group: I M M A
;
_chemical_formula_sum "Si O2"
_cell_formula_units_Z 112
_cell_length_a 13.857693
_cell_length_b 15.088986
_cell_length_c 26.252653
_cell_angle_alpha 90.000000
_cell_angle_beta 90.000000
_cell_angle_gamma 90.000000
_cell_volume 5489.391300
_symmetry_space_group_name_H-M "I M M A"
_symmetry_group_IT_number 74
_symmetry_cell_setting 'orthorhombic'
loop_
_space_group_symop_operation_xyz
x,y,z
-x,1/2-y,z
x,-y,-z
-x,1/2+y,-z
-x,-y,-z
x,1/2+y,-z
-x,y,z
x,1/2-y,z
1/2+x,1/2+y,1/2+z
1/2-x,-y,1/2+z
1/2+x,1/2-y,1/2-z
1/2-x,y,1/2-z
1/2-x,1/2-y,1/2-z
1/2+x,y,1/2-z
1/2-x,1/2+y,1/2+z
1/2+x,-y,1/2+z
loop_
_atom_site_type_symbol
_atom_site_label
_atom_site_fract_x
_atom_site_fract_y
_atom_site_fract_z
Si Si1 0.615226 0.849129 0.689123
Si Si2 0.107506 0.145924 0.075504
Si Si3 0.114455 0.350391 0.373723
Si Si4 0.114679 0.650721 0.320215
Si Si5 0.790057 0.906120 0.522431
Si Si6 0.115317 0.468125 0.280258
Si Si7 0.603902 0.151111 0.929934
O O1 0.500000 0.849670 0.688286
O O2 0.649862 0.750000 0.704852
O O3 0.650433 0.873234 0.631945
O O4 0.655847 0.922814 0.728440
O O5 0.105652 0.250000 0.065702
O O6 0.176382 0.101197 0.033711
O O7 0.000000 0.106162 0.068866
O O8 0.153487 0.250000 0.366799
O O9 0.148816 0.387896 0.427527
O O10 0.155520 0.410022 0.327616
O O11 0.000000 0.351187 0.373931
O O12 0.157460 0.750000 0.306803
O O13 0.150340 0.571452 0.282415
O O14 0.145496 0.612456 0.376507
O O15 0.000000 0.656348 0.317613
O O16 0.820574 0.842837 0.476147
O O17 0.818595 0.000000 0.500000
O O18 0.000000 0.463442 0.280808
O O19 0.500000 0.106335 0.945370
O O20 0.580828 0.250000 0.912967
#
# Coordination Sequence:
#
# PCOD8299487 Si02
#       7
#    16  16  16  16  16  16  16
#     4   8  14  27  49  73  94 121 157 198 252 309
#     4   9  19  37  57  73  92 121 162 214 264 307
#     4  10  20  32  47  72 108 143 172 205 243 289
#     4   8  14  24  39  64 100 138 171 199 229 278
#     4  12  23  32  47  71  99 131 168 207 251 301
#     4   9  15  25  44  70 101 135 166 198 241 293
#     4   9  17  30  47  67  97 137 173 200 230 278
#
# _framework density 20.402991
#
# number of rings (size 3 to 8) (size 9 to 14) (size 15 to 20)
#    0.000    2.714    0.000    4.714    0.000    5.429 
#    0.000    0.714    0.000    2.571    0.000    3.000 
#    0.000    9.143    0.000    0.143    0.000    0.714 
#
# Total GULP energy -693772.758806 kJ/mol
# GULP energy per Si atom -12388.799264 kJ/mol
# Density = 2.035655 g / cm^3
# Si number density = 20.402991 Si / 1000 Ang^3
#
#
#
# Elastic Constant Matrix: (Units=GPa)
#
#
# Indices 1 2 3 4 5 6 
#
# 1 27.3623 21.2599 27.3495 0.0000 0.0000 0.0000
# 2 21.2599 118.0414 54.5991 0.0000 0.0000 0.0000
# 3 27.3495 54.5991 86.1377 0.0000 0.0000 0.0000
# 4 0.0000 0.0000 0.0000 5.7253 0.0000 0.0000
# 5 0.0000 0.0000 0.0000 0.0000 62.4785 0.0000
# 6 0.0000 0.0000 0.0000 0.0000 0.0000 18.1070
#
#
#
# Elastic Compliance Matrix: (Units=1/GPa)
#
#
# Indices 1 2 3 4 5 6 
#
# 1 0.054072 -0.002543 -0.015556 0.000000 0.000000 0.000000
# 2 -0.002543 0.012105 -0.006866 0.000000 0.000000 0.000000
# 3 -0.015556 -0.006866 0.020900 0.000000 0.000000 0.000000
# 4 0.000000 0.000000 0.000000 0.174664 0.000000 0.000000
# 5 0.000000 0.000000 0.000000 0.000000 0.016005 0.000000
# 6 0.000000 0.000000 0.000000 0.000000 0.000000 0.055227
#
#
# Mechanical properties :
#
#
# Convention : Reuss Voigt Hill
#
# Bulk Modulus (GPa) = 26.91982 48.66206 37.79094
# Shear Modulus (GPa) = 12.64904 25.81768 19.23336
#
# Velocity S-wave (km/s) = 2.49260 3.56109 3.07363
# Velocity P-wave (km/s) = 4.63754 6.38832 5.58200
#
# Compressibility (1/GPa) = 0.03714735
#
# Stress axis : x y z
#
# Youngs Moduli (GPa) = 18.49397 82.60881 47.84617
#
# Poissons Ratio (x) = 0.21009 0.74430
# Poissons Ratio (y) = 0.04703 0.32849
# Poissons Ratio (z) = 0.28770 0.56715
#
# Static dielectric constant tensor:
#      x y z
#    x 3.457860 0.000000 0.000000 
#    y 0.000000 3.838180 0.000000 
#    z 0.000000 0.000000 4.569330 
# 
# 
# High freq. dielectric constant tensor:
#      x y z
#    x 1.771600 0.000000 0.000000 
#    y 0.000000 1.790460 0.000000 
#    z 0.000000 0.000000 1.790900 
# 
# From -- ./inp_files/67240.got.cif
#   From: 2010.03.12/outbox.cif.g09.slc.cpg/sg74_34_cif.got.tgz:67240.got - 2010.04.16 15:46:19.
