data_PCOD8299510
_publ_section_title
;
Structure prediction by ZEFSAII (Michael W. Deem and Ramdas Pophale) SiO2 
 PCOD8299510
Probable space group: I M M A
;
_chemical_formula_sum "Si O2"
_cell_formula_units_Z 96
_cell_length_a 19.465992
_cell_length_b 9.254702
_cell_length_c 30.477439
_cell_angle_alpha 90.000000
_cell_angle_beta 90.000000
_cell_angle_gamma 90.000000
_cell_volume 5490.570222
_symmetry_space_group_name_H-M "I M M A"
_symmetry_group_IT_number 74
_symmetry_cell_setting 'orthorhombic'
loop_
_space_group_symop_operation_xyz
x,y,z
-x,1/2-y,z
x,-y,-z
-x,1/2+y,-z
-x,-y,-z
x,1/2+y,-z
-x,y,z
x,1/2-y,z
1/2+x,1/2+y,1/2+z
1/2-x,-y,1/2+z
1/2+x,1/2-y,1/2-z
1/2-x,y,1/2-z
1/2-x,1/2-y,1/2-z
1/2+x,y,1/2-z
1/2-x,1/2+y,1/2+z
1/2+x,-y,1/2+z
loop_
_atom_site_type_symbol
_atom_site_label
_atom_site_fract_x
_atom_site_fract_y
_atom_site_fract_z
Si Si1 0.826945 0.085270 0.700022
Si Si2 0.076739 0.421785 0.364383
Si Si3 0.580310 0.418952 0.370894
Si Si4 0.581603 0.590960 0.960305
Si Si5 0.331512 0.415521 0.698540
Si Si6 0.418324 0.914228 0.457747
O O1 0.845805 0.250000 0.688879
O O2 0.748006 0.055145 0.688200
O O3 0.844075 0.052283 0.750440
O O4 0.871950 0.978708 0.671647
O O5 0.077958 0.250000 0.364648
O O6 0.099686 0.477656 0.412783
O O7 0.000000 0.477346 0.353468
O O8 0.500000 0.447245 0.362469
O O9 0.595487 0.250000 0.377571
O O10 0.621451 0.476746 0.329060
O O11 0.606399 0.503450 0.414013
O O12 0.500000 0.599530 0.964915
O O13 0.613821 0.750000 0.964161
O O14 0.614451 0.500000 0.000000
O O15 0.350933 0.250000 0.687356
O O16 0.500000 0.912478 0.459761
O O17 0.389763 0.750000 0.457632
O O18 0.389069 0.000000 0.500000
#
# Coordination Sequence:
#
# PCOD8299510 Si02
#       6
#    16  16  16  16  16  16
#     4   9  19  35  53  71  92 123 163 202 240 288
#     4   9  18  31  47  71 102 129 154 192 241 285
#     4  10  20  32  48  74 103 128 160 201 242 287
#     4   8  14  25  41  63  92 124 155 187 225 270
#     4   9  19  36  53  69  93 125 161 201 245 290
#     4   9  16  27  45  69  98 131 163 196 237 284
#
# _framework density 17.484521999999998
#
# number of rings (size 3 to 8) (size 9 to 14) (size 15 to 20)
#    0.000    3.000    0.000    3.000    0.000    6.000 
#    0.000    6.667    0.000    1.000    0.000    2.333 
#    0.000    0.000    0.000    0.000    0.000    0.000 
#
# Total GULP energy -595041.072466 kJ/mol
# GULP energy per Si atom -12396.689010 kJ/mol
# Density = 1.744473 g / cm^3
# Si number density = 17.484522 Si / 1000 Ang^3
#
#
#
# Elastic Constant Matrix: (Units=GPa)
#
#
# Indices 1 2 3 4 5 6 
#
# 1 46.5233 35.3473 50.1273 0.0000 0.0000 0.0000
# 2 35.3473 94.4137 62.1059 0.0000 0.0000 0.0000
# 3 50.1273 62.1059 117.9935 0.0000 0.0000 0.0000
# 4 0.0000 0.0000 0.0000 38.5056 0.0000 0.0000
# 5 0.0000 0.0000 0.0000 0.0000 -13.4043 0.0000
# 6 0.0000 0.0000 0.0000 0.0000 0.0000 25.4135
#
#
#
# Elastic Compliance Matrix: (Units=1/GPa)
#
#
# Indices 1 2 3 4 5 6 
#
# 1 0.041795 -0.006069 -0.014562 0.000000 0.000000 0.000000
# 2 -0.006069 0.017082 -0.006413 0.000000 0.000000 0.000000
# 3 -0.014562 -0.006413 0.018037 0.000000 0.000000 0.000000
# 4 0.000000 0.000000 0.000000 0.025970 0.000000 0.000000
# 5 0.000000 0.000000 0.000000 0.000000 -0.074603 0.000000
# 6 0.000000 0.000000 0.000000 0.000000 0.000000 0.039349
#
#
# Mechanical properties :
#
#
# Convention : Reuss Voigt Hill
#
# Bulk Modulus (GPa) = 43.80718 61.56574 52.68646
# Shear Modulus (GPa) = 38.66176 17.52629 28.09402
#
# Velocity S-wave (km/s) = 4.70744 3.16949 4.01283
# Velocity P-wave (km/s) = 7.39296 6.97726 7.18812
#
# Compressibility (1/GPa) = 0.02282731
#
# Stress axis : x y z
#
# Youngs Moduli (GPa) = 23.92622 58.54005 55.44244
#
# Poissons Ratio (x) = 0.35527 0.80733
# Poissons Ratio (y) = 0.14521 0.35555
# Poissons Ratio (z) = 0.34840 0.37542
#
# Static dielectric constant tensor:
#      x y z
#    x 2.861370 0.000000 0.000000 
#    y 0.000000 3.310020 0.000000 
#    z 0.000000 0.000000 3.403820 
# 
# 
# High freq. dielectric constant tensor:
#      x y z
#    x 1.632710 0.000000 0.000000 
#    y 0.000000 1.677870 0.000000 
#    z 0.000000 0.000000 1.688220 
# 
# From -- ./inp_files/68103.got.cif
#   From: 2010.03.12/outbox.cif.g09.slc.cpg/sg74_35_cif.got.tgz:68103.got - 2010.04.16 15:46:19.
