data_PCOD8299277
_publ_section_title
;
Structure prediction by ZEFSAII (Michael W. Deem and Ramdas Pophale) SiO2 
 PCOD8299277
Probable space group: I M M A
;
_chemical_formula_sum "Si O2"
_cell_formula_units_Z 96
_cell_length_a 8.770175
_cell_length_b 24.241271
_cell_length_c 22.153116
_cell_angle_alpha 90.000000
_cell_angle_beta 90.000000
_cell_angle_gamma 90.000000
_cell_volume 4709.756646
_symmetry_space_group_name_H-M "I M M A"
_symmetry_group_IT_number 74
_symmetry_cell_setting 'orthorhombic'
loop_
_space_group_symop_operation_xyz
x,y,z
-x,1/2-y,z
x,-y,-z
-x,1/2+y,-z
-x,-y,-z
x,1/2+y,-z
-x,y,z
x,1/2-y,z
1/2+x,1/2+y,1/2+z
1/2-x,-y,1/2+z
1/2+x,1/2-y,1/2-z
1/2-x,y,1/2-z
1/2-x,1/2-y,1/2-z
1/2+x,y,1/2-z
1/2-x,1/2+y,1/2+z
1/2+x,-y,1/2+z
loop_
_atom_site_type_symbol
_atom_site_label
_atom_site_fract_x
_atom_site_fract_y
_atom_site_fract_z
Si Si1 0.326866 0.560757 0.486295
Si Si2 0.179551 0.434540 0.186273
Si Si3 0.820770 0.334899 0.688835
Si Si4 0.673445 0.557095 0.346083
Si Si5 0.176135 0.133655 0.418455
Si Si6 0.823565 0.750000 0.529867
Si Si7 0.180479 0.250000 0.899697
O O1 0.264628 0.500000 0.500000
O O2 0.500000 0.566600 0.511038
O O3 0.318587 0.572097 0.415966
O O4 0.218459 0.603744 0.519277
O O5 0.250000 0.417654 0.250000
O O6 0.235580 0.495517 0.166385
O O7 0.227976 0.389662 0.137137
O O8 0.000000 0.433529 0.191798
O O9 0.750000 0.309371 0.750000
O O10 0.782362 0.399969 0.687762
O O11 0.747719 0.304662 0.631394
O O12 0.000000 0.325003 0.688551
O O13 0.500000 0.563588 0.322465
O O14 0.214437 0.197824 0.427956
O O15 0.000000 0.123764 0.404050
O O16 0.721098 0.750000 0.470141
O O17 0.000000 0.750000 0.509326
O O18 0.000000 0.250000 0.892754
#
# Coordination Sequence:
#
# PCOD8299277 Si02
#       7
#    16  16  16  16  16   8   8
#     4  10  19  36  59  88 124 161 198 247 304 358
#     4  11  23  41  63  90 124 161 203 252 307 367
#     4  12  25  41  61  87 123 164 210 258 303 357
#     4  10  21  38  61  90 125 163 204 250 304 365
#     4  11  23  40  63  92 125 161 204 251 304 364
#     4  10  24  45  66  93 126 160 201 256 309 360
#     4  12  25  43  66  91 120 160 207 252 308 366
#
# _framework density 20.383217999999999
#
# number of rings (size 3 to 8) (size 9 to 14) (size 15 to 20)
#    0.000    1.167    1.667    5.000    0.000    7.667 
#    0.000    0.417    0.000    0.000    0.000    0.000 
#    0.000    0.000    0.000    0.000    0.000    0.000 
#
# Total GULP energy -595473.664036 kJ/mol
# GULP energy per Si atom -12405.701334 kJ/mol
# Density = 2.033683 g / cm^3
# Si number density = 20.383218 Si / 1000 Ang^3
#
#
#
# Elastic Constant Matrix: (Units=GPa)
#
#
# Indices 1 2 3 4 5 6 
#
# 1 111.5004 49.8279 45.0022 0.0000 0.0000 0.0000
# 2 49.8279 132.0267 41.7501 0.0000 0.0000 0.0000
# 3 45.0022 41.7501 106.0958 0.0000 0.0000 0.0000
# 4 0.0000 0.0000 0.0000 18.6035 0.0000 0.0000
# 5 0.0000 0.0000 0.0000 0.0000 36.9227 0.0000
# 6 0.0000 0.0000 0.0000 0.0000 0.0000 25.3977
#
#
#
# Elastic Compliance Matrix: (Units=1/GPa)
#
#
# Indices 1 2 3 4 5 6 
#
# 1 0.011978 -0.003328 -0.003771 0.000000 0.000000 0.000000
# 2 -0.003328 0.009575 -0.002356 0.000000 0.000000 0.000000
# 3 -0.003771 -0.002356 0.011952 0.000000 0.000000 0.000000
# 4 0.000000 0.000000 0.000000 0.053753 0.000000 0.000000
# 5 0.000000 0.000000 0.000000 0.000000 0.027084 0.000000
# 6 0.000000 0.000000 0.000000 0.000000 0.000000 0.039374
#
#
# Mechanical properties :
#
#
# Convention : Reuss Voigt Hill
#
# Bulk Modulus (GPa) = 68.51829 69.19815 68.85822
# Shear Modulus (GPa) = 28.17033 30.38762 29.27898
#
# Velocity S-wave (km/s) = 3.72161 3.86530 3.79413
# Velocity P-wave (km/s) = 7.22185 7.34459 7.28348
#
# Compressibility (1/GPa) = 0.01459464
#
# Stress axis : x y z
#
# Youngs Moduli (GPa) = 83.48771 104.43417 83.66645
#
# Poissons Ratio (x) = 0.34756 0.31550
# Poissons Ratio (y) = 0.27785 0.19715
# Poissons Ratio (z) = 0.31483 0.24609
#
# Static dielectric constant tensor:
#      x y z
#    x 3.663090 0.000000 0.000000 
#    y 0.000000 3.774780 0.000000 
#    z 0.000000 0.000000 3.663040 
# 
# 
# High freq. dielectric constant tensor:
#      x y z
#    x 1.795910 0.000000 0.000000 
#    y 0.000000 1.799790 0.000000 
#    z 0.000000 0.000000 1.799900 
# 
# From -- ./inp_files/57315.got.cif
#   From: 2010.03.12/outbox.cif.g09.slc.cpg/sg74_29_cif.got.tgz:57315.got - 2010.04.16 15:46:19.
