data_PCOD8299155
_publ_section_title
;
Structure prediction by ZEFSAII (Michael W. Deem and Ramdas Pophale) SiO2 
 PCOD8299155
Probable space group: I M M A
;
_chemical_formula_sum "Si O2"
_cell_formula_units_Z 120
_cell_length_a 20.002937
_cell_length_b 24.249371
_cell_length_c 13.222778
_cell_angle_alpha 90.000000
_cell_angle_beta 90.000000
_cell_angle_gamma 90.000000
_cell_volume 6413.822719
_symmetry_space_group_name_H-M "I M M A"
_symmetry_group_IT_number 74
_symmetry_cell_setting 'orthorhombic'
loop_
_space_group_symop_operation_xyz
x,y,z
-x,1/2-y,z
x,-y,-z
-x,1/2+y,-z
-x,-y,-z
x,1/2+y,-z
-x,y,z
x,1/2-y,z
1/2+x,1/2+y,1/2+z
1/2-x,-y,1/2+z
1/2+x,1/2-y,1/2-z
1/2-x,y,1/2-z
1/2-x,1/2-y,1/2-z
1/2+x,y,1/2-z
1/2-x,1/2+y,1/2+z
1/2+x,-y,1/2+z
loop_
_atom_site_type_symbol
_atom_site_label
_atom_site_fract_x
_atom_site_fract_y
_atom_site_fract_z
Si Si1 0.250000 0.002802 0.250000
Si Si2 0.425837 0.559747 0.464442
Si Si3 0.180478 0.310340 0.806374
Si Si4 0.185791 0.096992 0.386333
Si Si5 0.681529 0.852012 0.526888
Si Si6 0.328390 0.309233 0.261622
Si Si7 0.872551 0.574062 0.241265
Si Si8 0.426518 0.060746 0.962534
O O1 0.214878 0.041234 0.335058
O O2 0.193380 0.961051 0.208406
O O3 0.404153 0.500000 0.500000
O O4 0.500000 0.575429 0.503819
O O5 0.371376 0.600127 0.509543
O O6 0.427688 0.560310 0.342609
O O7 0.146913 0.250000 0.786493
O O8 0.250000 0.312651 0.750000
O O9 0.137283 0.359856 0.760744
O O10 0.190057 0.315519 0.927093
O O11 0.246162 0.124229 0.446368
O O12 0.150662 0.137646 0.304284
O O13 0.127108 0.089320 0.466096
O O14 0.652934 0.816913 0.620650
O O15 0.360043 0.250000 0.226176
O O16 0.250000 0.304951 0.250000
O O17 0.898662 0.557230 0.349752
O O18 0.500000 0.090355 0.965174
O O19 0.437386 0.000000 0.000000
#
# Coordination Sequence:
#
# PCOD8299155 Si02
#       8
#     8  16  16  16  16  16  16  16
#     4  12  20  34  56  92 114 146 184 238 288 342
#     4  10  22  36  55  83 118 153 187 231 288 353
#     4  10  20  34  53  84 116 147 191 238 290 339
#     4  11  21  36  58  88 120 147 191 243 287 350
#     4  10  19  34  59  84 112 150 187 239 290 337
#     4   9  18  34  56  85 115 147 187 235 290 340
#     4  11  22  38  58  82 120 153 190 242 288 346
#     4  11  24  39  58  84 118 160 196 238 293 355
#
# _framework density 18.709591
#
# number of rings (size 3 to 8) (size 9 to 14) (size 15 to 20)
#    0.000    1.600    4.000    2.400    1.867    1.067 
#    0.000    1.333    0.000   15.600    0.000    0.000 
#    0.000    0.000    0.000    0.000    0.000    0.000 
#
# Total GULP energy -743472.390242 kJ/mol
# GULP energy per Si atom -12391.206504 kJ/mol
# Density = 1.866701 g / cm^3
# Si number density = 18.709591 Si / 1000 Ang^3
#
#
#
# Elastic Constant Matrix: (Units=GPa)
#
#
# Indices 1 2 3 4 5 6 
#
# 1 77.0464 35.0856 31.4036 0.0000 0.0000 0.0000
# 2 35.0856 121.7113 44.5295 0.0000 0.0000 0.0000
# 3 31.4036 44.5295 112.8985 0.0000 0.0000 0.0000
# 4 0.0000 0.0000 0.0000 22.5034 0.0000 0.0000
# 5 0.0000 0.0000 0.0000 0.0000-2099.7934 0.0000
# 6 0.0000 0.0000 0.0000 0.0000 0.0000 17.1414
#
#
#
# Elastic Compliance Matrix: (Units=1/GPa)
#
#
# Indices 1 2 3 4 5 6 
#
# 1 0.015782 -0.003440 -0.003033 0.000000 0.000000 0.000000
# 2 -0.003440 0.010351 -0.003126 0.000000 0.000000 0.000000
# 3 -0.003033 -0.003126 0.010934 0.000000 0.000000 0.000000
# 4 0.000000 0.000000 0.000000 0.044438 0.000000 0.000000
# 5 0.000000 0.000000 0.000000 0.000000 -0.000476 0.000000
# 6 0.000000 0.000000 0.000000 0.000000 0.000000 0.058338
#
#
# Mechanical properties :
#
#
# Convention : Reuss Voigt Hill
#
# Bulk Modulus (GPa) = 55.96072 59.29928 57.63000
# Shear Modulus (GPa) = 30.39115 -398.65389 -184.13137
#
# Velocity S-wave (km/s) = 4.03471 -14.61291 -9.93122
# Velocity P-wave (km/s) = 7.18890 15.90449 10.03176
#
# Compressibility (1/GPa) = 0.01786968
#
# Stress axis : x y z
#
# Youngs Moduli (GPa) = 63.36386 96.60508 91.45634
#
# Poissons Ratio (x) = 0.33229 0.27740
# Poissons Ratio (y) = 0.21795 0.28590
# Poissons Ratio (z) = 0.19219 0.30199
#
# Static dielectric constant tensor:
#      x y z
#    x 3.333430 0.000000 0.000000 
#    y 0.000000 4.000240 0.000000 
#    z 0.000000 0.000000 3.496690 
# 
# 
# High freq. dielectric constant tensor:
#      x y z
#    x 1.701520 0.000000 0.000000 
#    y 0.000000 1.732450 0.000000 
#    z 0.000000 0.000000 1.737700 
# 
# From -- ./inp_files/24234.got.cif
#   From: 2010.03.12/outbox.cif.g09.slc.cpg/sg74_13_cif.got.tgz:24234.got - 2010.04.16 15:46:19.
