data_PCOD8299542
_publ_section_title
;
Structure prediction by ZEFSAII (Michael W. Deem and Ramdas Pophale) SiO2 
 PCOD8299542
Probable space group: I M M A
;
_chemical_formula_sum "Si O2"
_cell_formula_units_Z 88
_cell_length_a 18.900287
_cell_length_b 9.331837
_cell_length_c 25.172488
_cell_angle_alpha 90.000000
_cell_angle_beta 90.000000
_cell_angle_gamma 90.000000
_cell_volume 4439.782406
_symmetry_space_group_name_H-M "I M M A"
_symmetry_group_IT_number 74
_symmetry_cell_setting 'orthorhombic'
loop_
_space_group_symop_operation_xyz
x,y,z
-x,1/2-y,z
x,-y,-z
-x,1/2+y,-z
-x,-y,-z
x,1/2+y,-z
-x,y,z
x,1/2-y,z
1/2+x,1/2+y,1/2+z
1/2-x,-y,1/2+z
1/2+x,1/2-y,1/2-z
1/2-x,y,1/2-z
1/2-x,1/2-y,1/2-z
1/2+x,y,1/2-z
1/2-x,1/2+y,1/2+z
1/2+x,-y,1/2+z
loop_
_atom_site_type_symbol
_atom_site_label
_atom_site_fract_x
_atom_site_fract_y
_atom_site_fract_z
Si Si1 0.198476 0.084882 0.650556
Si Si2 0.920574 0.579346 0.268891
Si Si3 0.083213 0.915615 0.051816
Si Si4 0.142101 0.914982 0.161562
Si Si5 0.347032 0.417247 0.055354
Si Si6 0.000000 0.909880 0.551637
O O1 0.182706 0.250000 0.635629
O O2 0.137610 0.022482 0.689255
O O3 0.275413 0.068616 0.676965
O O4 0.204427 0.990863 0.597286
O O5 0.915181 0.750000 0.267098
O O6 0.901935 0.516276 0.210444
O O7 0.000000 0.529481 0.285013
O O8 0.103489 0.750000 0.043199
O O9 0.121193 0.982428 0.104367
O O10 0.000000 0.937256 0.059494
O O11 0.110958 0.000000 0.000000
O O12 0.120069 0.750000 0.156750
O O13 0.328310 0.250000 0.047295
O O14 0.426037 0.438581 0.081841
O O15 0.339913 0.500000 0.000000
O O16 0.000000 0.750000 0.529700
O O17 0.000000 0.000000 0.500000
#
# Coordination Sequence:
#
# PCOD8299542 Si02
#       6
#    16  16  16  16  16   8
#     4  10  20  32  50  78 108 136 169 214 263 312
#     4   9  17  30  51  78 103 131 173 222 263 303
#     4   9  17  30  50  75 101 131 168 210 253 301
#     4   9  17  31  50  73 104 139 172 208 256 309
#     4  10  20  35  53  74 102 137 174 213 256 305
#     4   8  16  30  48  68  90 124 166 206 247 288
#
# _framework density 19.820792000000001
#
# number of rings (size 3 to 8) (size 9 to 14) (size 15 to 20)
#    0.000    2.727    0.000    1.636    1.273    5.818 
#    0.000    2.727    0.000    3.273    0.000    0.000 
#    0.000    0.000    0.000    0.000    0.000    0.000 
#
# Total GULP energy -545203.958613 kJ/mol
# GULP energy per Si atom -12390.999059 kJ/mol
# Density = 1.977568 g / cm^3
# Si number density = 19.820792 Si / 1000 Ang^3
#
#
#
# Elastic Constant Matrix: (Units=GPa)
#
#
# Indices 1 2 3 4 5 6 
#
# 1 78.6392 15.2837 44.1545 0.0000 0.0000 0.0000
# 2 15.2837 48.5567 29.5020 0.0000 0.0000 0.0000
# 3 44.1545 29.5020 127.4873 0.0000 0.0000 0.0000
# 4 0.0000 0.0000 0.0000 22.8177 0.0000 0.0000
# 5 0.0000 0.0000 0.0000 0.0000 33.3680 0.0000
# 6 0.0000 0.0000 0.0000 0.0000 0.0000 13.6385
#
#
#
# Elastic Compliance Matrix: (Units=1/GPa)
#
#
# Indices 1 2 3 4 5 6 
#
# 1 0.015941 -0.001935 -0.005073 0.000000 0.000000 0.000000
# 2 -0.001935 0.024199 -0.004930 0.000000 0.000000 0.000000
# 3 -0.005073 -0.004930 0.010742 0.000000 0.000000 0.000000
# 4 0.000000 0.000000 0.000000 0.043826 0.000000 0.000000
# 5 0.000000 0.000000 0.000000 0.000000 0.029969 0.000000
# 6 0.000000 0.000000 0.000000 0.000000 0.000000 0.073322
#
#
# Mechanical properties :
#
#
# Convention : Reuss Voigt Hill
#
# Bulk Modulus (GPa) = 37.02966 48.06262 42.54614
# Shear Modulus (GPa) = 21.65671 25.01438 23.33554
#
# Velocity S-wave (km/s) = 3.30907 3.55636 3.43494
# Velocity P-wave (km/s) = 5.77259 6.41598 6.10277
#
# Compressibility (1/GPa) = 0.02700538
#
# Stress axis : x y z
#
# Youngs Moduli (GPa) = 62.73150 41.32449 93.09448
#
# Poissons Ratio (x) = 0.07997 0.47229
# Poissons Ratio (y) = 0.12140 0.45892
# Poissons Ratio (z) = 0.31825 0.20371
#
# Static dielectric constant tensor:
#      x y z
#    x 3.599660 0.000000 0.000000 
#    y 0.000000 3.151980 0.000000 
#    z 0.000000 0.000000 3.594620 
# 
# 
# High freq. dielectric constant tensor:
#      x y z
#    x 1.780590 0.000000 0.000000 
#    y 0.000000 1.719430 0.000000 
#    z 0.000000 0.000000 1.772250 
# 
# From -- ./inp_files/56964.got.cif
#   From: 2010.03.12/outbox.cif.g09.slc.cpg/sg74_29_cif.got.tgz:56964.got - 2010.04.16 15:46:19.
