data_PCOD8299006
_publ_section_title
;
Structure prediction by ZEFSAII (Michael W. Deem and Ramdas Pophale) SiO2 
 PCOD8299006
Probable space group: I M M A
;
_chemical_formula_sum "Si O2"
_cell_formula_units_Z 72
_cell_length_a 15.456289
_cell_length_b 8.892850
_cell_length_c 26.738391
_cell_angle_alpha 90.000000
_cell_angle_beta 90.000000
_cell_angle_gamma 90.000000
_cell_volume 3675.204133
_symmetry_space_group_name_H-M "I M M A"
_symmetry_group_IT_number 74
_symmetry_cell_setting 'orthorhombic'
loop_
_space_group_symop_operation_xyz
x,y,z
-x,1/2-y,z
x,-y,-z
-x,1/2+y,-z
-x,-y,-z
x,1/2+y,-z
-x,y,z
x,1/2-y,z
1/2+x,1/2+y,1/2+z
1/2-x,-y,1/2+z
1/2+x,1/2-y,1/2-z
1/2-x,y,1/2-z
1/2-x,1/2-y,1/2-z
1/2+x,y,1/2-z
1/2-x,1/2+y,1/2+z
1/2+x,-y,1/2+z
loop_
_atom_site_type_symbol
_atom_site_label
_atom_site_fract_x
_atom_site_fract_y
_atom_site_fract_z
Si Si1 0.000000 0.571192 0.729724
Si Si2 0.000000 0.425579 0.622353
Si Si3 0.677938 0.927983 0.603872
Si Si4 0.828621 0.571053 0.782899
Si Si5 0.659386 0.572646 0.052606
Si Si6 0.500000 0.926033 0.553418
O O1 0.000000 0.517192 0.673176
O O2 0.083135 0.507716 0.759129
O O3 0.000000 0.750000 0.729113
O O4 0.085039 0.472358 0.591657
O O5 0.000000 0.250000 0.634709
O O6 0.692878 0.750000 0.600050
O O7 0.683672 0.986477 0.660715
O O8 0.584216 0.976725 0.583975
O O9 0.749209 0.010550 0.571015
O O10 0.830494 0.750000 0.782333
O O11 0.750000 0.507210 0.750000
O O12 0.666127 0.750000 0.045480
O O13 0.634237 0.500000 0.000000
O O14 0.500000 0.750000 0.545152
O O15 0.500000 0.000000 0.500000
#
# Coordination Sequence:
#
# PCOD8299006 Si02
#       6
#     8   8  16  16  16   8
#     4  10  19  33  57  84 108 142 187 226 264 319
#     4  10  23  40  56  79 113 146 179 227 283 334
#     4  10  20  36  57  82 113 146 180 223 273 322
#     4   9  17  30  51  80 109 136 172 218 263 310
#     4  11  23  39  58  81 109 143 184 229 279 333
#     4  10  21  35  53  77 107 142 177 217 265 315
#
# _framework density 19.590748999999999
#
# number of rings (size 3 to 8) (size 9 to 14) (size 15 to 20)
#    0.000    2.000    0.000    3.667    0.000    8.889 
#    0.000    1.111    0.000    5.333    0.000    0.000 
#    0.000    0.000    0.000    0.000    0.000    0.000 
#
# Total GULP energy -446531.539637 kJ/mol
# GULP energy per Si atom -12403.653879 kJ/mol
# Density = 1.954616 g / cm^3
# Si number density = 19.590749 Si / 1000 Ang^3
#
#
#
# Elastic Constant Matrix: (Units=GPa)
#
#
# Indices 1 2 3 4 5 6 
#
# 1 113.0246 20.9362 19.6814 0.0000 0.0000 0.0000
# 2 20.9362 32.3975 21.3154 0.0000 0.0000 0.0000
# 3 19.6814 21.3154 113.0577 0.0000 0.0000 0.0000
# 4 0.0000 0.0000 0.0000 29.8139 0.0000 0.0000
# 5 0.0000 0.0000 0.0000 0.0000 39.9144 0.0000
# 6 0.0000 0.0000 0.0000 0.0000 0.0000 20.7021
#
#
#
# Elastic Compliance Matrix: (Units=1/GPa)
#
#
# Indices 1 2 3 4 5 6 
#
# 1 0.010086 -0.006122 -0.000602 0.000000 0.000000 0.000000
# 2 -0.006122 0.038954 -0.006278 0.000000 0.000000 0.000000
# 3 -0.000602 -0.006278 0.010133 0.000000 0.000000 0.000000
# 4 0.000000 0.000000 0.000000 0.033541 0.000000 0.000000
# 5 0.000000 0.000000 0.000000 0.000000 0.025054 0.000000
# 6 0.000000 0.000000 0.000000 0.000000 0.000000 0.048304
#
#
# Mechanical properties :
#
#
# Convention : Reuss Voigt Hill
#
# Bulk Modulus (GPa) = 30.14859 42.48288 36.31574
# Shear Modulus (GPa) = 24.61427 31.18919 27.90173
#
# Velocity S-wave (km/s) = 3.54845 3.99436 3.77799
# Velocity P-wave (km/s) = 5.67550 6.55786 6.13257
#
# Compressibility (1/GPa) = 0.03316905
#
# Stress axis : x y z
#
# Youngs Moduli (GPa) = 99.14262 25.67142 98.68284
#
# Poissons Ratio (x) = 0.15717 0.05937
# Poissons Ratio (y) = 0.60699 0.61957
# Poissons Ratio (z) = 0.05964 0.16118
#
# Static dielectric constant tensor:
#      x y z
#    x 3.875850 0.000000 0.000000 
#    y 0.000000 3.233150 0.000000 
#    z 0.000000 0.000000 3.706110 
# 
# 
# High freq. dielectric constant tensor:
#      x y z
#    x 1.784020 0.000000 0.000000 
#    y 0.000000 1.729930 0.000000 
#    z 0.000000 0.000000 1.781920 
# 
# From -- ./inp_files/63653.got.cif
#   From: 2010.03.12/outbox.cif.g09.slc.cpg/sg74_32_cif.got.tgz:63653.got - 2010.04.16 15:46:19.
