data_PCOD8299746
_publ_section_title
;
Structure prediction by ZEFSAII (Michael W. Deem and Ramdas Pophale) SiO2 
 PCOD8299746
Probable space group: I M M A
;
_chemical_formula_sum "Si O2"
_cell_formula_units_Z 80
_cell_length_a 22.763587
_cell_length_b 18.080493
_cell_length_c 9.587632
_cell_angle_alpha 90.000000
_cell_angle_beta 90.000000
_cell_angle_gamma 90.000000
_cell_volume 3946.047621
_symmetry_space_group_name_H-M "I M M A"
_symmetry_group_IT_number 74
_symmetry_cell_setting 'orthorhombic'
loop_
_space_group_symop_operation_xyz
x,y,z
-x,1/2-y,z
x,-y,-z
-x,1/2+y,-z
-x,-y,-z
x,1/2+y,-z
-x,y,z
x,1/2-y,z
1/2+x,1/2+y,1/2+z
1/2-x,-y,1/2+z
1/2+x,1/2-y,1/2-z
1/2-x,y,1/2-z
1/2-x,1/2-y,1/2-z
1/2+x,y,1/2-z
1/2-x,1/2+y,1/2+z
1/2+x,-y,1/2+z
loop_
_atom_site_type_symbol
_atom_site_label
_atom_site_fract_x
_atom_site_fract_y
_atom_site_fract_z
Si Si1 0.211697 0.668777 0.944019
Si Si2 0.434559 0.750000 0.964114
Si Si3 0.159447 0.367251 0.466146
Si Si4 0.064456 0.750000 0.206892
Si Si5 0.182140 0.966527 0.763323
Si Si6 0.847471 0.623584 0.205498
O O1 0.186225 0.750000 0.906578
O O2 0.280619 0.668639 0.904551
O O3 0.175636 0.605229 0.862583
O O4 0.205697 0.653288 0.109942
O O5 0.500000 0.750000 0.895711
O O6 0.397833 0.678079 0.918213
O O7 0.441174 0.750000 0.128512
O O8 0.155748 0.446952 0.390136
O O9 0.166673 0.369218 0.631605
O O10 0.096718 0.826129 0.161592
O O11 0.000000 0.750000 0.137064
O O12 0.250000 0.992177 0.750000
O O13 0.144448 0.035504 0.823741
#
# Coordination Sequence:
#
# PCOD8299746 Si02
#       6
#    16   8  16   8  16  16
#     4  11  21  33  54  85 114 149 182 220 275 336
#     4   9  18  33  53  81 111 143 186 231 268 310
#     4  10  20  33  57  80 114 148 183 222 272 330
#     4   9  20  37  58  81 106 141 188 235 274 318
#     4  10  22  35  52  81 122 148 171 217 282 340
#     4  11  20  36  57  84 107 143 184 234 269 323
#
# _framework density 20.27345
#
# number of rings (size 3 to 8) (size 9 to 14) (size 15 to 20)
#    0.000    1.800    2.000    3.000    1.400    5.200 
#    0.000    1.000    0.000    9.600    0.000    0.000 
#    0.000    0.000    0.000    0.000    0.000    0.000 
#
# Total GULP energy -495591.307313 kJ/mol
# GULP energy per Si atom -12389.782683 kJ/mol
# Density = 2.022731 g / cm^3
# Si number density = 20.273450 Si / 1000 Ang^3
#
#
#
# Elastic Constant Matrix: (Units=GPa)
#
#
# Indices 1 2 3 4 5 6 
#
# 1 111.4677 62.8929 20.8058 0.0000 0.0000 0.0000
# 2 62.8929 193.0171 37.2209 0.0000 0.0000 0.0000
# 3 20.8058 37.2209 51.1352 0.0000 0.0000 0.0000
# 4 0.0000 0.0000 0.0000 25.8140 0.0000 0.0000
# 5 0.0000 0.0000 0.0000 0.0000 14.1249 0.0000
# 6 0.0000 0.0000 0.0000 0.0000 0.0000 14.1376
#
#
#
# Elastic Compliance Matrix: (Units=1/GPa)
#
#
# Indices 1 2 3 4 5 6 
#
# 1 0.011203 -0.003224 -0.002212 0.000000 0.000000 0.000000
# 2 -0.003224 0.006955 -0.003750 0.000000 0.000000 0.000000
# 3 -0.002212 -0.003750 0.023186 0.000000 0.000000 0.000000
# 4 0.000000 0.000000 0.000000 0.038739 0.000000 0.000000
# 5 0.000000 0.000000 0.000000 0.000000 0.070797 0.000000
# 6 0.000000 0.000000 0.000000 0.000000 0.000000 0.070734
#
#
# Mechanical properties :
#
#
# Convention : Reuss Voigt Hill
#
# Bulk Modulus (GPa) = 43.53232 66.38437 54.95834
# Shear Modulus (GPa) = 20.19047 26.46199 23.32623
#
# Velocity S-wave (km/s) = 3.15922 3.61675 3.39570
# Velocity P-wave (km/s) = 5.90142 7.08920 6.52240
#
# Compressibility (1/GPa) = 0.02297144
#
# Stress axis : x y z
#
# Youngs Moduli (GPa) = 89.26152 143.78971 43.12992
#
# Poissons Ratio (x) = 0.46357 0.09539
# Poissons Ratio (y) = 0.28777 0.16176
# Poissons Ratio (z) = 0.19741 0.53928
#
# Static dielectric constant tensor:
#      x y z
#    x 3.601810 0.000000 0.000000 
#    y 0.000000 3.943810 0.000000 
#    z 0.000000 0.000000 3.692560 
# 
# 
# High freq. dielectric constant tensor:
#      x y z
#    x 1.735970 0.000000 0.000000 
#    y 0.000000 1.805750 0.000000 
#    z 0.000000 0.000000 1.788730 
# 
# From -- ./inp_files/23619.got.cif
#   From: 2010.03.12/outbox.cif.g09.slc.cpg/sg74_12_cif.got.tgz:23619.got - 2010.04.16 15:46:19.
