data_PCOD8299113
_publ_section_title
;
Structure prediction by ZEFSAII (Michael W. Deem and Ramdas Pophale) SiO2 
 PCOD8299113
Probable space group: I M M A
;
_chemical_formula_sum "Si O2"
_cell_formula_units_Z 104
_cell_length_a 26.787312
_cell_length_b 9.306728
_cell_length_c 23.009649
_cell_angle_alpha 90.000000
_cell_angle_beta 90.000000
_cell_angle_gamma 90.000000
_cell_volume 5736.356730
_symmetry_space_group_name_H-M "I M M A"
_symmetry_group_IT_number 74
_symmetry_cell_setting 'orthorhombic'
loop_
_space_group_symop_operation_xyz
x,y,z
-x,1/2-y,z
x,-y,-z
-x,1/2+y,-z
-x,-y,-z
x,1/2+y,-z
-x,y,z
x,1/2-y,z
1/2+x,1/2+y,1/2+z
1/2-x,-y,1/2+z
1/2+x,1/2-y,1/2-z
1/2-x,y,1/2-z
1/2-x,1/2-y,1/2-z
1/2+x,y,1/2-z
1/2-x,1/2+y,1/2+z
1/2+x,-y,1/2+z
loop_
_atom_site_type_symbol
_atom_site_label
_atom_site_fract_x
_atom_site_fract_y
_atom_site_fract_z
Si Si1 0.205664 0.082389 0.058487
Si Si2 0.000000 0.922166 0.438720
Si Si3 0.643865 0.580488 0.668351
Si Si4 0.194928 0.403574 0.735606
Si Si5 0.917116 0.412983 0.371798
Si Si6 0.944834 0.418757 0.242807
Si Si7 0.805673 0.911729 0.623689
O O1 0.199037 0.250000 0.046510
O O2 0.164314 0.028435 0.105762
O O3 0.262762 0.047542 0.077299
O O4 0.192893 0.000000 0.000000
O O5 0.000000 0.750000 0.445727
O O6 0.000000 0.000000 0.500000
O O7 0.048920 0.972234 0.404381
O O8 0.649152 0.750000 0.672077
O O9 0.678784 0.518303 0.717435
O O10 0.587474 0.530468 0.686231
O O11 0.164680 0.250000 0.736426
O O12 0.250000 0.360282 0.750000
O O13 0.194182 0.470584 0.672589
O O14 0.938742 0.250000 0.377498
O O15 0.916122 0.457655 0.303094
O O16 0.862203 0.417725 0.401356
O O17 0.951357 0.250000 0.239265
O O18 0.000000 0.491248 0.240921
O O19 0.794723 0.750000 0.647244
#
# Coordination Sequence:
#
# PCOD8299113 Si02
#       7
#    16   8  16  16  16  16  16
#     4  10  22  37  55  77 106 145 188 227 271 326
#     4  12  26  42  58  76 106 150 195 236 271 322
#     4  10  19  34  57  81 106 144 186 222 270 336
#     4  11  21  30  47  80 115 143 172 218 271 318
#     4  10  19  35  59  84 109 140 181 230 281 328
#     4   9  16  29  55  87 112 135 170 222 278 328
#     4  10  20  35  56  80 108 144 182 224 270 328
#
# _framework density 18.129974000000001
#
# number of rings (size 3 to 8) (size 9 to 14) (size 15 to 20)
#    0.000    1.846    3.846    1.154    0.000    3.077 
#    0.000    1.538    0.000    0.462    0.000    0.000 
#    0.000    0.000    0.000    0.000    0.000    0.000 
#
# Total GULP energy -644209.552890 kJ/mol
# GULP energy per Si atom -12388.645248 kJ/mol
# Density = 1.808871 g / cm^3
# Si number density = 18.129974 Si / 1000 Ang^3
#
#
#
# Elastic Constant Matrix: (Units=GPa)
#
#
# Indices 1 2 3 4 5 6 
#
# 1 106.4761 18.0551 49.0786 0.0000 0.0000 0.0000
# 2 18.0551 46.7743 30.2071 0.0000 0.0000 0.0000
# 3 49.0786 30.2071 106.8557 0.0000 0.0000 0.0000
# 4 0.0000 0.0000 0.0000 32.0496 0.0000 0.0000
# 5 0.0000 0.0000 0.0000 0.0000 17.1040 0.0000
# 6 0.0000 0.0000 0.0000 0.0000 0.0000 16.5603
#
#
#
# Elastic Compliance Matrix: (Units=1/GPa)
#
#
# Indices 1 2 3 4 5 6 
#
# 1 0.011979 -0.001310 -0.005132 0.000000 0.000000 0.000000
# 2 -0.001310 0.026297 -0.006832 0.000000 0.000000 0.000000
# 3 -0.005132 -0.006832 0.013647 0.000000 0.000000 0.000000
# 4 0.000000 0.000000 0.000000 0.031202 0.000000 0.000000
# 5 0.000000 0.000000 0.000000 0.000000 0.058466 0.000000
# 6 0.000000 0.000000 0.000000 0.000000 0.000000 0.060385
#
#
# Mechanical properties :
#
#
# Convention : Reuss Voigt Hill
#
# Bulk Modulus (GPa) = 39.40832 50.53197 44.97014
# Shear Modulus (GPa) = 21.09858 23.99381 22.54619
#
# Velocity S-wave (km/s) = 3.41506 3.64185 3.53028
# Velocity P-wave (km/s) = 6.11015 6.75401 6.44013
#
# Compressibility (1/GPa) = 0.02537535
#
# Stress axis : x y z
#
# Youngs Moduli (GPa) = 83.47720 38.02675 73.27689
#
# Poissons Ratio (x) = 0.04981 0.37604
# Poissons Ratio (y) = 0.10935 0.50065
# Poissons Ratio (z) = 0.42839 0.25981
#
# Static dielectric constant tensor:
#      x y z
#    x 3.774690 0.000000 0.000000 
#    y 0.000000 3.244210 0.000000 
#    z 0.000000 0.000000 3.219670 
# 
# 
# High freq. dielectric constant tensor:
#      x y z
#    x 1.705120 0.000000 0.000000 
#    y 0.000000 1.691330 0.000000 
#    z 0.000000 0.000000 1.678060 
# 
# From -- ./inp_files/49573.got.cif
#   From: 2010.03.12/outbox.cif.g09.slc.cpg/sg74_25_cif.got.tgz:49573.got - 2010.04.16 15:46:19.
