data_PCOD8299755
_publ_section_title
;
Structure prediction by ZEFSAII (Michael W. Deem and Ramdas Pophale) SiO2 
 PCOD8299755
Probable space group: I M M A
;
_chemical_formula_sum "Si O2"
_cell_formula_units_Z 104
_cell_length_a 22.418165
_cell_length_b 8.901485
_cell_length_c 30.367320
_cell_angle_alpha 90.000000
_cell_angle_beta 90.000000
_cell_angle_gamma 90.000000
_cell_volume 6059.949312
_symmetry_space_group_name_H-M "I M M A"
_symmetry_group_IT_number 74
_symmetry_cell_setting 'orthorhombic'
loop_
_space_group_symop_operation_xyz
x,y,z
-x,1/2-y,z
x,-y,-z
-x,1/2+y,-z
-x,-y,-z
x,1/2+y,-z
-x,y,z
x,1/2-y,z
1/2+x,1/2+y,1/2+z
1/2-x,-y,1/2+z
1/2+x,1/2-y,1/2-z
1/2-x,y,1/2-z
1/2-x,1/2-y,1/2-z
1/2+x,y,1/2-z
1/2-x,1/2+y,1/2+z
1/2+x,-y,1/2+z
loop_
_atom_site_type_symbol
_atom_site_label
_atom_site_fract_x
_atom_site_fract_y
_atom_site_fract_z
Si Si1 0.431228 0.928576 0.811739
Si Si2 0.348524 0.073816 0.454872
Si Si3 0.567146 0.429916 0.377964
Si Si4 0.929363 0.085776 0.216557
Si Si5 0.500000 0.927234 0.047630
Si Si6 0.711301 0.073347 0.045488
Si Si7 0.114464 0.072244 0.603207
O O1 0.500000 0.968795 0.820727
O O2 0.421102 0.750000 0.814918
O O3 0.411114 0.991477 0.763087
O O4 0.391588 0.015536 0.846992
O O5 0.358023 0.250000 0.459657
O O6 0.388193 0.007758 0.415048
O O7 0.280032 0.032846 0.445278
O O8 0.370867 0.000000 0.500000
O O9 0.500000 0.483458 0.389452
O O10 0.569209 0.250000 0.375381
O O11 0.587749 0.496205 0.329738
O O12 0.899212 0.250000 0.216364
O O13 0.000000 0.105683 0.217037
O O14 0.500000 0.750000 0.041747
O O15 0.441872 0.981633 0.074243
O O16 0.500000 0.000000 0.000000
O O17 0.700193 0.250000 0.042560
O O18 0.674079 0.003138 0.084998
O O19 0.689404 0.000000 0.000000
O O20 0.121184 0.250000 0.602641
#
# Coordination Sequence:
#
# PCOD8299755 Si02
#       7
#    16  16  16  16   8  16  16
#     4   9  16  27  45  69  94 120 150 188 234 278
#     4   9  18  31  48  70  96 125 157 192 228 270
#     4   8  13  24  45  73 101 126 152 186 230 274
#     4   7  11  21  40  67  95 120 150 187 225 269
#     4  10  22  34  44  62  88 114 142 182 231 278
#     4  10  20  34  49  66  88 119 160 197 230 272
#     4  11  21  33  47  66  91 120 154 192 235 280
#
# _framework density 17.161860000000001
#
# number of rings (size 3 to 8) (size 9 to 14) (size 15 to 20)
#    0.000    2.923    0.769    3.231    0.000    3.385 
#    0.000    0.000    0.000    1.846    0.000    8.615 
#    0.000    0.000    0.000    0.000    0.000    0.000 
#
# Total GULP energy -644383.816553 kJ/mol
# GULP energy per Si atom -12391.996472 kJ/mol
# Density = 1.712280 g / cm^3
# Si number density = 17.161860 Si / 1000 Ang^3
#
#
#
# Elastic Constant Matrix: (Units=GPa)
#
#
# Indices 1 2 3 4 5 6 
#
# 1 68.5530 24.8019 72.5110 0.0000 0.0000 0.0000
# 2 24.8019 34.9992 37.9503 0.0000 0.0000 0.0000
# 3 72.5110 37.9503 186.5341 0.0000 0.0000 0.0000
# 4 0.0000 0.0000 0.0000 20.2949 0.0000 0.0000
# 5 0.0000 0.0000 0.0000 0.0000 22.2664 0.0000
# 6 0.0000 0.0000 0.0000 0.0000 0.0000 14.2670
#
#
#
# Elastic Compliance Matrix: (Units=1/GPa)
#
#
# Indices 1 2 3 4 5 6 
#
# 1 0.027275 -0.010048 -0.008558 0.000000 0.000000 0.000000
# 2 -0.010048 0.040361 -0.004305 0.000000 0.000000 0.000000
# 3 -0.008558 -0.004305 0.009564 0.000000 0.000000 0.000000
# 4 0.000000 0.000000 0.000000 0.049273 0.000000 0.000000
# 5 0.000000 0.000000 0.000000 0.000000 0.044911 0.000000
# 6 0.000000 0.000000 0.000000 0.000000 0.000000 0.070092
#
#
# Mechanical properties :
#
#
# Convention : Reuss Voigt Hill
#
# Bulk Modulus (GPa) = 31.87151 62.29030 47.08090
# Shear Modulus (GPa) = 16.79214 21.68721 19.23967
#
# Velocity S-wave (km/s) = 3.13142 3.55869 3.35187
# Velocity P-wave (km/s) = 5.62902 7.29797 6.51714
#
# Compressibility (1/GPa) = 0.03137598
#
# Stress axis : x y z
#
# Youngs Moduli (GPa) = 36.66358 24.77625 104.56192
#
# Poissons Ratio (x) = 0.24896 0.89487
# Poissons Ratio (y) = 0.36841 0.45018
# Poissons Ratio (z) = 0.31378 0.10667
#
# Static dielectric constant tensor:
#      x y z
#    x 3.037960 0.000000 0.000000 
#    y 0.000000 2.873340 0.000000 
#    z 0.000000 0.000000 3.642070 
# 
# 
# High freq. dielectric constant tensor:
#      x y z
#    x 1.631140 0.000000 0.000000 
#    y 0.000000 1.629770 0.000000 
#    z 0.000000 0.000000 1.681020 
# 
# From -- ./inp_files/68675.got.cif
#   From: 2010.03.12/outbox.cif.g09.slc.cpg/sg74_35_cif.got.tgz:68675.got - 2010.04.16 15:46:19.
