data_PCOD8299578
_publ_section_title
;
Structure prediction by ZEFSAII (Michael W. Deem and Ramdas Pophale) SiO2 
 PCOD8299578
Probable space group: I M M A
;
_chemical_formula_sum "Si O2"
_cell_formula_units_Z 72
_cell_length_a 10.449228
_cell_length_b 11.568990
_cell_length_c 29.572770
_cell_angle_alpha 90.000000
_cell_angle_beta 90.000000
_cell_angle_gamma 90.000000
_cell_volume 3574.963868
_symmetry_space_group_name_H-M "I M M A"
_symmetry_group_IT_number 74
_symmetry_cell_setting 'orthorhombic'
loop_
_space_group_symop_operation_xyz
x,y,z
-x,1/2-y,z
x,-y,-z
-x,1/2+y,-z
-x,-y,-z
x,1/2+y,-z
-x,y,z
x,1/2-y,z
1/2+x,1/2+y,1/2+z
1/2-x,-y,1/2+z
1/2+x,1/2-y,1/2-z
1/2-x,y,1/2-z
1/2-x,1/2-y,1/2-z
1/2+x,y,1/2-z
1/2-x,1/2+y,1/2+z
1/2+x,-y,1/2+z
loop_
_atom_site_type_symbol
_atom_site_label
_atom_site_fract_x
_atom_site_fract_y
_atom_site_fract_z
Si Si1 0.258755 0.045472 0.949957
Si Si2 0.147023 0.116616 0.119730
Si Si3 0.500000 0.876365 0.474844
Si Si4 0.143866 0.750000 0.174327
Si Si5 0.638029 0.250000 0.900585
Si Si6 0.354628 0.495224 0.713890
O O1 0.363780 0.134425 0.931647
O O2 0.128943 0.121744 0.946052
O O3 0.242200 0.934284 0.917939
O O4 0.293364 0.000000 0.000000
O O5 0.179203 0.250000 0.124271
O O6 0.000000 0.094959 0.104850
O O7 0.176384 0.058924 0.167408
O O8 0.500000 0.750000 0.501737
O O9 0.500000 0.000000 0.500000
O O10 0.247898 0.750000 0.134999
O O11 0.162451 0.640744 0.206563
O O12 0.000000 0.750000 0.152924
O O13 0.500000 0.250000 0.875490
O O14 0.500000 0.524076 0.730190
O O15 0.250000 0.538834 0.750000
#
# Coordination Sequence:
#
# PCOD8299578 Si02
#       6
#    16  16   8   8   8  16
#     4  11  23  38  62  90 125 166 210 258 318 376
#     4  10  21  37  59  93 130 162 205 264 321 370
#     4  10  20  32  58  94 122 154 206 268 314 372
#     4  10  21  39  67  94 126 158 202 261 325 371
#     4  12  26  41  63  92 127 170 213 257 312 379
#     4  10  21  38  62  92 126 163 201 255 312 381
#
# _framework density 20.140062
#
# number of rings (size 3 to 8) (size 9 to 14) (size 15 to 20)
#    0.000    1.556    4.444    0.333    3.111    2.667 
#    0.000    0.000    0.000    1.333    0.000    0.000 
#    0.000    0.000    0.000    0.000    0.000    0.000 
#
# Total GULP energy -446162.128780 kJ/mol
# GULP energy per Si atom -12393.392466 kJ/mol
# Density = 2.009422 g / cm^3
# Si number density = 20.140062 Si / 1000 Ang^3
#
#
#
# Elastic Constant Matrix: (Units=GPa)
#
#
# Indices 1 2 3 4 5 6 
#
# 1 92.1863 9.7429 43.3126 0.0000 0.0000 0.0000
# 2 9.7429 121.1291 28.8926 0.0000 0.0000 0.0000
# 3 43.3126 28.8926 102.2558 0.0000 0.0000 0.0000
# 4 0.0000 0.0000 0.0000 24.8616 0.0000 0.0000
# 5 0.0000 0.0000 0.0000 0.0000 19.8501 0.0000
# 6 0.0000 0.0000 0.0000 0.0000 0.0000 10.4926
#
#
#
# Elastic Compliance Matrix: (Units=1/GPa)
#
#
# Indices 1 2 3 4 5 6 
#
# 1 0.013553 0.000299 -0.005825 0.000000 0.000000 0.000000
# 2 0.000299 0.008859 -0.002630 0.000000 0.000000 0.000000
# 3 -0.005825 -0.002630 0.012990 0.000000 0.000000 0.000000
# 4 0.000000 0.000000 0.000000 0.040223 0.000000 0.000000
# 5 0.000000 0.000000 0.000000 0.000000 0.050378 0.000000
# 6 0.000000 0.000000 0.000000 0.000000 0.000000 0.095305
#
#
# Mechanical properties :
#
#
# Convention : Reuss Voigt Hill
#
# Bulk Modulus (GPa) = 52.38305 53.27416 52.82860
# Shear Modulus (GPa) = 20.49329 26.61572 23.55450
#
# Velocity S-wave (km/s) = 3.19335 3.63923 3.42356
# Velocity P-wave (km/s) = 6.29782 6.64590 6.47420
#
# Compressibility (1/GPa) = 0.01909014
#
# Stress axis : x y z
#
# Youngs Moduli (GPa) = 73.78520 112.88116 76.98311
#
# Poissons Ratio (x) = -0.03379 0.44844
# Poissons Ratio (y) = -0.02209 0.20246
# Poissons Ratio (z) = 0.42981 0.29686
#
# Static dielectric constant tensor:
#      x y z
#    x 3.659200 0.000000 0.000000 
#    y 0.000000 3.823300 0.000000 
#    z 0.000000 0.000000 3.367890 
# 
# 
# High freq. dielectric constant tensor:
#      x y z
#    x 1.762880 0.000000 0.000000 
#    y 0.000000 1.801720 0.000000 
#    z 0.000000 0.000000 1.771950 
# 
# From -- ./inp_files/65720.got.cif
#   From: 2010.03.12/outbox.cif.g09.slc.cpg/sg74_33_cif.got.tgz:65720.got - 2010.04.16 15:46:19.
