data_PCOD8299715
_publ_section_title
;
Structure prediction by ZEFSAII (Michael W. Deem and Ramdas Pophale) SiO2 
 PCOD8299715
Probable space group: I M M A
;
_chemical_formula_sum "Si O2"
_cell_formula_units_Z 80
_cell_length_a 13.344369
_cell_length_b 13.409762
_cell_length_c 23.443363
_cell_angle_alpha 90.000000
_cell_angle_beta 90.000000
_cell_angle_gamma 90.000000
_cell_volume 4195.068192
_symmetry_space_group_name_H-M "I M M A"
_symmetry_group_IT_number 74
_symmetry_cell_setting 'orthorhombic'
loop_
_space_group_symop_operation_xyz
x,y,z
-x,1/2-y,z
x,-y,-z
-x,1/2+y,-z
-x,-y,-z
x,1/2+y,-z
-x,y,z
x,1/2-y,z
1/2+x,1/2+y,1/2+z
1/2-x,-y,1/2+z
1/2+x,1/2-y,1/2-z
1/2-x,y,1/2-z
1/2-x,1/2-y,1/2-z
1/2+x,y,1/2-z
1/2-x,1/2+y,1/2+z
1/2+x,-y,1/2+z
loop_
_atom_site_type_symbol
_atom_site_label
_atom_site_fract_x
_atom_site_fract_y
_atom_site_fract_z
Si Si1 0.615578 0.862675 0.388820
Si Si2 0.809907 0.525788 0.803954
Si Si3 0.500000 0.130655 0.251917
Si Si4 0.500000 0.131427 0.120846
Si Si5 0.611112 0.631654 0.517546
Si Si6 0.215100 0.132962 0.401495
O O1 0.500000 0.861553 0.371681
O O2 0.659058 0.750000 0.385111
O O3 0.629222 0.905878 0.453032
O O4 0.673547 0.931383 0.344583
O O5 0.750000 0.483895 0.750000
O O6 0.907373 0.584610 0.785297
O O7 0.741981 0.606466 0.836712
O O8 0.500000 0.250000 0.257864
O O9 0.500000 0.094312 0.186398
O O10 0.500000 0.250000 0.122451
O O11 0.399312 0.093137 0.087986
O O12 0.500000 0.595406 0.538939
O O13 0.611707 0.750000 0.518332
O O14 0.700550 0.586510 0.556397
O O15 0.216115 0.250000 0.409443
#
# Coordination Sequence:
#
# PCOD8299715 Si02
#       6
#    16  16   8   8  16  16
#     4   9  19  38  59  79 107 140 180 233 285 325
#     4  12  23  34  54  82 109 146 186 223 270 325
#     4  11  22  36  51  77 117 149 178 218 266 323
#     4   9  18  34  52  71 110 158 184 208 253 321
#     4   8  16  32  55  82 110 137 172 227 284 328
#     4  10  20  33  52  81 114 148 183 219 268 334
#
# _framework density 19.070011999999998
#
# number of rings (size 3 to 8) (size 9 to 14) (size 15 to 20)
#    0.000    2.200    3.000    1.800    1.400    2.000 
#    0.000    2.000    0.000    3.600    0.000    2.800 
#    0.000    0.000    0.000    0.000    0.000    0.000 
#
# Total GULP energy -495698.609181 kJ/mol
# GULP energy per Si atom -12392.465230 kJ/mol
# Density = 1.902661 g / cm^3
# Si number density = 19.070012 Si / 1000 Ang^3
#
#
#
# Elastic Constant Matrix: (Units=GPa)
#
#
# Indices 1 2 3 4 5 6 
#
# 1 172.5797 38.1040 78.9285 0.0000 0.0000 0.0000
# 2 38.1040 22.1625 20.5852 0.0000 0.0000 0.0000
# 3 78.9285 20.5852 112.1523 0.0000 0.0000 0.0000
# 4 0.0000 0.0000 0.0000 13.7324 0.0000 0.0000
# 5 0.0000 0.0000 0.0000 0.0000 -302.1946 0.0000
# 6 0.0000 0.0000 0.0000 0.0000 0.0000 11.6042
#
#
#
# Elastic Compliance Matrix: (Units=1/GPa)
#
#
# Indices 1 2 3 4 5 6 
#
# 1 0.011535 -0.014818 -0.005398 0.000000 0.000000 0.000000
# 2 -0.014818 0.073430 -0.003050 0.000000 0.000000 0.000000
# 3 -0.005398 -0.003050 0.013275 0.000000 0.000000 0.000000
# 4 0.000000 0.000000 0.000000 0.072821 0.000000 0.000000
# 5 0.000000 0.000000 0.000000 0.000000 -0.003309 0.000000
# 6 0.000000 0.000000 0.000000 0.000000 0.000000 0.086176
#
#
# Mechanical properties :
#
#
# Convention : Reuss Voigt Hill
#
# Bulk Modulus (GPa) = 19.33895 64.68111 42.01003
# Shear Modulus (GPa) = 15.73837 -44.08649 -14.17406
#
# Velocity S-wave (km/s) = 2.87591 -4.81336 -2.72924
# Velocity P-wave (km/s) = 4.60335 1.76072 3.48504
#
# Compressibility (1/GPa) = 0.05170911
#
# Stress axis : x y z
#
# Youngs Moduli (GPa) = 86.69377 13.61836 75.32913
#
# Poissons Ratio (x) = 0.20180 0.40663
# Poissons Ratio (y) = 1.28463 0.22972
# Poissons Ratio (z) = 0.46797 0.04153
#
# Static dielectric constant tensor:
#      x y z
#    x 2.765130 0.000000 0.000000 
#    y 0.000000 3.307880 0.000000 
#    z 0.000000 0.000000 3.588860 
# 
# 
# High freq. dielectric constant tensor:
#      x y z
#    x 1.744330 0.000000 0.000000 
#    y 0.000000 1.727550 0.000000 
#    z 0.000000 0.000000 1.733650 
# 
# From -- ./inp_files/58535.got.cif
#   From: 2010.03.12/outbox.cif.g09.slc.cpg/sg74_30_cif.got.tgz:58535.got - 2010.04.16 15:46:19.
