data_PCOD8299781
_publ_section_title
;
Structure prediction by ZEFSAII (Michael W. Deem and Ramdas Pophale) SiO2 
 PCOD8299781
Probable space group: I M M A
;
_chemical_formula_sum "Si O2"
_cell_formula_units_Z 56
_cell_length_a 8.690670
_cell_length_b 36.110948
_cell_length_c 9.952630
_cell_angle_alpha 90.000000
_cell_angle_beta 90.000000
_cell_angle_gamma 90.000000
_cell_volume 3123.417276
_symmetry_space_group_name_H-M "I M M A"
_symmetry_group_IT_number 74
_symmetry_cell_setting 'orthorhombic'
loop_
_space_group_symop_operation_xyz
x,y,z
-x,1/2-y,z
x,-y,-z
-x,1/2+y,-z
-x,-y,-z
x,1/2+y,-z
-x,y,z
x,1/2-y,z
1/2+x,1/2+y,1/2+z
1/2-x,-y,1/2+z
1/2+x,1/2-y,1/2-z
1/2-x,y,1/2-z
1/2-x,1/2-y,1/2-z
1/2+x,y,1/2-z
1/2-x,1/2+y,1/2+z
1/2+x,-y,1/2+z
loop_
_atom_site_type_symbol
_atom_site_label
_atom_site_fract_x
_atom_site_fract_y
_atom_site_fract_z
Si Si1 0.818070 0.170002 0.397425
Si Si2 0.181357 0.469142 0.892079
Si Si3 0.819967 0.250000 0.394598
Si Si4 0.682975 0.390800 0.894103
O O1 0.750000 0.163461 0.250000
O O2 0.770145 0.210603 0.460987
O O3 0.754791 0.138969 0.498488
O O4 0.000000 0.166726 0.383969
O O5 0.250000 0.481983 0.750000
O O6 0.256369 0.430788 0.940252
O O7 0.000000 0.463554 0.877248
O O8 0.225196 0.500000 0.000000
O O9 0.750000 0.250000 0.250000
O O10 0.000000 0.250000 0.377633
O O11 0.500000 0.391455 0.885585
O O12 0.750000 0.379631 0.750000
#
# Coordination Sequence:
#
# PCOD8299781 Si02
#       4
#    16  16   8  16
#     4   9  18  31  50  74  98 127 163 202 242 285
#     4  10  21  36  54  75  98 127 162 199 241 288
#     4   8  14  28  47  68  96 126 158 198 241 282
#     4  10  20  34  51  72  99 131 163 197 241 288
#
# _framework density 17.929082000000001
#
# number of rings (size 3 to 8) (size 9 to 14) (size 15 to 20)
#    0.000    2.571    0.000    3.429    0.000    5.714 
#    0.000    6.429    0.000    0.000    0.000    0.000 
#    0.000    0.000    0.000    0.000    0.000    0.000 
#
# Total GULP energy -346959.822169 kJ/mol
# GULP energy per Si atom -12391.422220 kJ/mol
# Density = 1.788827 g / cm^3
# Si number density = 17.929082 Si / 1000 Ang^3
#
#
#
# Elastic Constant Matrix: (Units=GPa)
#
#
# Indices 1 2 3 4 5 6 
#
# 1 55.5760 48.6192 36.6178 -0.0006 0.0000 -0.0001
# 2 48.6192 179.1661 111.2909 -0.0021 0.0001 -0.0007
# 3 36.6178 111.2909 109.8867 -0.0018 0.0002 -0.0001
# 4 -0.0006 -0.0021 -0.0018 35.5706 0.0002 -0.0007
# 5 0.0000 0.0001 0.0002 0.0002 24.9038 -0.0003
# 6 -0.0001 -0.0007 -0.0001 -0.0007 -0.0003 16.2352
#
#
#
# Elastic Compliance Matrix: (Units=1/GPa)
#
#
# Indices 1 2 3 4 5 6 
#
# 1 0.024171 -0.004195 -0.003806 0.000000 0.000000 0.000000
# 2 -0.004195 0.015776 -0.014580 0.000000 0.000000 0.000001
# 3 -0.003806 -0.014580 0.025135 0.000000 0.000000 -0.000001
# 4 0.000000 0.000000 0.000000 0.028113 0.000000 0.000001
# 5 0.000000 0.000000 0.000000 0.000000 0.040154 0.000001
# 6 0.000000 0.000001 -0.000001 0.000001 0.000001 0.061595
#
#
# Mechanical properties :
#
#
# Convention : Reuss Voigt Hill
#
# Bulk Modulus (GPa) = 50.20025 81.96495 66.08260
# Shear Modulus (GPa) = 20.26376 25.21533 22.73954
#
# Velocity S-wave (km/s) = 3.36552 3.75426 3.56519
# Velocity P-wave (km/s) = 6.56981 8.03791 7.34066
#
# Compressibility (1/GPa) = 0.01992022
#
# Stress axis : x y z
#
# Youngs Moduli (GPa) = 41.37205 63.38631 39.78554
#
# Poissons Ratio (x) = 0.26591 0.15142
# Poissons Ratio (y) = 0.17356 0.58007
# Poissons Ratio (z) = 0.15746 0.92417
#
# Static dielectric constant tensor:
#      x y z
#    x 3.156270 -0.000010 0.000000 
#    y -0.000010 3.982350 0.000000 
#    z 0.000000 0.000000 3.206010 
# 
# 
# High freq. dielectric constant tensor:
#      x y z
#    x 1.699770 0.000000 0.000000 
#    y 0.000000 1.714020 0.000000 
#    z 0.000000 0.000000 1.671740 
# 
# From -- ./inp_files/17261.got.cif
#   From: 2010.03.12/outbox.cif.g09.slc.cpg/sg74_9_cif.got.tgz:17261.got - 2010.04.16 15:46:19.
