data_PCOD8299462
_publ_section_title
;
Structure prediction by ZEFSAII (Michael W. Deem and Ramdas Pophale) SiO2 
 PCOD8299462
Probable space group: I M M A
;
_chemical_formula_sum "Si O2"
_cell_formula_units_Z 80
_cell_length_a 18.632803
_cell_length_b 9.706153
_cell_length_c 25.786364
_cell_angle_alpha 90.000000
_cell_angle_beta 90.000000
_cell_angle_gamma 90.000000
_cell_volume 4663.537079
_symmetry_space_group_name_H-M "I M M A"
_symmetry_group_IT_number 74
_symmetry_cell_setting 'orthorhombic'
loop_
_space_group_symop_operation_xyz
x,y,z
-x,1/2-y,z
x,-y,-z
-x,1/2+y,-z
-x,-y,-z
x,1/2+y,-z
-x,y,z
x,1/2-y,z
1/2+x,1/2+y,1/2+z
1/2-x,-y,1/2+z
1/2+x,1/2-y,1/2-z
1/2-x,y,1/2-z
1/2-x,1/2-y,1/2-z
1/2+x,y,1/2-z
1/2-x,1/2+y,1/2+z
1/2+x,-y,1/2+z
loop_
_atom_site_type_symbol
_atom_site_label
_atom_site_fract_x
_atom_site_fract_y
_atom_site_fract_z
Si Si1 0.420584 0.413767 0.842178
Si Si2 0.833401 0.411380 0.756104
Si Si3 0.584960 0.901853 0.544167
Si Si4 0.914349 0.903308 0.455301
Si Si5 0.416975 0.911987 0.661129
O O1 0.500000 0.474467 0.831502
O O2 0.424531 0.250000 0.843453
O O3 0.368770 0.466105 0.797012
O O4 0.391544 0.462331 0.898651
O O5 0.849171 0.250000 0.765855
O O6 0.750000 0.441486 0.750000
O O7 0.865461 0.497696 0.803219
O O8 0.500000 0.894761 0.537805
O O9 0.617674 0.750000 0.535502
O O10 0.603055 0.953768 0.602125
O O11 0.618968 0.000000 0.500000
O O12 0.883453 0.750000 0.464125
O O13 0.000000 0.899740 0.457851
O O14 0.881551 0.000000 0.500000
O O15 0.500000 0.947939 0.672991
O O16 0.403320 0.750000 0.670318
#
# Coordination Sequence:
#
# PCOD8299462 Si02
#       5
#    16  16  16  16  16
#     4   8  14  26  44  64  87 115 144 177 220 265
#     4  10  20  32  47  68  92 121 159 197 231 272
#     4   8  14  25  42  66  94 119 145 182 228 276
#     4   8  13  22  38  60  84 108 134 169 215 261
#     4   9  18  32  49  70  96 124 154 191 236 283
#
# _framework density 17.154361000000002
#
# number of rings (size 3 to 8) (size 9 to 14) (size 15 to 20)
#    0.000    3.400    0.000    3.000    0.000    2.400 
#    0.000    3.000    0.000    4.800    0.000    5.600 
#    0.000    0.000    0.000    0.000    0.000    0.000 
#
# Total GULP energy -495707.708183 kJ/mol
# GULP energy per Si atom -12392.692705 kJ/mol
# Density = 1.711532 g / cm^3
# Si number density = 17.154361 Si / 1000 Ang^3
#
#
#
# Elastic Constant Matrix: (Units=GPa)
#
#
# Indices 1 2 3 4 5 6 
#
# 1 60.2396 35.1310 58.8046 0.0000 0.0000 0.0000
# 2 35.1310 69.1055 72.5869 0.0000 0.0000 0.0000
# 3 58.8046 72.5869 174.5114 0.0000 0.0000 0.0000
# 4 0.0000 0.0000 0.0000 33.4568 0.0000 0.0000
# 5 0.0000 0.0000 0.0000 0.0000 1.3396 0.0000
# 6 0.0000 0.0000 0.0000 0.0000 0.0000 13.8413
#
#
#
# Elastic Compliance Matrix: (Units=1/GPa)
#
#
# Indices 1 2 3 4 5 6 
#
# 1 0.026668 -0.007313 -0.005944 0.000000 0.000000 0.000000
# 2 -0.007313 0.027704 -0.009059 0.000000 0.000000 0.000000
# 3 -0.005944 -0.009059 0.011501 0.000000 0.000000 0.000000
# 4 0.000000 0.000000 0.000000 0.029889 0.000000 0.000000
# 5 0.000000 0.000000 0.000000 0.000000 0.746504 0.000000
# 6 0.000000 0.000000 0.000000 0.000000 0.000000 0.072247
#
#
# Mechanical properties :
#
#
# Convention : Reuss Voigt Hill
#
# Bulk Modulus (GPa) = 47.08088 70.76683 58.92385
# Shear Modulus (GPa) = 5.17477 18.88314 12.02896
#
# Velocity S-wave (km/s) = 1.73872 3.32140 2.65093
# Velocity P-wave (km/s) = 5.61568 7.48675 6.61768
#
# Compressibility (1/GPa) = 0.02124004
#
# Stress axis : x y z
#
# Youngs Moduli (GPa) = 37.49784 36.09622 86.94692
#
# Poissons Ratio (x) = 0.26399 0.51684
# Poissons Ratio (y) = 0.27424 0.78763
# Poissons Ratio (z) = 0.22290 0.32699
#
# Static dielectric constant tensor:
#      x y z
#    x 2.764560 0.000000 0.000000 
#    y 0.000000 3.194640 0.000000 
#    z 0.000000 0.000000 3.570700 
# 
# 
# High freq. dielectric constant tensor:
#      x y z
#    x 1.613200 0.000000 0.000000 
#    y 0.000000 1.639950 0.000000 
#    z 0.000000 0.000000 1.679970 
# 
# From -- ./inp_files/67512.got.cif
#   From: 2010.03.12/outbox.cif.g09.slc.cpg/sg74_34_cif.got.tgz:67512.got - 2010.04.16 15:46:19.
