data_PCOD8299369
_publ_section_title
;
Structure prediction by ZEFSAII (Michael W. Deem and Ramdas Pophale) SiO2 
 PCOD8299369
Probable space group: I M M A
;
_chemical_formula_sum "Si O2"
_cell_formula_units_Z 104
_cell_length_a 20.162939
_cell_length_b 9.146463
_cell_length_c 31.792327
_cell_angle_alpha 90.000000
_cell_angle_beta 90.000000
_cell_angle_gamma 90.000000
_cell_volume 5863.127451
_symmetry_space_group_name_H-M "I M M A"
_symmetry_group_IT_number 74
_symmetry_cell_setting 'orthorhombic'
loop_
_space_group_symop_operation_xyz
x,y,z
-x,1/2-y,z
x,-y,-z
-x,1/2+y,-z
-x,-y,-z
x,1/2+y,-z
-x,y,z
x,1/2-y,z
1/2+x,1/2+y,1/2+z
1/2-x,-y,1/2+z
1/2+x,1/2-y,1/2-z
1/2-x,y,1/2-z
1/2-x,1/2-y,1/2-z
1/2+x,y,1/2-z
1/2-x,1/2+y,1/2+z
1/2+x,-y,1/2+z
loop_
_atom_site_type_symbol
_atom_site_label
_atom_site_fract_x
_atom_site_fract_y
_atom_site_fract_z
Si Si1 0.187135 0.083368 0.666794
Si Si2 0.073634 0.076568 0.728023
Si Si3 0.309219 0.922334 0.632878
Si Si4 0.639856 0.084809 0.926719
Si Si5 0.760482 0.921945 0.958755
Si Si6 0.076369 0.082079 0.823928
Si Si7 0.000000 0.580134 0.456850
O O1 0.205250 0.250000 0.679301
O O2 0.133913 0.013968 0.699614
O O3 0.152852 0.074716 0.622178
O O4 0.255014 0.991418 0.664714
O O5 0.072104 0.250000 0.723324
O O6 0.087914 0.031445 0.775992
O O7 0.000000 0.017163 0.714636
O O8 0.305003 0.750000 0.638212
O O9 0.298658 0.967687 0.584031
O O10 0.381274 0.980173 0.645390
O O11 0.651956 0.250000 0.943331
O O12 0.564410 0.033160 0.930870
O O13 0.684951 0.976132 0.953986
O O14 0.762298 0.750000 0.966135
O O15 0.792501 0.000000 0.000000
O O16 0.098330 0.250000 0.829761
O O17 0.000000 0.061855 0.836723
O O18 0.000000 0.500000 0.500000
O O19 0.000000 0.750000 0.466337
#
# Coordination Sequence:
#
# PCOD8299369 Si02
#       7
#    16  16  16  16  16  16   8
#     4   9  17  30  50  73  98 131 170 211 250 288
#     4   8  15  28  49  76 102 131 171 215 252 285
#     4  10  21  35  51  74 104 133 162 200 247 299
#     4   9  18  30  45  67  94 126 164 205 248 293
#     4  10  20  34  52  72  95 124 160 201 244 292
#     4   9  18  34  55  78 102 129 164 204 245 293
#     4  10  20  30  40  60  88 120 162 206 248 294
#
# _framework density 17.737973
#
# number of rings (size 3 to 8) (size 9 to 14) (size 15 to 20)
#    0.000    2.769    0.000    2.308    1.077    4.615 
#    0.000    3.846    0.000    1.846    0.000    0.000 
#    0.000    0.000    0.000    0.000    0.000    0.000 
#
# Total GULP energy -644617.236369 kJ/mol
# GULP energy per Si atom -12396.485315 kJ/mol
# Density = 1.769760 g / cm^3
# Si number density = 17.737973 Si / 1000 Ang^3
#
#
#
# Elastic Constant Matrix: (Units=GPa)
#
#
# Indices 1 2 3 4 5 6 
#
# 1 99.1369 38.3263 53.2234 0.0000 0.0000 0.0000
# 2 38.3263 54.6893 36.8936 0.0000 0.0000 0.0000
# 3 53.2234 36.8936 81.3292 0.0000 0.0000 0.0000
# 4 0.0000 0.0000 0.0000 22.1999 0.0000 0.0000
# 5 0.0000 0.0000 0.0000 0.0000 20.4687 0.0000
# 6 0.0000 0.0000 0.0000 0.0000 0.0000 20.0625
#
#
#
# Elastic Compliance Matrix: (Units=1/GPa)
#
#
# Indices 1 2 3 4 5 6 
#
# 1 0.016947 -0.006333 -0.008218 0.000000 0.000000 0.000000
# 2 -0.006333 0.028715 -0.008882 0.000000 0.000000 0.000000
# 3 -0.008218 -0.008882 0.021703 0.000000 0.000000 0.000000
# 4 0.000000 0.000000 0.000000 0.045045 0.000000 0.000000
# 5 0.000000 0.000000 0.000000 0.000000 0.048855 0.000000
# 6 0.000000 0.000000 0.000000 0.000000 0.000000 0.049844
#
#
# Mechanical properties :
#
#
# Convention : Reuss Voigt Hill
#
# Bulk Modulus (GPa) = 48.78041 54.67131 51.72586
# Shear Modulus (GPa) = 18.88167 19.66035 19.27101
#
# Velocity S-wave (km/s) = 3.26617 3.33284 3.29968
# Velocity P-wave (km/s) = 6.46406 6.76010 6.61374
#
# Compressibility (1/GPa) = 0.02050003
#
# Stress axis : x y z
#
# Youngs Moduli (GPa) = 59.00685 34.82530 46.07749
#
# Poissons Ratio (x) = 0.22054 0.37865
# Poissons Ratio (y) = 0.37368 0.40924
# Poissons Ratio (z) = 0.48490 0.30930
#
# Static dielectric constant tensor:
#      x y z
#    x 3.318380 0.000000 0.000000 
#    y 0.000000 3.211120 0.000000 
#    z 0.000000 0.000000 3.316190 
# 
# 
# High freq. dielectric constant tensor:
#      x y z
#    x 1.679540 0.000000 0.000000 
#    y 0.000000 1.664840 0.000000 
#    z 0.000000 0.000000 1.684610 
# 
# From -- ./inp_files/73336.got.cif
#   From: 2010.03.12/outbox.cif.g09.slc.cpg/sg74_37_cif.got.tgz:73336.got - 2010.04.16 15:46:19.
