data_PCOD8299521
_publ_section_title
;
Structure prediction by ZEFSAII (Michael W. Deem and Ramdas Pophale) SiO2 
 PCOD8299521
Probable space group: I M M A
;
_chemical_formula_sum "Si O2"
_cell_formula_units_Z 104
_cell_length_a 9.139804
_cell_length_b 20.595496
_cell_length_c 28.309538
_cell_angle_alpha 90.000000
_cell_angle_beta 90.000000
_cell_angle_gamma 90.000000
_cell_volume 5328.953369
_symmetry_space_group_name_H-M "I M M A"
_symmetry_group_IT_number 74
_symmetry_cell_setting 'orthorhombic'
loop_
_space_group_symop_operation_xyz
x,y,z
-x,1/2-y,z
x,-y,-z
-x,1/2+y,-z
-x,-y,-z
x,1/2+y,-z
-x,y,z
x,1/2-y,z
1/2+x,1/2+y,1/2+z
1/2-x,-y,1/2+z
1/2+x,1/2-y,1/2-z
1/2-x,y,1/2-z
1/2-x,1/2-y,1/2-z
1/2+x,y,1/2-z
1/2-x,1/2+y,1/2+z
1/2+x,-y,1/2+z
loop_
_atom_site_type_symbol
_atom_site_label
_atom_site_fract_x
_atom_site_fract_y
_atom_site_fract_z
Si Si1 0.168147 0.881747 0.366116
Si Si2 0.174254 0.503272 0.700061
Si Si3 0.172512 0.372370 0.155876
Si Si4 0.332628 0.823611 0.555428
Si Si5 0.343126 0.323883 0.709079
Si Si6 0.324113 0.250000 0.199807
Si Si7 0.170669 0.824077 0.462959
O O1 0.204522 0.949694 0.340640
O O2 0.261235 0.826328 0.340504
O O3 0.211911 0.875280 0.421238
O O4 0.000000 0.863216 0.359600
O O5 0.250000 0.484663 0.750000
O O6 0.255663 0.565747 0.679933
O O7 0.000000 0.514782 0.706903
O O8 0.191906 0.372630 0.099144
O O9 0.266408 0.312431 0.173171
O O10 0.000000 0.366632 0.169454
O O11 0.500000 0.822942 0.540055
O O12 0.282677 0.750000 0.568853
O O13 0.244125 0.850462 0.510626
O O14 0.500000 0.359707 0.706256
O O15 0.368167 0.250000 0.723668
O O16 0.250000 0.359873 0.750000
O O17 0.500000 0.250000 0.203034
O O18 0.250000 0.250000 0.250000
O O19 0.222498 0.750000 0.451145
O O20 0.000000 0.824621 0.472257
#
# Coordination Sequence:
#
# PCOD8299521 Si02
#       7
#    16  16  16  16  16   8  16
#     4  10  21  37  56  78 110 150 193 239 286 337
#     4  11  24  41  59  82 112 152 197 240 288 344
#     4  11  22  40  62  86 117 152 190 235 286 341
#     4   9  18  35  58  85 116 148 183 230 285 340
#     4  10  20  32  49  75 105 138 181 233 289 347
#     4  12  24  38  60  90 122 152 186 232 285 344
#     4   9  18  33  56  86 116 148 189 238 289 340
#
# _framework density 19.516027999999999
#
# number of rings (size 3 to 8) (size 9 to 14) (size 15 to 20)
#    0.000    1.846    0.769    3.462    0.000    5.846 
#    0.000    2.308    0.000    4.615    0.000    0.000 
#    0.000    0.000    0.000    0.000    0.000    0.000 
#
# Total GULP energy -644443.701321 kJ/mol
# GULP energy per Si atom -12393.148102 kJ/mol
# Density = 1.947161 g / cm^3
# Si number density = 19.516028 Si / 1000 Ang^3
#
#
#
# Elastic Constant Matrix: (Units=GPa)
#
#
# Indices 1 2 3 4 5 6 
#
# 1 113.2407 43.7917 66.1135 0.0000 0.0000 0.0000
# 2 43.7917 72.7155 44.6776 0.0000 0.0000 0.0000
# 3 66.1135 44.6776 135.2761 0.0000 0.0000 0.0000
# 4 0.0000 0.0000 0.0000 29.9711 0.0000 0.0000
# 5 0.0000 0.0000 0.0000 0.0000 39.3542 0.0000
# 6 0.0000 0.0000 0.0000 0.0000 0.0000 16.1981
#
#
#
# Elastic Compliance Matrix: (Units=1/GPa)
#
#
# Indices 1 2 3 4 5 6 
#
# 1 0.013772 -0.005217 -0.005008 0.000000 0.000000 0.000000
# 2 -0.005217 0.019230 -0.003801 0.000000 0.000000 0.000000
# 3 -0.005008 -0.003801 0.011095 0.000000 0.000000 0.000000
# 4 0.000000 0.000000 0.000000 0.033365 0.000000 0.000000
# 5 0.000000 0.000000 0.000000 0.000000 0.025410 0.000000
# 6 0.000000 0.000000 0.000000 0.000000 0.000000 0.061736
#
#
# Mechanical properties :
#
#
# Convention : Reuss Voigt Hill
#
# Bulk Modulus (GPa) = 62.32598 70.04421 66.18510
# Shear Modulus (GPa) = 25.25144 28.21465 26.73304
#
# Velocity S-wave (km/s) = 3.60096 3.80638 3.70510
# Velocity P-wave (km/s) = 7.02099 7.43550 7.23121
#
# Compressibility (1/GPa) = 0.01604467
#
# Stress axis : x y z
#
# Youngs Moduli (GPa) = 72.61149 52.00299 90.12959
#
# Poissons Ratio (x) = 0.27130 0.45134
# Poissons Ratio (y) = 0.37882 0.34260
# Poissons Ratio (z) = 0.36362 0.19768
#
# Static dielectric constant tensor:
#      x y z
#    x 3.853250 0.000000 0.000000 
#    y 0.000000 3.452290 0.000000 
#    z 0.000000 0.000000 3.672060 
# 
# 
# High freq. dielectric constant tensor:
#      x y z
#    x 1.771610 0.000000 0.000000 
#    y 0.000000 1.737240 0.000000 
#    z 0.000000 0.000000 1.766960 
# 
# From -- ./inp_files/64429.got.cif
#   From: 2010.03.12/outbox.cif.g09.slc.cpg/sg74_33_cif.got.tgz:64429.got - 2010.04.16 15:46:19.
