data_PCOD8299067
_publ_section_title
;
Structure prediction by ZEFSAII (Michael W. Deem and Ramdas Pophale) SiO2 
 PCOD8299067
Probable space group: I M M A
;
_chemical_formula_sum "Si O2"
_cell_formula_units_Z 88
_cell_length_a 8.777658
_cell_length_b 27.405824
_cell_length_c 18.883686
_cell_angle_alpha 90.000000
_cell_angle_beta 90.000000
_cell_angle_gamma 90.000000
_cell_volume 4542.639682
_symmetry_space_group_name_H-M "I M M A"
_symmetry_group_IT_number 74
_symmetry_cell_setting 'orthorhombic'
loop_
_space_group_symop_operation_xyz
x,y,z
-x,1/2-y,z
x,-y,-z
-x,1/2+y,-z
-x,-y,-z
x,1/2+y,-z
-x,y,z
x,1/2-y,z
1/2+x,1/2+y,1/2+z
1/2-x,-y,1/2+z
1/2+x,1/2-y,1/2-z
1/2-x,y,1/2-z
1/2-x,1/2-y,1/2-z
1/2+x,y,1/2-z
1/2-x,1/2+y,1/2+z
1/2+x,-y,1/2+z
loop_
_atom_site_type_symbol
_atom_site_label
_atom_site_fract_x
_atom_site_fract_y
_atom_site_fract_z
Si Si1 0.817170 0.410163 0.590426
Si Si2 0.174487 0.750000 0.823866
Si Si3 0.328664 0.670864 0.911804
Si Si4 0.179310 0.491537 0.823903
Si Si5 0.328246 0.302848 0.926960
Si Si6 0.820492 0.571732 0.941916
O O1 0.761054 0.440079 0.658488
O O2 0.755453 0.353907 0.601259
O O3 0.745175 0.436153 0.520960
O O4 0.000000 0.410016 0.582194
O O5 0.250000 0.750000 0.750000
O O6 0.218058 0.701381 0.863850
O O7 0.000000 0.750000 0.810138
O O8 0.500000 0.671768 0.881672
O O9 0.266067 0.616652 0.907600
O O10 0.324937 0.693935 0.988970
O O11 0.250000 0.511257 0.750000
O O12 0.215457 0.527110 0.889507
O O13 0.000000 0.483930 0.814148
O O14 0.500000 0.300459 0.898674
O O15 0.249466 0.250000 0.905254
O O16 0.000000 0.581213 0.948141
#
# Coordination Sequence:
#
# PCOD8299067 Si02
#       6
#    16   8  16  16  16  16
#     4  10  20  34  58  88 115 148 188 232 281 337
#     4  12  24  36  50  70 102 146 189 230 277 334
#     4  10  19  34  55  78 106 140 180 230 278 326
#     4  11  24  40  58  79 111 150 188 236 288 344
#     4   8  14  28  53  82 110 138 172 217 269 320
#     4  10  21  37  57  83 113 147 188 235 284 334
#
# _framework density 19.371995999999999
#
# number of rings (size 3 to 8) (size 9 to 14) (size 15 to 20)
#    0.000    2.000    0.909    4.636    0.000    5.818 
#    0.000    1.818    0.000    0.545    0.000    0.000 
#    0.000    0.000    0.000    0.000    0.000    0.000 
#
# Total GULP energy -545235.750164 kJ/mol
# GULP energy per Si atom -12391.721595 kJ/mol
# Density = 1.932790 g / cm^3
# Si number density = 19.371996 Si / 1000 Ang^3
#
#
#
# Elastic Constant Matrix: (Units=GPa)
#
#
# Indices 1 2 3 4 5 6 
#
# 1 94.2274 27.3868 18.0487 0.0000 0.0000 0.0000
# 2 27.3868 107.4907 25.1937 0.0000 0.0000 0.0000
# 3 18.0487 25.1937 43.7562 0.0005 0.0000 0.0000
# 4 0.0000 0.0000 0.0005 -4.3356 0.0000 0.0000
# 5 0.0000 0.0000 0.0000 0.0000 30.5668 0.0000
# 6 0.0000 0.0000 0.0000 0.0000 0.0000 27.2002
#
#
#
# Elastic Compliance Matrix: (Units=1/GPa)
#
#
# Indices 1 2 3 4 5 6 
#
# 1 0.011951 -0.002184 -0.003672 0.000000 0.000000 0.000000
# 2 -0.002184 0.011154 -0.005521 -0.000001 0.000000 0.000000
# 3 -0.003672 -0.005521 0.027547 0.000003 0.000000 0.000000
# 4 0.000000 -0.000001 0.000003 -0.230647 0.000000 0.000000
# 5 0.000000 0.000000 0.000000 0.000000 0.032715 0.000000
# 6 0.000000 0.000000 0.000000 0.000000 0.000000 0.036764
#
#
# Mechanical properties :
#
#
# Convention : Reuss Voigt Hill
#
# Bulk Modulus (GPa) = 35.84546 42.97029 39.40787
# Shear Modulus (GPa) = -63.72499 22.34262 -20.69119
#
# Velocity S-wave (km/s) = -5.74168 3.39978 -3.27172
# Velocity P-wave (km/s) = 5.04102 6.13524 2.47278
#
# Compressibility (1/GPa) = 0.02789754
#
# Stress axis : x y z
#
# Youngs Moduli (GPa) = 83.67642 89.65662 36.30110
#
# Poissons Ratio (x) = 0.19583 0.13329
# Poissons Ratio (y) = 0.18277 0.20042
# Poissons Ratio (z) = 0.30725 0.49500
#
# Static dielectric constant tensor:
#      x y z
#    x 3.442910 0.000000 0.000000 
#    y 0.000000 3.873070 0.000000 
#    z 0.000000 0.000000 3.252780 
# 
# 
# High freq. dielectric constant tensor:
#      x y z
#    x 1.747630 0.000000 0.000000 
#    y 0.000000 1.772640 0.000000 
#    z 0.000000 0.000000 1.724620 
# 
# From -- ./inp_files/40081.got.cif
#   From: 2010.03.12/outbox.cif.g09.slc.cpg/sg74_21_cif.got.tgz:40081.got - 2010.04.16 15:46:19.
