data_PCOD8299359
_publ_section_title
;
Structure prediction by ZEFSAII (Michael W. Deem and Ramdas Pophale) SiO2 
 PCOD8299359
Probable space group: I M M A
;
_chemical_formula_sum "Si O2"
_cell_formula_units_Z 120
_cell_length_a 21.207555
_cell_length_b 20.416562
_cell_length_c 12.582083
_cell_angle_alpha 90.000000
_cell_angle_beta 90.000000
_cell_angle_gamma 90.000000
_cell_volume 5447.857757
_symmetry_space_group_name_H-M "I M M A"
_symmetry_group_IT_number 74
_symmetry_cell_setting 'orthorhombic'
loop_
_space_group_symop_operation_xyz
x,y,z
-x,1/2-y,z
x,-y,-z
-x,1/2+y,-z
-x,-y,-z
x,1/2+y,-z
-x,y,z
x,1/2-y,z
1/2+x,1/2+y,1/2+z
1/2-x,-y,1/2+z
1/2+x,1/2-y,1/2-z
1/2-x,y,1/2-z
1/2-x,1/2-y,1/2-z
1/2+x,y,1/2-z
1/2-x,1/2+y,1/2+z
1/2+x,-y,1/2+z
loop_
_atom_site_type_symbol
_atom_site_label
_atom_site_fract_x
_atom_site_fract_y
_atom_site_fract_z
Si Si1 0.340301 0.000399 0.153028
Si Si2 0.267146 0.376913 0.872704
Si Si3 0.573107 0.392188 0.117734
Si Si4 0.106034 0.821869 0.411861
Si Si5 0.070828 0.587570 0.228382
Si Si6 0.867439 0.674754 0.816145
Si Si7 0.363279 0.673668 0.444314
Si Si8 0.750000 0.103561 0.250000
O O1 0.394665 0.038021 0.087255
O O2 0.290716 0.057066 0.176046
O O3 0.302497 0.944117 0.088076
O O4 0.376181 0.969432 0.257697
O O5 0.250000 0.386908 0.750000
O O6 0.319115 0.320344 0.885546
O O7 0.205825 0.359633 0.940433
O O8 0.500000 0.404468 0.111130
O O9 0.590757 0.368843 0.236916
O O10 0.595421 0.337461 0.035281
O O11 0.078987 0.750000 0.389115
O O12 0.068755 0.873003 0.339097
O O13 0.089425 0.636101 0.133384
O O14 0.000000 0.559869 0.207272
O O15 0.871439 0.750000 0.779939
O O16 0.795062 0.650944 0.817546
O O17 0.891526 0.666791 0.937330
O O18 0.358332 0.750000 0.410235
#
# Coordination Sequence:
#
# PCOD8299359 Si02
#       8
#    16  16  16  16  16  16  16   8
#     4  10  21  42  63  92 124 165 216 262 315 375
#     4  11  21  40  64  95 131 165 204 254 325 390
#     4  11  25  45  66  90 126 174 221 265 310 369
#     4  11  24  40  64  97 126 163 213 265 320 378
#     4  11  23  40  64  93 128 167 209 261 319 380
#     4  10  24  41  63  94 127 167 210 261 318 377
#     4  11  23  40  63  97 133 166 206 258 321 388
#     4  10  19  40  64  88 123 160 214 262 314 364
#
# _framework density 22.027007000000001
#
# number of rings (size 3 to 8) (size 9 to 14) (size 15 to 20)
#    0.000    1.333    3.333    2.200    3.733    5.867 
#    0.000   10.000    0.000    4.000    0.000    0.000 
#    0.000    0.000    0.000    0.000    0.000    0.000 
#
# Total GULP energy -743760.887979 kJ/mol
# GULP energy per Si atom -12396.014800 kJ/mol
# Density = 2.197687 g / cm^3
# Si number density = 22.027007 Si / 1000 Ang^3
#
#
#
# Elastic Constant Matrix: (Units=GPa)
#
#
# Indices 1 2 3 4 5 6 
#
# 1 110.2046 16.6626 15.1884 0.0000 0.0000 0.0000
# 2 16.6626 91.2144 16.6256 0.0000 0.0000 0.0000
# 3 15.1884 16.6256 79.6697 0.0000 0.0000 0.0000
# 4 0.0000 0.0000 0.0000 69.0712 0.0000 0.0000
# 5 0.0000 0.0000 0.0000 0.0000 20.9342 0.0000
# 6 0.0000 0.0000 0.0000 0.0000 0.0000 12.6208
#
#
#
# Elastic Compliance Matrix: (Units=1/GPa)
#
#
# Indices 1 2 3 4 5 6 
#
# 1 0.009503 -0.001461 -0.001507 0.000000 0.000000 0.000000
# 2 -0.001461 0.011621 -0.002147 0.000000 0.000000 0.000000
# 3 -0.001507 -0.002147 0.013287 0.000000 0.000000 0.000000
# 4 0.000000 0.000000 0.000000 0.014478 0.000000 0.000000
# 5 0.000000 0.000000 0.000000 0.000000 0.047769 0.000000
# 6 0.000000 0.000000 0.000000 0.000000 0.000000 0.079235
#
#
# Mechanical properties :
#
#
# Convention : Reuss Voigt Hill
#
# Bulk Modulus (GPa) = 41.35313 42.00466 41.67889
# Shear Modulus (GPa) = 25.74908 36.03271 30.89089
#
# Velocity S-wave (km/s) = 3.42274 4.04894 3.74894
# Velocity P-wave (km/s) = 5.86812 6.40075 6.14021
#
# Compressibility (1/GPa) = 0.02418197
#
# Stress axis : x y z
#
# Youngs Moduli (GPa) = 105.23418 86.04837 75.26151
#
# Poissons Ratio (x) = 0.12574 0.11339
# Poissons Ratio (y) = 0.15378 0.16155
# Poissons Ratio (z) = 0.15855 0.18471
#
# Static dielectric constant tensor:
#      x y z
#    x 4.188450 0.000000 0.000000 
#    y 0.000000 4.138150 0.000000 
#    z 0.000000 0.000000 5.026750 
# 
# 
# High freq. dielectric constant tensor:
#      x y z
#    x 1.868820 0.000000 0.000000 
#    y 0.000000 1.873150 0.000000 
#    z 0.000000 0.000000 1.852260 
# 
# From -- ./inp_files/25470.got.cif
#   From: 2010.03.12/outbox.cif.g09.slc.cpg/sg74_13_cif.got.tgz:25470.got - 2010.04.16 15:46:19.
