data_PCOD8299829
_publ_section_title
;
Structure prediction by ZEFSAII (Michael W. Deem and Ramdas Pophale) SiO2 
 PCOD8299829
Probable space group: I M M A
;
_chemical_formula_sum "Si O2"
_cell_formula_units_Z 104
_cell_length_a 8.901919
_cell_length_b 21.029221
_cell_length_c 28.313252
_cell_angle_alpha 90.000000
_cell_angle_beta 90.000000
_cell_angle_gamma 90.000000
_cell_volume 5300.252722
_symmetry_space_group_name_H-M "I M M A"
_symmetry_group_IT_number 74
_symmetry_cell_setting 'orthorhombic'
loop_
_space_group_symop_operation_xyz
x,y,z
-x,1/2-y,z
x,-y,-z
-x,1/2+y,-z
-x,-y,-z
x,1/2+y,-z
-x,y,z
x,1/2-y,z
1/2+x,1/2+y,1/2+z
1/2-x,-y,1/2+z
1/2+x,1/2-y,1/2-z
1/2-x,y,1/2-z
1/2-x,1/2-y,1/2-z
1/2+x,y,1/2-z
1/2-x,1/2+y,1/2+z
1/2+x,-y,1/2+z
loop_
_atom_site_type_symbol
_atom_site_label
_atom_site_fract_x
_atom_site_fract_y
_atom_site_fract_z
Si Si1 0.828411 0.324314 0.359631
Si Si2 0.821379 0.651053 0.119825
Si Si3 0.178438 0.893462 0.944144
Si Si4 0.172489 0.820370 0.475037
Si Si5 0.177320 0.078941 0.201830
Si Si6 0.823797 0.250000 0.801545
Si Si7 0.323700 0.508835 0.383902
O O1 0.819292 0.250000 0.352254
O O2 0.738506 0.343114 0.406416
O O3 0.751031 0.354550 0.313567
O O4 0.000000 0.347710 0.364527
O O5 0.746832 0.686524 0.076069
O O6 0.775961 0.687182 0.168395
O O7 0.753880 0.579280 0.118244
O O8 0.000000 0.653306 0.113723
O O9 0.228312 0.965325 0.928719
O O10 0.000000 0.888414 0.945894
O O11 0.244278 0.874989 0.994940
O O12 0.185759 0.750000 0.498757
O O13 0.000000 0.840820 0.470352
O O14 0.250000 0.055056 0.250000
O O15 0.223678 0.026364 0.163732
O O16 0.000000 0.087532 0.206758
O O17 0.750000 0.250000 0.750000
O O18 0.000000 0.250000 0.792829
O O19 0.500000 0.516793 0.386521
#
# Coordination Sequence:
#
# PCOD8299829 Si02
#       7
#    16  16  16  16  16   8  16
#     4  10  20  34  52  76 108 144 184 233 282 327
#     4  10  20  39  62  85 111 145 189 229 276 337
#     4  10  20  35  56  82 111 150 190 227 276 334
#     4  11  23  37  55  82 117 152 186 233 283 328
#     4  10  20  35  54  77 105 142 184 228 281 334
#     4  10  22  38  62  90 116 148 186 232 285 344
#     4   8  18  36  57  80 110 143 182 233 280 332
#
# _framework density 19.621706
#
# number of rings (size 3 to 8) (size 9 to 14) (size 15 to 20)
#    0.000    2.154    0.769    3.231    0.000    6.154 
#    0.000    7.692    0.000    0.000    0.000    0.000 
#    0.000    0.000    0.000    0.000    0.000    0.000 
#
# Total GULP energy -644641.935456 kJ/mol
# GULP energy per Si atom -12396.960297 kJ/mol
# Density = 1.957705 g / cm^3
# Si number density = 19.621706 Si / 1000 Ang^3
#
#
#
# Elastic Constant Matrix: (Units=GPa)
#
#
# Indices 1 2 3 4 5 6 
#
# 1 85.5163 46.6235 48.7562 0.0000 0.0000 0.0000
# 2 46.6235 129.2600 54.3802 0.0000 0.0000 0.0000
# 3 48.7562 54.3802 128.8701 0.0000 0.0000 0.0000
# 4 0.0000 0.0000 0.0000 25.0924 0.0000 0.0000
# 5 0.0000 0.0000 0.0000 0.0000 37.5175 0.0000
# 6 0.0000 0.0000 0.0000 0.0000 0.0000 16.7205
#
#
#
# Elastic Compliance Matrix: (Units=1/GPa)
#
#
# Indices 1 2 3 4 5 6 
#
# 1 0.016478 -0.004038 -0.004530 0.000000 0.000000 0.000000
# 2 -0.004038 0.010396 -0.002859 0.000000 0.000000 0.000000
# 3 -0.004530 -0.002859 0.010680 0.000000 0.000000 0.000000
# 4 0.000000 0.000000 0.000000 0.039853 0.000000 0.000000
# 5 0.000000 0.000000 0.000000 0.000000 0.026654 0.000000
# 6 0.000000 0.000000 0.000000 0.000000 0.000000 0.059807
#
#
# Mechanical properties :
#
#
# Convention : Reuss Voigt Hill
#
# Bulk Modulus (GPa) = 68.02956 71.46293 69.74625
# Shear Modulus (GPa) = 26.09309 28.79183 27.44246
#
# Velocity S-wave (km/s) = 3.65061 3.83475 3.74381
# Velocity P-wave (km/s) = 7.24673 7.49043 7.36959
#
# Compressibility (1/GPa) = 0.01469949
#
# Stress axis : x y z
#
# Youngs Moduli (GPa) = 60.68728 96.19535 93.63066
#
# Poissons Ratio (x) = 0.38839 0.42419
# Poissons Ratio (y) = 0.24503 0.26770
# Poissons Ratio (z) = 0.27494 0.27503
#
# Static dielectric constant tensor:
#      x y z
#    x 3.509660 0.000000 0.000000 
#    y 0.000000 4.020280 0.000000 
#    z 0.000000 0.000000 3.739910 
# 
# 
# High freq. dielectric constant tensor:
#      x y z
#    x 1.756030 0.000000 0.000000 
#    y 0.000000 1.769930 0.000000 
#    z 0.000000 0.000000 1.761650 
# 
# From -- ./inp_files/64444.got.cif
#   From: 2010.03.12/outbox.cif.g09.slc.cpg/sg74_33_cif.got.tgz:64444.got - 2010.04.16 15:46:19.
