data_PCOD8299698
_publ_section_title
;
Structure prediction by ZEFSAII (Michael W. Deem and Ramdas Pophale) SiO2 
 PCOD8299698
Probable space group: I M M A
;
_chemical_formula_sum "Si O2"
_cell_formula_units_Z 88
_cell_length_a 12.355081
_cell_length_b 14.479380
_cell_length_c 28.248988
_cell_angle_alpha 90.000000
_cell_angle_beta 90.000000
_cell_angle_gamma 90.000000
_cell_volume 5053.571994
_symmetry_space_group_name_H-M "I M M A"
_symmetry_group_IT_number 74
_symmetry_cell_setting 'orthorhombic'
loop_
_space_group_symop_operation_xyz
x,y,z
-x,1/2-y,z
x,-y,-z
-x,1/2+y,-z
-x,-y,-z
x,1/2+y,-z
-x,y,z
x,1/2-y,z
1/2+x,1/2+y,1/2+z
1/2-x,-y,1/2+z
1/2+x,1/2-y,1/2-z
1/2-x,y,1/2-z
1/2-x,1/2-y,1/2-z
1/2+x,y,1/2-z
1/2-x,1/2+y,1/2+z
1/2+x,-y,1/2+z
loop_
_atom_site_type_symbol
_atom_site_label
_atom_site_fract_x
_atom_site_fract_y
_atom_site_fract_z
Si Si1 0.624241 0.055770 0.873445
Si Si2 0.720355 0.559108 0.953496
Si Si3 0.629012 0.750000 0.094151
Si Si4 0.627930 0.750000 0.988488
Si Si5 0.124017 0.643266 0.881502
Si Si6 0.776221 0.579739 0.696679
Si Si7 0.123367 0.750000 0.725940
O O1 0.500000 0.059509 0.859481
O O2 0.671627 0.159058 0.879180
O O3 0.636280 0.000223 0.922551
O O4 0.688117 0.011580 0.830208
O O5 0.826751 0.577637 0.922126
O O6 0.750698 0.500000 0.000000
O O7 0.667393 0.657768 0.963010
O O8 0.500000 0.750000 0.090967
O O9 0.676466 0.750000 0.041215
O O10 0.500000 0.750000 0.988161
O O11 0.142545 0.750000 0.895022
O O12 0.172404 0.623485 0.829480
O O13 0.000000 0.616798 0.878278
O O14 0.750000 0.549885 0.750000
O O15 0.873249 0.656197 0.695337
O O16 0.250000 0.750000 0.750000
O O17 0.000000 0.750000 0.751279
#
# Coordination Sequence:
#
# PCOD8299698 Si02
#       7
#    16  16   8   8  16  16   8
#     4  10  20  33  52  78 108 138 172 219 271 330
#     4  11  21  34  53  79 108 142 178 215 263 324
#     4   9  18  32  50  75 104 138 173 209 266 329
#     4  11  20  31  50  80 112 141 173 213 269 327
#     4  10  21  37  54  75 106 142 182 227 273 323
#     4  10  21  36  53  80 105 142 183 227 279 332
#     4  10  20  33  52  81 115 147 185 226 279 340
#
# _framework density 17.413425
#
# number of rings (size 3 to 8) (size 9 to 14) (size 15 to 20)
#    0.000    1.818    3.636    1.091    0.000    4.727 
#    0.000    3.182    0.000    0.000    0.000    5.727 
#    0.000    0.000    0.000    0.000    0.000    0.000 
#
# Total GULP energy -545176.038381 kJ/mol
# GULP energy per Si atom -12390.364509 kJ/mol
# Density = 1.737379 g / cm^3
# Si number density = 17.413425 Si / 1000 Ang^3
#
#
#
# Elastic Constant Matrix: (Units=GPa)
#
#
# Indices 1 2 3 4 5 6 
#
# 1 92.4966 35.1364 34.5357 0.0000 0.0000 0.0000
# 2 35.1364 135.8741 49.6208 0.0000 0.0000 0.0000
# 3 34.5357 49.6208 111.8389 0.0000 0.0000 0.0000
# 4 0.0000 0.0000 0.0000 32.9280 0.0000 0.0000
# 5 0.0000 0.0000 0.0000 0.0000 19.4381 0.0000
# 6 0.0000 0.0000 0.0000 0.0000 0.0000 17.5060
#
#
#
# Elastic Compliance Matrix: (Units=1/GPa)
#
#
# Indices 1 2 3 4 5 6 
#
# 1 0.012758 -0.002220 -0.002955 0.000000 0.000000 0.000000
# 2 -0.002220 0.009169 -0.003383 0.000000 0.000000 0.000000
# 3 -0.002955 -0.003383 0.011355 0.000000 0.000000 0.000000
# 4 0.000000 0.000000 0.000000 0.030369 0.000000 0.000000
# 5 0.000000 0.000000 0.000000 0.000000 0.051445 0.000000
# 6 0.000000 0.000000 0.000000 0.000000 0.000000 0.057123
#
#
# Mechanical properties :
#
#
# Convention : Reuss Voigt Hill
#
# Bulk Modulus (GPa) = 61.85461 64.31061 63.08261
# Shear Modulus (GPa) = 25.67750 28.70219 27.18985
#
# Velocity S-wave (km/s) = 3.84419 4.06430 3.95578
# Velocity P-wave (km/s) = 7.43654 7.68353 7.56104
#
# Compressibility (1/GPa) = 0.01616694
#
# Stress axis : x y z
#
# Youngs Moduli (GPa) = 78.38400 109.06093 88.07005
#
# Poissons Ratio (x) = 0.24213 0.26021
# Poissons Ratio (y) = 0.17402 0.29791
# Poissons Ratio (z) = 0.23159 0.36891
#
# Static dielectric constant tensor:
#      x y z
#    x 3.177860 0.000000 0.000000 
#    y 0.000000 3.579310 0.000000 
#    z 0.000000 0.000000 3.217270 
# 
# 
# High freq. dielectric constant tensor:
#      x y z
#    x 1.655380 0.000000 0.000000 
#    y 0.000000 1.678830 0.000000 
#    z 0.000000 0.000000 1.669310 
# 
# From -- ./inp_files/65963.got.cif
#   From: 2010.03.12/outbox.cif.g09.slc.cpg/sg74_33_cif.got.tgz:65963.got - 2010.04.16 15:46:19.
