data_PCOD8299079
_publ_section_title
;
Structure prediction by ZEFSAII (Michael W. Deem and Ramdas Pophale) SiO2 
 PCOD8299079
Probable space group: I M M A
;
_chemical_formula_sum "Si O2"
_cell_formula_units_Z 80
_cell_length_a 17.623345
_cell_length_b 28.038762
_cell_length_c 7.953613
_cell_angle_alpha 90.000000
_cell_angle_beta 90.000000
_cell_angle_gamma 90.000000
_cell_volume 3930.172686
_symmetry_space_group_name_H-M "I M M A"
_symmetry_group_IT_number 74
_symmetry_cell_setting 'orthorhombic'
loop_
_space_group_symop_operation_xyz
x,y,z
-x,1/2-y,z
x,-y,-z
-x,1/2+y,-z
-x,-y,-z
x,1/2+y,-z
-x,y,z
x,1/2-y,z
1/2+x,1/2+y,1/2+z
1/2-x,-y,1/2+z
1/2+x,1/2-y,1/2-z
1/2-x,y,1/2-z
1/2-x,1/2-y,1/2-z
1/2+x,y,1/2-z
1/2-x,1/2+y,1/2+z
1/2+x,-y,1/2+z
loop_
_atom_site_type_symbol
_atom_site_label
_atom_site_fract_x
_atom_site_fract_y
_atom_site_fract_z
Si Si1 0.334424 0.301937 0.687152
Si Si2 0.848603 0.892515 0.381349
Si Si3 0.584542 0.576005 0.781717
Si Si4 0.586767 0.023885 0.675850
Si Si5 0.794856 0.631659 0.915240
O O1 0.376115 0.250000 0.691980
O O2 0.250000 0.294244 0.750000
O O3 0.374049 0.341380 0.805749
O O4 0.333833 0.321647 0.495514
O O5 0.903151 0.899980 0.538843
O O6 0.859733 0.932929 0.238105
O O7 0.760737 0.892117 0.444097
O O8 0.500000 0.588220 0.718105
O O9 0.594069 0.519288 0.809509
O O10 0.641312 0.593635 0.636167
O O11 0.500000 0.042477 0.662262
O O12 0.613201 0.000000 0.500000
O O13 0.750000 0.648444 0.750000
#
# Coordination Sequence:
#
# PCOD8299079 Si02
#       5
#    16  16  16  16  16
#     4   9  18  34  56  80 107 141 181 226 277 330
#     4  10  19  34  55  81 112 142 184 233 273 319
#     4  10  20  36  57  80 111 150 185 220 271 332
#     4  10  20  34  55  82 112 148 184 218 270 339
#     4   9  19  35  55  83 111 140 182 231 277 321
#
# _framework density 20.355339000000001
#
# number of rings (size 3 to 8) (size 9 to 14) (size 15 to 20)
#    0.000    2.400    0.000    2.400    0.000    2.000 
#    0.000   27.000    0.000    6.600    0.000    0.000 
#    0.000    0.800    0.000    0.000    0.000    0.000 
#
# Total GULP energy -495736.394151 kJ/mol
# GULP energy per Si atom -12393.409854 kJ/mol
# Density = 2.030901 g / cm^3
# Si number density = 20.355339 Si / 1000 Ang^3
#
#
#
# Elastic Constant Matrix: (Units=GPa)
#
#
# Indices 1 2 3 4 5 6 
#
# 1 65.0814 52.6939 36.8350 0.0000 0.0001 0.0000
# 2 52.6939 174.6089 75.7259 0.0001 0.0001 -0.0001
# 3 36.8350 75.7259 121.5085 0.0018 0.0009 -0.0002
# 4 0.0000 0.0001 0.0018 29.6399 0.0003 -0.0001
# 5 0.0001 0.0001 0.0009 0.0003 17.7609 0.0000
# 6 0.0000 -0.0001 -0.0002 -0.0001 0.0000 8.7307
#
#
#
# Elastic Compliance Matrix: (Units=1/GPa)
#
#
# Indices 1 2 3 4 5 6 
#
# 1 0.021288 -0.004969 -0.003357 0.000000 0.000000 0.000000
# 2 -0.004969 0.009008 -0.004108 0.000000 0.000000 0.000000
# 3 -0.003357 -0.004108 0.011808 -0.000001 -0.000001 0.000000
# 4 0.000000 0.000000 -0.000001 0.033738 0.000000 0.000000
# 5 0.000000 0.000000 -0.000001 0.000000 0.056303 0.000000
# 6 0.000000 0.000000 0.000000 0.000000 0.000000 0.114538
#
#
# Mechanical properties :
#
#
# Convention : Reuss Voigt Hill
#
# Bulk Modulus (GPa) = 58.01398 76.85649 67.43524
# Shear Modulus (GPa) = 18.03128 24.28924 21.16026
#
# Velocity S-wave (km/s) = 2.97951 3.45811 3.22769
# Velocity P-wave (km/s) = 6.35603 7.33376 6.86233
#
# Compressibility (1/GPa) = 0.01723722
#
# Stress axis : x y z
#
# Youngs Moduli (GPa) = 46.97439 111.01296 84.69173
#
# Poissons Ratio (x) = 0.55157 0.28431
# Poissons Ratio (y) = 0.23339 0.34789
# Poissons Ratio (z) = 0.15769 0.45601
#
# Static dielectric constant tensor:
#      x y z
#    x 3.434360 0.000000 0.000000 
#    y 0.000000 3.994100 0.000000 
#    z 0.000000 0.000000 3.885270 
# 
# 
# High freq. dielectric constant tensor:
#      x y z
#    x 1.765310 0.000000 0.000000 
#    y 0.000000 1.784210 0.000000 
#    z 0.000000 0.000000 1.813010 
# 
# From -- ./inp_files/10960.got.cif
#   From: 2010.03.12/outbox.cif.g09.slc.cpg/sg74_6_cif.got.tgz:10960.got - 2010.04.16 15:46:19.
