data_PCOD8299891
_publ_section_title
;
Structure prediction by ZEFSAII (Michael W. Deem and Ramdas Pophale) SiO2 
 PCOD8299891
Probable space group: I M M A
;
_chemical_formula_sum "Si O2"
_cell_formula_units_Z 64
_cell_length_a 8.857348
_cell_length_b 16.927540
_cell_length_c 18.906330
_cell_angle_alpha 90.000000
_cell_angle_beta 90.000000
_cell_angle_gamma 90.000000
_cell_volume 2834.684904
_symmetry_space_group_name_H-M "I M M A"
_symmetry_group_IT_number 74
_symmetry_cell_setting 'orthorhombic'
loop_
_space_group_symop_operation_xyz
x,y,z
-x,1/2-y,z
x,-y,-z
-x,1/2+y,-z
-x,-y,-z
x,1/2+y,-z
-x,y,z
x,1/2-y,z
1/2+x,1/2+y,1/2+z
1/2-x,-y,1/2+z
1/2+x,1/2-y,1/2-z
1/2-x,y,1/2-z
1/2-x,1/2-y,1/2-z
1/2+x,y,1/2-z
1/2-x,1/2+y,1/2+z
1/2+x,-y,1/2+z
loop_
_atom_site_type_symbol
_atom_site_label
_atom_site_fract_x
_atom_site_fract_y
_atom_site_fract_z
Si Si1 0.174396 0.160082 0.046351
Si Si2 0.176788 0.923317 0.422917
Si Si3 0.665231 0.339570 0.685039
Si Si4 0.826327 0.442439 0.174038
O O1 0.235076 0.250000 0.035223
O O2 0.192989 0.138483 0.129110
O O3 0.000000 0.155206 0.022513
O O4 0.265755 0.091500 0.003044
O O5 0.226562 0.842611 0.383617
O O6 0.000000 0.939840 0.425040
O O7 0.259051 0.988519 0.375088
O O8 0.500000 0.378645 0.672303
O O9 0.639710 0.250000 0.706674
O O10 0.750000 0.384424 0.750000
O O11 0.750000 0.432197 0.250000
O O12 0.000000 0.461550 0.188064
#
# Coordination Sequence:
#
# PCOD8299891 Si02
#       4
#    16  16  16  16
#     4  10  23  44  68  94 126 166 210 257 314 377
#     4  12  24  38  60  91 126 162 205 257 310 367
#     4  10  20  34  53  79 115 159 205 253 307 369
#     4  11  24  43  67  94 127 167 210 259 314 373
#
# _framework density 22.577465
#
# number of rings (size 3 to 8) (size 9 to 14) (size 15 to 20)
#    0.000    1.250    0.000    6.000    0.000   10.500 
#    0.000    0.000    0.000    0.000    0.000    0.000 
#    0.000    0.000    0.000    0.000    0.000    0.000 
#
# Total GULP energy -396486.209670 kJ/mol
# GULP energy per Si atom -12390.194052 kJ/mol
# Density = 2.252608 g / cm^3
# Si number density = 22.577465 Si / 1000 Ang^3
#
#
#
# Elastic Constant Matrix: (Units=GPa)
#
#
# Indices 1 2 3 4 5 6 
#
# 1 165.6781 28.7346 70.8391 0.0000 0.0000 0.0000
# 2 28.7346 49.0918 30.8792 0.0000 0.0000 0.0000
# 3 70.8391 30.8792 155.2812 0.0000 0.0000 0.0000
# 4 0.0000 0.0000 0.0000 25.6870 0.0000 0.0000
# 5 0.0000 0.0000 0.0000 0.0000 44.2797 0.0000
# 6 0.0000 0.0000 0.0000 0.0000 0.0000 16.1696
#
#
#
# Elastic Compliance Matrix: (Units=1/GPa)
#
#
# Indices 1 2 3 4 5 6 
#
# 1 0.007790 -0.002657 -0.003026 0.000000 0.000000 0.000000
# 2 -0.002657 0.024188 -0.003598 0.000000 0.000000 0.000000
# 3 -0.003026 -0.003598 0.008536 0.000000 0.000000 0.000000
# 4 0.000000 0.000000 0.000000 0.038930 0.000000 0.000000
# 5 0.000000 0.000000 0.000000 0.000000 0.022584 0.000000
# 6 0.000000 0.000000 0.000000 0.000000 0.000000 0.061845
#
#
# Mechanical properties :
#
#
# Convention : Reuss Voigt Hill
#
# Bulk Modulus (GPa) = 45.55092 70.10634 57.82863
# Shear Modulus (GPa) = 26.35030 33.20047 29.77538
#
# Velocity S-wave (km/s) = 3.42000 3.83889 3.63548
# Velocity P-wave (km/s) = 5.98451 7.12519 6.57962
#
# Compressibility (1/GPa) = 0.02195345
#
# Stress axis : x y z
#
# Youngs Moduli (GPa) = 128.36618 41.34241 117.15480
#
# Poissons Ratio (x) = 0.10983 0.35446
# Poissons Ratio (y) = 0.34103 0.42154
# Poissons Ratio (z) = 0.38838 0.14875
#
# Static dielectric constant tensor:
#      x y z
#    x 4.316200 0.000000 0.000000 
#    y 0.000000 4.138350 0.000000 
#    z 0.000000 0.000000 4.347500 
# 
# 
# High freq. dielectric constant tensor:
#      x y z
#    x 1.889190 0.000000 0.000000 
#    y 0.000000 1.886010 0.000000 
#    z 0.000000 0.000000 1.902460 
# 
# From -- ./inp_files/39059.got.cif
#   From: 2010.03.12/outbox.cif.g09.slc.cpg/sg74_20_cif.got.tgz:39059.got - 2010.04.16 15:46:19.
