data_PCOD8299671
_publ_section_title
;
Structure prediction by ZEFSAII (Michael W. Deem and Ramdas Pophale) SiO2 
 PCOD8299671
Probable space group: I M M A
;
_chemical_formula_sum "Si O2"
_cell_formula_units_Z 96
_cell_length_a 9.073813
_cell_length_b 22.939581
_cell_length_c 25.419809
_cell_angle_alpha 90.000000
_cell_angle_beta 90.000000
_cell_angle_gamma 90.000000
_cell_volume 5291.119727
_symmetry_space_group_name_H-M "I M M A"
_symmetry_group_IT_number 74
_symmetry_cell_setting 'orthorhombic'
loop_
_space_group_symop_operation_xyz
x,y,z
-x,1/2-y,z
x,-y,-z
-x,1/2+y,-z
-x,-y,-z
x,1/2+y,-z
-x,y,z
x,1/2-y,z
1/2+x,1/2+y,1/2+z
1/2-x,-y,1/2+z
1/2+x,1/2-y,1/2-z
1/2-x,y,1/2-z
1/2-x,1/2-y,1/2-z
1/2+x,y,1/2-z
1/2-x,1/2+y,1/2+z
1/2+x,-y,1/2+z
loop_
_atom_site_type_symbol
_atom_site_label
_atom_site_fract_x
_atom_site_fract_y
_atom_site_fract_z
Si Si1 0.173473 0.683225 0.696775
Si Si2 0.329003 0.500649 0.440401
Si Si3 0.325617 0.890303 0.902634
Si Si4 0.171823 0.317306 0.695919
Si Si5 0.831450 0.316978 0.502708
Si Si6 0.171349 0.870182 0.098553
O O1 0.217533 0.750000 0.684487
O O2 0.250000 0.661053 0.750000
O O3 0.231484 0.643287 0.649069
O O4 0.000000 0.676960 0.704145
O O5 0.266938 0.500000 0.500000
O O6 0.500000 0.483792 0.440618
O O7 0.244294 0.454258 0.404385
O O8 0.298649 0.563154 0.415606
O O9 0.500000 0.895945 0.901244
O O10 0.273653 0.854724 0.953841
O O11 0.200077 0.250000 0.681258
O O12 0.250000 0.334076 0.750000
O O13 0.240691 0.357573 0.651415
O O14 0.000000 0.331047 0.701382
O O15 0.818346 0.250000 0.485921
O O16 0.729175 0.328708 0.552491
O O17 0.000000 0.332833 0.517293
O O18 0.000000 0.856866 0.107262
#
# Coordination Sequence:
#
# PCOD8299671 Si02
#       6
#    16  16  16  16  16  16
#     4   9  18  34  55  80 110 142 177 220 270 322
#     4  10  21  38  55  75 108 147 183 224 272 318
#     4  10  20  34  55  80 106 140 183 225 269 323
#     4  10  21  38  60  85 113 144 179 222 272 325
#     4  10  20  33  51  78 110 140 173 220 275 328
#     4  11  22  36  55  79 109 145 184 224 270 321
#
# _framework density 18.143606999999999
#
# number of rings (size 3 to 8) (size 9 to 14) (size 15 to 20)
#    0.000    2.000    1.667    2.000    0.000    7.667 
#    0.000    0.833    0.000    5.000    0.000    0.000 
#    0.000    0.000    0.000    0.000    0.000    0.000 
#
# Total GULP energy -595431.863946 kJ/mol
# GULP energy per Si atom -12404.830499 kJ/mol
# Density = 1.810231 g / cm^3
# Si number density = 18.143607 Si / 1000 Ang^3
#
#
#
# Elastic Constant Matrix: (Units=GPa)
#
#
# Indices 1 2 3 4 5 6 
#
# 1 64.3343 34.9031 54.6276 0.0000 0.0000 0.0000
# 2 34.9031 76.5969 51.1663 0.0000 0.0000 0.0000
# 3 54.6276 51.1663 140.2969 0.0000 0.0000 0.0000
# 4 0.0000 0.0000 0.0000 24.6199 0.0000 0.0000
# 5 0.0000 0.0000 0.0000 0.0000 34.6522 0.0000
# 6 0.0000 0.0000 0.0000 0.0000 0.0000 27.9912
#
#
#
# Elastic Compliance Matrix: (Units=1/GPa)
#
#
# Indices 1 2 3 4 5 6 
#
# 1 0.025516 -0.006598 -0.007529 0.000000 0.000000 0.000000
# 2 -0.006598 0.018966 -0.004348 0.000000 0.000000 0.000000
# 3 -0.007529 -0.004348 0.011645 0.000000 0.000000 0.000000
# 4 0.000000 0.000000 0.000000 0.040618 0.000000 0.000000
# 5 0.000000 0.000000 0.000000 0.000000 0.028858 0.000000
# 6 0.000000 0.000000 0.000000 0.000000 0.000000 0.035726
#
#
# Mechanical properties :
#
#
# Convention : Reuss Voigt Hill
#
# Bulk Modulus (GPa) = 52.14320 62.51353 57.32836
# Shear Modulus (GPa) = 24.42939 26.82139 25.62539
#
# Velocity S-wave (km/s) = 3.67338 3.84902 3.76222
# Velocity P-wave (km/s) = 6.84055 7.36769 7.10901
#
# Compressibility (1/GPa) = 0.01917796
#
# Stress axis : x y z
#
# Youngs Moduli (GPa) = 39.19046 52.72544 85.87287
#
# Poissons Ratio (x) = 0.34786 0.64655
# Poissons Ratio (y) = 0.25857 0.37338
# Poissons Ratio (z) = 0.29507 0.22925
#
# Static dielectric constant tensor:
#      x y z
#    x 3.325900 0.000000 0.000000 
#    y 0.000000 3.295430 0.000000 
#    z 0.000000 0.000000 3.461000 
# 
# 
# High freq. dielectric constant tensor:
#      x y z
#    x 1.701840 0.000000 0.000000 
#    y 0.000000 1.700310 0.000000 
#    z 0.000000 0.000000 1.706310 
# 
# From -- ./inp_files/57243.got.cif
#   From: 2010.03.12/outbox.cif.g09.slc.cpg/sg74_29_cif.got.tgz:57243.got - 2010.04.16 15:46:19.
