data_PCOD8299497
_publ_section_title
;
Structure prediction by ZEFSAII (Michael W. Deem and Ramdas Pophale) SiO2 
 PCOD8299497
Probable space group: I M M A
;
_chemical_formula_sum "Si O2"
_cell_formula_units_Z 120
_cell_length_a 9.353428
_cell_length_b 26.585303
_cell_length_c 28.317966
_cell_angle_alpha 90.000000
_cell_angle_beta 90.000000
_cell_angle_gamma 90.000000
_cell_volume 7041.650697
_symmetry_space_group_name_H-M "I M M A"
_symmetry_group_IT_number 74
_symmetry_cell_setting 'orthorhombic'
loop_
_space_group_symop_operation_xyz
x,y,z
-x,1/2-y,z
x,-y,-z
-x,1/2+y,-z
-x,-y,-z
x,1/2+y,-z
-x,y,z
x,1/2-y,z
1/2+x,1/2+y,1/2+z
1/2-x,-y,1/2+z
1/2+x,1/2-y,1/2-z
1/2-x,y,1/2-z
1/2-x,1/2-y,1/2-z
1/2+x,y,1/2-z
1/2-x,1/2+y,1/2+z
1/2+x,-y,1/2+z
loop_
_atom_site_type_symbol
_atom_site_label
_atom_site_fract_x
_atom_site_fract_y
_atom_site_fract_z
Si Si1 0.663455 0.992506 0.385485
Si Si2 0.166603 0.946894 0.797500
Si Si3 0.741260 0.951639 0.974875
Si Si4 0.339169 0.102717 0.563706
Si Si5 0.827171 0.750000 0.700159
Si Si6 0.333740 0.806358 0.032237
Si Si7 0.844962 0.853817 0.564671
Si Si8 0.833149 0.658611 0.845155
O O1 0.500000 0.984018 0.373161
O O2 0.728804 0.937591 0.398789
O O3 0.733575 0.017671 0.338893
O O4 0.670091 0.030259 0.429626
O O5 0.250000 0.959446 0.750000
O O6 0.189305 0.888978 0.811510
O O7 0.000000 0.957743 0.789264
O O8 0.630230 0.909589 0.957328
O O9 0.844633 0.924255 0.012529
O O10 0.664917 0.000000 0.000000
O O11 0.500000 0.117134 0.577677
O O12 0.248159 0.153732 0.565009
O O13 0.750000 0.750000 0.750000
O O14 0.773308 0.701478 0.672404
O O15 0.000000 0.750000 0.705194
O O16 0.500000 0.813445 0.042850
O O17 0.282470 0.750000 0.044915
O O18 0.301876 0.815393 0.976865
O O19 0.716659 0.854114 0.601955
O O20 0.000000 0.838431 0.586549
O O21 0.000000 0.675303 0.845721
#
# Coordination Sequence:
#
# PCOD8299497 Si02
#       8
#    16  16  16  16   8  16  16  16
#     4   9  16  30  48  71 101 131 159 199 252 296
#     4  10  21  36  54  74 101 131 163 203 248 300
#     4   9  16  28  47  71 100 131 162 201 249 300
#     4   9  17  28  49  75  97 125 166 206 241 291
#     4  12  26  44  62  78  98 122 160 214 272 322
#     4   9  19  34  48  65  99 139 167 199 251 300
#     4  10  20  32  48  72 100 133 170 210 252 296
#     4  11  23  39  58  77  97 127 169 216 263 309
#
# _framework density 17.041457999999999
#
# number of rings (size 3 to 8) (size 9 to 14) (size 15 to 20)
#    0.000    2.267    1.333    1.800    0.933    6.400 
#    0.000    2.667    0.000    0.000    0.000    0.000 
#    0.000    0.533    0.000    1.200    0.000    2.133 
#
# Total GULP energy -743442.695984 kJ/mol
# GULP energy per Si atom -12390.711600 kJ/mol
# Density = 1.700267 g / cm^3
# Si number density = 17.041458 Si / 1000 Ang^3
#
#
#
# Elastic Constant Matrix: (Units=GPa)
#
#
# Indices 1 2 3 4 5 6 
#
# 1 73.6886 43.9155 34.4582 0.0000 0.0000 0.0000
# 2 43.9155 131.1220 54.8311 0.0000 0.0000 0.0000
# 3 34.4582 54.8311 84.2059 0.0000 0.0000 0.0000
# 4 0.0000 0.0000 0.0000 21.7489 0.0000 0.0000
# 5 0.0000 0.0000 0.0000 0.0000 22.2346 0.0000
# 6 0.0000 0.0000 0.0000 0.0000 0.0000 13.3292
#
#
#
# Elastic Compliance Matrix: (Units=1/GPa)
#
#
# Indices 1 2 3 4 5 6 
#
# 1 0.018264 -0.004111 -0.004797 0.000000 0.000000 0.000000
# 2 -0.004111 0.011406 -0.005744 0.000000 0.000000 0.000000
# 3 -0.004797 -0.005744 0.017579 0.000000 0.000000 0.000000
# 4 0.000000 0.000000 0.000000 0.045979 0.000000 0.000000
# 5 0.000000 0.000000 0.000000 0.000000 0.044975 0.000000
# 6 0.000000 0.000000 0.000000 0.000000 0.000000 0.075023
#
#
# Mechanical properties :
#
#
# Convention : Reuss Voigt Hill
#
# Bulk Modulus (GPa) = 55.72992 61.71400 58.72196
# Shear Modulus (GPa) = 20.11976 21.84998 20.98487
#
# Velocity S-wave (km/s) = 3.43977 3.58462 3.51294
# Velocity P-wave (km/s) = 6.96775 7.30926 7.14055
#
# Compressibility (1/GPa) = 0.01794368
#
# Stress axis : x y z
#
# Youngs Moduli (GPa) = 54.75339 87.67696 56.88562
#
# Poissons Ratio (x) = 0.36044 0.27287
# Poissons Ratio (y) = 0.22509 0.32678
# Poissons Ratio (z) = 0.26264 0.50366
#
# Static dielectric constant tensor:
#      x y z
#    x 2.988690 0.000000 0.000000 
#    y 0.000000 3.399020 0.000000 
#    z 0.000000 0.000000 3.138650 
# 
# 
# High freq. dielectric constant tensor:
#      x y z
#    x 1.644870 0.000000 0.000000 
#    y 0.000000 1.659140 0.000000 
#    z 0.000000 0.000000 1.628310 
# 
# From -- ./inp_files/65081.got.cif
#   From: 2010.03.12/outbox.cif.g09.slc.cpg/sg74_33_cif.got.tgz:65081.got - 2010.04.16 15:46:19.
