data_PCOD8299756
_publ_section_title
;
Structure prediction by ZEFSAII (Michael W. Deem and Ramdas Pophale) SiO2 
 PCOD8299756
Probable space group: I M M A
;
_chemical_formula_sum "Si O2"
_cell_formula_units_Z 88
_cell_length_a 9.013958
_cell_length_b 17.975758
_cell_length_c 30.105628
_cell_angle_alpha 90.000000
_cell_angle_beta 90.000000
_cell_angle_gamma 90.000000
_cell_volume 4878.097022
_symmetry_space_group_name_H-M "I M M A"
_symmetry_group_IT_number 74
_symmetry_cell_setting 'orthorhombic'
loop_
_space_group_symop_operation_xyz
x,y,z
-x,1/2-y,z
x,-y,-z
-x,1/2+y,-z
-x,-y,-z
x,1/2+y,-z
-x,y,z
x,1/2-y,z
1/2+x,1/2+y,1/2+z
1/2-x,-y,1/2+z
1/2+x,1/2-y,1/2-z
1/2-x,y,1/2-z
1/2-x,1/2-y,1/2-z
1/2+x,y,1/2-z
1/2-x,1/2+y,1/2+z
1/2+x,-y,1/2+z
loop_
_atom_site_type_symbol
_atom_site_label
_atom_site_fract_x
_atom_site_fract_y
_atom_site_fract_z
Si Si1 0.825266 0.954492 0.958037
Si Si2 0.323256 0.523122 0.365962
Si Si3 0.164783 0.335560 0.504135
Si Si4 0.829685 0.250000 0.296015
Si Si5 0.324801 0.834479 0.104812
Si Si6 0.175676 0.087990 0.298108
O O1 0.767081 0.871406 0.966099
O O2 0.000000 0.954604 0.957352
O O3 0.765653 0.987756 0.912116
O O4 0.761450 0.000000 0.000000
O O5 0.500000 0.522672 0.361156
O O6 0.263977 0.608049 0.363823
O O7 0.251289 0.475538 0.327065
O O8 0.160334 0.250000 0.491971
O O9 0.228236 0.347175 0.553961
O O10 0.000000 0.369693 0.501333
O O11 0.750000 0.250000 0.250000
O O12 0.792600 0.329251 0.320183
O O13 0.000000 0.250000 0.283417
O O14 0.500000 0.848046 0.109038
O O15 0.285986 0.750000 0.119580
O O16 0.250000 0.083926 0.250000
O O17 0.000000 0.072701 0.294530
#
# Coordination Sequence:
#
# PCOD8299756 Si02
#       6
#    16  16  16   8  16  16
#     4  10  20  34  49  71 105 142 178 218 261 308
#     4  11  22  35  53  79 109 142 181 220 265 318
#     4   9  18  32  50  72  98 133 178 223 265 311
#     4   8  16  32  56  82 106 136 172 212 258 310
#     4   9  18  33  53  77 104 136 178 224 268 317
#     4  10  20  37  60  84 110 139 175 219 266 315
#
# _framework density 18.039821
#
# number of rings (size 3 to 8) (size 9 to 14) (size 15 to 20)
#    0.000    2.364    1.818    2.182    0.000    3.273 
#    1.636    1.818    0.000    0.545    0.000    0.000 
#    0.000    0.000    0.000    0.000    0.000    0.000 
#
# Total GULP energy -545267.277825 kJ/mol
# GULP energy per Si atom -12392.438132 kJ/mol
# Density = 1.799876 g / cm^3
# Si number density = 18.039821 Si / 1000 Ang^3
#
#
#
# Elastic Constant Matrix: (Units=GPa)
#
#
# Indices 1 2 3 4 5 6 
#
# 1 53.3725 51.4674 35.7952 0.0000 0.0000 0.0000
# 2 51.4674 139.0332 58.2488 0.0000 0.0000 0.0000
# 3 35.7952 58.2488 73.8709 0.0000 0.0000 0.0000
# 4 0.0000 0.0000 0.0000 30.9163 0.0000 0.0000
# 5 0.0000 0.0000 0.0000 0.0000 25.8786 0.0000
# 6 0.0000 0.0000 0.0000 0.0000 0.0000 30.8577
#
#
#
# Elastic Compliance Matrix: (Units=1/GPa)
#
#
# Indices 1 2 3 4 5 6 
#
# 1 0.033085 -0.008259 -0.009519 0.000000 0.000000 0.000000
# 2 -0.008259 0.012803 -0.006093 0.000000 0.000000 0.000000
# 3 -0.009519 -0.006093 0.022954 0.000000 0.000000 0.000000
# 4 0.000000 0.000000 0.000000 0.032345 0.000000 0.000000
# 5 0.000000 0.000000 0.000000 0.000000 0.038642 0.000000
# 6 0.000000 0.000000 0.000000 0.000000 0.000000 0.032407
#
#
# Mechanical properties :
#
#
# Convention : Reuss Voigt Hill
#
# Bulk Modulus (GPa) = 47.39583 61.92217 54.65900
# Shear Modulus (GPa) = 22.02528 25.58152 23.80340
#
# Velocity S-wave (km/s) = 3.49797 3.76980 3.63642
# Velocity P-wave (km/s) = 6.53026 7.30399 6.92793
#
# Compressibility (1/GPa) = 0.02109890
#
# Stress axis : x y z
#
# Youngs Moduli (GPa) = 30.22530 78.10879 43.56494
#
# Poissons Ratio (x) = 0.64512 0.41470
# Poissons Ratio (y) = 0.24964 0.26544
# Poissons Ratio (z) = 0.28772 0.47592
#
# Static dielectric constant tensor:
#      x y z
#    x 3.384400 0.000000 0.000000 
#    y 0.000000 3.622270 0.000000 
#    z 0.000000 0.000000 3.043720 
# 
# 
# High freq. dielectric constant tensor:
#      x y z
#    x 1.700100 0.000000 0.000000 
#    y 0.000000 1.712890 0.000000 
#    z 0.000000 0.000000 1.658900 
# 
# From -- ./inp_files/70281.got.cif
#   From: 2010.03.12/outbox.cif.g09.slc.cpg/sg74_36_cif.got.tgz:70281.got - 2010.04.16 15:46:19.
