data_PCOD8299084
_publ_section_title
;
Structure prediction by ZEFSAII (Michael W. Deem and Ramdas Pophale) SiO2 
 PCOD8299084
Probable space group: I M M A
;
_chemical_formula_sum "Si O2"
_cell_formula_units_Z 72
_cell_length_a 8.635172
_cell_length_b 28.593825
_cell_length_c 14.044442
_cell_angle_alpha 90.000000
_cell_angle_beta 90.000000
_cell_angle_gamma 90.000000
_cell_volume 3467.749648
_symmetry_space_group_name_H-M "I M M A"
_symmetry_group_IT_number 74
_symmetry_cell_setting 'orthorhombic'
loop_
_space_group_symop_operation_xyz
x,y,z
-x,1/2-y,z
x,-y,-z
-x,1/2+y,-z
-x,-y,-z
x,1/2+y,-z
-x,y,z
x,1/2-y,z
1/2+x,1/2+y,1/2+z
1/2-x,-y,1/2+z
1/2+x,1/2-y,1/2-z
1/2-x,y,1/2-z
1/2-x,1/2-y,1/2-z
1/2+x,y,1/2-z
1/2-x,1/2+y,1/2+z
1/2+x,-y,1/2+z
loop_
_atom_site_type_symbol
_atom_site_label
_atom_site_fract_x
_atom_site_fract_y
_atom_site_fract_z
Si Si1 0.683815 0.874294 0.854948
Si Si2 0.682762 0.422493 0.855838
Si Si3 0.318506 0.163203 0.535158
Si Si4 0.818049 0.250000 0.645292
Si Si5 0.821348 0.976296 0.648693
O O1 0.500000 0.866961 0.855168
O O2 0.750000 0.865708 0.750000
O O3 0.734355 0.926479 0.894223
O O4 0.762151 0.837031 0.925585
O O5 0.500000 0.410673 0.854461
O O6 0.750000 0.420126 0.750000
O O7 0.774421 0.385957 0.918760
O O8 0.709999 0.474230 0.905804
O O9 0.500000 0.172036 0.540336
O O10 0.233663 0.204239 0.589887
O O11 0.750000 0.250000 0.750000
O O12 0.000000 0.250000 0.654840
O O13 0.750000 0.984589 0.750000
O O14 0.000000 0.969869 0.667347
#
# Coordination Sequence:
#
# PCOD8299084 Si02
#       5
#    16  16  16   8  16
#     4  10  20  38  61  88 121 161 203 248 296 347
#     4  10  19  34  55  84 120 160 202 249 298 352
#     4  12  25  41  61  89 120 156 199 245 296 357
#     4  12  26  48  73  96 121 152 188 238 298 358
#     4   8  16  30  52  80 116 158 201 244 292 344
#
# _framework density 20.762744000000001
#
# number of rings (size 3 to 8) (size 9 to 14) (size 15 to 20)
#    0.000    1.778    0.000    5.000    0.000    2.667 
#    0.000    5.000    0.000    0.000    0.000    0.000 
#    0.000    0.000    0.000    0.000    0.000    0.000 
#
# Total GULP energy -446052.316918 kJ/mol
# GULP energy per Si atom -12390.342137 kJ/mol
# Density = 2.071549 g / cm^3
# Si number density = 20.762744 Si / 1000 Ang^3
#
#
#
# Elastic Constant Matrix: (Units=GPa)
#
#
# Indices 1 2 3 4 5 6 
#
# 1 122.8940 49.4861 49.7764 0.0004 0.0000 0.0000
# 2 49.4861 108.6440 71.9494 0.0005 0.0000 0.0000
# 3 49.7764 71.9494 106.4596 0.0015 0.0003 -0.0001
# 4 0.0004 0.0005 0.0015 20.0545 0.0003 -0.0001
# 5 0.0000 0.0000 0.0003 0.0003 34.0586 0.0001
# 6 0.0000 0.0000 -0.0001 -0.0001 0.0001 26.4646
#
#
#
# Elastic Compliance Matrix: (Units=1/GPa)
#
#
# Indices 1 2 3 4 5 6 
#
# 1 0.010478 -0.002766 -0.003030 0.000000 0.000000 0.000000
# 2 -0.002766 0.017392 -0.010461 0.000000 0.000000 0.000000
# 3 -0.003030 -0.010461 0.017880 -0.000001 0.000000 0.000000
# 4 0.000000 0.000000 -0.000001 0.049864 0.000000 0.000000
# 5 0.000000 0.000000 0.000000 0.000000 0.029361 0.000000
# 6 0.000000 0.000000 0.000000 0.000000 0.000000 0.037786
#
#
# Mechanical properties :
#
#
# Convention : Reuss Voigt Hill
#
# Bulk Modulus (GPa) = 75.54960 75.60239 75.57600
# Shear Modulus (GPa) = 25.03924 27.23460 26.13692
#
# Velocity S-wave (km/s) = 3.47647 3.62568 3.55186
# Velocity P-wave (km/s) = 7.25125 7.34976 7.30067
#
# Compressibility (1/GPa) = 0.01323634
#
# Stress axis : x y z
#
# Youngs Moduli (GPa) = 95.43711 57.49762 55.92994
#
# Poissons Ratio (x) = 0.15906 0.16944
# Poissons Ratio (y) = 0.26401 0.58507
# Poissons Ratio (z) = 0.28913 0.60147
#
# Static dielectric constant tensor:
#      x y z
#    x 3.816000 0.000000 0.000000 
#    y 0.000000 4.127150 0.000000 
#    z 0.000000 0.000000 3.845740 
# 
# 
# High freq. dielectric constant tensor:
#      x y z
#    x 1.819820 0.000000 0.000000 
#    y 0.000000 1.815670 0.000000 
#    z 0.000000 0.000000 1.809370 
# 
# From -- ./inp_files/29219.got.cif
#   From: 2010.03.12/outbox.cif.g09.slc.cpg/sg74_15_cif.got.tgz:29219.got - 2010.04.16 15:46:19.
