data_PCOD8299431
_publ_section_title
;
Structure prediction by ZEFSAII (Michael W. Deem and Ramdas Pophale) SiO2 
 PCOD8299431
Probable space group: I M M A
;
_chemical_formula_sum "Si O2"
_cell_formula_units_Z 96
_cell_length_a 28.508639
_cell_length_b 9.188187
_cell_length_c 25.989418
_cell_angle_alpha 90.000000
_cell_angle_beta 90.000000
_cell_angle_gamma 90.000000
_cell_volume 6807.738485
_symmetry_space_group_name_H-M "I M M A"
_symmetry_group_IT_number 74
_symmetry_cell_setting 'orthorhombic'
loop_
_space_group_symop_operation_xyz
x,y,z
-x,1/2-y,z
x,-y,-z
-x,1/2+y,-z
-x,-y,-z
x,1/2+y,-z
-x,y,z
x,1/2-y,z
1/2+x,1/2+y,1/2+z
1/2-x,-y,1/2+z
1/2+x,1/2-y,1/2-z
1/2-x,y,1/2-z
1/2-x,1/2-y,1/2-z
1/2+x,y,1/2-z
1/2-x,1/2+y,1/2+z
1/2+x,-y,1/2+z
loop_
_atom_site_type_symbol
_atom_site_label
_atom_site_fract_x
_atom_site_fract_y
_atom_site_fract_z
Si Si1 0.722465 0.085487 0.803295
Si Si2 0.553668 0.081533 0.602078
Si Si3 0.447797 0.916244 0.706676
Si Si4 0.136326 0.077371 0.051223
Si Si5 0.353630 0.916138 0.752226
Si Si6 0.800926 0.917809 0.852142
O O1 0.714531 0.250000 0.820572
O O2 0.750000 0.071227 0.750000
O O3 0.671409 0.012742 0.795814
O O4 0.752431 0.006899 0.847671
O O5 0.500000 0.061546 0.584331
O O6 0.568941 0.250000 0.600439
O O7 0.560429 0.024794 0.659826
O O8 0.585223 0.987904 0.563514
O O9 0.500000 0.936822 0.730055
O O10 0.440560 0.750000 0.686636
O O11 0.409545 0.948987 0.751253
O O12 0.131898 0.250000 0.043620
O O13 0.172627 0.035850 0.096109
O O14 0.155639 0.000000 0.000000
O O15 0.342628 0.750000 0.766400
O O16 0.335063 0.953873 0.695257
O O17 0.786819 0.750000 0.852966
#
# Coordination Sequence:
#
# PCOD8299431 Si02
#       6
#    16  16  16  16  16  16
#     4   9  17  26  39  61  81 100 125 157 196 234
#     4  10  20  32  45  60  77 100 131 169 212 250
#     4   9  16  27  43  61  81 107 137 166 199 240
#     4  11  22  35  48  62  77 100 132 167 210 251
#     4   9  15  26  42  60  80 104 130 159 196 237
#     4   9  17  30  44  58  77 101 127 159 200 244
#
# _framework density 14.101599
#
# number of rings (size 3 to 8) (size 9 to 14) (size 15 to 20)
#    0.000    2.500    1.667    1.500    0.000    5.333 
#    0.000    0.000    0.000    0.000    0.000    0.000 
#    0.000    0.000    0.000    0.000    0.000    0.833 
#
# Total GULP energy -595125.868081 kJ/mol
# GULP energy per Si atom -12398.455585 kJ/mol
# Density = 1.406950 g / cm^3
# Si number density = 14.101599 Si / 1000 Ang^3
#
#
#
# Elastic Constant Matrix: (Units=GPa)
#
#
# Indices 1 2 3 4 5 6 
#
# 1 92.5141 50.7753 44.6814 0.0000 0.0000 0.0000
# 2 50.7753 83.7231 37.4287 0.0000 0.0000 0.0000
# 3 44.6814 37.4287 44.7660 0.0000 0.0000 0.0000
# 4 0.0000 0.0000 0.0000 18.5555 0.0000 0.0000
# 5 0.0000 0.0000 0.0000 0.0000 19.8791 0.0000
# 6 0.0000 0.0000 0.0000 0.0000 0.0000 18.4379
#
#
#
# Elastic Compliance Matrix: (Units=1/GPa)
#
#
# Indices 1 2 3 4 5 6 
#
# 1 0.022480 -0.005753 -0.017628 0.000000 0.000000 0.000000
# 2 -0.005753 0.020546 -0.011436 0.000000 0.000000 0.000000
# 3 -0.017628 -0.011436 0.049494 0.000000 0.000000 0.000000
# 4 0.000000 0.000000 0.000000 0.053892 0.000000 0.000000
# 5 0.000000 0.000000 0.000000 0.000000 0.050304 0.000000
# 6 0.000000 0.000000 0.000000 0.000000 0.000000 0.054236
#
#
# Mechanical properties :
#
#
# Convention : Reuss Voigt Hill
#
# Bulk Modulus (GPa) = 43.69323 54.08600 48.88961
# Shear Modulus (GPa) = 15.23391 17.24903 16.24147
#
# Velocity S-wave (km/s) = 3.29035 3.50122 3.39742
# Velocity P-wave (km/s) = 6.74441 7.40152 7.08059
#
# Compressibility (1/GPa) = 0.02288684
#
# Stress axis : x y z
#
# Youngs Moduli (GPa) = 44.48353 48.67210 20.20433
#
# Poissons Ratio (x) = 0.28001 0.35616
# Poissons Ratio (y) = 0.25591 0.23106
# Poissons Ratio (z) = 0.78414 0.55662
#
# Static dielectric constant tensor:
#      x y z
#    x 2.901030 0.000000 0.000000 
#    y 0.000000 2.871470 0.000000 
#    z 0.000000 0.000000 2.422160 
# 
# 
# High freq. dielectric constant tensor:
#      x y z
#    x 1.533600 0.000000 0.000000 
#    y 0.000000 1.550640 0.000000 
#    z 0.000000 0.000000 1.481250 
# 
# From -- ./inp_files/55038.got.cif
#   From: 2010.03.12/outbox.cif.g09.slc.cpg/sg74_28_cif.got.tgz:55038.got - 2010.04.16 15:46:19.
