data_PCOD8299228
_publ_section_title
;
Structure prediction by ZEFSAII (Michael W. Deem and Ramdas Pophale) SiO2 
 PCOD8299228
Probable space group: I M M A
;
_chemical_formula_sum "Si O2"
_cell_formula_units_Z 88
_cell_length_a 18.225319
_cell_length_b 12.437873
_cell_length_c 20.282379
_cell_angle_alpha 90.000000
_cell_angle_beta 90.000000
_cell_angle_gamma 90.000000
_cell_volume 4597.694921
_symmetry_space_group_name_H-M "I M M A"
_symmetry_group_IT_number 74
_symmetry_cell_setting 'orthorhombic'
loop_
_space_group_symop_operation_xyz
x,y,z
-x,1/2-y,z
x,-y,-z
-x,1/2+y,-z
-x,-y,-z
x,1/2+y,-z
-x,y,z
x,1/2-y,z
1/2+x,1/2+y,1/2+z
1/2-x,-y,1/2+z
1/2+x,1/2-y,1/2-z
1/2-x,y,1/2-z
1/2-x,1/2-y,1/2-z
1/2+x,y,1/2-z
1/2-x,1/2+y,1/2+z
1/2+x,-y,1/2+z
loop_
_atom_site_type_symbol
_atom_site_label
_atom_site_fract_x
_atom_site_fract_y
_atom_site_fract_z
Si Si1 0.919422 0.627215 0.607083
Si Si2 0.135946 0.630008 0.866368
Si Si3 0.916659 0.521344 0.739312
Si Si4 0.699474 0.373046 0.812617
Si Si5 0.228720 0.526896 0.573205
Si Si6 0.000000 0.880795 0.961397
O O1 0.914748 0.750000 0.586613
O O2 0.910486 0.617519 0.686256
O O3 0.854849 0.567351 0.568610
O O4 0.000000 0.580329 0.586785
O O5 0.129861 0.750000 0.838546
O O6 0.127463 0.550669 0.804869
O O7 0.215716 0.616158 0.898984
O O8 0.073007 0.608490 0.919163
O O9 0.880928 0.417620 0.704810
O O10 0.000000 0.494286 0.758350
O O11 0.690905 0.250000 0.829914
O O12 0.750000 0.395541 0.750000
O O13 0.733844 0.425186 0.878210
O O14 0.255637 0.500000 0.500000
O O15 0.000000 0.750000 0.991263
O O16 0.000000 0.000000 0.000000
#
# Coordination Sequence:
#
# PCOD8299228 Si02
#       6
#    16  16  16  16  16   8
#     4   9  19  35  57  85 114 142 180 235 301 360
#     4  11  21  35  59  87 118 156 199 248 310 370
#     4  10  19  35  59  87 117 146 190 243 297 358
#     4  10  21  39  59  81 114 160 203 246 300 360
#     4  11  23  38  58  85 119 155 201 251 299 359
#     4  10  22  40  58  82 122 168 213 262 313 378
#
# _framework density 19.140025999999999
#
# number of rings (size 3 to 8) (size 9 to 14) (size 15 to 20)
#    0.000    1.818    2.727    1.636    0.000    2.909 
#    0.000    4.545    0.000    0.000    0.000    0.000 
#    0.000    0.000    0.000    0.000    0.000    0.000 
#
# Total GULP energy -545117.832129 kJ/mol
# GULP energy per Si atom -12389.041639 kJ/mol
# Density = 1.909646 g / cm^3
# Si number density = 19.140026 Si / 1000 Ang^3
#
#
#
# Elastic Constant Matrix: (Units=GPa)
#
#
# Indices 1 2 3 4 5 6 
#
# 1 97.0668 28.2560 18.6463 0.0000 0.0000 0.0000
# 2 28.2560 101.5747 39.6619 0.0000 0.0000 0.0000
# 3 18.6463 39.6619 85.1433 0.0000 0.0000 0.0000
# 4 0.0000 0.0000 0.0000 19.8352 0.0000 0.0000
# 5 0.0000 0.0000 0.0000 0.0000 26.0809 0.0000
# 6 0.0000 0.0000 0.0000 0.0000 0.0000 22.8747
#
#
#
# Elastic Compliance Matrix: (Units=1/GPa)
#
#
# Indices 1 2 3 4 5 6 
#
# 1 0.011315 -0.002665 -0.001237 0.000000 0.000000 0.000000
# 2 -0.002665 0.012661 -0.005314 0.000000 0.000000 0.000000
# 3 -0.001237 -0.005314 0.014491 0.000000 0.000000 0.000000
# 4 0.000000 0.000000 0.000000 0.050415 0.000000 0.000000
# 5 0.000000 0.000000 0.000000 0.000000 0.038342 0.000000
# 6 0.000000 0.000000 0.000000 0.000000 0.000000 0.043716
#
#
# Mechanical properties :
#
#
# Convention : Reuss Voigt Hill
#
# Bulk Modulus (GPa) = 49.90945 50.76811 50.33878
# Shear Modulus (GPa) = 25.50333 26.90622 26.20477
#
# Velocity S-wave (km/s) = 3.65425 3.75341 3.70416
# Velocity P-wave (km/s) = 6.62852 6.73545 6.68220
#
# Compressibility (1/GPa) = 0.02003629
#
# Stress axis : x y z
#
# Youngs Moduli (GPa) = 88.37449 78.98026 69.00673
#
# Poissons Ratio (x) = 0.21047 0.08534
# Poissons Ratio (y) = 0.23550 0.36673
# Poissons Ratio (z) = 0.10930 0.41973
#
# Static dielectric constant tensor:
#      x y z
#    x 3.727940 0.000000 0.000000 
#    y 0.000000 3.867890 0.000000 
#    z 0.000000 0.000000 3.363170 
# 
# 
# High freq. dielectric constant tensor:
#      x y z
#    x 1.761410 0.000000 0.000000 
#    y 0.000000 1.735830 0.000000 
#    z 0.000000 0.000000 1.730790 
# 
# From -- ./inp_files/41309.got.cif
#   From: 2010.03.12/outbox.cif.g09.slc.cpg/sg74_21_cif.got.tgz:41309.got - 2010.04.16 15:46:19.
