data_PCOD8299379
_publ_section_title
;
Structure prediction by ZEFSAII (Michael W. Deem and Ramdas Pophale) SiO2 
 PCOD8299379
Probable space group: I M M A
;
_chemical_formula_sum "Si O2"
_cell_formula_units_Z 120
_cell_length_a 21.148659
_cell_length_b 28.249103
_cell_length_c 11.936581
_cell_angle_alpha 90.000000
_cell_angle_beta 90.000000
_cell_angle_gamma 90.000000
_cell_volume 7131.279303
_symmetry_space_group_name_H-M "I M M A"
_symmetry_group_IT_number 74
_symmetry_cell_setting 'orthorhombic'
loop_
_space_group_symop_operation_xyz
x,y,z
-x,1/2-y,z
x,-y,-z
-x,1/2+y,-z
-x,-y,-z
x,1/2+y,-z
-x,y,z
x,1/2-y,z
1/2+x,1/2+y,1/2+z
1/2-x,-y,1/2+z
1/2+x,1/2-y,1/2-z
1/2-x,y,1/2-z
1/2-x,1/2-y,1/2-z
1/2+x,y,1/2-z
1/2-x,1/2+y,1/2+z
1/2+x,-y,1/2+z
loop_
_atom_site_type_symbol
_atom_site_label
_atom_site_fract_x
_atom_site_fract_y
_atom_site_fract_z
Si Si1 0.573180 0.633598 0.755629
Si Si2 0.232404 0.375876 0.502575
Si Si3 0.357241 0.531479 0.348217
Si Si4 0.810885 0.304990 0.326580
Si Si5 0.250000 0.095990 0.750000
Si Si6 0.352736 0.427790 0.417975
Si Si7 0.613054 0.069820 0.050647
Si Si8 0.431056 0.979019 0.147806
O O1 0.500000 0.650967 0.735339
O O2 0.624938 0.675748 0.766731
O O3 0.593608 0.598525 0.654671
O O4 0.574959 0.606457 0.873119
O O5 0.204181 0.327874 0.448460
O O6 0.238159 0.371412 0.638662
O O7 0.296245 0.390800 0.438665
O O8 0.185203 0.417719 0.471729
O O9 0.307467 0.561609 0.277617
O O10 0.331500 0.477446 0.360744
O O11 0.379091 0.556853 0.461499
O O12 0.421384 0.533422 0.276865
O O13 0.821838 0.250000 0.347542
O O14 0.750000 0.315241 0.250000
O O15 0.618287 0.019110 0.110782
O O16 0.576977 0.066842 0.931574
O O17 0.500000 0.001116 0.131949
#
# Coordination Sequence:
#
# PCOD8299379 Si02
#       8
#    16  16  16  16   8  16  16  16
#     4  11  21  35  55  78 108 139 173 213 259 319
#     4  10  20  35  55  76 104 133 173 221 269 318
#     4  10  21  31  47  70 106 145 183 224 251 296
#     4  10  21  38  60  84 107 131 162 212 276 330
#     4  10  20  34  51  76 102 136 181 220 264 302
#     4  10  21  33  48  76 106 145 183 216 258 300
#     4  10  20  30  48  71  99 139 176 219 257 302
#     4  11  20  31  44  66 100 142 186 222 256 301
#
# _framework density 16.827275
#
# number of rings (size 3 to 8) (size 9 to 14) (size 15 to 20)
#    0.000    1.733    4.000    1.600    1.867    1.867 
#    0.000    1.667    0.000    0.000    0.000    0.000 
#    0.000    0.000    0.000    0.000    0.000    0.000 
#
# Total GULP energy -743317.012355 kJ/mol
# GULP energy per Si atom -12388.616873 kJ/mol
# Density = 1.678898 g / cm^3
# Si number density = 16.827275 Si / 1000 Ang^3
#
#
#
# Elastic Constant Matrix: (Units=GPa)
#
#
# Indices 1 2 3 4 5 6 
#
# 1 97.5897 39.2902 42.3988 0.0000 0.0000 0.0000
# 2 39.2902 88.4442 46.3986 0.0000 0.0000 0.0000
# 3 42.3988 46.3986 109.3451 0.0000 0.0000 0.0000
# 4 0.0000 0.0000 0.0000 16.6559 0.0000 0.0000
# 5 0.0000 0.0000 0.0000 0.0000 10.3964 0.0000
# 6 0.0000 0.0000 0.0000 0.0000 0.0000 14.7954
#
#
#
# Elastic Compliance Matrix: (Units=1/GPa)
#
#
# Indices 1 2 3 4 5 6 
#
# 1 0.013414 -0.004155 -0.003438 0.000000 0.000000 0.000000
# 2 -0.004155 0.015831 -0.005107 0.000000 0.000000 0.000000
# 3 -0.003438 -0.005107 0.012645 0.000000 0.000000 0.000000
# 4 0.000000 0.000000 0.000000 0.060039 0.000000 0.000000
# 5 0.000000 0.000000 0.000000 0.000000 0.096187 0.000000
# 6 0.000000 0.000000 0.000000 0.000000 0.000000 0.067589
#
#
# Mechanical properties :
#
#
# Convention : Reuss Voigt Hill
#
# Bulk Modulus (GPa) = 60.63990 61.28382 60.96186
# Shear Modulus (GPa) = 16.85764 19.52229 18.18997
#
# Velocity S-wave (km/s) = 3.16856 3.40980 3.29139
# Velocity P-wave (km/s) = 7.03572 7.21115 7.12398
#
# Compressibility (1/GPa) = 0.01649079
#
# Stress axis : x y z
#
# Youngs Moduli (GPa) = 74.55153 63.16549 79.08066
#
# Poissons Ratio (x) = 0.26247 0.27187
# Poissons Ratio (y) = 0.30978 0.40383
# Poissons Ratio (z) = 0.25630 0.32256
#
# Static dielectric constant tensor:
#      x y z
#    x 3.113840 0.000000 0.000000 
#    y 0.000000 2.888300 0.000000 
#    z 0.000000 0.000000 3.472000 
# 
# 
# High freq. dielectric constant tensor:
#      x y z
#    x 1.645020 0.000000 0.000000 
#    y 0.000000 1.611000 0.000000 
#    z 0.000000 0.000000 1.663700 
# 
# From -- ./inp_files/24399.got.cif
#   From: 2010.03.12/outbox.cif.g09.slc.cpg/sg74_13_cif.got.tgz:24399.got - 2010.04.16 15:46:19.
