data_PCOD8299725
_publ_section_title
;
Structure prediction by ZEFSAII (Michael W. Deem and Ramdas Pophale) SiO2 
 PCOD8299725
Probable space group: I M M A
;
_chemical_formula_sum "Si O2"
_cell_formula_units_Z 96
_cell_length_a 9.270380
_cell_length_b 23.797734
_cell_length_c 23.793508
_cell_angle_alpha 90.000000
_cell_angle_beta 90.000000
_cell_angle_gamma 90.000000
_cell_volume 5249.181862
_symmetry_space_group_name_H-M "I M M A"
_symmetry_group_IT_number 74
_symmetry_cell_setting 'orthorhombic'
loop_
_space_group_symop_operation_xyz
x,y,z
-x,1/2-y,z
x,-y,-z
-x,1/2+y,-z
-x,-y,-z
x,1/2+y,-z
-x,y,z
x,1/2-y,z
1/2+x,1/2+y,1/2+z
1/2-x,-y,1/2+z
1/2+x,1/2-y,1/2-z
1/2-x,y,1/2-z
1/2-x,1/2-y,1/2-z
1/2+x,y,1/2-z
1/2-x,1/2+y,1/2+z
1/2+x,-y,1/2+z
loop_
_atom_site_type_symbol
_atom_site_label
_atom_site_fract_x
_atom_site_fract_y
_atom_site_fract_z
Si Si1 0.666387 0.685944 0.384444
Si Si2 0.165346 0.610817 0.305483
Si Si3 0.333834 0.404924 0.524884
Si Si4 0.831922 0.094396 0.103569
Si Si5 0.668639 0.685920 0.693991
Si Si6 0.665213 0.483435 0.898513
O O1 0.500000 0.677977 0.367187
O O2 0.703510 0.750000 0.398507
O O3 0.763688 0.666265 0.332383
O O4 0.704499 0.650728 0.440057
O O5 0.250000 0.593380 0.250000
O O6 0.181099 0.559151 0.347406
O O7 0.000000 0.624241 0.291123
O O8 0.500000 0.422290 0.532218
O O9 0.295855 0.390388 0.460809
O O10 0.241170 0.457956 0.546099
O O11 0.783833 0.146800 0.142017
O O12 0.000000 0.080782 0.111809
O O13 0.741630 0.040179 0.121727
O O14 0.500000 0.680354 0.706158
O O15 0.710745 0.750000 0.678559
O O16 0.750000 0.665753 0.750000
O O17 0.500000 0.495706 0.913701
#
# Coordination Sequence:
#
# PCOD8299725 Si02
#       6
#    16  16  16  16  16  16
#     4   9  18  33  53  76 102 133 168 207 251 297
#     4  10  21  36  53  73  99 133 171 211 254 298
#     4   9  18  33  52  75 104 135 167 205 249 297
#     4  10  20  33  53  79 103 132 169 206 247 298
#     4   9  19  36  55  75 102 134 167 206 251 297
#     4  10  21  35  51  74 104 135 167 207 253 298
#
# _framework density 18.288564000000001
#
# number of rings (size 3 to 8) (size 9 to 14) (size 15 to 20)
#    0.000    2.500    0.000    1.500    0.000    7.333 
#    0.000    6.667    0.000    0.000    0.000    4.667 
#    0.000    0.000    0.000    0.000    0.000    0.000 
#
# Total GULP energy -595352.804279 kJ/mol
# GULP energy per Si atom -12403.183422 kJ/mol
# Density = 1.824694 g / cm^3
# Si number density = 18.288564 Si / 1000 Ang^3
#
#
#
# Elastic Constant Matrix: (Units=GPa)
#
#
# Indices 1 2 3 4 5 6 
#
# 1 87.5507 55.1351 55.4771 0.0000 0.0000 0.0000
# 2 55.1351 113.3850 53.6992 0.0000 0.0000 0.0000
# 3 55.4771 53.6992 113.1123 0.0000 0.0000 0.0000
# 4 0.0000 0.0000 0.0000 24.3040 0.0000 0.0000
# 5 0.0000 0.0000 0.0000 0.0000 28.5895 0.0000
# 6 0.0000 0.0000 0.0000 0.0000 0.0000 25.2440
#
#
#
# Elastic Compliance Matrix: (Units=1/GPa)
#
#
# Indices 1 2 3 4 5 6 
#
# 1 0.019644 -0.006436 -0.006579 0.000000 0.000000 0.000000
# 2 -0.006436 0.013487 -0.003246 0.000000 0.000000 0.000000
# 3 -0.006579 -0.003246 0.013608 0.000000 0.000000 0.000000
# 4 0.000000 0.000000 0.000000 0.041145 0.000000 0.000000
# 5 0.000000 0.000000 0.000000 0.000000 0.034978 0.000000
# 6 0.000000 0.000000 0.000000 0.000000 0.000000 0.039613
#
#
# Mechanical properties :
#
#
# Convention : Reuss Voigt Hill
#
# Bulk Modulus (GPa) = 70.34035 71.40785 70.87410
# Shear Modulus (GPa) = 25.03290 25.60995 25.32142
#
# Velocity S-wave (km/s) = 3.70371 3.74615 3.72499
# Velocity P-wave (km/s) = 7.53889 7.60535 7.57219
#
# Compressibility (1/GPa) = 0.01421659
#
# Stress axis : x y z
#
# Youngs Moduli (GPa) = 50.90579 74.14802 73.48379
#
# Poissons Ratio (x) = 0.47725 0.48345
# Poissons Ratio (y) = 0.32765 0.23852
# Poissons Ratio (z) = 0.33491 0.24067
#
# Static dielectric constant tensor:
#      x y z
#    x 3.450600 0.000000 0.000000 
#    y 0.000000 3.397760 0.000000 
#    z 0.000000 0.000000 3.398070 
# 
# 
# High freq. dielectric constant tensor:
#      x y z
#    x 1.708260 0.000000 0.000000 
#    y 0.000000 1.707930 0.000000 
#    z 0.000000 0.000000 1.709490 
# 
# From -- ./inp_files/49049.got.cif
#   From: 2010.03.12/outbox.cif.g09.slc.cpg/sg74_25_cif.got.tgz:49049.got - 2010.04.16 15:46:19.
