data_PCOD8299927
_publ_section_title
;
Structure prediction by ZEFSAII (Michael W. Deem and Ramdas Pophale) SiO2 
 PCOD8299927
Probable space group: I M M A
;
_chemical_formula_sum "Si O2"
_cell_formula_units_Z 80
_cell_length_a 7.916672
_cell_length_b 16.024627
_cell_length_c 34.803042
_cell_angle_alpha 90.000000
_cell_angle_beta 90.000000
_cell_angle_gamma 90.000000
_cell_volume 4415.173626
_symmetry_space_group_name_H-M "I M M A"
_symmetry_group_IT_number 74
_symmetry_cell_setting 'orthorhombic'
loop_
_space_group_symop_operation_xyz
x,y,z
-x,1/2-y,z
x,-y,-z
-x,1/2+y,-z
-x,-y,-z
x,1/2+y,-z
-x,y,z
x,1/2-y,z
1/2+x,1/2+y,1/2+z
1/2-x,-y,1/2+z
1/2+x,1/2-y,1/2-z
1/2-x,y,1/2-z
1/2-x,1/2-y,1/2-z
1/2+x,y,1/2-z
1/2-x,1/2+y,1/2+z
1/2+x,-y,1/2+z
loop_
_atom_site_type_symbol
_atom_site_label
_atom_site_fract_x
_atom_site_fract_y
_atom_site_fract_z
Si Si1 0.183673 0.901878 0.637974
Si Si2 0.691187 0.500717 0.706642
Si Si3 0.687079 0.066740 0.912061
Si Si4 0.000000 0.158428 0.096206
Si Si5 0.197034 0.343624 0.663130
Si Si6 0.500000 0.506782 0.454835
O O1 0.335325 0.843636 0.623651
O O2 0.000000 0.856588 0.634723
O O3 0.203950 0.932559 0.681812
O O4 0.184130 0.982351 0.611527
O O5 0.500000 0.529860 0.703657
O O6 0.750000 0.503438 0.750000
O O7 0.703942 0.406629 0.690590
O O8 0.500000 0.082228 0.930736
O O9 0.733514 0.139932 0.882049
O O10 0.832994 0.059887 0.943971
O O11 0.000000 0.085186 0.064498
O O12 0.000000 0.250000 0.075981
O O13 0.257201 0.250000 0.672729
O O14 0.000000 0.356255 0.671545
O O15 0.500000 0.500000 0.500000
#
# Coordination Sequence:
#
# PCOD8299927 Si02
#       6
#    16  16  16   8  16   8
#     4   9  17  33  54  77 100 132 177 218 256 311
#     4  11  20  31  48  74 102 137 181 221 266 317
#     4   8  16  31  51  72  98 134 178 216 253 306
#     4  10  20  36  58  82 108 136 172 218 266 314
#     4   9  18  32  48  69 100 137 181 228 267 308
#     4  10  20  34  54  80 108 138 172 214 258 314
#
# _framework density 18.119332
#
# number of rings (size 3 to 8) (size 9 to 14) (size 15 to 20)
#    0.000    2.600    1.000    3.000    4.200    1.600 
#    0.000    1.000    0.000    0.600    0.000    0.000 
#    0.000    0.000    0.000    0.000    0.000    0.000 
#
# Total GULP energy -495734.149943 kJ/mol
# GULP energy per Si atom -12393.353749 kJ/mol
# Density = 1.807809 g / cm^3
# Si number density = 18.119332 Si / 1000 Ang^3
#
#
#
# Elastic Constant Matrix: (Units=GPa)
#
#
# Indices 1 2 3 4 5 6 
#
# 1 132.2786 11.3887 47.1252 0.0000 0.0000 0.0000
# 2 11.3887 46.1635 9.3989 0.0000 0.0000 0.0000
# 3 47.1252 9.3989 103.9467 0.0000 0.0000 0.0000
# 4 0.0000 0.0000 0.0000 20.1380 0.0000 0.0000
# 5 0.0000 0.0000 0.0000 0.0000 22.4555 0.0000
# 6 0.0000 0.0000 0.0000 0.0000 0.0000 9.8412
#
#
#
# Elastic Compliance Matrix: (Units=1/GPa)
#
#
# Indices 1 2 3 4 5 6 
#
# 1 0.009108 -0.001433 -0.004000 0.000000 0.000000 0.000000
# 2 -0.001433 0.022294 -0.001366 0.000000 0.000000 0.000000
# 3 -0.004000 -0.001366 0.011557 0.000000 0.000000 0.000000
# 4 0.000000 0.000000 0.000000 0.049657 0.000000 0.000000
# 5 0.000000 0.000000 0.000000 0.000000 0.044533 0.000000
# 6 0.000000 0.000000 0.000000 0.000000 0.000000 0.101614
#
#
# Mechanical properties :
#
#
# Convention : Reuss Voigt Hill
#
# Bulk Modulus (GPa) = 34.05798 46.46826 40.26312
# Shear Modulus (GPa) = 19.07326 24.78535 21.92930
#
# Velocity S-wave (km/s) = 3.24797 3.70252 3.48267
# Velocity P-wave (km/s) = 5.73612 6.63171 6.20011
#
# Compressibility (1/GPa) = 0.02936170
#
# Stress axis : x y z
#
# Youngs Moduli (GPa) = 109.79290 44.85559 86.52660
#
# Poissons Ratio (x) = 0.06426 0.34608
# Poissons Ratio (y) = 0.15730 0.11822
# Poissons Ratio (z) = 0.43914 0.06129
#
# Static dielectric constant tensor:
#      x y z
#    x 3.960900 0.000000 0.000000 
#    y 0.000000 3.226080 0.000000 
#    z 0.000000 0.000000 2.987340 
# 
# 
# High freq. dielectric constant tensor:
#      x y z
#    x 1.722410 0.000000 0.000000 
#    y 0.000000 1.672540 0.000000 
#    z 0.000000 0.000000 1.671980 
# 
# From -- ./inp_files/70145.got.cif
#   From: 2010.03.12/outbox.cif.g09.slc.cpg/sg74_36_cif.got.tgz:70145.got - 2010.04.16 15:46:19.
