data_PCOD8299774
_publ_section_title
;
Structure prediction by ZEFSAII (Michael W. Deem and Ramdas Pophale) SiO2 
 PCOD8299774
Probable space group: I M M A
;
_chemical_formula_sum "Si O2"
_cell_formula_units_Z 112
_cell_length_a 22.598507
_cell_length_b 9.285025
_cell_length_c 29.245126
_cell_angle_alpha 90.000000
_cell_angle_beta 90.000000
_cell_angle_gamma 90.000000
_cell_volume 6136.437597
_symmetry_space_group_name_H-M "I M M A"
_symmetry_group_IT_number 74
_symmetry_cell_setting 'orthorhombic'
loop_
_space_group_symop_operation_xyz
x,y,z
-x,1/2-y,z
x,-y,-z
-x,1/2+y,-z
-x,-y,-z
x,1/2+y,-z
-x,y,z
x,1/2-y,z
1/2+x,1/2+y,1/2+z
1/2-x,-y,1/2+z
1/2+x,1/2-y,1/2-z
1/2-x,y,1/2-z
1/2-x,1/2-y,1/2-z
1/2+x,y,1/2-z
1/2-x,1/2+y,1/2+z
1/2+x,-y,1/2+z
loop_
_atom_site_type_symbol
_atom_site_label
_atom_site_fract_x
_atom_site_fract_y
_atom_site_fract_z
Si Si1 0.264212 0.416669 0.127089
Si Si2 0.433025 0.078489 0.274063
Si Si3 0.433930 0.084980 0.899693
Si Si4 0.179296 0.581090 0.453817
Si Si5 0.629950 0.580900 0.636519
Si Si6 0.621387 0.582556 0.819277
Si Si7 0.568892 0.082362 0.454733
O O1 0.269066 0.250000 0.111403
O O2 0.277564 0.519935 0.084790
O O3 0.198773 0.455003 0.144097
O O4 0.309890 0.448408 0.168544
O O5 0.500000 0.021639 0.268717
O O6 0.431758 0.250000 0.276284
O O7 0.405295 0.013112 0.320581
O O8 0.393464 0.023875 0.231334
O O9 0.500000 0.053530 0.917889
O O10 0.425546 0.250000 0.885036
O O11 0.388571 0.046162 0.940264
O O12 0.422132 0.991975 0.854969
O O13 0.194946 0.500000 0.500000
O O14 0.190909 0.750000 0.459974
O O15 0.618250 0.750000 0.635505
O O16 0.605278 0.518930 0.588522
O O17 0.606614 0.750000 0.822326
O O18 0.500000 0.053843 0.445029
O O19 0.582136 0.250000 0.462592
O O20 0.590553 0.000000 0.500000
#
# Coordination Sequence:
#
# PCOD8299774 Si02
#       7
#    16  16  16  16  16  16  16
#     4   9  18  32  48  68  95 126 161 197 233 278
#     4   9  16  26  44  72 101 125 153 194 241 283
#     4   9  18  32  49  69  95 127 160 194 235 283
#     4  10  20  34  51  70  94 124 158 197 240 283
#     4   9  17  29  46  69  96 124 155 193 236 281
#     4   9  17  29  47  71  97 126 160 196 233 275
#     4   9  17  30  48  68  90 118 152 190 234 283
#
# _framework density 18.251632000000001
#
# number of rings (size 3 to 8) (size 9 to 14) (size 15 to 20)
#    0.000    2.857    0.000    1.286    0.000    4.571 
#    0.000    5.000    0.000    1.714    0.000    6.000 
#    0.000    0.000    0.000    0.000    0.000    0.000 
#
# Total GULP energy -694315.737729 kJ/mol
# GULP energy per Si atom -12398.495317 kJ/mol
# Density = 1.821009 g / cm^3
# Si number density = 18.251632 Si / 1000 Ang^3
#
#
#
# Elastic Constant Matrix: (Units=GPa)
#
#
# Indices 1 2 3 4 5 6 
#
# 1 104.0193 24.2706 62.7155 0.0000 0.0000 0.0000
# 2 24.2706 40.1488 38.1363 0.0000 0.0000 0.0000
# 3 62.7155 38.1363 147.5360 0.0000 0.0000 0.0000
# 4 0.0000 0.0000 0.0000 21.5091 0.0000 0.0000
# 5 0.0000 0.0000 0.0000 0.0000 23.4687 0.0000
# 6 0.0000 0.0000 0.0000 0.0000 0.0000 15.7439
#
#
#
# Elastic Compliance Matrix: (Units=1/GPa)
#
#
# Indices 1 2 3 4 5 6 
#
# 1 0.013295 -0.003537 -0.004737 0.000000 0.000000 0.000000
# 2 -0.003537 0.033954 -0.007273 0.000000 0.000000 0.000000
# 3 -0.004737 -0.007273 0.010672 0.000000 0.000000 0.000000
# 4 0.000000 0.000000 0.000000 0.046492 0.000000 0.000000
# 5 0.000000 0.000000 0.000000 0.000000 0.042610 0.000000
# 6 0.000000 0.000000 0.000000 0.000000 0.000000 0.063517
#
#
# Mechanical properties :
#
#
# Convention : Reuss Voigt Hill
#
# Bulk Modulus (GPa) = 37.27755 60.21653 48.74704
# Shear Modulus (GPa) = 19.95397 23.24980 21.60188
#
# Velocity S-wave (km/s) = 3.31005 3.57297 3.44402
# Velocity P-wave (km/s) = 5.92260 7.07711 6.52544
#
# Compressibility (1/GPa) = 0.02682580
#
# Stress axis : x y z
#
# Youngs Moduli (GPa) = 75.21554 29.45139 93.70557
#
# Poissons Ratio (x) = 0.10418 0.44390
# Poissons Ratio (y) = 0.26607 0.68153
# Poissons Ratio (z) = 0.35631 0.21420
#
# Static dielectric constant tensor:
#      x y z
#    x 3.429770 0.000000 0.000000 
#    y 0.000000 3.079200 0.000000 
#    z 0.000000 0.000000 3.487950 
# 
# 
# High freq. dielectric constant tensor:
#      x y z
#    x 1.712040 0.000000 0.000000 
#    y 0.000000 1.670470 0.000000 
#    z 0.000000 0.000000 1.708470 
# 
# From -- ./inp_files/68402.got.cif
#   From: 2010.03.12/outbox.cif.g09.slc.cpg/sg74_35_cif.got.tgz:68402.got - 2010.04.16 15:46:19.
