data_PCOD8299621
_publ_section_title
;
Structure prediction by ZEFSAII (Michael W. Deem and Ramdas Pophale) SiO2 
 PCOD8299621
Probable space group: I M M A
;
_chemical_formula_sum "Si O2"
_cell_formula_units_Z 96
_cell_length_a 18.411709
_cell_length_b 9.241601
_cell_length_c 29.694205
_cell_angle_alpha 90.000000
_cell_angle_beta 90.000000
_cell_angle_gamma 90.000000
_cell_volume 5052.577908
_symmetry_space_group_name_H-M "I M M A"
_symmetry_group_IT_number 74
_symmetry_cell_setting 'orthorhombic'
loop_
_space_group_symop_operation_xyz
x,y,z
-x,1/2-y,z
x,-y,-z
-x,1/2+y,-z
-x,-y,-z
x,1/2+y,-z
-x,y,z
x,1/2-y,z
1/2+x,1/2+y,1/2+z
1/2-x,-y,1/2+z
1/2+x,1/2-y,1/2-z
1/2-x,y,1/2-z
1/2-x,1/2-y,1/2-z
1/2+x,y,1/2-z
1/2-x,1/2+y,1/2+z
1/2+x,-y,1/2+z
loop_
_atom_site_type_symbol
_atom_site_label
_atom_site_fract_x
_atom_site_fract_y
_atom_site_fract_z
Si Si1 0.682904 0.414162 0.384811
Si Si2 0.919180 0.586956 0.428343
Si Si3 0.207002 0.589603 0.537722
Si Si4 0.585206 0.417832 0.546161
Si Si5 0.731403 0.420727 0.201363
Si Si6 0.920208 0.584874 0.662174
O O1 0.651763 0.250000 0.380240
O O2 0.755402 0.411183 0.414329
O O3 0.623597 0.514095 0.409595
O O4 0.711644 0.478714 0.336931
O O5 0.888743 0.750000 0.426168
O O6 0.869962 0.489701 0.460096
O O7 0.918735 0.524357 0.378544
O O8 0.000000 0.583339 0.448528
O O9 0.253349 0.500000 0.500000
O O10 0.194540 0.750000 0.519433
O O11 0.606866 0.500000 0.500000
O O12 0.500000 0.433454 0.555163
O O13 0.608116 0.250000 0.540975
O O14 0.742404 0.250000 0.201661
O O15 0.750000 0.488973 0.250000
O O16 0.646697 0.460100 0.194108
O O17 0.908808 0.750000 0.644882
O O18 0.000000 0.572304 0.686478
#
# Coordination Sequence:
#
# PCOD8299621 Si02
#       6
#    16  16  16  16  16  16
#     4  10  20  35  55  81 110 142 179 222 274 326
#     4  10  20  33  50  73 101 136 177 219 262 307
#     4  11  22  35  51  75 106 140 179 218 263 315
#     4  10  21  37  58  84 113 147 185 225 273 333
#     4   9  17  32  54  82 113 141 177 231 283 328
#     4   9  16  30  53  77 102 138 182 223 266 316
#
# _framework density 19.000202000000002
#
# number of rings (size 3 to 8) (size 9 to 14) (size 15 to 20)
#    0.000    2.167    1.667    2.000    0.000    5.000 
#    0.000    0.833    0.000    5.000    0.000    2.333 
#    0.000    0.000    0.000    0.000    0.000    0.000 
#
# Total GULP energy -594801.501514 kJ/mol
# GULP energy per Si atom -12391.697948 kJ/mol
# Density = 1.895696 g / cm^3
# Si number density = 19.000202 Si / 1000 Ang^3
#
#
#
# Elastic Constant Matrix: (Units=GPa)
#
#
# Indices 1 2 3 4 5 6 
#
# 1 94.1798 43.4391 46.0724 0.0000 0.0000 0.0000
# 2 43.4391 110.5276 39.4879 0.0000 0.0000 0.0000
# 3 46.0724 39.4879 123.4506 0.0000 0.0000 0.0000
# 4 0.0000 0.0000 0.0000 17.8491 0.0000 0.0000
# 5 0.0000 0.0000 0.0000 0.0000 22.8404 0.0000
# 6 0.0000 0.0000 0.0000 0.0000 0.0000 22.1080
#
#
#
# Elastic Compliance Matrix: (Units=1/GPa)
#
#
# Indices 1 2 3 4 5 6 
#
# 1 0.014584 -0.004276 -0.004075 0.000000 0.000000 0.000000
# 2 -0.004276 0.011468 -0.002073 0.000000 0.000000 0.000000
# 3 -0.004075 -0.002073 0.010284 0.000000 0.000000 0.000000
# 4 0.000000 0.000000 0.000000 0.056025 0.000000 0.000000
# 5 0.000000 0.000000 0.000000 0.000000 0.043782 0.000000
# 6 0.000000 0.000000 0.000000 0.000000 0.000000 0.045232
#
#
# Mechanical properties :
#
#
# Convention : Reuss Voigt Hill
#
# Bulk Modulus (GPa) = 64.56011 65.12855 64.84433
# Shear Modulus (GPa) = 24.10964 25.83674 24.97319
#
# Velocity S-wave (km/s) = 3.56605 3.69157 3.62935
# Velocity P-wave (km/s) = 7.14199 7.24724 7.19481
#
# Compressibility (1/GPa) = 0.01548944
#
# Stress axis : x y z
#
# Youngs Moduli (GPa) = 68.57029 87.19586 97.23658
#
# Poissons Ratio (x) = 0.37282 0.39624
# Poissons Ratio (y) = 0.29319 0.20154
# Poissons Ratio (z) = 0.27942 0.18073
#
# Static dielectric constant tensor:
#      x y z
#    x 3.635400 0.000000 0.000000 
#    y 0.000000 3.460010 0.000000 
#    z 0.000000 0.000000 3.554050 
# 
# 
# High freq. dielectric constant tensor:
#      x y z
#    x 1.743330 0.000000 0.000000 
#    y 0.000000 1.725460 0.000000 
#    z 0.000000 0.000000 1.718770 
# 
# From -- ./inp_files/68133.got.cif
#   From: 2010.03.12/outbox.cif.g09.slc.cpg/sg74_35_cif.got.tgz:68133.got - 2010.04.16 15:46:19.
