data_PCOD8299818
_publ_section_title
;
Structure prediction by ZEFSAII (Michael W. Deem and Ramdas Pophale) SiO2 
 PCOD8299818
Probable space group: I M M A
;
_chemical_formula_sum "Si O2"
_cell_formula_units_Z 72
_cell_length_a 8.784929
_cell_length_b 14.536908
_cell_length_c 28.846530
_cell_angle_alpha 90.000000
_cell_angle_beta 90.000000
_cell_angle_gamma 90.000000
_cell_volume 3683.866441
_symmetry_space_group_name_H-M "I M M A"
_symmetry_group_IT_number 74
_symmetry_cell_setting 'orthorhombic'
loop_
_space_group_symop_operation_xyz
x,y,z
-x,1/2-y,z
x,-y,-z
-x,1/2+y,-z
-x,-y,-z
x,1/2+y,-z
-x,y,z
x,1/2-y,z
1/2+x,1/2+y,1/2+z
1/2-x,-y,1/2+z
1/2+x,1/2-y,1/2-z
1/2-x,y,1/2-z
1/2-x,1/2-y,1/2-z
1/2+x,y,1/2-z
1/2-x,1/2+y,1/2+z
1/2+x,-y,1/2+z
loop_
_atom_site_type_symbol
_atom_site_label
_atom_site_fract_x
_atom_site_fract_y
_atom_site_fract_z
Si Si1 0.181524 0.750000 0.698631
Si Si2 0.333721 0.854709 0.293122
Si Si3 0.678989 0.392795 0.123176
Si Si4 0.177559 0.750000 0.546039
Si Si5 0.321383 0.250000 0.552271
Si Si6 0.320163 0.901569 0.114985
O O1 0.250000 0.750000 0.750000
O O2 0.239099 0.839700 0.669357
O O3 0.000000 0.750000 0.702464
O O4 0.500000 0.900811 0.302567
O O5 0.362548 0.750000 0.279028
O O6 0.250000 0.905672 0.250000
O O7 0.223457 0.855474 0.336882
O O8 0.500000 0.399830 0.129015
O O9 0.719639 0.338901 0.076375
O O10 0.747557 0.494777 0.117011
O O11 0.284968 0.750000 0.501796
O O12 0.000000 0.750000 0.531495
O O13 0.500000 0.250000 0.561390
O O14 0.253387 0.156676 0.573669
O O15 0.500000 0.900004 0.107530
#
# Coordination Sequence:
#
# PCOD8299818 Si02
#       6
#     8  16  16   8   8  16
#     4   9  17  35  59  86 118 149 180 223 271 322
#     4  10  20  34  52  75 108 147 185 223 268 320
#     4   8  18  36  60  85 111 143 185 231 275 326
#     4   9  18  40  65  82 104 142 187 231 279 336
#     4  12  25  39  54  80 115 147 182 230 284 338
#     4  11  21  36  58  84 111 146 189 231 276 330
#
# _framework density 19.544684
#
# number of rings (size 3 to 8) (size 9 to 14) (size 15 to 20)
#    0.000    2.222    1.111    3.667    0.000    2.667 
#    0.000   13.333    0.000    0.000    0.000    0.000 
#    0.000    0.000    0.000    0.000    0.000    0.000 
#
# Total GULP energy -446196.976915 kJ/mol
# GULP energy per Si atom -12394.360470 kJ/mol
# Density = 1.950020 g / cm^3
# Si number density = 19.544684 Si / 1000 Ang^3
#
#
#
# Elastic Constant Matrix: (Units=GPa)
#
#
# Indices 1 2 3 4 5 6 
#
# 1 82.4896 37.7126 36.5703 0.0000 0.0000 0.0000
# 2 37.7126 129.5115 54.1318 0.0000 0.0000 0.0000
# 3 36.5703 54.1318 136.5328 0.0000 0.0000 0.0000
# 4 0.0000 0.0000 0.0000 1.2579 0.0000 0.0000
# 5 0.0000 0.0000 0.0000 0.0000 34.4493 0.0000
# 6 0.0000 0.0000 0.0000 0.0000 0.0000 8.5758
#
#
#
# Elastic Compliance Matrix: (Units=1/GPa)
#
#
# Indices 1 2 3 4 5 6 
#
# 1 0.014770 -0.003173 -0.002698 0.000000 0.000000 0.000000
# 2 -0.003173 0.009937 -0.003090 0.000000 0.000000 0.000000
# 3 -0.002698 -0.003090 0.009272 0.000000 0.000000 0.000000
# 4 0.000000 0.000000 0.000000 0.795006 0.000000 0.000000
# 5 0.000000 0.000000 0.000000 0.000000 0.029028 0.000000
# 6 0.000000 0.000000 0.000000 0.000000 0.000000 0.116608
#
#
# Mechanical properties :
#
#
# Convention : Reuss Voigt Hill
#
# Bulk Modulus (GPa) = 62.27991 67.26257 64.77124
# Shear Modulus (GPa) = 5.01056 23.53121 14.27088
#
# Velocity S-wave (km/s) = 1.60287 3.47359 2.70509
# Velocity P-wave (km/s) = 5.94644 7.11177 6.55505
#
# Compressibility (1/GPa) = 0.01605654
#
# Stress axis : x y z
#
# Youngs Moduli (GPa) = 67.70709 100.63697 107.85273
#
# Poissons Ratio (x) = 0.31933 0.29098
# Poissons Ratio (y) = 0.21484 0.33324
# Poissons Ratio (z) = 0.18267 0.31094
#
# Static dielectric constant tensor:
#      x y z
#    x 3.484150 0.000000 0.000000 
#    y 0.000000 4.448860 0.000000 
#    z 0.000000 0.000000 3.496310 
# 
# 
# High freq. dielectric constant tensor:
#      x y z
#    x 1.745360 0.000000 0.000000 
#    y 0.000000 1.754420 0.000000 
#    z 0.000000 0.000000 1.764710 
# 
# From -- ./inp_files/63660.got.cif
#   From: 2010.03.12/outbox.cif.g09.slc.cpg/sg74_32_cif.got.tgz:63660.got - 2010.04.16 15:46:19.
