data_PCOD8299413
_publ_section_title
;
Structure prediction by ZEFSAII (Michael W. Deem and Ramdas Pophale) SiO2 
 PCOD8299413
Probable space group: I M M A
;
_chemical_formula_sum "Si O2"
_cell_formula_units_Z 104
_cell_length_a 27.377662
_cell_length_b 11.881753
_cell_length_c 16.867195
_cell_angle_alpha 90.000000
_cell_angle_beta 90.000000
_cell_angle_gamma 90.000000
_cell_volume 5486.807748
_symmetry_space_group_name_H-M "I M M A"
_symmetry_group_IT_number 74
_symmetry_cell_setting 'orthorhombic'
loop_
_space_group_symop_operation_xyz
x,y,z
-x,1/2-y,z
x,-y,-z
-x,1/2+y,-z
-x,-y,-z
x,1/2+y,-z
-x,y,z
x,1/2-y,z
1/2+x,1/2+y,1/2+z
1/2-x,-y,1/2+z
1/2+x,1/2-y,1/2-z
1/2-x,y,1/2-z
1/2-x,1/2-y,1/2-z
1/2+x,y,1/2-z
1/2-x,1/2+y,1/2+z
1/2+x,-y,1/2+z
loop_
_atom_site_type_symbol
_atom_site_label
_atom_site_fract_x
_atom_site_fract_y
_atom_site_fract_z
Si Si1 0.554074 0.493782 0.745013
Si Si2 0.137232 0.250000 0.614972
Si Si3 0.855694 0.377823 0.182732
Si Si4 0.813782 0.377318 0.355168
Si Si5 0.054325 0.750000 0.257492
Si Si6 0.400845 0.518256 0.084288
Si Si7 0.778675 0.487237 0.906931
Si Si8 0.250034 0.750000 0.344057
O O1 0.500000 0.544183 0.733728
O O2 0.590163 0.575835 0.699202
O O3 0.557328 0.366931 0.707915
O O4 0.563542 0.484166 0.840151
O O5 0.102985 0.250000 0.691395
O O6 0.125237 0.362731 0.568198
O O7 0.193988 0.250000 0.632757
O O8 0.859979 0.250000 0.151215
O O9 0.824588 0.382522 0.262359
O O10 0.829828 0.455837 0.117712
O O11 0.804684 0.250000 0.384111
O O12 0.858708 0.425742 0.404940
O O13 0.765306 0.448552 0.365154
O O14 0.000000 0.750000 0.300753
O O15 0.428958 0.500000 0.000000
O O16 0.778152 0.357750 0.879440
O O17 0.772512 0.500000 0.000000
O O18 0.250000 0.750000 0.250000
#
# Coordination Sequence:
#
# PCOD8299413 Si02
#       8
#    16   8  16  16   8  16  16   8
#     4   9  19  36  59  85 108 143 193 241 291 348
#     4  10  20  34  52  74 115 149 194 238 283 342
#     4  10  22  40  61  83 114 154 194 235 290 351
#     4  10  20  35  58  79 112 157 199 231 274 342
#     4   8  16  32  56  82 112 141 179 236 290 333
#     4  10  20  31  50  78 115 156 189 233 285 340
#     4  12  26  38  58  85 122 156 193 245 298 351
#     4  12  26  38  60  90 120 161 208 253 293 343
#
# _framework density 18.954554999999999
#
# number of rings (size 3 to 8) (size 9 to 14) (size 15 to 20)
#    0.000    1.846    1.538    2.308    7.538    1.846 
#    0.000    0.000    0.000    0.462    0.000    0.000 
#    0.000    0.000    0.000    0.000    0.000    0.000 
#
# Total GULP energy -644458.668241 kJ/mol
# GULP energy per Si atom -12393.435928 kJ/mol
# Density = 1.891141 g / cm^3
# Si number density = 18.954555 Si / 1000 Ang^3
#
#
#
# Elastic Constant Matrix: (Units=GPa)
#
#
# Indices 1 2 3 4 5 6 
#
# 1 110.2760 49.8727 15.6225 0.0000 0.0000 0.0000
# 2 49.8727 157.0565 29.4754 0.0000 0.0000 0.0000
# 3 15.6225 29.4754 37.0091 0.0000 0.0000 0.0000
# 4 0.0000 0.0000 0.0000 27.6615 0.0000 0.0000
# 5 0.0000 0.0000 0.0000 0.0000 9.5389 0.0000
# 6 0.0000 0.0000 0.0000 0.0000 0.0000 90.8826
#
#
#
# Elastic Compliance Matrix: (Units=1/GPa)
#
#
# Indices 1 2 3 4 5 6 
#
# 1 0.010730 -0.003007 -0.002135 0.000000 0.000000 0.000000
# 2 -0.003007 0.008329 -0.005364 0.000000 0.000000 0.000000
# 3 -0.002135 -0.005364 0.032194 0.000000 0.000000 0.000000
# 4 0.000000 0.000000 0.000000 0.036151 0.000000 0.000000
# 5 0.000000 0.000000 0.000000 0.000000 0.104834 0.000000
# 6 0.000000 0.000000 0.000000 0.000000 0.000000 0.011003
#
#
# Mechanical properties :
#
#
# Convention : Reuss Voigt Hill
#
# Bulk Modulus (GPa) = 33.06722 54.92031 43.99376
# Shear Modulus (GPa) = 21.33718 39.57465 30.45592
#
# Velocity S-wave (km/s) = 3.35879 4.57428 4.01282
# Velocity P-wave (km/s) = 5.70310 7.54562 6.68811
#
# Compressibility (1/GPa) = 0.03024143
#
# Stress axis : x y z
#
# Youngs Moduli (GPa) = 93.19311 120.06826 31.06200
#
# Poissons Ratio (x) = 0.36101 0.06631
# Poissons Ratio (y) = 0.28021 0.16662
# Poissons Ratio (z) = 0.19896 0.64404
#
# Static dielectric constant tensor:
#      x y z
#    x 3.388560 0.000000 0.000000 
#    y 0.000000 4.057560 0.000000 
#    z 0.000000 0.000000 3.122480 
# 
# 
# High freq. dielectric constant tensor:
#      x y z
#    x 1.730350 0.000000 0.000000 
#    y 0.000000 1.760240 0.000000 
#    z 0.000000 0.000000 1.696520 
# 
# From -- ./inp_files/41738.got.cif
#   From: 2010.03.12/outbox.cif.g09.slc.cpg/sg74_21_cif.got.tgz:41738.got - 2010.04.16 15:46:19.
