data_PCOD8299468
_publ_section_title
;
Structure prediction by ZEFSAII (Michael W. Deem and Ramdas Pophale) SiO2 
 PCOD8299468
Probable space group: I M M A
;
_chemical_formula_sum "Si O2"
_cell_formula_units_Z 104
_cell_length_a 29.066031
_cell_length_b 8.755116
_cell_length_c 21.730695
_cell_angle_alpha 90.000000
_cell_angle_beta 90.000000
_cell_angle_gamma 90.000000
_cell_volume 5529.950621
_symmetry_space_group_name_H-M "I M M A"
_symmetry_group_IT_number 74
_symmetry_cell_setting 'orthorhombic'
loop_
_space_group_symop_operation_xyz
x,y,z
-x,1/2-y,z
x,-y,-z
-x,1/2+y,-z
-x,-y,-z
x,1/2+y,-z
-x,y,z
x,1/2-y,z
1/2+x,1/2+y,1/2+z
1/2-x,-y,1/2+z
1/2+x,1/2-y,1/2-z
1/2-x,y,1/2-z
1/2-x,1/2-y,1/2-z
1/2+x,y,1/2-z
1/2-x,1/2+y,1/2+z
1/2+x,-y,1/2+z
loop_
_atom_site_type_symbol
_atom_site_label
_atom_site_fract_x
_atom_site_fract_y
_atom_site_fract_z
Si Si1 0.947302 0.925513 0.316619
Si Si2 0.385769 0.421237 0.277384
Si Si3 0.309143 0.568516 0.434161
Si Si4 0.909292 0.923092 0.105705
Si Si5 0.282787 0.924055 0.696112
Si Si6 0.946642 0.918372 0.558209
Si Si7 0.000000 0.073924 0.064482
O O1 0.934320 0.750000 0.303962
O O2 0.000000 0.958225 0.296060
O O3 0.912760 0.042633 0.284479
O O4 0.939774 0.961990 0.387451
O O5 0.399203 0.250000 0.300314
O O6 0.399609 0.557409 0.322751
O O7 0.331358 0.430927 0.269269
O O8 0.290733 0.500000 0.500000
O O9 0.302232 0.750000 0.434969
O O10 0.363500 0.524374 0.431016
O O11 0.283441 0.506392 0.371862
O O12 0.922182 0.750000 0.089434
O O13 0.953052 0.028753 0.096812
O O14 0.267788 0.750000 0.682250
O O15 0.250000 0.996354 0.750000
O O16 0.924615 0.750000 0.570829
O O17 0.000000 0.892957 0.544423
O O18 0.922506 0.000000 0.500000
O O19 0.000000 0.250000 0.055879
O O20 0.000000 0.000000 0.000000
#
# Coordination Sequence:
#
# PCOD8299468 Si02
#       7
#    16  16  16  16  16  16   8
#     4  10  20  32  47  69 100 138 175 213 257 307
#     4  10  20  34  53  77 104 135 174 217 263 316
#     4  10  20  34  56  84 112 143 180 225 272 325
#     4  10  21  36  52  72 102 140 181 224 268 314
#     4   9  19  37  60  84 110 141 176 220 275 331
#     4   9  16  27  44  66  92 123 163 209 254 304
#     4  12  24  36  50  70  98 138 183 224 265 308
#
# _framework density 18.806678000000002
#
# number of rings (size 3 to 8) (size 9 to 14) (size 15 to 20)
#    0.000    2.154    0.000    3.462    1.077    6.769 
#    0.000    0.000    0.000    0.923    0.000    4.308 
#    0.000    0.000    0.000    0.000    0.000    0.000 
#
# Total GULP energy -644179.914516 kJ/mol
# GULP energy per Si atom -12388.075279 kJ/mol
# Density = 1.876387 g / cm^3
# Si number density = 18.806678 Si / 1000 Ang^3
#
#
#
# Elastic Constant Matrix: (Units=GPa)
#
#
# Indices 1 2 3 4 5 6 
#
# 1 62.9114 35.7719 47.3578 0.0000 0.0000 0.0000
# 2 35.7719 95.3306 39.7002 0.0000 0.0000 0.0000
# 3 47.3578 39.7002 116.4006 0.0000 0.0000 0.0000
# 4 0.0000 0.0000 0.0000 32.5650 0.0000 0.0000
# 5 0.0000 0.0000 0.0000 0.0000 21.2514 0.0000
# 6 0.0000 0.0000 0.0000 0.0000 0.0000 19.8727
#
#
#
# Elastic Compliance Matrix: (Units=1/GPa)
#
#
# Indices 1 2 3 4 5 6 
#
# 1 0.025682 -0.006161 -0.008348 0.000000 0.000000 0.000000
# 2 -0.006161 0.013704 -0.002168 0.000000 0.000000 0.000000
# 3 -0.008348 -0.002168 0.012727 0.000000 0.000000 0.000000
# 4 0.000000 0.000000 0.000000 0.030708 0.000000 0.000000
# 5 0.000000 0.000000 0.000000 0.000000 0.047056 0.000000
# 6 0.000000 0.000000 0.000000 0.000000 0.000000 0.050320
#
#
# Mechanical properties :
#
#
# Convention : Reuss Voigt Hill
#
# Bulk Modulus (GPa) = 53.30138 57.81138 55.55638
# Shear Modulus (GPa) = 22.74772 24.85866 23.80319
#
# Velocity S-wave (km/s) = 3.48164 3.63960 3.56150
# Velocity P-wave (km/s) = 6.67575 6.96195 6.82035
#
# Compressibility (1/GPa) = 0.01876124
#
# Stress axis : x y z
#
# Youngs Moduli (GPa) = 38.93747 72.97025 78.57579
#
# Poissons Ratio (x) = 0.44954 0.65592
# Poissons Ratio (y) = 0.23988 0.17032
# Poissons Ratio (z) = 0.32504 0.15817
#
# Static dielectric constant tensor:
#      x y z
#    x 3.220120 0.000000 0.000000 
#    y 0.000000 3.651310 0.000000 
#    z 0.000000 0.000000 3.522970 
# 
# 
# High freq. dielectric constant tensor:
#      x y z
#    x 1.689600 0.000000 0.000000 
#    y 0.000000 1.742710 0.000000 
#    z 0.000000 0.000000 1.735590 
# 
# From -- ./inp_files/55201.got.cif
#   From: 2010.03.12/outbox.cif.g09.slc.cpg/sg74_28_cif.got.tgz:55201.got - 2010.04.16 15:46:19.
