data_PCOD8299409
_publ_section_title
;
Structure prediction by ZEFSAII (Michael W. Deem and Ramdas Pophale) SiO2 
 PCOD8299409
Probable space group: I M M A
;
_chemical_formula_sum "Si O2"
_cell_formula_units_Z 112
_cell_length_a 14.778281
_cell_length_b 31.624603
_cell_length_c 13.375732
_cell_angle_alpha 90.000000
_cell_angle_beta 90.000000
_cell_angle_gamma 90.000000
_cell_volume 6251.245587
_symmetry_space_group_name_H-M "I M M A"
_symmetry_group_IT_number 74
_symmetry_cell_setting 'orthorhombic'
loop_
_space_group_symop_operation_xyz
x,y,z
-x,1/2-y,z
x,-y,-z
-x,1/2+y,-z
-x,-y,-z
x,1/2+y,-z
-x,y,z
x,1/2-y,z
1/2+x,1/2+y,1/2+z
1/2-x,-y,1/2+z
1/2+x,1/2-y,1/2-z
1/2-x,y,1/2-z
1/2-x,1/2-y,1/2-z
1/2+x,y,1/2-z
1/2-x,1/2+y,1/2+z
1/2+x,-y,1/2+z
loop_
_atom_site_type_symbol
_atom_site_label
_atom_site_fract_x
_atom_site_fract_y
_atom_site_fract_z
Si Si1 0.738693 0.590637 0.363390
Si Si2 0.602107 0.481163 0.688618
Si Si3 0.098693 0.365062 0.340378
Si Si4 0.896587 0.923349 0.835285
Si Si5 0.344211 0.796840 0.693370
Si Si6 0.779307 0.859953 0.954102
Si Si7 0.896390 0.465796 0.583479
O O1 0.750000 0.606468 0.250000
O O2 0.666269 0.552679 0.364749
O O3 0.709203 0.632107 0.426957
O O4 0.830386 0.574767 0.418617
O O5 0.500000 0.467163 0.663694
O O6 0.623961 0.527442 0.647575
O O7 0.616924 0.485517 0.807101
O O8 0.118651 0.408473 0.279739
O O9 0.092512 0.327014 0.259058
O O10 0.173784 0.357400 0.423956
O O11 0.000000 0.367538 0.392721
O O12 0.824696 0.900413 0.904041
O O13 0.000000 0.912927 0.866595
O O14 0.386763 0.750000 0.680498
O O15 0.250000 0.794091 0.750000
O O16 0.329277 0.817229 0.582758
O O17 0.868214 0.500000 0.500000
O O18 0.000000 0.450901 0.565415
#
# Coordination Sequence:
#
# PCOD8299409 Si02
#       7
#    16  16  16  16  16  16  16
#     4  10  22  34  47  66  94 130 173 216 249 286
#     4   9  19  34  48  64  91 126 165 214 255 290
#     4   9  18  30  47  76 105 126 152 190 238 297
#     4   9  18  31  47  69  95 122 159 204 251 298
#     4   8  15  31  52  75 102 127 149 181 231 293
#     4  10  20  31  49  71  96 130 163 198 240 293
#     4   9  19  32  46  66  89 122 167 209 251 296
#
# _framework density 17.916429999999998
#
# number of rings (size 3 to 8) (size 9 to 14) (size 15 to 20)
#    0.000    2.857    0.000    1.286    4.000    3.714 
#    0.000    1.429    0.000    0.429    0.000    0.000 
#    0.000    0.000    0.000   15.143    0.000    0.000 
#
# Total GULP energy -693987.736405 kJ/mol
# GULP energy per Si atom -12392.638150 kJ/mol
# Density = 1.787565 g / cm^3
# Si number density = 17.916430 Si / 1000 Ang^3
#
#
#
# Elastic Constant Matrix: (Units=GPa)
#
#
# Indices 1 2 3 4 5 6 
#
# 1 57.8766 17.2750 19.5195 0.0003 -0.0001 -0.0001
# 2 17.2750 84.0647 39.0060 0.0001 -0.0002 -0.0001
# 3 19.5195 39.0060 68.6526 -0.0023 0.0001 0.0002
# 4 0.0003 0.0001 -0.0023 20.7441 0.0001 0.0003
# 5 -0.0001 -0.0002 0.0001 0.0001 8.5084 0.0001
# 6 -0.0001 -0.0001 0.0002 0.0003 0.0001 7.4071
#
#
#
# Elastic Compliance Matrix: (Units=1/GPa)
#
#
# Indices 1 2 3 4 5 6 
#
# 1 0.019339 -0.001932 -0.004401 -0.000001 0.000000 0.000000
# 2 -0.001932 0.016347 -0.008739 -0.000001 0.000000 0.000000
# 3 -0.004401 -0.008739 0.020782 0.000002 -0.000001 -0.000001
# 4 -0.000001 -0.000001 0.000002 0.048206 0.000000 -0.000002
# 5 0.000000 0.000000 -0.000001 0.000000 0.117530 -0.000001
# 6 0.000000 0.000000 -0.000001 -0.000002 -0.000001 0.135006
#
#
# Mechanical properties :
#
#
# Convention : Reuss Voigt Hill
#
# Bulk Modulus (GPa) = 37.98579 40.24388 39.11484
# Shear Modulus (GPa) = 12.62213 16.31816 14.47015
#
# Velocity S-wave (km/s) = 2.65712 3.02121 2.84500
# Velocity P-wave (km/s) = 5.53727 5.88906 5.71587
#
# Compressibility (1/GPa) = 0.02632563
#
# Stress axis : x y z
#
# Youngs Moduli (GPa) = 51.70887 61.17178 48.11784
#
# Poissons Ratio (x) = 0.11819 0.21175
# Poissons Ratio (y) = 0.09991 0.42049
# Poissons Ratio (z) = 0.22756 0.53456
#
# Static dielectric constant tensor:
#      x y z
#    x 3.464340 0.000000 0.000000 
#    y 0.000000 3.327160 0.000000 
#    z 0.000000 0.000000 3.156040 
# 
# 
# High freq. dielectric constant tensor:
#      x y z
#    x 1.704620 0.000000 0.000000 
#    y 0.000000 1.660030 0.000000 
#    z 0.000000 0.000000 1.667990 
# 
# From -- ./inp_files/33160.got.cif
#   From: 2010.03.12/outbox.cif.g09.slc.cpg/sg74_17_cif.got.tgz:33160.got - 2010.04.16 15:46:19.
