data_PCOD8299682
_publ_section_title
;
Structure prediction by ZEFSAII (Michael W. Deem and Ramdas Pophale) SiO2 
 PCOD8299682
Probable space group: I M M A
;
_chemical_formula_sum "Si O2"
_cell_formula_units_Z 112
_cell_length_a 20.423131
_cell_length_b 24.170176
_cell_length_c 12.610115
_cell_angle_alpha 90.000000
_cell_angle_beta 90.000000
_cell_angle_gamma 90.000000
_cell_volume 6224.739526
_symmetry_space_group_name_H-M "I M M A"
_symmetry_group_IT_number 74
_symmetry_cell_setting 'orthorhombic'
loop_
_space_group_symop_operation_xyz
x,y,z
-x,1/2-y,z
x,-y,-z
-x,1/2+y,-z
-x,-y,-z
x,1/2+y,-z
-x,y,z
x,1/2-y,z
1/2+x,1/2+y,1/2+z
1/2-x,-y,1/2+z
1/2+x,1/2-y,1/2-z
1/2-x,y,1/2-z
1/2-x,1/2-y,1/2-z
1/2+x,y,1/2-z
1/2-x,1/2+y,1/2+z
1/2+x,-y,1/2+z
loop_
_atom_site_type_symbol
_atom_site_label
_atom_site_fract_x
_atom_site_fract_y
_atom_site_fract_z
Si Si1 0.929628 0.813030 0.223788
Si Si2 0.574649 0.995887 0.174116
Si Si3 0.269999 0.079956 0.519433
Si Si4 0.924693 0.309933 0.528287
Si Si5 0.122249 0.576545 0.501615
Si Si6 0.792611 0.184910 0.855539
Si Si7 0.191429 0.514253 0.828876
O O1 0.936299 0.750000 0.188480
O O2 0.914773 0.815851 0.347252
O O3 0.866873 0.837158 0.162937
O O4 0.000000 0.842692 0.196585
O O5 0.500000 0.991779 0.215209
O O6 0.621331 0.009784 0.272452
O O7 0.595063 0.938274 0.116399
O O8 0.580026 0.044258 0.087789
O O9 0.197436 0.059302 0.489780
O O10 0.268400 0.145486 0.548386
O O11 0.313658 0.063411 0.417022
O O12 0.294371 0.045528 0.620438
O O13 0.897386 0.250000 0.491068
O O14 0.884397 0.358473 0.472711
O O15 0.000000 0.315300 0.496268
O O16 0.788645 0.250000 0.888089
O O17 0.750000 0.174978 0.750000
O O18 0.250000 0.530076 0.750000
#
# Coordination Sequence:
#
# PCOD8299682 Si02
#       7
#    16  16  16  16  16  16  16
#     4   8  15  28  44  65  99 143 178 205 252 311
#     4  11  22  36  57  82 107 137 181 233 276 317
#     4  11  22  34  58  82 105 145 187 216 262 338
#     4   9  17  28  44  73 112 143 169 210 269 327
#     4  11  19  33  55  82 109 137 182 226 270 332
#     4  10  20  33  51  82 116 142 176 224 269 317
#     4  11  20  40  56  77 106 143 182 221 271 322
#
# _framework density 17.992721
#
# number of rings (size 3 to 8) (size 9 to 14) (size 15 to 20)
#    0.000    1.857    2.857    4.714    2.000    1.714 
#    0.000    2.143    0.000    1.286    0.000    0.000 
#    0.000    0.000    0.000    0.000    0.000    0.000 
#
# Total GULP energy -693993.344523 kJ/mol
# GULP energy per Si atom -12392.738295 kJ/mol
# Density = 1.795177 g / cm^3
# Si number density = 17.992721 Si / 1000 Ang^3
#
#
#
# Elastic Constant Matrix: (Units=GPa)
#
#
# Indices 1 2 3 4 5 6 
#
# 1 100.3331 22.2386 25.6631 0.0000 0.0000 0.0000
# 2 22.2386 118.6071 33.6122 0.0000 0.0000 0.0000
# 3 25.6631 33.6122 62.4721 0.0000 0.0000 0.0000
# 4 0.0000 0.0000 0.0000 22.3189 0.0000 0.0000
# 5 0.0000 0.0000 0.0000 0.0000 25.0513 0.0000
# 6 0.0000 0.0000 0.0000 0.0000 0.0000 19.9955
#
#
#
# Elastic Compliance Matrix: (Units=1/GPa)
#
#
# Indices 1 2 3 4 5 6 
#
# 1 0.011225 -0.000941 -0.004105 0.000000 0.000000 0.000000
# 2 -0.000941 0.010027 -0.005008 0.000000 0.000000 0.000000
# 3 -0.004105 -0.005008 0.020388 0.000000 0.000000 0.000000
# 4 0.000000 0.000000 0.000000 0.044805 0.000000 0.000000
# 5 0.000000 0.000000 0.000000 0.000000 0.039918 0.000000
# 6 0.000000 0.000000 0.000000 0.000000 0.000000 0.050011
#
#
# Mechanical properties :
#
#
# Convention : Reuss Voigt Hill
#
# Bulk Modulus (GPa) = 46.44349 49.38224 47.91287
# Shear Modulus (GPa) = 24.55066 26.79971 25.67519
#
# Velocity S-wave (km/s) = 3.69789 3.86356 3.78163
# Velocity P-wave (km/s) = 6.64085 6.88535 6.76421
#
# Compressibility (1/GPa) = 0.02153154
#
# Stress axis : x y z
#
# Youngs Moduli (GPa) = 89.08376 99.73095 49.04871
#
# Poissons Ratio (x) = 0.09390 0.20133
# Poissons Ratio (y) = 0.08387 0.24564
# Poissons Ratio (z) = 0.36567 0.49946
#
# Static dielectric constant tensor:
#      x y z
#    x 3.634770 0.000000 0.000000 
#    y 0.000000 3.367520 0.000000 
#    z 0.000000 0.000000 2.951380 
# 
# 
# High freq. dielectric constant tensor:
#      x y z
#    x 1.705790 0.000000 0.000000 
#    y 0.000000 1.696360 0.000000 
#    z 0.000000 0.000000 1.644730 
# 
# From -- ./inp_files/24178.got.cif
#   From: 2010.03.12/outbox.cif.g09.slc.cpg/sg74_13_cif.got.tgz:24178.got - 2010.04.16 15:46:19.
