data_PCOD8299485
_publ_section_title
;
Structure prediction by ZEFSAII (Michael W. Deem and Ramdas Pophale) SiO2 
 PCOD8299485
Probable space group: I M M A
;
_chemical_formula_sum "Si O2"
_cell_formula_units_Z 104
_cell_length_a 9.324199
_cell_length_b 25.283569
_cell_length_c 23.528486
_cell_angle_alpha 90.000000
_cell_angle_beta 90.000000
_cell_angle_gamma 90.000000
_cell_volume 5546.817723
_symmetry_space_group_name_H-M "I M M A"
_symmetry_group_IT_number 74
_symmetry_cell_setting 'orthorhombic'
loop_
_space_group_symop_operation_xyz
x,y,z
-x,1/2-y,z
x,-y,-z
-x,1/2+y,-z
-x,-y,-z
x,1/2+y,-z
-x,y,z
x,1/2-y,z
1/2+x,1/2+y,1/2+z
1/2-x,-y,1/2+z
1/2+x,1/2-y,1/2-z
1/2-x,y,1/2-z
1/2-x,1/2-y,1/2-z
1/2+x,y,1/2-z
1/2-x,1/2+y,1/2+z
1/2+x,-y,1/2+z
loop_
_atom_site_type_symbol
_atom_site_label
_atom_site_fract_x
_atom_site_fract_y
_atom_site_fract_z
Si Si1 0.335811 0.188330 0.509068
Si Si2 0.830258 0.929843 0.192023
Si Si3 0.154758 0.189736 0.298592
Si Si4 0.164375 0.448614 0.194263
Si Si5 0.330506 0.650376 0.116540
Si Si6 0.663410 0.355674 0.388004
Si Si7 0.335670 0.250000 0.807152
O O1 0.500000 0.182937 0.530577
O O2 0.302859 0.250000 0.494777
O O3 0.224947 0.166027 0.554581
O O4 0.310856 0.149906 0.455037
O O5 0.750000 0.912643 0.250000
O O6 0.758565 0.899450 0.139415
O O7 0.000000 0.916971 0.197287
O O8 0.800773 0.991025 0.178307
O O9 0.131068 0.250000 0.281518
O O10 0.250000 0.161041 0.250000
O O11 0.234403 0.187119 0.358662
O O12 0.000000 0.161173 0.301545
O O13 0.250000 0.430463 0.250000
O O14 0.203490 0.413265 0.138556
O O15 0.000000 0.442073 0.210796
O O16 0.500000 0.637824 0.113806
O O17 0.294110 0.698860 0.157267
O O18 0.500000 0.341056 0.373241
O O19 0.500000 0.250000 0.790020
O O20 0.250000 0.250000 0.750000
#
# Coordination Sequence:
#
# PCOD8299485 Si02
#       7
#    16  16  16  16  16  16   8
#     4  10  21  37  57  80 108 147 190 231 277 329
#     4  10  20  36  58  85 114 146 181 221 274 333
#     4  10  20  32  47  71 103 138 176 224 283 338
#     4   9  19  35  56  82 113 145 181 229 281 331
#     4  11  22  38  57  81 112 147 184 225 274 327
#     4  10  20  35  55  79 106 141 187 233 277 328
#     4  10  22  36  54  82 112 140 171 214 267 324
#
# _framework density 18.749489000000001
#
# number of rings (size 3 to 8) (size 9 to 14) (size 15 to 20)
#    0.000    2.000    0.769    2.769    0.000    7.077 
#    0.000    0.769    0.000    4.615    0.000    0.000 
#    0.000    0.000    0.000    0.000    0.000    0.000 
#
# Total GULP energy -644670.274968 kJ/mol
# GULP energy per Si atom -12397.505288 kJ/mol
# Density = 1.870681 g / cm^3
# Si number density = 18.749489 Si / 1000 Ang^3
#
#
#
# Elastic Constant Matrix: (Units=GPa)
#
#
# Indices 1 2 3 4 5 6 
#
# 1 120.1257 48.8500 72.6844 0.0000 0.0000 0.0000
# 2 48.8500 95.8454 53.5648 0.0000 0.0000 0.0000
# 3 72.6844 53.5648 126.8865 0.0000 0.0000 0.0000
# 4 0.0000 0.0000 0.0000 38.8331 0.0000 0.0000
# 5 0.0000 0.0000 0.0000 0.0000 36.9716 0.0000
# 6 0.0000 0.0000 0.0000 0.0000 0.0000 22.5568
#
#
#
# Elastic Compliance Matrix: (Units=1/GPa)
#
#
# Indices 1 2 3 4 5 6 
#
# 1 0.013517 -0.003353 -0.006327 0.000000 0.000000 0.000000
# 2 -0.003353 0.014487 -0.004195 0.000000 0.000000 0.000000
# 3 -0.006327 -0.004195 0.013276 0.000000 0.000000 0.000000
# 4 0.000000 0.000000 0.000000 0.025751 0.000000 0.000000
# 5 0.000000 0.000000 0.000000 0.000000 0.027048 0.000000
# 6 0.000000 0.000000 0.000000 0.000000 0.000000 0.044333
#
#
# Mechanical properties :
#
#
# Convention : Reuss Voigt Hill
#
# Bulk Modulus (GPa) = 73.91250 77.00621 75.45935
# Shear Modulus (GPa) = 29.29610 30.85619 30.07615
#
# Velocity S-wave (km/s) = 3.95714 4.06113 4.00947
# Velocity P-wave (km/s) = 7.77079 7.94674 7.85926
#
# Compressibility (1/GPa) = 0.01352951
#
# Stress axis : x y z
#
# Youngs Moduli (GPa) = 73.98351 69.02854 75.32194
#
# Poissons Ratio (x) = 0.23145 0.47658
# Poissons Ratio (y) = 0.24806 0.31597
# Poissons Ratio (z) = 0.46811 0.28957
#
# Static dielectric constant tensor:
#      x y z
#    x 3.627380 0.000000 0.000000 
#    y 0.000000 3.580970 0.000000 
#    z 0.000000 0.000000 3.299120 
# 
# 
# High freq. dielectric constant tensor:
#      x y z
#    x 1.739540 0.000000 0.000000 
#    y 0.000000 1.726490 0.000000 
#    z 0.000000 0.000000 1.715620 
# 
# From -- ./inp_files/49327.got.cif
#   From: 2010.03.12/outbox.cif.g09.slc.cpg/sg74_25_cif.got.tgz:49327.got - 2010.04.16 15:46:19.
