data_PCOD8299527
_publ_section_title
;
Structure prediction by ZEFSAII (Michael W. Deem and Ramdas Pophale) SiO2 
 PCOD8299527
Probable space group: I M M A
;
_chemical_formula_sum "Si O2"
_cell_formula_units_Z 96
_cell_length_a 14.648815
_cell_length_b 14.365103
_cell_length_c 23.649888
_cell_angle_alpha 90.000000
_cell_angle_beta 90.000000
_cell_angle_gamma 90.000000
_cell_volume 4976.686995
_symmetry_space_group_name_H-M "I M M A"
_symmetry_group_IT_number 74
_symmetry_cell_setting 'orthorhombic'
loop_
_space_group_symop_operation_xyz
x,y,z
-x,1/2-y,z
x,-y,-z
-x,1/2+y,-z
-x,-y,-z
x,1/2+y,-z
-x,y,z
x,1/2-y,z
1/2+x,1/2+y,1/2+z
1/2-x,-y,1/2+z
1/2+x,1/2-y,1/2-z
1/2-x,y,1/2-z
1/2-x,1/2-y,1/2-z
1/2+x,y,1/2-z
1/2-x,1/2+y,1/2+z
1/2+x,-y,1/2+z
loop_
_atom_site_type_symbol
_atom_site_label
_atom_site_fract_x
_atom_site_fract_y
_atom_site_fract_z
Si Si1 0.904055 0.854842 0.533659
Si Si2 0.895742 0.854697 0.777350
Si Si3 0.207690 0.859847 0.971523
Si Si4 0.393704 0.357298 0.584684
Si Si5 0.399892 0.926067 0.845599
Si Si6 0.705952 0.019784 0.362896
O O1 0.911330 0.750000 0.512802
O O2 0.809408 0.895648 0.508434
O O3 0.897360 0.855727 0.601713
O O4 0.000000 0.905521 0.514172
O O5 0.864750 0.750000 0.793238
O O6 0.884721 0.865694 0.710267
O O7 0.832438 0.930123 0.807464
O O8 0.000000 0.871298 0.796282
O O9 0.209270 0.750000 0.956844
O O10 0.177838 0.916264 0.916282
O O11 0.137918 0.883101 0.021360
O O12 0.500000 0.379396 0.589296
O O13 0.371905 0.250000 0.598286
O O14 0.339699 0.418752 0.630353
O O15 0.500000 0.977405 0.843189
O O16 0.314894 0.996917 0.854599
#
# Coordination Sequence:
#
# PCOD8299527 Si02
#       6
#    16  16  16  16  16  16
#     4   8  13  24  44  69  99 134 166 193 227 282
#     4  10  20  32  49  78 113 142 167 199 243 297
#     4   9  18  31  48  74 104 132 164 203 250 301
#     4  10  22  39  55  70  93 128 169 213 258 299
#     4   9  18  31  47  71 105 139 165 194 241 299
#     4  11  20  32  53  76 100 133 173 211 246 294
#
# _framework density 19.289940999999999
#
# number of rings (size 3 to 8) (size 9 to 14) (size 15 to 20)
#    0.000    2.500    0.000    2.500    0.000    6.667 
#    0.000    2.500    0.000    7.500    0.000    2.333 
#    0.000    0.000    0.000    0.000    0.000    0.000 
#
# Total GULP energy -594697.091454 kJ/mol
# GULP energy per Si atom -12389.522739 kJ/mol
# Density = 1.924604 g / cm^3
# Si number density = 19.289941 Si / 1000 Ang^3
#
#
#
# Elastic Constant Matrix: (Units=GPa)
#
#
# Indices 1 2 3 4 5 6 
#
# 1 136.4131 53.0305 31.3179 0.0000 0.0000 0.0000
# 2 53.0305 69.7289 30.5148 0.0000 0.0000 0.0000
# 3 31.3179 30.5148 38.9132 0.0000 0.0000 0.0000
# 4 0.0000 0.0000 0.0000 22.1360 0.0000 0.0000
# 5 0.0000 0.0000 0.0000 0.0000 24.4492 0.0000
# 6 0.0000 0.0000 0.0000 0.0000 0.0000 19.0063
#
#
#
# Elastic Compliance Matrix: (Units=1/GPa)
#
#
# Indices 1 2 3 4 5 6 
#
# 1 0.010694 -0.006648 -0.003394 0.000000 0.000000 0.000000
# 2 -0.006648 0.025967 -0.015012 0.000000 0.000000 0.000000
# 3 -0.003394 -0.015012 0.040202 0.000000 0.000000 0.000000
# 4 0.000000 0.000000 0.000000 0.045175 0.000000 0.000000
# 5 0.000000 0.000000 0.000000 0.000000 0.040901 0.000000
# 6 0.000000 0.000000 0.000000 0.000000 0.000000 0.052614
#
#
# Mechanical properties :
#
#
# Convention : Reuss Voigt Hill
#
# Bulk Modulus (GPa) = 37.37610 52.75351 45.06481
# Shear Modulus (GPa) = 18.20968 21.79778 20.00373
#
# Velocity S-wave (km/s) = 3.07579 3.36521 3.22375
# Velocity P-wave (km/s) = 5.65968 6.51970 6.10486
#
# Compressibility (1/GPa) = 0.02675506
#
# Stress axis : x y z
#
# Youngs Moduli (GPa) = 93.50846 38.51047 24.87462
#
# Poissons Ratio (x) = 0.25602 0.08441
# Poissons Ratio (y) = 0.62166 0.37342
# Poissons Ratio (z) = 0.31733 0.57813
#
# Static dielectric constant tensor:
#      x y z
#    x 4.090520 0.000000 0.000000 
#    y 0.000000 3.224610 0.000000 
#    z 0.000000 0.000000 3.233660 
# 
# 
# High freq. dielectric constant tensor:
#      x y z
#    x 1.778410 0.000000 0.000000 
#    y 0.000000 1.712170 0.000000 
#    z 0.000000 0.000000 1.724400 
# 
# From -- ./inp_files/51851.got.cif
#   From: 2010.03.12/outbox.cif.g09.slc.cpg/sg74_26_cif.got.tgz:51851.got - 2010.04.16 15:46:19.
