data_PCOD8299374
_publ_section_title
;
Structure prediction by ZEFSAII (Michael W. Deem and Ramdas Pophale) SiO2 
 PCOD8299374
Probable space group: I M M A
;
_chemical_formula_sum "Si O2"
_cell_formula_units_Z 88
_cell_length_a 19.278255
_cell_length_b 9.024775
_cell_length_c 27.184452
_cell_angle_alpha 90.000000
_cell_angle_beta 90.000000
_cell_angle_gamma 90.000000
_cell_volume 4729.602984
_symmetry_space_group_name_H-M "I M M A"
_symmetry_group_IT_number 74
_symmetry_cell_setting 'orthorhombic'
loop_
_space_group_symop_operation_xyz
x,y,z
-x,1/2-y,z
x,-y,-z
-x,1/2+y,-z
-x,-y,-z
x,1/2+y,-z
-x,y,z
x,1/2-y,z
1/2+x,1/2+y,1/2+z
1/2-x,-y,1/2+z
1/2+x,1/2-y,1/2-z
1/2-x,y,1/2-z
1/2-x,1/2-y,1/2-z
1/2+x,y,1/2-z
1/2-x,1/2+y,1/2+z
1/2+x,-y,1/2+z
loop_
_atom_site_type_symbol
_atom_site_label
_atom_site_fract_x
_atom_site_fract_y
_atom_site_fract_z
Si Si1 0.646272 0.418023 0.584038
Si Si2 0.689996 0.081985 0.694353
Si Si3 0.321180 0.574518 0.842688
Si Si4 0.500000 0.076470 0.550975
Si Si5 0.275411 0.424200 0.048912
Si Si6 0.920413 0.925044 0.274955
O O1 0.657163 0.250000 0.564744
O O2 0.658471 0.429500 0.641120
O O3 0.568122 0.475599 0.579500
O O4 0.695602 0.524811 0.552533
O O5 0.710496 0.250000 0.708111
O O6 0.630201 0.021939 0.730827
O O7 0.761032 0.987303 0.694066
O O8 0.320862 0.750000 0.838312
O O9 0.312376 0.525647 0.899990
O O10 0.394173 0.506986 0.824503
O O11 0.500000 0.250000 0.543400
O O12 0.500000 0.000000 0.500000
O O13 0.280094 0.250000 0.041713
O O14 0.309172 0.500000 0.000000
O O15 0.915959 0.750000 0.283007
O O16 0.000000 0.972541 0.264005
#
# Coordination Sequence:
#
# PCOD8299374 Si02
#       6
#    16  16  16   8  16  16
#     4   9  18  31  48  70  98 133 171 212 256 302
#     4   9  18  33  54  77 103 137 177 217 256 301
#     4  10  21  36  54  78 108 139 172 213 260 312
#     4  10  20  30  42  62  92 132 172 210 255 300
#     4  10  20  34  53  76 100 128 167 213 259 307
#     4  10  21  35  54  80 108 139 176 217 258 305
#
# _framework density 18.606211999999999
#
# number of rings (size 3 to 8) (size 9 to 14) (size 15 to 20)
#    0.000    2.364    0.000    2.182    1.273    7.636 
#    0.000    0.000    0.000    0.545    0.000    0.000 
#    0.000    0.000    0.000    0.000    0.000    0.000 
#
# Total GULP energy -545404.511552 kJ/mol
# GULP energy per Si atom -12395.557081 kJ/mol
# Density = 1.856386 g / cm^3
# Si number density = 18.606212 Si / 1000 Ang^3
#
#
#
# Elastic Constant Matrix: (Units=GPa)
#
#
# Indices 1 2 3 4 5 6 
#
# 1 91.3939 29.9993 50.4161 0.0000 0.0000 0.0000
# 2 29.9993 48.5313 33.5395 0.0000 0.0000 0.0000
# 3 50.4161 33.5395 93.6342 0.0000 0.0000 0.0000
# 4 0.0000 0.0000 0.0000 27.8788 0.0000 0.0000
# 5 0.0000 0.0000 0.0000 0.0000 13.7551 0.0000
# 6 0.0000 0.0000 0.0000 0.0000 0.0000 22.3034
#
#
#
# Elastic Compliance Matrix: (Units=1/GPa)
#
#
# Indices 1 2 3 4 5 6 
#
# 1 0.016572 -0.005419 -0.006982 0.000000 0.000000 0.000000
# 2 -0.005419 0.029156 -0.007526 0.000000 0.000000 0.000000
# 3 -0.006982 -0.007526 0.017135 0.000000 0.000000 0.000000
# 4 0.000000 0.000000 0.000000 0.035870 0.000000 0.000000
# 5 0.000000 0.000000 0.000000 0.000000 0.072701 0.000000
# 6 0.000000 0.000000 0.000000 0.000000 0.000000 0.044836
#
#
# Mechanical properties :
#
#
# Convention : Reuss Voigt Hill
#
# Bulk Modulus (GPa) = 43.46011 51.27435 47.36723
# Shear Modulus (GPa) = 18.95437 20.76110 19.85773
#
# Velocity S-wave (km/s) = 3.19519 3.34401 3.27044
# Velocity P-wave (km/s) = 6.08448 6.52130 6.30667
#
# Compressibility (1/GPa) = 0.02300960
#
# Stress axis : x y z
#
# Youngs Moduli (GPa) = 60.34380 34.29848 58.36026
#
# Poissons Ratio (x) = 0.18585 0.40747
# Poissons Ratio (y) = 0.32698 0.43922
# Poissons Ratio (z) = 0.42131 0.25813
#
# Static dielectric constant tensor:
#      x y z
#    x 3.480450 0.000000 0.000000 
#    y 0.000000 3.339340 0.000000 
#    z 0.000000 0.000000 3.598770 
# 
# 
# High freq. dielectric constant tensor:
#      x y z
#    x 1.704350 0.000000 0.000000 
#    y 0.000000 1.712620 0.000000 
#    z 0.000000 0.000000 1.733240 
# 
# From -- ./inp_files/72982.got.cif
#   From: 2010.03.12/outbox.cif.g09.slc.cpg/sg74_37_cif.got.tgz:72982.got - 2010.04.16 15:46:19.
