data_PCOD8299992
_publ_section_title
;
Structure prediction by ZEFSAII (Michael W. Deem and Ramdas Pophale) SiO2 
 PCOD8299992
Probable space group: I M M A
;
_chemical_formula_sum "Si O2"
_cell_formula_units_Z 88
_cell_length_a 19.942532
_cell_length_b 9.012256
_cell_length_c 24.677626
_cell_angle_alpha 90.000000
_cell_angle_beta 90.000000
_cell_angle_gamma 90.000000
_cell_volume 4435.240714
_symmetry_space_group_name_H-M "I M M A"
_symmetry_group_IT_number 74
_symmetry_cell_setting 'orthorhombic'
loop_
_space_group_symop_operation_xyz
x,y,z
-x,1/2-y,z
x,-y,-z
-x,1/2+y,-z
-x,-y,-z
x,1/2+y,-z
-x,y,z
x,1/2-y,z
1/2+x,1/2+y,1/2+z
1/2-x,-y,1/2+z
1/2+x,1/2-y,1/2-z
1/2-x,y,1/2-z
1/2-x,1/2-y,1/2-z
1/2+x,y,1/2-z
1/2-x,1/2+y,1/2+z
1/2+x,-y,1/2+z
loop_
_atom_site_type_symbol
_atom_site_label
_atom_site_fract_x
_atom_site_fract_y
_atom_site_fract_z
Si Si1 0.073352 0.925793 0.168081
Si Si2 0.731965 0.416445 0.950293
Si Si3 0.615969 0.920453 0.129733
Si Si4 0.117434 0.074690 0.946511
Si Si5 0.826022 0.572892 0.257042
Si Si6 0.500000 0.071536 0.060760
O O1 0.081925 0.750000 0.167354
O O2 0.079828 0.985374 0.106772
O O3 0.131215 0.990721 0.206657
O O4 0.000000 0.971468 0.190404
O O5 0.738460 0.250000 0.970380
O O6 0.688791 0.430991 0.896795
O O7 0.805905 0.479501 0.938906
O O8 0.696115 0.500000 0.000000
O O9 0.589401 0.750000 0.130205
O O10 0.632251 0.981245 0.189936
O O11 0.564187 0.020932 0.096031
O O12 0.109992 0.250000 0.952237
O O13 0.085667 0.000000 0.000000
O O14 0.822884 0.750000 0.259091
O O15 0.750000 0.510420 0.250000
O O16 0.500000 0.250000 0.054522
O O17 0.500000 0.000000 0.000000
#
# Coordination Sequence:
#
# PCOD8299992 Si02
#       6
#    16  16  16  16  16   8
#     4   9  17  28  45  71 102 135 172 215 260 309
#     4   9  17  29  47  72 100 131 167 214 263 311
#     4  10  20  34  56  82 110 143 184 229 279 335
#     4   9  17  30  48  72 103 135 172 214 262 312
#     4   9  17  30  52  82 113 143 180 227 276 328
#     4  12  26  42  58  80 114 152 193 238 293 352
#
# _framework density 19.841087000000002
#
# number of rings (size 3 to 8) (size 9 to 14) (size 15 to 20)
#    0.000    2.545    0.000    2.455    1.273    6.909 
#    0.000    0.000    0.000    1.636    0.000    0.000 
#    0.000    0.000    0.000    0.000    0.000    0.000 
#
# Total GULP energy -545243.252678 kJ/mol
# GULP energy per Si atom -12391.892106 kJ/mol
# Density = 1.979593 g / cm^3
# Si number density = 19.841087 Si / 1000 Ang^3
#
#
#
# Elastic Constant Matrix: (Units=GPa)
#
#
# Indices 1 2 3 4 5 6 
#
# 1 115.1373 24.0989 69.1984 0.0000 0.0000 0.0000
# 2 24.0989 41.6587 31.8882 0.0000 0.0000 0.0000
# 3 69.1984 31.8882 163.3252 0.0000 0.0000 0.0000
# 4 0.0000 0.0000 0.0000 23.0104 0.0000 0.0000
# 5 0.0000 0.0000 0.0000 0.0000 34.3142 0.0000
# 6 0.0000 0.0000 0.0000 0.0000 0.0000 12.8668
#
#
#
# Elastic Compliance Matrix: (Units=1/GPa)
#
#
# Indices 1 2 3 4 5 6 
#
# 1 0.012098 -0.003615 -0.004420 0.000000 0.000000 0.000000
# 2 -0.003615 0.029303 -0.004189 0.000000 0.000000 0.000000
# 3 -0.004420 -0.004189 0.008813 0.000000 0.000000 0.000000
# 4 0.000000 0.000000 0.000000 0.043459 0.000000 0.000000
# 5 0.000000 0.000000 0.000000 0.000000 0.029142 0.000000
# 6 0.000000 0.000000 0.000000 0.000000 0.000000 0.077719
#
#
# Mechanical properties :
#
#
# Convention : Reuss Voigt Hill
#
# Bulk Modulus (GPa) = 38.81228 63.38801 51.10015
# Shear Modulus (GPa) = 21.40657 27.03400 24.22028
#
# Velocity S-wave (km/s) = 3.28823 3.69525 3.49766
# Velocity P-wave (km/s) = 5.83272 7.08687 6.49016
#
# Compressibility (1/GPa) = 0.02576504
#
# Stress axis : x y z
#
# Youngs Moduli (GPa) = 82.65491 34.12639 113.46330
#
# Poissons Ratio (x) = 0.12338 0.50152
# Poissons Ratio (y) = 0.29883 0.47534
# Poissons Ratio (z) = 0.36534 0.14297
#
# Static dielectric constant tensor:
#      x y z
#    x 3.709370 0.000000 0.000000 
#    y 0.000000 3.227620 0.000000 
#    z 0.000000 0.000000 3.891130 
# 
# 
# High freq. dielectric constant tensor:
#      x y z
#    x 1.781850 0.000000 0.000000 
#    y 0.000000 1.711720 0.000000 
#    z 0.000000 0.000000 1.788260 
# 
# From -- ./inp_files/61437.got.cif
#   From: 2010.03.12/outbox.cif.g09.slc.cpg/sg74_31_cif.got.tgz:61437.got - 2010.04.16 15:46:19.
