data_PCOD8299201
_publ_section_title
;
Structure prediction by ZEFSAII (Michael W. Deem and Ramdas Pophale) SiO2 
 PCOD8299201
Probable space group: I M M A
;
_chemical_formula_sum "Si O2"
_cell_formula_units_Z 80
_cell_length_a 19.927662
_cell_length_b 16.206800
_cell_length_c 12.471631
_cell_angle_alpha 90.000000
_cell_angle_beta 90.000000
_cell_angle_gamma 90.000000
_cell_volume 4027.883251
_symmetry_space_group_name_H-M "I M M A"
_symmetry_group_IT_number 74
_symmetry_cell_setting 'orthorhombic'
loop_
_space_group_symop_operation_xyz
x,y,z
-x,1/2-y,z
x,-y,-z
-x,1/2+y,-z
-x,-y,-z
x,1/2+y,-z
-x,y,z
x,1/2-y,z
1/2+x,1/2+y,1/2+z
1/2-x,-y,1/2+z
1/2+x,1/2-y,1/2-z
1/2-x,y,1/2-z
1/2-x,1/2-y,1/2-z
1/2+x,y,1/2-z
1/2-x,1/2+y,1/2+z
1/2+x,-y,1/2+z
loop_
_atom_site_type_symbol
_atom_site_label
_atom_site_fract_x
_atom_site_fract_y
_atom_site_fract_z
Si Si1 0.639854 0.405452 0.962105
Si Si2 0.500000 0.592691 0.953800
Si Si3 0.000000 0.152506 0.214539
Si Si4 0.782572 0.342713 0.980911
Si Si5 0.321770 0.928788 0.271300
Si Si6 0.608011 0.055568 0.405719
O O1 0.704060 0.356727 0.007796
O O2 0.643505 0.392609 0.834457
O O3 0.645157 0.500000 0.000000
O O4 0.569275 0.365658 0.003146
O O5 0.500000 0.600467 0.824839
O O6 0.500000 0.500000 0.000000
O O7 0.937374 0.128441 0.140219
O O8 0.000000 0.250000 0.238519
O O9 0.801601 0.250000 0.011902
O O10 0.804655 0.357056 0.857285
O O11 0.822853 0.406474 0.053125
O O12 0.250000 0.973051 0.250000
O O13 0.375501 0.995029 0.309012
O O14 0.573700 0.000000 0.500000
#
# Coordination Sequence:
#
# PCOD8299201 Si02
#       6
#    16   8   8  16  16  16
#     4  10  19  35  57  79 107 143 186 230 270 326
#     4  10  22  39  58  79 110 153 194 228 274 340
#     4  12  25  39  56  83 118 147 181 238 294 328
#     4  10  20  34  55  83 112 142 178 227 282 329
#     4   9  18  33  57  84 107 138 184 229 269 323
#     4  10  20  37  59  81 107 145 189 225 272 340
#
# _framework density 19.861550000000001
#
# number of rings (size 3 to 8) (size 9 to 14) (size 15 to 20)
#    0.000    2.000    0.000    6.300    0.000    4.400 
#    0.000    1.000    0.000    4.800    0.000    0.000 
#    0.000    0.000    0.000    0.000    0.000    0.000 
#
# Total GULP energy -495690.021200 kJ/mol
# GULP energy per Si atom -12392.250530 kJ/mol
# Density = 1.981634 g / cm^3
# Si number density = 19.861550 Si / 1000 Ang^3
#
#
#
# Elastic Constant Matrix: (Units=GPa)
#
#
# Indices 1 2 3 4 5 6 
#
# 1 126.9579 20.3240 52.4375 0.0000 0.0000 0.0000
# 2 20.3240 77.9515 15.5245 0.0000 0.0000 0.0000
# 3 52.4375 15.5245 96.5436 0.0000 0.0000 0.0000
# 4 0.0000 0.0000 0.0000 16.8684 0.0000 0.0000
# 5 0.0000 0.0000 0.0000 0.0000 22.5439 0.0000
# 6 0.0000 0.0000 0.0000 0.0000 0.0000 9.1756
#
#
#
# Elastic Compliance Matrix: (Units=1/GPa)
#
#
# Indices 1 2 3 4 5 6 
#
# 1 0.010352 -0.001631 -0.005360 0.000000 0.000000 0.000000
# 2 -0.001631 0.013510 -0.001286 0.000000 0.000000 0.000000
# 3 -0.005360 -0.001286 0.013476 0.000000 0.000000 0.000000
# 4 0.000000 0.000000 0.000000 0.059282 0.000000 0.000000
# 5 0.000000 0.000000 0.000000 0.000000 0.044358 0.000000
# 6 0.000000 0.000000 0.000000 0.000000 0.000000 0.108984
#
#
# Mechanical properties :
#
#
# Convention : Reuss Voigt Hill
#
# Bulk Modulus (GPa) = 48.11845 53.11391 50.61618
# Shear Modulus (GPa) = 18.28516 23.92873 21.10694
#
# Velocity S-wave (km/s) = 3.03748 3.47475 3.26345
# Velocity P-wave (km/s) = 6.04824 6.54971 6.30396
#
# Compressibility (1/GPa) = 0.02078205
#
# Stress axis : x y z
#
# Youngs Moduli (GPa) = 96.60232 74.01908 74.20474
#
# Poissons Ratio (x) = 0.12076 0.39775
# Poissons Ratio (y) = 0.15760 0.09545
# Poissons Ratio (z) = 0.51781 0.09521
#
# Static dielectric constant tensor:
#      x y z
#    x 3.859910 0.000000 0.000000 
#    y 0.000000 3.263560 0.000000 
#    z 0.000000 0.000000 3.734030 
# 
# 
# High freq. dielectric constant tensor:
#      x y z
#    x 1.783120 0.000000 0.000000 
#    y 0.000000 1.744440 0.000000 
#    z 0.000000 0.000000 1.779630 
# 
# From -- ./inp_files/22119.got.cif
#   From: 2010.03.12/outbox.cif.g09.slc.cpg/sg74_12_cif.got.tgz:22119.got - 2010.04.16 15:46:19.
