data_PCOD8299429
_publ_section_title
;
Structure prediction by ZEFSAII (Michael W. Deem and Ramdas Pophale) SiO2 
 PCOD8299429
Probable space group: I M M A
;
_chemical_formula_sum "Si O2"
_cell_formula_units_Z 104
_cell_length_a 20.046112
_cell_length_b 8.829237
_cell_length_c 31.956978
_cell_angle_alpha 90.000000
_cell_angle_beta 90.000000
_cell_angle_gamma 90.000000
_cell_volume 5656.125416
_symmetry_space_group_name_H-M "I M M A"
_symmetry_group_IT_number 74
_symmetry_cell_setting 'orthorhombic'
loop_
_space_group_symop_operation_xyz
x,y,z
-x,1/2-y,z
x,-y,-z
-x,1/2+y,-z
-x,-y,-z
x,1/2+y,-z
-x,y,z
x,1/2-y,z
1/2+x,1/2+y,1/2+z
1/2-x,-y,1/2+z
1/2+x,1/2-y,1/2-z
1/2-x,y,1/2-z
1/2-x,1/2-y,1/2-z
1/2+x,y,1/2-z
1/2-x,1/2+y,1/2+z
1/2+x,-y,1/2+z
loop_
_atom_site_type_symbol
_atom_site_label
_atom_site_fract_x
_atom_site_fract_y
_atom_site_fract_z
Si Si1 0.923813 0.571609 0.728421
Si Si2 0.734445 0.573002 0.542290
Si Si3 0.682221 0.422340 0.832648
Si Si4 0.690502 0.070523 0.366520
Si Si5 0.076947 0.574668 0.182773
Si Si6 0.860038 0.421192 0.572939
Si Si7 0.500000 0.571610 0.044455
O O1 0.915381 0.750000 0.733920
O O2 0.869676 0.512826 0.695739
O O3 0.906986 0.493027 0.772068
O O4 0.000000 0.531228 0.714380
O O5 0.703093 0.500000 0.500000
O O6 0.726544 0.750000 0.537385
O O7 0.699037 0.515539 0.585157
O O8 0.811949 0.527751 0.545839
O O9 0.689513 0.250000 0.816304
O O10 0.754949 0.500060 0.834578
O O11 0.653287 0.428261 0.878518
O O12 0.696964 0.250000 0.363754
O O13 0.618229 0.014617 0.352308
O O14 0.097399 0.750000 0.182734
O O15 0.000000 0.551625 0.170940
O O16 0.851737 0.250000 0.555817
O O17 0.934592 0.484897 0.568555
O O18 0.500000 0.750000 0.040645
O O19 0.500000 0.500000 0.000000
#
# Coordination Sequence:
#
# PCOD8299429 Si02
#       7
#    16  16  16  16  16  16   8
#     4  10  21  36  54  78 110 147 185 225 269 320
#     4  10  20  34  54  78 105 136 173 215 261 314
#     4  10  20  34  54  78 106 141 183 230 273 316
#     4  10  21  37  57  82 112 142 176 219 268 322
#     4  10  21  38  60  85 110 138 175 217 263 320
#     4   9  19  33  49  69  98 135 176 222 270 316
#     4  10  20  32  44  64  92 128 174 220 268 316
#
# _framework density 18.387146000000001
#
# number of rings (size 3 to 8) (size 9 to 14) (size 15 to 20)
#    0.000    2.154    0.000    2.769    1.077    6.769 
#    0.000    3.077    0.000    0.462    0.000    0.000 
#    0.000    0.000    0.000    0.000    0.000    0.000 
#
# Total GULP energy -644742.838038 kJ/mol
# GULP energy per Si atom -12398.900731 kJ/mol
# Density = 1.834530 g / cm^3
# Si number density = 18.387146 Si / 1000 Ang^3
#
#
#
# Elastic Constant Matrix: (Units=GPa)
#
#
# Indices 1 2 3 4 5 6 
#
# 1 81.2960 24.4846 40.2195 0.0000 0.0000 0.0000
# 2 24.4846 47.4025 19.4382 0.0000 0.0000 0.0000
# 3 40.2195 19.4382 69.8801 0.0000 0.0000 0.0000
# 4 0.0000 0.0000 0.0000 33.3858 0.0000 0.0000
# 5 0.0000 0.0000 0.0000 0.0000 19.8900 0.0000
# 6 0.0000 0.0000 0.0000 0.0000 0.0000 31.2794
#
#
#
# Elastic Compliance Matrix: (Units=1/GPa)
#
#
# Indices 1 2 3 4 5 6 
#
# 1 0.018540 -0.005870 -0.009038 0.000000 0.000000 0.000000
# 2 -0.005870 0.025671 -0.003762 0.000000 0.000000 0.000000
# 3 -0.009038 -0.003762 0.020558 0.000000 0.000000 0.000000
# 4 0.000000 0.000000 0.000000 0.029953 0.000000 0.000000
# 5 0.000000 0.000000 0.000000 0.000000 0.050276 0.000000
# 6 0.000000 0.000000 0.000000 0.000000 0.000000 0.031970
#
#
# Mechanical properties :
#
#
# Convention : Reuss Voigt Hill
#
# Bulk Modulus (GPa) = 36.45791 40.76257 38.61024
# Shear Modulus (GPa) = 22.37621 24.54013 23.45817
#
# Velocity S-wave (km/s) = 3.49226 3.65723 3.57570
# Velocity P-wave (km/s) = 6.01101 6.32858 6.17184
#
# Compressibility (1/GPa) = 0.02742889
#
# Stress axis : x y z
#
# Youngs Moduli (GPa) = 53.93755 38.95482 48.64190
#
# Poissons Ratio (x) = 0.22867 0.43961
# Poissons Ratio (y) = 0.31663 0.18300
# Poissons Ratio (z) = 0.48748 0.14655
#
# Static dielectric constant tensor:
#      x y z
#    x 3.413440 0.000000 0.000000 
#    y 0.000000 3.451650 0.000000 
#    z 0.000000 0.000000 3.443760 
# 
# 
# High freq. dielectric constant tensor:
#      x y z
#    x 1.703720 0.000000 0.000000 
#    y 0.000000 1.723240 0.000000 
#    z 0.000000 0.000000 1.711410 
# 
# From -- ./inp_files/68230.got.cif
#   From: 2010.03.12/outbox.cif.g09.slc.cpg/sg74_35_cif.got.tgz:68230.got - 2010.04.16 15:46:19.
