data_PCOD8299319
_publ_section_title
;
Structure prediction by ZEFSAII (Michael W. Deem and Ramdas Pophale) SiO2 
 PCOD8299319
Probable space group: I M M A
;
_chemical_formula_sum "Si O2"
_cell_formula_units_Z 112
_cell_length_a 24.034378
_cell_length_b 14.570285
_cell_length_c 14.667447
_cell_angle_alpha 90.000000
_cell_angle_beta 90.000000
_cell_angle_gamma 90.000000
_cell_volume 5136.360076
_symmetry_space_group_name_H-M "I M M A"
_symmetry_group_IT_number 74
_symmetry_cell_setting 'orthorhombic'
loop_
_space_group_symop_operation_xyz
x,y,z
-x,1/2-y,z
x,-y,-z
-x,1/2+y,-z
-x,-y,-z
x,1/2+y,-z
-x,y,z
x,1/2-y,z
1/2+x,1/2+y,1/2+z
1/2-x,-y,1/2+z
1/2+x,1/2-y,1/2-z
1/2-x,y,1/2-z
1/2-x,1/2-y,1/2-z
1/2+x,y,1/2-z
1/2-x,1/2+y,1/2+z
1/2+x,-y,1/2+z
loop_
_atom_site_type_symbol
_atom_site_label
_atom_site_fract_x
_atom_site_fract_y
_atom_site_fract_z
Si Si1 0.200864 0.472272 0.698024
Si Si2 0.063142 0.143710 0.397146
Si Si3 0.261399 0.411632 0.440560
Si Si4 0.562655 0.852995 0.372813
Si Si5 0.883392 0.853297 0.942056
Si Si6 0.906557 0.472179 0.221551
Si Si7 0.843814 0.351967 0.540199
O O1 0.250000 0.413846 0.750000
O O2 0.233220 0.557094 0.653081
O O3 0.159773 0.516171 0.771615
O O4 0.162252 0.415253 0.628937
O O5 0.076175 0.250000 0.371254
O O6 0.068357 0.079621 0.308614
O O7 0.106977 0.109848 0.474329
O O8 0.000000 0.134378 0.434766
O O9 0.276746 0.500000 0.500000
O O10 0.317178 0.354330 0.425575
O O11 0.215540 0.349204 0.490489
O O12 0.500000 0.851575 0.409866
O O13 0.579484 0.750000 0.338624
O O14 0.602506 0.886141 0.455299
O O15 0.567335 0.925932 0.290048
O O16 0.904940 0.750000 0.929479
O O17 0.917565 0.913662 0.869501
O O18 0.859663 0.250000 0.572399
#
# Coordination Sequence:
#
# PCOD8299319 Si02
#       7
#    16  16  16  16  16  16  16
#     4  11  23  39  61  90 129 167 209 263 319 386
#     4  10  22  41  65  95 128 166 216 269 321 384
#     4  10  19  37  60  87 122 165 204 256 320 384
#     4  10  24  44  64  90 129 174 220 269 322 387
#     4  11  23  38  61  94 128 170 220 266 323 392
#     4  12  22  39  64  93 128 170 213 267 327 382
#     4  10  22  40  63  90 126 168 212 266 327 386
#
# _framework density 21.805325
#
# number of rings (size 3 to 8) (size 9 to 14) (size 15 to 20)
#    0.000    1.429    2.857    2.571    2.000    2.571 
#    0.000    4.286    0.000    1.714    0.000    0.000 
#    0.000    0.000    0.000    0.000    0.000    0.000 
#
# Total GULP energy -694268.281334 kJ/mol
# GULP energy per Si atom -12397.647881 kJ/mol
# Density = 2.175569 g / cm^3
# Si number density = 21.805325 Si / 1000 Ang^3
#
#
#
# Elastic Constant Matrix: (Units=GPa)
#
#
# Indices 1 2 3 4 5 6 
#
# 1 94.5780 25.5907 28.9187 0.0000 0.0000 0.0000
# 2 25.5907 98.6352 52.9589 0.0000 0.0000 0.0000
# 3 28.9187 52.9589 97.0442 0.0000 0.0000 0.0000
# 4 0.0000 0.0000 0.0000 23.6622 0.0000 0.0000
# 5 0.0000 0.0000 0.0000 0.0000 28.6762 0.0000
# 6 0.0000 0.0000 0.0000 0.0000 0.0000 3.9666
#
#
#
# Elastic Compliance Matrix: (Units=1/GPa)
#
#
# Indices 1 2 3 4 5 6 
#
# 1 0.011823 -0.001663 -0.002616 0.000000 0.000000 0.000000
# 2 -0.001663 0.014574 -0.007458 0.000000 0.000000 0.000000
# 3 -0.002616 -0.007458 0.015154 0.000000 0.000000 0.000000
# 4 0.000000 0.000000 0.000000 0.042262 0.000000 0.000000
# 5 0.000000 0.000000 0.000000 0.000000 0.034872 0.000000
# 6 0.000000 0.000000 0.000000 0.000000 0.000000 0.252106
#
#
# Mechanical properties :
#
#
# Convention : Reuss Voigt Hill
#
# Bulk Modulus (GPa) = 55.31579 56.13267 55.72423
# Shear Modulus (GPa) = 12.49097 23.44693 17.96895
#
# Velocity S-wave (km/s) = 2.39600 3.28271 2.87376
# Velocity P-wave (km/s) = 5.75131 6.33773 6.05162
#
# Compressibility (1/GPa) = 0.01807802
#
# Stress axis : x y z
#
# Youngs Moduli (GPa) = 84.58056 68.61516 65.98973
#
# Poissons Ratio (x) = 0.11411 0.17261
# Poissons Ratio (y) = 0.14066 0.49213
# Poissons Ratio (z) = 0.22123 0.51171
#
# Static dielectric constant tensor:
#      x y z
#    x 3.998690 0.000000 0.000000 
#    y 0.000000 3.883330 0.000000 
#    z 0.000000 0.000000 3.838320 
# 
# 
# High freq. dielectric constant tensor:
#      x y z
#    x 1.864800 0.000000 0.000000 
#    y 0.000000 1.851560 0.000000 
#    z 0.000000 0.000000 1.846190 
# 
# From -- ./inp_files/36541.got.cif
#   From: 2010.03.12/outbox.cif.g09.slc.cpg/sg74_19_cif.got.tgz:36541.got - 2010.04.16 15:46:19.
