data_PCOD8299039
_publ_section_title
;
Structure prediction by ZEFSAII (Michael W. Deem and Ramdas Pophale) SiO2 
 PCOD8299039
Probable space group: I M M A
;
_chemical_formula_sum "Si O2"
_cell_formula_units_Z 104
_cell_length_a 18.840851
_cell_length_b 9.575745
_cell_length_c 30.646802
_cell_angle_alpha 90.000000
_cell_angle_beta 90.000000
_cell_angle_gamma 90.000000
_cell_volume 5529.148445
_symmetry_space_group_name_H-M "I M M A"
_symmetry_group_IT_number 74
_symmetry_cell_setting 'orthorhombic'
loop_
_space_group_symop_operation_xyz
x,y,z
-x,1/2-y,z
x,-y,-z
-x,1/2+y,-z
-x,-y,-z
x,1/2+y,-z
-x,y,z
x,1/2-y,z
1/2+x,1/2+y,1/2+z
1/2-x,-y,1/2+z
1/2+x,1/2-y,1/2-z
1/2-x,y,1/2-z
1/2-x,1/2-y,1/2-z
1/2+x,y,1/2-z
1/2-x,1/2+y,1/2+z
1/2+x,-y,1/2+z
loop_
_atom_site_type_symbol
_atom_site_label
_atom_site_fract_x
_atom_site_fract_y
_atom_site_fract_z
Si Si1 0.579331 0.594719 0.428934
Si Si2 0.830782 0.090467 0.236104
Si Si3 0.917945 0.089985 0.698024
Si Si4 0.686303 0.000000 0.500000
Si Si5 0.421201 0.585433 0.888173
Si Si6 0.779286 0.906607 0.575355
Si Si7 0.658634 0.085387 0.364649
O O1 0.500000 0.563908 0.446926
O O2 0.584129 0.750000 0.409428
O O3 0.635502 0.588639 0.468668
O O4 0.593377 0.487854 0.389431
O O5 0.856741 0.250000 0.243880
O O6 0.750000 0.075012 0.250000
O O7 0.839739 0.047421 0.185832
O O8 0.876990 0.980873 0.262367
O O9 0.892195 0.250000 0.691265
O O10 0.000000 0.086733 0.710597
O O11 0.903072 0.000350 0.655067
O O12 0.741006 0.091294 0.471462
O O13 0.500000 0.545788 0.906029
O O14 0.418640 0.750000 0.877177
O O15 0.360870 0.536355 0.923416
O O16 0.787436 0.750000 0.591020
O O17 0.729973 0.977333 0.612515
O O18 0.650660 0.250000 0.372748
#
# Coordination Sequence:
#
# PCOD8299039 Si02
#       7
#    16  16  16   8  16  16  16
#     4  10  21  36  54  76 102 133 170 212 256 303
#     4  10  20  35  55  78 104 137 179 222 260 304
#     4  10  21  35  51  75 107 140 174 214 260 308
#     4  10  19  34  53  76 104 134 166 204 253 310
#     4   9  17  32  55  78 100 132 173 212 251 299
#     4   9  17  32  53  75 100 130 166 208 251 299
#     4   9  19  34  52  74 101 134 170 209 254 301
#
# _framework density 18.809405000000002
#
# number of rings (size 3 to 8) (size 9 to 14) (size 15 to 20)
#    0.000    2.462    0.000    2.077    0.000    5.846 
#    0.000   10.385    0.000    0.000    0.000    0.000 
#    0.000    0.000    0.000    0.000    0.000    0.000 
#
# Total GULP energy -644303.069530 kJ/mol
# GULP energy per Si atom -12390.443645 kJ/mol
# Density = 1.876659 g / cm^3
# Si number density = 18.809405 Si / 1000 Ang^3
#
#
#
# Elastic Constant Matrix: (Units=GPa)
#
#
# Indices 1 2 3 4 5 6 
#
# 1 133.1412 42.8260 71.1723 0.0000 0.0000 0.0000
# 2 42.8260 65.5694 35.1175 0.0000 0.0000 0.0000
# 3 71.1723 35.1175 102.4768 0.0000 0.0000 0.0000
# 4 0.0000 0.0000 0.0000 23.9974 0.0000 0.0000
# 5 0.0000 0.0000 0.0000 0.0000 29.1565 0.0000
# 6 0.0000 0.0000 0.0000 0.0000 0.0000 27.1119
#
#
#
# Elastic Compliance Matrix: (Units=1/GPa)
#
#
# Indices 1 2 3 4 5 6 
#
# 1 0.012926 -0.004451 -0.007452 0.000000 0.000000 0.000000
# 2 -0.004451 0.020212 -0.003835 0.000000 0.000000 0.000000
# 3 -0.007452 -0.003835 0.016248 0.000000 0.000000 0.000000
# 4 0.000000 0.000000 0.000000 0.041671 0.000000 0.000000
# 5 0.000000 0.000000 0.000000 0.000000 0.034298 0.000000
# 6 0.000000 0.000000 0.000000 0.000000 0.000000 0.036884
#
#
# Mechanical properties :
#
#
# Convention : Reuss Voigt Hill
#
# Bulk Modulus (GPa) = 55.83527 66.60209 61.21868
# Shear Modulus (GPa) = 25.03922 26.19127 25.61525
#
# Velocity S-wave (km/s) = 3.65253 3.73561 3.69430
# Velocity P-wave (km/s) = 6.89472 7.35474 7.12844
#
# Compressibility (1/GPa) = 0.01790983
#
# Stress axis : x y z
#
# Youngs Moduli (GPa) = 77.36156 49.47474 61.54553
#
# Poissons Ratio (x) = 0.22024 0.45865
# Poissons Ratio (y) = 0.34437 0.23602
# Poissons Ratio (z) = 0.57651 0.18973
#
# Static dielectric constant tensor:
#      x y z
#    x 3.760410 0.000000 0.000000 
#    y 0.000000 3.366470 0.000000 
#    z 0.000000 0.000000 3.305680 
# 
# 
# High freq. dielectric constant tensor:
#      x y z
#    x 1.743670 0.000000 0.000000 
#    y 0.000000 1.716350 0.000000 
#    z 0.000000 0.000000 1.716600 
# 
# From -- ./inp_files/73373.got.cif
#   From: 2010.03.12/outbox.cif.g09.slc.cpg/sg74_37_cif.got.tgz:73373.got - 2010.04.16 15:46:19.
