data_PCOD8299556
_publ_section_title
;
Structure prediction by ZEFSAII (Michael W. Deem and Ramdas Pophale) SiO2 
 PCOD8299556
Probable space group: I M M A
;
_chemical_formula_sum "Si O2"
_cell_formula_units_Z 72
_cell_length_a 21.866202
_cell_length_b 9.017174
_cell_length_c 18.037424
_cell_angle_alpha 90.000000
_cell_angle_beta 90.000000
_cell_angle_gamma 90.000000
_cell_volume 3556.463207
_symmetry_space_group_name_H-M "I M M A"
_symmetry_group_IT_number 74
_symmetry_cell_setting 'orthorhombic'
loop_
_space_group_symop_operation_xyz
x,y,z
-x,1/2-y,z
x,-y,-z
-x,1/2+y,-z
-x,-y,-z
x,1/2+y,-z
-x,y,z
x,1/2-y,z
1/2+x,1/2+y,1/2+z
1/2-x,-y,1/2+z
1/2+x,1/2-y,1/2-z
1/2-x,y,1/2-z
1/2-x,1/2-y,1/2-z
1/2+x,y,1/2-z
1/2-x,1/2+y,1/2+z
1/2+x,-y,1/2+z
loop_
_atom_site_type_symbol
_atom_site_label
_atom_site_fract_x
_atom_site_fract_y
_atom_site_fract_z
Si Si1 0.365518 0.503098 0.658817
Si Si2 0.346500 0.250000 0.560987
Si Si3 0.678305 0.750000 0.243565
Si Si4 0.138025 0.250000 0.397725
Si Si5 0.342566 0.000000 0.000000
Si Si6 0.715106 0.250000 0.399738
Si Si7 0.930632 0.250000 0.240545
Si Si8 0.714552 0.250000 0.909526
O O1 0.382755 0.400621 0.585976
O O2 0.352691 0.398152 0.727628
O O3 0.305815 0.602841 0.643061
O O4 0.420315 0.608499 0.686758
O O5 0.322471 0.250000 0.477693
O O6 0.286259 0.250000 0.615870
O O7 0.750000 0.750000 0.250000
O O8 0.665351 0.750000 0.155788
O O9 0.116485 0.397805 0.443713
O O10 0.212067 0.250000 0.401352
O O11 0.112777 0.250000 0.313886
O O12 0.295403 0.896924 0.043268
O O13 0.000000 0.250000 0.268864
#
# Coordination Sequence:
#
# PCOD8299556 Si02
#       8
#    16   8   8   8   8   8   8   8
#     4  10  23  36  58  89 121 161 200 248 318 367
#     4  11  19  32  55  89 128 152 181 237 310 394
#     4  11  21  32  54  87 131 155 188 243 313 392
#     4  11  22  34  62  87 125 164 202 239 323 362
#     4  10  20  32  51  88 118 164 193 234 286 388
#     4  11  21  32  59  94 134 154 191 235 322 406
#     4  11  26  47  63  80 118 170 233 270 282 331
#     4  11  19  29  49  78 133 162 182 216 303 372
#
# _framework density 20.244831000000001
#
# number of rings (size 3 to 8) (size 9 to 14) (size 15 to 20)
#    0.000    1.333    4.444    3.333    3.111    0.889 
#    0.000    2.778    0.000   10.667    0.000    0.000 
#    0.000    0.000    0.000    0.000    0.000    0.000 
#
# Total GULP energy -446000.587755 kJ/mol
# GULP energy per Si atom -12388.905215 kJ/mol
# Density = 2.019875 g / cm^3
# Si number density = 20.244831 Si / 1000 Ang^3
#
#
#
# Elastic Constant Matrix: (Units=GPa)
#
#
# Indices 1 2 3 4 5 6 
#
# 1 55.4093 29.8154 34.3585 0.0000 0.0000 0.0000
# 2 29.8154 158.7553 52.7642 0.0000 0.0000 0.0000
# 3 34.3585 52.7642 111.8773 0.0000 0.0000 0.0000
# 4 0.0000 0.0000 0.0000 21.1129 0.0000 0.0000
# 5 0.0000 0.0000 0.0000 0.0000 14.2134 0.0000
# 6 0.0000 0.0000 0.0000 0.0000 0.0000 8.5866
#
#
#
# Elastic Compliance Matrix: (Units=1/GPa)
#
#
# Indices 1 2 3 4 5 6 
#
# 1 0.023002 -0.002339 -0.005961 0.000000 0.000000 0.000000
# 2 -0.002339 0.007708 -0.002917 0.000000 0.000000 0.000000
# 3 -0.005961 -0.002917 0.012145 0.000000 0.000000 0.000000
# 4 0.000000 0.000000 0.000000 0.047364 0.000000 0.000000
# 5 0.000000 0.000000 0.000000 0.000000 0.070356 0.000000
# 6 0.000000 0.000000 0.000000 0.000000 0.000000 0.116461
#
#
# Mechanical properties :
#
#
# Convention : Reuss Voigt Hill
#
# Bulk Modulus (GPa) = 48.96875 62.21313 55.59094
# Shear Modulus (GPa) = 16.32509 22.72283 19.52396
#
# Velocity S-wave (km/s) = 2.84277 3.35386 3.10884
# Velocity P-wave (km/s) = 5.91742 6.76720 6.35653
#
# Compressibility (1/GPa) = 0.02042119
#
# Stress axis : x y z
#
# Youngs Moduli (GPa) = 43.47360 129.74043 82.33978
#
# Poissons Ratio (x) = 0.30343 0.49085
# Poissons Ratio (y) = 0.10167 0.24018
# Poissons Ratio (z) = 0.25916 0.37844
#
# Static dielectric constant tensor:
#      x y z
#    x 2.940970 0.000000 0.000000 
#    y 0.000000 4.235130 0.000000 
#    z 0.000000 0.000000 4.375270 
# 
# 
# High freq. dielectric constant tensor:
#      x y z
#    x 1.701330 0.000000 0.000000 
#    y 0.000000 1.823430 0.000000 
#    z 0.000000 0.000000 1.813730 
# 
# From -- ./inp_files/53723.got.cif
#   From: 2010.03.12/outbox.cif.g09.slc.cpg/sg74_27_cif.got.tgz:53723.got - 2010.04.16 15:46:19.
