data_PCOD8299441
_publ_section_title
;
Structure prediction by ZEFSAII (Michael W. Deem and Ramdas Pophale) SiO2 
 PCOD8299441
Probable space group: I M M A
;
_chemical_formula_sum "Si O2"
_cell_formula_units_Z 72
_cell_length_a 13.422521
_cell_length_b 8.845168
_cell_length_c 32.526133
_cell_angle_alpha 90.000000
_cell_angle_beta 90.000000
_cell_angle_gamma 90.000000
_cell_volume 3861.647356
_symmetry_space_group_name_H-M "I M M A"
_symmetry_group_IT_number 74
_symmetry_cell_setting 'orthorhombic'
loop_
_space_group_symop_operation_xyz
x,y,z
-x,1/2-y,z
x,-y,-z
-x,1/2+y,-z
-x,-y,-z
x,1/2+y,-z
-x,y,z
x,1/2-y,z
1/2+x,1/2+y,1/2+z
1/2-x,-y,1/2+z
1/2+x,1/2-y,1/2-z
1/2-x,y,1/2-z
1/2-x,1/2-y,1/2-z
1/2+x,y,1/2-z
1/2-x,1/2+y,1/2+z
1/2+x,-y,1/2+z
loop_
_atom_site_type_symbol
_atom_site_label
_atom_site_fract_x
_atom_site_fract_y
_atom_site_fract_z
Si Si1 0.392506 0.930048 0.735043
Si Si2 0.111755 0.071794 0.043947
Si Si3 0.000000 0.429838 0.455263
Si Si4 0.789950 0.929723 0.684373
Si Si5 0.695683 0.570068 0.906870
O O1 0.500000 0.992817 0.722383
O O2 0.388108 0.750000 0.735224
O O3 0.316267 0.991059 0.700926
O O4 0.369686 0.984624 0.781685
O O5 0.120105 0.250000 0.038824
O O6 0.199253 0.012120 0.074066
O O7 0.000000 0.027925 0.060169
O O8 0.131896 0.000000 0.000000
O O9 0.000000 0.500000 0.500000
O O10 0.900541 0.488348 0.431976
O O11 0.000000 0.250000 0.458580
O O12 0.788713 0.750000 0.680923
O O13 0.812587 0.997423 0.639372
O O14 0.694825 0.750000 0.906020
#
# Coordination Sequence:
#
# PCOD8299441 Si02
#       5
#    16  16   8  16  16
#     4   8  13  20  31  46  70 103 135 166 199 238
#     4   9  17  29  44  61  81 107 138 172 211 252
#     4  10  20  32  46  64  86 116 148 180 218 256
#     4   8  14  22  31  49  72  99 138 170 195 238
#     4   9  17  27  40  58  80 108 144 178 208 249
#
# _framework density 18.644893
#
# number of rings (size 3 to 8) (size 9 to 14) (size 15 to 20)
#    0.000    3.333    0.000    2.000    1.556    0.889 
#    0.000    4.444    0.000    0.000    0.000    0.000 
#    0.000    0.000    0.000   16.000   10.667   18.222 
#
# Total GULP energy -445993.971084 kJ/mol
# GULP energy per Si atom -12388.721419 kJ/mol
# Density = 1.860246 g / cm^3
# Si number density = 18.644893 Si / 1000 Ang^3
#
#
#
# Elastic Constant Matrix: (Units=GPa)
#
#
# Indices 1 2 3 4 5 6 
#
# 1 150.5904 6.5270 71.4902 0.0000 0.0000 0.0000
# 2 6.5270 2.9743 7.7337 0.0000 0.0000 0.0000
# 3 71.4902 7.7337 152.5293 0.0000 0.0000 0.0000
# 4 0.0000 0.0000 0.0000 14.2383 0.0000 0.0000
# 5 0.0000 0.0000 0.0000 0.0000 19.8190 0.0000
# 6 0.0000 0.0000 0.0000 0.0000 0.0000 7.9417
#
#
#
# Elastic Compliance Matrix: (Units=1/GPa)
#
#
# Indices 1 2 3 4 5 6 
#
# 1 0.008786 -0.009875 -0.003617 0.000000 0.000000 0.000000
# 2 -0.009875 0.398374 -0.015570 0.000000 0.000000 0.000000
# 3 -0.003617 -0.015570 0.009041 0.000000 0.000000 0.000000
# 4 0.000000 0.000000 0.000000 0.070233 0.000000 0.000000
# 5 0.000000 0.000000 0.000000 0.000000 0.050457 0.000000
# 6 0.000000 0.000000 0.000000 0.000000 0.000000 0.125917
#
#
# Mechanical properties :
#
#
# Convention : Reuss Voigt Hill
#
# Bulk Modulus (GPa) = 2.79271 53.06620 27.92945
# Shear Modulus (GPa) = 5.95032 23.08935 14.51984
#
# Velocity S-wave (km/s) = 1.78839 3.52287 2.79365
# Velocity P-wave (km/s) = 2.40115 6.71348 5.04164
#
# Compressibility (1/GPa) = 0.35807568
#
# Stress axis : x y z
#
# Youngs Moduli (GPa) = 113.82102 2.51020 110.60799
#
# Poissons Ratio (x) = 0.02479 0.40009
# Poissons Ratio (y) = 1.12398 1.72221
# Poissons Ratio (z) = 0.41171 0.03908
#
# Static dielectric constant tensor:
#      x y z
#    x 3.929930 0.000000 0.000000 
#    y 0.000000 2.675580 0.000000 
#    z 0.000000 0.000000 3.721440 
# 
# 
# High freq. dielectric constant tensor:
#      x y z
#    x 1.742030 0.000000 0.000000 
#    y 0.000000 1.639090 0.000000 
#    z 0.000000 0.000000 1.727880 
# 
# From -- ./inp_files/69977.got.cif
#   From: 2010.03.12/outbox.cif.g09.slc.cpg/sg74_35_cif.got.tgz:69977.got - 2010.04.16 15:46:19.
