data_PCOD8299827
_publ_section_title
;
Structure prediction by ZEFSAII (Michael W. Deem and Ramdas Pophale) SiO2 
 PCOD8299827
Probable space group: I M M A
;
_chemical_formula_sum "Si O2"
_cell_formula_units_Z 104
_cell_length_a 9.356943
_cell_length_b 25.762941
_cell_length_c 21.521652
_cell_angle_alpha 90.000000
_cell_angle_beta 90.000000
_cell_angle_gamma 90.000000
_cell_volume 5188.060447
_symmetry_space_group_name_H-M "I M M A"
_symmetry_group_IT_number 74
_symmetry_cell_setting 'orthorhombic'
loop_
_space_group_symop_operation_xyz
x,y,z
-x,1/2-y,z
x,-y,-z
-x,1/2+y,-z
-x,-y,-z
x,1/2+y,-z
-x,y,z
x,1/2-y,z
1/2+x,1/2+y,1/2+z
1/2-x,-y,1/2+z
1/2+x,1/2-y,1/2-z
1/2-x,y,1/2-z
1/2-x,1/2-y,1/2-z
1/2+x,y,1/2-z
1/2-x,1/2+y,1/2+z
1/2+x,-y,1/2+z
loop_
_atom_site_type_symbol
_atom_site_label
_atom_site_fract_x
_atom_site_fract_y
_atom_site_fract_z
Si Si1 0.660889 0.191875 0.971401
Si Si2 0.334043 0.017192 0.069009
Si Si3 0.835449 0.750000 0.188824
Si Si4 0.671462 0.035983 0.684507
Si Si5 0.838525 0.807494 0.811794
Si Si6 0.657496 0.865183 0.904574
Si Si7 0.335807 0.143457 0.625023
O O1 0.500000 0.190947 0.945643
O O2 0.726622 0.250000 0.962031
O O3 0.746150 0.144634 0.938461
O O4 0.664529 0.179026 0.043653
O O5 0.500000 0.001044 0.079880
O O6 0.312666 0.078543 0.067765
O O7 0.237730 0.994460 0.125425
O O8 0.282271 0.000000 0.000000
O O9 0.750000 0.750000 0.250000
O O10 0.790832 0.698242 0.153653
O O11 0.000000 0.750000 0.205688
O O12 0.500000 0.025100 0.689754
O O13 0.750000 0.021164 0.750000
O O14 0.703245 0.096669 0.671254
O O15 0.828007 0.750000 0.842394
O O16 0.750000 0.808186 0.750000
O O17 0.778863 0.852326 0.855425
O O18 0.000000 0.822247 0.795796
O O19 0.500000 0.863784 0.873253
O O20 0.500000 0.140426 0.606141
#
# Coordination Sequence:
#
# PCOD8299827 Si02
#       7
#    16  16   8  16  16  16  16
#     4  10  20  34  56  87 119 153 193 236 286 345
#     4  10  22  42  66  90 118 157 203 253 308 362
#     4  10  20  34  52  76 108 144 183 226 271 324
#     4  11  24  41  63  90 120 158 203 252 305 361
#     4  10  21  37  58  85 117 154 192 232 286 349
#     4  10  21  37  59  86 115 149 192 241 291 347
#     4  10  21  37  56  81 115 153 191 235 288 341
#
# _framework density 20.046026999999999
#
# number of rings (size 3 to 8) (size 9 to 14) (size 15 to 20)
#    0.000    1.846    0.769    2.769    0.000    6.769 
#    0.000    0.000    0.000    0.000    0.000    0.000 
#    0.000    0.000    0.000    0.000    0.000    0.000 
#
# Total GULP energy -644495.541410 kJ/mol
# GULP energy per Si atom -12394.145027 kJ/mol
# Density = 2.000040 g / cm^3
# Si number density = 20.046027 Si / 1000 Ang^3
#
#
#
# Elastic Constant Matrix: (Units=GPa)
#
#
# Indices 1 2 3 4 5 6 
#
# 1 103.5782 42.9744 65.1645 0.0000 0.0000 0.0000
# 2 42.9744 76.6587 42.4608 0.0000 0.0000 0.0000
# 3 65.1645 42.4608 106.9171 0.0001 0.0000 0.0000
# 4 0.0000 0.0000 0.0001 58.3727 0.0000 0.0000
# 5 0.0000 0.0000 0.0000 0.0000 40.2889 0.0000
# 6 0.0000 0.0000 0.0000 0.0000 0.0000 30.6822
#
#
#
# Elastic Compliance Matrix: (Units=1/GPa)
#
#
# Indices 1 2 3 4 5 6 
#
# 1 0.016957 -0.004848 -0.008410 0.000000 0.000000 0.000000
# 2 -0.004848 0.018109 -0.004237 0.000000 0.000000 0.000000
# 3 -0.008410 -0.004237 0.016161 0.000000 0.000000 0.000000
# 4 0.000000 0.000000 0.000000 0.017131 0.000000 0.000000
# 5 0.000000 0.000000 0.000000 0.000000 0.024821 0.000000
# 6 0.000000 0.000000 0.000000 0.000000 0.000000 0.032592
#
#
# Mechanical properties :
#
#
# Convention : Reuss Voigt Hill
#
# Bulk Modulus (GPa) = 61.58340 65.37257 63.47799
# Shear Modulus (GPa) = 30.08898 34.97237 32.53068
#
# Velocity S-wave (km/s) = 3.87847 4.18138 4.03277
# Velocity P-wave (km/s) = 7.13053 7.48291 7.30884
#
# Compressibility (1/GPa) = 0.01623814
#
# Stress axis : x y z
#
# Youngs Moduli (GPa) = 58.97399 55.21969 61.87592
#
# Poissons Ratio (x) = 0.26769 0.52035
# Poissons Ratio (y) = 0.28589 0.26219
# Poissons Ratio (z) = 0.49595 0.23398
#
# Static dielectric constant tensor:
#      x y z
#    x 4.364880 0.000000 0.000000 
#    y 0.000000 3.748100 0.000000 
#    z 0.000000 0.000000 3.633160 
# 
# 
# High freq. dielectric constant tensor:
#      x y z
#    x 1.783000 0.000000 0.000000 
#    y 0.000000 1.787490 0.000000 
#    z 0.000000 0.000000 1.779360 
# 
# From -- ./inp_files/49258.got.cif
#   From: 2010.03.12/outbox.cif.g09.slc.cpg/sg74_25_cif.got.tgz:49258.got - 2010.04.16 15:46:19.
