data_PCOD8299055
_publ_section_title
;
Structure prediction by ZEFSAII (Michael W. Deem and Ramdas Pophale) SiO2 
 PCOD8299055
Probable space group: I M M A
;
_chemical_formula_sum "Si O2"
_cell_formula_units_Z 96
_cell_length_a 23.436901
_cell_length_b 8.919089
_cell_length_c 25.237433
_cell_angle_alpha 90.000000
_cell_angle_beta 90.000000
_cell_angle_gamma 90.000000
_cell_volume 5275.527146
_symmetry_space_group_name_H-M "I M M A"
_symmetry_group_IT_number 74
_symmetry_cell_setting 'orthorhombic'
loop_
_space_group_symop_operation_xyz
x,y,z
-x,1/2-y,z
x,-y,-z
-x,1/2+y,-z
-x,-y,-z
x,1/2+y,-z
-x,y,z
x,1/2-y,z
1/2+x,1/2+y,1/2+z
1/2-x,-y,1/2+z
1/2+x,1/2-y,1/2-z
1/2-x,y,1/2-z
1/2-x,1/2-y,1/2-z
1/2+x,y,1/2-z
1/2-x,1/2+y,1/2+z
1/2+x,-y,1/2+z
loop_
_atom_site_type_symbol
_atom_site_label
_atom_site_fract_x
_atom_site_fract_y
_atom_site_fract_z
Si Si1 0.382845 0.922099 0.352169
Si Si2 0.689590 0.073585 0.054209
Si Si3 0.680774 0.926245 0.554122
Si Si4 0.500000 0.427922 0.696618
Si Si5 0.000000 0.571321 0.317002
Si Si6 0.384111 0.572858 0.845659
Si Si7 0.814851 0.421741 0.745728
O O1 0.386639 0.750000 0.370901
O O2 0.444556 0.984703 0.334698
O O3 0.340275 0.939607 0.303623
O O4 0.361058 0.023059 0.399686
O O5 0.686553 0.250000 0.046796
O O6 0.754422 0.021581 0.066540
O O7 0.649969 0.019504 0.102294
O O8 0.667117 0.000000 0.000000
O O9 0.676876 0.750000 0.547801
O O10 0.659004 0.000000 0.500000
O O11 0.500000 0.250000 0.700937
O O12 0.500000 0.490208 0.756631
O O13 0.055377 0.509827 0.346974
O O14 0.000000 0.750000 0.319090
O O15 0.393776 0.750000 0.845043
O O16 0.348169 0.527954 0.794268
O O17 0.819664 0.250000 0.725758
O O18 0.750000 0.475995 0.750000
#
# Coordination Sequence:
#
# PCOD8299055 Si02
#       7
#    16  16  16   8   8  16  16
#     4  10  19  34  54  78 108 143 183 228 271 319
#     4   9  20  37  57  81 112 145 181 225 276 330
#     4  10  20  36  57  82 110 144 181 224 277 332
#     4   9  18  35  56  75 104 145 186 226 268 313
#     4  11  21  39  60  79 108 151 194 230 272 330
#     4  11  22  36  55  83 115 145 182 232 285 332
#     4  10  20  33  53  82 113 147 186 225 272 335
#
# _framework density 18.197233000000001
#
# number of rings (size 3 to 8) (size 9 to 14) (size 15 to 20)
#    0.000    2.000    1.667    2.250    0.000    3.000 
#    0.000    1.250    0.000    0.000    0.000    0.000 
#    0.000    0.000    0.000    0.000    0.000    0.000 
#
# Total GULP energy -595368.531515 kJ/mol
# GULP energy per Si atom -12403.511073 kJ/mol
# Density = 1.815581 g / cm^3
# Si number density = 18.197233 Si / 1000 Ang^3
#
#
#
# Elastic Constant Matrix: (Units=GPa)
#
#
# Indices 1 2 3 4 5 6 
#
# 1 119.2471 25.3046 39.9641 0.0000 0.0000 0.0000
# 2 25.3046 51.8165 30.1006 0.0000 0.0000 0.0000
# 3 39.9641 30.1006 92.0832 0.0000 0.0000 0.0000
# 4 0.0000 0.0000 0.0000 33.9965 0.0000 0.0000
# 5 0.0000 0.0000 0.0000 0.0000 -10.0487 0.0000
# 6 0.0000 0.0000 0.0000 0.0000 0.0000 35.2079
#
#
#
# Elastic Compliance Matrix: (Units=1/GPa)
#
#
# Indices 1 2 3 4 5 6 
#
# 1 0.010170 -0.002966 -0.003444 0.000000 0.000000 0.000000
# 2 -0.002966 0.024687 -0.006783 0.000000 0.000000 0.000000
# 3 -0.003444 -0.006783 0.014572 0.000000 0.000000 0.000000
# 4 0.000000 0.000000 0.000000 0.029415 0.000000 0.000000
# 5 0.000000 0.000000 0.000000 0.000000 -0.099516 0.000000
# 6 0.000000 0.000000 0.000000 0.000000 0.000000 0.028403
#
#
# Mechanical properties :
#
#
# Convention : Reuss Voigt Hill
#
# Bulk Modulus (GPa) = 43.39641 50.43173 46.91407
# Shear Modulus (GPa) = 119.62666 23.01631 71.32149
#
# Velocity S-wave (km/s) = 8.11675 3.56030 6.26727
# Velocity P-wave (km/s) = 10.57080 6.68394 8.84355
#
# Compressibility (1/GPa) = 0.02304338
#
# Stress axis : x y z
#
# Youngs Moduli (GPa) = 98.33313 40.50665 68.62597
#
# Poissons Ratio (x) = 0.12012 0.23636
# Poissons Ratio (y) = 0.29161 0.46548
# Poissons Ratio (z) = 0.33868 0.27475
#
# Static dielectric constant tensor:
#      x y z
#    x 3.616220 0.000000 0.000000 
#    y 0.000000 3.256190 0.000000 
#    z 0.000000 0.000000 3.351850 
# 
# 
# High freq. dielectric constant tensor:
#      x y z
#    x 1.710080 0.000000 0.000000 
#    y 0.000000 1.697710 0.000000 
#    z 0.000000 0.000000 1.704550 
# 
# From -- ./inp_files/61925.got.cif
#   From: 2010.03.12/outbox.cif.g09.slc.cpg/sg74_31_cif.got.tgz:61925.got - 2010.04.16 15:46:19.
