data_PCOD8299903
_publ_section_title
;
Structure prediction by ZEFSAII (Michael W. Deem and Ramdas Pophale) SiO2 
 PCOD8299903
Probable space group: I M M A
;
_chemical_formula_sum "Si O2"
_cell_formula_units_Z 64
_cell_length_a 30.001280
_cell_length_b 8.941954
_cell_length_c 14.893993
_cell_angle_alpha 90.000000
_cell_angle_beta 90.000000
_cell_angle_gamma 90.000000
_cell_volume 3995.612481
_symmetry_space_group_name_H-M "I M M A"
_symmetry_group_IT_number 74
_symmetry_cell_setting 'orthorhombic'
loop_
_space_group_symop_operation_xyz
x,y,z
-x,1/2-y,z
x,-y,-z
-x,1/2+y,-z
-x,-y,-z
x,1/2+y,-z
-x,y,z
x,1/2-y,z
1/2+x,1/2+y,1/2+z
1/2-x,-y,1/2+z
1/2+x,1/2-y,1/2-z
1/2-x,y,1/2-z
1/2-x,1/2-y,1/2-z
1/2+x,y,1/2-z
1/2-x,1/2+y,1/2+z
1/2+x,-y,1/2+z
loop_
_atom_site_type_symbol
_atom_site_label
_atom_site_fract_x
_atom_site_fract_y
_atom_site_fract_z
Si Si1 0.448415 0.575001 0.091699
Si Si2 0.354501 0.580478 0.588202
Si Si3 0.882608 0.920092 0.722855
Si Si4 0.200543 0.073038 0.776461
O O1 0.500000 0.536744 0.107819
O O2 0.439626 0.750000 0.084746
O O3 0.421959 0.508833 0.175448
O O4 0.431213 0.500000 0.000000
O O5 0.373929 0.500000 0.500000
O O6 0.341405 0.750000 0.564445
O O7 0.391273 0.576018 0.668751
O O8 0.310316 0.492894 0.624100
O O9 0.880844 0.750000 0.687233
O O10 0.834596 0.000172 0.705209
O O11 0.194649 0.250000 0.776181
O O12 0.250000 0.023541 0.750000
#
# Coordination Sequence:
#
# PCOD8299903 Si02
#       4
#    16  16  16  16
#     4  10  20  34  54  78 104 135 170 211 259 312
#     4   9  18  30  49  73  98 131 167 204 247 296
#     4   9  19  32  50  74 101 134 168 209 253 300
#     4   9  17  30  49  71  99 132 167 209 254 301
#
# _framework density 16.017569000000002
#
# number of rings (size 3 to 8) (size 9 to 14) (size 15 to 20)
#    1.500    1.250    0.000    2.250    0.000    3.500 
#    0.000    1.250    0.000    6.750    0.000    0.000 
#    0.000    0.000    0.000    0.000    0.000    0.000 
#
# Total GULP energy -396448.514849 kJ/mol
# GULP energy per Si atom -12389.016089 kJ/mol
# Density = 1.598111 g / cm^3
# Si number density = 16.017569 Si / 1000 Ang^3
#
#
#
# Elastic Constant Matrix: (Units=GPa)
#
#
# Indices 1 2 3 4 5 6 
#
# 1 73.4483 50.3967 45.5876 0.0000 0.0000 0.0000
# 2 50.3967 112.2394 48.4544 0.0000 0.0000 0.0000
# 3 45.5876 48.4544 89.1923 0.0000 0.0000 0.0000
# 4 0.0000 0.0000 0.0000 32.3790 0.0000 0.0000
# 5 0.0000 0.0000 0.0000 0.0000 23.7781 0.0000
# 6 0.0000 0.0000 0.0000 0.0000 0.0000 23.5061
#
#
#
# Elastic Compliance Matrix: (Units=1/GPa)
#
#
# Indices 1 2 3 4 5 6 
#
# 1 0.023529 -0.007019 -0.008213 0.000000 0.000000 0.000000
# 2 -0.007019 0.013733 -0.003873 0.000000 0.000000 0.000000
# 3 -0.008213 -0.003873 0.017513 0.000000 0.000000 0.000000
# 4 0.000000 0.000000 0.000000 0.030884 0.000000 0.000000
# 5 0.000000 0.000000 0.000000 0.000000 0.042055 0.000000
# 6 0.000000 0.000000 0.000000 0.000000 0.000000 0.042542
#
#
# Mechanical properties :
#
#
# Convention : Reuss Voigt Hill
#
# Bulk Modulus (GPa) = 60.36635 62.63970 61.50302
# Shear Modulus (GPa) = 23.36572 24.62874 23.99723
#
# Velocity S-wave (km/s) = 3.82351 3.92549 3.87483
# Velocity P-wave (km/s) = 7.56715 7.72902 7.64851
#
# Compressibility (1/GPa) = 0.01656552
#
# Stress axis : x y z
#
# Youngs Moduli (GPa) = 42.50141 72.81602 57.09907
#
# Poissons Ratio (x) = 0.51111 0.46893
# Poissons Ratio (y) = 0.29832 0.22115
# Poissons Ratio (z) = 0.34905 0.28202
#
# Static dielectric constant tensor:
#      x y z
#    x 2.768190 0.000000 0.000000 
#    y 0.000000 3.153470 0.000000 
#    z 0.000000 0.000000 2.889740 
# 
# 
# High freq. dielectric constant tensor:
#      x y z
#    x 1.583500 0.000000 0.000000 
#    y 0.000000 1.640180 0.000000 
#    z 0.000000 0.000000 1.600300 
# 
# From -- ./inp_files/28822.got.cif
#   From: 2010.03.12/outbox.cif.g09.slc.cpg/sg74_15_cif.got.tgz:28822.got - 2010.04.16 15:46:19.
