data_PCOD8299757
_publ_section_title
;
Structure prediction by ZEFSAII (Michael W. Deem and Ramdas Pophale) SiO2 
 PCOD8299757
Probable space group: I M M A
;
_chemical_formula_sum "Si O2"
_cell_formula_units_Z 128
_cell_length_a 15.532754
_cell_length_b 24.914379
_cell_length_c 17.022371
_cell_angle_alpha 90.000000
_cell_angle_beta 90.000000
_cell_angle_gamma 90.000000
_cell_volume 6587.468970
_symmetry_space_group_name_H-M "I M M A"
_symmetry_group_IT_number 74
_symmetry_cell_setting 'orthorhombic'
loop_
_space_group_symop_operation_xyz
x,y,z
-x,1/2-y,z
x,-y,-z
-x,1/2+y,-z
-x,-y,-z
x,1/2+y,-z
-x,y,z
x,1/2-y,z
1/2+x,1/2+y,1/2+z
1/2-x,-y,1/2+z
1/2+x,1/2-y,1/2-z
1/2-x,y,1/2-z
1/2-x,1/2-y,1/2-z
1/2+x,y,1/2-z
1/2-x,1/2+y,1/2+z
1/2+x,-y,1/2+z
loop_
_atom_site_type_symbol
_atom_site_label
_atom_site_fract_x
_atom_site_fract_y
_atom_site_fract_z
Si Si1 0.097677 0.458982 0.561778
Si Si2 0.096821 0.345561 0.480002
Si Si3 0.403923 0.004326 0.387708
Si Si4 0.594774 0.387970 0.190190
Si Si5 0.840980 0.997675 0.718863
Si Si6 0.332037 0.308851 0.304295
Si Si7 0.102600 0.909469 0.006935
Si Si8 0.216249 0.189622 0.019080
O O1 0.142909 0.500000 0.500000
O O2 0.105563 0.399982 0.528167
O O3 0.137316 0.461509 0.648933
O O4 0.000000 0.477935 0.572031
O O5 0.105724 0.352257 0.386824
O O6 0.181286 0.311319 0.503737
O O7 0.000000 0.320622 0.497656
O O8 0.500000 0.003075 0.419548
O O9 0.364254 0.949865 0.424311
O O10 0.403904 0.002055 0.293623
O O11 0.368103 0.060365 0.425173
O O12 0.500000 0.414243 0.191016
O O13 0.662429 0.436813 0.186161
O O14 0.602335 0.352370 0.269128
O O15 0.750000 0.016496 0.750000
O O16 0.376357 0.250000 0.303836
O O17 0.250000 0.309259 0.250000
O O18 0.299470 0.324024 0.390055
O O19 0.157561 0.855136 0.023691
O O20 0.000000 0.895113 0.009171
O O21 0.184451 0.250000 0.997977
#
# Coordination Sequence:
#
# PCOD8299757 Si02
#       8
#    16  16  16  16  16  16  16  16
#     4  10  20  37  56  78 114 153 188 235 285 341
#     4  10  22  37  56  79 108 153 195 233 283 333
#     4   9  19  37  58  82 115 153 185 232 282 339
#     4  11  21  34  52  74 107 149 191 231 270 330
#     4  12  24  32  51  88 114 145 187 227 283 346
#     4  10  20  34  49  72 104 140 185 234 279 317
#     4   9  20  38  60  85 116 152 192 232 286 343
#     4  11  23  37  58  80 111 152 192 243 288 337
#
# _framework density 19.43083
#
# number of rings (size 3 to 8) (size 9 to 14) (size 15 to 20)
#    0.000    1.750    2.500    3.000    3.500    2.250 
#    0.000    2.500    0.000    0.000    0.000    1.750 
#    0.000    4.000    0.000    0.000    0.000    0.000 
#
# Total GULP energy -792844.060117 kJ/mol
# GULP energy per Si atom -12388.188439 kJ/mol
# Density = 1.938661 g / cm^3
# Si number density = 19.430830 Si / 1000 Ang^3
#
#
#
# Elastic Constant Matrix: (Units=GPa)
#
#
# Indices 1 2 3 4 5 6 
#
# 1 79.2784 33.5833 14.6323 0.0000 0.0000 0.0000
# 2 33.5833 94.6567 15.6192 0.0000 0.0000 0.0000
# 3 14.6323 15.6192 64.1044 0.0000 0.0000 0.0000
# 4 0.0000 0.0000 0.0000 33.1940 0.0000 0.0000
# 5 0.0000 0.0000 0.0000 0.0000 21.9894 0.0000
# 6 0.0000 0.0000 0.0000 0.0000 0.0000 25.1377
#
#
#
# Elastic Compliance Matrix: (Units=1/GPa)
#
#
# Indices 1 2 3 4 5 6 
#
# 1 0.015147 -0.005005 -0.002238 0.000000 0.000000 0.000000
# 2 -0.005005 0.012661 -0.001942 0.000000 0.000000 0.000000
# 3 -0.002238 -0.001942 0.016584 0.000000 0.000000 0.000000
# 4 0.000000 0.000000 0.000000 0.030126 0.000000 0.000000
# 5 0.000000 0.000000 0.000000 0.000000 0.045476 0.000000
# 6 0.000000 0.000000 0.000000 0.000000 0.000000 0.039781
#
#
# Mechanical properties :
#
#
# Convention : Reuss Voigt Hill
#
# Bulk Modulus (GPa) = 38.43055 40.63434 39.53244
# Shear Modulus (GPa) = 26.76398 27.67788 27.22093
#
# Velocity S-wave (km/s) = 3.71536 3.77826 3.74694
# Velocity P-wave (km/s) = 6.18274 6.32387 6.25370
#
# Compressibility (1/GPa) = 0.02602096
#
# Stress axis : x y z
#
# Youngs Moduli (GPa) = 66.02020 78.98507 60.30033
#
# Poissons Ratio (x) = 0.39529 0.13495
# Poissons Ratio (y) = 0.33041 0.11713
# Poissons Ratio (z) = 0.14775 0.15342
#
# Static dielectric constant tensor:
#      x y z
#    x 3.654820 0.000000 0.000000 
#    y 0.000000 3.481450 0.000000 
#    z 0.000000 0.000000 3.663810 
# 
# 
# High freq. dielectric constant tensor:
#      x y z
#    x 1.756630 0.000000 0.000000 
#    y 0.000000 1.738270 0.000000 
#    z 0.000000 0.000000 1.733820 
# 
# From -- ./inp_files/44592.got.cif
#   From: 2010.03.12/outbox.cif.g09.slc.cpg/sg74_23_cif.got.tgz:44592.got - 2010.04.16 15:46:19.
