data_PCOD8299196
_publ_section_title
;
Structure prediction by ZEFSAII (Michael W. Deem and Ramdas Pophale) SiO2 
 PCOD8299196
Probable space group: I M M A
;
_chemical_formula_sum "Si O2"
_cell_formula_units_Z 80
_cell_length_a 15.561440
_cell_length_b 26.429810
_cell_length_c 10.155326
_cell_angle_alpha 90.000000
_cell_angle_beta 90.000000
_cell_angle_gamma 90.000000
_cell_volume 4176.742419
_symmetry_space_group_name_H-M "I M M A"
_symmetry_group_IT_number 74
_symmetry_cell_setting 'orthorhombic'
loop_
_space_group_symop_operation_xyz
x,y,z
-x,1/2-y,z
x,-y,-z
-x,1/2+y,-z
-x,-y,-z
x,1/2+y,-z
-x,y,z
x,1/2-y,z
1/2+x,1/2+y,1/2+z
1/2-x,-y,1/2+z
1/2+x,1/2-y,1/2-z
1/2-x,y,1/2-z
1/2-x,1/2-y,1/2-z
1/2+x,y,1/2-z
1/2-x,1/2+y,1/2+z
1/2+x,-y,1/2+z
loop_
_atom_site_type_symbol
_atom_site_label
_atom_site_fract_x
_atom_site_fract_y
_atom_site_fract_z
Si Si1 0.000000 0.060778 0.650558
Si Si2 0.147127 0.373390 0.264086
Si Si3 0.906370 0.850293 0.253206
Si Si4 0.336689 0.304815 0.001182
Si Si5 0.639669 0.806338 0.521983
Si Si6 0.000000 0.055513 0.336979
O O1 0.915642 0.089613 0.711635
O O2 0.000000 0.064916 0.492968
O O3 0.000000 0.003542 0.698407
O O4 0.250000 0.386246 0.250000
O O5 0.122279 0.344418 0.398475
O O6 0.109445 0.338388 0.147620
O O7 0.087834 0.423294 0.270561
O O8 0.839586 0.824336 0.351456
O O9 0.000000 0.824724 0.276350
O O10 0.878524 0.840951 0.104272
O O11 0.382525 0.250000 0.012861
O O12 0.239274 0.297651 0.041097
O O13 0.596047 0.750000 0.514589
#
# Coordination Sequence:
#
# PCOD8299196 Si02
#       6
#     8  16  16  16  16   8
#     4   9  22  39  64  79 111 147 195 251 298 325
#     4  10  21  38  60  88 117 150 196 236 284 345
#     4  10  20  36  52  83 110 150 190 231 284 340
#     4  10  19  35  56  81 115 155 196 229 272 340
#     4  10  21  35  54  82 124 158 178 228 289 341
#     4  11  20  43  66  83 111 151 195 251 298 333
#
# _framework density 19.153683000000001
#
# number of rings (size 3 to 8) (size 9 to 14) (size 15 to 20)
#    0.600    1.400    2.000    1.800    1.400    5.600 
#    0.000    5.000    0.000    0.000    0.000    0.000 
#    0.000    0.000    0.000    0.000    0.000    0.000 
#
# Total GULP energy -495559.720384 kJ/mol
# GULP energy per Si atom -12388.993010 kJ/mol
# Density = 1.911009 g / cm^3
# Si number density = 19.153683 Si / 1000 Ang^3
#
#
#
# Elastic Constant Matrix: (Units=GPa)
#
#
# Indices 1 2 3 4 5 6 
#
# 1 49.8062 36.7255 15.8861 0.0000 0.0000 0.0000
# 2 36.7255 141.9732 46.4688 -0.0021 0.0001 -0.0004
# 3 15.8861 46.4688 117.4223 -0.0100 0.0000 -0.0015
# 4 0.0000 -0.0021 -0.0100 23.8979 0.0002 -0.0009
# 5 0.0000 0.0001 0.0000 0.0002 4.8086 0.0001
# 6 0.0000 -0.0004 -0.0015 -0.0009 0.0001 23.1598
#
#
#
# Elastic Compliance Matrix: (Units=1/GPa)
#
#
# Indices 1 2 3 4 5 6 
#
# 1 0.024900 -0.006133 -0.000942 -0.000001 0.000000 0.000000
# 2 -0.006133 0.009602 -0.002970 0.000000 0.000000 0.000000
# 3 -0.000942 -0.002970 0.009819 0.000004 0.000000 0.000001
# 4 -0.000001 0.000000 0.000004 0.041845 -0.000002 0.000002
# 5 0.000000 0.000000 0.000000 -0.000002 0.207963 -0.000001
# 6 0.000000 0.000000 0.000001 0.000002 -0.000001 0.043178
#
#
# Mechanical properties :
#
#
# Convention : Reuss Voigt Hill
#
# Bulk Modulus (GPa) = 41.26796 56.37363 48.82079
# Shear Modulus (GPa) = 13.68084 24.38135 19.03109
#
# Velocity S-wave (km/s) = 2.67548 3.57169 3.15556
# Velocity P-wave (km/s) = 5.58003 6.81949 6.23066
#
# Compressibility (1/GPa) = 0.02423187
#
# Stress axis : x y z
#
# Youngs Moduli (GPa) = 40.15988 104.14226 101.84203
#
# Poissons Ratio (x) = 0.63870 0.09591
# Poissons Ratio (y) = 0.24630 0.30250
# Poissons Ratio (z) = 0.03782 0.30933
#
# Static dielectric constant tensor:
#      x y z
#    x 3.319210 0.000000 0.000000 
#    y 0.000000 3.588300 0.000000 
#    z 0.000000 0.000000 3.462920 
# 
# 
# High freq. dielectric constant tensor:
#      x y z
#    x 1.730300 0.000000 0.000000 
#    y 0.000000 1.731880 0.000000 
#    z 0.000000 0.000000 1.752910 
# 
# From -- ./inp_files/10992.got.cif
#   From: 2010.03.12/outbox.cif.g09.slc.cpg/sg74_6_cif.got.tgz:10992.got - 2010.04.16 15:46:19.
