data_PCOD8299825
_publ_section_title
;
Structure prediction by ZEFSAII (Michael W. Deem and Ramdas Pophale) SiO2 
 PCOD8299825
Probable space group: I M M A
;
_chemical_formula_sum "Si O2"
_cell_formula_units_Z 120
_cell_length_a 27.245529
_cell_length_b 9.384419
_cell_length_c 26.249339
_cell_angle_alpha 90.000000
_cell_angle_beta 90.000000
_cell_angle_gamma 90.000000
_cell_volume 6711.521819
_symmetry_space_group_name_H-M "I M M A"
_symmetry_group_IT_number 74
_symmetry_cell_setting 'orthorhombic'
loop_
_space_group_symop_operation_xyz
x,y,z
-x,1/2-y,z
x,-y,-z
-x,1/2+y,-z
-x,-y,-z
x,1/2+y,-z
-x,y,z
x,1/2-y,z
1/2+x,1/2+y,1/2+z
1/2-x,-y,1/2+z
1/2+x,1/2-y,1/2-z
1/2-x,y,1/2-z
1/2-x,1/2-y,1/2-z
1/2+x,y,1/2-z
1/2-x,1/2+y,1/2+z
1/2+x,-y,1/2+z
loop_
_atom_site_type_symbol
_atom_site_label
_atom_site_fract_x
_atom_site_fract_y
_atom_site_fract_z
Si Si1 0.842205 0.918079 0.946819
Si Si2 0.444908 0.584678 0.757212
Si Si3 0.786097 0.083334 0.863965
Si Si4 0.948287 0.086980 0.051088
Si Si5 0.825370 0.085030 0.659086
Si Si6 0.085248 0.083807 0.370609
Si Si7 0.000000 0.918326 0.553041
Si Si8 0.144195 0.584436 0.228263
O O1 0.831702 0.750000 0.954398
O O2 0.896484 0.945872 0.920867
O O3 0.801895 0.986116 0.910717
O O4 0.838990 0.000000 0.000000
O O5 0.500000 0.544921 0.740195
O O6 0.434154 0.750000 0.748453
O O7 0.439158 0.544378 0.816574
O O8 0.407155 0.498497 0.721713
O O9 0.793498 0.250000 0.876417
O O10 0.729675 0.045003 0.855391
O O11 0.817217 0.038257 0.814593
O O12 0.946876 0.250000 0.033979
O O13 0.000000 0.056797 0.082187
O O14 0.950119 0.000000 0.000000
O O15 0.836430 0.250000 0.650097
O O16 0.831744 0.042740 0.717995
O O17 0.863218 0.998705 0.623440
O O18 0.096633 0.250000 0.374289
O O19 0.048219 0.036266 0.415174
O O20 0.000000 0.750000 0.543006
O O21 0.000000 0.000000 0.500000
O O22 0.131902 0.750000 0.224778
#
# Coordination Sequence:
#
# PCOD8299825 Si02
#       8
#    16  16  16  16  16  16   8  16
#     4  10  20  34  53  75  99 129 169 210 250 300
#     4   9  16  29  50  74 102 137 172 208 255 312
#     4  10  20  35  53  73 103 138 170 210 259 307
#     4   8  14  26  45  68  91 115 147 191 238 281
#     4   9  18  33  54  78 101 130 170 213 257 307
#     4   9  17  32  52  74 101 134 170 209 256 309
#     4  10  20  34  52  76 108 142 174 212 261 312
#     4   9  18  32  51  76 104 134 169 211 259 308
#
# _framework density 17.879701000000001
#
# number of rings (size 3 to 8) (size 9 to 14) (size 15 to 20)
#    0.000    2.800    0.667    0.800    0.000    4.000 
#    0.000    1.333    0.000    8.000    0.000    0.000 
#    0.000    0.000    0.000    0.000    0.000    0.000 
#
# Total GULP energy -743574.926329 kJ/mol
# GULP energy per Si atom -12392.915439 kJ/mol
# Density = 1.783901 g / cm^3
# Si number density = 17.879701 Si / 1000 Ang^3
#
#
#
# Elastic Constant Matrix: (Units=GPa)
#
#
# Indices 1 2 3 4 5 6 
#
# 1 166.9537 66.7322 62.9330 0.0000 0.0000 0.0000
# 2 66.7322 60.7991 41.2686 0.0000 0.0000 0.0000
# 3 62.9330 41.2686 72.9620 0.0000 0.0000 0.0000
# 4 0.0000 0.0000 0.0000 25.9088 0.0000 0.0000
# 5 0.0000 0.0000 0.0000 0.0000 22.3591 0.0000
# 6 0.0000 0.0000 0.0000 0.0000 0.0000 33.0340
#
#
#
# Elastic Compliance Matrix: (Units=1/GPa)
#
#
# Indices 1 2 3 4 5 6 
#
# 1 0.011522 -0.009578 -0.004521 0.000000 0.000000 0.000000
# 2 -0.009578 0.034659 -0.011342 0.000000 0.000000 0.000000
# 3 -0.004521 -0.011342 0.024021 0.000000 0.000000 0.000000
# 4 0.000000 0.000000 0.000000 0.038597 0.000000 0.000000
# 5 0.000000 0.000000 0.000000 0.000000 0.044725 0.000000
# 6 0.000000 0.000000 0.000000 0.000000 0.000000 0.030272
#
#
# Mechanical properties :
#
#
# Convention : Reuss Voigt Hill
#
# Bulk Modulus (GPa) = 51.76129 71.39805 61.57967
# Shear Modulus (GPa) = 20.73676 24.91244 22.82460
#
# Velocity S-wave (km/s) = 3.40927 3.73679 3.57678
# Velocity P-wave (km/s) = 6.67159 7.65750 7.18148
#
# Compressibility (1/GPa) = 0.01931946
#
# Stress axis : x y z
#
# Youngs Moduli (GPa) = 86.78907 28.85248 41.63062
#
# Poissons Ratio (x) = 0.27635 0.18821
# Poissons Ratio (y) = 0.83126 0.47219
# Poissons Ratio (z) = 0.39237 0.32726
#
# Static dielectric constant tensor:
#      x y z
#    x 3.721150 0.000000 0.000000 
#    y 0.000000 3.262690 0.000000 
#    z 0.000000 0.000000 3.162600 
# 
# 
# High freq. dielectric constant tensor:
#      x y z
#    x 1.707920 0.000000 0.000000 
#    y 0.000000 1.689470 0.000000 
#    z 0.000000 0.000000 1.658140 
# 
# From -- ./inp_files/68998.got.cif
#   From: 2010.03.12/outbox.cif.g09.slc.cpg/sg74_35_cif.got.tgz:68998.got - 2010.04.16 15:46:19.
