data_PCOD8299056
_publ_section_title
;
Structure prediction by ZEFSAII (Michael W. Deem and Ramdas Pophale) SiO2 
 PCOD8299056
Probable space group: I M M A
;
_chemical_formula_sum "Si O2"
_cell_formula_units_Z 88
_cell_length_a 8.695064
_cell_length_b 22.428074
_cell_length_c 24.315461
_cell_angle_alpha 90.000000
_cell_angle_beta 90.000000
_cell_angle_gamma 90.000000
_cell_volume 4741.844098
_symmetry_space_group_name_H-M "I M M A"
_symmetry_group_IT_number 74
_symmetry_cell_setting 'orthorhombic'
loop_
_space_group_symop_operation_xyz
x,y,z
-x,1/2-y,z
x,-y,-z
-x,1/2+y,-z
-x,-y,-z
x,1/2+y,-z
-x,y,z
x,1/2-y,z
1/2+x,1/2+y,1/2+z
1/2-x,-y,1/2+z
1/2+x,1/2-y,1/2-z
1/2-x,y,1/2-z
1/2-x,1/2-y,1/2-z
1/2+x,y,1/2-z
1/2-x,1/2+y,1/2+z
1/2+x,-y,1/2+z
loop_
_atom_site_type_symbol
_atom_site_label
_atom_site_fract_x
_atom_site_fract_y
_atom_site_fract_z
Si Si1 0.819356 0.096653 0.807750
Si Si2 0.682080 0.250000 0.310205
Si Si3 0.823251 0.180403 0.604576
Si Si4 0.819510 0.866168 0.874976
Si Si5 0.323816 0.818552 0.508004
Si Si6 0.181324 0.969882 0.691764
O O1 0.750000 0.118728 0.750000
O O2 0.784300 0.145651 0.853402
O O3 0.000000 0.088350 0.800967
O O4 0.746551 0.033936 0.825723
O O5 0.500000 0.250000 0.307298
O O6 0.750000 0.250000 0.250000
O O7 0.740608 0.191576 0.342132
O O8 0.788200 0.250000 0.612462
O O9 0.782881 0.161065 0.542429
O O10 0.000000 0.164839 0.616329
O O11 0.782553 0.858529 0.939389
O O12 0.726320 0.923421 0.855190
O O13 0.000000 0.875892 0.864892
O O14 0.500000 0.827857 0.490141
O O15 0.294330 0.750000 0.524367
O O16 0.250000 0.948569 0.750000
O O17 0.000000 0.974226 0.697588
#
# Coordination Sequence:
#
# PCOD8299056 Si02
#       6
#    16   8  16  16  16  16
#     4  11  22  39  62  85 111 144 181 223 272 329
#     4  10  20  32  48  74 108 144 183 234 281 322
#     4  10  21  37  58  86 118 147 178 221 270 325
#     4  10  19  34  54  78 109 146 189 232 278 327
#     4   9  17  33  56  80 109 148 188 228 275 328
#     4  11  22  37  56  79 109 146 186 229 278 333
#
# _framework density 18.558181000000001
#
# number of rings (size 3 to 8) (size 9 to 14) (size 15 to 20)
#    0.000    1.818    0.909    5.455    0.000    4.364 
#    0.000    0.909    0.000    5.455    0.000    0.000 
#    0.000    0.000    0.000    0.000    0.000    0.000 
#
# Total GULP energy -545788.892653 kJ/mol
# GULP energy per Si atom -12404.293015 kJ/mol
# Density = 1.851594 g / cm^3
# Si number density = 18.558181 Si / 1000 Ang^3
#
#
#
# Elastic Constant Matrix: (Units=GPa)
#
#
# Indices 1 2 3 4 5 6 
#
# 1 111.0377 45.3029 49.6060 0.0000 0.0000 0.0000
# 2 45.3029 83.2001 65.5778 0.0000 0.0000 0.0000
# 3 49.6060 65.5778 112.2771 0.0000 0.0000 0.0000
# 4 0.0000 0.0000 0.0000 27.5149 0.0000 0.0000
# 5 0.0000 0.0000 0.0000 0.0000 34.6649 0.0000
# 6 0.0000 0.0000 0.0000 0.0000 0.0000 28.0694
#
#
#
# Elastic Compliance Matrix: (Units=1/GPa)
#
#
# Indices 1 2 3 4 5 6 
#
# 1 0.012022 -0.004372 -0.002758 0.000000 0.000000 0.000000
# 2 -0.004372 0.023863 -0.012006 0.000000 0.000000 0.000000
# 3 -0.002758 -0.012006 0.017137 0.000000 0.000000 0.000000
# 4 0.000000 0.000000 0.000000 0.036344 0.000000 0.000000
# 5 0.000000 0.000000 0.000000 0.000000 0.028848 0.000000
# 6 0.000000 0.000000 0.000000 0.000000 0.000000 0.035626
#
#
# Mechanical properties :
#
#
# Convention : Reuss Voigt Hill
#
# Bulk Modulus (GPa) = 67.79589 69.72092 68.75841
# Shear Modulus (GPa) = 25.37711 27.78507 26.58109
#
# Velocity S-wave (km/s) = 3.70190 3.87355 3.78869
# Velocity P-wave (km/s) = 7.40830 7.59317 7.50130
#
# Compressibility (1/GPa) = 0.01475016
#
# Stress axis : x y z
#
# Youngs Moduli (GPa) = 83.18184 41.90602 58.35259
#
# Poissons Ratio (x) = 0.18323 0.16092
# Poissons Ratio (y) = 0.36370 0.70057
# Poissons Ratio (z) = 0.22939 0.50312
#
# Static dielectric constant tensor:
#      x y z
#    x 3.391000 0.000000 0.000000 
#    y 0.000000 3.318660 0.000000 
#    z 0.000000 0.000000 3.390370 
# 
# 
# High freq. dielectric constant tensor:
#      x y z
#    x 1.724490 0.000000 0.000000 
#    y 0.000000 1.710990 0.000000 
#    z 0.000000 0.000000 1.723480 
# 
# From -- ./inp_files/48776.got.cif
#   From: 2010.03.12/outbox.cif.g09.slc.cpg/sg74_25_cif.got.tgz:48776.got - 2010.04.16 15:46:19.
