data_PCOD8299789
_publ_section_title
;
Structure prediction by ZEFSAII (Michael W. Deem and Ramdas Pophale) SiO2 
 PCOD8299789
Probable space group: I M M A
;
_chemical_formula_sum "Si O2"
_cell_formula_units_Z 64
_cell_length_a 15.006633
_cell_length_b 13.686654
_cell_length_c 18.470532
_cell_angle_alpha 90.000000
_cell_angle_beta 90.000000
_cell_angle_gamma 90.000000
_cell_volume 3793.673531
_symmetry_space_group_name_H-M "I M M A"
_symmetry_group_IT_number 74
_symmetry_cell_setting 'orthorhombic'
loop_
_space_group_symop_operation_xyz
x,y,z
-x,1/2-y,z
x,-y,-z
-x,1/2+y,-z
-x,-y,-z
x,1/2+y,-z
-x,y,z
x,1/2-y,z
1/2+x,1/2+y,1/2+z
1/2-x,-y,1/2+z
1/2+x,1/2-y,1/2-z
1/2-x,y,1/2-z
1/2-x,1/2-y,1/2-z
1/2+x,y,1/2-z
1/2-x,1/2+y,1/2+z
1/2+x,-y,1/2+z
loop_
_atom_site_type_symbol
_atom_site_label
_atom_site_fract_x
_atom_site_fract_y
_atom_site_fract_z
Si Si1 0.754103 0.483572 0.084390
Si Si2 0.100657 0.454062 0.317300
Si Si3 0.396398 0.363679 0.335644
Si Si4 0.192566 0.356959 0.679400
O O1 0.668345 0.424381 0.117656
O O2 0.842902 0.423731 0.103629
O O3 0.756217 0.592010 0.119398
O O4 0.743741 0.500000 0.000000
O O5 0.131107 0.398268 0.244744
O O6 0.108442 0.571614 0.304471
O O7 0.000000 0.425991 0.339092
O O8 0.500000 0.385058 0.349330
O O9 0.373723 0.250000 0.343475
O O10 0.159763 0.250000 0.652396
O O11 0.250000 0.343147 0.750000
#
# Coordination Sequence:
#
# PCOD8299789 Si02
#       4
#    16  16  16  16
#     4  10  20  34  51  78 109 142 168 211 265 315
#     4   9  18  34  54  79 104 134 177 215 256 305
#     4  10  20  36  58  79 101 135 182 228 267 308
#     4   9  17  33  52  73 101 134 176 213 249 301
#
# _framework density 16.870191999999999
#
# number of rings (size 3 to 8) (size 9 to 14) (size 15 to 20)
#    1.500    1.000    2.500    0.750    0.000    4.500 
#    0.000    0.000    0.000    0.750    0.000    0.000 
#    0.000    0.000    0.000    0.000    0.000    0.000 
#
# Total GULP energy -396418.068504 kJ/mol
# GULP energy per Si atom -12388.064641 kJ/mol
# Density = 1.683179 g / cm^3
# Si number density = 16.870192 Si / 1000 Ang^3
#
#
#
# Elastic Constant Matrix: (Units=GPa)
#
#
# Indices 1 2 3 4 5 6 
#
# 1 71.8074 11.2080 35.3152 0.0000 0.0000 0.0000
# 2 11.2080 59.4177 13.7328 0.0000 0.0000 0.0000
# 3 35.3152 13.7328 105.6659 0.0000 0.0000 0.0000
# 4 0.0000 0.0000 0.0000 -4.9796 0.0000 0.0000
# 5 0.0000 0.0000 0.0000 0.0000 19.3023 0.0000
# 6 0.0000 0.0000 0.0000 0.0000 0.0000 27.5131
#
#
#
# Elastic Compliance Matrix: (Units=1/GPa)
#
#
# Indices 1 2 3 4 5 6 
#
# 1 0.016879 -0.001938 -0.005389 0.000000 0.000000 0.000000
# 2 -0.001938 0.017574 -0.001636 0.000000 0.000000 0.000000
# 3 -0.005389 -0.001636 0.011478 0.000000 0.000000 0.000000
# 4 0.000000 0.000000 0.000000 -0.200817 0.000000 0.000000
# 5 0.000000 0.000000 0.000000 0.000000 0.051807 0.000000
# 6 0.000000 0.000000 0.000000 0.000000 0.000000 0.036346
#
#
# Mechanical properties :
#
#
# Convention : Reuss Voigt Hill
#
# Bulk Modulus (GPa) = 35.71056 39.71144 37.71100
# Shear Modulus (GPa) = -126.67441 20.14283 -53.26579
#
# Velocity S-wave (km/s) = -8.67472 3.45916 -5.62516
# Velocity P-wave (km/s) = 8.89497 6.28848 4.44835
#
# Compressibility (1/GPa) = 0.02800292
#
# Stress axis : x y z
#
# Youngs Moduli (GPa) = 59.24451 56.90293 87.12591
#
# Poissons Ratio (x) = 0.11030 0.46955
# Poissons Ratio (y) = 0.11484 0.14255
# Poissons Ratio (z) = 0.31929 0.09310
#
# Static dielectric constant tensor:
#      x y z
#    x 2.994430 0.000000 0.000000 
#    y 0.000000 3.418960 0.000000 
#    z 0.000000 0.000000 2.836280 
# 
# 
# High freq. dielectric constant tensor:
#      x y z
#    x 1.641080 0.000000 0.000000 
#    y 0.000000 1.648400 0.000000 
#    z 0.000000 0.000000 1.630240 
# 
# From -- ./inp_files/42420.got.cif
#   From: 2010.03.12/outbox.cif.g09.slc.cpg/sg74_22_cif.got.tgz:42420.got - 2010.04.16 15:46:19.
