data_PCOD8299360
_publ_section_title
;
Structure prediction by ZEFSAII (Michael W. Deem and Ramdas Pophale) SiO2 
 PCOD8299360
Probable space group: I M M A
;
_chemical_formula_sum "Si O2"
_cell_formula_units_Z 88
_cell_length_a 9.499088
_cell_length_b 20.900470
_cell_length_c 22.163139
_cell_angle_alpha 90.000000
_cell_angle_beta 90.000000
_cell_angle_gamma 90.000000
_cell_volume 4400.167750
_symmetry_space_group_name_H-M "I M M A"
_symmetry_group_IT_number 74
_symmetry_cell_setting 'orthorhombic'
loop_
_space_group_symop_operation_xyz
x,y,z
-x,1/2-y,z
x,-y,-z
-x,1/2+y,-z
-x,-y,-z
x,1/2+y,-z
-x,y,z
x,1/2-y,z
1/2+x,1/2+y,1/2+z
1/2-x,-y,1/2+z
1/2+x,1/2-y,1/2-z
1/2-x,y,1/2-z
1/2-x,1/2-y,1/2-z
1/2+x,y,1/2-z
1/2-x,1/2+y,1/2+z
1/2+x,-y,1/2+z
loop_
_atom_site_type_symbol
_atom_site_label
_atom_site_fract_x
_atom_site_fract_y
_atom_site_fract_z
Si Si1 0.839743 0.006638 0.308106
Si Si2 0.000000 0.325510 0.701881
Si Si3 0.337642 0.636902 0.872552
Si Si4 0.225495 0.390208 0.620086
Si Si5 0.660489 0.570118 0.991780
Si Si6 0.828095 0.250000 0.185815
Si Si7 0.500000 0.673964 0.341364
O O1 0.750000 0.990596 0.250000
O O2 0.833064 0.080990 0.323239
O O3 0.000000 0.984187 0.296799
O O4 0.774787 0.965261 0.362723
O O5 0.863847 0.351404 0.668658
O O6 0.000000 0.250000 0.697673
O O7 0.000000 0.347384 0.771531
O O8 0.500000 0.662951 0.877344
O O9 0.276747 0.610719 0.936216
O O10 0.225469 0.689117 0.851426
O O11 0.169650 0.386474 0.551695
O O12 0.374374 0.357052 0.621749
O O13 0.500000 0.556963 0.972937
O O14 0.734073 0.500000 0.000000
O O15 0.750000 0.250000 0.250000
O O16 0.000000 0.250000 0.192536
O O17 0.500000 0.750000 0.347944
#
# Coordination Sequence:
#
# PCOD8299360 Si02
#       7
#    16   8  16  16  16   8   8
#     4  11  22  36  62  96 128 158 210 273 328 391
#     4  11  22  40  65  90 124 165 222 265 315 379
#     4  10  22  42  68  99 130 174 217 266 334 390
#     4  12  22  40  62  94 123 168 218 262 323 379
#     4  10  19  40  67  94 130 166 213 268 319 385
#     4  12  26  48  72 100 138 178 223 274 331 397
#     4  11  26  44  59  86 132 175 204 267 331 385
#
# _framework density 19.999237000000001
#
# number of rings (size 3 to 8) (size 9 to 14) (size 15 to 20)
#    0.000    1.091    3.636    3.545    1.273    3.636 
#    4.909    0.455    0.000    0.000    0.000    0.000 
#    0.000    0.000    0.000    0.000    0.000    0.000 
#
# Total GULP energy -545547.582811 kJ/mol
# GULP energy per Si atom -12398.808700 kJ/mol
# Density = 1.995372 g / cm^3
# Si number density = 19.999237 Si / 1000 Ang^3
#
#
#
# Elastic Constant Matrix: (Units=GPa)
#
#
# Indices 1 2 3 4 5 6 
#
# 1 108.2669 45.1859 29.5552 0.0000 0.0000 0.0000
# 2 45.1859 98.9689 38.2343 0.0000 0.0000 0.0000
# 3 29.5552 38.2343 122.4745 0.0000 0.0000 0.0000
# 4 0.0000 0.0000 0.0000 89.8118 0.0000 0.0000
# 5 0.0000 0.0000 0.0000 0.0000 23.8705 0.0000
# 6 0.0000 0.0000 0.0000 0.0000 0.0000 51.6285
#
#
#
# Elastic Compliance Matrix: (Units=1/GPa)
#
#
# Indices 1 2 3 4 5 6 
#
# 1 0.011591 -0.004789 -0.001302 0.000000 0.000000 0.000000
# 2 -0.004789 0.013469 -0.003049 0.000000 0.000000 0.000000
# 3 -0.001302 -0.003049 0.009431 0.000000 0.000000 0.000000
# 4 0.000000 0.000000 0.000000 0.011134 0.000000 0.000000
# 5 0.000000 0.000000 0.000000 0.000000 0.041893 0.000000
# 6 0.000000 0.000000 0.000000 0.000000 0.000000 0.019369
#
#
# Mechanical properties :
#
#
# Convention : Reuss Voigt Hill
#
# Bulk Modulus (GPa) = 61.68895 61.74010 61.71453
# Shear Modulus (GPa) = 38.29380 47.51116 42.90248
#
# Velocity S-wave (km/s) = 4.38055 4.87935 4.63666
# Velocity P-wave (km/s) = 7.51653 7.91722 7.71947
#
# Compressibility (1/GPa) = 0.01621036
#
# Stress axis : x y z
#
# Youngs Moduli (GPa) = 86.27749 74.24726 106.03326
#
# Poissons Ratio (x) = 0.35556 0.13806
# Poissons Ratio (y) = 0.41317 0.32329
# Poissons Ratio (z) = 0.11233 0.22638
#
# Static dielectric constant tensor:
#      x y z
#    x 3.496310 0.000000 0.000000 
#    y 0.000000 3.695740 0.000000 
#    z 0.000000 0.000000 3.739550 
# 
# 
# High freq. dielectric constant tensor:
#      x y z
#    x 1.761380 0.000000 0.000000 
#    y 0.000000 1.787490 0.000000 
#    z 0.000000 0.000000 1.788950 
# 
# From -- ./inp_files/57064.got.cif
#   From: 2010.03.12/outbox.cif.g09.slc.cpg/sg74_29_cif.got.tgz:57064.got - 2010.04.16 15:46:19.
