data_PCOD8299417
_publ_section_title
;
Structure prediction by ZEFSAII (Michael W. Deem and Ramdas Pophale) SiO2 
 PCOD8299417
Probable space group: I M M A
;
_chemical_formula_sum "Si O2"
_cell_formula_units_Z 88
_cell_length_a 22.620964
_cell_length_b 7.489407
_cell_length_c 26.807956
_cell_angle_alpha 90.000000
_cell_angle_beta 90.000000
_cell_angle_gamma 90.000000
_cell_volume 4541.739731
_symmetry_space_group_name_H-M "I M M A"
_symmetry_group_IT_number 74
_symmetry_cell_setting 'orthorhombic'
loop_
_space_group_symop_operation_xyz
x,y,z
-x,1/2-y,z
x,-y,-z
-x,1/2+y,-z
-x,-y,-z
x,1/2+y,-z
-x,y,z
x,1/2-y,z
1/2+x,1/2+y,1/2+z
1/2-x,-y,1/2+z
1/2+x,1/2-y,1/2-z
1/2-x,y,1/2-z
1/2-x,1/2-y,1/2-z
1/2+x,y,1/2-z
1/2-x,1/2+y,1/2+z
1/2+x,-y,1/2+z
loop_
_atom_site_type_symbol
_atom_site_label
_atom_site_fract_x
_atom_site_fract_y
_atom_site_fract_z
Si Si1 0.000000 0.958380 0.440655
Si Si2 0.835125 0.962567 0.125708
Si Si3 0.688203 0.250000 0.299998
Si Si4 0.380406 0.037192 0.886799
Si Si5 0.064612 0.958093 0.053911
Si Si6 0.170216 0.250000 0.312455
Si Si7 0.766851 0.544875 0.443679
O O1 0.942386 0.030882 0.410803
O O2 0.000000 0.750000 0.435352
O O3 0.000000 0.000000 0.500000
O O4 0.833073 0.750000 0.135228
O O5 0.892963 0.030063 0.096646
O O6 0.779920 0.042158 0.094039
O O7 0.836443 0.065501 0.177641
O O8 0.758572 0.250000 0.309854
O O9 0.657211 0.250000 0.246050
O O10 0.381164 0.250000 0.873919
O O11 0.333277 0.988413 0.929923
O O12 0.359833 0.925581 0.838026
O O13 0.058227 0.750000 0.060946
O O14 0.000000 0.050607 0.058351
O O15 0.092867 0.000000 0.000000
O O16 0.752143 0.500000 0.500000
O O17 0.757160 0.750000 0.434992
#
# Coordination Sequence:
#
# PCOD8299417 Si02
#       7
#     8  16   8  16  16   8  16
#     4  10  22  38  62  96 130 172 208 245 307 377
#     4  10  21  37  55  83 118 149 192 250 297 355
#     4  11  24  40  63  92 109 152 213 249 318 352
#     4  10  22  40  59  88 125 160 201 248 301 361
#     4   9  18  32  52  80 114 155 190 224 286 353
#     4  11  24  41  66  87 114 158 201 263 308 357
#     4  10  20  31  51  82 117 156 188 228 292 354
#
# _framework density 19.375834999999999
#
# number of rings (size 3 to 8) (size 9 to 14) (size 15 to 20)
#    0.000    2.000    1.818    1.091    5.091    0.727 
#    0.000    1.818    4.000    0.000    0.000    0.000 
#    0.000    0.000    0.000    0.000    0.000    0.000 
#
# Total GULP energy -545077.871352 kJ/mol
# GULP energy per Si atom -12388.133440 kJ/mol
# Density = 1.933173 g / cm^3
# Si number density = 19.375835 Si / 1000 Ang^3
#
#
#
# Elastic Constant Matrix: (Units=GPa)
#
#
# Indices 1 2 3 4 5 6 
#
# 1 95.0549 35.5043 51.5835 0.0000 0.0000 0.0000
# 2 35.5043 63.8215 47.2969 0.0000 0.0000 0.0000
# 3 51.5835 47.2969 152.5727 0.0000 0.0000 0.0000
# 4 0.0000 0.0000 0.0000 30.9563 0.0000 0.0000
# 5 0.0000 0.0000 0.0000 0.0000 32.0113 0.0000
# 6 0.0000 0.0000 0.0000 0.0000 0.0000 -16.7225
#
#
#
# Elastic Compliance Matrix: (Units=1/GPa)
#
#
# Indices 1 2 3 4 5 6 
#
# 1 0.014312 -0.005681 -0.003078 0.000000 0.000000 0.000000
# 2 -0.005681 0.022597 -0.005084 0.000000 0.000000 0.000000
# 3 -0.003078 -0.005084 0.009171 0.000000 0.000000 0.000000
# 4 0.000000 0.000000 0.000000 0.032304 0.000000 0.000000
# 5 0.000000 0.000000 0.000000 0.000000 0.031239 0.000000
# 6 0.000000 0.000000 0.000000 0.000000 0.000000 -0.059800
#
#
# Mechanical properties :
#
#
# Convention : Reuss Voigt Hill
#
# Bulk Modulus (GPa) = 54.36564 64.46872 59.41718
# Shear Modulus (GPa) = 59.77935 21.05332 40.41634
#
# Velocity S-wave (km/s) = 5.56053 3.29990 4.57214
# Velocity P-wave (km/s) = 8.32739 6.91839 7.65537
#
# Compressibility (1/GPa) = 0.01839397
#
# Stress axis : x y z
#
# Youngs Moduli (GPa) = 69.86916 44.25362 109.04057
#
# Poissons Ratio (x) = 0.25142 0.33560
# Poissons Ratio (y) = 0.39694 0.55438
# Poissons Ratio (z) = 0.21504 0.22499
#
# Static dielectric constant tensor:
#      x y z
#    x 4.214780 0.000000 0.000000 
#    y 0.000000 3.692300 0.000000 
#    z 0.000000 0.000000 3.437840 
# 
# 
# High freq. dielectric constant tensor:
#      x y z
#    x 1.761190 0.000000 0.000000 
#    y 0.000000 1.757400 0.000000 
#    z 0.000000 0.000000 1.733550 
# 
# From -- ./inp_files/54571.got.cif
#   From: 2010.03.12/outbox.cif.g09.slc.cpg/sg74_28_cif.got.tgz:54571.got - 2010.04.16 15:46:19.
