data_PCOD8299255
_publ_section_title
;
Structure prediction by ZEFSAII (Michael W. Deem and Ramdas Pophale) SiO2 
 PCOD8299255
Probable space group: I M M A
;
_chemical_formula_sum "Si O2"
_cell_formula_units_Z 112
_cell_length_a 18.678512
_cell_length_b 27.802692
_cell_length_c 12.339756
_cell_angle_alpha 90.000000
_cell_angle_beta 90.000000
_cell_angle_gamma 90.000000
_cell_volume 6408.194673
_symmetry_space_group_name_H-M "I M M A"
_symmetry_group_IT_number 74
_symmetry_cell_setting 'orthorhombic'
loop_
_space_group_symop_operation_xyz
x,y,z
-x,1/2-y,z
x,-y,-z
-x,1/2+y,-z
-x,-y,-z
x,1/2+y,-z
-x,y,z
x,1/2-y,z
1/2+x,1/2+y,1/2+z
1/2-x,-y,1/2+z
1/2+x,1/2-y,1/2-z
1/2-x,y,1/2-z
1/2-x,1/2-y,1/2-z
1/2+x,y,1/2-z
1/2-x,1/2+y,1/2+z
1/2+x,-y,1/2+z
loop_
_atom_site_type_symbol
_atom_site_label
_atom_site_fract_x
_atom_site_fract_y
_atom_site_fract_z
Si Si1 0.825693 0.607751 0.803784
Si Si2 0.135659 0.943315 0.420026
Si Si3 0.081902 0.046755 0.356190
Si Si4 0.331828 0.884925 0.277440
Si Si5 0.300896 0.447036 0.524381
Si Si6 0.580560 0.804704 0.383940
Si Si7 0.416895 0.195663 0.365106
O O1 0.750000 0.618361 0.750000
O O2 0.868073 0.567643 0.737085
O O3 0.869108 0.657684 0.799977
O O4 0.814342 0.588578 0.924757
O O5 0.094912 0.926266 0.528836
O O6 0.127032 0.902416 0.329843
O O7 0.217793 0.953155 0.448897
O O8 0.101079 0.991263 0.371909
O O9 0.000000 0.052870 0.320169
O O10 0.250000 0.874729 0.250000
O O11 0.340876 0.924946 0.371350
O O12 0.365617 0.834821 0.311500
O O13 0.333035 0.500000 0.500000
O O14 0.500000 0.823978 0.367495
O O15 0.586557 0.750000 0.344632
O O16 0.602150 0.809006 0.508959
O O17 0.500000 0.183820 0.344363
O O18 0.399628 0.250000 0.325245
#
# Coordination Sequence:
#
# PCOD8299255 Si02
#       7
#    16  16  16  16  16  16  16
#     4  12  21  34  58  82 112 141 181 232 275 318
#     4  10  19  36  53  75 109 150 186 219 256 317
#     4  11  22  36  54  79 110 152 191 217 260 325
#     4  10  21  33  56  82 107 138 181 223 275 317
#     4  11  19  34  53  79 111 143 181 226 273 315
#     4   9  18  35  57  78 103 137 175 218 273 330
#     4   9  19  37  59  80 106 140 177 222 278 335
#
# _framework density 17.477620999999999
#
# number of rings (size 3 to 8) (size 9 to 14) (size 15 to 20)
#    0.000    1.714    4.286    3.000    0.000    2.857 
#    0.000    0.000    0.000    3.000    0.000    2.000 
#    0.000    0.000    0.000    0.000    0.000    0.000 
#
# Total GULP energy -694434.862722 kJ/mol
# GULP energy per Si atom -12400.622549 kJ/mol
# Density = 1.743784 g / cm^3
# Si number density = 17.477621 Si / 1000 Ang^3
#
#
#
# Elastic Constant Matrix: (Units=GPa)
#
#
# Indices 1 2 3 4 5 6 
#
# 1 70.5589 26.4680 28.6166 0.0000 0.0000 0.0000
# 2 26.4680 63.5713 18.0348 0.0000 0.0000 0.0000
# 3 28.6166 18.0348 64.7234 0.0002 0.0000 0.0000
# 4 0.0000 0.0000 0.0002 23.1232 0.0000 0.0000
# 5 0.0000 0.0000 0.0000 0.0000 11.6026 0.0000
# 6 0.0000 0.0000 0.0000 0.0000 0.0000 31.8191
#
#
#
# Elastic Compliance Matrix: (Units=1/GPa)
#
#
# Indices 1 2 3 4 5 6 
#
# 1 0.019207 -0.006067 -0.006802 0.000000 0.000000 0.000000
# 2 -0.006067 0.018997 -0.002611 0.000000 0.000000 0.000000
# 3 -0.006802 -0.002611 0.019185 0.000000 0.000000 0.000000
# 4 0.000000 0.000000 0.000000 0.043247 0.000000 0.000000
# 5 0.000000 0.000000 0.000000 0.000000 0.086187 0.000000
# 6 0.000000 0.000000 0.000000 0.000000 0.000000 0.031428
#
#
# Mechanical properties :
#
#
# Convention : Reuss Voigt Hill
#
# Bulk Modulus (GPa) = 37.83598 38.34361 38.08979
# Shear Modulus (GPa) = 19.37832 21.69127 20.53480
#
# Velocity S-wave (km/s) = 3.33340 3.52673 3.43143
# Velocity P-wave (km/s) = 6.04241 6.21048 6.12702
#
# Compressibility (1/GPa) = 0.02642987
#
# Stress axis : x y z
#
# Youngs Moduli (GPa) = 52.06429 52.63935 52.12390
#
# Poissons Ratio (x) = 0.31938 0.35452
# Poissons Ratio (y) = 0.31589 0.13609
# Poissons Ratio (z) = 0.35412 0.13743
#
# Static dielectric constant tensor:
#      x y z
#    x 3.185300 0.000000 0.000000 
#    y 0.000000 3.168480 0.000000 
#    z 0.000000 0.000000 3.366670 
# 
# 
# High freq. dielectric constant tensor:
#      x y z
#    x 1.671260 0.000000 0.000000 
#    y 0.000000 1.667200 0.000000 
#    z 0.000000 0.000000 1.676150 
# 
# From -- ./inp_files/24346.got.cif
#   From: 2010.03.12/outbox.cif.g09.slc.cpg/sg74_13_cif.got.tgz:24346.got - 2010.04.16 15:46:19.
