data_PCOD8299896
_publ_section_title
;
Structure prediction by ZEFSAII (Michael W. Deem and Ramdas Pophale) SiO2 
 PCOD8299896
Probable space group: I M M A
;
_chemical_formula_sum "Si O2"
_cell_formula_units_Z 88
_cell_length_a 8.934171
_cell_length_b 21.190719
_cell_length_c 23.739136
_cell_angle_alpha 90.000000
_cell_angle_beta 90.000000
_cell_angle_gamma 90.000000
_cell_volume 4494.329006
_symmetry_space_group_name_H-M "I M M A"
_symmetry_group_IT_number 74
_symmetry_cell_setting 'orthorhombic'
loop_
_space_group_symop_operation_xyz
x,y,z
-x,1/2-y,z
x,-y,-z
-x,1/2+y,-z
-x,-y,-z
x,1/2+y,-z
-x,y,z
x,1/2-y,z
1/2+x,1/2+y,1/2+z
1/2-x,-y,1/2+z
1/2+x,1/2-y,1/2-z
1/2-x,y,1/2-z
1/2-x,1/2-y,1/2-z
1/2+x,y,1/2-z
1/2-x,1/2+y,1/2+z
1/2+x,-y,1/2+z
loop_
_atom_site_type_symbol
_atom_site_label
_atom_site_fract_x
_atom_site_fract_y
_atom_site_fract_z
Si Si1 0.825652 0.678978 0.805498
Si Si2 0.669904 0.973274 0.059622
Si Si3 0.680146 0.250000 0.812438
Si Si4 0.833290 0.319069 0.015365
Si Si5 0.833759 0.893125 0.600251
Si Si6 0.671992 0.851015 0.392181
O O1 0.767082 0.750000 0.816535
O O2 0.750000 0.650216 0.750000
O O3 0.786194 0.635222 0.857564
O O4 0.000000 0.677766 0.795687
O O5 0.500000 0.949002 0.049393
O O6 0.765585 0.920074 0.091227
O O7 0.671435 0.031631 0.102992
O O8 0.736161 0.000000 0.000000
O O9 0.500000 0.250000 0.809357
O O10 0.750000 0.250000 0.750000
O O11 0.734747 0.186103 0.844273
O O12 0.806776 0.250000 0.042828
O O13 0.711603 0.368788 0.037778
O O14 0.000000 0.343353 0.030794
O O15 0.817396 0.310227 0.948669
O O16 0.000000 0.868488 0.614480
O O17 0.500000 0.857847 0.371524
#
# Coordination Sequence:
#
# PCOD8299896 Si02
#       6
#    16  16   8  16  16  16
#     4  10  21  38  59  82 112 150 193 242 294 347
#     4  10  21  38  57  85 125 166 206 248 301 364
#     4  12  26  46  72  96 126 164 207 260 319 376
#     4  10  20  34  53  82 121 157 194 245 299 355
#     4  11  22  35  55  84 120 158 201 245 290 353
#     4  11  22  39  63  92 123 157 203 253 307 368
#
# _framework density 19.58023
#
# number of rings (size 3 to 8) (size 9 to 14) (size 15 to 20)
#    0.000    1.455    2.727    3.000    0.000    6.182 
#    0.000    0.909    0.000    4.364    0.000    0.000 
#    0.000    0.000    0.000    0.000    0.000    0.000 
#
# Total GULP energy -545465.978202 kJ/mol
# GULP energy per Si atom -12396.954050 kJ/mol
# Density = 1.953566 g / cm^3
# Si number density = 19.580230 Si / 1000 Ang^3
#
#
#
# Elastic Constant Matrix: (Units=GPa)
#
#
# Indices 1 2 3 4 5 6 
#
# 1 117.1872 55.1195 45.6321 0.0000 0.0000 0.0000
# 2 55.1195 106.4317 39.6975 0.0000 0.0000 0.0000
# 3 45.6321 39.6975 96.4459 0.0000 0.0000 0.0000
# 4 0.0000 0.0000 0.0000 9.6696 0.0000 0.0000
# 5 0.0000 0.0000 0.0000 0.0000 35.2960 0.0000
# 6 0.0000 0.0000 0.0000 0.0000 0.0000 28.4238
#
#
#
# Elastic Compliance Matrix: (Units=1/GPa)
#
#
# Indices 1 2 3 4 5 6 
#
# 1 0.012355 -0.004983 -0.003794 0.000000 0.000000 0.000000
# 2 -0.004983 0.013110 -0.003038 0.000000 0.000000 0.000000
# 3 -0.003794 -0.003038 0.013414 0.000000 0.000000 0.000000
# 4 0.000000 0.000000 0.000000 0.103417 0.000000 0.000000
# 5 0.000000 0.000000 0.000000 0.000000 0.028332 0.000000
# 6 0.000000 0.000000 0.000000 0.000000 0.000000 0.035182
#
#
# Mechanical properties :
#
#
# Convention : Reuss Voigt Hill
#
# Bulk Modulus (GPa) = 65.58618 66.77367 66.17992
# Shear Modulus (GPa) = 21.31984 26.65225 23.98605
#
# Velocity S-wave (km/s) = 3.30335 3.69342 3.50382
# Velocity P-wave (km/s) = 6.93673 7.23637 7.08814
#
# Compressibility (1/GPa) = 0.01524712
#
# Stress axis : x y z
#
# Youngs Moduli (GPa) = 80.94095 76.28005 74.54700
#
# Poissons Ratio (x) = 0.38011 0.28286
# Poissons Ratio (y) = 0.40333 0.22649
# Poissons Ratio (z) = 0.30712 0.23176
#
# Static dielectric constant tensor:
#      x y z
#    x 3.611920 0.000000 0.000000 
#    y 0.000000 3.563360 0.000000 
#    z 0.000000 0.000000 3.494850 
# 
# 
# High freq. dielectric constant tensor:
#      x y z
#    x 1.768690 0.000000 0.000000 
#    y 0.000000 1.762500 0.000000 
#    z 0.000000 0.000000 1.747340 
# 
# From -- ./inp_files/57005.got.cif
#   From: 2010.03.12/outbox.cif.g09.slc.cpg/sg74_29_cif.got.tgz:57005.got - 2010.04.16 15:46:19.
