data_PCOD8299101
_publ_section_title
;
Structure prediction by ZEFSAII (Michael W. Deem and Ramdas Pophale) SiO2 
 PCOD8299101
Probable space group: I M M A
;
_chemical_formula_sum "Si O2"
_cell_formula_units_Z 72
_cell_length_a 15.097419
_cell_length_b 26.176680
_cell_length_c 9.530270
_cell_angle_alpha 90.000000
_cell_angle_beta 90.000000
_cell_angle_gamma 90.000000
_cell_volume 3766.365620
_symmetry_space_group_name_H-M "I M M A"
_symmetry_group_IT_number 74
_symmetry_cell_setting 'orthorhombic'
loop_
_space_group_symop_operation_xyz
x,y,z
-x,1/2-y,z
x,-y,-z
-x,1/2+y,-z
-x,-y,-z
x,1/2+y,-z
-x,y,z
x,1/2-y,z
1/2+x,1/2+y,1/2+z
1/2-x,-y,1/2+z
1/2+x,1/2-y,1/2-z
1/2-x,y,1/2-z
1/2-x,1/2-y,1/2-z
1/2+x,y,1/2-z
1/2-x,1/2+y,1/2+z
1/2+x,-y,1/2+z
loop_
_atom_site_type_symbol
_atom_site_label
_atom_site_fract_x
_atom_site_fract_y
_atom_site_fract_z
Si Si1 0.099572 0.522615 0.846117
Si Si2 0.751550 0.358042 0.594373
Si Si3 0.398162 0.639775 0.617021
Si Si4 0.250000 0.956050 0.250000
Si Si5 0.602105 0.809048 0.908692
O O1 0.125392 0.581946 0.842192
O O2 0.163581 0.491610 0.742982
O O3 0.000000 0.514900 0.790201
O O4 0.110097 0.500000 0.000000
O O5 0.750000 0.332342 0.750000
O O6 0.664129 0.340981 0.509403
O O7 0.751677 0.419883 0.611522
O O8 0.840269 0.341962 0.515400
O O9 0.500000 0.644654 0.567132
O O10 0.377338 0.675296 0.749373
O O11 0.500000 0.820063 0.945034
O O12 0.626506 0.750000 0.926378
#
# Coordination Sequence:
#
# PCOD8299101 Si02
#       5
#    16  16  16   8  16
#     4  10  19  34  56  81 116 159 195 236 290 347
#     4  10  22  37  57  91 118 155 191 243 290 352
#     4  10  21  38  61  87 115 155 204 246 289 348
#     4  10  22  32  53  92 117 154 194 240 286 350
#     4  10  23  43  64  86 116 154 197 249 302 346
#
# _framework density 19.116572000000001
#
# number of rings (size 3 to 8) (size 9 to 14) (size 15 to 20)
#    0.667    1.333    2.222    0.667    3.111    4.000 
#    0.000    0.000    0.000    7.333    0.000    0.000 
#    0.000    0.000    0.000    0.000    0.000    0.000 
#
# Total GULP energy -446368.986667 kJ/mol
# GULP energy per Si atom -12399.138519 kJ/mol
# Density = 1.907306 g / cm^3
# Si number density = 19.116572 Si / 1000 Ang^3
#
#
#
# Elastic Constant Matrix: (Units=GPa)
#
#
# Indices 1 2 3 4 5 6 
#
# 1 130.8843 49.2550 73.5946 -0.0008 0.0004 -0.0007
# 2 49.2550 63.7938 24.2530 -0.0012 -0.0001 -0.0001
# 3 73.5946 24.2530 97.0568 -0.0037 -0.0048 -0.0021
# 4 -0.0008 -0.0012 -0.0037 25.1441 -0.0008 0.0010
# 5 0.0004 -0.0001 -0.0048 -0.0008 33.2313 0.0015
# 6 -0.0007 -0.0001 -0.0021 0.0010 0.0015 19.0220
#
#
#
# Elastic Compliance Matrix: (Units=1/GPa)
#
#
# Indices 1 2 3 4 5 6 
#
# 1 0.017071 -0.009126 -0.010664 -0.000001 -0.000002 -0.000001
# 2 -0.009126 0.022200 0.001373 0.000001 0.000000 0.000000
# 3 -0.010664 0.001373 0.018046 0.000002 0.000003 0.000002
# 4 -0.000001 0.000001 0.000002 0.039771 0.000001 -0.000002
# 5 -0.000002 0.000000 0.000003 0.000001 0.030092 -0.000002
# 6 -0.000001 0.000000 0.000002 -0.000002 -0.000002 0.052571
#
#
# Mechanical properties :
#
#
# Convention : Reuss Voigt Hill
#
# Bulk Modulus (GPa) = 48.82236 65.10446 56.96341
# Shear Modulus (GPa) = 22.38012 25.12163 23.75088
#
# Velocity S-wave (km/s) = 3.42529 3.62902 3.52863
# Velocity P-wave (km/s) = 6.42170 7.18959 6.81647
#
# Compressibility (1/GPa) = 0.02048242
#
# Stress axis : x y z
#
# Youngs Moduli (GPa) = 58.57948 45.04504 55.41360
#
# Poissons Ratio (x) = 0.41109 0.59091
# Poissons Ratio (y) = 0.53461 -0.07606
# Poissons Ratio (z) = 0.62467 -0.06183
#
# Static dielectric constant tensor:
#      x y z
#    x 3.586570 0.000000 0.000000 
#    y 0.000000 3.459520 -0.000010 
#    z 0.000000 -0.000010 3.269360 
# 
# 
# High freq. dielectric constant tensor:
#      x y z
#    x 1.754710 0.000000 0.000000 
#    y 0.000000 1.739730 0.000000 
#    z 0.000000 0.000000 1.725610 
# 
# From -- ./inp_files/9333.got.cif
#   From: 2010.03.12/outbox.cif.g09.slc.cpg/sg74_5_cif.got.tgz:9333.got - 2010.04.16 15:46:19.
