data_PCOD8299025
_publ_section_title
;
Structure prediction by ZEFSAII (Michael W. Deem and Ramdas Pophale) SiO2 
 PCOD8299025
Probable space group: I M M A
;
_chemical_formula_sum "Si O2"
_cell_formula_units_Z 96
_cell_length_a 21.794787
_cell_length_b 12.591255
_cell_length_c 21.048881
_cell_angle_alpha 90.000000
_cell_angle_beta 90.000000
_cell_angle_gamma 90.000000
_cell_volume 5776.312242
_symmetry_space_group_name_H-M "I M M A"
_symmetry_group_IT_number 74
_symmetry_cell_setting 'orthorhombic'
loop_
_space_group_symop_operation_xyz
x,y,z
-x,1/2-y,z
x,-y,-z
-x,1/2+y,-z
-x,-y,-z
x,1/2+y,-z
-x,y,z
x,1/2-y,z
1/2+x,1/2+y,1/2+z
1/2-x,-y,1/2+z
1/2+x,1/2-y,1/2-z
1/2-x,y,1/2-z
1/2-x,1/2-y,1/2-z
1/2+x,y,1/2-z
1/2-x,1/2+y,1/2+z
1/2+x,-y,1/2+z
loop_
_atom_site_type_symbol
_atom_site_label
_atom_site_fract_x
_atom_site_fract_y
_atom_site_fract_z
Si Si1 0.810042 0.049035 0.566060
Si Si2 0.846419 0.750000 0.233734
Si Si3 0.651639 0.132212 0.282498
Si Si4 0.932407 0.626285 0.391329
Si Si5 0.272490 0.632308 0.845416
Si Si6 0.733361 0.750000 0.140377
Si Si7 0.430059 0.943251 0.249239
O O1 0.880786 0.087802 0.559101
O O2 0.770543 0.146699 0.594694
O O3 0.785291 0.000000 0.500000
O O4 0.808174 0.950809 0.612685
O O5 0.796517 0.750000 0.178250
O O6 0.819547 0.750000 0.305649
O O7 0.887741 0.647700 0.221616
O O8 0.624724 0.250000 0.294744
O O9 0.692567 0.131287 0.220353
O O10 0.700372 0.100767 0.337829
O O11 0.594220 0.053836 0.277602
O O12 0.922902 0.750000 0.374142
O O13 0.926038 0.558580 0.326983
O O14 0.000000 0.608279 0.421566
O O15 0.276696 0.750000 0.876062
O O16 0.500000 0.927135 0.271779
#
# Coordination Sequence:
#
# PCOD8299025 Si02
#       7
#    16   8  16  16  16   8  16
#     4  12  22  33  52  71 104 133 178 216 250 301
#     4  11  19  34  60  74 107 123 174 224 264 339
#     4   9  17  31  49  68  98 133 172 202 243 317
#     4  10  19  34  50  67  99 137 181 219 253 293
#     4   9  18  32  49  70  93 134 172 205 258 295
#     4  11  22  36  52  84  96 137 174 214 282 299
#     4  11  18  28  49  77 104 131 161 209 270 308
#
# _framework density 16.619599999999998
#
# number of rings (size 3 to 8) (size 9 to 14) (size 15 to 20)
#    0.000    1.667    5.000    2.250    1.167    3.333 
#    0.000    0.000    0.000    0.500    0.000    0.000 
#    0.000   16.667    0.000    0.000    0.000    0.000 
#
# Total GULP energy -594861.998168 kJ/mol
# GULP energy per Si atom -12392.958295 kJ/mol
# Density = 1.658177 g / cm^3
# Si number density = 16.619600 Si / 1000 Ang^3
#
#
#
# Elastic Constant Matrix: (Units=GPa)
#
#
# Indices 1 2 3 4 5 6 
#
# 1 98.7900 49.1062 25.0596 0.0000 0.0000 0.0000
# 2 49.1062 104.7792 27.9623 0.0000 0.0000 0.0000
# 3 25.0596 27.9623 43.3593 0.0000 0.0000 0.0000
# 4 0.0000 0.0000 0.0000 18.3695 0.0000 0.0000
# 5 0.0000 0.0000 0.0000 0.0000 15.3237 0.0000
# 6 0.0000 0.0000 0.0000 0.0000 0.0000 12.9245
#
#
#
# Elastic Compliance Matrix: (Units=1/GPa)
#
#
# Indices 1 2 3 4 5 6 
#
# 1 0.013929 -0.005290 -0.004639 0.000000 0.000000 0.000000
# 2 -0.005290 0.013537 -0.005673 0.000000 0.000000 0.000000
# 3 -0.004639 -0.005673 0.029402 0.000000 0.000000 0.000000
# 4 0.000000 0.000000 0.000000 0.054438 0.000000 0.000000
# 5 0.000000 0.000000 0.000000 0.000000 0.065258 0.000000
# 6 0.000000 0.000000 0.000000 0.000000 0.000000 0.077372
#
#
# Mechanical properties :
#
#
# Convention : Reuss Voigt Hill
#
# Bulk Modulus (GPa) = 38.96283 50.13164 44.54724
# Shear Modulus (GPa) = 17.02454 18.97692 18.00073
#
# Velocity S-wave (km/s) = 3.20404 3.38278 3.29462
# Velocity P-wave (km/s) = 6.09776 6.74442 6.42923
#
# Compressibility (1/GPa) = 0.02566549
#
# Stress axis : x y z
#
# Youngs Moduli (GPa) = 71.79447 73.87204 34.01107
#
# Poissons Ratio (x) = 0.39078 0.15776
# Poissons Ratio (y) = 0.37979 0.19293
# Poissons Ratio (z) = 0.33303 0.41905
#
# Static dielectric constant tensor:
#      x y z
#    x 3.254610 0.000000 0.000000 
#    y 0.000000 3.561850 0.000000 
#    z 0.000000 0.000000 1.491150 
# 
# 
# High freq. dielectric constant tensor:
#      x y z
#    x 1.636690 0.000000 0.000000 
#    y 0.000000 1.655920 0.000000 
#    z 0.000000 0.000000 1.588130 
# 
# From -- ./inp_files/50940.got.cif
#   From: 2010.03.12/outbox.cif.g09.slc.cpg/sg74_26_cif.got.tgz:50940.got - 2010.04.16 15:46:19.
