data_PCOD8299732
_publ_section_title
;
Structure prediction by ZEFSAII (Michael W. Deem and Ramdas Pophale) SiO2 
 PCOD8299732
Probable space group: I M M A
;
_chemical_formula_sum "Si O2"
_cell_formula_units_Z 96
_cell_length_a 8.951034
_cell_length_b 18.384708
_cell_length_c 27.901665
_cell_angle_alpha 90.000000
_cell_angle_beta 90.000000
_cell_angle_gamma 90.000000
_cell_volume 4591.557880
_symmetry_space_group_name_H-M "I M M A"
_symmetry_group_IT_number 74
_symmetry_cell_setting 'orthorhombic'
loop_
_space_group_symop_operation_xyz
x,y,z
-x,1/2-y,z
x,-y,-z
-x,1/2+y,-z
-x,-y,-z
x,1/2+y,-z
-x,y,z
x,1/2-y,z
1/2+x,1/2+y,1/2+z
1/2-x,-y,1/2+z
1/2+x,1/2-y,1/2-z
1/2-x,y,1/2-z
1/2-x,1/2-y,1/2-z
1/2+x,y,1/2-z
1/2-x,1/2+y,1/2+z
1/2+x,-y,1/2+z
loop_
_atom_site_type_symbol
_atom_site_label
_atom_site_fract_x
_atom_site_fract_y
_atom_site_fract_z
Si Si1 0.830556 0.432556 0.875614
Si Si2 0.164343 0.671220 0.208508
Si Si3 0.322356 0.537558 0.800403
Si Si4 0.324888 0.166097 0.347195
Si Si5 0.336519 0.335093 0.453213
Si Si6 0.675426 0.666008 0.048292
O O1 0.834838 0.362349 0.842995
O O2 0.739159 0.493267 0.846543
O O3 0.751961 0.399876 0.922612
O O4 0.000000 0.460113 0.886913
O O5 0.242166 0.750000 0.202442
O O6 0.250000 0.625604 0.250000
O O7 0.000000 0.678798 0.228987
O O8 0.500000 0.529036 0.796997
O O9 0.250000 0.511459 0.750000
O O10 0.274329 0.620904 0.809569
O O11 0.500000 0.155207 0.335935
O O12 0.278017 0.250000 0.341364
O O13 0.288495 0.135282 0.400876
O O14 0.500000 0.366864 0.468196
O O15 0.354593 0.250000 0.446070
O O16 0.213826 0.353625 0.493212
O O17 0.500000 0.660807 0.056411
O O18 0.729605 0.750000 0.059752
#
# Coordination Sequence:
#
# PCOD8299732 Si02
#       6
#    16  16  16  16  16  16
#     4  11  22  37  56  77 108 152 199 243 288 338
#     4   9  18  31  48  71  97 130 176 229 281 330
#     4  12  26  43  62  85 116 152 191 236 290 351
#     4   9  19  39  67  95 120 147 184 231 285 348
#     4   8  15  31  57  87 118 152 188 229 281 340
#     4  10  20  33  53  85 123 160 199 242 285 333
#
# _framework density 20.907934999999998
#
# number of rings (size 3 to 8) (size 9 to 14) (size 15 to 20)
#    0.000    2.167    0.000    4.500    0.000    5.667 
#    0.000    4.167    0.000    5.000    0.000    0.000 
#    0.000    0.000    0.000    0.000    0.000    0.000 
#
# Total GULP energy -594631.299471 kJ/mol
# GULP energy per Si atom -12388.152072 kJ/mol
# Density = 2.086035 g / cm^3
# Si number density = 20.907935 Si / 1000 Ang^3
#
#
#
# Elastic Constant Matrix: (Units=GPa)
#
#
# Indices 1 2 3 4 5 6 
#
# 1 113.0185 38.9397 36.4162 0.0000 0.0000 0.0000
# 2 38.9397 72.4117 28.0204 0.0000 0.0000 0.0000
# 3 36.4162 28.0204 75.5971 0.0000 0.0000 0.0000
# 4 0.0000 0.0000 0.0000 102.4298 0.0000 0.0000
# 5 0.0000 0.0000 0.0000 0.0000 34.7825 0.0000
# 6 0.0000 0.0000 0.0000 0.0000 0.0000 29.0331
#
#
#
# Elastic Compliance Matrix: (Units=1/GPa)
#
#
# Indices 1 2 3 4 5 6 
#
# 1 0.011759 -0.004823 -0.003877 0.000000 0.000000 0.000000
# 2 -0.004823 0.018101 -0.004386 0.000000 0.000000 0.000000
# 3 -0.003877 -0.004386 0.016721 0.000000 0.000000 0.000000
# 4 0.000000 0.000000 0.000000 0.009763 0.000000 0.000000
# 5 0.000000 0.000000 0.000000 0.000000 0.028750 0.000000
# 6 0.000000 0.000000 0.000000 0.000000 0.000000 0.034443
#
#
# Mechanical properties :
#
#
# Convention : Reuss Voigt Hill
#
# Bulk Modulus (GPa) = 48.99690 51.97553 50.48621
# Shear Modulus (GPa) = 32.78433 43.75916 38.27175
#
# Velocity S-wave (km/s) = 3.96414 4.57983 4.28306
# Velocity P-wave (km/s) = 6.66618 7.27184 6.97559
#
# Compressibility (1/GPa) = 0.02040945
#
# Stress axis : x y z
#
# Youngs Moduli (GPa) = 85.04056 55.24623 59.80480
#
# Poissons Ratio (x) = 0.26647 0.23185
# Poissons Ratio (y) = 0.41018 0.26228
# Poissons Ratio (z) = 0.32968 0.24229
#
# Static dielectric constant tensor:
#      x y z
#    x 3.747090 0.000000 0.000000 
#    y 0.000000 3.671240 0.000000 
#    z 0.000000 0.000000 3.842330 
# 
# 
# High freq. dielectric constant tensor:
#      x y z
#    x 1.810540 0.000000 0.000000 
#    y 0.000000 1.806040 0.000000 
#    z 0.000000 0.000000 1.818890 
# 
# From -- ./inp_files/64287.got.cif
#   From: 2010.03.12/outbox.cif.g09.slc.cpg/sg74_33_cif.got.tgz:64287.got - 2010.04.16 15:46:19.
