data_PCOD8299494
_publ_section_title
;
Structure prediction by ZEFSAII (Michael W. Deem and Ramdas Pophale) SiO2 
 PCOD8299494
Probable space group: I M M A
;
_chemical_formula_sum "Si O2"
_cell_formula_units_Z 80
_cell_length_a 9.880461
_cell_length_b 13.782503
_cell_length_c 33.712934
_cell_angle_alpha 90.000000
_cell_angle_beta 90.000000
_cell_angle_gamma 90.000000
_cell_volume 4590.942509
_symmetry_space_group_name_H-M "I M M A"
_symmetry_group_IT_number 74
_symmetry_cell_setting 'orthorhombic'
loop_
_space_group_symop_operation_xyz
x,y,z
-x,1/2-y,z
x,-y,-z
-x,1/2+y,-z
-x,-y,-z
x,1/2+y,-z
-x,y,z
x,1/2-y,z
1/2+x,1/2+y,1/2+z
1/2-x,-y,1/2+z
1/2+x,1/2-y,1/2-z
1/2-x,y,1/2-z
1/2-x,1/2-y,1/2-z
1/2+x,y,1/2-z
1/2-x,1/2+y,1/2+z
1/2+x,-y,1/2+z
loop_
_atom_site_type_symbol
_atom_site_label
_atom_site_fract_x
_atom_site_fract_y
_atom_site_fract_z
Si Si1 0.348220 0.635071 0.019650
Si Si2 0.845821 0.359176 0.911902
Si Si3 0.343947 0.637525 0.713767
Si Si4 0.654943 0.044603 0.367610
Si Si5 0.151641 0.635315 0.568307
O O1 0.500000 0.606244 0.032749
O O2 0.332392 0.750000 0.017295
O O3 0.244744 0.595801 0.052737
O O4 0.317158 0.591335 0.975772
O O5 0.801118 0.250000 0.899815
O O6 0.828696 0.428500 0.873557
O O7 0.000000 0.359986 0.927119
O O8 0.500000 0.618200 0.725220
O O9 0.320037 0.750000 0.703087
O O10 0.250000 0.604590 0.750000
O O11 0.297289 0.573160 0.676359
O O12 0.500000 0.077867 0.373545
O O13 0.741564 0.099648 0.400078
O O14 0.161653 0.750000 0.565644
O O15 0.000000 0.604366 0.581249
#
# Coordination Sequence:
#
# PCOD8299494 Si02
#       5
#    16  16  16  16  16
#     4   8  15  29  46  63  88 124 162 198 236 275
#     4   9  18  32  48  66  90 123 163 201 234 270
#     4   9  18  33  52  73  96 120 145 176 220 277
#     4  10  20  32  48  71  96 122 154 193 235 276
#     4   9  18  31  46  67  96 127 158 193 234 280
#
# _framework density 17.425616000000002
#
# number of rings (size 3 to 8) (size 9 to 14) (size 15 to 20)
#    0.000    3.000    0.000    1.800    0.000    4.400 
#    0.000    8.000    0.000    0.600    0.000    0.000 
#    0.000    0.000    0.000    0.000    0.000    0.000 
#
# Total GULP energy -495865.661815 kJ/mol
# GULP energy per Si atom -12396.641545 kJ/mol
# Density = 1.738595 g / cm^3
# Si number density = 17.425616 Si / 1000 Ang^3
#
#
#
# Elastic Constant Matrix: (Units=GPa)
#
#
# Indices 1 2 3 4 5 6 
#
# 1 80.3103 33.6001 75.7889 0.0000 0.0000 0.0000
# 2 33.6001 33.9270 56.4961 0.0000 0.0000 0.0000
# 3 75.7889 56.4961 145.2074 0.0000 0.0000 0.0000
# 4 0.0000 0.0000 0.0000 28.8600 0.0000 0.0000
# 5 0.0000 0.0000 0.0000 0.0000 32.2868 0.0000
# 6 0.0000 0.0000 0.0000 0.0000 0.0000 16.6502
#
#
#
# Elastic Compliance Matrix: (Units=1/GPa)
#
#
# Indices 1 2 3 4 5 6 
#
# 1 0.025421 -0.008752 -0.009863 0.000000 0.000000 0.000000
# 2 -0.008752 0.086723 -0.029174 0.000000 0.000000 0.000000
# 3 -0.009863 -0.029174 0.023385 0.000000 0.000000 0.000000
# 4 0.000000 0.000000 0.000000 0.034650 0.000000 0.000000
# 5 0.000000 0.000000 0.000000 0.000000 0.030972 0.000000
# 6 0.000000 0.000000 0.000000 0.000000 0.000000 0.060059
#
#
# Mechanical properties :
#
#
# Convention : Reuss Voigt Hill
#
# Bulk Modulus (GPa) = 25.02984 65.69052 45.36018
# Shear Modulus (GPa) = 13.50966 21.79673 17.65320
#
# Velocity S-wave (km/s) = 2.78740 3.54056 3.18631
# Velocity P-wave (km/s) = 4.97539 7.38198 6.29476
#
# Compressibility (1/GPa) = 0.03995231
#
# Stress axis : x y z
#
# Youngs Moduli (GPa) = 39.33752 11.53095 42.76217
#
# Poissons Ratio (x) = 0.10092 0.42176
# Poissons Ratio (y) = 0.34428 1.24752
# Poissons Ratio (z) = 0.38799 0.33640
#
# Static dielectric constant tensor:
#      x y z
#    x 3.339930 0.000000 0.000000 
#    y 0.000000 3.295800 0.000000 
#    z 0.000000 0.000000 3.217660 
# 
# 
# High freq. dielectric constant tensor:
#      x y z
#    x 1.675080 0.000000 0.000000 
#    y 0.000000 1.673640 0.000000 
#    z 0.000000 0.000000 1.649920 
# 
# From -- ./inp_files/58482.got.cif
#   From: 2010.03.12/outbox.cif.g09.slc.cpg/sg74_30_cif.got.tgz:58482.got - 2010.04.16 15:46:19.
