data_PCOD8299766
_publ_section_title
;
Structure prediction by ZEFSAII (Michael W. Deem and Ramdas Pophale) SiO2 
 PCOD8299766
Probable space group: I M M A
;
_chemical_formula_sum "Si O2"
_cell_formula_units_Z 112
_cell_length_a 27.971637
_cell_length_b 9.636279
_cell_length_c 23.855861
_cell_angle_alpha 90.000000
_cell_angle_beta 90.000000
_cell_angle_gamma 90.000000
_cell_volume 6430.168371
_symmetry_space_group_name_H-M "I M M A"
_symmetry_group_IT_number 74
_symmetry_cell_setting 'orthorhombic'
loop_
_space_group_symop_operation_xyz
x,y,z
-x,1/2-y,z
x,-y,-z
-x,1/2+y,-z
-x,-y,-z
x,1/2+y,-z
-x,y,z
x,1/2-y,z
1/2+x,1/2+y,1/2+z
1/2-x,-y,1/2+z
1/2+x,1/2-y,1/2-z
1/2-x,y,1/2-z
1/2-x,1/2-y,1/2-z
1/2+x,y,1/2-z
1/2-x,1/2+y,1/2+z
1/2+x,-y,1/2+z
loop_
_atom_site_type_symbol
_atom_site_label
_atom_site_fract_x
_atom_site_fract_y
_atom_site_fract_z
Si Si1 0.055455 0.413541 0.444131
Si Si2 0.553239 0.406608 0.628433
Si Si3 0.901915 0.093254 0.218485
Si Si4 0.120366 0.412907 0.340294
Si Si5 0.139429 0.088787 0.945947
Si Si6 0.721487 0.094029 0.198080
Si Si7 0.816493 0.902150 0.858479
O O1 0.068404 0.500000 0.500000
O O2 0.063611 0.250000 0.455731
O O3 0.090643 0.469580 0.394141
O O4 0.000000 0.440079 0.426941
O O5 0.500000 0.432444 0.607020
O O6 0.562207 0.250000 0.648595
O O7 0.563253 0.499974 0.682032
O O8 0.585710 0.440722 0.574844
O O9 0.918675 0.250000 0.208660
O O10 0.908798 0.052904 0.283571
O O11 0.846234 0.073218 0.199610
O O12 0.126221 0.250000 0.349530
O O13 0.173848 0.477557 0.328967
O O14 0.150017 0.250000 0.957091
O O15 0.174525 0.031052 0.898797
O O16 0.149645 0.000000 0.000000
O O17 0.707021 0.250000 0.218604
O O18 0.750000 0.018380 0.250000
O O19 0.759905 0.099543 0.148686
O O20 0.832306 0.750000 0.882884
#
# Coordination Sequence:
#
# PCOD8299766 Si02
#       7
#    16  16  16  16  16  16  16
#     4   9  18  33  51  69  93 127 164 203 247 289
#     4   9  19  34  48  65  94 128 157 194 247 296
#     4   9  16  27  46  72  98 123 154 192 233 284
#     4   9  16  27  47  76 103 126 159 201 240 282
#     4  10  20  34  51  68  90 123 164 204 243 287
#     4   9  14  24  46  76 104 129 157 191 232 282
#     4   9  16  28  48  72  98 126 157 190 230 283
#
# _framework density 17.417895000000001
#
# number of rings (size 3 to 8) (size 9 to 14) (size 15 to 20)
#    0.000    2.857    1.429    0.429    0.000    1.714 
#    0.000    2.857    0.000    5.571    0.000    0.000 
#    0.000    0.000    0.000    0.000    0.000    0.000 
#
# Total GULP energy -693751.461225 kJ/mol
# GULP energy per Si atom -12388.418950 kJ/mol
# Density = 1.737825 g / cm^3
# Si number density = 17.417895 Si / 1000 Ang^3
#
#
#
# Elastic Constant Matrix: (Units=GPa)
#
#
# Indices 1 2 3 4 5 6 
#
# 1 74.9324 17.8387 35.6474 0.0000 0.0000 0.0000
# 2 17.8387 54.5624 38.3142 0.0000 0.0000 0.0000
# 3 35.6474 38.3142 105.5713 0.0000 0.0000 0.0000
# 4 0.0000 0.0000 0.0000 25.1429 0.0000 0.0000
# 5 0.0000 0.0000 0.0000 0.0000 18.7312 0.0000
# 6 0.0000 0.0000 0.0000 0.0000 0.0000 4.8358
#
#
#
# Elastic Compliance Matrix: (Units=1/GPa)
#
#
# Indices 1 2 3 4 5 6 
#
# 1 0.016050 -0.001935 -0.004717 0.000000 0.000000 0.000000
# 2 -0.001935 0.024829 -0.008358 0.000000 0.000000 0.000000
# 3 -0.004717 -0.008358 0.014098 0.000000 0.000000 0.000000
# 4 0.000000 0.000000 0.000000 0.039773 0.000000 0.000000
# 5 0.000000 0.000000 0.000000 0.000000 0.053387 0.000000
# 6 0.000000 0.000000 0.000000 0.000000 0.000000 0.206792
#
#
# Mechanical properties :
#
#
# Convention : Reuss Voigt Hill
#
# Bulk Modulus (GPa) = 40.06773 46.51851 43.29312
# Shear Modulus (GPa) = 12.71397 19.29304 16.00351
#
# Velocity S-wave (km/s) = 2.70467 3.33176 3.03445
# Velocity P-wave (km/s) = 5.72777 6.44718 6.09809
#
# Compressibility (1/GPa) = 0.02495774
#
# Stress axis : x y z
#
# Youngs Moduli (GPa) = 62.30475 40.27535 70.93054
#
# Poissons Ratio (x) = 0.07793 0.33460
# Poissons Ratio (y) = 0.12056 0.59281
# Poissons Ratio (z) = 0.29391 0.33661
#
# Static dielectric constant tensor:
#      x y z
#    x 3.348260 0.000000 0.000000 
#    y 0.000000 3.031520 0.000000 
#    z 0.000000 0.000000 3.183450 
# 
# 
# High freq. dielectric constant tensor:
#      x y z
#    x 1.671660 0.000000 0.000000 
#    y 0.000000 1.638730 0.000000 
#    z 0.000000 0.000000 1.663430 
# 
# From -- ./inp_files/55396.got.cif
#   From: 2010.03.12/outbox.cif.g09.slc.cpg/sg74_28_cif.got.tgz:55396.got - 2010.04.16 15:46:19.
