data_PCOD8299315
_publ_section_title
;
Structure prediction by ZEFSAII (Michael W. Deem and Ramdas Pophale) SiO2 
 PCOD8299315
Probable space group: I M M A
;
_chemical_formula_sum "Si O2"
_cell_formula_units_Z 96
_cell_length_a 22.816288
_cell_length_b 18.303637
_cell_length_c 12.085899
_cell_angle_alpha 90.000000
_cell_angle_beta 90.000000
_cell_angle_gamma 90.000000
_cell_volume 5047.325870
_symmetry_space_group_name_H-M "I M M A"
_symmetry_group_IT_number 74
_symmetry_cell_setting 'orthorhombic'
loop_
_space_group_symop_operation_xyz
x,y,z
-x,1/2-y,z
x,-y,-z
-x,1/2+y,-z
-x,-y,-z
x,1/2+y,-z
-x,y,z
x,1/2-y,z
1/2+x,1/2+y,1/2+z
1/2-x,-y,1/2+z
1/2+x,1/2-y,1/2-z
1/2-x,y,1/2-z
1/2-x,1/2-y,1/2-z
1/2+x,y,1/2-z
1/2-x,1/2+y,1/2+z
1/2+x,-y,1/2+z
loop_
_atom_site_type_symbol
_atom_site_label
_atom_site_fract_x
_atom_site_fract_y
_atom_site_fract_z
Si Si1 0.885871 0.576082 0.055842
Si Si2 0.305938 0.168517 0.400436
Si Si3 0.500000 0.335721 0.609100
Si Si4 0.107325 0.417990 0.527692
Si Si5 0.500000 0.835033 0.131301
Si Si6 0.314122 0.951765 0.225545
Si Si7 0.680998 0.381587 0.169120
O O1 0.942443 0.627911 0.056891
O O2 0.860781 0.564344 0.178368
O O3 0.904548 0.500000 0.000000
O O4 0.835102 0.612046 0.983577
O O5 0.314390 0.250000 0.447420
O O6 0.335016 0.164796 0.278131
O O7 0.237512 0.150236 0.392378
O O8 0.500000 0.250000 0.580110
O O9 0.500000 0.350057 0.739107
O O10 0.085788 0.500000 0.500000
O O11 0.056201 0.371217 0.578480
O O12 0.161988 0.417775 0.611828
O O13 0.126735 0.378545 0.414689
O O14 0.500000 0.750000 0.103485
O O15 0.250000 0.916922 0.250000
O O16 0.305399 0.037339 0.210145
#
# Coordination Sequence:
#
# PCOD8299315 Si02
#       7
#    16  16   8  16   8  16  16
#     4  12  22  40  64  91 119 156 210 253 295 352
#     4  11  22  37  60  90 130 166 191 237 306 370
#     4  11  25  44  63  83 119 162 201 254 312 358
#     4  10  22  38  63  89 115 156 200 253 298 346
#     4  11  23  42  61  81 115 160 201 246 304 358
#     4  11  19  35  61  93 122 151 201 252 296 348
#     4  10  19  37  59  90 124 159 196 238 295 362
#
# _framework density 19.019971999999999
#
# number of rings (size 3 to 8) (size 9 to 14) (size 15 to 20)
#    0.000    1.167    5.000    3.000    0.000    2.667 
#    0.000    0.833    0.000    3.500    0.000    0.000 
#    0.000    0.000    0.000    0.000    0.000    0.000 
#
# Total GULP energy -595293.845313 kJ/mol
# GULP energy per Si atom -12401.955111 kJ/mol
# Density = 1.897668 g / cm^3
# Si number density = 19.019972 Si / 1000 Ang^3
#
#
#
# Elastic Constant Matrix: (Units=GPa)
#
#
# Indices 1 2 3 4 5 6 
#
# 1 58.0637 32.2651 13.2561 0.0000 0.0000 0.0000
# 2 32.2651 100.1648 34.2090 0.0000 0.0000 0.0000
# 3 13.2561 34.2090 64.8154 0.0000 0.0000 0.0000
# 4 0.0000 0.0000 0.0000 17.7242 0.0000 0.0000
# 5 0.0000 0.0000 0.0000 0.0000 25.6290 0.0000
# 6 0.0000 0.0000 0.0000 0.0000 0.0000 17.2532
#
#
#
# Elastic Compliance Matrix: (Units=1/GPa)
#
#
# Indices 1 2 3 4 5 6 
#
# 1 0.021019 -0.006468 -0.000885 0.000000 0.000000 0.000000
# 2 -0.006468 0.014169 -0.006156 0.000000 0.000000 0.000000
# 3 -0.000885 -0.006156 0.018858 0.000000 0.000000 0.000000
# 4 0.000000 0.000000 0.000000 0.056420 0.000000 0.000000
# 5 0.000000 0.000000 0.000000 0.000000 0.039018 0.000000
# 6 0.000000 0.000000 0.000000 0.000000 0.000000 0.057960
#
#
# Mechanical properties :
#
#
# Convention : Reuss Voigt Hill
#
# Bulk Modulus (GPa) = 36.99738 42.50048 39.74893
# Shear Modulus (GPa) = 20.53618 21.67551 21.10584
#
# Velocity S-wave (km/s) = 3.28947 3.37949 3.33478
# Velocity P-wave (km/s) = 5.82422 6.13364 5.98093
#
# Compressibility (1/GPa) = 0.02702894
#
# Stress axis : x y z
#
# Youngs Moduli (GPa) = 47.57629 70.57437 53.02715
#
# Poissons Ratio (x) = 0.45650 0.04692
# Poissons Ratio (y) = 0.30774 0.32641
# Poissons Ratio (z) = 0.04210 0.43443
#
# Static dielectric constant tensor:
#      x y z
#    x 19.170830 0.000000 0.000000 
#    y 0.000000 3.548100 0.000000 
#    z 0.000000 0.000000 3.669250 
# 
# 
# High freq. dielectric constant tensor:
#      x y z
#    x 1.733200 0.000000 0.000000 
#    y 0.000000 1.736880 0.000000 
#    z 0.000000 0.000000 1.750740 
# 
# From -- ./inp_files/25223.got.cif
#   From: 2010.03.12/outbox.cif.g09.slc.cpg/sg74_13_cif.got.tgz:25223.got - 2010.04.16 15:46:19.
