data_PCOD8299667
_publ_section_title
;
Structure prediction by ZEFSAII (Michael W. Deem and Ramdas Pophale) SiO2 
 PCOD8299667
Probable space group: I M M A
;
_chemical_formula_sum "Si O2"
_cell_formula_units_Z 96
_cell_length_a 8.773555
_cell_length_b 23.617426
_cell_length_c 25.306064
_cell_angle_alpha 90.000000
_cell_angle_beta 90.000000
_cell_angle_gamma 90.000000
_cell_volume 5243.638799
_symmetry_space_group_name_H-M "I M M A"
_symmetry_group_IT_number 74
_symmetry_cell_setting 'orthorhombic'
loop_
_space_group_symop_operation_xyz
x,y,z
-x,1/2-y,z
x,-y,-z
-x,1/2+y,-z
-x,-y,-z
x,1/2+y,-z
-x,y,z
x,1/2-y,z
1/2+x,1/2+y,1/2+z
1/2-x,-y,1/2+z
1/2+x,1/2-y,1/2-z
1/2-x,y,1/2-z
1/2-x,1/2-y,1/2-z
1/2+x,y,1/2-z
1/2-x,1/2+y,1/2+z
1/2+x,-y,1/2+z
loop_
_atom_site_type_symbol
_atom_site_label
_atom_site_fract_x
_atom_site_fract_y
_atom_site_fract_z
Si Si1 0.180665 0.750000 0.931881
Si Si2 0.319767 0.944698 0.805788
Si Si3 0.177756 0.563927 0.195422
Si Si4 0.180167 0.365418 0.402110
Si Si5 0.677281 0.131123 0.592829
Si Si6 0.180147 0.250000 0.948198
Si Si7 0.819895 0.563081 0.498824
O O1 0.240391 0.695384 0.900765
O O2 0.000000 0.750000 0.931488
O O3 0.245675 0.750000 0.992032
O O4 0.500000 0.950245 0.800568
O O5 0.250000 0.925268 0.750000
O O6 0.272864 0.898416 0.849108
O O7 0.254552 0.005500 0.823451
O O8 0.250000 0.585563 0.250000
O O9 0.207862 0.613283 0.153047
O O10 0.000000 0.552180 0.203748
O O11 0.244492 0.400596 0.452148
O O12 0.000000 0.356936 0.406002
O O13 0.500000 0.125657 0.577830
O O14 0.737433 0.194988 0.583758
O O15 0.772701 0.089952 0.556152
O O16 0.000000 0.250000 0.951259
O O17 0.750441 0.500000 0.500000
O O18 0.000000 0.560375 0.503080
#
# Coordination Sequence:
#
# PCOD8299667 Si02
#       7
#     8  16  16  16  16   8  16
#     4  11  21  35  58  79 104 144 184 222 263 316
#     4  10  20  36  58  81 109 143 177 220 268 319
#     4  10  20  34  55  80 108 142 178 221 268 319
#     4  10  21  36  54  78 110 142 175 218 269 320
#     4  10  20  35  54  77 105 139 179 220 265 313
#     4   9  18  35  54  75 105 140 177 219 266 307
#     4  10  20  33  51  77 108 139 170 211 266 323
#
# _framework density 18.307896
#
# number of rings (size 3 to 8) (size 9 to 14) (size 15 to 20)
#    0.000    2.000    1.667    3.250    0.000    4.333 
#    0.000    1.250    0.000    0.000    0.000    0.000 
#    0.000    0.000    0.000    0.000    0.000    0.000 
#
# Total GULP energy -595300.307075 kJ/mol
# GULP energy per Si atom -12402.089731 kJ/mol
# Density = 1.826623 g / cm^3
# Si number density = 18.307896 Si / 1000 Ang^3
#
#
#
# Elastic Constant Matrix: (Units=GPa)
#
#
# Indices 1 2 3 4 5 6 
#
# 1 45.6868 27.5934 29.9128 0.0000 0.0000 0.0000
# 2 27.5934 141.1506 63.8946 0.0000 0.0000 0.0000
# 3 29.9128 63.8946 111.1276 0.0000 0.0000 0.0000
# 4 0.0000 0.0000 0.0000 33.8692 0.0000 0.0000
# 5 0.0000 0.0000 0.0000 0.0000 28.1057 0.0000
# 6 0.0000 0.0000 0.0000 0.0000 0.0000 15.4855
#
#
#
# Elastic Compliance Matrix: (Units=1/GPa)
#
#
# Indices 1 2 3 4 5 6 
#
# 1 0.027322 -0.002720 -0.005791 0.000000 0.000000 0.000000
# 2 -0.002720 0.009848 -0.004930 0.000000 0.000000 0.000000
# 3 -0.005791 -0.004930 0.013392 0.000000 0.000000 0.000000
# 4 0.000000 0.000000 0.000000 0.029525 0.000000 0.000000
# 5 0.000000 0.000000 0.000000 0.000000 0.035580 0.000000
# 6 0.000000 0.000000 0.000000 0.000000 0.000000 0.064576
#
#
# Mechanical properties :
#
#
# Convention : Reuss Voigt Hill
#
# Bulk Modulus (GPa) = 42.22813 60.08520 51.15666
# Shear Modulus (GPa) = 23.25374 27.26303 25.25839
#
# Velocity S-wave (km/s) = 3.56778 3.86312 3.71839
# Velocity P-wave (km/s) = 6.33148 7.26559 6.81456
#
# Compressibility (1/GPa) = 0.02368090
#
# Stress axis : x y z
#
# Youngs Moduli (GPa) = 36.60021 101.54243 74.67125
#
# Poissons Ratio (x) = 0.27619 0.43239
# Poissons Ratio (y) = 0.09955 0.36814
# Poissons Ratio (z) = 0.21194 0.50062
#
# Static dielectric constant tensor:
#      x y z
#    x 3.263920 0.000000 0.000000 
#    y 0.000000 3.533070 0.000000 
#    z 0.000000 0.000000 3.403660 
# 
# 
# High freq. dielectric constant tensor:
#      x y z
#    x 1.702500 0.000000 0.000000 
#    y 0.000000 1.712330 0.000000 
#    z 0.000000 0.000000 1.710390 
# 
# From -- ./inp_files/57372.got.cif
#   From: 2010.03.12/outbox.cif.g09.slc.cpg/sg74_29_cif.got.tgz:57372.got - 2010.04.16 15:46:19.
