data_PCOD8299787
_publ_section_title
;
Structure prediction by ZEFSAII (Michael W. Deem and Ramdas Pophale) SiO2 
 PCOD8299787
Probable space group: I M M A
;
_chemical_formula_sum "Si O2"
_cell_formula_units_Z 88
_cell_length_a 9.648642
_cell_length_b 18.110668
_cell_length_c 28.166064
_cell_angle_alpha 90.000000
_cell_angle_beta 90.000000
_cell_angle_gamma 90.000000
_cell_volume 4921.832434
_symmetry_space_group_name_H-M "I M M A"
_symmetry_group_IT_number 74
_symmetry_cell_setting 'orthorhombic'
loop_
_space_group_symop_operation_xyz
x,y,z
-x,1/2-y,z
x,-y,-z
-x,1/2+y,-z
-x,-y,-z
x,1/2+y,-z
-x,y,z
x,1/2-y,z
1/2+x,1/2+y,1/2+z
1/2-x,-y,1/2+z
1/2+x,1/2-y,1/2-z
1/2-x,y,1/2-z
1/2-x,1/2-y,1/2-z
1/2+x,y,1/2-z
1/2-x,1/2+y,1/2+z
1/2+x,-y,1/2+z
loop_
_atom_site_type_symbol
_atom_site_label
_atom_site_fract_x
_atom_site_fract_y
_atom_site_fract_z
Si Si1 0.156795 0.933895 0.463907
Si Si2 0.659416 0.548308 0.372194
Si Si3 0.839886 0.166193 0.795862
Si Si4 0.663390 0.250000 0.298184
Si Si5 0.339779 0.665649 0.952296
Si Si6 0.159010 0.617374 0.867189
O O1 0.258392 0.941103 0.420351
O O2 0.189961 0.860058 0.493901
O O3 0.000000 0.933524 0.444299
O O4 0.180907 0.000000 0.500000
O O5 0.500000 0.562220 0.384911
O O6 0.713296 0.609723 0.335648
O O7 0.679055 0.466771 0.348923
O O8 0.816970 0.250000 0.813997
O O9 0.750000 0.149613 0.750000
O O10 0.000000 0.151877 0.783031
O O11 0.500000 0.250000 0.286243
O O12 0.750000 0.250000 0.250000
O O13 0.706664 0.176590 0.327570
O O14 0.500000 0.651481 0.939280
O O15 0.296880 0.750000 0.948791
O O16 0.248823 0.621609 0.914639
O O17 0.000000 0.633572 0.880762
#
# Coordination Sequence:
#
# PCOD8299787 Si02
#       6
#    16  16  16   8  16  16
#     4  10  20  34  51  76 109 141 175 218 264 310
#     4  10  21  35  55  82 110 141 179 222 266 319
#     4   9  19  37  58  80 108 140 176 220 270 323
#     4  10  22  38  54  76 106 138 174 224 273 316
#     4  10  20  34  53  76 103 139 182 220 259 311
#     4  10  20  35  54  76 104 138 178 220 265 316
#
# _framework density 17.879518999999998
#
# number of rings (size 3 to 8) (size 9 to 14) (size 15 to 20)
#    0.000    2.182    2.727    0.000    0.000    4.000 
#    0.000    0.000    0.000    0.000    0.000    0.000 
#    0.000    0.000    0.000    0.000    0.000    0.000 
#
# Total GULP energy -545588.548453 kJ/mol
# GULP energy per Si atom -12399.739738 kJ/mol
# Density = 1.783882 g / cm^3
# Si number density = 17.879519 Si / 1000 Ang^3
#
#
#
# Elastic Constant Matrix: (Units=GPa)
#
#
# Indices 1 2 3 4 5 6 
#
# 1 57.8344 40.7241 50.7860 0.0000 0.0000 0.0000
# 2 40.7241 107.2087 57.8290 0.0000 0.0000 0.0000
# 3 50.7860 57.8290 100.9448 0.0000 0.0000 0.0000
# 4 0.0000 0.0000 0.0000 -8.5789 0.0000 0.0000
# 5 0.0000 0.0000 0.0000 0.0000 34.4035 0.0000
# 6 0.0000 0.0000 0.0000 0.0000 0.0000 23.0314
#
#
#
# Elastic Compliance Matrix: (Units=1/GPa)
#
#
# Indices 1 2 3 4 5 6 
#
# 1 0.032832 -0.005154 -0.013565 0.000000 0.000000 0.000000
# 2 -0.005154 0.014308 -0.005604 0.000000 0.000000 0.000000
# 3 -0.013565 -0.005604 0.019941 0.000000 0.000000 0.000000
# 4 0.000000 0.000000 0.000000 -0.116565 0.000000 0.000000
# 5 0.000000 0.000000 0.000000 0.000000 0.029067 0.000000
# 6 0.000000 0.000000 0.000000 0.000000 0.000000 0.043419
#
#
# Mechanical properties :
#
#
# Convention : Reuss Voigt Hill
#
# Bulk Modulus (GPa) = 54.24406 62.74067 58.49236
# Shear Modulus (GPa) = 64.27251 17.54780 40.91016
#
# Velocity S-wave (km/s) = 6.00213 3.13620 4.78860
# Velocity P-wave (km/s) = 8.85656 6.94848 7.95990
#
# Compressibility (1/GPa) = 0.01843520
#
# Stress axis : x y z
#
# Youngs Moduli (GPa) = 30.45788 69.89022 50.14705
#
# Poissons Ratio (x) = 0.36024 0.68026
# Poissons Ratio (y) = 0.15699 0.28100
# Poissons Ratio (z) = 0.41317 0.39164
#
# Static dielectric constant tensor:
#      x y z
#    x 3.286450 0.000000 0.000000 
#    y 0.000000 3.717920 0.000000 
#    z 0.000000 0.000000 3.438720 
# 
# 
# High freq. dielectric constant tensor:
#      x y z
#    x 1.690910 0.000000 0.000000 
#    y 0.000000 1.710050 0.000000 
#    z 0.000000 0.000000 1.675890 
# 
# From -- ./inp_files/56956.got.cif
#   From: 2010.03.12/outbox.cif.g09.slc.cpg/sg74_29_cif.got.tgz:56956.got - 2010.04.16 15:46:19.
