data_PCOD8299819
_publ_section_title
;
Structure prediction by ZEFSAII (Michael W. Deem and Ramdas Pophale) SiO2 
 PCOD8299819
Probable space group: I M M A
;
_chemical_formula_sum "Si O2"
_cell_formula_units_Z 64
_cell_length_a 13.138954
_cell_length_b 8.851673
_cell_length_c 28.643391
_cell_angle_alpha 90.000000
_cell_angle_beta 90.000000
_cell_angle_gamma 90.000000
_cell_volume 3331.275765
_symmetry_space_group_name_H-M "I M M A"
_symmetry_group_IT_number 74
_symmetry_cell_setting 'orthorhombic'
loop_
_space_group_symop_operation_xyz
x,y,z
-x,1/2-y,z
x,-y,-z
-x,1/2+y,-z
-x,-y,-z
x,1/2+y,-z
-x,y,z
x,1/2-y,z
1/2+x,1/2+y,1/2+z
1/2-x,-y,1/2+z
1/2+x,1/2-y,1/2-z
1/2-x,y,1/2-z
1/2-x,1/2-y,1/2-z
1/2+x,y,1/2-z
1/2-x,1/2+y,1/2+z
1/2+x,-y,1/2+z
loop_
_atom_site_type_symbol
_atom_site_label
_atom_site_fract_x
_atom_site_fract_y
_atom_site_fract_z
Si Si1 0.500000 0.930793 0.745093
Si Si2 0.191271 0.585163 0.703578
Si Si3 0.000000 0.073431 0.856946
Si Si4 0.884844 0.927444 0.549835
Si Si5 0.722145 0.425837 0.618073
O O1 0.500000 0.750000 0.741170
O O2 0.589703 0.992513 0.777614
O O3 0.500000 0.990139 0.692506
O O4 0.174305 0.750000 0.678262
O O5 0.250000 0.621467 0.750000
O O6 0.248533 0.467429 0.670762
O O7 0.898383 0.031277 0.887076
O O8 0.000000 0.250000 0.845429
O O9 0.873898 0.750000 0.544306
O O10 0.000000 0.969275 0.567591
O O11 0.864287 0.000000 0.500000
O O12 0.796405 0.983597 0.584009
O O13 0.739523 0.250000 0.608781
#
# Coordination Sequence:
#
# PCOD8299819 Si02
#       5
#     8  16   8  16  16
#     4  10  20  34  52  75 110 153 196 242 289 339
#     4  10  20  34  53  79 112 152 197 241 286 337
#     4  10  22  38  55  79 116 157 196 240 284 331
#     4  10  22  42  67  92 118 146 181 230 287 344
#     4  11  23  38  58  85 117 154 196 238 285 340
#
# _framework density 19.211857999999999
#
# number of rings (size 3 to 8) (size 9 to 14) (size 15 to 20)
#    0.000    1.750    2.500    1.500    1.750    4.000 
#    0.000    0.625    0.000    0.000    0.000    0.000 
#    0.000    0.000    0.000    0.000    0.000    0.000 
#
# Total GULP energy -396451.514865 kJ/mol
# GULP energy per Si atom -12389.109840 kJ/mol
# Density = 1.916813 g / cm^3
# Si number density = 19.211858 Si / 1000 Ang^3
#
#
#
# Elastic Constant Matrix: (Units=GPa)
#
#
# Indices 1 2 3 4 5 6 
#
# 1 173.3565 48.3820 61.3357 0.0000 0.0000 0.0000
# 2 48.3820 67.9862 38.0612 0.0000 0.0000 0.0000
# 3 61.3357 38.0612 81.9259 0.0000 0.0000 0.0000
# 4 0.0000 0.0000 0.0000 39.8906 0.0000 0.0000
# 5 0.0000 0.0000 0.0000 0.0000 28.4351 0.0000
# 6 0.0000 0.0000 0.0000 0.0000 0.0000 24.8420
#
#
#
# Elastic Compliance Matrix: (Units=1/GPa)
#
#
# Indices 1 2 3 4 5 6 
#
# 1 0.008363 -0.003306 -0.004725 0.000000 0.000000 0.000000
# 2 -0.003306 0.021186 -0.007368 0.000000 0.000000 0.000000
# 3 -0.004725 -0.007368 0.019167 0.000000 0.000000 0.000000
# 4 0.000000 0.000000 0.000000 0.025069 0.000000 0.000000
# 5 0.000000 0.000000 0.000000 0.000000 0.035168 0.000000
# 6 0.000000 0.000000 0.000000 0.000000 0.000000 0.040254
#
#
# Mechanical properties :
#
#
# Convention : Reuss Voigt Hill
#
# Bulk Modulus (GPa) = 55.80930 68.75851 62.28390
# Shear Modulus (GPa) = 26.88505 30.33286 28.60896
#
# Velocity S-wave (km/s) = 3.74491 3.97780 3.86311
# Velocity P-wave (km/s) = 6.91459 7.54748 7.23796
#
# Compressibility (1/GPa) = 0.01791816
#
# Stress axis : x y z
#
# Youngs Moduli (GPa) = 119.57429 47.20038 52.17420
#
# Poissons Ratio (x) = 0.15605 0.24653
# Poissons Ratio (y) = 0.39533 0.38439
# Poissons Ratio (z) = 0.56501 0.34775
#
# Static dielectric constant tensor:
#      x y z
#    x 3.937950 0.000000 0.000000 
#    y 0.000000 3.503890 0.000000 
#    z 0.000000 0.000000 3.205510 
# 
# 
# High freq. dielectric constant tensor:
#      x y z
#    x 1.770010 0.000000 0.000000 
#    y 0.000000 1.746510 0.000000 
#    z 0.000000 0.000000 1.724790 
# 
# From -- ./inp_files/63493.got.cif
#   From: 2010.03.12/outbox.cif.g09.slc.cpg/sg74_32_cif.got.tgz:63493.got - 2010.04.16 15:46:19.
