data_PCOD8299611
_publ_section_title
;
Structure prediction by ZEFSAII (Michael W. Deem and Ramdas Pophale) SiO2 
 PCOD8299611
Probable space group: I M M A
;
_chemical_formula_sum "Si O2"
_cell_formula_units_Z 80
_cell_length_a 14.738920
_cell_length_b 26.097372
_cell_length_c 11.652386
_cell_angle_alpha 90.000000
_cell_angle_beta 90.000000
_cell_angle_gamma 90.000000
_cell_volume 4482.056228
_symmetry_space_group_name_H-M "I M M A"
_symmetry_group_IT_number 74
_symmetry_cell_setting 'orthorhombic'
loop_
_space_group_symop_operation_xyz
x,y,z
-x,1/2-y,z
x,-y,-z
-x,1/2+y,-z
-x,-y,-z
x,1/2+y,-z
-x,y,z
x,1/2-y,z
1/2+x,1/2+y,1/2+z
1/2-x,-y,1/2+z
1/2+x,1/2-y,1/2-z
1/2-x,y,1/2-z
1/2-x,1/2-y,1/2-z
1/2+x,y,1/2-z
1/2-x,1/2+y,1/2+z
1/2+x,-y,1/2+z
loop_
_atom_site_type_symbol
_atom_site_label
_atom_site_fract_x
_atom_site_fract_y
_atom_site_fract_z
Si Si1 0.000000 0.441540 0.539398
Si Si2 0.305165 0.095128 0.012073
Si Si3 0.000000 0.088293 0.799891
Si Si4 0.160381 0.028478 0.892611
Si Si5 0.000000 0.805345 0.280185
Si Si6 0.250000 0.051832 0.250000
Si Si7 0.301465 0.192266 0.868294
O O1 0.000000 0.500000 0.500000
O O2 0.912470 0.412537 0.491428
O O3 0.000000 0.436404 0.675321
O O4 0.277234 0.088416 0.144757
O O5 0.257239 0.052786 0.930412
O O6 0.275676 0.151600 0.967465
O O7 0.907708 0.073002 0.860604
O O8 0.000000 0.149529 0.811558
O O9 0.170554 0.987040 0.790497
O O10 0.115579 0.000000 0.000000
O O11 0.089827 0.810733 0.356940
O O12 0.000000 0.750000 0.216779
O O13 0.272213 0.250000 0.905062
O O14 0.250000 0.177363 0.750000
#
# Coordination Sequence:
#
# PCOD8299611 Si02
#       7
#     8  16   8  16   8   8  16
#     4  12  22  31  53  82 104 142 184 217 260 327
#     4  11  21  37  55  78 110 146 181 226 275 314
#     4  12  19  32  54  77 106 145 177 218 269 325
#     4  10  21  34  50  74 110 145 181 219 268 325
#     4  10  20  33  49  79 108 133 173 225 273 313
#     4  10  22  36  51  74 109 146 180 228 264 320
#     4  10  20  35  56  81 108 140 180 228 279 325
#
# _framework density 17.848949999999999
#
# number of rings (size 3 to 8) (size 9 to 14) (size 15 to 20)
#    0.000    1.400    2.000    5.700    1.400    0.000 
#    0.000    1.500    0.000    0.000    0.000    0.000 
#    0.000    0.000    0.000    0.000    0.000    0.000 
#
# Total GULP energy -495781.450625 kJ/mol
# GULP energy per Si atom -12394.536266 kJ/mol
# Density = 1.780832 g / cm^3
# Si number density = 17.848950 Si / 1000 Ang^3
#
#
#
# Elastic Constant Matrix: (Units=GPa)
#
#
# Indices 1 2 3 4 5 6 
#
# 1 85.1098 30.7207 40.1488 0.0000 0.0001 0.0000
# 2 30.7207 155.4792 72.9431 0.0001 -0.0001 0.0000
# 3 40.1488 72.9431 107.1009 0.0007 -0.0006 0.0000
# 4 0.0000 0.0001 0.0007 36.0975 -0.0001 0.0000
# 5 0.0001 -0.0001 -0.0006 -0.0001 29.3238 0.0000
# 6 0.0000 0.0000 0.0000 0.0000 0.0000 24.6392
#
#
#
# Elastic Compliance Matrix: (Units=1/GPa)
#
#
# Indices 1 2 3 4 5 6 
#
# 1 0.014296 -0.000456 -0.005048 0.000000 0.000000 0.000000
# 2 -0.000456 0.009466 -0.006276 0.000000 0.000000 0.000000
# 3 -0.005048 -0.006276 0.015504 0.000000 0.000000 0.000000
# 4 0.000000 0.000000 0.000000 0.027703 0.000000 0.000000
# 5 0.000000 0.000000 0.000000 0.000000 0.034102 0.000000
# 6 0.000000 0.000000 0.000000 0.000000 0.000000 0.040586
#
#
# Mechanical properties :
#
#
# Convention : Reuss Voigt Hill
#
# Bulk Modulus (GPa) = 63.67591 70.59057 67.13324
# Shear Modulus (GPa) = 29.33366 31.60392 30.46879
#
# Velocity S-wave (km/s) = 4.05833 4.21245 4.13611
# Velocity P-wave (km/s) = 7.59687 7.95578 7.77839
#
# Compressibility (1/GPa) = 0.01570453
#
# Stress axis : x y z
#
# Youngs Moduli (GPa) = 69.95146 105.63716 64.49965
#
# Poissons Ratio (x) = 0.04820 0.32561
# Poissons Ratio (y) = 0.03192 0.40481
# Poissons Ratio (z) = 0.35313 0.66300
#
# Static dielectric constant tensor:
#      x y z
#    x 3.406540 0.000000 0.000000 
#    y 0.000000 3.573940 0.000000 
#    z 0.000000 0.000000 3.254260 
# 
# 
# High freq. dielectric constant tensor:
#      x y z
#    x 1.697960 0.000000 0.000000 
#    y 0.000000 1.696710 0.000000 
#    z 0.000000 0.000000 1.666650 
# 
# From -- ./inp_files/20604.got.cif
#   From: 2010.03.12/outbox.cif.g09.slc.cpg/sg74_11_cif.got.tgz:20604.got - 2010.04.16 15:46:19.
