data_PCOD8299853
_publ_section_title
;
Structure prediction by ZEFSAII (Michael W. Deem and Ramdas Pophale) SiO2 
 PCOD8299853
Probable space group: I M M A
;
_chemical_formula_sum "Si O2"
_cell_formula_units_Z 112
_cell_length_a 14.497768
_cell_length_b 15.641521
_cell_length_c 26.557300
_cell_angle_alpha 90.000000
_cell_angle_beta 90.000000
_cell_angle_gamma 90.000000
_cell_volume 6022.323037
_symmetry_space_group_name_H-M "I M M A"
_symmetry_group_IT_number 74
_symmetry_cell_setting 'orthorhombic'
loop_
_space_group_symop_operation_xyz
x,y,z
-x,1/2-y,z
x,-y,-z
-x,1/2+y,-z
-x,-y,-z
x,1/2+y,-z
-x,y,z
x,1/2-y,z
1/2+x,1/2+y,1/2+z
1/2-x,-y,1/2+z
1/2+x,1/2-y,1/2-z
1/2-x,y,1/2-z
1/2-x,1/2-y,1/2-z
1/2+x,y,1/2-z
1/2-x,1/2+y,1/2+z
1/2+x,-y,1/2+z
loop_
_atom_site_type_symbol
_atom_site_label
_atom_site_fract_x
_atom_site_fract_y
_atom_site_fract_z
Si Si1 0.642659 0.345577 0.242785
Si Si2 0.784688 0.920061 0.146158
Si Si3 0.891535 0.656878 0.944384
Si Si4 0.103715 0.980086 0.311949
Si Si5 0.603943 0.156163 0.726252
Si Si6 0.394129 0.851717 0.444482
Si Si7 0.897497 0.923265 0.843929
O O1 0.614830 0.250000 0.222861
O O2 0.750000 0.352702 0.250000
O O3 0.611413 0.419804 0.203929
O O4 0.598432 0.355722 0.298296
O O5 0.676581 0.947058 0.145753
O O6 0.817879 0.842816 0.182263
O O7 0.820448 0.901267 0.089954
O O8 0.837708 0.997318 0.173733
O O9 0.845091 0.750000 0.944681
O O10 0.849635 0.608606 0.896047
O O11 0.000000 0.666435 0.935684
O O12 0.872942 0.614045 0.998854
O O13 0.124737 0.919109 0.265090
O O14 0.000000 0.965365 0.332769
O O15 0.500000 0.144192 0.703879
O O16 0.610997 0.250000 0.752195
O O17 0.500000 0.874638 0.429726
O O18 0.379950 0.750000 0.441177
O O19 0.000000 0.954624 0.856294
#
# Coordination Sequence:
#
# PCOD8299853 Si02
#       7
#    16  16  16  16  16  16  16
#     4  11  21  36  56  78 106 142 183 224 267 317
#     4  12  21  32  49  75 104 137 179 224 257 305
#     4   8  16  31  49  74 109 142 170 203 252 321
#     4  11  23  39  52  70 103 141 185 229 270 311
#     4  10  20  34  53  75 103 140 176 215 268 323
#     4   9  18  33  53  78 109 142 174 210 259 322
#     4  11  20  31  51  79 109 140 169 207 259 318
#
# _framework density 18.597473999999998
#
# number of rings (size 3 to 8) (size 9 to 14) (size 15 to 20)
#    0.000    1.714    2.857    3.857    0.000    5.143 
#    0.000    2.143    0.000    0.000    0.000    2.000 
#    0.000    1.143    0.000    0.000    0.000    0.000 
#
# Total GULP energy -693738.239312 kJ/mol
# GULP energy per Si atom -12388.182845 kJ/mol
# Density = 1.855515 g / cm^3
# Si number density = 18.597474 Si / 1000 Ang^3
#
#
#
# Elastic Constant Matrix: (Units=GPa)
#
#
# Indices 1 2 3 4 5 6 
#
# 1 100.0652 21.3815 36.0880 0.0000 0.0000 0.0000
# 2 21.3815 84.2286 21.2439 0.0000 0.0000 0.0000
# 3 36.0880 21.2439 78.9663 0.0000 0.0000 0.0000
# 4 0.0000 0.0000 0.0000 20.2216 0.0000 0.0000
# 5 0.0000 0.0000 0.0000 0.0000 17.3185 0.0000
# 6 0.0000 0.0000 0.0000 0.0000 0.0000 18.9222
#
#
#
# Elastic Compliance Matrix: (Units=1/GPa)
#
#
# Indices 1 2 3 4 5 6 
#
# 1 0.012219 -0.001817 -0.005096 0.000000 0.000000 0.000000
# 2 -0.001817 0.013007 -0.002669 0.000000 0.000000 0.000000
# 3 -0.005096 -0.002669 0.015710 0.000000 0.000000 0.000000
# 4 0.000000 0.000000 0.000000 0.049452 0.000000 0.000000
# 5 0.000000 0.000000 0.000000 0.000000 0.057742 0.000000
# 6 0.000000 0.000000 0.000000 0.000000 0.000000 0.052848
#
#
# Mechanical properties :
#
#
# Convention : Reuss Voigt Hill
#
# Bulk Modulus (GPa) = 45.92611 46.74298 46.33454
# Shear Modulus (GPa) = 21.98782 23.59557 22.79169
#
# Velocity S-wave (km/s) = 3.44219 3.56582 3.50455
# Velocity P-wave (km/s) = 6.36763 6.49169 6.42996
#
# Compressibility (1/GPa) = 0.02177411
#
# Stress axis : x y z
#
# Youngs Moduli (GPa) = 81.83732 76.88304 63.65239
#
# Poissons Ratio (x) = 0.13967 0.32434
# Poissons Ratio (y) = 0.14867 0.16988
# Poissons Ratio (z) = 0.41701 0.20519
#
# Static dielectric constant tensor:
#      x y z
#    x 3.251880 0.000000 0.000000 
#    y 0.000000 3.687210 0.000000 
#    z 0.000000 0.000000 3.296790 
# 
# 
# High freq. dielectric constant tensor:
#      x y z
#    x 1.689530 0.000000 0.000000 
#    y 0.000000 1.735250 0.000000 
#    z 0.000000 0.000000 1.690080 
# 
# From -- ./inp_files/67195.got.cif
#   From: 2010.03.12/outbox.cif.g09.slc.cpg/sg74_34_cif.got.tgz:67195.got - 2010.04.16 15:46:19.
