data_PCOD8299253
_publ_section_title
;
Structure prediction by ZEFSAII (Michael W. Deem and Ramdas Pophale) SiO2 
 PCOD8299253
Probable space group: I M M A
;
_chemical_formula_sum "Si O2"
_cell_formula_units_Z 80
_cell_length_a 20.594028
_cell_length_b 17.246377
_cell_length_c 11.552565
_cell_angle_alpha 90.000000
_cell_angle_beta 90.000000
_cell_angle_gamma 90.000000
_cell_volume 4103.151900
_symmetry_space_group_name_H-M "I M M A"
_symmetry_group_IT_number 74
_symmetry_cell_setting 'orthorhombic'
loop_
_space_group_symop_operation_xyz
x,y,z
-x,1/2-y,z
x,-y,-z
-x,1/2+y,-z
-x,-y,-z
x,1/2+y,-z
-x,y,z
x,1/2-y,z
1/2+x,1/2+y,1/2+z
1/2-x,-y,1/2+z
1/2+x,1/2-y,1/2-z
1/2-x,y,1/2-z
1/2-x,1/2-y,1/2-z
1/2+x,y,1/2-z
1/2-x,1/2+y,1/2+z
1/2+x,-y,1/2+z
loop_
_atom_site_type_symbol
_atom_site_label
_atom_site_fract_x
_atom_site_fract_y
_atom_site_fract_z
Si Si1 0.748613 0.842178 0.116988
Si Si2 0.375822 0.091260 0.009500
Si Si3 0.500000 0.842191 0.375293
Si Si4 0.622942 0.158037 0.490643
Si Si5 0.000000 0.158200 0.613230
Si Si6 0.924107 0.658342 0.740638
O O1 0.747218 0.750000 0.116983
O O2 0.750000 0.872492 0.250000
O O3 0.810759 0.874617 0.046179
O O4 0.686665 0.872143 0.049276
O O5 0.382525 0.115351 0.142963
O O6 0.437467 0.123310 0.944289
O O7 0.371674 0.000000 0.000000
O O8 0.500000 0.750000 0.386662
O O9 0.563690 0.877118 0.435567
O O10 0.500000 0.869491 0.244319
O O11 0.622642 0.250000 0.500265
O O12 0.612066 0.132783 0.358273
O O13 0.000000 0.250000 0.597877
O O14 0.919911 0.750000 0.720813
O O15 0.000000 0.632787 0.741793
#
# Coordination Sequence:
#
# PCOD8299253 Si02
#       6
#    16  16   8  16   8  16
#     4  10  21  40  64  89 119 157 204 253 299 353
#     4  12  25  40  57  85 122 160 196 247 302 361
#     4   9  16  30  59  95 118 139 187 250 299 341
#     4   9  17  32  59  93 120 146 188 245 299 346
#     4  11  21  36  63  89 113 152 203 248 292 351
#     4  10  19  35  62  91 120 152 193 244 296 354
#
# _framework density 19.497205999999998
#
# number of rings (size 3 to 8) (size 9 to 14) (size 15 to 20)
#    0.000    1.800    2.000    3.300    0.000    4.000 
#    3.600    3.000    0.000    1.200    0.000    0.000 
#    0.000    0.000    0.000    0.000    0.000    0.000 
#
# Total GULP energy -495978.271782 kJ/mol
# GULP energy per Si atom -12399.456795 kJ/mol
# Density = 1.945283 g / cm^3
# Si number density = 19.497206 Si / 1000 Ang^3
#
#
#
# Elastic Constant Matrix: (Units=GPa)
#
#
# Indices 1 2 3 4 5 6 
#
# 1 194.6266 58.8843 128.7960 0.0000 0.0000 0.0000
# 2 58.8843 154.8841 120.6757 0.0000 0.0000 0.0000
# 3 128.7960 120.6757 255.7342 0.0000 0.0000 0.0000
# 4 0.0000 0.0000 0.0000 -1.8937 0.0000 0.0000
# 5 0.0000 0.0000 0.0000 0.0000 46.1939 0.0000
# 6 0.0000 0.0000 0.0000 0.0000 0.0000 2.4150
#
#
#
# Elastic Compliance Matrix: (Units=1/GPa)
#
#
# Indices 1 2 3 4 5 6 
#
# 1 0.007709 0.000149 -0.003953 0.000000 0.000000 0.000000
# 2 0.000149 0.010213 -0.004894 0.000000 0.000000 0.000000
# 3 -0.003953 -0.004894 0.008211 0.000000 0.000000 0.000000
# 4 0.000000 0.000000 0.000000 -0.528076 0.000000 0.000000
# 5 0.000000 0.000000 0.000000 0.000000 0.021648 0.000000
# 6 0.000000 0.000000 0.000000 0.000000 0.000000 0.414077
#
#
# Mechanical properties :
#
#
# Convention : Reuss Voigt Hill
#
# Bulk Modulus (GPa) = 114.46579 135.77297 125.11938
# Shear Modulus (GPa) = -108.90765 29.13564 -39.88601
#
# Velocity S-wave (km/s) = -7.48193 3.86988 -4.52788
# Velocity P-wave (km/s) = 3.97528 9.47398 6.08085
#
# Compressibility (1/GPa) = 0.00873623
#
# Stress axis : x y z
#
# Youngs Moduli (GPa) = 129.72421 97.91216 121.79471
#
# Poissons Ratio (x) = -0.01458 0.48141
# Poissons Ratio (y) = -0.01932 0.59611
# Poissons Ratio (z) = 0.51275 0.47922
#
# Static dielectric constant tensor:
#      x y z
#    x 3.667180 0.000000 0.000000 
#    y 0.000000 3.043570 0.000000 
#    z 0.000000 0.000000 3.938540 
# 
# 
# High freq. dielectric constant tensor:
#      x y z
#    x 1.771860 0.000000 0.000000 
#    y 0.000000 1.717380 0.000000 
#    z 0.000000 0.000000 1.782030 
# 
# From -- ./inp_files/22091.got.cif
#   From: 2010.03.12/outbox.cif.g09.slc.cpg/sg74_12_cif.got.tgz:22091.got - 2010.04.16 15:46:19.
