data_PCOD8299133
_publ_section_title
;
Structure prediction by ZEFSAII (Michael W. Deem and Ramdas Pophale) SiO2 
 PCOD8299133
Probable space group: I M M A
;
_chemical_formula_sum "Si O2"
_cell_formula_units_Z 112
_cell_length_a 18.206849
_cell_length_b 28.458688
_cell_length_c 12.491892
_cell_angle_alpha 90.000000
_cell_angle_beta 90.000000
_cell_angle_gamma 90.000000
_cell_volume 6472.586836
_symmetry_space_group_name_H-M "I M M A"
_symmetry_group_IT_number 74
_symmetry_cell_setting 'orthorhombic'
loop_
_space_group_symop_operation_xyz
x,y,z
-x,1/2-y,z
x,-y,-z
-x,1/2+y,-z
-x,-y,-z
x,1/2+y,-z
-x,y,z
x,1/2-y,z
1/2+x,1/2+y,1/2+z
1/2-x,-y,1/2+z
1/2+x,1/2-y,1/2-z
1/2-x,y,1/2-z
1/2-x,1/2-y,1/2-z
1/2+x,y,1/2-z
1/2-x,1/2+y,1/2+z
1/2+x,-y,1/2+z
loop_
_atom_site_type_symbol
_atom_site_label
_atom_site_fract_x
_atom_site_fract_y
_atom_site_fract_z
Si Si1 0.586357 0.451621 0.449212
Si Si2 0.915095 0.602185 0.554970
Si Si3 0.414905 0.116635 0.637048
Si Si4 0.163769 0.044338 0.272306
Si Si5 0.415167 0.049463 0.833096
Si Si6 0.415664 0.302145 0.954324
Si Si7 0.332812 0.696420 0.264969
O O1 0.615679 0.500000 0.500000
O O2 0.500000 0.455148 0.429557
O O3 0.607538 0.409326 0.528080
O O4 0.624627 0.442600 0.337498
O O5 0.858392 0.584840 0.644204
O O6 0.899691 0.574672 0.445024
O O7 0.897565 0.657689 0.540867
O O8 0.000000 0.594462 0.590169
O O9 0.500000 0.129574 0.637722
O O10 0.394505 0.084360 0.737758
O O11 0.369574 0.164796 0.643229
O O12 0.250000 0.042970 0.250000
O O13 0.136806 0.995480 0.322806
O O14 0.500000 0.033207 0.823870
O O15 0.500000 0.306400 0.919514
O O16 0.398204 0.250000 0.001668
O O17 0.371302 0.311703 0.847573
O O18 0.338245 0.750000 0.304556
O O19 0.250000 0.679967 0.250000
#
# Coordination Sequence:
#
# PCOD8299133 Si02
#       7
#    16  16  16  16  16  16  16
#     4  10  20  37  56  71  98 143 187 221 258 318
#     4  10  20  36  59  82 106 137 176 227 277 316
#     4  10  19  34  58  80 101 137 183 223 260 309
#     4  12  25  36  50  76 112 145 183 220 263 318
#     4  10  19  36  57  79 104 137 177 221 274 315
#     4   9  17  32  56  83 107 134 175 225 272 319
#     4  10  20  32  49  79 116 147 171 206 266 329
#
# _framework density 17.303746
#
# number of rings (size 3 to 8) (size 9 to 14) (size 15 to 20)
#    0.000    1.857    2.857    2.143    0.000    4.857 
#    0.000    0.000    0.000    1.286    0.000    2.000 
#    0.000    0.000    0.000    0.000    0.000    0.000 
#
# Total GULP energy -694471.850216 kJ/mol
# GULP energy per Si atom -12401.283040 kJ/mol
# Density = 1.726436 g / cm^3
# Si number density = 17.303746 Si / 1000 Ang^3
#
#
#
# Elastic Constant Matrix: (Units=GPa)
#
#
# Indices 1 2 3 4 5 6 
#
# 1 76.5440 61.7331 44.2634 -0.0002 0.0001 -0.0022
# 2 61.7331 129.1405 54.1277 0.0000 0.0001 -0.0012
# 3 44.2634 54.1277 102.5277 0.0015 0.0001 0.0033
# 4 -0.0002 0.0000 0.0015 1.4350 0.0001 0.0038
# 5 0.0001 0.0001 0.0001 0.0001 16.4345 -0.0017
# 6 -0.0022 -0.0012 0.0033 0.0038 -0.0017 175.0010
#
#
#
# Elastic Compliance Matrix: (Units=1/GPa)
#
#
# Indices 1 2 3 4 5 6 
#
# 1 0.023365 -0.008914 -0.005381 0.000008 0.000000 0.000000
# 2 -0.008914 0.013344 -0.003197 0.000003 0.000000 0.000000
# 3 -0.005381 -0.003197 0.013764 -0.000015 0.000000 0.000000
# 4 0.000008 0.000003 -0.000015 0.696868 -0.000004 -0.000015
# 5 0.000000 0.000000 0.000000 -0.000004 0.060848 0.000001
# 6 0.000000 0.000000 0.000000 -0.000015 0.000001 0.005714
#
#
# Mechanical properties :
#
#
# Convention : Reuss Voigt Hill
#
# Bulk Modulus (GPa) = 64.55641 69.82894 67.19267
# Shear Modulus (GPa) = 5.85445 48.44664 27.15054
#
# Velocity S-wave (km/s) = 1.84138 5.29703 3.96543
# Velocity P-wave (km/s) = 6.47377 8.82348 7.73833
#
# Compressibility (1/GPa) = 0.01549033
#
# Stress axis : x y z
#
# Youngs Moduli (GPa) = 42.79845 74.93780 72.65138
#
# Poissons Ratio (x) = 0.66798 0.39097
# Poissons Ratio (y) = 0.38150 0.23224
# Poissons Ratio (z) = 0.23032 0.23955
#
# Static dielectric constant tensor:
#      x y z
#    x 3.269370 0.000000 0.000000 
#    y 0.000000 3.465820 0.000000 
#    z 0.000000 0.000000 3.131170 
# 
# 
# High freq. dielectric constant tensor:
#      x y z
#    x 1.661970 0.000000 0.000000 
#    y 0.000000 1.672800 0.000000 
#    z 0.000000 0.000000 1.652810 
# 
# From -- ./inp_files/21105.got.cif
#   From: 2010.03.12/outbox.cif.g09.slc.cpg/sg74_11_cif.got.tgz:21105.got - 2010.04.16 15:46:19.
