data_PCOD8299475
_publ_section_title
;
Structure prediction by ZEFSAII (Michael W. Deem and Ramdas Pophale) SiO2 
 PCOD8299475
Probable space group: I M M A
;
_chemical_formula_sum "Si O2"
_cell_formula_units_Z 80
_cell_length_a 18.133781
_cell_length_b 9.064014
_cell_length_c 26.982062
_cell_angle_alpha 90.000000
_cell_angle_beta 90.000000
_cell_angle_gamma 90.000000
_cell_volume 4434.902435
_symmetry_space_group_name_H-M "I M M A"
_symmetry_group_IT_number 74
_symmetry_cell_setting 'orthorhombic'
loop_
_space_group_symop_operation_xyz
x,y,z
-x,1/2-y,z
x,-y,-z
-x,1/2+y,-z
-x,-y,-z
x,1/2+y,-z
-x,y,z
x,1/2-y,z
1/2+x,1/2+y,1/2+z
1/2-x,-y,1/2+z
1/2+x,1/2-y,1/2-z
1/2-x,y,1/2-z
1/2-x,1/2-y,1/2-z
1/2+x,y,1/2-z
1/2-x,1/2+y,1/2+z
1/2+x,-y,1/2+z
loop_
_atom_site_type_symbol
_atom_site_label
_atom_site_fract_x
_atom_site_fract_y
_atom_site_fract_z
Si Si1 0.705870 0.583179 0.601636
Si Si2 0.790995 0.578703 0.700872
Si Si3 0.583444 0.921586 0.449589
Si Si4 0.415522 0.920259 0.146524
Si Si5 0.643297 0.923010 0.948666
O O1 0.677829 0.750000 0.595812
O O2 0.734278 0.552677 0.656523
O O3 0.637143 0.475243 0.593733
O O4 0.770467 0.550056 0.562239
O O5 0.813312 0.750000 0.705619
O O6 0.750000 0.520950 0.750000
O O7 0.865397 0.487051 0.690575
O O8 0.500000 0.962644 0.434584
O O9 0.593508 0.750000 0.458161
O O10 0.607356 0.000000 0.500000
O O11 0.500000 0.936611 0.163519
O O12 0.393853 0.750000 0.138070
O O13 0.404759 0.007207 0.095212
O O14 0.624883 0.750000 0.951504
O O15 0.621344 0.000000 0.000000
#
# Coordination Sequence:
#
# PCOD8299475 Si02
#       5
#    16  16  16  16  16
#     4   9  18  32  51  74  98 127 165 208 251 298
#     4   9  19  37  59  80 101 129 169 213 257 305
#     4  10  20  32  47  69  98 133 169 204 246 296
#     4  10  21  36  54  78 107 138 172 209 252 303
#     4  10  20  33  51  76 105 138 175 212 252 301
#
# _framework density 18.038727999999999
#
# number of rings (size 3 to 8) (size 9 to 14) (size 15 to 20)
#    0.000    2.400    0.000    3.600    0.000    9.200 
#    0.000    1.000    0.000    6.000    0.000    0.000 
#    0.000    0.000    0.000    0.000    0.000    0.000 
#
# Total GULP energy -496095.257907 kJ/mol
# GULP energy per Si atom -12402.381448 kJ/mol
# Density = 1.799767 g / cm^3
# Si number density = 18.038728 Si / 1000 Ang^3
#
#
#
# Elastic Constant Matrix: (Units=GPa)
#
#
# Indices 1 2 3 4 5 6 
#
# 1 102.1687 57.8714 46.7185 0.0000 0.0000 0.0000
# 2 57.8714 99.6054 46.1358 0.0000 0.0000 0.0000
# 3 46.7185 46.1358 98.4503 0.0000 0.0000 0.0000
# 4 0.0000 0.0000 0.0000 28.8351 0.0000 0.0000
# 5 0.0000 0.0000 0.0000 0.0000 18.0296 0.0000
# 6 0.0000 0.0000 0.0000 0.0000 0.0000 33.4006
#
#
#
# Elastic Compliance Matrix: (Units=1/GPa)
#
#
# Indices 1 2 3 4 5 6 
#
# 1 0.015773 -0.007277 -0.004075 0.000000 0.000000 0.000000
# 2 -0.007277 0.016180 -0.004129 0.000000 0.000000 0.000000
# 3 -0.004075 -0.004129 0.014026 0.000000 0.000000 0.000000
# 4 0.000000 0.000000 0.000000 0.034680 0.000000 0.000000
# 5 0.000000 0.000000 0.000000 0.000000 0.055464 0.000000
# 6 0.000000 0.000000 0.000000 0.000000 0.000000 0.029940
#
#
# Mechanical properties :
#
#
# Convention : Reuss Voigt Hill
#
# Bulk Modulus (GPa) = 66.58904 66.85286 66.72095
# Shear Modulus (GPa) = 24.74881 26.01964 25.38423
#
# Velocity S-wave (km/s) = 3.70805 3.80206 3.75535
# Velocity P-wave (km/s) = 7.43824 7.51102 7.47472
#
# Compressibility (1/GPa) = 0.01501749
#
# Stress axis : x y z
#
# Youngs Moduli (GPa) = 63.40058 61.80468 71.29576
#
# Poissons Ratio (x) = 0.44973 0.29051
# Poissons Ratio (y) = 0.46135 0.29440
# Poissons Ratio (z) = 0.25834 0.25520
#
# Static dielectric constant tensor:
#      x y z
#    x 3.279050 0.000000 0.000000 
#    y 0.000000 3.408170 0.000000 
#    z 0.000000 0.000000 3.222040 
# 
# 
# High freq. dielectric constant tensor:
#      x y z
#    x 1.695960 0.000000 0.000000 
#    y 0.000000 1.707840 0.000000 
#    z 0.000000 0.000000 1.682260 
# 
# From -- ./inp_files/63908.got.cif
#   From: 2010.03.12/outbox.cif.g09.slc.cpg/sg74_32_cif.got.tgz:63908.got - 2010.04.16 15:46:19.
