data_PCOD8299835
_publ_section_title
;
Structure prediction by ZEFSAII (Michael W. Deem and Ramdas Pophale) SiO2 
 PCOD8299835
Probable space group: I M M A
;
_chemical_formula_sum "Si O2"
_cell_formula_units_Z 96
_cell_length_a 8.741545
_cell_length_b 28.217119
_cell_length_c 19.069465
_cell_angle_alpha 90.000000
_cell_angle_beta 90.000000
_cell_angle_gamma 90.000000
_cell_volume 4703.697416
_symmetry_space_group_name_H-M "I M M A"
_symmetry_group_IT_number 74
_symmetry_cell_setting 'orthorhombic'
loop_
_space_group_symop_operation_xyz
x,y,z
-x,1/2-y,z
x,-y,-z
-x,1/2+y,-z
-x,-y,-z
x,1/2+y,-z
-x,y,z
x,1/2-y,z
1/2+x,1/2+y,1/2+z
1/2-x,-y,1/2+z
1/2+x,1/2-y,1/2-z
1/2-x,y,1/2-z
1/2-x,1/2-y,1/2-z
1/2+x,y,1/2-z
1/2-x,1/2+y,1/2+z
1/2+x,-y,1/2+z
loop_
_atom_site_type_symbol
_atom_site_label
_atom_site_fract_x
_atom_site_fract_y
_atom_site_fract_z
Si Si1 0.178600 0.449407 0.075045
Si Si2 0.327125 0.802640 0.644794
Si Si3 0.175640 0.389432 0.317539
Si Si4 0.176424 0.970950 0.326497
Si Si5 0.176606 0.302253 0.502946
Si Si6 0.175867 0.903759 0.445459
O O1 0.226570 0.400958 0.113285
O O2 0.261502 0.489571 0.120288
O O3 0.000000 0.459795 0.075299
O O4 0.231252 0.441052 0.994918
O O5 0.500000 0.822438 0.654486
O O6 0.314394 0.750000 0.674881
O O7 0.203861 0.833203 0.689024
O O8 0.286792 0.803361 0.563001
O O9 0.250000 0.415848 0.250000
O O10 0.000000 0.403721 0.324379
O O11 0.250000 0.970378 0.250000
O O12 0.202961 0.920352 0.365103
O O13 0.000000 0.982323 0.314608
O O14 0.197291 0.250000 0.540565
O O15 0.223250 0.347975 0.550747
O O16 0.000000 0.307882 0.478974
O O17 0.000000 0.910095 0.467622
#
# Coordination Sequence:
#
# PCOD8299835 Si02
#       6
#    16  16  16  16  16  16
#     4  12  24  39  60  87 117 152 195 243 294 349
#     4  10  20  34  52  77 109 145 188 239 293 345
#     4  12  24  38  55  76 108 150 196 242 293 348
#     4  11  24  42  62  86 120 158 198 244 297 353
#     4   9  17  32  57  87 117 152 193 237 288 346
#     4  10  21  38  62  91 121 156 196 243 292 345
#
# _framework density 20.409476000000002
#
# number of rings (size 3 to 8) (size 9 to 14) (size 15 to 20)
#    0.000    1.333    1.667    5.000    0.000    4.667 
#    0.000    0.000    0.000    0.500    0.000    0.000 
#    0.000    0.000    0.000    0.000    0.000    0.167 
#
# Total GULP energy -594775.378809 kJ/mol
# GULP energy per Si atom -12391.153725 kJ/mol
# Density = 2.036302 g / cm^3
# Si number density = 20.409476 Si / 1000 Ang^3
#
#
#
# Elastic Constant Matrix: (Units=GPa)
#
#
# Indices 1 2 3 4 5 6 
#
# 1 107.6299 29.6053 42.7433 0.0000 0.0000 0.0000
# 2 29.6053 89.7983 52.8288 0.0001 0.0000 0.0000
# 3 42.7433 52.8288 99.2287 -0.0004 0.0000 0.0000
# 4 0.0000 0.0001 -0.0004 13.8555 0.0000 0.0000
# 5 0.0000 0.0000 0.0000 0.0000 27.5266 0.0000
# 6 0.0000 0.0000 0.0000 0.0000 0.0000 21.9742
#
#
#
# Elastic Compliance Matrix: (Units=1/GPa)
#
#
# Indices 1 2 3 4 5 6 
#
# 1 0.011305 -0.001255 -0.004201 0.000000 0.000000 0.000000
# 2 -0.001255 0.016354 -0.008166 0.000000 0.000000 0.000000
# 3 -0.004201 -0.008166 0.016235 0.000001 0.000000 0.000000
# 4 0.000000 0.000000 0.000001 0.072174 0.000000 0.000000
# 5 0.000000 0.000000 0.000000 0.000000 0.036329 0.000000
# 6 0.000000 0.000000 0.000000 0.000000 0.000000 0.045508
#
#
# Mechanical properties :
#
#
# Convention : Reuss Voigt Hill
#
# Bulk Modulus (GPa) = 60.06546 60.77908 60.42227
# Shear Modulus (GPa) = 21.67327 24.10323 22.88825
#
# Velocity S-wave (km/s) = 3.26225 3.44027 3.35244
# Velocity P-wave (km/s) = 6.60937 6.75464 6.68240
#
# Compressibility (1/GPa) = 0.01664850
#
# Stress axis : x y z
#
# Youngs Moduli (GPa) = 88.45738 61.14678 61.59539
#
# Poissons Ratio (x) = 0.07677 0.25878
# Poissons Ratio (y) = 0.11105 0.50299
# Poissons Ratio (z) = 0.37163 0.49933
#
# Static dielectric constant tensor:
#      x y z
#    x 3.665090 0.000000 0.000000 
#    y 0.000000 4.258320 0.000000 
#    z 0.000000 0.000000 3.670290 
# 
# 
# High freq. dielectric constant tensor:
#      x y z
#    x 1.799350 0.000000 0.000000 
#    y 0.000000 1.811340 0.000000 
#    z 0.000000 0.000000 1.768650 
# 
# From -- ./inp_files/49137.got.cif
#   From: 2010.03.12/outbox.cif.g09.slc.cpg/sg74_25_cif.got.tgz:49137.got - 2010.04.16 15:46:19.
