data_PCOD8299317
_publ_section_title
;
Structure prediction by ZEFSAII (Michael W. Deem and Ramdas Pophale) SiO2 
 PCOD8299317
Probable space group: I M M A
;
_chemical_formula_sum "Si O2"
_cell_formula_units_Z 96
_cell_length_a 19.106401
_cell_length_b 17.359793
_cell_length_c 15.042680
_cell_angle_alpha 90.000000
_cell_angle_beta 90.000000
_cell_angle_gamma 90.000000
_cell_volume 4989.403733
_symmetry_space_group_name_H-M "I M M A"
_symmetry_group_IT_number 74
_symmetry_cell_setting 'orthorhombic'
loop_
_space_group_symop_operation_xyz
x,y,z
-x,1/2-y,z
x,-y,-z
-x,1/2+y,-z
-x,-y,-z
x,1/2+y,-z
-x,y,z
x,1/2-y,z
1/2+x,1/2+y,1/2+z
1/2-x,-y,1/2+z
1/2+x,1/2-y,1/2-z
1/2-x,y,1/2-z
1/2-x,1/2-y,1/2-z
1/2+x,y,1/2-z
1/2-x,1/2+y,1/2+z
1/2+x,-y,1/2+z
loop_
_atom_site_type_symbol
_atom_site_label
_atom_site_fract_x
_atom_site_fract_y
_atom_site_fract_z
Si Si1 0.314740 0.158767 0.986728
Si Si2 0.918338 0.420658 0.854239
Si Si3 0.657899 0.838813 0.513027
Si Si4 0.580911 0.098500 0.325808
Si Si5 0.419767 0.159659 0.135580
Si Si6 0.174765 0.341057 0.712778
O O1 0.317935 0.250000 0.987348
O O2 0.332838 0.128866 0.888091
O O3 0.237482 0.130663 0.014005
O O4 0.371484 0.126324 0.056435
O O5 0.902811 0.510846 0.849672
O O6 0.886189 0.379943 0.768659
O O7 0.000000 0.402436 0.854141
O O8 0.886524 0.389339 0.945137
O O9 0.655133 0.750000 0.482077
O O10 0.626667 0.846850 0.611269
O O11 0.500000 0.119661 0.340785
O O12 0.602452 0.114914 0.224496
O O13 0.500000 0.142700 0.109690
O O14 0.407363 0.250000 0.151568
O O15 0.165851 0.250000 0.720154
O O16 0.250000 0.366760 0.750000
#
# Coordination Sequence:
#
# PCOD8299317 Si02
#       6
#    16  16  16  16  16  16
#     4   9  19  35  57  85 114 142 180 238 287 323
#     4  11  23  38  56  83 116 148 187 233 282 341
#     4  11  21  36  58  84 113 147 190 235 284 341
#     4  10  22  39  55  78 117 153 184 235 289 331
#     4   9  18  36  60  83 110 149 194 234 279 336
#     4  10  19  37  60  81 111 148 184 228 281 332
#
# _framework density 19.240774999999999
#
# number of rings (size 3 to 8) (size 9 to 14) (size 15 to 20)
#    0.000    2.000    1.667    2.000    0.000    5.667 
#    3.000    5.000    0.000    3.000    0.000    0.000 
#    0.000    0.000    0.000    0.000    0.000    0.000 
#
# Total GULP energy -595376.600904 kJ/mol
# GULP energy per Si atom -12403.679185 kJ/mol
# Density = 1.919698 g / cm^3
# Si number density = 19.240775 Si / 1000 Ang^3
#
#
#
# Elastic Constant Matrix: (Units=GPa)
#
#
# Indices 1 2 3 4 5 6 
#
# 1 123.2145 39.3716 81.4729 0.0000 0.0000 0.0000
# 2 39.3716 42.9956 31.6487 0.0000 0.0000 0.0000
# 3 81.4729 31.6487 157.2070 0.0000 0.0000 0.0000
# 4 0.0000 0.0000 0.0000 0.1132 0.0000 0.0000
# 5 0.0000 0.0000 0.0000 0.0000 45.3810 0.0000
# 6 0.0000 0.0000 0.0000 0.0000 0.0000 18.5924
#
#
#
# Elastic Compliance Matrix: (Units=1/GPa)
#
#
# Indices 1 2 3 4 5 6 
#
# 1 0.015018 -0.009419 -0.005887 0.000000 0.000000 0.000000
# 2 -0.009419 0.033212 -0.001805 0.000000 0.000000 0.000000
# 3 -0.005887 -0.001805 0.009775 0.000000 0.000000 0.000000
# 4 0.000000 0.000000 0.000000 8.835757 0.000000 0.000000
# 5 0.000000 0.000000 0.000000 0.000000 0.022036 0.000000
# 6 0.000000 0.000000 0.000000 0.000000 0.000000 0.053785
#
#
# Mechanical properties :
#
#
# Convention : Reuss Voigt Hill
#
# Bulk Modulus (GPa) = 42.04539 69.82260 55.93399
# Shear Modulus (GPa) = 0.55483 24.21224 12.38353
#
# Velocity S-wave (km/s) = 0.53758 3.55122 2.53970
# Velocity P-wave (km/s) = 4.72070 7.29263 6.14278
#
# Compressibility (1/GPa) = 0.02378382
#
# Stress axis : x y z
#
# Youngs Moduli (GPa) = 66.58510 30.10981 102.29815
#
# Poissons Ratio (x) = 0.28361 0.60224
# Poissons Ratio (y) = 0.62717 0.18462
# Poissons Ratio (z) = 0.39199 0.05434
#
# Static dielectric constant tensor:
#      x y z
#    x 3.634430 0.000000 0.000000 
#    y 0.000000 3.307340 0.000000 
#    z 0.000000 0.000000 3.708760 
# 
# 
# High freq. dielectric constant tensor:
#      x y z
#    x 1.752730 0.000000 0.000000 
#    y 0.000000 1.728650 0.000000 
#    z 0.000000 0.000000 1.762100 
# 
# From -- ./inp_files/35244.got.cif
#   From: 2010.03.12/outbox.cif.g09.slc.cpg/sg74_18_cif.got.tgz:35244.got - 2010.04.16 15:46:19.
