data_PCOD8299938
_publ_section_title
;
Structure prediction by ZEFSAII (Michael W. Deem and Ramdas Pophale) SiO2 
 PCOD8299938
Probable space group: I M M A
;
_chemical_formula_sum "Si O2"
_cell_formula_units_Z 88
_cell_length_a 9.221230
_cell_length_b 19.559041
_cell_length_c 24.487431
_cell_angle_alpha 90.000000
_cell_angle_beta 90.000000
_cell_angle_gamma 90.000000
_cell_volume 4416.514258
_symmetry_space_group_name_H-M "I M M A"
_symmetry_group_IT_number 74
_symmetry_cell_setting 'orthorhombic'
loop_
_space_group_symop_operation_xyz
x,y,z
-x,1/2-y,z
x,-y,-z
-x,1/2+y,-z
-x,-y,-z
x,1/2+y,-z
-x,y,z
x,1/2-y,z
1/2+x,1/2+y,1/2+z
1/2-x,-y,1/2+z
1/2+x,1/2-y,1/2-z
1/2-x,y,1/2-z
1/2-x,1/2-y,1/2-z
1/2+x,y,1/2-z
1/2-x,1/2+y,1/2+z
1/2+x,-y,1/2+z
loop_
_atom_site_type_symbol
_atom_site_label
_atom_site_fract_x
_atom_site_fract_y
_atom_site_fract_z
Si Si1 0.834876 0.978872 0.197399
Si Si2 0.328859 0.076995 0.996609
Si Si3 0.169629 0.116522 0.622895
Si Si4 0.334375 0.359763 0.303126
Si Si5 0.670788 0.250000 0.808604
Si Si6 0.164993 0.326278 0.408931
O O1 0.750000 0.950820 0.250000
O O2 0.759519 0.947501 0.144722
O O3 0.000000 0.953981 0.202222
O O4 0.822121 0.059319 0.191845
O O5 0.500000 0.072120 0.002697
O O6 0.267188 0.121795 0.046664
O O7 0.289716 0.117917 0.941146
O O8 0.262737 0.000000 0.000000
O O9 0.217164 0.185050 0.654690
O O10 0.000000 0.102132 0.631235
O O11 0.500000 0.335528 0.298704
O O12 0.250000 0.333056 0.250000
O O13 0.262668 0.326134 0.355461
O O14 0.500000 0.250000 0.797052
O O15 0.750000 0.250000 0.750000
O O16 0.167865 0.250000 0.433989
O O17 0.000000 0.347212 0.393548
#
# Coordination Sequence:
#
# PCOD8299938 Si02
#       6
#    16  16  16  16   8  16
#     4  10  20  34  54  81 110 142 184 233 285 336
#     4   9  18  33  56  84 112 145 187 233 281 336
#     4  10  20  34  55  80 111 150 190 233 285 341
#     4  10  21  37  58  83 112 146 184 230 281 337
#     4  10  22  36  52  78 112 152 193 236 283 340
#     4  10  21  36  57  84 114 148 186 230 277 331
#
# _framework density 19.925215000000001
#
# number of rings (size 3 to 8) (size 9 to 14) (size 15 to 20)
#    0.000    2.182    0.000    2.727    1.273    6.545 
#    0.000    0.909    0.000    3.273    0.000    0.000 
#    0.000    0.000    0.000    0.000    0.000    0.000 
#
# Total GULP energy -545612.278086 kJ/mol
# GULP energy per Si atom -12400.279047 kJ/mol
# Density = 1.987986 g / cm^3
# Si number density = 19.925215 Si / 1000 Ang^3
#
#
#
# Elastic Constant Matrix: (Units=GPa)
#
#
# Indices 1 2 3 4 5 6 
#
# 1 79.2879 33.3090 46.7903 0.0000 0.0000 0.0000
# 2 33.3090 84.3454 65.8437 0.0000 0.0000 0.0000
# 3 46.7903 65.8437 150.4555 0.0000 0.0000 0.0000
# 4 0.0000 0.0000 0.0000 36.4308 0.0000 0.0000
# 5 0.0000 0.0000 0.0000 0.0000 28.7271 0.0000
# 6 0.0000 0.0000 0.0000 0.0000 0.0000 19.1244
#
#
#
# Elastic Compliance Matrix: (Units=1/GPa)
#
#
# Indices 1 2 3 4 5 6 
#
# 1 0.016189 -0.003741 -0.003397 0.000000 0.000000 0.000000
# 2 -0.003741 0.018873 -0.007096 0.000000 0.000000 0.000000
# 3 -0.003397 -0.007096 0.010808 0.000000 0.000000 0.000000
# 4 0.000000 0.000000 0.000000 0.027449 0.000000 0.000000
# 5 0.000000 0.000000 0.000000 0.000000 0.034810 0.000000
# 6 0.000000 0.000000 0.000000 0.000000 0.000000 0.052289
#
#
# Mechanical properties :
#
#
# Convention : Reuss Voigt Hill
#
# Bulk Modulus (GPa) = 57.46658 67.33055 62.39856
# Shear Modulus (GPa) = 25.68219 28.06619 26.87419
#
# Velocity S-wave (km/s) = 3.59406 3.75717 3.67652
# Velocity P-wave (km/s) = 6.79167 7.25857 7.02900
#
# Compressibility (1/GPa) = 0.01740142
#
# Stress axis : x y z
#
# Youngs Moduli (GPa) = 61.77123 52.98673 92.52088
#
# Poissons Ratio (x) = 0.19822 0.31433
# Poissons Ratio (y) = 0.23108 0.65651
# Poissons Ratio (z) = 0.20986 0.37598
#
# Static dielectric constant tensor:
#      x y z
#    x 3.452600 0.000000 0.000000 
#    y 0.000000 3.686800 0.000000 
#    z 0.000000 0.000000 3.718690 
# 
# 
# High freq. dielectric constant tensor:
#      x y z
#    x 1.751280 0.000000 0.000000 
#    y 0.000000 1.783890 0.000000 
#    z 0.000000 0.000000 1.784570 
# 
# From -- ./inp_files/56946.got.cif
#   From: 2010.03.12/outbox.cif.g09.slc.cpg/sg74_29_cif.got.tgz:56946.got - 2010.04.16 15:46:19.
