data_PCOD8299634
_publ_section_title
;
Structure prediction by ZEFSAII (Michael W. Deem and Ramdas Pophale) SiO2 
 PCOD8299634
Probable space group: I M M A
;
_chemical_formula_sum "Si O2"
_cell_formula_units_Z 104
_cell_length_a 26.582910
_cell_length_b 9.136792
_cell_length_c 23.977577
_cell_angle_alpha 90.000000
_cell_angle_beta 90.000000
_cell_angle_gamma 90.000000
_cell_volume 5823.734311
_symmetry_space_group_name_H-M "I M M A"
_symmetry_group_IT_number 74
_symmetry_cell_setting 'orthorhombic'
loop_
_space_group_symop_operation_xyz
x,y,z
-x,1/2-y,z
x,-y,-z
-x,1/2+y,-z
-x,-y,-z
x,1/2+y,-z
-x,y,z
x,1/2-y,z
1/2+x,1/2+y,1/2+z
1/2-x,-y,1/2+z
1/2+x,1/2-y,1/2-z
1/2-x,y,1/2-z
1/2-x,1/2-y,1/2-z
1/2+x,y,1/2-z
1/2-x,1/2+y,1/2+z
1/2+x,-y,1/2+z
loop_
_atom_site_type_symbol
_atom_site_label
_atom_site_fract_x
_atom_site_fract_y
_atom_site_fract_z
Si Si1 0.644899 0.418032 0.771773
Si Si2 0.212622 0.920492 0.644122
Si Si3 0.500000 0.082747 0.556785
Si Si4 0.182060 0.578571 0.151078
Si Si5 0.057808 0.580523 0.352842
Si Si6 0.626437 0.077393 0.059527
Si Si7 0.892344 0.921321 0.058495
O O1 0.660679 0.250000 0.783178
O O2 0.683096 0.524596 0.802232
O O3 0.650502 0.457205 0.706883
O O4 0.588290 0.445975 0.794881
O O5 0.222209 0.750000 0.650562
O O6 0.180184 0.955901 0.588625
O O7 0.265514 0.999355 0.643896
O O8 0.500000 0.250000 0.539395
O O9 0.552723 0.045936 0.587445
O O10 0.500000 0.000000 0.500000
O O11 0.192518 0.750000 0.146769
O O12 0.148548 0.517307 0.100857
O O13 0.061247 0.750000 0.370665
O O14 0.081314 0.485249 0.402668
O O15 0.000000 0.532794 0.343039
O O16 0.617760 0.250000 0.052044
O O17 0.626030 0.000000 0.000000
O O18 0.884789 0.750000 0.048327
O O19 0.885278 0.000000 0.000000
#
# Coordination Sequence:
#
# PCOD8299634 Si02
#       7
#    16  16   8  16  16  16  16
#     4   9  18  34  53  74 101 133 168 206 251 301
#     4  10  21  35  52  74 100 132 169 209 252 297
#     4   8  14  28  48  66  88 122 158 192 231 278
#     4  10  20  33  50  75 103 132 167 207 253 302
#     4   9  18  34  55  78 105 137 171 210 256 304
#     4  10  21  36  54  77 104 136 174 213 255 305
#     4   9  18  32  49  71  98 129 164 202 246 293
#
# _framework density 17.857956999999999
#
# number of rings (size 3 to 8) (size 9 to 14) (size 15 to 20)
#    0.000    2.615    0.000    1.385    0.000    6.154 
#    1.385    3.077    0.000    0.000    0.000    0.000 
#    0.000    0.000    0.000    0.000    0.000    0.000 
#
# Total GULP energy -644453.444260 kJ/mol
# GULP energy per Si atom -12393.335467 kJ/mol
# Density = 1.781731 g / cm^3
# Si number density = 17.857957 Si / 1000 Ang^3
#
#
#
# Elastic Constant Matrix: (Units=GPa)
#
#
# Indices 1 2 3 4 5 6 
#
# 1 160.7494 60.9771 91.5204 0.0000 0.0000 0.0000
# 2 60.9771 60.8645 50.2585 0.0000 0.0000 0.0000
# 3 91.5204 50.2585 121.0360 0.0000 0.0000 0.0000
# 4 0.0000 0.0000 0.0000 24.4765 0.0000 0.0000
# 5 0.0000 0.0000 0.0000 0.0000 11.8066 0.0000
# 6 0.0000 0.0000 0.0000 0.0000 0.0000 22.1226
#
#
#
# Elastic Compliance Matrix: (Units=1/GPa)
#
#
# Indices 1 2 3 4 5 6 
#
# 1 0.012763 -0.007332 -0.006607 0.000000 0.000000 0.000000
# 2 -0.007332 0.029214 -0.006587 0.000000 0.000000 0.000000
# 3 -0.006607 -0.006587 0.015993 0.000000 0.000000 0.000000
# 4 0.000000 0.000000 0.000000 0.040856 0.000000 0.000000
# 5 0.000000 0.000000 0.000000 0.000000 0.084699 0.000000
# 6 0.000000 0.000000 0.000000 0.000000 0.000000 0.045203
#
#
# Mechanical properties :
#
#
# Convention : Reuss Voigt Hill
#
# Bulk Modulus (GPa) = 59.10212 83.12911 71.11561
# Shear Modulus (GPa) = 18.15425 21.00739 19.58082
#
# Velocity S-wave (km/s) = 3.19186 3.43353 3.31490
# Velocity P-wave (km/s) = 6.83751 7.89747 7.38653
#
# Compressibility (1/GPa) = 0.01691987
#
# Stress axis : x y z
#
# Youngs Moduli (GPa) = 78.34969 34.22967 62.52859
#
# Poissons Ratio (x) = 0.25096 0.41310
# Poissons Ratio (y) = 0.57443 0.41188
# Poissons Ratio (z) = 0.51762 0.22548
#
# Static dielectric constant tensor:
#      x y z
#    x 4.444480 0.000000 0.000000 
#    y 0.000000 3.335710 0.000000 
#    z 0.000000 0.000000 3.254570 
# 
# 
# High freq. dielectric constant tensor:
#      x y z
#    x 1.702430 0.000000 0.000000 
#    y 0.000000 1.690750 0.000000 
#    z 0.000000 0.000000 1.679510 
# 
# From -- ./inp_files/62322.got.cif
#   From: 2010.03.12/outbox.cif.g09.slc.cpg/sg74_32_cif.got.tgz:62322.got - 2010.04.16 15:46:19.
