data_PCOD8299229
_publ_section_title
;
Structure prediction by ZEFSAII (Michael W. Deem and Ramdas Pophale) SiO2 
 PCOD8299229
Probable space group: I M M A
;
_chemical_formula_sum "Si O2"
_cell_formula_units_Z 72
_cell_length_a 14.021667
_cell_length_b 14.578460
_cell_length_c 19.777232
_cell_angle_alpha 90.000000
_cell_angle_beta 90.000000
_cell_angle_gamma 90.000000
_cell_volume 4042.749263
_symmetry_space_group_name_H-M "I M M A"
_symmetry_group_IT_number 74
_symmetry_cell_setting 'orthorhombic'
loop_
_space_group_symop_operation_xyz
x,y,z
-x,1/2-y,z
x,-y,-z
-x,1/2+y,-z
-x,-y,-z
x,1/2+y,-z
-x,y,z
x,1/2-y,z
1/2+x,1/2+y,1/2+z
1/2-x,-y,1/2+z
1/2+x,1/2-y,1/2-z
1/2-x,y,1/2-z
1/2-x,1/2-y,1/2-z
1/2+x,y,1/2-z
1/2-x,1/2+y,1/2+z
1/2+x,-y,1/2+z
loop_
_atom_site_type_symbol
_atom_site_label
_atom_site_fract_x
_atom_site_fract_y
_atom_site_fract_z
Si Si1 0.000000 0.929600 0.761237
Si Si2 0.290697 0.750000 0.875512
Si Si3 0.000000 0.750000 0.671841
Si Si4 0.500000 0.444416 0.865218
Si Si5 0.297526 0.451135 0.928994
Si Si6 0.797280 0.934476 0.819086
Si Si7 0.500000 0.750000 0.086091
Si Si8 0.698345 0.250000 0.970250
O O1 0.000000 0.838954 0.717396
O O2 0.089696 0.928929 0.810909
O O3 0.000000 0.016567 0.710700
O O4 0.405452 0.750000 0.873697
O O5 0.247847 0.662828 0.838006
O O6 0.261295 0.750000 0.953865
O O7 0.405215 0.475636 0.905360
O O8 0.500000 0.334473 0.861858
O O9 0.222550 0.491222 0.876339
O O10 0.269907 0.343403 0.932722
O O11 0.281767 0.500000 0.000000
O O12 0.750000 0.969502 0.750000
O O13 0.584458 0.750000 0.031974
#
# Coordination Sequence:
#
# PCOD8299229 Si02
#       8
#     8   8   4   8  16  16   4   8
#     4  12  24  38  58  89 124 155 205 242 302 356
#     4  12  21  36  62  91 130 156 194 243 307 361
#     4  12  21  32  58  96 128 157 184 244 300 377
#     4  10  19  35  59  89 122 155 193 245 299 363
#     4  11  21  38  61  88 123 159 199 244 301 358
#     4  12  23  40  60  88 122 164 198 247 298 360
#     4   8  19  34  54  90 126 147 192 244 302 361
#     4  10  21  36  58  91 123 155 196 245 302 359
#
# _framework density 17.809661999999999
#
# number of rings (size 3 to 8) (size 9 to 14) (size 15 to 20)
#    0.000    0.889    6.667    1.667    0.000    0.000 
#    0.000    2.222    0.000    0.000    0.000    0.000 
#    0.000    0.000    0.000    0.000    0.000    0.000 
#
# Total GULP energy -446413.203277 kJ/mol
# GULP energy per Si atom -12400.366758 kJ/mol
# Density = 1.776913 g / cm^3
# Si number density = 17.809662 Si / 1000 Ang^3
#
#
#
# Elastic Constant Matrix: (Units=GPa)
#
#
# Indices 1 2 3 4 5 6 
#
# 1 106.3122 30.5388 43.8522 0.0000 0.0000 0.0000
# 2 30.5388 114.2487 49.7729 0.0000 0.0000 0.0000
# 3 43.8522 49.7729 103.3776 0.0000 0.0000 0.0000
# 4 0.0000 0.0000 0.0000 -99.7715 0.0000 0.0000
# 5 0.0000 0.0000 0.0000 0.0000 81.4163 0.0000
# 6 0.0000 0.0000 0.0000 0.0000 0.0000 19.1131
#
#
#
# Elastic Compliance Matrix: (Units=1/GPa)
#
#
# Indices 1 2 3 4 5 6 
#
# 1 0.011531 -0.001204 -0.004312 0.000000 0.000000 0.000000
# 2 -0.001204 0.011202 -0.004883 0.000000 0.000000 0.000000
# 3 -0.004312 -0.004883 0.013853 0.000000 0.000000 0.000000
# 4 0.000000 0.000000 0.000000 -0.010023 0.000000 0.000000
# 5 0.000000 0.000000 0.000000 0.000000 0.012283 0.000000
# 6 0.000000 0.000000 0.000000 0.000000 0.000000 0.052320
#
#
# Mechanical properties :
#
#
# Convention : Reuss Voigt Hill
#
# Bulk Modulus (GPa) = 63.33398 63.58514 63.45956
# Shear Modulus (GPa) = 42.65329 13.46988 28.06158
#
# Velocity S-wave (km/s) = 4.89913 2.75312 3.97374
# Velocity P-wave (km/s) = 8.22440 6.77395 7.53416
#
# Compressibility (1/GPa) = 0.01578931
#
# Stress axis : x y z
#
# Youngs Moduli (GPa) = 86.72630 89.27181 72.18608
#
# Poissons Ratio (x) = 0.10746 0.31124
# Poissons Ratio (y) = 0.10440 0.35246
# Poissons Ratio (z) = 0.37393 0.43588
#
# Static dielectric constant tensor:
#      x y z
#    x 3.309520 0.000000 0.000000 
#    y 0.000000 3.497670 0.000000 
#    z 0.000000 0.000000 3.219300 
# 
# 
# High freq. dielectric constant tensor:
#      x y z
#    x 1.674010 0.000000 0.000000 
#    y 0.000000 1.701520 0.000000 
#    z 0.000000 0.000000 1.684830 
# 
# From -- ./inp_files/42577.got.cif
#   From: 2010.03.12/outbox.cif.g09.slc.cpg/sg74_22_cif.got.tgz:42577.got - 2010.04.16 15:46:19.
