data_PCOD8299118
_publ_section_title
;
Structure prediction by ZEFSAII (Michael W. Deem and Ramdas Pophale) SiO2 
 PCOD8299118
Probable space group: I M M A
;
_chemical_formula_sum "Si O2"
_cell_formula_units_Z 88
_cell_length_a 9.246294
_cell_length_b 17.996044
_cell_length_c 28.972226
_cell_angle_alpha 90.000000
_cell_angle_beta 90.000000
_cell_angle_gamma 90.000000
_cell_volume 4820.883194
_symmetry_space_group_name_H-M "I M M A"
_symmetry_group_IT_number 74
_symmetry_cell_setting 'orthorhombic'
loop_
_space_group_symop_operation_xyz
x,y,z
-x,1/2-y,z
x,-y,-z
-x,1/2+y,-z
-x,-y,-z
x,1/2+y,-z
-x,y,z
x,1/2-y,z
1/2+x,1/2+y,1/2+z
1/2-x,-y,1/2+z
1/2+x,1/2-y,1/2-z
1/2-x,y,1/2-z
1/2-x,1/2-y,1/2-z
1/2+x,y,1/2-z
1/2-x,1/2+y,1/2+z
1/2+x,-y,1/2+z
loop_
_atom_site_type_symbol
_atom_site_label
_atom_site_fract_x
_atom_site_fract_y
_atom_site_fract_z
Si Si1 0.330522 0.381449 0.633842
Si Si2 0.329835 0.952427 0.630557
Si Si3 0.833708 0.074998 0.028334
Si Si4 0.670365 0.250000 0.701442
Si Si5 0.169094 0.834376 0.796861
Si Si6 0.336788 0.337512 0.956971
O O1 0.500000 0.371992 0.623350
O O2 0.292001 0.465273 0.649877
O O3 0.281316 0.323341 0.673126
O O4 0.249119 0.368315 0.586463
O O5 0.500000 0.943041 0.627325
O O6 0.267906 0.939016 0.579267
O O7 0.266303 0.890121 0.664785
O O8 0.000000 0.101469 0.030028
O O9 0.739441 0.138477 0.004333
O O10 0.817812 0.000000 0.000000
O O11 0.500000 0.250000 0.710695
O O12 0.750000 0.250000 0.750000
O O13 0.199695 0.750000 0.813038
O O14 0.250000 0.853184 0.750000
O O15 0.000000 0.847893 0.788506
O O16 0.500000 0.368734 0.955606
O O17 0.336009 0.250000 0.954936
#
# Coordination Sequence:
#
# PCOD8299118 Si02
#       6
#    16  16  16   8  16  16
#     4  10  19  36  58  78 102 142 190 230 271 326
#     4   9  18  33  56  83 108 135 179 231 270 316
#     4  10  19  34  57  82 107 141 183 228 270 318
#     4  10  22  36  56  80 108 144 182 234 289 332
#     4   9  18  34  55  78 106 139 174 216 268 323
#     4  11  23  36  52  78 112 148 183 225 273 325
#
# _framework density 18.253917000000001
#
# number of rings (size 3 to 8) (size 9 to 14) (size 15 to 20)
#    0.000    2.182    2.727    0.545    0.000    3.636 
#    0.000    3.636    0.000    2.182    0.000    0.000 
#    0.000    0.000    0.000    0.000    0.000    0.000 
#
# Total GULP energy -545593.520147 kJ/mol
# GULP energy per Si atom -12399.852731 kJ/mol
# Density = 1.821237 g / cm^3
# Si number density = 18.253917 Si / 1000 Ang^3
#
#
#
# Elastic Constant Matrix: (Units=GPa)
#
#
# Indices 1 2 3 4 5 6 
#
# 1 47.4718 36.0350 37.2306 0.0000 0.0000 0.0000
# 2 36.0350 123.2706 85.9195 0.0000 0.0000 0.0000
# 3 37.2306 85.9195 146.8668 0.0000 0.0000 0.0000
# 4 0.0000 0.0000 0.0000 37.8101 0.0000 0.0000
# 5 0.0000 0.0000 0.0000 0.0000 16.0131 0.0000
# 6 0.0000 0.0000 0.0000 0.0000 0.0000 19.5255
#
#
#
# Elastic Compliance Matrix: (Units=1/GPa)
#
#
# Indices 1 2 3 4 5 6 
#
# 1 0.028368 -0.005539 -0.003951 0.000000 0.000000 0.000000
# 2 -0.005539 0.014779 -0.007242 0.000000 0.000000 0.000000
# 3 -0.003951 -0.007242 0.012047 0.000000 0.000000 0.000000
# 4 0.000000 0.000000 0.000000 0.026448 0.000000 0.000000
# 5 0.000000 0.000000 0.000000 0.000000 0.062449 0.000000
# 6 0.000000 0.000000 0.000000 0.000000 0.000000 0.051215
#
#
# Mechanical properties :
#
#
# Convention : Reuss Voigt Hill
#
# Bulk Modulus (GPa) = 46.01759 70.66440 58.34099
# Shear Modulus (GPa) = 21.18527 25.23136 23.20831
#
# Velocity S-wave (km/s) = 3.41044 3.72189 3.56956
# Velocity P-wave (km/s) = 6.38534 7.56742 7.00137
#
# Compressibility (1/GPa) = 0.02173082
#
# Stress axis : x y z
#
# Youngs Moduli (GPa) = 35.25068 67.66390 83.00795
#
# Poissons Ratio (x) = 0.37478 0.32796
# Poissons Ratio (y) = 0.19525 0.60113
# Poissons Ratio (z) = 0.13927 0.49001
#
# Static dielectric constant tensor:
#      x y z
#    x 3.300170 0.000000 0.000000 
#    y 0.000000 3.636240 0.000000 
#    z 0.000000 0.000000 3.686320 
# 
# 
# High freq. dielectric constant tensor:
#      x y z
#    x 1.684060 0.000000 0.000000 
#    y 0.000000 1.717600 0.000000 
#    z 0.000000 0.000000 1.707100 
# 
# From -- ./inp_files/70216.got.cif
#   From: 2010.03.12/outbox.cif.g09.slc.cpg/sg74_36_cif.got.tgz:70216.got - 2010.04.16 15:46:19.
