data_PCOD8299966
_publ_section_title
;
Structure prediction by ZEFSAII (Michael W. Deem and Ramdas Pophale) SiO2 
 PCOD8299966
Probable space group: I M M A
;
_chemical_formula_sum "Si O2"
_cell_formula_units_Z 120
_cell_length_a 25.100213
_cell_length_b 8.962304
_cell_length_c 27.857354
_cell_angle_alpha 90.000000
_cell_angle_beta 90.000000
_cell_angle_gamma 90.000000
_cell_volume 6266.671666
_symmetry_space_group_name_H-M "I M M A"
_symmetry_group_IT_number 74
_symmetry_cell_setting 'orthorhombic'
loop_
_space_group_symop_operation_xyz
x,y,z
-x,1/2-y,z
x,-y,-z
-x,1/2+y,-z
-x,-y,-z
x,1/2+y,-z
-x,y,z
x,1/2-y,z
1/2+x,1/2+y,1/2+z
1/2-x,-y,1/2+z
1/2+x,1/2-y,1/2-z
1/2-x,y,1/2-z
1/2-x,1/2-y,1/2-z
1/2+x,y,1/2-z
1/2-x,1/2+y,1/2+z
1/2+x,-y,1/2+z
loop_
_atom_site_type_symbol
_atom_site_label
_atom_site_fract_x
_atom_site_fract_y
_atom_site_fract_z
Si Si1 0.437253 0.579715 0.141371
Si Si2 0.500000 0.928309 0.552229
Si Si3 0.142276 0.073218 0.295756
Si Si4 0.212137 0.575356 0.050791
Si Si5 0.601098 0.574828 0.399438
Si Si6 0.762396 0.578987 0.637356
Si Si7 0.849176 0.921175 0.812864
Si Si8 0.936477 0.582584 0.546644
O O1 0.500000 0.563138 0.145313
O O2 0.418916 0.750000 0.140403
O O3 0.413161 0.496478 0.187079
O O4 0.415150 0.502887 0.093179
O O5 0.500000 0.750000 0.547829
O O6 0.500000 0.000000 0.500000
O O7 0.447903 0.981268 0.580333
O O8 0.139608 0.250000 0.297586
O O9 0.189050 0.014807 0.330865
O O10 0.150340 0.018513 0.241433
O O11 0.220357 0.750000 0.045320
O O12 0.152505 0.536400 0.068265
O O13 0.255542 0.515241 0.088723
O O14 0.222651 0.500000 0.000000
O O15 0.587678 0.750000 0.400133
O O16 0.611801 0.522919 0.344902
O O17 0.772254 0.750000 0.622599
O O18 0.711006 0.562616 0.670357
O O19 0.868724 0.750000 0.816415
O O20 0.913364 0.500000 0.500000
O O21 0.913902 0.750000 0.547695
O O22 0.000000 0.582625 0.545292
#
# Coordination Sequence:
#
# PCOD8299966 Si02
#       8
#    16   8  16  16  16  16  16  16
#     4  10  21  36  52  73 104 141 180 219 264 320
#     4  12  24  38  58  84 116 154 196 240 287 334
#     4  10  20  35  57  83 108 140 181 226 276 329
#     4  10  20  34  55  82 113 149 186 224 275 334
#     4  10  21  37  56  82 114 150 192 236 280 332
#     4   9  18  34  57  83 111 140 176 224 275 328
#     4   9  18  35  58  83 110 142 181 226 277 332
#     4   9  16  28  49  74  98 126 162 206 254 304
#
# _framework density 19.148921999999999
#
# number of rings (size 3 to 8) (size 9 to 14) (size 15 to 20)
#    0.000    2.267    0.000    3.000    0.000    7.733 
#    1.200    0.667    0.000    7.200    0.000    0.000 
#    0.000    0.000    0.000    0.000    0.000    0.000 
#
# Total GULP energy -744134.120166 kJ/mol
# GULP energy per Si atom -12402.235336 kJ/mol
# Density = 1.910534 g / cm^3
# Si number density = 19.148922 Si / 1000 Ang^3
#
#
#
# Elastic Constant Matrix: (Units=GPa)
#
#
# Indices 1 2 3 4 5 6 
#
# 1 47.0892 33.8621 46.4337 0.0000 0.0000 0.0000
# 2 33.8621 75.9057 66.3206 0.0000 0.0000 0.0000
# 3 46.4337 66.3206 171.4472 0.0000 0.0000 0.0000
# 4 0.0000 0.0000 0.0000 35.8317 0.0000 0.0000
# 5 0.0000 0.0000 0.0000 0.0000 21.5200 0.0000
# 6 0.0000 0.0000 0.0000 0.0000 0.0000 23.5101
#
#
#
# Elastic Compliance Matrix: (Units=1/GPa)
#
#
# Indices 1 2 3 4 5 6 
#
# 1 0.033919 -0.010732 -0.005035 0.000000 0.000000 0.000000
# 2 -0.010732 0.023296 -0.006105 0.000000 0.000000 0.000000
# 3 -0.005035 -0.006105 0.009558 0.000000 0.000000 0.000000
# 4 0.000000 0.000000 0.000000 0.027908 0.000000 0.000000
# 5 0.000000 0.000000 0.000000 0.000000 0.046468 0.000000
# 6 0.000000 0.000000 0.000000 0.000000 0.000000 0.042535
#
#
# Mechanical properties :
#
#
# Convention : Reuss Voigt Hill
#
# Bulk Modulus (GPa) = 43.42445 65.29721 54.36083
# Shear Modulus (GPa) = 21.26716 26.02740 23.64728
#
# Velocity S-wave (km/s) = 3.33621 3.69075 3.51795
# Velocity P-wave (km/s) = 6.12918 7.23435 6.70458
#
# Compressibility (1/GPa) = 0.02302850
#
# Stress axis : x y z
#
# Youngs Moduli (GPa) = 29.48227 42.92577 104.62658
#
# Poissons Ratio (x) = 0.46070 0.52676
# Poissons Ratio (y) = 0.31642 0.63873
# Poissons Ratio (z) = 0.14843 0.26206
#
# Static dielectric constant tensor:
#      x y z
#    x 3.316360 0.000000 0.000000 
#    y 0.000000 3.552890 0.000000 
#    z 0.000000 0.000000 3.654700 
# 
# 
# High freq. dielectric constant tensor:
#      x y z
#    x 1.726570 0.000000 0.000000 
#    y 0.000000 1.747720 0.000000 
#    z 0.000000 0.000000 1.754570 
# 
# From -- ./inp_files/69022.got.cif
#   From: 2010.03.12/outbox.cif.g09.slc.cpg/sg74_35_cif.got.tgz:69022.got - 2010.04.16 15:46:19.
