data_PCOD8299879
_publ_section_title
;
Structure prediction by ZEFSAII (Michael W. Deem and Ramdas Pophale) SiO2 
 PCOD8299879
Probable space group: I M M A
;
_chemical_formula_sum "Si O2"
_cell_formula_units_Z 96
_cell_length_a 11.469295
_cell_length_b 17.790701
_cell_length_c 24.934389
_cell_angle_alpha 90.000000
_cell_angle_beta 90.000000
_cell_angle_gamma 90.000000
_cell_volume 5087.782236
_symmetry_space_group_name_H-M "I M M A"
_symmetry_group_IT_number 74
_symmetry_cell_setting 'orthorhombic'
loop_
_space_group_symop_operation_xyz
x,y,z
-x,1/2-y,z
x,-y,-z
-x,1/2+y,-z
-x,-y,-z
x,1/2+y,-z
-x,y,z
x,1/2-y,z
1/2+x,1/2+y,1/2+z
1/2-x,-y,1/2+z
1/2+x,1/2-y,1/2-z
1/2-x,y,1/2-z
1/2-x,1/2-y,1/2-z
1/2+x,y,1/2-z
1/2-x,1/2+y,1/2+z
1/2+x,-y,1/2+z
loop_
_atom_site_type_symbol
_atom_site_label
_atom_site_fract_x
_atom_site_fract_y
_atom_site_fract_z
Si Si1 0.634477 0.666034 0.402780
Si Si2 0.500000 0.160329 0.135918
Si Si3 0.000000 0.661016 0.514251
Si Si4 0.767294 0.587756 0.494127
Si Si5 0.770556 0.661421 0.691431
Si Si6 0.367424 0.662279 0.589628
Si Si7 0.867262 0.839042 0.219624
O O1 0.500000 0.669717 0.417992
O O2 0.688168 0.750000 0.410642
O O3 0.690570 0.605577 0.442258
O O4 0.651867 0.637850 0.342097
O O5 0.500000 0.250000 0.135383
O O6 0.500000 0.130968 0.075275
O O7 0.388156 0.127330 0.166468
O O8 0.111051 0.628682 0.483696
O O9 0.000000 0.750000 0.510962
O O10 0.786165 0.500000 0.500000
O O11 0.711259 0.617087 0.548838
O O12 0.785677 0.750000 0.698286
O O13 0.750000 0.624623 0.750000
O O14 0.664889 0.642363 0.651110
O O15 0.500000 0.639105 0.580306
O O16 0.345029 0.750000 0.578651
O O17 0.869143 0.750000 0.225927
O O18 0.750000 0.871291 0.250000
O O19 0.000000 0.867478 0.238088
#
# Coordination Sequence:
#
# PCOD8299879 Si02
#       7
#    16   8   8  16  16  16  16
#     4   9  18  34  56  81 109 144 183 225 273 325
#     4   9  16  29  51  75 103 139 170 209 273 325
#     4  11  21  39  61  79 107 145 181 219 271 331
#     4  12  24  37  54  79 110 144 181 227 274 326
#     4   9  17  28  47  77 107 136 177 229 276 316
#     4  10  20  34  53  78 108 143 184 232 277 321
#     4   8  14  27  49  78 111 140 173 226 284 332
#
# _framework density 18.868732000000001
#
# number of rings (size 3 to 8) (size 9 to 14) (size 15 to 20)
#    0.000    2.333    1.667    3.250    1.167    2.667 
#    1.500    0.000    0.000    1.000    0.000    0.000 
#    0.000    0.000    0.000    0.000    0.000    0.000 
#
# Total GULP energy -594901.415007 kJ/mol
# GULP energy per Si atom -12393.779479 kJ/mol
# Density = 1.882579 g / cm^3
# Si number density = 18.868732 Si / 1000 Ang^3
#
#
#
# Elastic Constant Matrix: (Units=GPa)
#
#
# Indices 1 2 3 4 5 6 
#
# 1 111.2015 35.1657 44.7340 0.0000 0.0000 0.0000
# 2 35.1657 56.0506 23.7451 0.0000 0.0000 0.0000
# 3 44.7340 23.7451 92.1156 0.0000 0.0000 0.0000
# 4 0.0000 0.0000 0.0000 3.3187 0.0000 0.0000
# 5 0.0000 0.0000 0.0000 0.0000 30.9890 0.0000
# 6 0.0000 0.0000 0.0000 0.0000 0.0000 9.9887
#
#
#
# Elastic Compliance Matrix: (Units=1/GPa)
#
#
# Indices 1 2 3 4 5 6 
#
# 1 0.012773 -0.006046 -0.004644 0.000000 0.000000 0.000000
# 2 -0.006046 0.022890 -0.002964 0.000000 0.000000 0.000000
# 3 -0.004644 -0.002964 0.013876 0.000000 0.000000 0.000000
# 4 0.000000 0.000000 0.000000 0.301321 0.000000 0.000000
# 5 0.000000 0.000000 0.000000 0.000000 0.032270 0.000000
# 6 0.000000 0.000000 0.000000 0.000000 0.000000 0.100113
#
#
# Mechanical properties :
#
#
# Convention : Reuss Voigt Hill
#
# Bulk Modulus (GPa) = 44.98644 51.85082 48.41863
# Shear Modulus (GPa) = 9.65322 19.24080 14.44701
#
# Velocity S-wave (km/s) = 2.26431 3.19677 2.77006
# Velocity P-wave (km/s) = 5.54344 6.41601 5.99562
#
# Compressibility (1/GPa) = 0.02222892
#
# Stress axis : x y z
#
# Youngs Moduli (GPa) = 78.28990 43.68693 72.06944
#
# Poissons Ratio (x) = 0.26414 0.33472
# Poissons Ratio (y) = 0.47335 0.21364
# Poissons Ratio (z) = 0.36361 0.12950
#
# Static dielectric constant tensor:
#      x y z
#    x 3.945650 0.000000 0.000000 
#    y 0.000000 3.227770 0.000000 
#    z 0.000000 0.000000 3.578800 
# 
# 
# High freq. dielectric constant tensor:
#      x y z
#    x 1.747520 0.000000 0.000000 
#    y 0.000000 1.674150 0.000000 
#    z 0.000000 0.000000 1.735860 
# 
# From -- ./inp_files/58894.got.cif
#   From: 2010.03.12/outbox.cif.g09.slc.cpg/sg74_30_cif.got.tgz:58894.got - 2010.04.16 15:46:19.
