data_PCOD8299610
_publ_section_title
;
Structure prediction by ZEFSAII (Michael W. Deem and Ramdas Pophale) SiO2 
 PCOD8299610
Probable space group: I M M A
;
_chemical_formula_sum "Si O2"
_cell_formula_units_Z 112
_cell_length_a 14.035356
_cell_length_b 25.305397
_cell_length_c 16.884268
_cell_angle_alpha 90.000000
_cell_angle_beta 90.000000
_cell_angle_gamma 90.000000
_cell_volume 5996.789781
_symmetry_space_group_name_H-M "I M M A"
_symmetry_group_IT_number 74
_symmetry_cell_setting 'orthorhombic'
loop_
_space_group_symop_operation_xyz
x,y,z
-x,1/2-y,z
x,-y,-z
-x,1/2+y,-z
-x,-y,-z
x,1/2+y,-z
-x,y,z
x,1/2-y,z
1/2+x,1/2+y,1/2+z
1/2-x,-y,1/2+z
1/2+x,1/2-y,1/2-z
1/2-x,y,1/2-z
1/2-x,1/2-y,1/2-z
1/2+x,y,1/2-z
1/2-x,1/2+y,1/2+z
1/2+x,-y,1/2+z
loop_
_atom_site_type_symbol
_atom_site_label
_atom_site_fract_x
_atom_site_fract_y
_atom_site_fract_z
Si Si1 0.393766 0.152141 0.298149
Si Si2 0.894971 0.993753 0.592769
Si Si3 0.276792 0.310081 0.435699
Si Si4 0.269633 0.446030 0.660750
Si Si5 0.894149 0.957123 0.886054
Si Si6 0.887428 0.609535 0.035062
Si Si7 0.111386 0.875007 0.620600
O O1 0.500000 0.175508 0.308871
O O2 0.320521 0.188313 0.346852
O O3 0.389800 0.093057 0.330120
O O4 0.366754 0.149873 0.206198
O O5 0.854258 0.935957 0.616805
O O6 0.000000 0.999431 0.630490
O O7 0.899780 0.000000 0.500000
O O8 0.833557 0.042500 0.624333
O O9 0.258737 0.250000 0.461241
O O10 0.351843 0.335920 0.496520
O O11 0.176137 0.341314 0.439906
O O12 0.250000 0.427576 0.750000
O O13 0.326665 0.500436 0.653704
O O14 0.327842 0.400339 0.615273
O O15 0.000000 0.981564 0.888039
O O16 0.865689 0.939728 0.975644
O O17 0.000000 0.614641 0.052327
O O18 0.000000 0.870305 0.596912
#
# Coordination Sequence:
#
# PCOD8299610 Si02
#       7
#    16  16  16  16  16  16  16
#     4   9  18  31  48  75 111 145 178 218 265 317
#     4  10  20  34  52  74 105 147 187 212 236 290
#     4  11  22  36  56  77  98 134 185 234 278 326
#     4  12  22  31  51  80 110 140 172 212 260 313
#     4   9  17  31  52  77 107 145 181 211 250 305
#     4  10  22  39  57  79 108 140 177 224 272 316
#     4  10  20  33  49  74 112 150 180 217 264 311
#
# _framework density 18.676659000000001
#
# number of rings (size 3 to 8) (size 9 to 14) (size 15 to 20)
#    0.000    1.857    0.000    6.857    0.000    6.000 
#    0.000    1.429    0.000    0.429    0.000    0.000 
#    0.000    0.000    0.000    0.000    0.000    0.000 
#
# Total GULP energy -694350.014289 kJ/mol
# GULP energy per Si atom -12399.107398 kJ/mol
# Density = 1.863415 g / cm^3
# Si number density = 18.676659 Si / 1000 Ang^3
#
#
#
# Elastic Constant Matrix: (Units=GPa)
#
#
# Indices 1 2 3 4 5 6 
#
# 1 98.8617 42.1086 40.7912 0.0000 0.0000 0.0000
# 2 42.1086 65.7751 27.0717 0.0002 0.0000 0.0000
# 3 40.7912 27.0717 72.1571 0.0000 0.0000 0.0001
# 4 0.0000 0.0002 0.0000 14.6215 0.0000 0.0000
# 5 0.0000 0.0000 0.0000 0.0000 22.8017 0.0000
# 6 0.0000 0.0000 0.0001 0.0000 0.0000 0.9868
#
#
#
# Elastic Compliance Matrix: (Units=1/GPa)
#
#
# Indices 1 2 3 4 5 6 
#
# 1 0.015902 -0.007664 -0.006114 0.000000 0.000000 0.000000
# 2 -0.007664 0.021673 -0.003799 0.000000 0.000000 0.000000
# 3 -0.006114 -0.003799 0.018740 0.000000 0.000000 -0.000001
# 4 0.000000 0.000000 0.000000 0.068392 0.000000 -0.000003
# 5 0.000000 0.000000 0.000000 0.000000 0.043856 0.000001
# 6 0.000000 0.000000 -0.000001 -0.000003 0.000001 1.013351
#
#
# Mechanical properties :
#
#
# Convention : Reuss Voigt Hill
#
# Bulk Modulus (GPa) = 47.25528 50.74855 49.00191
# Shear Modulus (GPa) = 4.08455 16.13684 10.11070
#
# Velocity S-wave (km/s) = 1.48045 2.94260 2.32923
# Velocity P-wave (km/s) = 5.31780 6.22706 5.79031
#
# Compressibility (1/GPa) = 0.02116165
#
# Stress axis : x y z
#
# Youngs Moduli (GPa) = 62.88376 46.13985 53.36062
#
# Poissons Ratio (x) = 0.35361 0.32627
# Poissons Ratio (y) = 0.48194 0.20271
# Poissons Ratio (z) = 0.38450 0.17527
#
# Static dielectric constant tensor:
#      x y z
#    x 3.817470 0.000000 0.000000 
#    y 0.000000 3.059160 0.000000 
#    z 0.000000 0.000000 3.310280 
# 
# 
# High freq. dielectric constant tensor:
#      x y z
#    x 1.748870 0.000000 0.000000 
#    y 0.000000 1.683400 0.000000 
#    z 0.000000 0.000000 1.700530 
# 
# From -- ./inp_files/32904.got.cif
#   From: 2010.03.12/outbox.cif.g09.slc.cpg/sg74_17_cif.got.tgz:32904.got - 2010.04.16 15:46:19.
