data_PCOD8299032
_publ_section_title
;
Structure prediction by ZEFSAII (Michael W. Deem and Ramdas Pophale) SiO2 
 PCOD8299032
Probable space group: I M M A
;
_chemical_formula_sum "Si O2"
_cell_formula_units_Z 88
_cell_length_a 9.229064
_cell_length_b 27.467549
_cell_length_c 18.554121
_cell_angle_alpha 90.000000
_cell_angle_beta 90.000000
_cell_angle_gamma 90.000000
_cell_volume 4703.465362
_symmetry_space_group_name_H-M "I M M A"
_symmetry_group_IT_number 74
_symmetry_cell_setting 'orthorhombic'
loop_
_space_group_symop_operation_xyz
x,y,z
-x,1/2-y,z
x,-y,-z
-x,1/2+y,-z
-x,-y,-z
x,1/2+y,-z
-x,y,z
x,1/2-y,z
1/2+x,1/2+y,1/2+z
1/2-x,-y,1/2+z
1/2+x,1/2-y,1/2-z
1/2-x,y,1/2-z
1/2-x,1/2-y,1/2-z
1/2+x,y,1/2-z
1/2-x,1/2+y,1/2+z
1/2+x,-y,1/2+z
loop_
_atom_site_type_symbol
_atom_site_label
_atom_site_fract_x
_atom_site_fract_y
_atom_site_fract_z
Si Si1 0.164046 0.670824 0.907173
Si Si2 0.168731 0.007641 0.677274
Si Si3 0.163703 0.804452 0.073528
Si Si4 0.167867 0.899468 0.406744
Si Si5 0.329075 0.250000 0.175710
Si Si6 0.332581 0.921775 0.930092
O O1 0.279525 0.702251 0.865112
O O2 0.220541 0.616330 0.896334
O O3 0.000000 0.675349 0.876631
O O4 0.168455 0.688768 0.988475
O O5 0.250000 0.991639 0.750000
O O6 0.219263 0.061526 0.652901
O O7 0.000000 0.006778 0.695338
O O8 0.202331 0.972219 0.609892
O O9 0.224478 0.750000 0.092325
O O10 0.254232 0.848051 0.109414
O O11 0.000000 0.808746 0.102050
O O12 0.200319 0.923898 0.484493
O O13 0.000000 0.887897 0.399335
O O14 0.500000 0.250000 0.185312
O O15 0.250000 0.250000 0.250000
O O16 0.500000 0.906340 0.917406
#
# Coordination Sequence:
#
# PCOD8299032 Si02
#       6
#    16  16  16  16   8  16
#     4  10  19  34  52  74 104 134 168 215 262 309
#     4  10  21  36  54  76 107 141 176 219 268 320
#     4   9  17  31  52  78 108 136 163 207 264 313
#     4   9  18  33  54  80 105 136 178 223 264 308
#     4  12  24  36  50  68  96 138 181 218 261 312
#     4   9  18  34  55  78 103 137 179 220 262 311
#
# _framework density 18.709610000000001
#
# number of rings (size 3 to 8) (size 9 to 14) (size 15 to 20)
#    0.000    2.364    0.909    1.909    0.000    5.455 
#    0.000    1.818    0.000    6.000    0.000    0.000 
#    0.000    0.000    0.000    0.000    0.000    0.000 
#
# Total GULP energy -545385.047689 kJ/mol
# GULP energy per Si atom -12395.114720 kJ/mol
# Density = 1.866703 g / cm^3
# Si number density = 18.709610 Si / 1000 Ang^3
#
#
#
# Elastic Constant Matrix: (Units=GPa)
#
#
# Indices 1 2 3 4 5 6 
#
# 1 87.2365 45.2971 20.4018 0.0000 0.0000 0.0000
# 2 45.2971 125.5946 23.3395 0.0000 0.0000 0.0000
# 3 20.4018 23.3395 37.8810 0.0002 0.0001 0.0000
# 4 0.0000 0.0000 0.0002 46.7890 0.0000 0.0000
# 5 0.0000 0.0000 0.0001 0.0000 23.2081 0.0000
# 6 0.0000 0.0000 0.0000 0.0000 0.0000 33.7563
#
#
#
# Elastic Compliance Matrix: (Units=1/GPa)
#
#
# Indices 1 2 3 4 5 6 
#
# 1 0.015011 -0.004417 -0.005363 0.000000 0.000000 0.000000
# 2 -0.004417 0.010291 -0.003962 0.000000 0.000000 0.000000
# 3 -0.005363 -0.003962 0.031728 0.000000 0.000000 0.000000
# 4 0.000000 0.000000 0.000000 0.021373 0.000000 0.000000
# 5 0.000000 0.000000 0.000000 0.000000 0.043088 0.000000
# 6 0.000000 0.000000 0.000000 0.000000 0.000000 0.029624
#
#
# Mechanical properties :
#
#
# Convention : Reuss Voigt Hill
#
# Bulk Modulus (GPa) = 33.84535 47.64320 40.74428
# Shear Modulus (GPa) = 26.53254 31.52895 29.03074
#
# Velocity S-wave (km/s) = 3.76988 4.10954 3.94337
# Velocity P-wave (km/s) = 6.08921 6.93092 6.52365
#
# Compressibility (1/GPa) = 0.02954616
#
# Stress axis : x y z
#
# Youngs Moduli (GPa) = 66.61814 97.16766 31.51816
#
# Poissons Ratio (x) = 0.42921 0.16903
# Poissons Ratio (y) = 0.29427 0.12487
# Poissons Ratio (z) = 0.35727 0.38496
#
# Static dielectric constant tensor:
#      x y z
#    x 3.538510 0.000000 0.000000 
#    y 0.000000 3.603410 0.000000 
#    z 0.000000 0.000000 2.973860 
# 
# 
# High freq. dielectric constant tensor:
#      x y z
#    x 1.723280 0.000000 0.000000 
#    y 0.000000 1.737210 0.000000 
#    z 0.000000 0.000000 1.696420 
# 
# From -- ./inp_files/40107.got.cif
#   From: 2010.03.12/outbox.cif.g09.slc.cpg/sg74_21_cif.got.tgz:40107.got - 2010.04.16 15:46:19.
