data_PCOD8299962
_publ_section_title
;
Structure prediction by ZEFSAII (Michael W. Deem and Ramdas Pophale) SiO2 
 PCOD8299962
Probable space group: I M M A
;
_chemical_formula_sum "Si O2"
_cell_formula_units_Z 96
_cell_length_a 18.041790
_cell_length_b 28.153242
_cell_length_c 10.179391
_cell_angle_alpha 90.000000
_cell_angle_beta 90.000000
_cell_angle_gamma 90.000000
_cell_volume 5170.467746
_symmetry_space_group_name_H-M "I M M A"
_symmetry_group_IT_number 74
_symmetry_cell_setting 'orthorhombic'
loop_
_space_group_symop_operation_xyz
x,y,z
-x,1/2-y,z
x,-y,-z
-x,1/2+y,-z
-x,-y,-z
x,1/2+y,-z
-x,y,z
x,1/2-y,z
1/2+x,1/2+y,1/2+z
1/2-x,-y,1/2+z
1/2+x,1/2-y,1/2-z
1/2-x,y,1/2-z
1/2-x,1/2-y,1/2-z
1/2+x,y,1/2-z
1/2-x,1/2+y,1/2+z
1/2+x,-y,1/2+z
loop_
_atom_site_type_symbol
_atom_site_label
_atom_site_fract_x
_atom_site_fract_y
_atom_site_fract_z
Si Si1 0.347888 0.444863 0.999340
Si Si2 0.914013 0.101110 0.747950
Si Si3 0.912141 0.301777 0.639472
Si Si4 0.824679 0.055326 0.980883
Si Si5 0.162992 0.108681 0.240337
Si Si6 0.413649 0.803843 0.844457
O O1 0.367463 0.423935 0.141895
O O2 0.366167 0.500000 0.000000
O O3 0.402175 0.420739 0.895460
O O4 0.262412 0.435487 0.962077
O O5 0.888138 0.156587 0.739724
O O6 0.864439 0.073392 0.850930
O O7 0.000000 0.096917 0.787360
O O8 0.883365 0.250000 0.689879
O O9 0.881753 0.311536 0.492132
O O10 0.000000 0.300439 0.627223
O O11 0.858530 0.083577 0.104082
O O12 0.841475 0.000000 0.000000
O O13 0.250000 0.114389 0.250000
O O14 0.127336 0.160850 0.244607
O O15 0.500000 0.815548 0.838682
O O16 0.398067 0.750000 0.798129
#
# Coordination Sequence:
#
# PCOD8299962 Si02
#       6
#    16  16  16  16  16  16
#     4  10  20  37  59  78 102 143 192 227 256 316
#     4  11  21  34  56  85 110 139 178 225 274 312
#     4   8  15  30  53  79 105 136 174 215 265 320
#     4  10  22  39  55  75 111 153 180 211 273 332
#     4  10  20  34  55  82 106 140 186 227 265 307
#     4   9  17  32  55  79 105 140 178 220 272 323
#
# _framework density 18.566984999999999
#
# number of rings (size 3 to 8) (size 9 to 14) (size 15 to 20)
#    0.000    2.333    1.667    2.500    0.000    4.333 
#    0.000    2.500    0.000    5.000    0.000    0.000 
#    0.000    0.000    0.000    0.000    0.000    0.000 
#
# Total GULP energy -595150.930765 kJ/mol
# GULP energy per Si atom -12398.977724 kJ/mol
# Density = 1.852473 g / cm^3
# Si number density = 18.566985 Si / 1000 Ang^3
#
#
#
# Elastic Constant Matrix: (Units=GPa)
#
#
# Indices 1 2 3 4 5 6 
#
# 1 13.8030 16.2553 9.2748 0.0000 0.0000 0.0000
# 2 16.2553 115.1048 30.0609 0.0000 0.0001 0.0000
# 3 9.2748 30.0609 62.0199 -0.0008 0.0013 0.0006
# 4 0.0000 0.0000 -0.0008 36.4298 0.0002 0.0001
# 5 0.0000 0.0001 0.0013 0.0002 21.2056 0.0000
# 6 0.0000 0.0000 0.0006 0.0001 0.0000 25.4719
#
#
#
# Elastic Compliance Matrix: (Units=1/GPa)
#
#
# Indices 1 2 3 4 5 6 
#
# 1 0.090576 -0.010595 -0.008410 0.000000 0.000001 0.000000
# 2 -0.010595 0.011186 -0.003837 0.000000 0.000000 0.000000
# 3 -0.008410 -0.003837 0.019242 0.000000 -0.000001 0.000000
# 4 0.000000 0.000000 0.000000 0.027450 0.000000 0.000000
# 5 0.000001 0.000000 -0.000001 0.000000 0.047157 0.000000
# 6 0.000000 0.000000 0.000000 0.000000 0.000000 0.039259
#
#
# Mechanical properties :
#
#
# Convention : Reuss Voigt Hill
#
# Bulk Modulus (GPa) = 13.27685 33.56775 23.42230
# Shear Modulus (GPa) = 16.35796 25.64389 21.00093
#
# Velocity S-wave (km/s) = 2.97143 3.72042 3.36682
# Velocity P-wave (km/s) = 4.35187 6.04764 5.26843
#
# Compressibility (1/GPa) = 0.07531907
#
# Stress axis : x y z
#
# Youngs Moduli (GPa) = 11.04043 89.39608 51.97085
#
# Poissons Ratio (x) = 0.94715 0.43707
# Poissons Ratio (y) = 0.11697 0.19944
# Poissons Ratio (z) = 0.09285 0.34306
#
# Static dielectric constant tensor:
#      x y z
#    x 3.126630 0.000000 0.000000 
#    y 0.000000 3.875130 0.000000 
#    z 0.000000 0.000000 3.338190 
# 
# 
# High freq. dielectric constant tensor:
#      x y z
#    x 1.694360 0.000000 0.000000 
#    y 0.000000 1.740010 0.000000 
#    z 0.000000 0.000000 1.706890 
# 
# From -- ./inp_files/12633.got.cif
#   From: 2010.03.12/outbox.cif.g09.slc.cpg/sg74_7_cif.got.tgz:12633.got - 2010.04.16 15:46:19.
