data_PCOD8299143
_publ_section_title
;
Structure prediction by ZEFSAII (Michael W. Deem and Ramdas Pophale) SiO2 
 PCOD8299143
Probable space group: I M M A
;
_chemical_formula_sum "Si O2"
_cell_formula_units_Z 64
_cell_length_a 16.940120
_cell_length_b 23.884212
_cell_length_c 8.381650
_cell_angle_alpha 90.000000
_cell_angle_beta 90.000000
_cell_angle_gamma 90.000000
_cell_volume 3391.227470
_symmetry_space_group_name_H-M "I M M A"
_symmetry_group_IT_number 74
_symmetry_cell_setting 'orthorhombic'
loop_
_space_group_symop_operation_xyz
x,y,z
-x,1/2-y,z
x,-y,-z
-x,1/2+y,-z
-x,-y,-z
x,1/2+y,-z
-x,y,z
x,1/2-y,z
1/2+x,1/2+y,1/2+z
1/2-x,-y,1/2+z
1/2+x,1/2-y,1/2-z
1/2-x,y,1/2-z
1/2-x,1/2-y,1/2-z
1/2+x,y,1/2-z
1/2-x,1/2+y,1/2+z
1/2+x,-y,1/2+z
loop_
_atom_site_type_symbol
_atom_site_label
_atom_site_fract_x
_atom_site_fract_y
_atom_site_fract_z
Si Si1 0.228496 0.438353 0.433234
Si Si2 0.323548 0.144689 0.644150
Si Si3 0.830915 0.750000 0.944818
Si Si4 0.910093 0.633230 0.452170
Si Si5 0.143518 0.250000 0.413301
O O1 0.219406 0.500000 0.500000
O O2 0.250000 0.439982 0.250000
O O3 0.296338 0.406471 0.532440
O O4 0.144864 0.407226 0.444169
O O5 0.250000 0.166790 0.750000
O O6 0.358277 0.194764 0.538221
O O7 0.391941 0.124490 0.764057
O O8 0.875119 0.750000 0.775224
O O9 0.737020 0.750000 0.931405
O O10 0.894847 0.696922 0.502274
O O11 0.000000 0.616406 0.485241
#
# Coordination Sequence:
#
# PCOD8299143 Si02
#       5
#    16  16   8  16   8
#     4  11  22  40  64  87 109 146 195 240 279 333
#     4  10  19  34  58  84 111 149 191 233 276 335
#     4  11  18  32  58  87 112 149 199 236 276 327
#     4  11  23  38  57  85 121 154 185 232 292 340
#     4  11  20  33  57  86 119 151 189 236 281 337
#
# _framework density 18.872222000000001
#
# number of rings (size 3 to 8) (size 9 to 14) (size 15 to 20)
#    0.000    1.250    5.000    5.250    0.000    0.500 
#    0.000    6.250    0.000    3.000    0.000    0.000 
#    0.000    0.000    0.000    0.000    0.000    0.000 
#
# Total GULP energy -396889.459266 kJ/mol
# GULP energy per Si atom -12402.795602 kJ/mol
# Density = 1.882927 g / cm^3
# Si number density = 18.872222 Si / 1000 Ang^3
#
#
#
# Elastic Constant Matrix: (Units=GPa)
#
#
# Indices 1 2 3 4 5 6 
#
# 1 99.6829 44.9635 49.2700 0.0000 0.0000 0.0000
# 2 44.9635 145.6986 54.7970 0.0000 0.0000 0.0000
# 3 49.2700 54.7970 143.6083 0.0000 0.0000 0.0000
# 4 0.0000 0.0000 0.0000 54.6758 0.0000 0.0000
# 5 0.0000 0.0000 0.0000 0.0000 28.3134 0.0000
# 6 0.0000 0.0000 0.0000 0.0000 0.0000 6.2443
#
#
#
# Elastic Compliance Matrix: (Units=1/GPa)
#
#
# Indices 1 2 3 4 5 6 
#
# 1 0.012938 -0.002713 -0.003404 0.000000 0.000000 0.000000
# 2 -0.002713 0.008582 -0.002344 0.000000 0.000000 0.000000
# 3 -0.003404 -0.002344 0.009026 0.000000 0.000000 0.000000
# 4 0.000000 0.000000 0.000000 0.018290 0.000000 0.000000
# 5 0.000000 0.000000 0.000000 0.000000 0.035319 0.000000
# 6 0.000000 0.000000 0.000000 0.000000 0.000000 0.160147
#
#
# Mechanical properties :
#
#
# Convention : Reuss Voigt Hill
#
# Bulk Modulus (GPa) = 73.39556 76.33899 74.86727
# Shear Modulus (GPa) = 18.81376 33.84399 26.32888
#
# Velocity S-wave (km/s) = 3.16080 4.23936 3.73917
# Velocity P-wave (km/s) = 7.23160 8.03126 7.64190
#
# Compressibility (1/GPa) = 0.01362480
#
# Stress axis : x y z
#
# Youngs Moduli (GPa) = 77.29359 116.52027 110.79601
#
# Poissons Ratio (x) = 0.31606 0.37712
# Poissons Ratio (y) = 0.20966 0.25972
# Poissons Ratio (z) = 0.26308 0.27314
#
# Static dielectric constant tensor:
#      x y z
#    x 3.258880 0.000000 0.000000 
#    y 0.000000 3.491090 0.000000 
#    z 0.000000 0.000000 3.852060 
# 
# 
# High freq. dielectric constant tensor:
#      x y z
#    x 1.698920 0.000000 0.000000 
#    y 0.000000 1.734720 0.000000 
#    z 0.000000 0.000000 1.752980 
# 
# From -- ./inp_files/10263.got.cif
#   From: 2010.03.12/outbox.cif.g09.slc.cpg/sg74_6_cif.got.tgz:10263.got - 2010.04.16 15:46:19.
