data_PCOD8299583
_publ_section_title
;
Structure prediction by ZEFSAII (Michael W. Deem and Ramdas Pophale) SiO2 
 PCOD8299583
Probable space group: I M M A
;
_chemical_formula_sum "Si O2"
_cell_formula_units_Z 96
_cell_length_a 9.908659
_cell_length_b 29.852123
_cell_length_c 20.310998
_cell_angle_alpha 90.000000
_cell_angle_beta 90.000000
_cell_angle_gamma 90.000000
_cell_volume 6007.881645
_symmetry_space_group_name_H-M "I M M A"
_symmetry_group_IT_number 74
_symmetry_cell_setting 'orthorhombic'
loop_
_space_group_symop_operation_xyz
x,y,z
-x,1/2-y,z
x,-y,-z
-x,1/2+y,-z
-x,-y,-z
x,1/2+y,-z
-x,y,z
x,1/2-y,z
1/2+x,1/2+y,1/2+z
1/2-x,-y,1/2+z
1/2+x,1/2-y,1/2-z
1/2-x,y,1/2-z
1/2-x,1/2-y,1/2-z
1/2+x,y,1/2-z
1/2-x,1/2+y,1/2+z
1/2+x,-y,1/2+z
loop_
_atom_site_type_symbol
_atom_site_label
_atom_site_fract_x
_atom_site_fract_y
_atom_site_fract_z
Si Si1 0.659666 0.473359 0.438223
Si Si2 0.151504 0.299663 0.635560
Si Si3 0.346593 0.376345 0.633187
Si Si4 0.651265 0.700337 0.979078
Si Si5 0.341846 0.526822 0.311159
Si Si6 0.844546 0.376691 0.021057
O O1 0.724485 0.500000 0.500000
O O2 0.500000 0.477712 0.443549
O O3 0.708826 0.495141 0.370331
O O4 0.702693 0.421394 0.441040
O O5 0.192445 0.250000 0.661362
O O6 0.253209 0.337077 0.663458
O O7 0.159155 0.299667 0.557317
O O8 0.000000 0.311530 0.658945
O O9 0.500000 0.361281 0.644945
O O10 0.312684 0.421837 0.670788
O O11 0.319661 0.384647 0.556210
O O12 0.500000 0.687765 0.956085
O O13 0.689887 0.750000 0.952963
O O14 0.755819 0.664150 0.950377
O O15 0.500000 0.519403 0.295339
O O16 0.250000 0.512884 0.250000
O O17 0.000000 0.365185 0.035322
#
# Coordination Sequence:
#
# PCOD8299583 Si02
#       6
#    16  16  16  16  16  16
#     4   9  15  28  49  68  88 117 151 186 224 266
#     4   8  14  24  38  57  82 112 143 176 219 267
#     4   9  16  26  42  63  84 109 144 185 222 256
#     4   8  14  24  36  54  87 124 145 165 212 270
#     4  10  20  33  48  66  90 119 150 184 224 270
#     4   9  15  24  43  67  85 108 148 189 218 250
#
# _framework density 15.979010000000001
#
# number of rings (size 3 to 8) (size 9 to 14) (size 15 to 20)
#    0.000    3.167    1.667    1.000    0.000    1.333 
#    0.000    4.167    0.000    1.500    0.000    0.000 
#    0.000    0.667    0.000    1.500    0.000    2.667 
#
# Total GULP energy -594967.437777 kJ/mol
# GULP energy per Si atom -12395.154954 kJ/mol
# Density = 1.594264 g / cm^3
# Si number density = 15.979010 Si / 1000 Ang^3
#
#
#
# Elastic Constant Matrix: (Units=GPa)
#
#
# Indices 1 2 3 4 5 6 
#
# 1 73.8959 65.1183 35.7391 0.0000 0.0000 0.0000
# 2 65.1183 113.8772 50.1502 -0.0001 0.0000 0.0000
# 3 35.7391 50.1502 53.4012 -0.0003 0.0000 0.0001
# 4 0.0000 -0.0001 -0.0003 11.6003 0.0000 0.0000
# 5 0.0000 0.0000 0.0000 0.0000 16.4700 0.0000
# 6 0.0000 0.0000 0.0001 0.0000 0.0000 22.3640
#
#
#
# Elastic Compliance Matrix: (Units=1/GPa)
#
#
# Indices 1 2 3 4 5 6 
#
# 1 0.028517 -0.013475 -0.006431 0.000000 0.000000 0.000000
# 2 -0.013475 0.021342 -0.011024 0.000000 0.000000 0.000000
# 3 -0.006431 -0.011024 0.033383 0.000001 0.000000 0.000000
# 4 0.000000 0.000000 0.000001 0.086204 0.000000 0.000000
# 5 0.000000 0.000000 0.000000 0.000000 0.060716 0.000000
# 6 0.000000 0.000000 0.000000 0.000000 0.000000 0.044715
#
#
# Mechanical properties :
#
#
# Convention : Reuss Voigt Hill
#
# Bulk Modulus (GPa) = 46.76805 60.35439 53.56122
# Shear Modulus (GPa) = 14.54063 16.09797 15.31930
#
# Velocity S-wave (km/s) = 3.01987 3.17747 3.09967
# Velocity P-wave (km/s) = 6.44138 7.16344 6.81198
#
# Compressibility (1/GPa) = 0.02138212
#
# Stress axis : x y z
#
# Youngs Moduli (GPa) = 35.06685 46.85681 29.95534
#
# Poissons Ratio (x) = 0.63139 0.19263
# Poissons Ratio (y) = 0.47252 0.33023
# Poissons Ratio (z) = 0.22550 0.51656
#
# Static dielectric constant tensor:
#      x y z
#    x 2.999340 0.000000 0.000000 
#    y 0.000000 3.327370 0.000000 
#    z 0.000000 0.000000 2.627270 
# 
# 
# High freq. dielectric constant tensor:
#      x y z
#    x 1.600310 0.000000 0.000000 
#    y 0.000000 1.622720 0.000000 
#    z 0.000000 0.000000 1.559830 
# 
# From -- ./inp_files/41640.got.cif
#   From: 2010.03.12/outbox.cif.g09.slc.cpg/sg74_21_cif.got.tgz:41640.got - 2010.04.16 15:46:19.
