data_PCOD8299289
_publ_section_title
;
Structure prediction by ZEFSAII (Michael W. Deem and Ramdas Pophale) SiO2 
 PCOD8299289
Probable space group: I M M A
;
_chemical_formula_sum "Si O2"
_cell_formula_units_Z 80
_cell_length_a 25.227087
_cell_length_b 18.359691
_cell_length_c 8.464988
_cell_angle_alpha 90.000000
_cell_angle_beta 90.000000
_cell_angle_gamma 90.000000
_cell_volume 3920.656727
_symmetry_space_group_name_H-M "I M M A"
_symmetry_group_IT_number 74
_symmetry_cell_setting 'orthorhombic'
loop_
_space_group_symop_operation_xyz
x,y,z
-x,1/2-y,z
x,-y,-z
-x,1/2+y,-z
-x,-y,-z
x,1/2+y,-z
-x,y,z
x,1/2-y,z
1/2+x,1/2+y,1/2+z
1/2-x,-y,1/2+z
1/2+x,1/2-y,1/2-z
1/2-x,y,1/2-z
1/2-x,1/2-y,1/2-z
1/2+x,y,1/2-z
1/2-x,1/2+y,1/2+z
1/2+x,-y,1/2+z
loop_
_atom_site_type_symbol
_atom_site_label
_atom_site_fract_x
_atom_site_fract_y
_atom_site_fract_z
Si Si1 0.302712 0.168456 0.348513
Si Si2 0.396330 0.409811 0.171720
Si Si3 0.500000 0.666635 0.199923
Si Si4 0.000000 0.668823 0.675805
Si Si5 0.705496 0.932260 0.380916
Si Si6 0.601252 0.578489 0.187116
O O1 0.326997 0.250000 0.360795
O O2 0.250000 0.170232 0.250000
O O3 0.345060 0.112505 0.272843
O O4 0.283070 0.139999 0.518450
O O5 0.446906 0.367912 0.241750
O O6 0.412441 0.493609 0.185761
O O7 0.384899 0.391601 0.988082
O O8 0.500000 0.750000 0.262119
O O9 0.552314 0.624275 0.260603
O O10 0.500000 0.663677 0.012044
O O11 0.000000 0.750000 0.740327
O O12 0.750000 0.948557 0.250000
O O13 0.651111 0.911712 0.297793
O O14 0.701369 0.000000 0.500000
#
# Coordination Sequence:
#
# PCOD8299289 Si02
#       6
#    16  16   8   8  16  16
#     4  11  24  42  62  89 126 166 208 263 323 379
#     4  10  19  36  61  92 126 161 210 260 305 371
#     4   9  19  37  59  91 132 169 208 259 316 372
#     4   9  17  31  56  88 122 165 207 250 305 369
#     4  12  25  41  65  92 125 166 214 269 322 384
#     4  10  21  36  64  94 124 166 212 261 312 376
#
# _framework density 20.404745999999999
#
# number of rings (size 3 to 8) (size 9 to 14) (size 15 to 20)
#    0.000    1.600    2.000    3.000    2.800    4.400 
#    0.000    1.500    0.000    1.200    0.000    0.000 
#    0.000    0.000    0.000    0.000    0.000    0.000 
#
# Total GULP energy -495922.701081 kJ/mol
# GULP energy per Si atom -12398.067527 kJ/mol
# Density = 2.035830 g / cm^3
# Si number density = 20.404746 Si / 1000 Ang^3
#
#
#
# Elastic Constant Matrix: (Units=GPa)
#
#
# Indices 1 2 3 4 5 6 
#
# 1 126.8278 55.0738 40.2752 0.0000 0.0000 0.0000
# 2 55.0738 119.3655 35.5579 0.0000 0.0000 0.0000
# 3 40.2752 35.5579 77.9207 0.0000 0.0000 0.0000
# 4 0.0000 0.0000 0.0000 21.1538 0.0000 0.0000
# 5 0.0000 0.0000 0.0000 0.0000 29.2015 0.0000
# 6 0.0000 0.0000 0.0000 0.0000 0.0000 60.3642
#
#
#
# Elastic Compliance Matrix: (Units=1/GPa)
#
#
# Indices 1 2 3 4 5 6 
#
# 1 0.010758 -0.003827 -0.003814 0.000000 0.000000 0.000000
# 2 -0.003827 0.011057 -0.003068 0.000000 0.000000 0.000000
# 3 -0.003814 -0.003068 0.016205 0.000000 0.000000 0.000000
# 4 0.000000 0.000000 0.000000 0.047273 0.000000 0.000000
# 5 0.000000 0.000000 0.000000 0.000000 0.034245 0.000000
# 6 0.000000 0.000000 0.000000 0.000000 0.000000 0.016566
#
#
# Mechanical properties :
#
#
# Convention : Reuss Voigt Hill
#
# Bulk Modulus (GPa) = 60.23302 65.10308 62.66805
# Shear Modulus (GPa) = 30.66444 35.02439 32.84441
#
# Velocity S-wave (km/s) = 3.88081 4.14754 4.01639
# Velocity P-wave (km/s) = 7.04728 7.41021 7.23102
#
# Compressibility (1/GPa) = 0.01660219
#
# Stress axis : x y z
#
# Youngs Moduli (GPa) = 92.95537 90.43759 61.71058
#
# Poissons Ratio (x) = 0.34614 0.23536
# Poissons Ratio (y) = 0.35578 0.18930
# Poissons Ratio (z) = 0.35452 0.27742
#
# Static dielectric constant tensor:
#      x y z
#    x 3.776390 0.000000 0.000000 
#    y 0.000000 3.983320 0.000000 
#    z 0.000000 0.000000 3.662380 
# 
# 
# High freq. dielectric constant tensor:
#      x y z
#    x 1.805850 0.000000 0.000000 
#    y 0.000000 1.805280 0.000000 
#    z 0.000000 0.000000 1.779690 
# 
# From -- ./inp_files/14979.got.cif
#   From: 2010.03.12/outbox.cif.g09.slc.cpg/sg74_8_cif.got.tgz:14979.got - 2010.04.16 15:46:19.
