data_PCOD8299972
_publ_section_title
;
Structure prediction by ZEFSAII (Michael W. Deem and Ramdas Pophale) SiO2 
 PCOD8299972
Probable space group: I M M A
;
_chemical_formula_sum "Si O2"
_cell_formula_units_Z 72
_cell_length_a 9.207245
_cell_length_b 31.889863
_cell_length_c 12.868205
_cell_angle_alpha 90.000000
_cell_angle_beta 90.000000
_cell_angle_gamma 90.000000
_cell_volume 3778.333806
_symmetry_space_group_name_H-M "I M M A"
_symmetry_group_IT_number 74
_symmetry_cell_setting 'orthorhombic'
loop_
_space_group_symop_operation_xyz
x,y,z
-x,1/2-y,z
x,-y,-z
-x,1/2+y,-z
-x,-y,-z
x,1/2+y,-z
-x,y,z
x,1/2-y,z
1/2+x,1/2+y,1/2+z
1/2-x,-y,1/2+z
1/2+x,1/2-y,1/2-z
1/2-x,y,1/2-z
1/2-x,1/2-y,1/2-z
1/2+x,y,1/2-z
1/2-x,1/2+y,1/2+z
1/2+x,-y,1/2+z
loop_
_atom_site_type_symbol
_atom_site_label
_atom_site_fract_x
_atom_site_fract_y
_atom_site_fract_z
Si Si1 0.330951 0.201272 0.857241
Si Si2 0.257127 0.000000 0.000000
Si Si3 0.661029 0.064557 0.843372
Si Si4 0.326779 0.132097 0.533831
Si Si5 0.338348 0.571239 0.645215
O O1 0.500000 0.188198 0.848724
O O2 0.315097 0.250000 0.883720
O O3 0.250000 0.190079 0.750000
O O4 0.250827 0.177144 0.952375
O O5 0.160229 0.970803 0.924921
O O6 0.359262 0.030174 0.932975
O O7 0.500000 0.079468 0.810324
O O8 0.750000 0.042813 0.750000
O O9 0.759526 0.103856 0.875060
O O10 0.500000 0.135464 0.546793
O O11 0.284374 0.111235 0.422969
O O12 0.500000 0.579906 0.682833
O O13 0.250000 0.565878 0.750000
#
# Coordination Sequence:
#
# PCOD8299972 Si02
#       5
#    16   8  16  16  16
#     4  10  20  34  55  84 115 145 176 214 262 316
#     4  10  22  36  54  76 102 136 178 220 266 316
#     4  11  22  35  51  73 101 135 174 216 261 310
#     4  10  21  37  55  77 106 141 177 215 262 314
#     4  10  22  38  57  79 106 140 179 224 271 319
#
# _framework density 19.056018000000002
#
# number of rings (size 3 to 8) (size 9 to 14) (size 15 to 20)
#    0.000    1.778    0.000    4.000    0.000   11.111 
#    0.000    0.000    0.000    0.667    0.000    0.000 
#    0.000    0.000    0.000    0.000    0.000    0.000 
#
# Total GULP energy -446253.818703 kJ/mol
# GULP energy per Si atom -12395.939408 kJ/mol
# Density = 1.901265 g / cm^3
# Si number density = 19.056018 Si / 1000 Ang^3
#
#
#
# Elastic Constant Matrix: (Units=GPa)
#
#
# Indices 1 2 3 4 5 6 
#
# 1 133.3751 46.5168 60.0834 0.0001 0.0000 0.0002
# 2 46.5168 98.4650 50.0894 0.0001 0.0000 0.0003
# 3 60.0834 50.0894 114.6130 0.0007 0.0001 0.0014
# 4 0.0001 0.0001 0.0007 25.5606 0.0000 0.0005
# 5 0.0000 0.0000 0.0001 0.0000 24.3740 -0.0001
# 6 0.0002 0.0003 0.0014 0.0005 -0.0001 -3.5434
#
#
#
# Elastic Compliance Matrix: (Units=1/GPa)
#
#
# Indices 1 2 3 4 5 6 
#
# 1 0.010361 -0.002741 -0.004233 0.000000 0.000000 -0.000002
# 2 -0.002741 0.013784 -0.004587 0.000000 0.000000 -0.000001
# 3 -0.004233 -0.004587 0.012949 0.000000 0.000000 0.000005
# 4 0.000000 0.000000 0.000000 0.039123 0.000000 0.000005
# 5 0.000000 0.000000 0.000000 0.000000 0.041027 -0.000001
# 6 -0.000002 -0.000001 0.000005 0.000005 -0.000001 -0.282216
#
#
# Mechanical properties :
#
#
# Convention : Reuss Voigt Hill
#
# Bulk Modulus (GPa) = 71.57863 73.31471 72.44667
# Shear Modulus (GPa) = -36.44538 21.92913 -7.25813
#
# Velocity S-wave (km/s) = -4.37800 3.39598 -1.95374
# Velocity P-wave (km/s) = 3.47676 7.34396 5.74550
#
# Compressibility (1/GPa) = 0.01397065
#
# Stress axis : x y z
#
# Youngs Moduli (GPa) = 96.51811 72.54596 77.22546
#
# Poissons Ratio (x) = 0.19885 0.32693
# Poissons Ratio (y) = 0.26456 0.35425
# Poissons Ratio (z) = 0.40861 0.33279
#
# Static dielectric constant tensor:
#      x y z
#    x 3.457740 0.000000 0.000000 
#    y 0.000000 3.517980 0.000000 
#    z 0.000000 0.000000 3.404890 
# 
# 
# High freq. dielectric constant tensor:
#      x y z
#    x 1.752510 0.000000 0.000000 
#    y 0.000000 1.733250 0.000000 
#    z 0.000000 0.000000 1.725090 
# 
# From -- ./inp_files/29369.got.cif
#   From: 2010.03.12/outbox.cif.g09.slc.cpg/sg74_15_cif.got.tgz:29369.got - 2010.04.16 15:46:19.
