data_PCOD8299871
_publ_section_title
;
Structure prediction by ZEFSAII (Michael W. Deem and Ramdas Pophale) SiO2 
 PCOD8299871
Probable space group: I M M A
;
_chemical_formula_sum "Si O2"
_cell_formula_units_Z 96
_cell_length_a 20.330607
_cell_length_b 8.767415
_cell_length_c 27.921623
_cell_angle_alpha 90.000000
_cell_angle_beta 90.000000
_cell_angle_gamma 90.000000
_cell_volume 4976.941871
_symmetry_space_group_name_H-M "I M M A"
_symmetry_group_IT_number 74
_symmetry_cell_setting 'orthorhombic'
loop_
_space_group_symop_operation_xyz
x,y,z
-x,1/2-y,z
x,-y,-z
-x,1/2+y,-z
-x,-y,-z
x,1/2+y,-z
-x,y,z
x,1/2-y,z
1/2+x,1/2+y,1/2+z
1/2-x,-y,1/2+z
1/2+x,1/2-y,1/2-z
1/2-x,y,1/2-z
1/2-x,1/2-y,1/2-z
1/2+x,y,1/2-z
1/2-x,1/2+y,1/2+z
1/2+x,-y,1/2+z
loop_
_atom_site_type_symbol
_atom_site_label
_atom_site_fract_x
_atom_site_fract_y
_atom_site_fract_z
Si Si1 0.423916 0.572053 0.899068
Si Si2 0.573558 0.570507 0.549841
Si Si3 0.314267 0.068330 0.276559
Si Si4 0.195445 0.929860 0.449023
Si Si5 0.072437 0.931457 0.709055
Si Si6 0.692503 0.430883 0.384957
O O1 0.500000 0.538185 0.911265
O O2 0.407993 0.750000 0.905868
O O3 0.378698 0.476422 0.935050
O O4 0.407697 0.519601 0.844749
O O5 0.597027 0.500000 0.500000
O O6 0.500000 0.513706 0.563748
O O7 0.574455 0.750000 0.543704
O O8 0.624666 0.517643 0.590115
O O9 0.316389 0.250000 0.275627
O O10 0.250000 0.005873 0.250000
O O11 0.376915 0.001173 0.247887
O O12 0.313672 0.009064 0.330784
O O13 0.200875 0.750000 0.452938
O O14 0.215033 0.000000 0.500000
O O15 0.245289 0.990273 0.409047
O O16 0.071435 0.750000 0.710873
O O17 0.000000 0.995187 0.721755
O O18 0.703241 0.250000 0.387307
#
# Coordination Sequence:
#
# PCOD8299871 Si02
#       6
#    16  16  16  16  16  16
#     4   9  18  35  59  84 110 140 175 216 261 311
#     4   9  18  32  50  73 100 131 167 208 256 307
#     4   9  16  26  45  73 103 135 170 209 252 298
#     4  12  25  39  56  77 104 138 177 222 269 320
#     4   8  14  26  48  79 110 138 171 212 256 303
#     4  10  20  34  53  77 107 141 177 218 261 309
#
# _framework density 19.288951999999998
#
# number of rings (size 3 to 8) (size 9 to 14) (size 15 to 20)
#    0.000    2.500    0.000    4.000    0.000    6.000 
#    0.000    3.333    0.000    4.500    0.000    0.000 
#    0.000    0.000    0.000    0.000    0.000    0.000 
#
# Total GULP energy -595177.758983 kJ/mol
# GULP energy per Si atom -12399.536645 kJ/mol
# Density = 1.924505 g / cm^3
# Si number density = 19.288952 Si / 1000 Ang^3
#
#
#
# Elastic Constant Matrix: (Units=GPa)
#
#
# Indices 1 2 3 4 5 6 
#
# 1 113.5748 23.9829 60.3093 0.0000 0.0000 0.0000
# 2 23.9829 39.7994 21.1041 0.0000 0.0000 0.0000
# 3 60.3093 21.1041 120.1418 0.0000 0.0000 0.0000
# 4 0.0000 0.0000 0.0000 20.0300 0.0000 0.0000
# 5 0.0000 0.0000 0.0000 0.0000 52.3644 0.0000
# 6 0.0000 0.0000 0.0000 0.0000 0.0000 16.2982
#
#
#
# Elastic Compliance Matrix: (Units=1/GPa)
#
#
# Indices 1 2 3 4 5 6 
#
# 1 0.012766 -0.004736 -0.005576 0.000000 0.000000 0.000000
# 2 -0.004736 0.029464 -0.002798 0.000000 0.000000 0.000000
# 3 -0.005576 -0.002798 0.011614 0.000000 0.000000 0.000000
# 4 0.000000 0.000000 0.000000 0.049925 0.000000 0.000000
# 5 0.000000 0.000000 0.000000 0.000000 0.019097 0.000000
# 6 0.000000 0.000000 0.000000 0.000000 0.000000 0.061357
#
#
# Mechanical properties :
#
#
# Convention : Reuss Voigt Hill
#
# Bulk Modulus (GPa) = 36.20179 53.81204 45.00692
# Shear Modulus (GPa) = 22.76339 28.94650 25.85494
#
# Velocity S-wave (km/s) = 3.43902 3.87806 3.66512
# Velocity P-wave (km/s) = 5.88031 6.92899 6.42608
#
# Compressibility (1/GPa) = 0.02762294
#
# Stress axis : x y z
#
# Youngs Moduli (GPa) = 78.33359 33.94019 86.10065
#
# Poissons Ratio (x) = 0.16073 0.48013
# Poissons Ratio (y) = 0.37097 0.24094
# Poissons Ratio (z) = 0.43682 0.09497
#
# Static dielectric constant tensor:
#      x y z
#    x 3.868890 0.000000 0.000000 
#    y 0.000000 3.061100 0.000000 
#    z 0.000000 0.000000 3.656670 
# 
# 
# High freq. dielectric constant tensor:
#      x y z
#    x 1.767110 0.000000 0.000000 
#    y 0.000000 1.702020 0.000000 
#    z 0.000000 0.000000 1.755240 
# 
# From -- ./inp_files/64290.got.cif
#   From: 2010.03.12/outbox.cif.g09.slc.cpg/sg74_33_cif.got.tgz:64290.got - 2010.04.16 15:46:19.
