data_PCOD8299027
_publ_section_title
;
Structure prediction by ZEFSAII (Michael W. Deem and Ramdas Pophale) SiO2 
 PCOD8299027
Probable space group: I M M A
;
_chemical_formula_sum "Si O2"
_cell_formula_units_Z 88
_cell_length_a 19.412955
_cell_length_b 9.267074
_cell_length_c 30.303453
_cell_angle_alpha 90.000000
_cell_angle_beta 90.000000
_cell_angle_gamma 90.000000
_cell_volume 5451.630303
_symmetry_space_group_name_H-M "I M M A"
_symmetry_group_IT_number 74
_symmetry_cell_setting 'orthorhombic'
loop_
_space_group_symop_operation_xyz
x,y,z
-x,1/2-y,z
x,-y,-z
-x,1/2+y,-z
-x,-y,-z
x,1/2+y,-z
-x,y,z
x,1/2-y,z
1/2+x,1/2+y,1/2+z
1/2-x,-y,1/2+z
1/2+x,1/2-y,1/2-z
1/2-x,y,1/2-z
1/2-x,1/2-y,1/2-z
1/2+x,y,1/2-z
1/2-x,1/2+y,1/2+z
1/2+x,-y,1/2+z
loop_
_atom_site_type_symbol
_atom_site_label
_atom_site_fract_x
_atom_site_fract_y
_atom_site_fract_z
Si Si1 0.205323 0.913681 0.877193
Si Si2 0.421639 0.581075 0.234389
Si Si3 0.923728 0.909912 0.820710
Si Si4 0.793312 0.920390 0.706718
Si Si5 0.849172 0.581388 0.046458
Si Si6 0.500000 0.912776 0.456294
O O1 0.224343 0.750000 0.890680
O O2 0.127221 0.925118 0.861036
O O3 0.254405 0.968396 0.837821
O O4 0.208180 0.015939 0.920129
O O5 0.500000 0.544135 0.219499
O O6 0.407224 0.750000 0.231768
O O7 0.408696 0.530018 0.284235
O O8 0.367239 0.498355 0.203648
O O9 0.914915 0.750000 0.798804
O O10 0.000000 0.929858 0.840473
O O11 0.804541 0.750000 0.708206
O O12 0.750000 0.969798 0.750000
O O13 0.832960 0.750000 0.039576
O O14 0.926451 0.557311 0.067859
O O15 0.842223 0.500000 0.000000
O O16 0.500000 0.750000 0.472506
O O17 0.500000 0.000000 0.500000
#
# Coordination Sequence:
#
# PCOD8299027 Si02
#       6
#    16  16  16  16  16   8
#     4  10  20  32  48  70  93 122 161 203 243 285
#     4  10  20  32  47  69  96 126 161 202 243 282
#     4   9  17  30  46  64  90 127 166 200 237 283
#     4  10  19  34  51  69  96 129 164 199 237 286
#     4  10  20  34  49  66  91 122 159 201 245 288
#     4   8  16  30  46  64  86 118 156 198 242 282
#
# _framework density 16.141960999999998
#
# number of rings (size 3 to 8) (size 9 to 14) (size 15 to 20)
#    0.000    2.364    1.818    1.091    1.273    3.636 
#    0.000    0.000    0.000    0.000    0.000    0.000 
#    0.000    0.727    0.000    2.364    0.000    3.455 
#
# Total GULP energy -545197.677829 kJ/mol
# GULP energy per Si atom -12390.856314 kJ/mol
# Density = 1.610522 g / cm^3
# Si number density = 16.141961 Si / 1000 Ang^3
#
#
#
# Elastic Constant Matrix: (Units=GPa)
#
#
# Indices 1 2 3 4 5 6 
#
# 1 67.9576 40.9252 32.8850 0.0000 0.0000 0.0000
# 2 40.9252 71.5920 42.8721 0.0000 0.0000 0.0000
# 3 32.8850 42.8721 74.4420 0.0000 0.0000 0.0000
# 4 0.0000 0.0000 0.0000 25.3419 0.0000 0.0000
# 5 0.0000 0.0000 0.0000 0.0000 23.5939 0.0000
# 6 0.0000 0.0000 0.0000 0.0000 0.0000 24.4524
#
#
#
# Elastic Compliance Matrix: (Units=1/GPa)
#
#
# Indices 1 2 3 4 5 6 
#
# 1 0.023189 -0.010871 -0.003983 0.000000 0.000000 0.000000
# 2 -0.010871 0.026417 -0.010412 0.000000 0.000000 0.000000
# 3 -0.003983 -0.010412 0.021189 0.000000 0.000000 0.000000
# 4 0.000000 0.000000 0.000000 0.039460 0.000000 0.000000
# 5 0.000000 0.000000 0.000000 0.000000 0.042384 0.000000
# 6 0.000000 0.000000 0.000000 0.000000 0.000000 0.040896
#
#
# Mechanical properties :
#
#
# Convention : Reuss Voigt Hill
#
# Bulk Modulus (GPa) = 49.34876 49.70626 49.52751
# Shear Modulus (GPa) = 19.93447 21.16491 20.54969
#
# Velocity S-wave (km/s) = 3.51799 3.62494 3.57187
# Velocity P-wave (km/s) = 6.86584 6.95560 6.91087
#
# Compressibility (1/GPa) = 0.02026393
#
# Stress axis : x y z
#
# Youngs Moduli (GPa) = 43.12381 37.85414 47.19361
#
# Poissons Ratio (x) = 0.41149 0.18799
# Poissons Ratio (y) = 0.46878 0.49138
# Poissons Ratio (z) = 0.17178 0.39413
#
# Static dielectric constant tensor:
#      x y z
#    x 3.145780 0.000000 0.000000 
#    y 0.000000 3.142340 0.000000 
#    z 0.000000 0.000000 2.719050 
# 
# 
# High freq. dielectric constant tensor:
#      x y z
#    x 1.601210 0.000000 0.000000 
#    y 0.000000 1.628230 0.000000 
#    z 0.000000 0.000000 1.587070 
# 
# From -- ./inp_files/73273.got.cif
#   From: 2010.03.12/outbox.cif.g09.slc.cpg/sg74_37_cif.got.tgz:73273.got - 2010.04.16 15:46:19.
