data_PCOD8299864
_publ_section_title
;
Structure prediction by ZEFSAII (Michael W. Deem and Ramdas Pophale) SiO2 
 PCOD8299864
Probable space group: I M M A
;
_chemical_formula_sum "Si O2"
_cell_formula_units_Z 96
_cell_length_a 8.760822
_cell_length_b 18.535394
_cell_length_c 28.850506
_cell_angle_alpha 90.000000
_cell_angle_beta 90.000000
_cell_angle_gamma 90.000000
_cell_volume 4684.897712
_symmetry_space_group_name_H-M "I M M A"
_symmetry_group_IT_number 74
_symmetry_cell_setting 'orthorhombic'
loop_
_space_group_symop_operation_xyz
x,y,z
-x,1/2-y,z
x,-y,-z
-x,1/2+y,-z
-x,-y,-z
x,1/2+y,-z
-x,y,z
x,1/2-y,z
1/2+x,1/2+y,1/2+z
1/2-x,-y,1/2+z
1/2+x,1/2-y,1/2-z
1/2-x,y,1/2-z
1/2-x,1/2-y,1/2-z
1/2+x,y,1/2-z
1/2-x,1/2+y,1/2+z
1/2+x,-y,1/2+z
loop_
_atom_site_type_symbol
_atom_site_label
_atom_site_fract_x
_atom_site_fract_y
_atom_site_fract_z
Si Si1 0.169332 0.171230 0.614892
Si Si2 0.324243 0.930538 0.448878
Si Si3 0.324912 0.363173 0.703066
Si Si4 0.175907 0.667803 0.526515
Si Si5 0.825281 0.966673 0.798712
Si Si6 0.324535 0.438633 0.103918
O O1 0.165727 0.250000 0.591345
O O2 0.303300 0.124372 0.593065
O O3 0.218116 0.179003 0.667600
O O4 0.000000 0.136013 0.610145
O O5 0.500000 0.947886 0.457921
O O6 0.256906 0.890974 0.493818
O O7 0.244681 0.004432 0.433055
O O8 0.500000 0.338261 0.699895
O O9 0.250000 0.337736 0.750000
O O10 0.308350 0.448303 0.695844
O O11 0.242781 0.750000 0.523175
O O12 0.193319 0.639612 0.579408
O O13 0.000000 0.668940 0.511201
O O14 0.750000 0.940342 0.750000
O O15 0.751988 0.933231 0.845346
O O16 0.000000 0.941838 0.796872
O O17 0.500000 0.459566 0.111752
#
# Coordination Sequence:
#
# PCOD8299864 Si02
#       6
#    16  16  16  16  16  16
#     4  11  23  37  54  76 107 150 196 243 293 346
#     4  12  24  38  58  87 119 155 198 245 292 344
#     4  10  20  34  53  76 106 146 189 238 293 347
#     4  10  23  43  64  88 120 158 199 243 296 356
#     4  10  20  35  58  89 122 155 193 242 295 350
#     4  11  22  38  64  92 120 157 198 244 295 349
#
# _framework density 20.491375000000001
#
# number of rings (size 3 to 8) (size 9 to 14) (size 15 to 20)
#    0.000    1.333    1.667    4.500    0.000    8.667 
#    0.000    0.000    0.000    0.500    0.000    0.000 
#    0.000    0.000    0.000    0.000    0.000    0.000 
#
# Total GULP energy -594849.747531 kJ/mol
# GULP energy per Si atom -12392.703074 kJ/mol
# Density = 2.044474 g / cm^3
# Si number density = 20.491375 Si / 1000 Ang^3
#
#
#
# Elastic Constant Matrix: (Units=GPa)
#
#
# Indices 1 2 3 4 5 6 
#
# 1 131.2502 32.5304 50.9363 0.0000 0.0000 0.0000
# 2 32.5304 52.1593 55.5526 0.0000 0.0000 0.0000
# 3 50.9363 55.5526 129.0723 0.0000 0.0000 0.0000
# 4 0.0000 0.0000 0.0000 28.0754 0.0000 0.0000
# 5 0.0000 0.0000 0.0000 0.0000 37.6889 0.0000
# 6 0.0000 0.0000 0.0000 0.0000 0.0000 4.8310
#
#
#
# Elastic Compliance Matrix: (Units=1/GPa)
#
#
# Indices 1 2 3 4 5 6 
#
# 1 0.009331 -0.003504 -0.002174 0.000000 0.000000 0.000000
# 2 -0.003504 0.036715 -0.014419 0.000000 0.000000 0.000000
# 3 -0.002174 -0.014419 0.014812 0.000000 0.000000 0.000000
# 4 0.000000 0.000000 0.000000 0.035618 0.000000 0.000000
# 5 0.000000 0.000000 0.000000 0.000000 0.026533 0.000000
# 6 0.000000 0.000000 0.000000 0.000000 0.000000 0.206997
#
#
# Mechanical properties :
#
#
# Convention : Reuss Voigt Hill
#
# Bulk Modulus (GPa) = 48.39636 65.61340 57.00488
# Shear Modulus (GPa) = 13.25949 25.68323 19.47136
#
# Velocity S-wave (km/s) = 2.54653 3.54413 3.08591
# Velocity P-wave (km/s) = 5.68468 6.98837 6.36997
#
# Compressibility (1/GPa) = 0.02066271
#
# Stress axis : x y z
#
# Youngs Moduli (GPa) = 107.16599 27.23718 67.51431
#
# Poissons Ratio (x) = 0.09543 0.14680
# Poissons Ratio (y) = 0.37549 0.97350
# Poissons Ratio (z) = 0.23302 0.39274
#
# Static dielectric constant tensor:
#      x y z
#    x 3.728040 0.000000 0.000000 
#    y 0.000000 3.526950 0.000000 
#    z 0.000000 0.000000 3.930940 
# 
# 
# High freq. dielectric constant tensor:
#      x y z
#    x 1.805740 0.000000 0.000000 
#    y 0.000000 1.775070 0.000000 
#    z 0.000000 0.000000 1.814970 
# 
# From -- ./inp_files/64362.got.cif
#   From: 2010.03.12/outbox.cif.g09.slc.cpg/sg74_33_cif.got.tgz:64362.got - 2010.04.16 15:46:19.
