data_PCOD8299668
_publ_section_title
;
Structure prediction by ZEFSAII (Michael W. Deem and Ramdas Pophale) SiO2 
 PCOD8299668
Probable space group: I M M A
;
_chemical_formula_sum "Si O2"
_cell_formula_units_Z 104
_cell_length_a 21.086065
_cell_length_b 8.762799
_cell_length_c 28.132549
_cell_angle_alpha 90.000000
_cell_angle_beta 90.000000
_cell_angle_gamma 90.000000
_cell_volume 5198.134050
_symmetry_space_group_name_H-M "I M M A"
_symmetry_group_IT_number 74
_symmetry_cell_setting 'orthorhombic'
loop_
_space_group_symop_operation_xyz
x,y,z
-x,1/2-y,z
x,-y,-z
-x,1/2+y,-z
-x,-y,-z
x,1/2+y,-z
-x,y,z
x,1/2-y,z
1/2+x,1/2+y,1/2+z
1/2-x,-y,1/2+z
1/2+x,1/2-y,1/2-z
1/2-x,y,1/2-z
1/2-x,1/2-y,1/2-z
1/2+x,y,1/2-z
1/2-x,1/2+y,1/2+z
1/2+x,-y,1/2+z
loop_
_atom_site_type_symbol
_atom_site_label
_atom_site_fract_x
_atom_site_fract_y
_atom_site_fract_z
Si Si1 0.854973 0.926888 0.383032
Si Si2 0.927692 0.427940 0.709945
Si Si3 0.500000 0.428834 0.550898
Si Si4 0.747475 0.069440 0.447787
Si Si5 0.427411 0.929172 0.690875
Si Si6 0.126933 0.430164 0.898007
Si Si7 0.427167 0.082762 0.044516
O O1 0.837805 0.750000 0.387866
O O2 0.873504 0.969299 0.328964
O O3 0.799424 0.024017 0.407812
O O4 0.919071 0.971432 0.410817
O O5 0.924021 0.250000 0.722737
O O6 0.908864 0.526117 0.755664
O O7 0.000000 0.468115 0.693205
O O8 0.500000 0.250000 0.545213
O O9 0.500000 0.500000 0.500000
O O10 0.438452 0.484676 0.578726
O O11 0.745288 0.250000 0.453138
O O12 0.761271 0.000000 0.500000
O O13 0.681044 0.011543 0.427885
O O14 0.500000 0.981560 0.680584
O O15 0.419437 0.750000 0.684085
O O16 0.377515 0.014335 0.656504
O O17 0.138467 0.250000 0.899418
O O18 0.500000 0.107014 0.033362
O O19 0.395251 0.250000 0.052131
O O20 0.393172 0.000000 0.000000
#
# Coordination Sequence:
#
# PCOD8299668 Si02
#       7
#    16  16   8  16  16  16  16
#     4  11  22  38  59  83 113 154 201 248 299 355
#     4   9  19  36  60  89 121 157 198 247 301 357
#     4  10  22  36  58  90 122 154 188 236 291 348
#     4  12  26  44  63  86 118 159 203 248 298 357
#     4  10  20  35  59  92 126 160 196 240 296 355
#     4  11  22  40  63  90 121 158 199 242 296 354
#     4  10  20  33  51  77 109 145 187 240 299 356
#
# _framework density 20.007180000000002
#
# number of rings (size 3 to 8) (size 9 to 14) (size 15 to 20)
#    0.000    1.538    0.769    4.615    0.000    5.846 
#    0.000    2.308    0.000    4.615    0.000    0.000 
#    0.000    0.000    0.000    0.000    0.000    0.000 
#
# Total GULP energy -644566.142427 kJ/mol
# GULP energy per Si atom -12395.502739 kJ/mol
# Density = 1.996164 g / cm^3
# Si number density = 20.007180 Si / 1000 Ang^3
#
#
#
# Elastic Constant Matrix: (Units=GPa)
#
#
# Indices 1 2 3 4 5 6 
#
# 1 98.1230 45.5485 51.7300 0.0000 0.0000 0.0000
# 2 45.5485 95.8429 52.8521 0.0000 0.0000 0.0000
# 3 51.7300 52.8521 118.4309 0.0000 0.0000 0.0000
# 4 0.0000 0.0000 0.0000 38.7972 0.0000 0.0000
# 5 0.0000 0.0000 0.0000 0.0000 25.6317 0.0000
# 6 0.0000 0.0000 0.0000 0.0000 0.0000 30.2608
#
#
#
# Elastic Compliance Matrix: (Units=1/GPa)
#
#
# Indices 1 2 3 4 5 6 
#
# 1 0.014589 -0.004535 -0.004348 0.000000 0.000000 0.000000
# 2 -0.004535 0.015250 -0.004824 0.000000 0.000000 0.000000
# 3 -0.004348 -0.004824 0.012496 0.000000 0.000000 0.000000
# 4 0.000000 0.000000 0.000000 0.025775 0.000000 0.000000
# 5 0.000000 0.000000 0.000000 0.000000 0.039014 0.000000
# 6 0.000000 0.000000 0.000000 0.000000 0.000000 0.033046
#
#
# Mechanical properties :
#
#
# Convention : Reuss Voigt Hill
#
# Bulk Modulus (GPa) = 67.03173 68.07310 67.55241
# Shear Modulus (GPa) = 28.97558 29.75569 29.36564
#
# Velocity S-wave (km/s) = 3.80973 3.86067 3.83529
# Velocity P-wave (km/s) = 7.27521 7.34651 7.31095
#
# Compressibility (1/GPa) = 0.01491831
#
# Stress axis : x y z
#
# Youngs Moduli (GPa) = 68.54435 65.57580 80.02516
#
# Poissons Ratio (x) = 0.29741 0.34798
# Poissons Ratio (y) = 0.31088 0.38607
# Poissons Ratio (z) = 0.29806 0.31636
#
# Static dielectric constant tensor:
#      x y z
#    x 3.603010 0.000000 0.000000 
#    y 0.000000 3.883670 0.000000 
#    z 0.000000 0.000000 3.694660 
# 
# 
# High freq. dielectric constant tensor:
#      x y z
#    x 1.768790 0.000000 0.000000 
#    y 0.000000 1.790920 0.000000 
#    z 0.000000 0.000000 1.786390 
# 
# From -- ./inp_files/68284.got.cif
#   From: 2010.03.12/outbox.cif.g09.slc.cpg/sg74_35_cif.got.tgz:68284.got - 2010.04.16 15:46:19.
