data_PCOD8299080
_publ_section_title
;
Structure prediction by ZEFSAII (Michael W. Deem and Ramdas Pophale) SiO2 
 PCOD8299080
Probable space group: I M M A
;
_chemical_formula_sum "Si O2"
_cell_formula_units_Z 112
_cell_length_a 28.185730
_cell_length_b 16.264158
_cell_length_c 12.213094
_cell_angle_alpha 90.000000
_cell_angle_beta 90.000000
_cell_angle_gamma 90.000000
_cell_volume 5598.691940
_symmetry_space_group_name_H-M "I M M A"
_symmetry_group_IT_number 74
_symmetry_cell_setting 'orthorhombic'
loop_
_space_group_symop_operation_xyz
x,y,z
-x,1/2-y,z
x,-y,-z
-x,1/2+y,-z
-x,-y,-z
x,1/2+y,-z
-x,y,z
x,1/2-y,z
1/2+x,1/2+y,1/2+z
1/2-x,-y,1/2+z
1/2+x,1/2-y,1/2-z
1/2-x,y,1/2-z
1/2-x,1/2-y,1/2-z
1/2+x,y,1/2-z
1/2-x,1/2+y,1/2+z
1/2+x,-y,1/2+z
loop_
_atom_site_type_symbol
_atom_site_label
_atom_site_fract_x
_atom_site_fract_y
_atom_site_fract_z
Si Si1 0.209635 0.342134 0.676428
Si Si2 0.181434 0.157299 0.066392
Si Si3 0.140884 0.425609 0.262244
Si Si4 0.445984 0.500634 0.125383
Si Si5 0.446968 0.655491 0.267413
Si Si6 0.790014 0.653925 0.567401
Si Si7 0.355298 0.097128 0.654577
O O1 0.227501 0.250000 0.651435
O O2 0.250000 0.387869 0.750000
O O3 0.202925 0.381334 0.556371
O O4 0.162452 0.340808 0.750164
O O5 0.174713 0.250000 0.025720
O O6 0.145143 0.142720 0.166978
O O7 0.235489 0.141770 0.105033
O O8 0.170154 0.101144 0.961848
O O9 0.087380 0.437382 0.307203
O O10 0.176352 0.402809 0.359651
O O11 0.156990 0.508427 0.202570
O O12 0.500000 0.469530 0.140587
O O13 0.440336 0.595429 0.163139
O O14 0.430138 0.500000 0.000000
O O15 0.500000 0.646744 0.316141
O O16 0.437331 0.750000 0.232388
O O17 0.410737 0.621819 0.360345
O O18 0.805024 0.750000 0.578653
#
# Coordination Sequence:
#
# PCOD8299080 Si02
#       7
#    16  16  16  16  16  16  16
#     4  10  19  34  55  82 111 152 200 240 289 349
#     4  11  22  42  62  81 118 165 204 238 291 357
#     4  11  24  37  57  89 117 150 200 243 297 356
#     4   9  20  40  61  83 118 157 192 240 303 360
#     4   9  18  34  59  89 115 145 191 243 294 349
#     4  10  22  39  59  81 117 162 203 242 294 358
#     4  11  22  37  58  86 120 153 192 248 299 348
#
# _framework density 20.004673
#
# number of rings (size 3 to 8) (size 9 to 14) (size 15 to 20)
#    0.000    1.857    1.429    2.571    4.000    2.286 
#    2.571    1.429    0.000    6.857    0.000    0.000 
#    0.000    0.000    0.000    0.000    0.000    0.000 
#
# Total GULP energy -694096.665602 kJ/mol
# GULP energy per Si atom -12394.583314 kJ/mol
# Density = 1.995914 g / cm^3
# Si number density = 20.004673 Si / 1000 Ang^3
#
#
#
# Elastic Constant Matrix: (Units=GPa)
#
#
# Indices 1 2 3 4 5 6 
#
# 1 111.8940 46.8530 54.0028 0.0000 0.0000 0.0000
# 2 46.8530 61.1975 34.3831 0.0000 0.0000 0.0000
# 3 54.0028 34.3831 129.2760 0.0000 0.0000 0.0000
# 4 0.0000 0.0000 0.0000 28.1521 0.0000 0.0000
# 5 0.0000 0.0000 0.0000 0.0000 26.1931 0.0000
# 6 0.0000 0.0000 0.0000 0.0000 0.0000 31.4836
#
#
#
# Elastic Compliance Matrix: (Units=1/GPa)
#
#
# Indices 1 2 3 4 5 6 
#
# 1 0.014481 -0.009039 -0.003645 0.000000 0.000000 0.000000
# 2 -0.009039 0.024853 -0.002834 0.000000 0.000000 0.000000
# 3 -0.003645 -0.002834 0.010012 0.000000 0.000000 0.000000
# 4 0.000000 0.000000 0.000000 0.035521 0.000000 0.000000
# 5 0.000000 0.000000 0.000000 0.000000 0.038178 0.000000
# 6 0.000000 0.000000 0.000000 0.000000 0.000000 0.031763
#
#
# Mechanical properties :
#
#
# Convention : Reuss Voigt Hill
#
# Bulk Modulus (GPa) = 54.61631 63.64948 59.13289
# Shear Modulus (GPa) = 26.04880 28.30768 27.17824
#
# Velocity S-wave (km/s) = 3.61243 3.76580 3.68991
# Velocity P-wave (km/s) = 6.69033 7.12704 6.91214
#
# Compressibility (1/GPa) = 0.01830955
#
# Stress axis : x y z
#
# Youngs Moduli (GPa) = 69.05584 40.23660 99.88067
#
# Poissons Ratio (x) = 0.36369 0.36409
# Poissons Ratio (y) = 0.62417 0.28309
# Poissons Ratio (z) = 0.25172 0.11404
#
# Static dielectric constant tensor:
#      x y z
#    x 3.754990 0.000000 0.000000 
#    y 0.000000 3.565930 0.000000 
#    z 0.000000 0.000000 3.643810 
# 
# 
# High freq. dielectric constant tensor:
#      x y z
#    x 1.778550 0.000000 0.000000 
#    y 0.000000 1.770420 0.000000 
#    z 0.000000 0.000000 1.777820 
# 
# From -- ./inp_files/27223.got.cif
#   From: 2010.03.12/outbox.cif.g09.slc.cpg/sg74_14_cif.got.tgz:27223.got - 2010.04.16 15:46:19.
