data_PCOD8299276
_publ_section_title
;
Structure prediction by ZEFSAII (Michael W. Deem and Ramdas Pophale) SiO2 
 PCOD8299276
Probable space group: I M M A
;
_chemical_formula_sum "Si O2"
_cell_formula_units_Z 112
_cell_length_a 23.807261
_cell_length_b 14.353948
_cell_length_c 14.590671
_cell_angle_alpha 90.000000
_cell_angle_beta 90.000000
_cell_angle_gamma 90.000000
_cell_volume 4986.043539
_symmetry_space_group_name_H-M "I M M A"
_symmetry_group_IT_number 74
_symmetry_cell_setting 'orthorhombic'
loop_
_space_group_symop_operation_xyz
x,y,z
-x,1/2-y,z
x,-y,-z
-x,1/2+y,-z
-x,-y,-z
x,1/2+y,-z
-x,y,z
x,1/2-y,z
1/2+x,1/2+y,1/2+z
1/2-x,-y,1/2+z
1/2+x,1/2-y,1/2-z
1/2-x,y,1/2-z
1/2-x,1/2-y,1/2-z
1/2+x,y,1/2-z
1/2-x,1/2+y,1/2+z
1/2+x,-y,1/2+z
loop_
_atom_site_type_symbol
_atom_site_label
_atom_site_fract_x
_atom_site_fract_y
_atom_site_fract_z
Si Si1 0.268745 0.106378 0.011335
Si Si2 0.624873 0.500894 0.716355
Si Si3 0.935749 0.642997 0.097997
Si Si4 0.435433 0.896694 0.033043
Si Si5 0.351391 0.147742 0.435573
Si Si6 0.372348 0.351039 0.135185
Si Si7 0.661392 0.852407 0.163310
O O1 0.211031 0.160676 0.025673
O O2 0.311310 0.119754 0.096180
O O3 0.294275 0.145360 0.917955
O O4 0.253515 0.000000 0.000000
O O5 0.576161 0.432507 0.678162
O O6 0.651424 0.566890 0.639758
O O7 0.603043 0.570952 0.795777
O O8 0.672414 0.431020 0.758729
O O9 0.925046 0.750000 0.131267
O O10 0.000000 0.630817 0.066031
O O11 0.895452 0.617616 0.013398
O O12 0.500000 0.879570 0.056434
O O13 0.401155 0.872048 0.124210
O O14 0.415826 0.834318 0.947802
O O15 0.420780 0.000000 0.000000
O O16 0.369320 0.250000 0.396733
O O17 0.366617 0.250000 0.184580
O O18 0.663657 0.750000 0.208840
#
# Coordination Sequence:
#
# PCOD8299276 Si02
#       7
#    16  16  16  16  16  16  16
#     4  11  20  42  68  95 133 179 221 263 326 398
#     4  12  23  41  62 100 131 165 212 272 333 395
#     4  10  24  48  73  96 127 171 226 285 343 400
#     4  10  19  36  59  87 126 175 221 258 311 386
#     4  11  25  45  70  97 126 170 225 275 331 403
#     4  11  22  38  61  92 135 179 217 267 323 387
#     4  11  22  39  64  94 131 173 216 267 325 388
#
# _framework density 22.462700999999999
#
# number of rings (size 3 to 8) (size 9 to 14) (size 15 to 20)
#    0.000    1.143    2.857    5.571    0.000    4.000 
#    2.571    1.429    0.000    6.000    0.000    0.000 
#    0.000    0.000    0.000    0.000    0.000    0.000 
#
# Total GULP energy -694140.411916 kJ/mol
# GULP energy per Si atom -12395.364499 kJ/mol
# Density = 2.241157 g / cm^3
# Si number density = 22.462701 Si / 1000 Ang^3
#
#
#
# Elastic Constant Matrix: (Units=GPa)
#
#
# Indices 1 2 3 4 5 6 
#
# 1 101.4946 22.1813 44.6966 0.0000 0.0000 0.0000
# 2 22.1813 174.6279 59.9044 0.0000 0.0000 0.0000
# 3 44.6966 59.9044 106.4398 0.0000 0.0000 0.0000
# 4 0.0000 0.0000 0.0000 22.3706 0.0000 0.0000
# 5 0.0000 0.0000 0.0000 0.0000 17.2803 0.0000
# 6 0.0000 0.0000 0.0000 0.0000 0.0000 25.4971
#
#
#
# Elastic Compliance Matrix: (Units=1/GPa)
#
#
# Indices 1 2 3 4 5 6 
#
# 1 0.012097 0.000255 -0.005224 0.000000 0.000000 0.000000
# 2 0.000255 0.007102 -0.004104 0.000000 0.000000 0.000000
# 3 -0.005224 -0.004104 0.013898 0.000000 0.000000 0.000000
# 4 0.000000 0.000000 0.000000 0.044702 0.000000 0.000000
# 5 0.000000 0.000000 0.000000 0.000000 0.057869 0.000000
# 6 0.000000 0.000000 0.000000 0.000000 0.000000 0.039220
#
#
# Mechanical properties :
#
#
# Convention : Reuss Voigt Hill
#
# Bulk Modulus (GPa) = 66.87802 70.68073 68.77938
# Shear Modulus (GPa) = 25.25025 30.08161 27.66593
#
# Velocity S-wave (km/s) = 3.35639 3.66345 3.51328
# Velocity P-wave (km/s) = 6.69762 7.03055 6.86610
#
# Compressibility (1/GPa) = 0.01495260
#
# Stress axis : x y z
#
# Youngs Moduli (GPa) = 82.66267 140.80672 71.95093
#
# Poissons Ratio (x) = -0.03595 0.37585
# Poissons Ratio (y) = -0.02110 0.29530
# Poissons Ratio (z) = 0.43180 0.57790
#
# Static dielectric constant tensor:
#      x y z
#    x 3.732550 0.000000 0.000000 
#    y 0.000000 4.474310 0.000000 
#    z 0.000000 0.000000 3.918150 
# 
# 
# High freq. dielectric constant tensor:
#      x y z
#    x 1.859540 0.000000 0.000000 
#    y 0.000000 1.920390 0.000000 
#    z 0.000000 0.000000 1.868830 
# 
# From -- ./inp_files/36535.got.cif
#   From: 2010.03.12/outbox.cif.g09.slc.cpg/sg74_19_cif.got.tgz:36535.got - 2010.04.16 15:46:19.
