data_PCOD8299824
_publ_section_title
;
Structure prediction by ZEFSAII (Michael W. Deem and Ramdas Pophale) SiO2 
 PCOD8299824
Probable space group: I M M A
;
_chemical_formula_sum "Si O2"
_cell_formula_units_Z 120
_cell_length_a 9.181939
_cell_length_b 27.586650
_cell_length_c 25.405969
_cell_angle_alpha 90.000000
_cell_angle_beta 90.000000
_cell_angle_gamma 90.000000
_cell_volume 6435.304954
_symmetry_space_group_name_H-M "I M M A"
_symmetry_group_IT_number 74
_symmetry_cell_setting 'orthorhombic'
loop_
_space_group_symop_operation_xyz
x,y,z
-x,1/2-y,z
x,-y,-z
-x,1/2+y,-z
-x,-y,-z
x,1/2+y,-z
-x,y,z
x,1/2-y,z
1/2+x,1/2+y,1/2+z
1/2-x,-y,1/2+z
1/2+x,1/2-y,1/2-z
1/2-x,y,1/2-z
1/2-x,1/2-y,1/2-z
1/2+x,y,1/2-z
1/2-x,1/2+y,1/2+z
1/2+x,-y,1/2+z
loop_
_atom_site_type_symbol
_atom_site_label
_atom_site_fract_x
_atom_site_fract_y
_atom_site_fract_z
Si Si1 0.827719 0.250000 0.306360
Si Si2 0.334255 0.444051 0.130477
Si Si3 0.171073 0.629766 0.195907
Si Si4 0.161094 0.451511 0.031803
Si Si5 0.334770 0.345518 0.491366
Si Si6 0.831011 0.019202 0.802335
Si Si7 0.172690 0.695144 0.100267
Si Si8 0.831070 0.335988 0.382612
O O1 0.750000 0.250000 0.250000
O O2 0.777635 0.296621 0.340216
O O3 0.000000 0.250000 0.296395
O O4 0.500000 0.459300 0.142583
O O5 0.299955 0.448247 0.069194
O O6 0.221189 0.480994 0.155240
O O7 0.304332 0.388007 0.145716
O O8 0.250000 0.644735 0.250000
O O9 0.206188 0.574094 0.180728
O O10 0.233430 0.662158 0.148033
O O11 0.000000 0.638001 0.204645
O O12 0.169291 0.403127 0.996355
O O13 0.000000 0.452467 0.059573
O O14 0.182514 0.500000 0.000000
O O15 0.500000 0.327333 0.483625
O O16 0.263925 0.320690 0.543232
O O17 0.252305 0.330540 0.437955
O O18 0.750000 0.004189 0.750000
O O19 0.000000 0.012323 0.792432
O O20 0.220802 0.750000 0.111929
O O21 0.000000 0.689023 0.098337
O O22 0.000000 0.328782 0.396296
#
# Coordination Sequence:
#
# PCOD8299824 Si02
#       8
#     8  16  16  16  16  16  16  16
#     4  10  22  40  60  82 106 140 179 218 263 314
#     4  10  20  34  52  76 107 138 173 214 262 315
#     4   9  19  35  55  76 105 141 177 219 269 320
#     4   9  18  31  50  75 104 138 176 216 259 311
#     4   9  18  32  53  80 106 137 179 219 260 314
#     4  10  20  34  54  77 104 139 178 216 262 314
#     4   9  18  32  52  80 108 136 176 226 272 315
#     4   9  20  38  56  76 109 144 172 213 269 317
#
# _framework density 18.647134000000001
#
# number of rings (size 3 to 8) (size 9 to 14) (size 15 to 20)
#    0.000    2.667    0.000    0.800    2.800    2.667 
#    0.000    2.000    0.000    0.800    0.000    0.000 
#    0.000    0.000    0.000    0.000    0.000    0.000 
#
# Total GULP energy -743659.205955 kJ/mol
# GULP energy per Si atom -12394.320099 kJ/mol
# Density = 1.860469 g / cm^3
# Si number density = 18.647134 Si / 1000 Ang^3
#
#
#
# Elastic Constant Matrix: (Units=GPa)
#
#
# Indices 1 2 3 4 5 6 
#
# 1 48.8544 37.1514 39.0654 0.0000 0.0000 0.0000
# 2 37.1514 122.1755 72.4430 0.0000 0.0000 0.0000
# 3 39.0654 72.4430 122.4804 0.0000 0.0000 0.0000
# 4 0.0000 0.0000 0.0000 30.5501 0.0000 0.0000
# 5 0.0000 0.0000 0.0000 0.0000 27.9593 0.0000
# 6 0.0000 0.0000 0.0000 0.0000 0.0000 20.6112
#
#
#
# Elastic Compliance Matrix: (Units=1/GPa)
#
#
# Indices 1 2 3 4 5 6 
#
# 1 0.029492 -0.005222 -0.006318 0.000000 0.000000 0.000000
# 2 -0.005222 0.013530 -0.006337 0.000000 0.000000 0.000000
# 3 -0.006318 -0.006337 0.013928 0.000000 0.000000 0.000000
# 4 0.000000 0.000000 0.000000 0.032733 0.000000 0.000000
# 5 0.000000 0.000000 0.000000 0.000000 0.035766 0.000000
# 6 0.000000 0.000000 0.000000 0.000000 0.000000 0.048517
#
#
# Mechanical properties :
#
#
# Convention : Reuss Voigt Hill
#
# Bulk Modulus (GPa) = 47.17817 65.64775 56.41296
# Shear Modulus (GPa) = 23.06415 25.48083 24.27249
#
# Velocity S-wave (km/s) = 3.52074 3.70060 3.61179
# Velocity P-wave (km/s) = 6.47170 7.31717 6.90738
#
# Compressibility (1/GPa) = 0.02119625
#
# Stress axis : x y z
#
# Youngs Moduli (GPa) = 33.90753 73.90745 71.79763
#
# Poissons Ratio (x) = 0.38593 0.45362
# Poissons Ratio (y) = 0.17706 0.45500
# Poissons Ratio (z) = 0.21423 0.46837
#
# Static dielectric constant tensor:
#      x y z
#    x 3.295530 0.000000 0.000000 
#    y 0.000000 3.658660 0.000000 
#    z 0.000000 0.000000 3.417680 
# 
# 
# High freq. dielectric constant tensor:
#      x y z
#    x 1.706450 0.000000 0.000000 
#    y 0.000000 1.735870 0.000000 
#    z 0.000000 0.000000 1.714730 
# 
# From -- ./inp_files/65109.got.cif
#   From: 2010.03.12/outbox.cif.g09.slc.cpg/sg74_33_cif.got.tgz:65109.got - 2010.04.16 15:46:19.
