data_PCOD8299502
_publ_section_title
;
Structure prediction by ZEFSAII (Michael W. Deem and Ramdas Pophale) SiO2 
 PCOD8299502
Probable space group: I M M A
;
_chemical_formula_sum "Si O2"
_cell_formula_units_Z 88
_cell_length_a 9.629462
_cell_length_b 16.855421
_cell_length_c 27.513376
_cell_angle_alpha 90.000000
_cell_angle_beta 90.000000
_cell_angle_gamma 90.000000
_cell_volume 4465.658531
_symmetry_space_group_name_H-M "I M M A"
_symmetry_group_IT_number 74
_symmetry_cell_setting 'orthorhombic'
loop_
_space_group_symop_operation_xyz
x,y,z
-x,1/2-y,z
x,-y,-z
-x,1/2+y,-z
-x,-y,-z
x,1/2+y,-z
-x,y,z
x,1/2-y,z
1/2+x,1/2+y,1/2+z
1/2-x,-y,1/2+z
1/2+x,1/2-y,1/2-z
1/2-x,y,1/2-z
1/2-x,1/2-y,1/2-z
1/2+x,y,1/2-z
1/2-x,1/2+y,1/2+z
1/2+x,-y,1/2+z
loop_
_atom_site_type_symbol
_atom_site_label
_atom_site_fract_x
_atom_site_fract_y
_atom_site_fract_z
Si Si1 0.839408 0.065065 0.297350
Si Si2 0.160559 0.591010 0.353772
Si Si3 0.161136 0.159229 0.392527
Si Si4 0.841522 0.920523 0.972983
Si Si5 0.658264 0.338779 0.569698
Si Si6 0.842202 0.250000 0.703485
O O1 0.750000 0.084988 0.250000
O O2 0.814537 0.134054 0.336739
O O3 0.000000 0.060305 0.281689
O O4 0.790237 0.981485 0.320248
O O5 0.249342 0.594810 0.403239
O O6 0.192974 0.672335 0.326750
O O7 0.000000 0.580799 0.368183
O O8 0.210929 0.250000 0.398458
O O9 0.246871 0.100503 0.427019
O O10 0.000000 0.149787 0.406457
O O11 0.000000 0.931610 0.954685
O O12 0.829859 0.849700 0.011865
O O13 0.789642 0.000000 0.000000
O O14 0.500000 0.350562 0.586911
O O15 0.710928 0.250000 0.581669
O O16 0.750000 0.250000 0.750000
O O17 0.000000 0.250000 0.720953
#
# Coordination Sequence:
#
# PCOD8299502 Si02
#       6
#    16  16  16  16  16   8
#     4  10  22  39  59  83 111 144 185 237 291 342
#     4  10  20  35  53  77 109 144 186 232 279 337
#     4  10  22  40  60  85 117 152 193 239 286 340
#     4  10  21  37  58  86 118 151 189 234 284 341
#     4  10  20  33  51  78 111 146 184 226 272 326
#     4  10  20  32  48  72 102 138 182 228 273 328
#
# _framework density 19.705939999999998
#
# number of rings (size 3 to 8) (size 9 to 14) (size 15 to 20)
#    0.000    2.000    0.909    2.182    0.000    4.727 
#    0.000    0.000    0.000    0.000    0.000    0.000 
#    0.000    0.000    0.000    0.000    0.000    0.000 
#
# Total GULP energy -545685.855727 kJ/mol
# GULP energy per Si atom -12401.951267 kJ/mol
# Density = 1.966109 g / cm^3
# Si number density = 19.705940 Si / 1000 Ang^3
#
#
#
# Elastic Constant Matrix: (Units=GPa)
#
#
# Indices 1 2 3 4 5 6 
#
# 1 66.5367 34.8107 56.8034 0.0000 0.0000 0.0000
# 2 34.8107 102.3686 34.4715 0.0000 0.0000 0.0000
# 3 56.8034 34.4715 101.6417 0.0000 0.0000 0.0000
# 4 0.0000 0.0000 0.0000 13.6650 0.0000 0.0000
# 5 0.0000 0.0000 0.0000 0.0000 38.7856 0.0000
# 6 0.0000 0.0000 0.0000 0.0000 0.0000 24.3344
#
#
#
# Elastic Compliance Matrix: (Units=1/GPa)
#
#
# Indices 1 2 3 4 5 6 
#
# 1 0.031127 -0.005336 -0.015586 0.000000 0.000000 0.000000
# 2 -0.005336 0.011943 -0.001068 0.000000 0.000000 0.000000
# 3 -0.015586 -0.001068 0.018911 0.000000 0.000000 0.000000
# 4 0.000000 0.000000 0.000000 0.073180 0.000000 0.000000
# 5 0.000000 0.000000 0.000000 0.000000 0.025783 0.000000
# 6 0.000000 0.000000 0.000000 0.000000 0.000000 0.041094
#
#
# Mechanical properties :
#
#
# Convention : Reuss Voigt Hill
#
# Bulk Modulus (GPa) = 55.55462 58.07979 56.81721
# Shear Modulus (GPa) = 19.83983 24.98776 22.41379
#
# Velocity S-wave (km/s) = 3.17644 3.56481 3.37621
# Velocity P-wave (km/s) = 6.45802 6.81770 6.64030
#
# Compressibility (1/GPa) = 0.01800030
#
# Stress axis : x y z
#
# Youngs Moduli (GPa) = 32.12636 83.73124 52.87930
#
# Poissons Ratio (x) = 0.44683 0.82417
# Poissons Ratio (y) = 0.17144 0.05648
# Poissons Ratio (z) = 0.50072 0.08943
#
# Static dielectric constant tensor:
#      x y z
#    x 3.683120 0.000000 0.000000 
#    y 0.000000 3.681990 0.000000 
#    z 0.000000 0.000000 3.402280 
# 
# 
# High freq. dielectric constant tensor:
#      x y z
#    x 1.759210 0.000000 0.000000 
#    y 0.000000 1.780180 0.000000 
#    z 0.000000 0.000000 1.763600 
# 
# From -- ./inp_files/70206.got.cif
#   From: 2010.03.12/outbox.cif.g09.slc.cpg/sg74_36_cif.got.tgz:70206.got - 2010.04.16 15:46:19.
