data_PCOD8299680
_publ_section_title
;
Structure prediction by ZEFSAII (Michael W. Deem and Ramdas Pophale) SiO2 
 PCOD8299680
Probable space group: I M M A
;
_chemical_formula_sum "Si O2"
_cell_formula_units_Z 96
_cell_length_a 23.743262
_cell_length_b 8.655627
_cell_length_c 24.906462
_cell_angle_alpha 90.000000
_cell_angle_beta 90.000000
_cell_angle_gamma 90.000000
_cell_volume 5118.597233
_symmetry_space_group_name_H-M "I M M A"
_symmetry_group_IT_number 74
_symmetry_cell_setting 'orthorhombic'
loop_
_space_group_symop_operation_xyz
x,y,z
-x,1/2-y,z
x,-y,-z
-x,1/2+y,-z
-x,-y,-z
x,1/2+y,-z
-x,y,z
x,1/2-y,z
1/2+x,1/2+y,1/2+z
1/2-x,-y,1/2+z
1/2+x,1/2-y,1/2-z
1/2-x,y,1/2-z
1/2-x,1/2-y,1/2-z
1/2+x,y,1/2-z
1/2-x,1/2+y,1/2+z
1/2+x,-y,1/2+z
loop_
_atom_site_type_symbol
_atom_site_label
_atom_site_fract_x
_atom_site_fract_y
_atom_site_fract_z
Si Si1 0.820195 0.068547 0.442079
Si Si2 0.755694 0.082087 0.309917
Si Si3 0.799578 0.069563 0.942997
Si Si4 0.564974 0.071956 0.252094
Si Si5 0.868222 0.068900 0.658009
Si Si6 0.642746 0.926871 0.339015
O O1 0.821319 0.250000 0.447485
O O2 0.833622 0.000000 0.500000
O O3 0.758165 0.012143 0.421072
O O4 0.868736 0.013091 0.400595
O O5 0.757783 0.250000 0.341969
O O6 0.750000 0.135884 0.250000
O O7 0.811434 0.981365 0.313541
O O8 0.705557 0.967726 0.323165
O O9 0.785301 0.250000 0.949123
O O10 0.853774 0.043865 0.903737
O O11 0.817167 0.000000 0.000000
O O12 0.500000 0.038430 0.263754
O O13 0.577696 0.250000 0.240667
O O14 0.581743 0.980912 0.198081
O O15 0.597381 0.027129 0.306967
O O16 0.871958 0.250000 0.648825
O O17 0.629330 0.750000 0.325143
#
# Coordination Sequence:
#
# PCOD8299680 Si02
#       6
#    16  16  16  16  16  16
#     4  11  21  34  54  81 118 156 190 228 274 333
#     4  11  21  32  51  80 114 149 186 225 278 339
#     4  10  20  33  51  80 117 153 189 227 274 334
#     4  11  25  43  61  82 109 145 191 239 288 341
#     4  12  23  36  57  83 115 150 188 231 281 339
#     4  11  22  35  56  83 115 149 186 232 282 339
#
# _framework density 18.755140000000001
#
# number of rings (size 3 to 8) (size 9 to 14) (size 15 to 20)
#    0.000    1.000    3.333    6.000    0.000    4.000 
#    0.000    0.000    0.000    1.000    0.000    0.000 
#    0.000    0.000    0.000    0.000    0.000    0.000 
#
# Total GULP energy -594861.223037 kJ/mol
# GULP energy per Si atom -12392.942147 kJ/mol
# Density = 1.871245 g / cm^3
# Si number density = 18.755140 Si / 1000 Ang^3
#
#
#
# Elastic Constant Matrix: (Units=GPa)
#
#
# Indices 1 2 3 4 5 6 
#
# 1 53.1664 24.9946 22.1761 0.0000 0.0000 0.0000
# 2 24.9946 132.6451 43.6516 0.0000 0.0000 0.0000
# 3 22.1761 43.6516 94.2723 0.0000 0.0000 0.0000
# 4 0.0000 0.0000 0.0000 35.4079 0.0000 0.0000
# 5 0.0000 0.0000 0.0000 0.0000 11.6396 0.0000
# 6 0.0000 0.0000 0.0000 0.0000 0.0000 26.1721
#
#
#
# Elastic Compliance Matrix: (Units=1/GPa)
#
#
# Indices 1 2 3 4 5 6 
#
# 1 0.021729 -0.002846 -0.003794 0.000000 0.000000 0.000000
# 2 -0.002846 0.009267 -0.003621 0.000000 0.000000 0.000000
# 3 -0.003794 -0.003621 0.013177 0.000000 0.000000 0.000000
# 4 0.000000 0.000000 0.000000 0.028242 0.000000 0.000000
# 5 0.000000 0.000000 0.000000 0.000000 0.085914 0.000000
# 6 0.000000 0.000000 0.000000 0.000000 0.000000 0.038209
#
#
# Mechanical properties :
#
#
# Convention : Reuss Voigt Hill
#
# Bulk Modulus (GPa) = 42.28203 51.30318 46.79261
# Shear Modulus (GPa) = 22.22779 27.26134 24.74457
#
# Velocity S-wave (km/s) = 3.44635 3.81667 3.63622
# Velocity P-wave (km/s) = 6.19916 6.84370 6.52939
#
# Compressibility (1/GPa) = 0.02365071
#
# Stress axis : x y z
#
# Youngs Moduli (GPa) = 46.02102 107.91004 75.89074
#
# Poissons Ratio (x) = 0.30712 0.28790
# Poissons Ratio (y) = 0.13098 0.27484
# Poissons Ratio (z) = 0.17459 0.39079
#
# Static dielectric constant tensor:
#      x y z
#    x 3.042430 0.000000 0.000000 
#    y 0.000000 3.597350 0.000000 
#    z 0.000000 0.000000 3.982180 
# 
# 
# High freq. dielectric constant tensor:
#      x y z
#    x 1.674830 0.000000 0.000000 
#    y 0.000000 1.754810 0.000000 
#    z 0.000000 0.000000 1.749180 
# 
# From -- ./inp_files/68146.got.cif
#   From: 2010.03.12/outbox.cif.g09.slc.cpg/sg74_35_cif.got.tgz:68146.got - 2010.04.16 15:46:19.
