data_PCOD8299353
_publ_section_title
;
Structure prediction by ZEFSAII (Michael W. Deem and Ramdas Pophale) SiO2 
 PCOD8299353
Probable space group: I M M A
;
_chemical_formula_sum "Si O2"
_cell_formula_units_Z 88
_cell_length_a 26.132506
_cell_length_b 10.146655
_cell_length_c 17.695884
_cell_angle_alpha 90.000000
_cell_angle_beta 90.000000
_cell_angle_gamma 90.000000
_cell_volume 4692.196763
_symmetry_space_group_name_H-M "I M M A"
_symmetry_group_IT_number 74
_symmetry_cell_setting 'orthorhombic'
loop_
_space_group_symop_operation_xyz
x,y,z
-x,1/2-y,z
x,-y,-z
-x,1/2+y,-z
-x,-y,-z
x,1/2+y,-z
-x,y,z
x,1/2-y,z
1/2+x,1/2+y,1/2+z
1/2-x,-y,1/2+z
1/2+x,1/2-y,1/2-z
1/2-x,y,1/2-z
1/2-x,1/2-y,1/2-z
1/2+x,y,1/2-z
1/2-x,1/2+y,1/2+z
1/2+x,-y,1/2+z
loop_
_atom_site_type_symbol
_atom_site_label
_atom_site_fract_x
_atom_site_fract_y
_atom_site_fract_z
Si Si1 0.219967 0.401837 0.176259
Si Si2 0.940817 0.250000 0.903030
Si Si3 0.941276 0.250000 0.082088
Si Si4 0.595179 0.598142 0.826365
Si Si5 0.688709 0.099726 0.068202
Si Si6 0.000000 0.596722 0.569903
Si Si7 0.608402 0.492742 0.335669
O O1 0.203431 0.250000 0.189864
O O2 0.250000 0.453678 0.250000
O O3 0.254815 0.416426 0.102087
O O4 0.169980 0.489414 0.162785
O O5 0.911319 0.373599 0.870370
O O6 0.000000 0.250000 0.877308
O O7 0.936677 0.250000 0.992563
O O8 0.913787 0.377776 0.113264
O O9 0.000000 0.250000 0.108702
O O10 0.593053 0.750000 0.801921
O O11 0.648586 0.564412 0.866306
O O12 0.549654 0.561467 0.882087
O O13 0.589117 0.514185 0.750531
O O14 0.679746 0.250000 0.039800
O O15 0.680556 0.000000 0.000000
O O16 0.000000 0.500000 0.500000
O O17 0.000000 0.750000 0.544137
#
# Coordination Sequence:
#
# PCOD8299353 Si02
#       7
#    16   8   8  16  16   8  16
#     4  10  19  38  65  92 120 159 213 265 306 356
#     4  11  28  46  59  96 140 162 193 271 336 376
#     4  11  24  42  71  92 120 168 217 257 316 390
#     4  10  20  37  64  91 117 162 214 254 295 371
#     4  10  21  38  60  88 125 163 207 254 312 371
#     4  10  22  38  58  90 123 157 206 254 301 361
#     4  12  22  42  68  93 123 165 214 256 314 376
#
# _framework density 18.754543000000002
#
# number of rings (size 3 to 8) (size 9 to 14) (size 15 to 20)
#    0.000    1.455    3.636    1.636    2.545    2.909 
#    4.909    0.455    0.000    0.000    0.000    0.000 
#    0.000    0.000    0.000    0.000    0.000    0.000 
#
# Total GULP energy -545778.600980 kJ/mol
# GULP energy per Si atom -12404.059113 kJ/mol
# Density = 1.871186 g / cm^3
# Si number density = 18.754543 Si / 1000 Ang^3
#
#
#
# Elastic Constant Matrix: (Units=GPa)
#
#
# Indices 1 2 3 4 5 6 
#
# 1 145.4010 56.3143 46.4119 0.0000 0.0000 0.0000
# 2 56.3143 114.3890 57.5328 0.0000 0.0000 0.0000
# 3 46.4119 57.5328 101.1393 0.0000 0.0000 0.0000
# 4 0.0000 0.0000 0.0000 42.6202 0.0000 0.0000
# 5 0.0000 0.0000 0.0000 0.0000 20.7036 0.0000
# 6 0.0000 0.0000 0.0000 0.0000 0.0000 24.3248
#
#
#
# Elastic Compliance Matrix: (Units=1/GPa)
#
#
# Indices 1 2 3 4 5 6 
#
# 1 0.008838 -0.003237 -0.002214 0.000000 0.000000 0.000000
# 2 -0.003237 0.013432 -0.006155 0.000000 0.000000 0.000000
# 3 -0.002214 -0.006155 0.014405 0.000000 0.000000 0.000000
# 4 0.000000 0.000000 0.000000 0.023463 0.000000 0.000000
# 5 0.000000 0.000000 0.000000 0.000000 0.048301 0.000000
# 6 0.000000 0.000000 0.000000 0.000000 0.000000 0.041110
#
#
# Mechanical properties :
#
#
# Convention : Reuss Voigt Hill
#
# Bulk Modulus (GPa) = 74.28656 75.71637 75.00147
# Shear Modulus (GPa) = 28.20898 30.90774 29.55836
#
# Velocity S-wave (km/s) = 3.88250 4.06398 3.97427
# Velocity P-wave (km/s) = 7.73268 7.90450 7.81906
#
# Compressibility (1/GPa) = 0.01346138
#
# Stress axis : x y z
#
# Youngs Moduli (GPa) = 113.14573 74.45161 69.42241
#
# Poissons Ratio (x) = 0.24103 0.15371
# Poissons Ratio (y) = 0.36630 0.42728
# Poissons Ratio (z) = 0.25052 0.45824
#
# Static dielectric constant tensor:
#      x y z
#    x 3.708740 0.000000 0.000000 
#    y 0.000000 3.067540 0.000000 
#    z 0.000000 0.000000 3.454570 
# 
# 
# High freq. dielectric constant tensor:
#      x y z
#    x 1.748900 0.000000 0.000000 
#    y 0.000000 1.705890 0.000000 
#    z 0.000000 0.000000 1.737070 
# 
# From -- ./inp_files/37259.got.cif
#   From: 2010.03.12/outbox.cif.g09.slc.cpg/sg74_19_cif.got.tgz:37259.got - 2010.04.16 15:46:19.
