data_PCOD8299028
_publ_section_title
;
Structure prediction by ZEFSAII (Michael W. Deem and Ramdas Pophale) SiO2 
 PCOD8299028
Probable space group: I M M A
;
_chemical_formula_sum "Si O2"
_cell_formula_units_Z 104
_cell_length_a 22.159953
_cell_length_b 9.209579
_cell_length_c 29.901123
_cell_angle_alpha 90.000000
_cell_angle_beta 90.000000
_cell_angle_gamma 90.000000
_cell_volume 6102.335936
_symmetry_space_group_name_H-M "I M M A"
_symmetry_group_IT_number 74
_symmetry_cell_setting 'orthorhombic'
loop_
_space_group_symop_operation_xyz
x,y,z
-x,1/2-y,z
x,-y,-z
-x,1/2+y,-z
-x,-y,-z
x,1/2+y,-z
-x,y,z
x,1/2-y,z
1/2+x,1/2+y,1/2+z
1/2-x,-y,1/2+z
1/2+x,1/2-y,1/2-z
1/2-x,y,1/2-z
1/2-x,1/2-y,1/2-z
1/2+x,y,1/2-z
1/2-x,1/2+y,1/2+z
1/2+x,-y,1/2+z
loop_
_atom_site_type_symbol
_atom_site_label
_atom_site_fract_x
_atom_site_fract_y
_atom_site_fract_z
Si Si1 0.571740 0.088962 0.282025
Si Si2 0.431026 0.918106 0.198284
Si Si3 0.283698 0.083521 0.956713
Si Si4 0.395983 0.580958 0.101065
Si Si5 0.646905 0.421456 0.545351
Si Si6 0.929348 0.918936 0.881468
Si Si7 0.500000 0.075133 0.048086
O O1 0.500000 0.087722 0.279640
O O2 0.597075 0.250000 0.274901
O O3 0.590549 0.033253 0.331303
O O4 0.598862 0.993493 0.241680
O O5 0.500000 0.967670 0.191083
O O6 0.426756 0.750000 0.208477
O O7 0.395455 0.960964 0.153353
O O8 0.284589 0.250000 0.970728
O O9 0.328103 0.052036 0.915520
O O10 0.216098 0.035981 0.943429
O O11 0.307885 0.000000 0.000000
O O12 0.415507 0.750000 0.094576
O O13 0.440996 0.476905 0.074489
O O14 0.625954 0.500000 0.500000
O O15 0.637778 0.250000 0.539725
O O16 0.606342 0.477930 0.585412
O O17 0.913593 0.750000 0.889653
O O18 0.000000 0.945412 0.888937
O O19 0.500000 0.250000 0.043553
O O20 0.500000 0.000000 0.000000
#
# Coordination Sequence:
#
# PCOD8299028 Si02
#       7
#    16  16  16  16  16  16   8
#     4   8  15  28  46  68  96 127 157 193 237 284
#     4   9  16  27  45  69  96 125 158 197 244 290
#     4   9  19  34  52  70  92 125 165 205 242 289
#     4  10  19  34  51  69  97 129 163 205 251 294
#     4  10  20  34  52  75  99 127 163 200 240 286
#     4   9  18  33  52  75 102 131 160 193 240 288
#     4  12  24  34  46  68  98 130 164 206 255 302
#
# _framework density 17.042653999999999
#
# number of rings (size 3 to 8) (size 9 to 14) (size 15 to 20)
#    0.000    2.615    0.769    2.538    0.000    4.308 
#    0.000    1.538    0.000    0.923    0.000    6.462 
#    0.000    0.000    0.000    0.000    0.000    0.000 
#
# Total GULP energy -644645.257583 kJ/mol
# GULP energy per Si atom -12397.024184 kJ/mol
# Density = 1.700386 g / cm^3
# Si number density = 17.042654 Si / 1000 Ang^3
#
#
#
# Elastic Constant Matrix: (Units=GPa)
#
#
# Indices 1 2 3 4 5 6 
#
# 1 54.3588 36.4339 55.7369 0.0000 0.0000 0.0000
# 2 36.4339 79.3161 71.1998 0.0000 0.0000 0.0000
# 3 55.7369 71.1998 164.6704 0.0000 0.0000 0.0000
# 4 0.0000 0.0000 0.0000 35.3824 0.0000 0.0000
# 5 0.0000 0.0000 0.0000 0.0000 18.2835 0.0000
# 6 0.0000 0.0000 0.0000 0.0000 0.0000 18.0553
#
#
#
# Elastic Compliance Matrix: (Units=1/GPa)
#
#
# Indices 1 2 3 4 5 6 
#
# 1 0.030904 -0.007854 -0.007064 0.000000 0.000000 0.000000
# 2 -0.007854 0.022602 -0.007114 0.000000 0.000000 0.000000
# 3 -0.007064 -0.007114 0.011540 0.000000 0.000000 0.000000
# 4 0.000000 0.000000 0.000000 0.028263 0.000000 0.000000
# 5 0.000000 0.000000 0.000000 0.000000 0.054694 0.000000
# 6 0.000000 0.000000 0.000000 0.000000 0.000000 0.055386
#
#
# Mechanical properties :
#
#
# Convention : Reuss Voigt Hill
#
# Bulk Modulus (GPa) = 47.66379 69.45404 58.55892
# Shear Modulus (GPa) = 19.65053 23.34255 21.49654
#
# Velocity S-wave (km/s) = 3.39930 3.70490 3.55538
# Velocity P-wave (km/s) = 6.59053 7.69046 7.16164
#
# Compressibility (1/GPa) = 0.02098029
#
# Stress axis : x y z
#
# Youngs Moduli (GPa) = 32.35830 44.24443 86.65751
#
# Poissons Ratio (x) = 0.34752 0.61216
# Poissons Ratio (y) = 0.25416 0.61648
# Poissons Ratio (z) = 0.22858 0.31475
#
# Static dielectric constant tensor:
#      x y z
#    x 3.004370 0.000000 0.000000 
#    y 0.000000 3.249290 0.000000 
#    z 0.000000 0.000000 3.392910 
# 
# 
# High freq. dielectric constant tensor:
#      x y z
#    x 1.624340 0.000000 0.000000 
#    y 0.000000 1.657430 0.000000 
#    z 0.000000 0.000000 1.667270 
# 
# From -- ./inp_files/68673.got.cif
#   From: 2010.03.12/outbox.cif.g09.slc.cpg/sg74_35_cif.got.tgz:68673.got - 2010.04.16 15:46:19.
