data_PCOD8299273
_publ_section_title
;
Structure prediction by ZEFSAII (Michael W. Deem and Ramdas Pophale) SiO2 
 PCOD8299273
Probable space group: I M M A
;
_chemical_formula_sum "Si O2"
_cell_formula_units_Z 64
_cell_length_a 9.350591
_cell_length_b 13.692408
_cell_length_c 25.390249
_cell_angle_alpha 90.000000
_cell_angle_beta 90.000000
_cell_angle_gamma 90.000000
_cell_volume 3250.767077
_symmetry_space_group_name_H-M "I M M A"
_symmetry_group_IT_number 74
_symmetry_cell_setting 'orthorhombic'
loop_
_space_group_symop_operation_xyz
x,y,z
-x,1/2-y,z
x,-y,-z
-x,1/2+y,-z
-x,-y,-z
x,1/2+y,-z
-x,y,z
x,1/2-y,z
1/2+x,1/2+y,1/2+z
1/2-x,-y,1/2+z
1/2+x,1/2-y,1/2-z
1/2-x,y,1/2-z
1/2-x,1/2-y,1/2-z
1/2+x,y,1/2-z
1/2-x,1/2+y,1/2+z
1/2+x,-y,1/2+z
loop_
_atom_site_type_symbol
_atom_site_label
_atom_site_fract_x
_atom_site_fract_y
_atom_site_fract_z
Si Si1 0.669025 0.750000 0.912775
Si Si2 0.250000 0.578698 0.750000
Si Si3 0.672553 0.750000 0.305604
Si Si4 0.669616 0.544453 0.946621
Si Si5 0.851160 0.750000 0.814485
Si Si6 0.835762 0.064768 0.658986
O O1 0.500000 0.750000 0.910727
O O2 0.728397 0.654898 0.942577
O O3 0.715339 0.750000 0.852085
O O4 0.141665 0.651893 0.779226
O O5 0.170788 0.509882 0.707757
O O6 0.500000 0.750000 0.299949
O O7 0.750000 0.750000 0.250000
O O8 0.725515 0.846150 0.335697
O O9 0.500000 0.545123 0.950480
O O10 0.716378 0.485902 0.894820
O O11 0.736816 0.500000 0.000000
O O12 0.000000 0.750000 0.847145
O O13 0.000000 0.102037 0.654804
#
# Coordination Sequence:
#
# PCOD8299273 Si02
#       6
#     8   8   8  16   8  16
#     4  10  19  36  59  86 119 154 197 247 294 344
#     4  11  22  35  58  90 124 159 190 247 292 362
#     4  12  26  41  60  87 122 163 207 253 305 364
#     4   9  19  36  61  91 119 154 201 253 301 348
#     4  11  23  35  55  90 127 162 194 229 292 364
#     4  11  22  39  63  90 120 157 202 253 306 360
#
# _framework density 19.687660999999999
#
# number of rings (size 3 to 8) (size 9 to 14) (size 15 to 20)
#    0.000    1.500    3.750    1.875    0.000    4.000 
#    0.000    3.750    0.000    4.500    0.000    0.000 
#    0.000    0.000    0.000    0.000    0.000    0.000 
#
# Total GULP energy -396608.657190 kJ/mol
# GULP energy per Si atom -12394.020537 kJ/mol
# Density = 1.964285 g / cm^3
# Si number density = 19.687661 Si / 1000 Ang^3
#
#
#
# Elastic Constant Matrix: (Units=GPa)
#
#
# Indices 1 2 3 4 5 6 
#
# 1 80.4049 46.5387 25.7915 0.0000 0.0000 0.0000
# 2 46.5387 175.6771 81.4729 0.0000 0.0000 0.0000
# 3 25.7915 81.4729 155.5621 0.0000 0.0000 0.0000
# 4 0.0000 0.0000 0.0000 25.7430 0.0000 0.0000
# 5 0.0000 0.0000 0.0000 0.0000 19.6132 0.0000
# 6 0.0000 0.0000 0.0000 0.0000 0.0000 80.0278
#
#
#
# Elastic Compliance Matrix: (Units=1/GPa)
#
#
# Indices 1 2 3 4 5 6 
#
# 1 0.014722 -0.003656 -0.000526 0.000000 0.000000 0.000000
# 2 -0.003656 0.008426 -0.003807 0.000000 0.000000 0.000000
# 3 -0.000526 -0.003807 0.008509 0.000000 0.000000 0.000000
# 4 0.000000 0.000000 0.000000 0.038846 0.000000 0.000000
# 5 0.000000 0.000000 0.000000 0.000000 0.050986 0.000000
# 6 0.000000 0.000000 0.000000 0.000000 0.000000 0.012496
#
#
# Mechanical properties :
#
#
# Convention : Reuss Voigt Hill
#
# Bulk Modulus (GPa) = 63.77761 79.91670 71.84716
# Shear Modulus (GPa) = 32.21868 42.26620 37.24244
#
# Velocity S-wave (km/s) = 4.04975 4.63842 4.35404
# Velocity P-wave (km/s) = 7.37104 8.32869 7.86446
#
# Compressibility (1/GPa) = 0.01567948
#
# Stress axis : x y z
#
# Youngs Moduli (GPa) = 67.92589 118.67562 117.51770
#
# Poissons Ratio (x) = 0.43388 0.06182
# Poissons Ratio (y) = 0.24834 0.44739
# Poissons Ratio (z) = 0.03573 0.45180
#
# Static dielectric constant tensor:
#      x y z
#    x 3.220040 0.000000 0.000000 
#    y 0.000000 3.938900 0.000000 
#    z 0.000000 0.000000 3.714910 
# 
# 
# High freq. dielectric constant tensor:
#      x y z
#    x 1.734410 0.000000 0.000000 
#    y 0.000000 1.785810 0.000000 
#    z 0.000000 0.000000 1.762560 
# 
# From -- ./inp_files/56489.got.cif
#   From: 2010.03.12/outbox.cif.g09.slc.cpg/sg74_29_cif.got.tgz:56489.got - 2010.04.16 15:46:19.
