data_PCOD8299848
_publ_section_title
;
Structure prediction by ZEFSAII (Michael W. Deem and Ramdas Pophale) SiO2 
 PCOD8299848
Probable space group: I M M A
;
_chemical_formula_sum "Si O2"
_cell_formula_units_Z 96
_cell_length_a 23.695821
_cell_length_b 9.054050
_cell_length_c 24.316846
_cell_angle_alpha 90.000000
_cell_angle_beta 90.000000
_cell_angle_gamma 90.000000
_cell_volume 5217.012693
_symmetry_space_group_name_H-M "I M M A"
_symmetry_group_IT_number 74
_symmetry_cell_setting 'orthorhombic'
loop_
_space_group_symop_operation_xyz
x,y,z
-x,1/2-y,z
x,-y,-z
-x,1/2+y,-z
-x,-y,-z
x,1/2+y,-z
-x,y,z
x,1/2-y,z
1/2+x,1/2+y,1/2+z
1/2-x,-y,1/2+z
1/2+x,1/2-y,1/2-z
1/2-x,y,1/2-z
1/2-x,1/2-y,1/2-z
1/2+x,y,1/2-z
1/2-x,1/2+y,1/2+z
1/2+x,-y,1/2+z
loop_
_atom_site_type_symbol
_atom_site_label
_atom_site_fract_x
_atom_site_fract_y
_atom_site_fract_z
Si Si1 0.650275 0.919819 0.555418
Si Si2 0.934291 0.918592 0.130728
Si Si3 0.231706 0.081345 0.154363
Si Si4 0.627866 0.575679 0.722711
Si Si5 0.564771 0.924353 0.943462
Si Si6 0.355999 0.924299 0.846003
O O1 0.635503 0.750000 0.543882
O O2 0.703691 0.936445 0.595058
O O3 0.668038 0.000000 0.500000
O O4 0.595507 0.995614 0.581270
O O5 0.913199 0.750000 0.131686
O O6 0.000000 0.929290 0.119305
O O7 0.920863 0.993020 0.189325
O O8 0.243083 0.250000 0.170252
O O9 0.189395 0.017732 0.201278
O O10 0.293135 0.003259 0.151920
O O11 0.623053 0.750000 0.710278
O O12 0.618167 0.537651 0.786421
O O13 0.500000 0.965843 0.929870
O O14 0.572018 0.750000 0.950389
O O15 0.603599 0.988228 0.893885
O O16 0.584587 0.000000 0.000000
O O17 0.352401 0.750000 0.854568
#
# Coordination Sequence:
#
# PCOD8299848 Si02
#       6
#    16  16  16  16  16  16
#     4  10  20  34  53  75 100 131 167 208 251 295
#     4  10  21  36  52  71  99 134 168 204 248 297
#     4   8  15  28  47  73 101 128 158 194 240 289
#     4   9  17  30  51  76 100 127 160 201 246 291
#     4   9  18  32  48  67  93 125 160 199 241 281
#     4   9  16  28  50  76  99 127 165 202 236 288
#
# _framework density 18.401335
#
# number of rings (size 3 to 8) (size 9 to 14) (size 15 to 20)
#    0.000    2.833    0.000    2.500    0.000    5.000 
#    0.000    2.500    0.000   15.000    0.000    0.000 
#    0.000    0.000    0.000    0.000    0.000    0.000 
#
# Total GULP energy -595046.971800 kJ/mol
# GULP energy per Si atom -12396.811913 kJ/mol
# Density = 1.835945 g / cm^3
# Si number density = 18.401335 Si / 1000 Ang^3
#
#
#
# Elastic Constant Matrix: (Units=GPa)
#
#
# Indices 1 2 3 4 5 6 
#
# 1 53.9890 18.0071 23.7978 0.0000 0.0000 0.0000
# 2 18.0071 59.6315 27.8617 0.0000 0.0000 0.0000
# 3 23.7978 27.8617 114.7823 0.0000 0.0000 0.0000
# 4 0.0000 0.0000 0.0000 28.6933 0.0000 0.0000
# 5 0.0000 0.0000 0.0000 0.0000 21.1047 0.0000
# 6 0.0000 0.0000 0.0000 0.0000 0.0000 13.1698
#
#
#
# Elastic Compliance Matrix: (Units=1/GPa)
#
#
# Indices 1 2 3 4 5 6 
#
# 1 0.021633 -0.005005 -0.003270 0.000000 0.000000 0.000000
# 2 -0.005005 0.020073 -0.003835 0.000000 0.000000 0.000000
# 3 -0.003270 -0.003835 0.010321 0.000000 0.000000 0.000000
# 4 0.000000 0.000000 0.000000 0.034851 0.000000 0.000000
# 5 0.000000 0.000000 0.000000 0.000000 0.047383 0.000000
# 6 0.000000 0.000000 0.000000 0.000000 0.000000 0.075932
#
#
# Mechanical properties :
#
#
# Convention : Reuss Voigt Hill
#
# Bulk Modulus (GPa) = 35.96179 40.85955 38.41067
# Shear Modulus (GPa) = 20.51865 23.17596 21.84731
#
# Velocity S-wave (km/s) = 3.34288 3.55275 3.44941
# Velocity P-wave (km/s) = 5.87241 6.25158 6.06496
#
# Compressibility (1/GPa) = 0.02780729
#
# Stress axis : x y z
#
# Youngs Moduli (GPa) = 46.22567 49.81912 96.88962
#
# Poissons Ratio (x) = 0.24932 0.31687
# Poissons Ratio (y) = 0.23134 0.37155
# Poissons Ratio (z) = 0.15118 0.19104
#
# Static dielectric constant tensor:
#      x y z
#    x 3.474800 0.000000 0.000000 
#    y 0.000000 3.138620 0.000000 
#    z 0.000000 0.000000 3.468400 
# 
# 
# High freq. dielectric constant tensor:
#      x y z
#    x 1.712960 0.000000 0.000000 
#    y 0.000000 1.677330 0.000000 
#    z 0.000000 0.000000 1.720900 
# 
# From -- ./inp_files/55097.got.cif
#   From: 2010.03.12/outbox.cif.g09.slc.cpg/sg74_28_cif.got.tgz:55097.got - 2010.04.16 15:46:19.
