data_PCOD8299923
_publ_section_title
;
Structure prediction by ZEFSAII (Michael W. Deem and Ramdas Pophale) SiO2 
 PCOD8299923
Probable space group: I M M A
;
_chemical_formula_sum "Si O2"
_cell_formula_units_Z 96
_cell_length_a 9.002085
_cell_length_b 27.364375
_cell_length_c 20.563150
_cell_angle_alpha 90.000000
_cell_angle_beta 90.000000
_cell_angle_gamma 90.000000
_cell_volume 5065.452955
_symmetry_space_group_name_H-M "I M M A"
_symmetry_group_IT_number 74
_symmetry_cell_setting 'orthorhombic'
loop_
_space_group_symop_operation_xyz
x,y,z
-x,1/2-y,z
x,-y,-z
-x,1/2+y,-z
-x,-y,-z
x,1/2+y,-z
-x,y,z
x,1/2-y,z
1/2+x,1/2+y,1/2+z
1/2-x,-y,1/2+z
1/2+x,1/2-y,1/2-z
1/2-x,y,1/2-z
1/2-x,1/2-y,1/2-z
1/2+x,y,1/2-z
1/2-x,1/2+y,1/2+z
1/2+x,-y,1/2+z
loop_
_atom_site_type_symbol
_atom_site_label
_atom_site_fract_x
_atom_site_fract_y
_atom_site_fract_z
Si Si1 0.174561 0.306198 0.815240
Si Si2 0.825882 0.645541 0.683488
Si Si3 0.825915 0.975274 0.067957
Si Si4 0.328430 0.806779 0.564247
Si Si5 0.676007 0.863756 0.439010
Si Si6 0.325421 0.966832 0.816997
O O1 0.217198 0.250000 0.827131
O O2 0.250000 0.326493 0.750000
O O3 0.240120 0.336704 0.875530
O O4 0.000000 0.313542 0.807844
O O5 0.750000 0.662669 0.750000
O O6 0.766422 0.680111 0.627059
O O7 0.784845 0.589382 0.667920
O O8 0.000000 0.653131 0.691055
O O9 0.772083 0.919575 0.062759
O O10 0.000000 0.979582 0.083744
O O11 0.735351 0.000765 0.124745
O O12 0.785594 0.000000 0.000000
O O13 0.500000 0.820113 0.577697
O O14 0.309750 0.750000 0.547396
O O15 0.262975 0.837659 0.503825
O O16 0.500000 0.858879 0.439288
O O17 0.500000 0.974822 0.810041
O O18 0.250000 0.984002 0.750000
#
# Coordination Sequence:
#
# PCOD8299923 Si02
#       6
#    16  16  16  16  16  16
#     4   9  17  31  51  73  99 132 169 209 252 300
#     4  10  21  37  57  80 107 140 176 217 265 316
#     4  10  20  34  54  79 108 142 177 216 263 315
#     4  10  20  35  57  82 107 139 179 221 264 312
#     4   9  18  33  53  77 105 138 176 214 256 310
#     4  10  21  37  57  80 107 140 179 222 268 320
#
# _framework density 18.951908
#
# number of rings (size 3 to 8) (size 9 to 14) (size 15 to 20)
#    0.000    2.333    0.000    2.500    0.000    7.000 
#    0.000    4.167    0.000    2.000    0.000    0.000 
#    0.000    0.000    0.000    0.000    0.000    0.000 
#
# Total GULP energy -595373.077430 kJ/mol
# GULP energy per Si atom -12403.605780 kJ/mol
# Density = 1.890877 g / cm^3
# Si number density = 18.951908 Si / 1000 Ang^3
#
#
#
# Elastic Constant Matrix: (Units=GPa)
#
#
# Indices 1 2 3 4 5 6 
#
# 1 55.3185 31.0465 44.6049 -0.0001 0.0000 0.0000
# 2 31.0465 87.8161 59.5448 0.0000 0.0000 0.0000
# 3 44.6049 59.5448 148.0749 -0.0005 0.0001 0.0001
# 4 -0.0001 0.0000 -0.0005 40.0609 0.0000 0.0000
# 5 0.0000 0.0000 0.0001 0.0000 34.8925 -0.0001
# 6 0.0000 0.0000 0.0001 0.0000 -0.0001 22.7078
#
#
#
# Elastic Compliance Matrix: (Units=1/GPa)
#
#
# Indices 1 2 3 4 5 6 
#
# 1 0.025516 -0.005237 -0.005580 0.000000 0.000000 0.000000
# 2 -0.005237 0.016731 -0.005151 0.000000 0.000000 0.000000
# 3 -0.005580 -0.005151 0.010505 0.000000 0.000000 0.000000
# 4 0.000000 0.000000 0.000000 0.024962 0.000000 0.000000
# 5 0.000000 0.000000 0.000000 0.000000 0.028659 0.000000
# 6 0.000000 0.000000 0.000000 0.000000 0.000000 0.044038
#
#
# Mechanical properties :
#
#
# Convention : Reuss Voigt Hill
#
# Bulk Modulus (GPa) = 48.03786 62.40020 55.21903
# Shear Modulus (GPa) = 26.41497 29.93313 28.17405
#
# Velocity S-wave (km/s) = 3.73740 3.97851 3.85984
# Velocity P-wave (km/s) = 6.63524 7.35539 7.00458
#
# Compressibility (1/GPa) = 0.02081691
#
# Stress axis : x y z
#
# Youngs Moduli (GPa) = 39.19129 59.76809 95.18891
#
# Poissons Ratio (x) = 0.31301 0.53117
# Poissons Ratio (y) = 0.20525 0.49027
# Poissons Ratio (z) = 0.21870 0.30784
#
# Static dielectric constant tensor:
#      x y z
#    x 3.243910 0.000000 0.000000 
#    y 0.000000 3.570000 0.000020 
#    z 0.000000 0.000020 4.253420 
# 
# 
# High freq. dielectric constant tensor:
#      x y z
#    x 1.714950 0.000000 0.000000 
#    y 0.000000 1.738480 0.000000 
#    z 0.000000 0.000000 1.751760 
# 
# From -- ./inp_files/41629.got.cif
#   From: 2010.03.12/outbox.cif.g09.slc.cpg/sg74_21_cif.got.tgz:41629.got - 2010.04.16 15:46:19.
