data_PCOD8299780
_publ_section_title
;
Structure prediction by ZEFSAII (Michael W. Deem and Ramdas Pophale) SiO2 
 PCOD8299780
Probable space group: I M M A
;
_chemical_formula_sum "Si O2"
_cell_formula_units_Z 88
_cell_length_a 22.429441
_cell_length_b 8.975289
_cell_length_c 24.585308
_cell_angle_alpha 90.000000
_cell_angle_beta 90.000000
_cell_angle_gamma 90.000000
_cell_volume 4949.285934
_symmetry_space_group_name_H-M "I M M A"
_symmetry_group_IT_number 74
_symmetry_cell_setting 'orthorhombic'
loop_
_space_group_symop_operation_xyz
x,y,z
-x,1/2-y,z
x,-y,-z
-x,1/2+y,-z
-x,-y,-z
x,1/2+y,-z
-x,y,z
x,1/2-y,z
1/2+x,1/2+y,1/2+z
1/2-x,-y,1/2+z
1/2+x,1/2-y,1/2-z
1/2-x,y,1/2-z
1/2-x,1/2-y,1/2-z
1/2+x,y,1/2-z
1/2-x,1/2+y,1/2+z
1/2+x,-y,1/2+z
loop_
_atom_site_type_symbol
_atom_site_label
_atom_site_fract_x
_atom_site_fract_y
_atom_site_fract_z
Si Si1 0.929985 0.920912 0.729806
Si Si2 0.885390 0.574450 0.373223
Si Si3 0.000000 0.074579 0.558285
Si Si4 0.933762 0.427143 0.148687
Si Si5 0.152581 0.075108 0.055453
Si Si6 0.710288 0.574892 0.944112
O O1 0.910427 0.750000 0.720622
O O2 0.913852 0.975711 0.790748
O O3 0.000000 0.938785 0.719600
O O4 0.894233 0.026627 0.689017
O O5 0.875720 0.750000 0.376311
O O6 0.941961 0.522000 0.408686
O O7 0.826876 0.491947 0.394636
O O8 0.000000 0.250000 0.550085
O O9 0.000000 0.000000 0.500000
O O10 0.935517 0.250000 0.147034
O O11 0.887019 0.490337 0.104767
O O12 0.000000 0.489368 0.135422
O O13 0.143306 0.250000 0.048971
O O14 0.221049 0.035062 0.067590
O O15 0.130416 0.000000 0.000000
O O16 0.699285 0.750000 0.948849
O O17 0.688414 0.500000 0.000000
#
# Coordination Sequence:
#
# PCOD8299780 Si02
#       6
#    16  16   8  16  16  16
#     4   9  17  31  52  75  98 130 170 208 248 296
#     4  11  21  34  50  71  99 132 168 208 255 300
#     4  10  22  34  46  68  96 124 157 202 251 294
#     4   8  15  30  53  79 104 131 166 206 248 295
#     4   9  18  33  53  76 104 134 165 205 249 298
#     4  10  20  34  51  72  98 133 172 207 249 298
#
# _framework density 17.780342999999998
#
# number of rings (size 3 to 8) (size 9 to 14) (size 15 to 20)
#    0.000    2.545    0.909    2.727    0.000    4.000 
#    0.000    1.818    0.000    6.545    0.000    0.000 
#    0.000    0.000    0.000    0.000    0.000    0.000 
#
# Total GULP energy -545642.629470 kJ/mol
# GULP energy per Si atom -12400.968852 kJ/mol
# Density = 1.773987 g / cm^3
# Si number density = 17.780343 Si / 1000 Ang^3
#
#
#
# Elastic Constant Matrix: (Units=GPa)
#
#
# Indices 1 2 3 4 5 6 
#
# 1 85.7083 32.9760 77.5630 0.0000 0.0000 0.0000
# 2 32.9760 47.9592 41.3899 0.0000 0.0000 0.0000
# 3 77.5630 41.3899 156.5018 0.0000 0.0000 0.0000
# 4 0.0000 0.0000 0.0000 29.8582 0.0000 0.0000
# 5 0.0000 0.0000 0.0000 0.0000 32.7811 0.0000
# 6 0.0000 0.0000 0.0000 0.0000 0.0000 18.1557
#
#
#
# Elastic Compliance Matrix: (Units=1/GPa)
#
#
# Indices 1 2 3 4 5 6 
#
# 1 0.023217 -0.007818 -0.009439 0.000000 0.000000 0.000000
# 2 -0.007818 0.029650 -0.003967 0.000000 0.000000 0.000000
# 3 -0.009439 -0.003967 0.012117 0.000000 0.000000 0.000000
# 4 0.000000 0.000000 0.000000 0.033492 0.000000 0.000000
# 5 0.000000 0.000000 0.000000 0.000000 0.030505 0.000000
# 6 0.000000 0.000000 0.000000 0.000000 0.000000 0.055079
#
#
# Mechanical properties :
#
#
# Convention : Reuss Voigt Hill
#
# Bulk Modulus (GPa) = 44.37222 66.00299 55.18761
# Shear Modulus (GPa) = 21.36566 25.37503 23.37035
#
# Velocity S-wave (km/s) = 3.47024 3.78185 3.62939
# Velocity P-wave (km/s) = 6.40833 7.50145 6.97633
#
# Compressibility (1/GPa) = 0.02253662
#
# Stress axis : x y z
#
# Youngs Moduli (GPa) = 43.07116 33.72683 82.52930
#
# Poissons Ratio (x) = 0.26367 0.77900
# Poissons Ratio (y) = 0.33672 0.32739
# Poissons Ratio (z) = 0.40655 0.13379
#
# Static dielectric constant tensor:
#      x y z
#    x 3.359370 0.000000 0.000000 
#    y 0.000000 3.088250 0.000000 
#    z 0.000000 0.000000 3.455380 
# 
# 
# High freq. dielectric constant tensor:
#      x y z
#    x 1.678730 0.000000 0.000000 
#    y 0.000000 1.670900 0.000000 
#    z 0.000000 0.000000 1.693620 
# 
# From -- ./inp_files/48767.got.cif
#   From: 2010.03.12/outbox.cif.g09.slc.cpg/sg74_25_cif.got.tgz:48767.got - 2010.04.16 15:46:19.
