data_PCOD8299457
_publ_section_title
;
Structure prediction by ZEFSAII (Michael W. Deem and Ramdas Pophale) SiO2 
 PCOD8299457
Probable space group: I M M A
;
_chemical_formula_sum "Si O2"
_cell_formula_units_Z 96
_cell_length_a 8.675487
_cell_length_b 23.251170
_cell_length_c 24.469153
_cell_angle_alpha 90.000000
_cell_angle_beta 90.000000
_cell_angle_gamma 90.000000
_cell_volume 4935.800656
_symmetry_space_group_name_H-M "I M M A"
_symmetry_group_IT_number 74
_symmetry_cell_setting 'orthorhombic'
loop_
_space_group_symop_operation_xyz
x,y,z
-x,1/2-y,z
x,-y,-z
-x,1/2+y,-z
-x,-y,-z
x,1/2+y,-z
-x,y,z
x,1/2-y,z
1/2+x,1/2+y,1/2+z
1/2-x,-y,1/2+z
1/2+x,1/2-y,1/2-z
1/2-x,y,1/2-z
1/2-x,1/2-y,1/2-z
1/2+x,y,1/2-z
1/2-x,1/2+y,1/2+z
1/2+x,-y,1/2+z
loop_
_atom_site_type_symbol
_atom_site_label
_atom_site_fract_x
_atom_site_fract_y
_atom_site_fract_z
Si Si1 0.330774 0.683601 0.197919
Si Si2 0.822606 0.183248 0.393321
Si Si3 0.318057 0.978250 0.191063
Si Si4 0.678328 0.116237 0.613744
Si Si5 0.319107 0.100422 0.307525
Si Si6 0.319663 0.684419 0.491728
O O1 0.500000 0.654802 0.189203
O O2 0.353865 0.750000 0.208594
O O3 0.250000 0.653975 0.250000
O O4 0.217669 0.673908 0.147249
O O5 0.792104 0.250000 0.381479
O O6 0.715604 0.148018 0.352598
O O7 0.777300 0.167889 0.455116
O O8 0.000000 0.166558 0.384024
O O9 0.500000 0.982031 0.196799
O O10 0.250000 0.958990 0.250000
O O11 0.275210 0.935083 0.141424
O O12 0.253699 0.040156 0.173844
O O13 0.500000 0.099958 0.617198
O O14 0.725204 0.135004 0.552378
O O15 0.500000 0.092201 0.300891
O O16 0.250000 0.121323 0.250000
O O17 0.500000 0.680824 0.505330
O O18 0.278890 0.750000 0.472457
#
# Coordination Sequence:
#
# PCOD8299457 Si02
#       6
#    16  16  16  16  16  16
#     4  10  20  32  46  67  97 133 176 229 287 339
#     4  10  21  38  61  89 120 151 183 222 271 328
#     4  11  22  38  58  81 112 148 189 235 284 336
#     4  11  21  34  53  77 106 143 189 234 279 333
#     4  11  22  39  63  89 118 149 183 224 273 330
#     4   9  19  36  57  81 111 149 190 233 282 333
#
# _framework density 19.449732999999998
#
# number of rings (size 3 to 8) (size 9 to 14) (size 15 to 20)
#    0.000    1.667    0.000    6.500    0.000    4.333 
#    0.000    2.500    0.000    5.000    0.000    0.000 
#    0.000    0.000    0.000    0.000    0.000    0.000 
#
# Total GULP energy -595007.290093 kJ/mol
# GULP energy per Si atom -12395.985210 kJ/mol
# Density = 1.940546 g / cm^3
# Si number density = 19.449733 Si / 1000 Ang^3
#
#
#
# Elastic Constant Matrix: (Units=GPa)
#
#
# Indices 1 2 3 4 5 6 
#
# 1 120.5728 47.3835 52.7546 0.0000 0.0000 0.0000
# 2 47.3835 87.9860 60.4692 0.0000 0.0000 0.0000
# 3 52.7546 60.4692 104.2775 0.0000 0.0000 0.0000
# 4 0.0000 0.0000 0.0000 35.7859 0.0000 0.0000
# 5 0.0000 0.0000 0.0000 0.0000 34.7392 0.0000
# 6 0.0000 0.0000 0.0000 0.0000 0.0000 28.7042
#
#
#
# Elastic Compliance Matrix: (Units=1/GPa)
#
#
# Indices 1 2 3 4 5 6 
#
# 1 0.011292 -0.003583 -0.003635 0.000000 0.000000 0.000000
# 2 -0.003583 0.020033 -0.009804 0.000000 0.000000 0.000000
# 3 -0.003635 -0.009804 0.017114 0.000000 0.000000 0.000000
# 4 0.000000 0.000000 0.000000 0.027944 0.000000 0.000000
# 5 0.000000 0.000000 0.000000 0.000000 0.028786 0.000000
# 6 0.000000 0.000000 0.000000 0.000000 0.000000 0.034838
#
#
# Mechanical properties :
#
#
# Convention : Reuss Voigt Hill
#
# Bulk Modulus (GPa) = 69.46951 70.45010 69.95981
# Shear Modulus (GPa) = 27.95629 29.99445 28.97537
#
# Velocity S-wave (km/s) = 3.79537 3.93129 3.86392
# Velocity P-wave (km/s) = 7.41629 7.54367 7.48025
#
# Compressibility (1/GPa) = 0.01439480
#
# Stress axis : x y z
#
# Youngs Moduli (GPa) = 88.55591 49.91738 58.43113
#
# Poissons Ratio (x) = 0.17886 0.21240
# Poissons Ratio (y) = 0.31730 0.57287
# Poissons Ratio (z) = 0.32191 0.48940
#
# Static dielectric constant tensor:
#      x y z
#    x 3.779160 0.000000 0.000000 
#    y 0.000000 3.453690 0.000000 
#    z 0.000000 0.000000 3.472930 
# 
# 
# High freq. dielectric constant tensor:
#      x y z
#    x 1.773140 0.000000 0.000000 
#    y 0.000000 1.750220 0.000000 
#    z 0.000000 0.000000 1.749080 
# 
# From -- ./inp_files/57230.got.cif
#   From: 2010.03.12/outbox.cif.g09.slc.cpg/sg74_29_cif.got.tgz:57230.got - 2010.04.16 15:46:19.
