data_PCOD8299799
_publ_section_title
;
Structure prediction by ZEFSAII (Michael W. Deem and Ramdas Pophale) SiO2 
 PCOD8299799
Probable space group: I M M A
;
_chemical_formula_sum "Si O2"
_cell_formula_units_Z 96
_cell_length_a 18.567598
_cell_length_b 9.186084
_cell_length_c 30.869039
_cell_angle_alpha 90.000000
_cell_angle_beta 90.000000
_cell_angle_gamma 90.000000
_cell_volume 5265.131794
_symmetry_space_group_name_H-M "I M M A"
_symmetry_group_IT_number 74
_symmetry_cell_setting 'orthorhombic'
loop_
_space_group_symop_operation_xyz
x,y,z
-x,1/2-y,z
x,-y,-z
-x,1/2+y,-z
-x,-y,-z
x,1/2+y,-z
-x,y,z
x,1/2-y,z
1/2+x,1/2+y,1/2+z
1/2-x,-y,1/2+z
1/2+x,1/2-y,1/2-z
1/2-x,y,1/2-z
1/2-x,1/2-y,1/2-z
1/2+x,y,1/2-z
1/2-x,1/2+y,1/2+z
1/2+x,-y,1/2+z
loop_
_atom_site_type_symbol
_atom_site_label
_atom_site_fract_x
_atom_site_fract_y
_atom_site_fract_z
Si Si1 0.417475 0.080074 0.042744
Si Si2 0.083559 0.918632 0.790740
Si Si3 0.083299 0.079803 0.043191
Si Si4 0.331915 0.422178 0.374044
Si Si5 0.916522 0.079713 0.703615
Si Si6 0.666737 0.578097 0.872154
O O1 0.500000 0.036788 0.052382
O O2 0.408934 0.250000 0.034330
O O3 0.370174 0.028623 0.083226
O O4 0.388500 0.000000 0.000000
O O5 0.101181 0.750000 0.781229
O O6 0.129224 0.981415 0.830933
O O7 0.000000 0.940145 0.802123
O O8 0.106910 0.011175 0.749205
O O9 0.097166 0.250000 0.036602
O O10 0.128959 0.015420 0.083266
O O11 0.000000 0.046056 0.052749
O O12 0.110115 0.000000 0.000000
O O13 0.340121 0.250000 0.374666
O O14 0.249348 0.471232 0.374136
O O15 0.900065 0.250000 0.704903
O O16 0.000000 0.046807 0.694166
O O17 0.870180 0.005717 0.666681
O O18 0.657866 0.750000 0.864468
#
# Coordination Sequence:
#
# PCOD8299799 Si02
#       6
#    16  16  16  16  16  16
#     4   9  18  32  50  71  94 123 160 200 241 285
#     4   9  17  32  55  77  96 126 169 209 243 285
#     4   9  17  31  51  74 101 133 170 210 249 291
#     4   9  18  32  51  75 101 131 167 206 247 291
#     4  10  21  36  53  74 100 129 162 203 250 296
#     4  10  20  34  52  74 101 132 166 203 244 295
#
# _framework density 18.233162
#
# number of rings (size 3 to 8) (size 9 to 14) (size 15 to 20)
#    0.000    2.667    0.000    1.500    0.000    5.667 
#    0.000    7.500    0.000    4.000    0.000    0.000 
#    0.000    0.000    0.000    0.000    0.000    0.000 
#
# Total GULP energy -595307.899038 kJ/mol
# GULP energy per Si atom -12402.247897 kJ/mol
# Density = 1.819166 g / cm^3
# Si number density = 18.233162 Si / 1000 Ang^3
#
#
#
# Elastic Constant Matrix: (Units=GPa)
#
#
# Indices 1 2 3 4 5 6 
#
# 1 111.4945 44.7499 107.9498 0.0000 0.0000 0.0000
# 2 44.7499 48.4260 63.3125 0.0000 0.0000 0.0000
# 3 107.9498 63.3125 204.8007 0.0000 0.0000 0.0000
# 4 0.0000 0.0000 0.0000 31.5654 0.0000 0.0000
# 5 0.0000 0.0000 0.0000 0.0000 3.4894 0.0000
# 6 0.0000 0.0000 0.0000 0.0000 0.0000 17.2643
#
#
#
# Elastic Compliance Matrix: (Units=1/GPa)
#
#
# Indices 1 2 3 4 5 6 
#
# 1 0.019957 -0.007870 -0.008086 0.000000 0.000000 0.000000
# 2 -0.007870 0.037761 -0.007525 0.000000 0.000000 0.000000
# 3 -0.008086 -0.007525 0.011472 0.000000 0.000000 0.000000
# 4 0.000000 0.000000 0.000000 0.031680 0.000000 0.000000
# 5 0.000000 0.000000 0.000000 0.000000 0.286586 0.000000
# 6 0.000000 0.000000 0.000000 0.000000 0.000000 0.057923
#
#
# Mechanical properties :
#
#
# Convention : Reuss Voigt Hill
#
# Bulk Modulus (GPa) = 44.99128 88.52728 66.75928
# Shear Modulus (GPa) = 10.00498 20.37775 15.19136
#
# Velocity S-wave (km/s) = 2.34503 3.34671 2.88960
# Velocity P-wave (km/s) = 5.66227 7.97447 6.91569
#
# Compressibility (1/GPa) = 0.02222653
#
# Stress axis : x y z
#
# Youngs Moduli (GPa) = 50.10773 26.48215 87.17233
#
# Poissons Ratio (x) = 0.20841 0.70491
# Poissons Ratio (y) = 0.39434 0.65601
# Poissons Ratio (z) = 0.40519 0.19929
#
# Static dielectric constant tensor:
#      x y z
#    x 3.410300 0.000000 0.000000 
#    y 0.000000 3.135630 0.000000 
#    z 0.000000 0.000000 3.577220 
# 
# 
# High freq. dielectric constant tensor:
#      x y z
#    x 1.703680 0.000000 0.000000 
#    y 0.000000 1.681520 0.000000 
#    z 0.000000 0.000000 1.721450 
# 
# From -- ./inp_files/68140.got.cif
#   From: 2010.03.12/outbox.cif.g09.slc.cpg/sg74_35_cif.got.tgz:68140.got - 2010.04.16 15:46:19.
