data_PCOD8299170
_publ_section_title
;
Structure prediction by ZEFSAII (Michael W. Deem and Ramdas Pophale) SiO2 
 PCOD8299170
Probable space group: I M M A
;
_chemical_formula_sum "Si O2"
_cell_formula_units_Z 96
_cell_length_a 10.533431
_cell_length_b 18.804027
_cell_length_c 22.533123
_cell_angle_alpha 90.000000
_cell_angle_beta 90.000000
_cell_angle_gamma 90.000000
_cell_volume 4463.156424
_symmetry_space_group_name_H-M "I M M A"
_symmetry_group_IT_number 74
_symmetry_cell_setting 'orthorhombic'
loop_
_space_group_symop_operation_xyz
x,y,z
-x,1/2-y,z
x,-y,-z
-x,1/2+y,-z
-x,-y,-z
x,1/2+y,-z
-x,y,z
x,1/2-y,z
1/2+x,1/2+y,1/2+z
1/2-x,-y,1/2+z
1/2+x,1/2-y,1/2-z
1/2-x,y,1/2-z
1/2-x,1/2-y,1/2-z
1/2+x,y,1/2-z
1/2-x,1/2+y,1/2+z
1/2+x,-y,1/2+z
loop_
_atom_site_type_symbol
_atom_site_label
_atom_site_fract_x
_atom_site_fract_y
_atom_site_fract_z
Si Si1 0.777542 0.434964 0.168965
Si Si2 0.238155 0.666797 0.465256
Si Si3 0.000000 0.381976 0.327085
Si Si4 0.142779 0.561664 0.959690
Si Si5 0.000000 0.170170 0.205750
Si Si6 0.250000 0.440461 0.750000
Si Si7 0.355451 0.830478 0.161400
Si Si8 0.000000 0.833668 0.537897
O O1 0.629480 0.425535 0.187109
O O2 0.771905 0.438552 0.098486
O O3 0.871909 0.370418 0.185383
O O4 0.821371 0.508067 0.202099
O O5 0.251409 0.750000 0.471655
O O6 0.357681 0.632024 0.498796
O O7 0.228371 0.646135 0.395693
O O8 0.121244 0.635219 0.503669
O O9 0.000000 0.320744 0.277025
O O10 0.000000 0.351057 0.392710
O O11 0.000000 0.546299 0.938737
O O12 0.200139 0.500000 0.000000
O O13 0.000000 0.250000 0.178160
O O14 0.342983 0.387063 0.785440
O O15 0.500000 0.829985 0.139358
O O16 0.317569 0.750000 0.182029
O O17 0.000000 0.750000 0.529854
#
# Coordination Sequence:
#
# PCOD8299170 Si02
#       8
#    16  16   8  16   8   8  16   8
#     4  12  26  44  68  99 133 177 234 277 339 406
#     4  10  20  40  66  98 130 164 211 269 330 399
#     4  12  23  44  66  97 138 166 230 285 331 393
#     4  11  24  43  63  92 133 174 216 274 335 401
#     4  12  27  48  68  94 138 185 230 281 336 403
#     4  12  25  42  67  92 138 180 224 278 341 404
#     4  10  22  41  69 101 134 173 224 281 343 405
#     4  10  19  34  65  97 128 161 196 264 335 384
#
# _framework density 21.509440999999999
#
# number of rings (size 3 to 8) (size 9 to 14) (size 15 to 20)
#    0.000    1.000    5.000    1.500    2.333    3.000 
#    0.000    1.667    0.000    1.000    0.000    0.000 
#    0.000    0.000    0.000    0.000    0.000    0.000 
#
# Total GULP energy -594751.478424 kJ/mol
# GULP energy per Si atom -12390.655800 kJ/mol
# Density = 2.146048 g / cm^3
# Si number density = 21.509441 Si / 1000 Ang^3
#
#
#
# Elastic Constant Matrix: (Units=GPa)
#
#
# Indices 1 2 3 4 5 6 
#
# 1 82.2612 38.5534 33.4779 0.0000 0.0000 0.0000
# 2 38.5534 119.3680 69.7945 0.0000 0.0000 0.0000
# 3 33.4779 69.7945 137.1273 0.0000 0.0000 0.0000
# 4 0.0000 0.0000 0.0000 42.8688 0.0000 0.0000
# 5 0.0000 0.0000 0.0000 0.0000 -13.4516 0.0000
# 6 0.0000 0.0000 0.0000 0.0000 0.0000 23.5256
#
#
#
# Elastic Compliance Matrix: (Units=1/GPa)
#
#
# Indices 1 2 3 4 5 6 
#
# 1 0.014584 -0.003742 -0.001656 0.000000 0.000000 0.000000
# 2 -0.003742 0.012887 -0.005646 0.000000 0.000000 0.000000
# 3 -0.001656 -0.005646 0.010570 0.000000 0.000000 0.000000
# 4 0.000000 0.000000 0.000000 0.023327 0.000000 0.000000
# 5 0.000000 0.000000 0.000000 0.000000 -0.074340 0.000000
# 6 0.000000 0.000000 0.000000 0.000000 0.000000 0.042507
#
#
# Mechanical properties :
#
#
# Convention : Reuss Voigt Hill
#
# Bulk Modulus (GPa) = 62.67959 69.15644 65.91802
# Shear Modulus (GPa) = 87.81139 23.71727 55.76433
#
# Velocity S-wave (km/s) = 6.39634 3.32421 5.09723
# Velocity P-wave (km/s) = 9.15176 6.85239 8.08424
#
# Compressibility (1/GPa) = 0.01595416
#
# Stress axis : x y z
#
# Youngs Moduli (GPa) = 68.56759 77.59697 94.60536
#
# Poissons Ratio (x) = 0.29038 0.15665
# Poissons Ratio (y) = 0.25659 0.53410
# Poissons Ratio (z) = 0.11354 0.43808
#
# Static dielectric constant tensor:
#      x y z
#    x 3.750800 0.000000 0.000000 
#    y 0.000000 3.787220 0.000000 
#    z 0.000000 0.000000 4.079440 
# 
# 
# High freq. dielectric constant tensor:
#      x y z
#    x 1.826800 0.000000 0.000000 
#    y 0.000000 1.838370 0.000000 
#    z 0.000000 0.000000 1.865900 
# 
# From -- ./inp_files/58921.got.cif
#   From: 2010.03.12/outbox.cif.g09.slc.cpg/sg74_30_cif.got.tgz:58921.got - 2010.04.16 15:46:19.
