data_PCOD8299798
_publ_section_title
;
Structure prediction by ZEFSAII (Michael W. Deem and Ramdas Pophale) SiO2 
 PCOD8299798
Probable space group: I M M A
;
_chemical_formula_sum "Si O2"
_cell_formula_units_Z 80
_cell_length_a 9.246054
_cell_length_b 26.516044
_cell_length_c 18.504464
_cell_angle_alpha 90.000000
_cell_angle_beta 90.000000
_cell_angle_gamma 90.000000
_cell_volume 4536.716765
_symmetry_space_group_name_H-M "I M M A"
_symmetry_group_IT_number 74
_symmetry_cell_setting 'orthorhombic'
loop_
_space_group_symop_operation_xyz
x,y,z
-x,1/2-y,z
x,-y,-z
-x,1/2+y,-z
-x,-y,-z
x,1/2+y,-z
-x,y,z
x,1/2-y,z
1/2+x,1/2+y,1/2+z
1/2-x,-y,1/2+z
1/2+x,1/2-y,1/2-z
1/2-x,y,1/2-z
1/2-x,1/2-y,1/2-z
1/2+x,y,1/2-z
1/2-x,1/2+y,1/2+z
1/2+x,-y,1/2+z
loop_
_atom_site_type_symbol
_atom_site_label
_atom_site_fract_x
_atom_site_fract_y
_atom_site_fract_z
Si Si1 0.332742 0.450965 0.043967
Si Si2 0.833415 0.346558 0.528898
Si Si3 0.167650 0.691364 0.319454
Si Si4 0.833308 0.194145 0.101114
Si Si5 0.828404 0.092673 0.176057
O O1 0.500000 0.454878 0.068748
O O2 0.232338 0.444447 0.114260
O O3 0.282832 0.500000 0.000000
O O4 0.308534 0.404708 0.989802
O O5 0.774704 0.337646 0.609714
O O6 0.751702 0.310370 0.473544
O O7 0.000000 0.330526 0.524513
O O8 0.202404 0.750000 0.330273
O O9 0.250000 0.669309 0.250000
O O10 0.000000 0.681101 0.306443
O O11 0.803692 0.250000 0.134310
O O12 0.785830 0.150763 0.157487
O O13 0.000000 0.186620 0.081679
O O14 0.750000 0.077958 0.250000
O O15 0.000000 0.085184 0.183655
#
# Coordination Sequence:
#
# PCOD8299798 Si02
#       5
#    16  16  16  16  16
#     4   9  18  34  55  75  96 124 158 198 245 292
#     4   9  17  30  48  69  93 122 158 198 238 285
#     4   9  17  28  42  62  89 120 152 186 226 273
#     4   9  18  31  47  70  99 129 161 197 237 283
#     4  10  20  34  52  74 101 131 163 199 240 287
#
# _framework density 17.633899
#
# number of rings (size 3 to 8) (size 9 to 14) (size 15 to 20)
#    0.000    2.800    0.000    1.200    0.000    3.600 
#    0.000    3.000    0.000    2.400    0.000    0.000 
#    0.000    0.000    0.000    0.000    0.000    0.000 
#
# Total GULP energy -495986.001486 kJ/mol
# GULP energy per Si atom -12399.650037 kJ/mol
# Density = 1.759376 g / cm^3
# Si number density = 17.633899 Si / 1000 Ang^3
#
#
#
# Elastic Constant Matrix: (Units=GPa)
#
#
# Indices 1 2 3 4 5 6 
#
# 1 62.6428 31.6399 57.2033 0.0000 0.0000 0.0000
# 2 31.6399 77.7578 42.3153 0.0001 0.0000 0.0000
# 3 57.2033 42.3153 141.7067 0.0002 0.0000 0.0000
# 4 0.0000 0.0001 0.0002 18.5351 0.0000 0.0000
# 5 0.0000 0.0000 0.0000 0.0000 33.7711 0.0000
# 6 0.0000 0.0000 0.0000 0.0000 0.0000 21.3350
#
#
#
# Elastic Compliance Matrix: (Units=1/GPa)
#
#
# Indices 1 2 3 4 5 6 
#
# 1 0.027551 -0.006159 -0.009282 0.000000 0.000000 0.000000
# 2 -0.006159 0.016733 -0.002510 0.000000 0.000000 0.000000
# 3 -0.009282 -0.002510 0.011553 0.000000 0.000000 0.000000
# 4 0.000000 0.000000 0.000000 0.053952 0.000000 0.000000
# 5 0.000000 0.000000 0.000000 0.000000 0.029611 0.000000
# 6 0.000000 0.000000 0.000000 0.000000 0.000000 0.046871
#
#
# Mechanical properties :
#
#
# Convention : Reuss Voigt Hill
#
# Bulk Modulus (GPa) = 50.16706 60.49161 55.32933
# Shear Modulus (GPa) = 21.85133 24.79149 23.32141
#
# Velocity S-wave (km/s) = 3.52400 3.75360 3.64061
# Velocity P-wave (km/s) = 6.71335 7.29141 7.00834
#
# Compressibility (1/GPa) = 0.01993340
#
# Stress axis : x y z
#
# Youngs Moduli (GPa) = 36.29672 59.76321 86.55412
#
# Poissons Ratio (x) = 0.36809 0.80342
# Poissons Ratio (y) = 0.22356 0.21728
# Poissons Ratio (z) = 0.33692 0.15002
#
# Static dielectric constant tensor:
#      x y z
#    x 3.254110 0.000000 0.000000 
#    y 0.000000 3.234710 0.000000 
#    z 0.000000 0.000000 3.302360 
# 
# 
# High freq. dielectric constant tensor:
#      x y z
#    x 1.679480 0.000000 0.000000 
#    y 0.000000 1.667520 0.000000 
#    z 0.000000 0.000000 1.679690 
# 
# From -- ./inp_files/39683.got.cif
#   From: 2010.03.12/outbox.cif.g09.slc.cpg/sg74_20_cif.got.tgz:39683.got - 2010.04.16 15:46:19.
