data_PCOD8299095
_publ_section_title
;
Structure prediction by ZEFSAII (Michael W. Deem and Ramdas Pophale) SiO2 
 PCOD8299095
Probable space group: I M M A
;
_chemical_formula_sum "Si O2"
_cell_formula_units_Z 96
_cell_length_a 19.778357
_cell_length_b 19.008156
_cell_length_c 12.762778
_cell_angle_alpha 90.000000
_cell_angle_beta 90.000000
_cell_angle_gamma 90.000000
_cell_volume 4798.167605
_symmetry_space_group_name_H-M "I M M A"
_symmetry_group_IT_number 74
_symmetry_cell_setting 'orthorhombic'
loop_
_space_group_symop_operation_xyz
x,y,z
-x,1/2-y,z
x,-y,-z
-x,1/2+y,-z
-x,-y,-z
x,1/2+y,-z
-x,y,z
x,1/2-y,z
1/2+x,1/2+y,1/2+z
1/2-x,-y,1/2+z
1/2+x,1/2-y,1/2-z
1/2-x,y,1/2-z
1/2-x,1/2-y,1/2-z
1/2+x,y,1/2-z
1/2-x,1/2+y,1/2+z
1/2+x,-y,1/2+z
loop_
_atom_site_type_symbol
_atom_site_label
_atom_site_fract_x
_atom_site_fract_y
_atom_site_fract_z
Si Si1 0.184644 0.533387 0.890174
Si Si2 0.663544 0.329000 0.037980
Si Si3 0.924341 0.830441 0.163448
Si Si4 0.923369 0.904193 0.380208
Si Si5 0.837192 0.969023 0.659078
Si Si6 0.183982 0.171605 0.010477
O O1 0.146662 0.515268 0.782100
O O2 0.261846 0.509655 0.874844
O O3 0.156842 0.500000 0.000000
O O4 0.173907 0.617557 0.894860
O O5 0.653905 0.250000 0.084700
O O6 0.608606 0.342128 0.948725
O O7 0.736752 0.334025 0.980307
O O8 0.652161 0.386839 0.129747
O O9 0.914444 0.750000 0.199892
O O10 0.916465 0.882127 0.260225
O O11 0.864641 0.851912 0.084291
O O12 0.000000 0.839773 0.113825
O O13 0.000000 0.913973 0.415262
O O14 0.886372 0.978441 0.403057
O O15 0.164644 0.250000 0.048468
#
# Coordination Sequence:
#
# PCOD8299095 Si02
#       6
#    16  16  16  16  16  16
#     4  10  19  34  56  81 109 141 179 220 267 321
#     4  10  21  36  54  79 109 142 182 224 269 321
#     4   9  18  33  54  82 113 143 177 219 269 323
#     4  11  22  36  54  77 108 145 184 227 275 324
#     4  10  21  35  54  79 108 142 179 224 270 316
#     4   9  18  33  54  80 109 140 177 221 267 320
#
# _framework density 20.007636999999999
#
# number of rings (size 3 to 8) (size 9 to 14) (size 15 to 20)
#    0.000    2.167    0.000    4.000    0.000    5.000 
#    0.000    6.667    0.000    3.000    0.000    2.333 
#    0.000    0.000    0.000    0.000    0.000    0.000 
#
# Total GULP energy -594756.797634 kJ/mol
# GULP energy per Si atom -12390.766617 kJ/mol
# Density = 1.996210 g / cm^3
# Si number density = 20.007637 Si / 1000 Ang^3
#
#
#
# Elastic Constant Matrix: (Units=GPa)
#
#
# Indices 1 2 3 4 5 6 
#
# 1 87.1122 36.1456 27.7394 0.0000 0.0000 0.0000
# 2 36.1456 101.0274 23.9160 0.0000 0.0000 0.0000
# 3 27.7394 23.9160 73.8839 0.0000 0.0000 0.0000
# 4 0.0000 0.0000 0.0000 26.5837 0.0000 0.0000
# 5 0.0000 0.0000 0.0000 0.0000 20.6453 0.0000
# 6 0.0000 0.0000 0.0000 0.0000 0.0000 25.9165
#
#
#
# Elastic Compliance Matrix: (Units=1/GPa)
#
#
# Indices 1 2 3 4 5 6 
#
# 1 0.014538 -0.004234 -0.004088 0.000000 0.000000 0.000000
# 2 -0.004234 0.011953 -0.002280 0.000000 0.000000 0.000000
# 3 -0.004088 -0.002280 0.015807 0.000000 0.000000 0.000000
# 4 0.000000 0.000000 0.000000 0.037617 0.000000 0.000000
# 5 0.000000 0.000000 0.000000 0.000000 0.048437 0.000000
# 6 0.000000 0.000000 0.000000 0.000000 0.000000 0.038585
#
#
# Mechanical properties :
#
#
# Convention : Reuss Voigt Hill
#
# Bulk Modulus (GPa) = 47.40243 48.62504 48.01374
# Shear Modulus (GPa) = 25.61853 26.24394 25.93123
#
# Velocity S-wave (km/s) = 3.58220 3.62566 3.60400
# Velocity P-wave (km/s) = 6.39165 6.47173 6.43181
#
# Compressibility (1/GPa) = 0.02109596
#
# Stress axis : x y z
#
# Youngs Moduli (GPa) = 68.78626 83.66343 63.26170
#
# Poissons Ratio (x) = 0.35420 0.25860
# Poissons Ratio (y) = 0.29122 0.14421
# Poissons Ratio (z) = 0.28118 0.19071
#
# Static dielectric constant tensor:
#      x y z
#    x 3.589600 0.000000 0.000000 
#    y 0.000000 3.767330 0.000000 
#    z 0.000000 0.000000 3.467950 
# 
# 
# High freq. dielectric constant tensor:
#      x y z
#    x 1.761540 0.000000 0.000000 
#    y 0.000000 1.797150 0.000000 
#    z 0.000000 0.000000 1.760580 
# 
# From -- ./inp_files/23943.got.cif
#   From: 2010.03.12/outbox.cif.g09.slc.cpg/sg74_12_cif.got.tgz:23943.got - 2010.04.16 15:46:19.
