data_PCOD8299812
_publ_section_title
;
Structure prediction by ZEFSAII (Michael W. Deem and Ramdas Pophale) SiO2 
 PCOD8299812
Probable space group: I M M A
;
_chemical_formula_sum "Si O2"
_cell_formula_units_Z 104
_cell_length_a 19.917103
_cell_length_b 8.884561
_cell_length_c 32.311345
_cell_angle_alpha 90.000000
_cell_angle_beta 90.000000
_cell_angle_gamma 90.000000
_cell_volume 5717.644896
_symmetry_space_group_name_H-M "I M M A"
_symmetry_group_IT_number 74
_symmetry_cell_setting 'orthorhombic'
loop_
_space_group_symop_operation_xyz
x,y,z
-x,1/2-y,z
x,-y,-z
-x,1/2+y,-z
-x,-y,-z
x,1/2+y,-z
-x,y,z
x,1/2-y,z
1/2+x,1/2+y,1/2+z
1/2-x,-y,1/2+z
1/2+x,1/2-y,1/2-z
1/2-x,y,1/2-z
1/2-x,1/2-y,1/2-z
1/2+x,y,1/2-z
1/2-x,1/2+y,1/2+z
1/2+x,-y,1/2+z
loop_
_atom_site_type_symbol
_atom_site_label
_atom_site_fract_x
_atom_site_fract_y
_atom_site_fract_z
Si Si1 0.000000 0.077639 0.042997
Si Si2 0.575899 0.577138 0.813800
Si Si3 0.834052 0.924632 0.839993
Si Si4 0.877021 0.078205 0.920517
Si Si5 0.577073 0.573837 0.272607
Si Si6 0.191530 0.922760 0.625891
Si Si7 0.765288 0.076010 0.543069
O O1 0.000000 0.250000 0.033483
O O2 0.065591 0.036001 0.067788
O O3 0.000000 0.000000 0.000000
O O4 0.500000 0.561343 0.830330
O O5 0.591518 0.750000 0.801042
O O6 0.587600 0.469298 0.774956
O O7 0.624823 0.523347 0.850469
O O8 0.852516 0.750000 0.848730
O O9 0.753497 0.946663 0.842016
O O10 0.862454 0.039443 0.873471
O O11 0.867967 0.975993 0.797287
O O12 0.901595 0.250000 0.923667
O O13 0.813828 0.048746 0.950212
O O14 0.500000 0.535696 0.286273
O O15 0.591787 0.750000 0.278496
O O16 0.187077 0.750000 0.612507
O O17 0.195971 0.013008 0.583000
O O18 0.783133 0.250000 0.539572
O O19 0.787791 0.000000 0.500000
#
# Coordination Sequence:
#
# PCOD8299812 Si02
#       7
#     8  16  16  16  16  16  16
#     4  12  24  36  50  70  96 132 176 220 268 316
#     4   9  18  35  58  81 105 136 173 212 259 317
#     4  10  20  34  52  75 104 138 177 218 263 314
#     4  10  21  36  52  72 100 134 173 219 266 311
#     4  10  21  35  51  73 104 142 181 222 264 308
#     4   9  19  35  55  80 108 136 170 215 263 313
#     4  10  20  34  55  79 104 136 171 211 258 310
#
# _framework density 18.189306999999999
#
# number of rings (size 3 to 8) (size 9 to 14) (size 15 to 20)
#    0.000    2.154    0.000    3.000    1.077    5.846 
#    0.000    3.077    0.000    0.462    0.000    0.000 
#    0.000    0.000    0.000    0.000    0.000    0.000 
#
# Total GULP energy -644721.941205 kJ/mol
# GULP energy per Si atom -12398.498869 kJ/mol
# Density = 1.814791 g / cm^3
# Si number density = 18.189307 Si / 1000 Ang^3
#
#
#
# Elastic Constant Matrix: (Units=GPa)
#
#
# Indices 1 2 3 4 5 6 
#
# 1 92.9455 41.3726 61.5696 0.0000 0.0000 0.0000
# 2 41.3726 90.9730 46.0386 0.0000 0.0000 0.0000
# 3 61.5696 46.0386 103.4990 0.0000 0.0000 0.0000
# 4 0.0000 0.0000 0.0000 33.5071 0.0000 0.0000
# 5 0.0000 0.0000 0.0000 0.0000 12.6651 0.0000
# 6 0.0000 0.0000 0.0000 0.0000 0.0000 21.2880
#
#
#
# Elastic Compliance Matrix: (Units=1/GPa)
#
#
# Indices 1 2 3 4 5 6 
#
# 1 0.018676 -0.003705 -0.009462 0.000000 0.000000 0.000000
# 2 -0.003705 0.014921 -0.004433 0.000000 0.000000 0.000000
# 3 -0.009462 -0.004433 0.017263 0.000000 0.000000 0.000000
# 4 0.000000 0.000000 0.000000 0.029844 0.000000 0.000000
# 5 0.000000 0.000000 0.000000 0.000000 0.078957 0.000000
# 6 0.000000 0.000000 0.000000 0.000000 0.000000 0.046975
#
#
# Mechanical properties :
#
#
# Convention : Reuss Voigt Hill
#
# Bulk Modulus (GPa) = 63.85980 65.04214 64.45097
# Shear Modulus (GPa) = 20.23839 22.72116 21.47977
#
# Velocity S-wave (km/s) = 3.33926 3.53816 3.44015
# Velocity P-wave (km/s) = 7.07476 7.24759 7.16170
#
# Compressibility (1/GPa) = 0.01565930
#
# Stress axis : x y z
#
# Youngs Moduli (GPa) = 53.54447 67.02124 57.92895
#
# Poissons Ratio (x) = 0.24832 0.54812
# Poissons Ratio (y) = 0.19839 0.25680
# Poissons Ratio (z) = 0.50663 0.29710
#
# Static dielectric constant tensor:
#      x y z
#    x 3.390070 0.000000 0.000000 
#    y 0.000000 3.388640 0.000000 
#    z 0.000000 0.000000 3.136530 
# 
# 
# High freq. dielectric constant tensor:
#      x y z
#    x 1.691100 0.000000 0.000000 
#    y 0.000000 1.715310 0.000000 
#    z 0.000000 0.000000 1.699240 
# 
# From -- ./inp_files/64508.got.cif
#   From: 2010.03.12/outbox.cif.g09.slc.cpg/sg74_33_cif.got.tgz:64508.got - 2010.04.16 15:46:19.
