data_PCOD8299019
_publ_section_title
;
Structure prediction by ZEFSAII (Michael W. Deem and Ramdas Pophale) SiO2 
 PCOD8299019
Probable space group: I M M A
;
_chemical_formula_sum "Si O2"
_cell_formula_units_Z 96
_cell_length_a 23.217484
_cell_length_b 18.337641
_cell_length_c 12.205232
_cell_angle_alpha 90.000000
_cell_angle_beta 90.000000
_cell_angle_gamma 90.000000
_cell_volume 5196.424960
_symmetry_space_group_name_H-M "I M M A"
_symmetry_group_IT_number 74
_symmetry_cell_setting 'orthorhombic'
loop_
_space_group_symop_operation_xyz
x,y,z
-x,1/2-y,z
x,-y,-z
-x,1/2+y,-z
-x,-y,-z
x,1/2+y,-z
-x,y,z
x,1/2-y,z
1/2+x,1/2+y,1/2+z
1/2-x,-y,1/2+z
1/2+x,1/2-y,1/2-z
1/2-x,y,1/2-z
1/2-x,1/2-y,1/2-z
1/2+x,y,1/2-z
1/2-x,1/2+y,1/2+z
1/2+x,-y,1/2+z
loop_
_atom_site_type_symbol
_atom_site_label
_atom_site_fract_x
_atom_site_fract_y
_atom_site_fract_z
Si Si1 0.434015 0.450552 0.239379
Si Si2 0.249635 0.664143 0.878496
Si Si3 0.935622 0.114116 0.662894
Si Si4 0.934344 0.669187 0.110878
Si Si5 0.639486 0.582971 0.964768
Si Si6 0.359738 0.076926 0.453721
O O1 0.500000 0.423102 0.248076
O O2 0.430956 0.536027 0.220456
O O3 0.403561 0.410874 0.137547
O O4 0.400884 0.430505 0.349642
O O5 0.251725 0.750000 0.903413
O O6 0.250000 0.647691 0.750000
O O7 0.302459 0.624864 0.937274
O O8 0.192379 0.630147 0.927770
O O9 0.921360 0.171311 0.758753
O O10 0.890530 0.124669 0.565410
O O11 0.000000 0.125057 0.614931
O O12 0.923087 0.750000 0.063920
O O13 0.000000 0.644729 0.091483
O O14 0.894836 0.611389 0.052255
O O15 0.653106 0.500000 0.000000
O O16 0.336422 0.000000 0.500000
#
# Coordination Sequence:
#
# PCOD8299019 Si02
#       6
#    16  16  16  16  16  16
#     4  10  19  33  58  91 120 144 188 243 288 339
#     4  11  24  42  60  79 113 156 197 243 295 342
#     4   9  18  34  58  88 119 151 184 230 292 347
#     4  10  21  36  55  84 123 159 188 228 288 351
#     4  10  20  38  61  88 114 150 194 242 290 338
#     4  12  22  37  61  88 113 152 199 244 286 337
#
# _framework density 18.474239000000001
#
# number of rings (size 3 to 8) (size 9 to 14) (size 15 to 20)
#    0.000    1.667    3.333    2.000    0.000    3.333 
#    0.000    0.833    0.000    4.500    0.000    0.000 
#    0.000    0.000    0.000    0.000    0.000    0.000 
#
# Total GULP energy -595213.795786 kJ/mol
# GULP energy per Si atom -12400.287412 kJ/mol
# Density = 1.843219 g / cm^3
# Si number density = 18.474239 Si / 1000 Ang^3
#
#
#
# Elastic Constant Matrix: (Units=GPa)
#
#
# Indices 1 2 3 4 5 6 
#
# 1 128.0179 43.4812 69.2114 0.0000 0.0000 0.0000
# 2 43.4812 66.6795 40.4005 0.0000 0.0000 0.0000
# 3 69.2114 40.4005 102.0772 0.0000 0.0000 0.0000
# 4 0.0000 0.0000 0.0000 19.9490 0.0000 0.0000
# 5 0.0000 0.0000 0.0000 0.0000 81.5195 0.0000
# 6 0.0000 0.0000 0.0000 0.0000 0.0000 16.5199
#
#
#
# Elastic Compliance Matrix: (Units=1/GPa)
#
#
# Indices 1 2 3 4 5 6 
#
# 1 0.013161 -0.004177 -0.007270 0.000000 0.000000 0.000000
# 2 -0.004177 0.021054 -0.005501 0.000000 0.000000 0.000000
# 3 -0.007270 -0.005501 0.016903 0.000000 0.000000 0.000000
# 4 0.000000 0.000000 0.000000 0.050128 0.000000 0.000000
# 5 0.000000 0.000000 0.000000 0.000000 0.012267 0.000000
# 6 0.000000 0.000000 0.000000 0.000000 0.000000 0.060533
#
#
# Mechanical properties :
#
#
# Convention : Reuss Voigt Hill
#
# Bulk Modulus (GPa) = 58.06595 66.99567 62.53081
# Shear Modulus (GPa) = 23.39937 33.17644 28.28790
#
# Velocity S-wave (km/s) = 3.56279 4.24231 3.91731
# Velocity P-wave (km/s) = 6.95871 7.76784 7.37438
#
# Compressibility (1/GPa) = 0.01722180
#
# Stress axis : x y z
#
# Youngs Moduli (GPa) = 75.98416 47.49763 59.16158
#
# Poissons Ratio (x) = 0.19840 0.43011
# Poissons Ratio (y) = 0.31739 0.32542
# Poissons Ratio (z) = 0.55241 0.26126
#
# Static dielectric constant tensor:
#      x y z
#    x 3.406190 0.000000 0.000000 
#    y 0.000000 3.349220 0.000000 
#    z 0.000000 0.000000 3.490700 
# 
# 
# High freq. dielectric constant tensor:
#      x y z
#    x 1.717740 0.000000 0.000000 
#    y 0.000000 1.709600 0.000000 
#    z 0.000000 0.000000 1.726720 
# 
# From -- ./inp_files/22440.got.cif
#   From: 2010.03.12/outbox.cif.g09.slc.cpg/sg74_12_cif.got.tgz:22440.got - 2010.04.16 15:46:19.
