data_PCOD8299640
_publ_section_title
;
Structure prediction by ZEFSAII (Michael W. Deem and Ramdas Pophale) SiO2 
 PCOD8299640
Probable space group: I M M A
;
_chemical_formula_sum "Si O2"
_cell_formula_units_Z 112
_cell_length_a 29.400762
_cell_length_b 16.529881
_cell_length_c 12.384435
_cell_angle_alpha 90.000000
_cell_angle_beta 90.000000
_cell_angle_gamma 90.000000
_cell_volume 6018.725153
_symmetry_space_group_name_H-M "I M M A"
_symmetry_group_IT_number 74
_symmetry_cell_setting 'orthorhombic'
loop_
_space_group_symop_operation_xyz
x,y,z
-x,1/2-y,z
x,-y,-z
-x,1/2+y,-z
-x,-y,-z
x,1/2+y,-z
-x,y,z
x,1/2-y,z
1/2+x,1/2+y,1/2+z
1/2-x,-y,1/2+z
1/2+x,1/2-y,1/2-z
1/2-x,y,1/2-z
1/2-x,1/2-y,1/2-z
1/2+x,y,1/2-z
1/2-x,1/2+y,1/2+z
1/2+x,-y,1/2+z
loop_
_atom_site_type_symbol
_atom_site_label
_atom_site_fract_x
_atom_site_fract_y
_atom_site_fract_z
Si Si1 0.787754 0.844578 0.044873
Si Si2 0.450725 0.156757 0.795832
Si Si3 0.646066 0.154130 0.737826
Si Si4 0.296183 0.654234 0.698707
Si Si5 0.449886 0.092892 0.027779
Si Si6 0.634991 0.657636 0.869483
Si Si7 0.190542 0.912490 0.446433
O O1 0.775340 0.750000 0.050382
O O2 0.828454 0.866147 0.126323
O O3 0.743436 0.895634 0.075054
O O4 0.802930 0.870948 0.925148
O O5 0.500000 0.113655 0.768159
O O6 0.457860 0.250000 0.774190
O O7 0.407301 0.128485 0.724683
O O8 0.438305 0.144006 0.921178
O O9 0.650843 0.250000 0.766608
O O10 0.666573 0.097365 0.830969
O O11 0.294178 0.750000 0.713224
O O12 0.250000 0.616613 0.750000
O O13 0.339208 0.620406 0.765387
O O14 0.500000 0.116040 0.072296
O O15 0.412187 0.109943 0.117912
O O16 0.447590 0.000000 0.000000
O O17 0.621973 0.750000 0.850626
O O18 0.668688 0.652124 0.971913
O O19 0.182092 0.000000 0.500000
#
# Coordination Sequence:
#
# PCOD8299640 Si02
#       7
#    16  16  16  16  16  16  16
#     4  10  20  38  57  74 102 146 192 226 264 319
#     4   9  17  30  50  76 104 135 170 209 260 322
#     4  10  20  35  57  80 107 142 183 227 270 320
#     4   9  17  32  54  75  97 134 182 222 260 312
#     4  10  20  33  50  78 109 137 170 215 273 325
#     4  11  20  33  55  76 101 140 179 215 260 320
#     4  12  23  34  48  78 112 140 174 218 276 320
#
# _framework density 18.608591000000001
#
# number of rings (size 3 to 8) (size 9 to 14) (size 15 to 20)
#    0.000    1.857    2.857    2.571    0.000    2.000 
#    5.143    0.000    0.000    0.857    0.000    4.000 
#    0.000    4.000    0.000    0.000    0.000    0.000 
#
# Total GULP energy -694120.857624 kJ/mol
# GULP energy per Si atom -12395.015315 kJ/mol
# Density = 1.856624 g / cm^3
# Si number density = 18.608591 Si / 1000 Ang^3
#
#
#
# Elastic Constant Matrix: (Units=GPa)
#
#
# Indices 1 2 3 4 5 6 
#
# 1 188.2274 29.6545 79.2378 0.0000 0.0000 0.0000
# 2 29.6545 33.4308 22.3821 0.0000 0.0000 0.0000
# 3 79.2378 22.3821 121.2016 0.0000 0.0000 0.0000
# 4 0.0000 0.0000 0.0000 14.5385 0.0000 0.0000
# 5 0.0000 0.0000 0.0000 0.0000 31.6359 0.0000
# 6 0.0000 0.0000 0.0000 0.0000 0.0000 19.7330
#
#
#
# Elastic Compliance Matrix: (Units=1/GPa)
#
#
# Indices 1 2 3 4 5 6 
#
# 1 0.007769 -0.003983 -0.004343 0.000000 0.000000 0.000000
# 2 -0.003983 0.036175 -0.004076 0.000000 0.000000 0.000000
# 3 -0.004343 -0.004076 0.011843 0.000000 0.000000 0.000000
# 4 0.000000 0.000000 0.000000 0.068783 0.000000 0.000000
# 5 0.000000 0.000000 0.000000 0.000000 0.031610 0.000000
# 6 0.000000 0.000000 0.000000 0.000000 0.000000 0.050677
#
#
# Mechanical properties :
#
#
# Convention : Reuss Voigt Hill
#
# Bulk Modulus (GPa) = 32.27792 67.26762 49.77277
# Shear Modulus (GPa) = 20.66218 27.28718 23.97468
#
# Velocity S-wave (km/s) = 3.33582 3.83348 3.59328
# Velocity P-wave (km/s) = 5.67629 7.47136 6.63482
#
# Compressibility (1/GPa) = 0.03098093
#
# Stress axis : x y z
#
# Youngs Moduli (GPa) = 128.72209 27.64349 84.43807
#
# Poissons Ratio (x) = 0.11011 0.36674
# Poissons Ratio (y) = 0.51273 0.34419
# Poissons Ratio (z) = 0.55908 0.11268
#
# Static dielectric constant tensor:
#      x y z
#    x 3.879210 0.000000 0.000000 
#    y 0.000000 3.165650 0.000000 
#    z 0.000000 0.000000 3.269200 
# 
# 
# High freq. dielectric constant tensor:
#      x y z
#    x 1.735420 0.000000 0.000000 
#    y 0.000000 1.701950 0.000000 
#    z 0.000000 0.000000 1.691760 
# 
# From -- ./inp_files/27216.got.cif
#   From: 2010.03.12/outbox.cif.g09.slc.cpg/sg74_14_cif.got.tgz:27216.got - 2010.04.16 15:46:19.
