data_PCOD8299419
_publ_section_title
;
Structure prediction by ZEFSAII (Michael W. Deem and Ramdas Pophale) SiO2 
 PCOD8299419
Probable space group: I M M A
;
_chemical_formula_sum "Si O2"
_cell_formula_units_Z 88
_cell_length_a 27.189028
_cell_length_b 7.945458
_cell_length_c 30.330153
_cell_angle_alpha 90.000000
_cell_angle_beta 90.000000
_cell_angle_gamma 90.000000
_cell_volume 6552.201116
_symmetry_space_group_name_H-M "I M M A"
_symmetry_group_IT_number 74
_symmetry_cell_setting 'orthorhombic'
loop_
_space_group_symop_operation_xyz
x,y,z
-x,1/2-y,z
x,-y,-z
-x,1/2+y,-z
-x,-y,-z
x,1/2+y,-z
-x,y,z
x,1/2-y,z
1/2+x,1/2+y,1/2+z
1/2-x,-y,1/2+z
1/2+x,1/2-y,1/2-z
1/2-x,y,1/2-z
1/2-x,1/2-y,1/2-z
1/2+x,y,1/2-z
1/2-x,1/2+y,1/2+z
1/2+x,-y,1/2+z
loop_
_atom_site_type_symbol
_atom_site_label
_atom_site_fract_x
_atom_site_fract_y
_atom_site_fract_z
Si Si1 0.751501 0.066517 0.366800
Si Si2 0.172188 0.250000 0.729856
Si Si3 0.723548 0.250000 0.681247
Si Si4 0.500000 0.551729 0.949697
Si Si5 0.398796 0.553041 0.910891
Si Si6 0.355425 0.936833 0.819515
Si Si7 0.700147 0.941822 0.049145
O O1 0.725736 0.250000 0.360846
O O2 0.801242 0.064151 0.339183
O O3 0.716684 0.917041 0.348796
O O4 0.764928 0.046217 0.418123
O O5 0.223107 0.250000 0.703467
O O6 0.181058 0.250000 0.782092
O O7 0.141147 0.418253 0.717678
O O8 0.500000 0.750000 0.944704
O O9 0.451406 0.479113 0.925904
O O10 0.500000 0.500000 0.000000
O O11 0.393412 0.750000 0.921116
O O12 0.393252 0.517778 0.858748
O O13 0.357254 0.460838 0.939339
O O14 0.367244 0.750000 0.799806
O O15 0.715326 0.750000 0.055020
O O16 0.711034 0.000000 0.000000
#
# Coordination Sequence:
#
# PCOD8299419 Si02
#       7
#    16   8   8   8  16  16  16
#     4   9  16  27  38  51  72  92 111 137 171 206
#     4   9  16  24  40  55  72  86 114 131 162 220
#     4   9  16  26  36  56  72  92 106 134 170 207
#     4  10  20  32  40  52  72  90 118 154 188 234
#     4   9  18  30  41  52  68  90 114 148 191 224
#     4   8  15  26  39  53  69  88 110 138 170 211
#     4  11  19  27  39  53  68  89 121 152 178 215
#
# _framework density 13.430600999999999
#
# number of rings (size 3 to 8) (size 9 to 14) (size 15 to 20)
#    0.000    2.727    0.909    3.273    3.818    2.909 
#    0.000    3.636    0.000    0.000    0.000    0.000 
#    0.000    0.000    0.000    0.000    0.000    0.000 
#
# Total GULP energy -545373.325321 kJ/mol
# GULP energy per Si atom -12394.848303 kJ/mol
# Density = 1.340003 g / cm^3
# Si number density = 13.430601 Si / 1000 Ang^3
#
#
#
# Elastic Constant Matrix: (Units=GPa)
#
#
# Indices 1 2 3 4 5 6 
#
# 1 21.5246 19.4938 29.5497 0.0000 0.0000 0.0000
# 2 19.4938 102.7488 47.8229 0.0000 0.0000 0.0000
# 3 29.5497 47.8229 81.8189 0.0000 0.0000 0.0000
# 4 0.0000 0.0000 0.0000 20.4801 0.0000 0.0000
# 5 0.0000 0.0000 0.0000 0.0000 -25.6698 0.0000
# 6 0.0000 0.0000 0.0000 0.0000 0.0000 9.0882
#
#
#
# Elastic Compliance Matrix: (Units=1/GPa)
#
#
# Indices 1 2 3 4 5 6 
#
# 1 0.092709 -0.002754 -0.031873 0.000000 0.000000 0.000000
# 2 -0.002754 0.013451 -0.006868 0.000000 0.000000 0.000000
# 3 -0.031873 -0.006868 0.027747 0.000000 0.000000 0.000000
# 4 0.000000 0.000000 0.000000 0.048828 0.000000 0.000000
# 5 0.000000 0.000000 0.000000 0.000000 -0.038956 0.000000
# 6 0.000000 0.000000 0.000000 0.000000 0.000000 0.110032
#
#
# Mechanical properties :
#
#
# Convention : Reuss Voigt Hill
#
# Bulk Modulus (GPa) = 19.63925 44.42499 32.03212
# Shear Modulus (GPa) = 14.13329 8.06143 11.09736
#
# Velocity S-wave (km/s) = 3.24747 2.45261 2.87762
# Velocity P-wave (km/s) = 5.35872 6.41636 5.91124
#
# Compressibility (1/GPa) = 0.05091845
#
# Stress axis : x y z
#
# Youngs Moduli (GPa) = 10.78640 74.34149 36.03937
#
# Poissons Ratio (x) = 0.20476 1.14868
# Poissons Ratio (y) = 0.02971 0.24750
# Poissons Ratio (z) = 0.34379 0.51055
#
# Static dielectric constant tensor:
#      x y z
#    x 2.294790 0.000000 0.000000 
#    y 0.000000 3.009420 0.000000 
#    z 0.000000 0.000000 2.654950 
# 
# 
# High freq. dielectric constant tensor:
#      x y z
#    x 1.435680 0.000000 0.000000 
#    y 0.000000 1.533280 0.000000 
#    z 0.000000 0.000000 1.497050 
# 
# From -- ./inp_files/55587.got.cif
#   From: 2010.03.12/outbox.cif.g09.slc.cpg/sg74_28_cif.got.tgz:55587.got - 2010.04.16 15:46:19.
