data_PCOD8299205
_publ_section_title
;
Structure prediction by ZEFSAII (Michael W. Deem and Ramdas Pophale) SiO2 
 PCOD8299205
Probable space group: I M M A
;
_chemical_formula_sum "Si O2"
_cell_formula_units_Z 88
_cell_length_a 27.758664
_cell_length_b 8.875004
_cell_length_c 17.539509
_cell_angle_alpha 90.000000
_cell_angle_beta 90.000000
_cell_angle_gamma 90.000000
_cell_volume 4321.002814
_symmetry_space_group_name_H-M "I M M A"
_symmetry_group_IT_number 74
_symmetry_cell_setting 'orthorhombic'
loop_
_space_group_symop_operation_xyz
x,y,z
-x,1/2-y,z
x,-y,-z
-x,1/2+y,-z
-x,-y,-z
x,1/2+y,-z
-x,y,z
x,1/2-y,z
1/2+x,1/2+y,1/2+z
1/2-x,-y,1/2+z
1/2+x,1/2-y,1/2-z
1/2-x,y,1/2-z
1/2-x,1/2-y,1/2-z
1/2+x,y,1/2-z
1/2-x,1/2+y,1/2+z
1/2+x,-y,1/2+z
loop_
_atom_site_type_symbol
_atom_site_label
_atom_site_fract_x
_atom_site_fract_y
_atom_site_fract_z
Si Si1 0.396971 0.427046 0.917268
Si Si2 0.183094 0.927289 0.682973
Si Si3 0.351989 0.578005 0.333312
Si Si4 0.445935 0.072945 0.581146
Si Si5 0.741218 0.921809 0.420442
Si Si6 0.000000 0.920166 0.421083
O O1 0.383210 0.250000 0.920420
O O2 0.360733 0.521876 0.868362
O O3 0.449783 0.452865 0.877042
O O4 0.396703 0.500000 0.000000
O O5 0.190456 0.750000 0.680171
O O6 0.170907 0.974902 0.768544
O O7 0.231698 0.002515 0.651138
O O8 0.355567 0.750000 0.303161
O O9 0.405012 0.518758 0.358871
O O10 0.316010 0.568202 0.405571
O O11 0.500000 0.029921 0.610506
O O12 0.441016 0.250000 0.569508
O O13 0.435543 0.000000 0.500000
O O14 0.758721 0.750000 0.426451
O O15 0.754781 0.000000 0.500000
O O16 0.000000 0.750000 0.447335
O O17 0.000000 0.000000 0.500000
#
# Coordination Sequence:
#
# PCOD8299205 Si02
#       6
#    16  16  16  16  16   8
#     4  10  19  35  57  81 110 145 190 239 289 345
#     4  12  25  39  56  82 116 155 194 239 291 344
#     4  10  22  40  60  85 119 156 193 237 292 348
#     4   9  18  35  61  91 121 154 192 236 285 341
#     4  11  23  40  63  88 115 150 193 242 291 347
#     4   8  16  30  52  78 102 136 179 228 281 332
#
# _framework density 20.365642000000001
#
# number of rings (size 3 to 8) (size 9 to 14) (size 15 to 20)
#    0.000    1.818    0.000    4.364    0.000    5.091 
#    1.636    0.000    0.000    0.000    0.000    0.000 
#    0.000    0.000    0.000    0.000    0.000    0.000 
#
# Total GULP energy -545347.593485 kJ/mol
# GULP energy per Si atom -12394.263488 kJ/mol
# Density = 2.031929 g / cm^3
# Si number density = 20.365642 Si / 1000 Ang^3
#
#
#
# Elastic Constant Matrix: (Units=GPa)
#
#
# Indices 1 2 3 4 5 6 
#
# 1 139.7320 43.3467 43.6876 0.0000 0.0000 0.0000
# 2 43.3467 114.6775 41.4930 0.0000 0.0000 0.0000
# 3 43.6876 41.4930 87.5854 0.0000 0.0000 0.0000
# 4 0.0000 0.0000 0.0000 35.3908 0.0000 0.0000
# 5 0.0000 0.0000 0.0000 0.0000 59.4728 0.0000
# 6 0.0000 0.0000 0.0000 0.0000 0.0000 11.9903
#
#
#
# Elastic Compliance Matrix: (Units=1/GPa)
#
#
# Indices 1 2 3 4 5 6 
#
# 1 0.008886 -0.002118 -0.003429 0.000000 0.000000 0.000000
# 2 -0.002118 0.011029 -0.004168 0.000000 0.000000 0.000000
# 3 -0.003429 -0.004168 0.015102 0.000000 0.000000 0.000000
# 4 0.000000 0.000000 0.000000 0.028256 0.000000 0.000000
# 5 0.000000 0.000000 0.000000 0.000000 0.016814 0.000000
# 6 0.000000 0.000000 0.000000 0.000000 0.000000 0.083401
#
#
# Mechanical properties :
#
#
# Convention : Reuss Voigt Hill
#
# Bulk Modulus (GPa) = 64.15767 66.56107 65.35937
# Shear Modulus (GPa) = 26.57961 35.60193 31.09077
#
# Velocity S-wave (km/s) = 3.61656 4.18561 3.91145
# Velocity P-wave (km/s) = 7.00076 7.49087 7.24996
#
# Compressibility (1/GPa) = 0.01558660
#
# Stress axis : x y z
#
# Youngs Moduli (GPa) = 112.54152 90.67060 66.21457
#
# Poissons Ratio (x) = 0.19205 0.22703
# Poissons Ratio (y) = 0.23837 0.27601
# Poissons Ratio (z) = 0.38587 0.37795
#
# Static dielectric constant tensor:
#      x y z
#    x 4.252110 0.000000 0.000000 
#    y 0.000000 3.749780 0.000000 
#    z 0.000000 0.000000 3.385440 
# 
# 
# High freq. dielectric constant tensor:
#      x y z
#    x 1.823420 0.000000 0.000000 
#    y 0.000000 1.796470 0.000000 
#    z 0.000000 0.000000 1.772310 
# 
# From -- ./inp_files/47013.got.cif
#   From: 2010.03.12/outbox.cif.g09.slc.cpg/sg74_24_cif.got.tgz:47013.got - 2010.04.16 15:46:19.
