data_PCOD8299560
_publ_section_title
;
Structure prediction by ZEFSAII (Michael W. Deem and Ramdas Pophale) SiO2 
 PCOD8299560
Probable space group: I M M A
;
_chemical_formula_sum "Si O2"
_cell_formula_units_Z 104
_cell_length_a 9.268568
_cell_length_b 21.056484
_cell_length_c 26.886809
_cell_angle_alpha 90.000000
_cell_angle_beta 90.000000
_cell_angle_gamma 90.000000
_cell_volume 5247.322506
_symmetry_space_group_name_H-M "I M M A"
_symmetry_group_IT_number 74
_symmetry_cell_setting 'orthorhombic'
loop_
_space_group_symop_operation_xyz
x,y,z
-x,1/2-y,z
x,-y,-z
-x,1/2+y,-z
-x,-y,-z
x,1/2+y,-z
-x,y,z
x,1/2-y,z
1/2+x,1/2+y,1/2+z
1/2-x,-y,1/2+z
1/2+x,1/2-y,1/2-z
1/2-x,y,1/2-z
1/2-x,1/2-y,1/2-z
1/2+x,y,1/2-z
1/2-x,1/2+y,1/2+z
1/2+x,-y,1/2+z
loop_
_atom_site_type_symbol
_atom_site_label
_atom_site_fract_x
_atom_site_fract_y
_atom_site_fract_z
Si Si1 0.332325 0.638999 0.126930
Si Si2 0.162461 0.675337 0.798433
Si Si3 0.171359 0.824085 0.028276
Si Si4 0.336672 0.088979 0.138651
Si Si5 0.164829 0.467815 0.700037
Si Si6 0.331570 0.565194 0.973238
Si Si7 0.837205 0.250000 0.700704
O O1 0.500000 0.640086 0.109302
O O2 0.229003 0.654213 0.081475
O O3 0.287221 0.572609 0.151820
O O4 0.298794 0.689097 0.169128
O O5 0.166583 0.750000 0.805038
O O6 0.250000 0.653240 0.750000
O O7 0.231211 0.647202 0.848884
O O8 0.000000 0.650061 0.792324
O O9 0.212920 0.750000 0.017518
O O10 0.000000 0.832711 0.026445
O O11 0.244154 0.871874 0.988991
O O12 0.500000 0.114645 0.138637
O O13 0.302689 0.057172 0.085488
O O14 0.311805 0.039824 0.183480
O O15 0.250000 0.451605 0.750000
O O16 0.000000 0.451688 0.712386
O O17 0.500000 0.575930 0.985741
O O18 0.277991 0.500000 0.000000
O O19 0.750000 0.250000 0.750000
O O20 0.000000 0.250000 0.718061
#
# Coordination Sequence:
#
# PCOD8299560 Si02
#       7
#    16  16  16  16  16  16   8
#     4  10  20  37  58  81 112 154 200 239 283 340
#     4  10  21  37  58  84 115 151 188 230 281 339
#     4  11  24  40  60  89 122 156 197 250 305 357
#     4  10  21  37  58  85 114 147 188 235 287 344
#     4  10  21  36  56  84 118 152 190 236 284 340
#     4  10  22  42  66  89 116 154 200 250 301 358
#     4  10  20  32  52  80 110 148 192 238 285 336
#
# _framework density 19.81963
#
# number of rings (size 3 to 8) (size 9 to 14) (size 15 to 20)
#    0.000    1.846    0.769    2.769    0.000    8.923 
#    0.000    4.615    0.000    0.000    0.000    0.000 
#    0.000    0.000    0.000    0.000    0.000    0.000 
#
# Total GULP energy -644747.992884 kJ/mol
# GULP energy per Si atom -12398.999863 kJ/mol
# Density = 1.977452 g / cm^3
# Si number density = 19.819630 Si / 1000 Ang^3
#
#
#
# Elastic Constant Matrix: (Units=GPa)
#
#
# Indices 1 2 3 4 5 6 
#
# 1 95.7465 50.8671 52.6421 0.0000 0.0000 0.0000
# 2 50.8671 86.8163 43.5996 0.0000 0.0000 0.0000
# 3 52.6421 43.5996 90.9036 0.0000 0.0000 0.0000
# 4 0.0000 0.0000 0.0000 51.3977 0.0000 0.0000
# 5 0.0000 0.0000 0.0000 0.0000 37.6297 0.0000
# 6 0.0000 0.0000 0.0000 0.0000 0.0000 31.7061
#
#
#
# Elastic Compliance Matrix: (Units=1/GPa)
#
#
# Indices 1 2 3 4 5 6 
#
# 1 0.018082 -0.007029 -0.007100 0.000000 0.000000 0.000000
# 2 -0.007029 0.017906 -0.004518 0.000000 0.000000 0.000000
# 3 -0.007100 -0.004518 0.017279 0.000000 0.000000 0.000000
# 4 0.000000 0.000000 0.000000 0.019456 0.000000 0.000000
# 5 0.000000 0.000000 0.000000 0.000000 0.026575 0.000000
# 6 0.000000 0.000000 0.000000 0.000000 0.000000 0.031540
#
#
# Mechanical properties :
#
#
# Convention : Reuss Voigt Hill
#
# Bulk Modulus (GPa) = 62.60287 63.07602 62.83945
# Shear Modulus (GPa) = 28.82586 32.57053 30.69819
#
# Velocity S-wave (km/s) = 3.81781 4.05822 3.93985
# Velocity P-wave (km/s) = 7.14766 7.33846 7.24369
#
# Compressibility (1/GPa) = 0.01597371
#
# Stress axis : x y z
#
# Youngs Moduli (GPa) = 55.30302 55.84815 57.87347
#
# Poissons Ratio (x) = 0.39255 0.41091
# Poissons Ratio (y) = 0.38872 0.26145
# Poissons Ratio (z) = 0.39266 0.25230
#
# Static dielectric constant tensor:
#      x y z
#    x 3.591580 0.000000 0.000000 
#    y 0.000000 3.751090 0.000000 
#    z 0.000000 0.000000 3.616400 
# 
# 
# High freq. dielectric constant tensor:
#      x y z
#    x 1.764450 0.000000 0.000000 
#    y 0.000000 1.783440 0.000000 
#    z 0.000000 0.000000 1.776140 
# 
# From -- ./inp_files/64485.got.cif
#   From: 2010.03.12/outbox.cif.g09.slc.cpg/sg74_33_cif.got.tgz:64485.got - 2010.04.16 15:46:19.
