data_PCOD8299328
_publ_section_title
;
Structure prediction by ZEFSAII (Michael W. Deem and Ramdas Pophale) SiO2 
 PCOD8299328
Probable space group: I M M A
;
_chemical_formula_sum "Si O2"
_cell_formula_units_Z 88
_cell_length_a 14.921160
_cell_length_b 12.073052
_cell_length_c 24.288200
_cell_angle_alpha 90.000000
_cell_angle_beta 90.000000
_cell_angle_gamma 90.000000
_cell_volume 4375.372058
_symmetry_space_group_name_H-M "I M M A"
_symmetry_group_IT_number 74
_symmetry_cell_setting 'orthorhombic'
loop_
_space_group_symop_operation_xyz
x,y,z
-x,1/2-y,z
x,-y,-z
-x,1/2+y,-z
-x,-y,-z
x,1/2+y,-z
-x,y,z
x,1/2-y,z
1/2+x,1/2+y,1/2+z
1/2-x,-y,1/2+z
1/2+x,1/2-y,1/2-z
1/2-x,y,1/2-z
1/2-x,1/2-y,1/2-z
1/2+x,y,1/2-z
1/2-x,1/2+y,1/2+z
1/2+x,-y,1/2+z
loop_
_atom_site_type_symbol
_atom_site_label
_atom_site_fract_x
_atom_site_fract_y
_atom_site_fract_z
Si Si1 0.395158 0.750000 0.643548
Si Si2 0.000000 0.123158 0.845806
Si Si3 0.394981 0.250000 0.227027
Si Si4 0.851841 0.029114 0.333915
Si Si5 0.756588 0.500000 0.500000
Si Si6 0.598219 0.873639 0.946343
Si Si7 0.330447 0.988091 0.614854
Si Si8 0.500000 0.623267 0.215824
O O1 0.500000 0.750000 0.631205
O O2 0.376075 0.750000 0.708330
O O3 0.351939 0.857512 0.615474
O O4 0.000000 0.113740 0.780878
O O5 0.000000 0.250000 0.865823
O O6 0.086644 0.062577 0.868789
O O7 0.500000 0.250000 0.213129
O O8 0.350433 0.359373 0.202022
O O9 0.893584 0.047161 0.393950
O O10 0.749847 0.987560 0.342029
O O11 0.909598 0.934701 0.304779
O O12 0.824056 0.603613 0.509254
O O13 0.695194 0.477764 0.552793
O O14 0.500000 0.890453 0.973638
O O15 0.609885 0.750000 0.923832
O O16 0.500000 0.750000 0.195666
#
# Coordination Sequence:
#
# PCOD8299328 Si02
#       8
#     8   8   8  16   8  16  16   8
#     4  11  23  41  67  98 139 159 216 274 340 387
#     4  11  26  48  66  88 127 176 232 274 317 378
#     4  11  19  33  65 108 137 177 192 257 335 407
#     4  11  21  37  67 101 140 167 213 252 330 404
#     4  10  25  39  64  90 130 168 218 262 336 370
#     4  10  19  37  64  96 132 168 207 262 317 392
#     4  11  25  45  65  96 127 171 219 281 324 389
#     4  11  24  41  64  95 137 181 212 259 317 394
#
# _framework density 20.112575
#
# number of rings (size 3 to 8) (size 9 to 14) (size 15 to 20)
#    0.000    1.273    3.636    1.909    3.818    5.455 
#    0.000    4.545    0.000    0.000    0.000    0.000 
#    0.000    0.000    0.000    0.000    0.000    0.000 
#
# Total GULP energy -545657.209100 kJ/mol
# GULP energy per Si atom -12401.300207 kJ/mol
# Density = 2.006680 g / cm^3
# Si number density = 20.112575 Si / 1000 Ang^3
#
#
#
# Elastic Constant Matrix: (Units=GPa)
#
#
# Indices 1 2 3 4 5 6 
#
# 1 163.3741 73.1684 55.5308 0.0000 0.0000 0.0000
# 2 73.1684 141.9844 47.0986 0.0000 0.0000 0.0000
# 3 55.5308 47.0986 87.2039 0.0000 0.0000 0.0000
# 4 0.0000 0.0000 0.0000 28.5043 0.0000 0.0000
# 5 0.0000 0.0000 0.0000 0.0000 32.1990 0.0000
# 6 0.0000 0.0000 0.0000 0.0000 0.0000 19.5884
#
#
#
# Elastic Compliance Matrix: (Units=1/GPa)
#
#
# Indices 1 2 3 4 5 6 
#
# 1 0.008927 -0.003307 -0.003899 0.000000 0.000000 0.000000
# 2 -0.003307 0.009805 -0.003190 0.000000 0.000000 0.000000
# 3 -0.003899 -0.003190 0.015673 0.000000 0.000000 0.000000
# 4 0.000000 0.000000 0.000000 0.035082 0.000000 0.000000
# 5 0.000000 0.000000 0.000000 0.000000 0.031057 0.000000
# 6 0.000000 0.000000 0.000000 0.000000 0.000000 0.051051
#
#
# Mechanical properties :
#
#
# Convention : Reuss Voigt Hill
#
# Bulk Modulus (GPa) = 73.45309 82.68422 78.06865
# Shear Modulus (GPa) = 28.26058 30.50930 29.38494
#
# Velocity S-wave (km/s) = 3.75256 3.89900 3.82648
# Velocity P-wave (km/s) = 7.44150 7.84025 7.64348
#
# Compressibility (1/GPa) = 0.01361413
#
# Stress axis : x y z
#
# Youngs Moduli (GPa) = 112.01723 101.98390 63.80484
#
# Poissons Ratio (x) = 0.33728 0.24875
# Poissons Ratio (y) = 0.37046 0.20353
# Poissons Ratio (z) = 0.43670 0.32532
#
# Static dielectric constant tensor:
#      x y z
#    x 3.904890 0.000000 0.000000 
#    y 0.000000 3.689410 0.000000 
#    z 0.000000 0.000000 3.637490 
# 
# 
# High freq. dielectric constant tensor:
#      x y z
#    x 1.804400 0.000000 0.000000 
#    y 0.000000 1.776720 0.000000 
#    z 0.000000 0.000000 1.781440 
# 
# From -- ./inp_files/59881.got.cif
#   From: 2010.03.12/outbox.cif.g09.slc.cpg/sg74_30_cif.got.tgz:59881.got - 2010.04.16 15:46:19.
