data_PCOD8299297
_publ_section_title
;
Structure prediction by ZEFSAII (Michael W. Deem and Ramdas Pophale) SiO2 
 PCOD8299297
Probable space group: I M M A
;
_chemical_formula_sum "Si O2"
_cell_formula_units_Z 64
_cell_length_a 13.642792
_cell_length_b 21.076911
_cell_length_c 10.025590
_cell_angle_alpha 90.000000
_cell_angle_beta 90.000000
_cell_angle_gamma 90.000000
_cell_volume 2882.837479
_symmetry_space_group_name_H-M "I M M A"
_symmetry_group_IT_number 74
_symmetry_cell_setting 'orthorhombic'
loop_
_space_group_symop_operation_xyz
x,y,z
-x,1/2-y,z
x,-y,-z
-x,1/2+y,-z
-x,-y,-z
x,1/2+y,-z
-x,y,z
x,1/2-y,z
1/2+x,1/2+y,1/2+z
1/2-x,-y,1/2+z
1/2+x,1/2-y,1/2-z
1/2-x,y,1/2-z
1/2-x,1/2-y,1/2-z
1/2+x,y,1/2-z
1/2-x,1/2+y,1/2+z
1/2+x,-y,1/2+z
loop_
_atom_site_type_symbol
_atom_site_label
_atom_site_fract_x
_atom_site_fract_y
_atom_site_fract_z
Si Si1 0.112327 0.993666 0.854807
Si Si2 0.298382 0.180703 0.037722
Si Si3 0.888946 0.349291 0.186732
Si Si4 0.616035 0.058829 0.905651
O O1 0.154064 0.041665 0.743518
O O2 0.000000 0.012085 0.876305
O O3 0.124728 0.924177 0.794608
O O4 0.165848 0.000000 0.000000
O O5 0.314909 0.250000 0.969777
O O6 0.182832 0.175064 0.071203
O O7 0.362321 0.180807 0.172158
O O8 0.330132 0.124097 0.941507
O O9 0.000000 0.331284 0.146523
O O10 0.500000 0.070282 0.912983
O O11 0.645399 0.000000 0.000000
#
# Coordination Sequence:
#
# PCOD8299297 Si02
#       4
#    16  16  16  16
#     4   9  18  35  61  91 120 157 209 265 322 381
#     4  11  23  36  57  94 130 167 218 270 329 398
#     4  10  20  37  58  85 126 173 221 271 324 391
#     4  10  19  36  62  92 125 162 210 266 322 382
#
# _framework density 22.200348000000002
#
# number of rings (size 3 to 8) (size 9 to 14) (size 15 to 20)
#    0.000    2.000    2.500    2.250    0.000    4.500 
#    0.000    0.000    0.000    4.500    0.000   14.000 
#    0.000    1.000    0.000    0.000    0.000    0.000 
#
# Total GULP energy -396659.901005 kJ/mol
# GULP energy per Si atom -12395.621906 kJ/mol
# Density = 2.214982 g / cm^3
# Si number density = 22.200348 Si / 1000 Ang^3
#
#
#
# Elastic Constant Matrix: (Units=GPa)
#
#
# Indices 1 2 3 4 5 6 
#
# 1 111.8066 57.5107 25.7056 0.0001 0.0000 0.0000
# 2 57.5107 184.8886 81.4000 0.0001 0.0000 0.0000
# 3 25.7056 81.4000 142.0252 0.0005 0.0000 -0.0001
# 4 0.0001 0.0001 0.0005 31.6654 0.0001 0.0000
# 5 0.0000 0.0000 0.0000 0.0001 12.7611 0.0000
# 6 0.0000 0.0000 -0.0001 0.0000 0.0000 13.7117
#
#
#
# Elastic Compliance Matrix: (Units=1/GPa)
#
#
# Indices 1 2 3 4 5 6 
#
# 1 0.010648 -0.003295 -0.000039 0.000000 0.000000 0.000000
# 2 -0.003295 0.008254 -0.004134 0.000000 0.000000 0.000000
# 3 -0.000039 -0.004134 0.009417 0.000000 0.000000 0.000000
# 4 0.000000 0.000000 0.000000 0.031580 0.000000 0.000000
# 5 0.000000 0.000000 0.000000 0.000000 0.078363 0.000000
# 6 0.000000 0.000000 0.000000 0.000000 0.000000 0.072930
#
#
# Mechanical properties :
#
#
# Convention : Reuss Voigt Hill
#
# Bulk Modulus (GPa) = 74.72020 85.32812 80.02416
# Shear Modulus (GPa) = 21.68354 29.90124 25.79239
#
# Velocity S-wave (km/s) = 3.12864 3.67397 3.41222
# Velocity P-wave (km/s) = 6.83970 7.51773 7.18672
#
# Compressibility (1/GPa) = 0.01338326
#
# Stress axis : x y z
#
# Youngs Moduli (GPa) = 93.91618 121.15742 106.18600
#
# Poissons Ratio (x) = 0.39922 0.00411
# Poissons Ratio (y) = 0.30946 0.43899
# Poissons Ratio (z) = 0.00363 0.50088
#
# Static dielectric constant tensor:
#      x y z
#    x 4.113160 0.000000 0.000000 
#    y 0.000000 3.965210 0.000000 
#    z 0.000000 0.000000 4.081150 
# 
# 
# High freq. dielectric constant tensor:
#      x y z
#    x 1.886510 0.000000 0.000000 
#    y 0.000000 1.868380 0.000000 
#    z 0.000000 0.000000 1.844390 
# 
# From -- ./inp_files/21747.got.cif
#   From: 2010.03.12/outbox.cif.g09.slc.cpg/sg74_11_cif.got.tgz:21747.got - 2010.04.16 15:46:19.
