data_PCOD8299861
_publ_section_title
;
Structure prediction by ZEFSAII (Michael W. Deem and Ramdas Pophale) SiO2 
 PCOD8299861
Probable space group: I M M A
;
_chemical_formula_sum "Si O2"
_cell_formula_units_Z 96
_cell_length_a 9.873433
_cell_length_b 18.411796
_cell_length_c 29.408593
_cell_angle_alpha 90.000000
_cell_angle_beta 90.000000
_cell_angle_gamma 90.000000
_cell_volume 5346.118547
_symmetry_space_group_name_H-M "I M M A"
_symmetry_group_IT_number 74
_symmetry_cell_setting 'orthorhombic'
loop_
_space_group_symop_operation_xyz
x,y,z
-x,1/2-y,z
x,-y,-z
-x,1/2+y,-z
-x,-y,-z
x,1/2+y,-z
-x,y,z
x,1/2-y,z
1/2+x,1/2+y,1/2+z
1/2-x,-y,1/2+z
1/2+x,1/2-y,1/2-z
1/2-x,y,1/2-z
1/2-x,1/2-y,1/2-z
1/2+x,y,1/2-z
1/2-x,1/2+y,1/2+z
1/2+x,-y,1/2+z
loop_
_atom_site_type_symbol
_atom_site_label
_atom_site_fract_x
_atom_site_fract_y
_atom_site_fract_z
Si Si1 0.849004 0.332987 0.713544
Si Si2 0.342733 0.333942 0.961833
Si Si3 0.344080 0.923120 0.522104
Si Si4 0.654818 0.442431 0.372303
Si Si5 0.656330 0.165952 0.291787
Si Si6 0.153219 0.925262 0.374568
O O1 0.806444 0.250000 0.706754
O O2 0.750000 0.371069 0.750000
O O3 0.834912 0.367331 0.664766
O O4 0.000000 0.341254 0.732975
O O5 0.500000 0.345399 0.974356
O O6 0.313648 0.250000 0.950347
O O7 0.298843 0.384063 0.919711
O O8 0.250031 0.358779 0.003627
O O9 0.500000 0.907474 0.509366
O O10 0.320550 0.919379 0.575893
O O11 0.299036 0.000000 0.500000
O O12 0.500000 0.467073 0.365330
O O13 0.692314 0.377471 0.337813
O O14 0.750274 0.509369 0.361052
O O15 0.500000 0.153796 0.277696
O O16 0.686121 0.250000 0.302563
O O17 0.750000 0.138745 0.250000
O O18 0.000000 0.954496 0.379970
#
# Coordination Sequence:
#
# PCOD8299861 Si02
#       6
#    16  16  16  16  16  16
#     4   9  18  33  51  71  98 134 175 217 260 306
#     4  10  21  36  55  80 108 141 182 224 267 319
#     4  10  20  36  56  79 109 144 182 224 271 323
#     4  10  21  36  56  81 109 140 176 219 266 322
#     4   9  19  37  59  81 107 141 179 222 274 327
#     4  10  20  34  53  76 105 141 176 215 264 317
#
# _framework density 17.956952000000001
#
# number of rings (size 3 to 8) (size 9 to 14) (size 15 to 20)
#    0.000    2.333    1.667    0.500    0.000    6.000 
#    0.000    5.000    0.000    5.000    0.000    0.000 
#    0.000    0.000    0.000    0.000    0.000    0.000 
#
# Total GULP energy -595210.824493 kJ/mol
# GULP energy per Si atom -12400.225510 kJ/mol
# Density = 1.791608 g / cm^3
# Si number density = 17.956952 Si / 1000 Ang^3
#
#
#
# Elastic Constant Matrix: (Units=GPa)
#
#
# Indices 1 2 3 4 5 6 
#
# 1 79.8668 53.2349 55.1750 0.0000 0.0000 0.0000
# 2 53.2349 86.2775 48.1071 0.0000 0.0000 0.0000
# 3 55.1750 48.1071 113.8297 0.0000 0.0000 0.0000
# 4 0.0000 0.0000 0.0000 111.3389 0.0000 0.0000
# 5 0.0000 0.0000 0.0000 0.0000 32.9767 0.0000
# 6 0.0000 0.0000 0.0000 0.0000 0.0000 25.2808
#
#
#
# Elastic Compliance Matrix: (Units=1/GPa)
#
#
# Indices 1 2 3 4 5 6 
#
# 1 0.025284 -0.011470 -0.007408 0.000000 0.000000 0.000000
# 2 -0.011470 0.020367 -0.003048 0.000000 0.000000 0.000000
# 3 -0.007408 -0.003048 0.013664 0.000000 0.000000 0.000000
# 4 0.000000 0.000000 0.000000 0.008982 0.000000 0.000000
# 5 0.000000 0.000000 0.000000 0.000000 0.030324 0.000000
# 6 0.000000 0.000000 0.000000 0.000000 0.000000 0.039556
#
#
# Mechanical properties :
#
#
# Convention : Reuss Voigt Hill
#
# Bulk Modulus (GPa) = 64.67008 65.88976 65.27992
# Shear Modulus (GPa) = 26.71179 42.14974 34.43076
#
# Velocity S-wave (km/s) = 3.86106 4.85011 4.38357
# Velocity P-wave (km/s) = 7.48125 8.25455 7.87740
#
# Compressibility (1/GPa) = 0.01546310
#
# Stress axis : x y z
#
# Youngs Moduli (GPa) = 39.55090 49.09837 73.18527
#
# Poissons Ratio (x) = 0.56316 0.54215
# Poissons Ratio (y) = 0.45365 0.22307
# Poissons Ratio (z) = 0.29299 0.14965
#
# Static dielectric constant tensor:
#      x y z
#    x 3.460870 0.000000 0.000000 
#    y 0.000000 3.245730 0.000000 
#    z 0.000000 0.000000 3.375370 
# 
# 
# High freq. dielectric constant tensor:
#      x y z
#    x 1.698410 0.000000 0.000000 
#    y 0.000000 1.686650 0.000000 
#    z 0.000000 0.000000 1.700190 
# 
# From -- ./inp_files/64289.got.cif
#   From: 2010.03.12/outbox.cif.g09.slc.cpg/sg74_33_cif.got.tgz:64289.got - 2010.04.16 15:46:19.
