data_PCOD8299845
_publ_section_title
;
Structure prediction by ZEFSAII (Michael W. Deem and Ramdas Pophale) SiO2 
 PCOD8299845
Probable space group: I M M A
;
_chemical_formula_sum "Si O2"
_cell_formula_units_Z 120
_cell_length_a 9.329614
_cell_length_b 26.820069
_cell_length_c 27.389826
_cell_angle_alpha 90.000000
_cell_angle_beta 90.000000
_cell_angle_gamma 90.000000
_cell_volume 6853.506672
_symmetry_space_group_name_H-M "I M M A"
_symmetry_group_IT_number 74
_symmetry_cell_setting 'orthorhombic'
loop_
_space_group_symop_operation_xyz
x,y,z
-x,1/2-y,z
x,-y,-z
-x,1/2+y,-z
-x,-y,-z
x,1/2+y,-z
-x,y,z
x,1/2-y,z
1/2+x,1/2+y,1/2+z
1/2-x,-y,1/2+z
1/2+x,1/2-y,1/2-z
1/2-x,y,1/2-z
1/2-x,1/2-y,1/2-z
1/2+x,y,1/2-z
1/2-x,1/2+y,1/2+z
1/2+x,-y,1/2+z
loop_
_atom_site_type_symbol
_atom_site_label
_atom_site_fract_x
_atom_site_fract_y
_atom_site_fract_z
Si Si1 0.334280 0.347552 0.141311
Si Si2 0.168810 0.573823 0.799497
Si Si3 0.668225 0.693569 0.066676
Si Si4 0.166952 0.555011 0.009418
Si Si5 0.663930 0.141095 0.031412
Si Si6 0.832258 0.750000 0.699870
Si Si7 0.332784 0.394138 0.610116
Si Si8 0.666660 0.541165 0.298276
O O1 0.500000 0.361326 0.151688
O O2 0.234174 0.393600 0.156804
O O3 0.310497 0.334825 0.084322
O O4 0.285625 0.298569 0.169986
O O5 0.250000 0.589348 0.750000
O O6 0.198663 0.516142 0.812283
O O7 0.000000 0.584729 0.793545
O O8 0.500000 0.687632 0.075419
O O9 0.718758 0.750000 0.076380
O O10 0.748382 0.657820 0.105049
O O11 0.710259 0.679907 0.010834
O O12 0.202743 0.570177 0.064713
O O13 0.000000 0.557824 0.997736
O O14 0.227344 0.500000 0.000000
O O15 0.243702 0.591138 0.971407
O O16 0.500000 0.125523 0.023797
O O17 0.750000 0.750000 0.750000
O O18 0.000000 0.750000 0.710601
O O19 0.500000 0.381465 0.612728
O O20 0.280255 0.423353 0.658074
O O21 0.500000 0.548736 0.287786
O O22 0.750000 0.557575 0.250000
#
# Coordination Sequence:
#
# PCOD8299845 Si02
#       8
#    16  16  16  16  16   8  16  16
#     4  10  21  35  52  74  98 130 170 214 261 307
#     4  10  20  34  53  74 100 132 168 210 255 304
#     4   9  18  33  54  77 102 133 169 209 252 302
#     4   9  18  31  50  72 101 137 169 201 244 299
#     4   9  19  33  49  73 102 131 167 208 251 297
#     4  10  22  38  54  70  94 128 170 216 267 312
#     4   9  18  33  51  75 104 135 169 205 250 303
#     4   9  19  34  53  77 105 136 169 205 249 299
#
# _framework density 17.509284999999998
#
# number of rings (size 3 to 8) (size 9 to 14) (size 15 to 20)
#    0.000    2.667    0.000    0.800    2.800    3.733 
#    0.000    0.000    0.000    0.400    0.000    0.000 
#    0.000    0.000    0.000    0.000    0.000    0.000 
#
# Total GULP energy -744096.995518 kJ/mol
# GULP energy per Si atom -12401.616592 kJ/mol
# Density = 1.746943 g / cm^3
# Si number density = 17.509285 Si / 1000 Ang^3
#
#
#
# Elastic Constant Matrix: (Units=GPa)
#
#
# Indices 1 2 3 4 5 6 
#
# 1 52.3108 49.3386 42.6064 0.0000 0.0000 0.0000
# 2 49.3386 133.2985 64.4499 0.0000 0.0000 0.0000
# 3 42.6064 64.4499 108.1481 0.0000 0.0000 0.0000
# 4 0.0000 0.0000 0.0000 27.2678 0.0000 0.0000
# 5 0.0000 0.0000 0.0000 0.0000 28.6974 0.0000
# 6 0.0000 0.0000 0.0000 0.0000 0.0000 29.1205
#
#
#
# Elastic Compliance Matrix: (Units=1/GPa)
#
#
# Indices 1 2 3 4 5 6 
#
# 1 0.033919 -0.008560 -0.008262 0.000000 0.000000 0.000000
# 2 -0.008560 0.012699 -0.004195 0.000000 0.000000 0.000000
# 3 -0.008262 -0.004195 0.015001 0.000000 0.000000 0.000000
# 4 0.000000 0.000000 0.000000 0.036673 0.000000 0.000000
# 5 0.000000 0.000000 0.000000 0.000000 0.034846 0.000000
# 6 0.000000 0.000000 0.000000 0.000000 0.000000 0.034340
#
#
# Mechanical properties :
#
#
# Convention : Reuss Voigt Hill
#
# Bulk Modulus (GPa) = 51.05855 67.39413 59.22634
# Shear Modulus (GPa) = 23.14360 26.17462 24.65911
#
# Velocity S-wave (km/s) = 3.63959 3.87059 3.75686
# Velocity P-wave (km/s) = 6.84736 7.65175 7.26070
#
# Compressibility (1/GPa) = 0.01958536
#
# Stress axis : x y z
#
# Youngs Moduli (GPa) = 29.48168 78.74704 66.66005
#
# Poissons Ratio (x) = 0.67410 0.55071
# Poissons Ratio (y) = 0.25237 0.27966
# Poissons Ratio (z) = 0.24356 0.33037
#
# Static dielectric constant tensor:
#      x y z
#    x 3.217300 0.000000 0.000000 
#    y 0.000000 3.300100 0.000000 
#    z 0.000000 0.000000 3.240340 
# 
# 
# High freq. dielectric constant tensor:
#      x y z
#    x 1.673060 0.000000 0.000000 
#    y 0.000000 1.673130 0.000000 
#    z 0.000000 0.000000 1.670990 
# 
# From -- ./inp_files/65144.got.cif
#   From: 2010.03.12/outbox.cif.g09.slc.cpg/sg74_33_cif.got.tgz:65144.got - 2010.04.16 15:46:19.
