data_PCOD8299356
_publ_section_title
;
Structure prediction by ZEFSAII (Michael W. Deem and Ramdas Pophale) SiO2 
 PCOD8299356
Probable space group: I M M A
;
_chemical_formula_sum "Si O2"
_cell_formula_units_Z 72
_cell_length_a 14.484728
_cell_length_b 23.812415
_cell_length_c 10.972545
_cell_angle_alpha 90.000000
_cell_angle_beta 90.000000
_cell_angle_gamma 90.000000
_cell_volume 3784.610219
_symmetry_space_group_name_H-M "I M M A"
_symmetry_group_IT_number 74
_symmetry_cell_setting 'orthorhombic'
loop_
_space_group_symop_operation_xyz
x,y,z
-x,1/2-y,z
x,-y,-z
-x,1/2+y,-z
-x,-y,-z
x,1/2+y,-z
-x,y,z
x,1/2-y,z
1/2+x,1/2+y,1/2+z
1/2-x,-y,1/2+z
1/2+x,1/2-y,1/2-z
1/2-x,y,1/2-z
1/2-x,1/2-y,1/2-z
1/2+x,y,1/2-z
1/2-x,1/2+y,1/2+z
1/2+x,-y,1/2+z
loop_
_atom_site_type_symbol
_atom_site_label
_atom_site_fract_x
_atom_site_fract_y
_atom_site_fract_z
Si Si1 0.500000 0.435127 0.959641
Si Si2 0.500000 0.109171 0.221317
Si Si3 0.143594 0.584596 0.252807
Si Si4 0.893346 0.313713 0.912343
Si Si5 0.655559 0.313393 0.321470
Si Si6 0.000000 0.507445 0.139945
O O1 0.406850 0.420151 0.884055
O O2 0.500000 0.500000 0.000000
O O3 0.500000 0.395617 0.076183
O O4 0.410146 0.142387 0.259042
O O5 0.500000 0.048712 0.282639
O O6 0.250000 0.566048 0.250000
O O7 0.136960 0.647640 0.200148
O O8 0.092410 0.541804 0.164821
O O9 0.876838 0.250000 0.868664
O O10 0.000000 0.324418 0.946914
O O11 0.833967 0.327342 0.034248
O O12 0.616017 0.250000 0.309317
O O13 0.750000 0.319349 0.250000
O O14 0.000000 0.500000 0.000000
#
# Coordination Sequence:
#
# PCOD8299356 Si02
#       6
#     8   8  16  16  16   8
#     4  11  24  47  57  86 132 163 198 258 312 362
#     4  12  22  39  65  85 126 167 198 250 318 363
#     4  11  24  42  64  90 122 161 206 252 305 362
#     4  10  19  39  66  88 122 164 205 253 302 362
#     4  10  22  39  62  96 127 157 203 254 308 365
#     4  11  23  43  63  92 119 155 215 255 298 372
#
# _framework density 19.024415999999999
#
# number of rings (size 3 to 8) (size 9 to 14) (size 15 to 20)
#    0.000    1.333    5.556    1.667    3.111    2.222 
#    0.000    2.222    0.000    0.000    0.000    0.000 
#    0.000    0.000    0.000    0.000    0.000    0.000 
#
# Total GULP energy -446347.612883 kJ/mol
# GULP energy per Si atom -12398.544802 kJ/mol
# Density = 1.898112 g / cm^3
# Si number density = 19.024416 Si / 1000 Ang^3
#
#
#
# Elastic Constant Matrix: (Units=GPa)
#
#
# Indices 1 2 3 4 5 6 
#
# 1 126.7209 54.7336 47.1166 0.0002 -0.0001 -0.0001
# 2 54.7336 120.4829 65.8834 0.0005 -0.0002 -0.0003
# 3 47.1166 65.8834 141.3932 -0.0002 -0.0003 -0.0006
# 4 0.0002 0.0005 -0.0002 43.3324 -0.0001 -0.0003
# 5 -0.0001 -0.0002 -0.0003 -0.0001 10.8209 0.0003
# 6 -0.0001 -0.0003 -0.0006 -0.0003 0.0003 48.0340
#
#
#
# Elastic Compliance Matrix: (Units=1/GPa)
#
#
# Indices 1 2 3 4 5 6 
#
# 1 0.010096 -0.003686 -0.001647 0.000000 0.000000 0.000000
# 2 -0.003686 0.012483 -0.004589 0.000000 0.000000 0.000000
# 3 -0.001647 -0.004589 0.009759 0.000000 0.000000 0.000000
# 4 0.000000 0.000000 0.000000 0.023077 0.000000 0.000000
# 5 0.000000 0.000000 0.000000 0.000000 0.092414 -0.000001
# 6 0.000000 0.000000 0.000000 0.000000 -0.000001 0.020819
#
#
# Mechanical properties :
#
#
# Convention : Reuss Voigt Hill
#
# Bulk Modulus (GPa) = 80.02440 80.45158 80.23799
# Shear Modulus (GPa) = 25.95303 35.16170 30.55736
#
# Velocity S-wave (km/s) = 3.69751 4.30378 4.01211
# Velocity P-wave (km/s) = 7.77072 8.19006 7.98315
#
# Compressibility (1/GPa) = 0.01249619
#
# Stress axis : x y z
#
# Youngs Moduli (GPa) = 99.05288 80.10576 102.46631
#
# Poissons Ratio (x) = 0.29525 0.16874
# Poissons Ratio (y) = 0.36509 0.47017
# Poissons Ratio (z) = 0.16311 0.36757
#
# Static dielectric constant tensor:
#      x y z
#    x 3.875240 0.000000 0.000000 
#    y 0.000000 3.699280 0.000000 
#    z 0.000000 0.000000 3.585240 
# 
# 
# High freq. dielectric constant tensor:
#      x y z
#    x 1.733700 0.000000 0.000000 
#    y 0.000000 1.751870 0.000000 
#    z 0.000000 0.000000 1.746860 
# 
# From -- ./inp_files/20423.got.cif
#   From: 2010.03.12/outbox.cif.g09.slc.cpg/sg74_11_cif.got.tgz:20423.got - 2010.04.16 15:46:19.
