data_PCOD8299016
_publ_section_title
;
Structure prediction by ZEFSAII (Michael W. Deem and Ramdas Pophale) SiO2 
 PCOD8299016
Probable space group: I M M A
;
_chemical_formula_sum "Si O2"
_cell_formula_units_Z 112
_cell_length_a 25.454036
_cell_length_b 15.085696
_cell_length_c 13.637553
_cell_angle_alpha 90.000000
_cell_angle_beta 90.000000
_cell_angle_gamma 90.000000
_cell_volume 5236.709193
_symmetry_space_group_name_H-M "I M M A"
_symmetry_group_IT_number 74
_symmetry_cell_setting 'orthorhombic'
loop_
_space_group_symop_operation_xyz
x,y,z
-x,1/2-y,z
x,-y,-z
-x,1/2+y,-z
-x,-y,-z
x,1/2+y,-z
-x,y,z
x,1/2-y,z
1/2+x,1/2+y,1/2+z
1/2-x,-y,1/2+z
1/2+x,1/2-y,1/2-z
1/2-x,y,1/2-z
1/2-x,1/2-y,1/2-z
1/2+x,y,1/2-z
1/2-x,1/2+y,1/2+z
1/2+x,-y,1/2+z
loop_
_atom_site_type_symbol
_atom_site_label
_atom_site_fract_x
_atom_site_fract_y
_atom_site_fract_z
Si Si1 0.752352 0.854787 0.640763
Si Si2 0.398065 0.850508 0.145355
Si Si3 0.632422 0.148813 0.078663
Si Si4 0.695641 0.646342 0.288514
Si Si5 0.557890 0.579901 0.573545
Si Si6 0.664490 0.351712 0.501167
Si Si7 0.441451 0.472537 0.207409
O O1 0.745003 0.750000 0.648233
O O2 0.750000 0.896208 0.750000
O O3 0.806981 0.879338 0.588311
O O4 0.704478 0.896074 0.577048
O O5 0.418345 0.750000 0.167112
O O6 0.345567 0.872471 0.203754
O O7 0.440310 0.922976 0.179852
O O8 0.385722 0.862739 0.031905
O O9 0.624285 0.250000 0.114847
O O10 0.598521 0.084296 0.144630
O O11 0.704533 0.750000 0.304997
O O12 0.750000 0.602660 0.250000
O O13 0.674786 0.604225 0.391573
O O14 0.554197 0.500000 0.500000
O O15 0.500000 0.627775 0.575810
O O16 0.604261 0.642831 0.535106
O O17 0.572713 0.541436 0.679434
O O18 0.679247 0.250000 0.510419
O O19 0.500000 0.438432 0.184537
#
# Coordination Sequence:
#
# PCOD8299016 Si02
#       7
#    16  16  16  16  16  16  16
#     4   9  17  31  53  82 117 152 185 228 285 351
#     4  10  21  38  60  85 115 151 192 242 299 356
#     4  10  21  38  60  87 120 155 191 236 295 360
#     4   9  17  32  56  86 119 154 195 244 298 357
#     4  10  22  40  58  79 114 155 195 246 301 350
#     4  10  19  33  58  88 116 152 198 245 298 363
#     4  11  24  41  61  85 115 152 198 250 300 357
#
# _framework density 21.387477000000001
#
# number of rings (size 3 to 8) (size 9 to 14) (size 15 to 20)
#    0.000    2.143    0.000    3.000    0.000    7.143 
#    0.000    7.857    0.000    5.143    0.000    0.000 
#    0.000    0.000    0.000    0.000    0.000    0.000 
#
# Total GULP energy -694174.369648 kJ/mol
# GULP energy per Si atom -12395.970887 kJ/mol
# Density = 2.133880 g / cm^3
# Si number density = 21.387477 Si / 1000 Ang^3
#
#
#
# Elastic Constant Matrix: (Units=GPa)
#
#
# Indices 1 2 3 4 5 6 
#
# 1 130.5747 27.8323 55.4616 0.0000 0.0000 0.0000
# 2 27.8323 50.8332 29.4903 0.0000 0.0000 0.0000
# 3 55.4616 29.4903 147.1910 0.0000 0.0000 0.0000
# 4 0.0000 0.0000 0.0000 23.2673 0.0000 0.0000
# 5 0.0000 0.0000 0.0000 0.0000 35.7999 0.0000
# 6 0.0000 0.0000 0.0000 0.0000 0.0000 33.9982
#
#
#
# Elastic Compliance Matrix: (Units=1/GPa)
#
#
# Indices 1 2 3 4 5 6 
#
# 1 0.009666 -0.003598 -0.002921 0.000000 0.000000 0.000000
# 2 -0.003598 0.023598 -0.003372 0.000000 0.000000 0.000000
# 3 -0.002921 -0.003372 0.008570 0.000000 0.000000 0.000000
# 4 0.000000 0.000000 0.000000 0.042979 0.000000 0.000000
# 5 0.000000 0.000000 0.000000 0.000000 0.027933 0.000000
# 6 0.000000 0.000000 0.000000 0.000000 0.000000 0.029413
#
#
# Mechanical properties :
#
#
# Convention : Reuss Voigt Hill
#
# Bulk Modulus (GPa) = 45.34738 61.57414 53.46076
# Shear Modulus (GPa) = 29.53446 33.00073 31.26760
#
# Velocity S-wave (km/s) = 3.72011 3.93236 3.82770
# Velocity P-wave (km/s) = 6.30088 7.03351 6.67725
#
# Compressibility (1/GPa) = 0.02205199
#
# Stress axis : x y z
#
# Youngs Moduli (GPa) = 103.45365 42.37571 116.68105
#
# Poissons Ratio (x) = 0.15245 0.34087
# Poissons Ratio (y) = 0.37219 0.39350
# Poissons Ratio (z) = 0.30223 0.14291
#
# Static dielectric constant tensor:
#      x y z
#    x 4.142690 0.000000 0.000000 
#    y 0.000000 3.772510 0.000000 
#    z 0.000000 0.000000 4.441500 
# 
# 
# High freq. dielectric constant tensor:
#      x y z
#    x 1.842560 0.000000 0.000000 
#    y 0.000000 1.810300 0.000000 
#    z 0.000000 0.000000 1.858790 
# 
# From -- ./inp_files/36489.got.cif
#   From: 2010.03.12/outbox.cif.g09.slc.cpg/sg74_19_cif.got.tgz:36489.got - 2010.04.16 15:46:19.
