data_PCOD8299705
_publ_section_title
;
Structure prediction by ZEFSAII (Michael W. Deem and Ramdas Pophale) SiO2 
 PCOD8299705
Probable space group: I M M A
;
_chemical_formula_sum "Si O2"
_cell_formula_units_Z 112
_cell_length_a 13.820414
_cell_length_b 27.796319
_cell_length_c 15.969944
_cell_angle_alpha 90.000000
_cell_angle_beta 90.000000
_cell_angle_gamma 90.000000
_cell_volume 6134.959968
_symmetry_space_group_name_H-M "I M M A"
_symmetry_group_IT_number 74
_symmetry_cell_setting 'orthorhombic'
loop_
_space_group_symop_operation_xyz
x,y,z
-x,1/2-y,z
x,-y,-z
-x,1/2+y,-z
-x,-y,-z
x,1/2+y,-z
-x,y,z
x,1/2-y,z
1/2+x,1/2+y,1/2+z
1/2-x,-y,1/2+z
1/2+x,1/2-y,1/2-z
1/2-x,y,1/2-z
1/2-x,1/2-y,1/2-z
1/2+x,y,1/2-z
1/2-x,1/2+y,1/2+z
1/2+x,-y,1/2+z
loop_
_atom_site_type_symbol
_atom_site_label
_atom_site_fract_x
_atom_site_fract_y
_atom_site_fract_z
Si Si1 0.283249 0.892651 0.373758
Si Si2 0.388496 0.304558 0.568988
Si Si3 0.114714 0.401652 0.189026
Si Si4 0.388921 0.930639 0.221726
Si Si5 0.611420 0.037371 0.155447
Si Si6 0.114789 0.802226 0.877512
Si Si7 0.281988 0.549540 0.538812
O O1 0.321423 0.837891 0.372545
O O2 0.354256 0.925641 0.317551
O O3 0.174598 0.895300 0.336982
O O4 0.285258 0.909710 0.468986
O O5 0.500000 0.321111 0.577330
O O6 0.376044 0.250000 0.600437
O O7 0.353194 0.309586 0.473307
O O8 0.148749 0.422245 0.278664
O O9 0.154414 0.346850 0.177999
O O10 0.150312 0.436244 0.115502
O O11 0.000000 0.403009 0.184205
O O12 0.500000 0.915223 0.212074
O O13 0.371167 0.985439 0.195746
O O14 0.500000 0.045325 0.131411
O O15 0.671903 0.042749 0.070632
O O16 0.154239 0.750000 0.844942
O O17 0.000000 0.801189 0.873640
O O18 0.321005 0.500000 0.500000
#
# Coordination Sequence:
#
# PCOD8299705 Si02
#       7
#    16  16  16  16  16  16  16
#     4  11  21  34  57  84 104 140 180 228 271 315
#     4   9  17  32  55  83 114 143 176 221 271 323
#     4  10  20  33  52  79 111 142 173 219 275 318
#     4  10  22  39  55  75 111 148 180 220 272 329
#     4  10  22  38  53  72 107 151 185 218 262 317
#     4   8  14  27  49  77 107 138 172 212 263 321
#     4  12  22  33  54  78 106 137 184 224 261 321
#
# _framework density 18.256029000000002
#
# number of rings (size 3 to 8) (size 9 to 14) (size 15 to 20)
#    0.000    2.000    2.857    2.571    2.000    1.714 
#    0.000    1.429    0.000    3.857    0.000    0.000 
#    0.000    0.000    0.000    0.000    0.000    0.000 
#
# Total GULP energy -694308.395828 kJ/mol
# GULP energy per Si atom -12398.364211 kJ/mol
# Density = 1.821448 g / cm^3
# Si number density = 18.256029 Si / 1000 Ang^3
#
#
#
# Elastic Constant Matrix: (Units=GPa)
#
#
# Indices 1 2 3 4 5 6 
#
# 1 61.2866 32.7519 16.1563 0.0000 0.0000 0.0000
# 2 32.7519 112.2969 27.2648 0.0001 0.0000 0.0000
# 3 16.1563 27.2648 53.0880 0.0000 0.0000 0.0000
# 4 0.0000 0.0001 0.0000 26.5307 0.0000 0.0000
# 5 0.0000 0.0000 0.0000 0.0000 25.4749 0.0000
# 6 0.0000 0.0000 0.0000 0.0000 0.0000 24.7161
#
#
#
# Elastic Compliance Matrix: (Units=1/GPa)
#
#
# Indices 1 2 3 4 5 6 
#
# 1 0.019886 -0.004947 -0.003511 0.000000 0.000000 0.000000
# 2 -0.004947 0.011404 -0.004351 0.000000 0.000000 0.000000
# 3 -0.003511 -0.004351 0.022140 0.000000 0.000000 0.000000
# 4 0.000000 0.000000 0.000000 0.037692 0.000000 0.000000
# 5 0.000000 0.000000 0.000000 0.000000 0.039254 0.000000
# 6 0.000000 0.000000 0.000000 0.000000 0.000000 0.040460
#
#
# Mechanical properties :
#
#
# Convention : Reuss Voigt Hill
#
# Bulk Modulus (GPa) = 35.95728 42.11305 39.03516
# Shear Modulus (GPa) = 24.30407 25.37756 24.84082
#
# Velocity S-wave (km/s) = 3.65264 3.73244 3.69276
# Velocity P-wave (km/s) = 6.12601 6.45700 6.29368
#
# Compressibility (1/GPa) = 0.02781078
#
# Stress axis : x y z
#
# Youngs Moduli (GPa) = 50.28585 87.68542 45.16724
#
# Poissons Ratio (x) = 0.43382 0.15859
# Poissons Ratio (y) = 0.24879 0.19654
# Poissons Ratio (z) = 0.17656 0.38155
#
# Static dielectric constant tensor:
#      x y z
#    x 3.276180 0.000000 0.000000 
#    y 0.000000 3.636310 0.000000 
#    z 0.000000 0.000000 3.296410 
# 
# 
# High freq. dielectric constant tensor:
#      x y z
#    x 1.693000 0.000000 0.000000 
#    y 0.000000 1.708740 0.000000 
#    z 0.000000 0.000000 1.698070 
# 
# From -- ./inp_files/32950.got.cif
#   From: 2010.03.12/outbox.cif.g09.slc.cpg/sg74_17_cif.got.tgz:32950.got - 2010.04.16 15:46:19.
