data_PCOD8299983
_publ_section_title
;
Structure prediction by ZEFSAII (Michael W. Deem and Ramdas Pophale) SiO2 
 PCOD8299983
Probable space group: I M M A
;
_chemical_formula_sum "Si O2"
_cell_formula_units_Z 112
_cell_length_a 13.597596
_cell_length_b 14.789106
_cell_length_c 27.340352
_cell_angle_alpha 90.000000
_cell_angle_beta 90.000000
_cell_angle_gamma 90.000000
_cell_volume 5498.043316
_symmetry_space_group_name_H-M "I M M A"
_symmetry_group_IT_number 74
_symmetry_cell_setting 'orthorhombic'
loop_
_space_group_symop_operation_xyz
x,y,z
-x,1/2-y,z
x,-y,-z
-x,1/2+y,-z
-x,-y,-z
x,1/2+y,-z
-x,y,z
x,1/2-y,z
1/2+x,1/2+y,1/2+z
1/2-x,-y,1/2+z
1/2+x,1/2-y,1/2-z
1/2-x,y,1/2-z
1/2-x,1/2-y,1/2-z
1/2+x,y,1/2-z
1/2-x,1/2+y,1/2+z
1/2+x,-y,1/2+z
loop_
_atom_site_type_symbol
_atom_site_label
_atom_site_fract_x
_atom_site_fract_y
_atom_site_fract_z
Si Si1 0.199536 0.901417 0.484331
Si Si2 0.388565 0.517289 0.625792
Si Si3 0.886218 0.854659 0.378860
Si Si4 0.891760 0.852313 0.060847
Si Si5 0.115454 0.148086 0.321640
Si Si6 0.761099 0.151920 0.414885
Si Si7 0.271215 0.019089 0.802099
O O1 0.144230 0.869642 0.435477
O O2 0.316881 0.894727 0.477512
O O3 0.182270 0.842418 0.532970
O O4 0.164557 0.000000 0.500000
O O5 0.500000 0.554830 0.631433
O O6 0.390218 0.412937 0.609339
O O7 0.326860 0.578404 0.587189
O O8 0.332720 0.517644 0.677396
O O9 0.869135 0.750000 0.365680
O O10 0.823058 0.914670 0.341291
O O11 0.000000 0.881633 0.373120
O O12 0.861417 0.750000 0.075734
O O13 0.000000 0.854084 0.036535
O O14 0.144154 0.250000 0.303962
O O15 0.154564 0.128010 0.376125
O O16 0.000000 0.135780 0.321740
O O17 0.162930 0.069303 0.288563
O O18 0.714489 0.250000 0.403475
O O19 0.250000 0.068474 0.750000
#
# Coordination Sequence:
#
# PCOD8299983 Si02
#       7
#    16  16  16  16  16  16  16
#     4  12  21  36  59  87 121 160 200 244 290 343
#     4  10  21  38  57  83 118 155 199 248 300 357
#     4  11  25  44  64  89 124 162 200 248 303 360
#     4  10  20  35  56  79 110 154 198 242 291 343
#     4   9  19  38  62  89 125 162 197 244 303 366
#     4  10  20  34  55  86 123 162 202 243 290 350
#     4  11  23  40  65  91 117 154 201 258 314 365
#
# _framework density 20.370884
#
# number of rings (size 3 to 8) (size 9 to 14) (size 15 to 20)
#    0.000    1.571    2.857    2.571    0.000    3.714 
#    0.000    1.429    0.000    1.714    0.000    0.000 
#    0.000    0.000    0.000    0.000    0.000    0.000 
#
# Total GULP energy -693910.150259 kJ/mol
# GULP energy per Si atom -12391.252683 kJ/mol
# Density = 2.032452 g / cm^3
# Si number density = 20.370884 Si / 1000 Ang^3
#
#
#
# Elastic Constant Matrix: (Units=GPa)
#
#
# Indices 1 2 3 4 5 6 
#
# 1 82.7551 32.1201 29.7838 0.0000 0.0000 0.0000
# 2 32.1201 106.6040 24.5279 0.0000 0.0000 0.0000
# 3 29.7838 24.5279 106.1579 0.0000 0.0000 0.0000
# 4 0.0000 0.0000 0.0000 18.9181 0.0000 0.0000
# 5 0.0000 0.0000 0.0000 0.0000 13.0437 0.0000
# 6 0.0000 0.0000 0.0000 0.0000 0.0000 29.0657
#
#
#
# Elastic Compliance Matrix: (Units=1/GPa)
#
#
# Indices 1 2 3 4 5 6 
#
# 1 0.014687 -0.003672 -0.003272 0.000000 0.000000 0.000000
# 2 -0.003672 0.010825 -0.001471 0.000000 0.000000 0.000000
# 3 -0.003272 -0.001471 0.010678 0.000000 0.000000 0.000000
# 4 0.000000 0.000000 0.000000 0.052859 0.000000 0.000000
# 5 0.000000 0.000000 0.000000 0.000000 0.076665 0.000000
# 6 0.000000 0.000000 0.000000 0.000000 0.000000 0.034405
#
#
# Mechanical properties :
#
#
# Convention : Reuss Voigt Hill
#
# Bulk Modulus (GPa) = 51.65440 52.04232 51.84836
# Shear Modulus (GPa) = 22.38104 26.14451 24.26278
#
# Velocity S-wave (km/s) = 3.31823 3.58638 3.45491
# Velocity P-wave (km/s) = 6.33189 6.53853 6.43604
#
# Compressibility (1/GPa) = 0.01935943
#
# Stress axis : x y z
#
# Youngs Moduli (GPa) = 68.08823 92.37505 93.65226
#
# Poissons Ratio (x) = 0.33923 0.30644
# Poissons Ratio (y) = 0.25004 0.13775
# Poissons Ratio (z) = 0.22279 0.13588
#
# Static dielectric constant tensor:
#      x y z
#    x 3.821500 0.000000 0.000000 
#    y 0.000000 3.927810 0.000000 
#    z 0.000000 0.000000 3.455380 
# 
# 
# High freq. dielectric constant tensor:
#      x y z
#    x 1.795240 0.000000 0.000000 
#    y 0.000000 1.807950 0.000000 
#    z 0.000000 0.000000 1.773940 
# 
# From -- ./inp_files/67191.got.cif
#   From: 2010.03.12/outbox.cif.g09.slc.cpg/sg74_34_cif.got.tgz:67191.got - 2010.04.16 15:46:19.
