data_PCOD8299230
_publ_section_title
;
Structure prediction by ZEFSAII (Michael W. Deem and Ramdas Pophale) SiO2 
 PCOD8299230
Probable space group: I M M A
;
_chemical_formula_sum "Si O2"
_cell_formula_units_Z 88
_cell_length_a 20.904793
_cell_length_b 21.960130
_cell_length_c 9.622936
_cell_angle_alpha 90.000000
_cell_angle_beta 90.000000
_cell_angle_gamma 90.000000
_cell_volume 4417.620205
_symmetry_space_group_name_H-M "I M M A"
_symmetry_group_IT_number 74
_symmetry_cell_setting 'orthorhombic'
loop_
_space_group_symop_operation_xyz
x,y,z
-x,1/2-y,z
x,-y,-z
-x,1/2+y,-z
-x,-y,-z
x,1/2+y,-z
-x,y,z
x,1/2-y,z
1/2+x,1/2+y,1/2+z
1/2-x,-y,1/2+z
1/2+x,1/2-y,1/2-z
1/2-x,y,1/2-z
1/2-x,1/2-y,1/2-z
1/2+x,y,1/2-z
1/2-x,1/2+y,1/2+z
1/2+x,-y,1/2+z
loop_
_atom_site_type_symbol
_atom_site_label
_atom_site_fract_x
_atom_site_fract_y
_atom_site_fract_z
Si Si1 0.573217 0.370958 0.035145
Si Si2 0.373913 0.150147 0.531640
Si Si3 0.576030 0.436639 0.319810
Si Si4 0.640562 0.250000 0.069163
Si Si5 0.570392 0.250000 0.353801
Si Si6 0.270075 0.250000 0.586629
Si Si7 0.925892 0.070718 0.742545
O O1 0.500000 0.351638 0.028968
O O2 0.590966 0.396987 0.184455
O O3 0.612135 0.310343 0.000211
O O4 0.588348 0.422756 0.921254
O O5 0.375952 0.088380 0.438785
O O6 0.425875 0.191828 0.453769
O O7 0.308757 0.188275 0.549310
O O8 0.392983 0.128679 0.684838
O O9 0.500000 0.434251 0.358980
O O10 0.599297 0.505527 0.293796
O O11 0.625580 0.250000 0.235477
O O12 0.714437 0.250000 0.027379
O O13 0.500000 0.250000 0.282196
O O14 0.250000 0.250000 0.750000
O O15 0.000000 0.074749 0.776897
#
# Coordination Sequence:
#
# PCOD8299230 Si02
#       7
#    16  16  16   8   8   8  16
#     4  10  20  35  59  93 127 160 195 250 313 373
#     4  11  22  37  60  86 119 161 204 253 307 358
#     4  10  19  35  59  93 129 158 195 250 314 379
#     4  12  22  39  64  82 117 160 209 251 303 359
#     4  11  21  36  60  95 128 149 188 257 319 370
#     4  11  27  46  62  83 119 168 217 268 301 344
#     4  10  20  34  58  91 127 163 200 245 313 384
#
# _framework density 19.920228000000002
#
# number of rings (size 3 to 8) (size 9 to 14) (size 15 to 20)
#    0.000    1.455    1.818    4.636    0.000    5.818 
#    0.000    1.818    0.000   10.909    0.000    0.000 
#    0.000    0.000    0.000    0.000    0.000    0.000 
#
# Total GULP energy -545275.589819 kJ/mol
# GULP energy per Si atom -12392.627041 kJ/mol
# Density = 1.987489 g / cm^3
# Si number density = 19.920228 Si / 1000 Ang^3
#
#
#
# Elastic Constant Matrix: (Units=GPa)
#
#
# Indices 1 2 3 4 5 6 
#
# 1 79.5534 41.2292 42.0048 0.0000 0.0000 0.0000
# 2 41.2292 116.1794 26.9122 0.0000 0.0000 0.0000
# 3 42.0048 26.9122 92.9657 0.0000 0.0000 0.0000
# 4 0.0000 0.0000 0.0000 14.9964 0.0000 0.0000
# 5 0.0000 0.0000 0.0000 0.0000 29.4518 0.0000
# 6 0.0000 0.0000 0.0000 0.0000 0.0000 17.0904
#
#
#
# Elastic Compliance Matrix: (Units=1/GPa)
#
#
# Indices 1 2 3 4 5 6 
#
# 1 0.018947 -0.005082 -0.007090 0.000000 0.000000 0.000000
# 2 -0.005082 0.010589 -0.000769 0.000000 0.000000 0.000000
# 3 -0.007090 -0.000769 0.014183 0.000000 0.000000 0.000000
# 4 0.000000 0.000000 0.000000 0.066683 0.000000 0.000000
# 5 0.000000 0.000000 0.000000 0.000000 0.033954 0.000000
# 6 0.000000 0.000000 0.000000 0.000000 0.000000 0.058512
#
#
# Mechanical properties :
#
#
# Convention : Reuss Voigt Hill
#
# Bulk Modulus (GPa) = 56.06216 56.55455 56.30836
# Shear Modulus (GPa) = 21.30423 24.21121 22.75772
#
# Velocity S-wave (km/s) = 3.27383 3.49005 3.38367
# Velocity P-wave (km/s) = 6.51882 6.68527 6.60257
#
# Compressibility (1/GPa) = 0.01783734
#
# Stress axis : x y z
#
# Youngs Moduli (GPa) = 52.77805 94.43835 70.50792
#
# Poissons Ratio (x) = 0.47990 0.49990
# Poissons Ratio (y) = 0.26820 0.05424
# Poissons Ratio (z) = 0.37419 0.07265
#
# Static dielectric constant tensor:
#      x y z
#    x 3.235300 0.000000 0.000000 
#    y 0.000000 3.987460 0.000000 
#    z 0.000000 0.000000 3.783640 
# 
# 
# High freq. dielectric constant tensor:
#      x y z
#    x 1.724900 0.000000 0.000000 
#    y 0.000000 1.797620 0.000000 
#    z 0.000000 0.000000 1.793760 
# 
# From -- ./inp_files/12516.got.cif
#   From: 2010.03.12/outbox.cif.g09.slc.cpg/sg74_7_cif.got.tgz:12516.got - 2010.04.16 15:46:19.
