data_PCOD8299015
_publ_section_title
;
Structure prediction by ZEFSAII (Michael W. Deem and Ramdas Pophale) SiO2 
 PCOD8299015
Probable space group: I M M A
;
_chemical_formula_sum "Si O2"
_cell_formula_units_Z 88
_cell_length_a 27.443514
_cell_length_b 14.984434
_cell_length_c 10.659596
_cell_angle_alpha 90.000000
_cell_angle_beta 90.000000
_cell_angle_gamma 90.000000
_cell_volume 4383.497954
_symmetry_space_group_name_H-M "I M M A"
_symmetry_group_IT_number 74
_symmetry_cell_setting 'orthorhombic'
loop_
_space_group_symop_operation_xyz
x,y,z
-x,1/2-y,z
x,-y,-z
-x,1/2+y,-z
-x,-y,-z
x,1/2+y,-z
-x,y,z
x,1/2-y,z
1/2+x,1/2+y,1/2+z
1/2-x,-y,1/2+z
1/2+x,1/2-y,1/2-z
1/2-x,y,1/2-z
1/2-x,1/2-y,1/2-z
1/2+x,y,1/2-z
1/2-x,1/2+y,1/2+z
1/2+x,-y,1/2+z
loop_
_atom_site_type_symbol
_atom_site_label
_atom_site_fract_x
_atom_site_fract_y
_atom_site_fract_z
Si Si1 0.943535 0.750000 0.066536
Si Si2 0.555721 0.924815 0.275701
Si Si3 0.056148 0.650725 0.495792
Si Si4 0.245874 0.250000 0.102704
Si Si5 0.722811 0.559173 0.883890
Si Si6 0.638291 0.750000 0.635499
Si Si7 0.620128 0.074826 0.209903
O O1 0.930775 0.837699 0.145318
O O2 0.000000 0.750000 0.025272
O O3 0.910249 0.750000 0.945418
O O4 0.500000 0.954235 0.303784
O O5 0.593697 0.004977 0.305818
O O6 0.563836 0.902940 0.130961
O O7 0.078437 0.750000 0.482143
O O8 0.080432 0.597814 0.607181
O O9 0.000000 0.657511 0.530680
O O10 0.250000 0.250000 0.250000
O O11 0.272559 0.159610 0.059172
O O12 0.189030 0.250000 0.058083
O O13 0.750000 0.544823 0.750000
O O14 0.666940 0.532307 0.858006
O O15 0.743213 0.500000 0.000000
O O16 0.638609 0.838351 0.718451
#
# Coordination Sequence:
#
# PCOD8299015 Si02
#       7
#     8  16  16   8  16   8  16
#     4  10  24  43  61  88 130 177 218 257 314 383
#     4  10  21  40  60  85 128 170 201 255 323 374
#     4  10  19  33  58  87 119 161 202 248 310 376
#     4  10  20  46  65  83 122 173 202 252 336 393
#     4  11  23  42  68  95 125 167 214 269 327 391
#     4  12  24  41  65  87 118 170 216 251 312 387
#     4  12  22  38  61  94 123 157 210 267 321 373
#
# _framework density 20.075292999999999
#
# number of rings (size 3 to 8) (size 9 to 14) (size 15 to 20)
#    0.000    1.273    5.455    2.182    0.000    5.091 
#    0.000    2.273    0.000    0.000    0.000    0.000 
#    0.000    0.000    0.000    0.000    0.000    0.000 
#
# Total GULP energy -545464.057914 kJ/mol
# GULP energy per Si atom -12396.910407 kJ/mol
# Density = 2.002960 g / cm^3
# Si number density = 20.075293 Si / 1000 Ang^3
#
#
#
# Elastic Constant Matrix: (Units=GPa)
#
#
# Indices 1 2 3 4 5 6 
#
# 1 75.0201 32.3043 22.4912 0.0000 0.0000 0.0000
# 2 32.3043 110.3106 29.6400 0.0000 0.0000 0.0000
# 3 22.4912 29.6400 45.1930 0.0000 0.0000 0.0000
# 4 0.0000 0.0000 0.0000 12.2187 0.0000 0.0000
# 5 0.0000 0.0000 0.0000 0.0000 24.7523 0.0000
# 6 0.0000 0.0000 0.0000 0.0000 0.0000 30.2541
#
#
#
# Elastic Compliance Matrix: (Units=1/GPa)
#
#
# Indices 1 2 3 4 5 6 
#
# 1 0.016546 -0.003196 -0.006138 0.000000 0.000000 0.000000
# 2 -0.003196 0.011622 -0.006032 0.000000 0.000000 0.000000
# 3 -0.006138 -0.006032 0.029138 0.000000 0.000000 0.000000
# 4 0.000000 0.000000 0.000000 0.081842 0.000000 0.000000
# 5 0.000000 0.000000 0.000000 0.000000 0.040400 0.000000
# 6 0.000000 0.000000 0.000000 0.000000 0.000000 0.033053
#
#
# Mechanical properties :
#
#
# Convention : Reuss Voigt Hill
#
# Bulk Modulus (GPa) = 37.63086 44.37719 41.00403
# Shear Modulus (GPa) = 19.82613 23.18423 21.50518
#
# Velocity S-wave (km/s) = 3.14600 3.40202 3.27651
# Velocity P-wave (km/s) = 5.65526 6.13066 5.89775
#
# Compressibility (1/GPa) = 0.02657393
#
# Stress axis : x y z
#
# Youngs Moduli (GPa) = 60.43611 86.04365 34.31932
#
# Poissons Ratio (x) = 0.27502 0.21067
# Poissons Ratio (y) = 0.19317 0.20700
# Poissons Ratio (z) = 0.37098 0.51899
#
# Static dielectric constant tensor:
#      x y z
#    x 3.686710 0.000000 0.000000 
#    y 0.000000 4.313960 0.000000 
#    z 0.000000 0.000000 3.395380 
# 
# 
# High freq. dielectric constant tensor:
#      x y z
#    x 1.786900 0.000000 0.000000 
#    y 0.000000 1.800250 0.000000 
#    z 0.000000 0.000000 1.756550 
# 
# From -- ./inp_files/21034.got.cif
#   From: 2010.03.12/outbox.cif.g09.slc.cpg/sg74_11_cif.got.tgz:21034.got - 2010.04.16 15:46:19.
