data_PCOD8299166
_publ_section_title
;
Structure prediction by ZEFSAII (Michael W. Deem and Ramdas Pophale) SiO2 
 PCOD8299166
Probable space group: I M M A
;
_chemical_formula_sum "Si O2"
_cell_formula_units_Z 96
_cell_length_a 22.087896
_cell_length_b 14.277074
_cell_length_c 14.764398
_cell_angle_alpha 90.000000
_cell_angle_beta 90.000000
_cell_angle_gamma 90.000000
_cell_volume 4655.960671
_symmetry_space_group_name_H-M "I M M A"
_symmetry_group_IT_number 74
_symmetry_cell_setting 'orthorhombic'
loop_
_space_group_symop_operation_xyz
x,y,z
-x,1/2-y,z
x,-y,-z
-x,1/2+y,-z
-x,-y,-z
x,1/2+y,-z
-x,y,z
x,1/2-y,z
1/2+x,1/2+y,1/2+z
1/2-x,-y,1/2+z
1/2+x,1/2-y,1/2-z
1/2-x,y,1/2-z
1/2-x,1/2-y,1/2-z
1/2+x,y,1/2-z
1/2-x,1/2+y,1/2+z
1/2+x,-y,1/2+z
loop_
_atom_site_type_symbol
_atom_site_label
_atom_site_fract_x
_atom_site_fract_y
_atom_site_fract_z
Si Si1 0.194743 0.497278 0.107667
Si Si2 0.566346 0.854331 0.163361
Si Si3 0.631818 0.861829 0.743771
Si Si4 0.165541 0.000246 0.393755
Si Si5 0.897311 0.853476 0.139587
Si Si6 0.500000 0.360409 0.314239
Si Si7 0.500000 0.862025 0.486394
O O1 0.170824 0.403074 0.158900
O O2 0.264572 0.517181 0.128478
O O3 0.161092 0.582986 0.155135
O O4 0.182277 0.500000 0.000000
O O5 0.500000 0.891001 0.128955
O O6 0.577735 0.750000 0.123604
O O7 0.562121 0.849434 0.271223
O O8 0.622882 0.917655 0.139062
O O9 0.641197 0.750000 0.743394
O O10 0.650425 0.902698 0.841790
O O11 0.561155 0.892020 0.735982
O O12 0.153986 0.000000 0.500000
O O13 0.874346 0.750000 0.112211
O O14 0.939155 0.898445 0.061529
O O15 0.500000 0.250000 0.325939
O O16 0.500000 0.405691 0.413809
O O17 0.500000 0.750000 0.481984
#
# Coordination Sequence:
#
# PCOD8299166 Si02
#       7
#    16  16  16  16  16   8   8
#     4  11  24  40  61  95 128 165 214 257 313 386
#     4  10  21  40  65  93 122 156 201 256 321 384
#     4  11  24  44  67  93 130 174 217 264 322 385
#     4  11  26  44  64  90 123 163 218 276 319 372
#     4  10  19  34  60  91 126 162 195 242 309 381
#     4   9  20  37  60  91 126 161 205 257 310 374
#     4   9  16  31  57  95 131 159 194 241 304 382
#
# _framework density 20.618729999999999
#
# number of rings (size 3 to 8) (size 9 to 14) (size 15 to 20)
#    0.000    1.667    2.500    1.500    1.167    5.667 
#    0.000    6.667    0.000    0.000    0.000    0.000 
#    0.000    0.000    0.000    0.000    0.000    0.000 
#
# Total GULP energy -594873.156462 kJ/mol
# GULP energy per Si atom -12393.190760 kJ/mol
# Density = 2.057180 g / cm^3
# Si number density = 20.618730 Si / 1000 Ang^3
#
#
#
# Elastic Constant Matrix: (Units=GPa)
#
#
# Indices 1 2 3 4 5 6 
#
# 1 157.3274 68.4779 48.4232 0.0000 0.0000 0.0000
# 2 68.4779 114.5595 41.7194 0.0000 0.0000 0.0000
# 3 48.4232 41.7194 112.6092 0.0000 0.0000 0.0000
# 4 0.0000 0.0000 0.0000 22.8261 0.0000 0.0000
# 5 0.0000 0.0000 0.0000 0.0000 33.1474 0.0000
# 6 0.0000 0.0000 0.0000 0.0000 0.0000 26.0436
#
#
#
# Elastic Compliance Matrix: (Units=1/GPa)
#
#
# Indices 1 2 3 4 5 6 
#
# 1 0.009031 -0.004605 -0.002177 0.000000 0.000000 0.000000
# 2 -0.004605 0.012439 -0.002628 0.000000 0.000000 0.000000
# 3 -0.002177 -0.002628 0.010790 0.000000 0.000000 0.000000
# 4 0.000000 0.000000 0.000000 0.043809 0.000000 0.000000
# 5 0.000000 0.000000 0.000000 0.000000 0.030168 0.000000
# 6 0.000000 0.000000 0.000000 0.000000 0.000000 0.038397
#
#
# Mechanical properties :
#
#
# Convention : Reuss Voigt Hill
#
# Bulk Modulus (GPa) = 74.41122 77.97080 76.19101
# Shear Modulus (GPa) = 29.77338 31.46181 30.61759
#
# Velocity S-wave (km/s) = 3.80412 3.91050 3.85767
# Velocity P-wave (km/s) = 7.44732 7.63459 7.54153
#
# Compressibility (1/GPa) = 0.01343883
#
# Stress axis : x y z
#
# Youngs Moduli (GPa) = 110.73284 80.39267 92.67743
#
# Poissons Ratio (x) = 0.37023 0.20177
# Poissons Ratio (y) = 0.50995 0.24356
# Poissons Ratio (z) = 0.24108 0.21128
#
# Static dielectric constant tensor:
#      x y z
#    x 3.887170 0.000000 0.000000 
#    y 0.000000 3.680810 0.000000 
#    z 0.000000 0.000000 3.906030 
# 
# 
# High freq. dielectric constant tensor:
#      x y z
#    x 1.819730 0.000000 0.000000 
#    y 0.000000 1.802640 0.000000 
#    z 0.000000 0.000000 1.799010 
# 
# From -- ./inp_files/35316.got.cif
#   From: 2010.03.12/outbox.cif.g09.slc.cpg/sg74_18_cif.got.tgz:35316.got - 2010.04.16 15:46:19.
