data_PCOD8299454
_publ_section_title
;
Structure prediction by ZEFSAII (Michael W. Deem and Ramdas Pophale) SiO2 
 PCOD8299454
Probable space group: I M M A
;
_chemical_formula_sum "Si O2"
_cell_formula_units_Z 96
_cell_length_a 20.465566
_cell_length_b 8.944491
_cell_length_c 28.038597
_cell_angle_alpha 90.000000
_cell_angle_beta 90.000000
_cell_angle_gamma 90.000000
_cell_volume 5132.579323
_symmetry_space_group_name_H-M "I M M A"
_symmetry_group_IT_number 74
_symmetry_cell_setting 'orthorhombic'
loop_
_space_group_symop_operation_xyz
x,y,z
-x,1/2-y,z
x,-y,-z
-x,1/2+y,-z
-x,-y,-z
x,1/2+y,-z
-x,y,z
x,1/2-y,z
1/2+x,1/2+y,1/2+z
1/2-x,-y,1/2+z
1/2+x,1/2-y,1/2-z
1/2-x,y,1/2-z
1/2-x,1/2-y,1/2-z
1/2+x,y,1/2-z
1/2-x,1/2+y,1/2+z
1/2+x,-y,1/2+z
loop_
_atom_site_type_symbol
_atom_site_label
_atom_site_fract_x
_atom_site_fract_y
_atom_site_fract_z
Si Si1 0.819882 0.573677 0.113548
Si Si2 0.803695 0.426337 0.550298
Si Si3 0.572596 0.072210 0.892873
Si Si4 0.072202 0.072267 0.713908
Si Si5 0.924456 0.924929 0.950748
Si Si6 0.812434 0.071890 0.778252
O O1 0.832557 0.750000 0.111425
O O2 0.754488 0.528286 0.085653
O O3 0.882639 0.491712 0.092164
O O4 0.811478 0.515436 0.167492
O O5 0.789200 0.500000 0.500000
O O6 0.807344 0.250000 0.543410
O O7 0.871994 0.490237 0.571522
O O8 0.500000 0.019127 0.909440
O O9 0.575580 0.250000 0.892246
O O10 0.587277 0.012773 0.839464
O O11 0.076426 0.250000 0.713261
O O12 0.123759 0.006431 0.751563
O O13 0.000000 0.019926 0.729878
O O14 0.911319 0.750000 0.955416
O O15 0.000000 0.961143 0.939986
O O16 0.901698 0.000000 0.000000
O O17 0.812049 0.250000 0.777243
O O18 0.750000 0.008676 0.750000
#
# Coordination Sequence:
#
# PCOD8299454 Si02
#       6
#    16  16  16  16  16  16
#     4  10  20  32  49  74 103 133 163 201 249 296
#     4  10  20  32  46  67  94 124 159 197 238 283
#     4   8  14  26  44  65  92 125 157 192 237 285
#     4   8  13  22  38  61  88 117 149 186 228 273
#     4  10  21  37  56  76  99 129 165 205 249 300
#     4   9  16  26  42  66  97 130 162 198 238 280
#
# _framework density 18.704046999999999
#
# number of rings (size 3 to 8) (size 9 to 14) (size 15 to 20)
#    0.000    2.833    0.000    3.000    0.000    8.000 
#    0.000    1.667    0.000    0.500    0.000    1.167 
#    0.000    1.333    0.000    0.000    0.000    0.000 
#
# Total GULP energy -595088.967511 kJ/mol
# GULP energy per Si atom -12397.686823 kJ/mol
# Density = 1.866148 g / cm^3
# Si number density = 18.704047 Si / 1000 Ang^3
#
#
#
# Elastic Constant Matrix: (Units=GPa)
#
#
# Indices 1 2 3 4 5 6 
#
# 1 131.3389 29.3949 78.5938 0.0000 0.0000 0.0000
# 2 29.3949 23.6497 30.2487 0.0000 0.0000 0.0000
# 3 78.5938 30.2487 144.0657 0.0000 0.0000 0.0000
# 4 0.0000 0.0000 0.0000 19.2477 0.0000 0.0000
# 5 0.0000 0.0000 0.0000 0.0000 41.5466 0.0000
# 6 0.0000 0.0000 0.0000 0.0000 0.0000 15.0786
#
#
#
# Elastic Compliance Matrix: (Units=1/GPa)
#
#
# Indices 1 2 3 4 5 6 
#
# 1 0.012682 -0.009452 -0.004934 0.000000 0.000000 0.000000
# 2 -0.009452 0.064853 -0.008460 0.000000 0.000000 0.000000
# 3 -0.004934 -0.008460 0.011409 0.000000 0.000000 0.000000
# 4 0.000000 0.000000 0.000000 0.051954 0.000000 0.000000
# 5 0.000000 0.000000 0.000000 0.000000 0.024069 0.000000
# 6 0.000000 0.000000 0.000000 0.000000 0.000000 0.066319
#
#
# Mechanical properties :
#
#
# Convention : Reuss Voigt Hill
#
# Bulk Modulus (GPa) = 23.12048 63.94767 43.53407
# Shear Modulus (GPa) = 17.15875 25.89572 21.52723
#
# Velocity S-wave (km/s) = 3.03212 3.72492 3.39623
# Velocity P-wave (km/s) = 4.96451 7.26385 6.22133
#
# Compressibility (1/GPa) = 0.04325170
#
# Stress axis : x y z
#
# Youngs Moduli (GPa) = 78.85327 15.41944 87.64807
#
# Poissons Ratio (x) = 0.14575 0.43244
# Poissons Ratio (y) = 0.74533 0.74154
# Poissons Ratio (z) = 0.38905 0.13045
#
# Static dielectric constant tensor:
#      x y z
#    x 3.767150 0.000000 0.000000 
#    y 0.000000 2.848940 0.000000 
#    z 0.000000 0.000000 3.562970 
# 
# 
# High freq. dielectric constant tensor:
#      x y z
#    x 1.744120 0.000000 0.000000 
#    y 0.000000 1.663470 0.000000 
#    z 0.000000 0.000000 1.731030 
# 
# From -- ./inp_files/68137.got.cif
#   From: 2010.03.12/outbox.cif.g09.slc.cpg/sg74_35_cif.got.tgz:68137.got - 2010.04.16 15:46:19.
