data_PCOD8299523
_publ_section_title
;
Structure prediction by ZEFSAII (Michael W. Deem and Ramdas Pophale) SiO2 
 PCOD8299523
Probable space group: I M M A
;
_chemical_formula_sum "Si O2"
_cell_formula_units_Z 112
_cell_length_a 28.541983
_cell_length_b 14.288898
_cell_length_c 14.851201
_cell_angle_alpha 90.000000
_cell_angle_beta 90.000000
_cell_angle_gamma 90.000000
_cell_volume 6056.817043
_symmetry_space_group_name_H-M "I M M A"
_symmetry_group_IT_number 74
_symmetry_cell_setting 'orthorhombic'
loop_
_space_group_symop_operation_xyz
x,y,z
-x,1/2-y,z
x,-y,-z
-x,1/2+y,-z
-x,-y,-z
x,1/2+y,-z
-x,y,z
x,1/2-y,z
1/2+x,1/2+y,1/2+z
1/2-x,-y,1/2+z
1/2+x,1/2-y,1/2-z
1/2-x,y,1/2-z
1/2-x,1/2-y,1/2-z
1/2+x,y,1/2-z
1/2-x,1/2+y,1/2+z
1/2+x,-y,1/2+z
loop_
_atom_site_type_symbol
_atom_site_label
_atom_site_fract_x
_atom_site_fract_y
_atom_site_fract_z
Si Si1 0.809693 0.640504 0.474549
Si Si2 0.320509 0.851058 0.327998
Si Si3 0.053515 0.514330 0.605700
Si Si4 0.205014 0.100876 0.007789
Si Si5 0.635549 0.139238 0.152634
Si Si6 0.297062 0.560594 0.703522
Si Si7 0.384702 0.855423 0.171947
O O1 0.801216 0.750000 0.475039
O O2 0.758766 0.594564 0.472812
O O3 0.836263 0.607925 0.564160
O O4 0.839960 0.609526 0.387391
O O5 0.298257 0.750000 0.293160
O O6 0.324868 0.836879 0.436903
O O7 0.370331 0.860994 0.277267
O O8 0.291941 0.947774 0.311919
O O9 0.059598 0.500000 0.500000
O O10 0.082452 0.604088 0.640081
O O11 0.070824 0.420416 0.655359
O O12 0.000000 0.532152 0.632769
O O13 0.200248 0.125704 0.113170
O O14 0.181771 0.000000 0.000000
O O15 0.635706 0.250000 0.167990
O O16 0.657733 0.085525 0.237420
O O17 0.250000 0.596399 0.750000
O O18 0.398596 0.750000 0.142960
#
# Coordination Sequence:
#
# PCOD8299523 Si02
#       7
#    16  16  16  16  16  16  16
#     4  10  20  32  49  75 112 153 191 231 274 326
#     4  10  22  36  54  79 111 149 191 240 284 329
#     4  11  23  38  61  85 112 149 187 235 290 345
#     4  10  22  33  50  80 113 152 195 236 272 324
#     4  11  23  38  56  80 114 155 193 234 280 333
#     4  11  22  37  56  81 114 156 198 232 278 336
#     4  10  21  36  57  82 111 148 186 232 290 347
#
# _framework density 18.49156
#
# number of rings (size 3 to 8) (size 9 to 14) (size 15 to 20)
#    0.000    1.571    4.286    0.429    6.000    2.286 
#    0.000    1.429    0.000    0.000    0.000    2.000 
#    0.000    2.286    0.000    0.000    0.000    0.000 
#
# Total GULP energy -693761.769438 kJ/mol
# GULP energy per Si atom -12388.603026 kJ/mol
# Density = 1.844947 g / cm^3
# Si number density = 18.491560 Si / 1000 Ang^3
#
#
#
# Elastic Constant Matrix: (Units=GPa)
#
#
# Indices 1 2 3 4 5 6 
#
# 1 92.8071 27.9168 56.2060 0.0000 0.0000 0.0000
# 2 27.9168 81.7386 31.9831 0.0000 0.0000 0.0000
# 3 56.2060 31.9831 127.7541 0.0000 0.0000 0.0000
# 4 0.0000 0.0000 0.0000 22.0061 0.0000 0.0000
# 5 0.0000 0.0000 0.0000 0.0000 17.8074 0.0000
# 6 0.0000 0.0000 0.0000 0.0000 0.0000 15.7419
#
#
#
# Elastic Compliance Matrix: (Units=1/GPa)
#
#
# Indices 1 2 3 4 5 6 
#
# 1 0.015272 -0.002868 -0.006001 0.000000 0.000000 0.000000
# 2 -0.002868 0.014101 -0.002269 0.000000 0.000000 0.000000
# 3 -0.006001 -0.002269 0.011036 0.000000 0.000000 0.000000
# 4 0.000000 0.000000 0.000000 0.045442 0.000000 0.000000
# 5 0.000000 0.000000 0.000000 0.000000 0.056156 0.000000
# 6 0.000000 0.000000 0.000000 0.000000 0.000000 0.063525
#
#
# Mechanical properties :
#
#
# Convention : Reuss Voigt Hill
#
# Bulk Modulus (GPa) = 55.14465 59.39018 57.26741
# Shear Modulus (GPa) = 21.38109 23.52401 22.45255
#
# Velocity S-wave (km/s) = 3.40407 3.57059 3.48833
# Velocity P-wave (km/s) = 6.73324 7.01327 6.87468
#
# Compressibility (1/GPa) = 0.01813413
#
# Stress axis : x y z
#
# Youngs Moduli (GPa) = 65.47905 70.91573 90.61542
#
# Poissons Ratio (x) = 0.20338 0.54379
# Poissons Ratio (y) = 0.18778 0.20556
# Poissons Ratio (z) = 0.39294 0.16087
#
# Static dielectric constant tensor:
#      x y z
#    x 3.035300 0.000000 0.000000 
#    y 0.000000 3.524140 0.000000 
#    z 0.000000 0.000000 3.742320 
# 
# 
# High freq. dielectric constant tensor:
#      x y z
#    x 1.661060 0.000000 0.000000 
#    y 0.000000 1.735100 0.000000 
#    z 0.000000 0.000000 1.721790 
# 
# From -- ./inp_files/37383.got.cif
#   From: 2010.03.12/outbox.cif.g09.slc.cpg/sg74_19_cif.got.tgz:37383.got - 2010.04.16 15:46:19.
