data_PCOD8299334
_publ_section_title
;
Structure prediction by ZEFSAII (Michael W. Deem and Ramdas Pophale) SiO2 
 PCOD8299334
Probable space group: I M M A
;
_chemical_formula_sum "Si O2"
_cell_formula_units_Z 104
_cell_length_a 9.627548
_cell_length_b 20.556428
_cell_length_c 27.553522
_cell_angle_alpha 90.000000
_cell_angle_beta 90.000000
_cell_angle_gamma 90.000000
_cell_volume 5453.062357
_symmetry_space_group_name_H-M "I M M A"
_symmetry_group_IT_number 74
_symmetry_cell_setting 'orthorhombic'
loop_
_space_group_symop_operation_xyz
x,y,z
-x,1/2-y,z
x,-y,-z
-x,1/2+y,-z
-x,-y,-z
x,1/2+y,-z
-x,y,z
x,1/2-y,z
1/2+x,1/2+y,1/2+z
1/2-x,-y,1/2+z
1/2+x,1/2-y,1/2-z
1/2-x,y,1/2-z
1/2-x,1/2-y,1/2-z
1/2+x,y,1/2-z
1/2-x,1/2+y,1/2+z
1/2+x,-y,1/2+z
loop_
_atom_site_type_symbol
_atom_site_label
_atom_site_fract_x
_atom_site_fract_y
_atom_site_fract_z
Si Si1 0.339223 0.677048 0.512937
Si Si2 0.334660 0.498936 0.382079
Si Si3 0.500000 0.676408 0.187515
Si Si4 0.754481 0.906225 0.193022
Si Si5 0.838493 0.146635 0.120962
Si Si6 0.500000 0.679707 0.302815
Si Si7 0.167303 0.750000 0.800811
Si Si8 0.163088 0.062161 0.534161
O O1 0.500000 0.654738 0.504792
O O2 0.315777 0.750000 0.491752
O O3 0.306868 0.682072 0.570344
O O4 0.233434 0.626266 0.488802
O O5 0.500000 0.502855 0.392796
O O6 0.291849 0.524017 0.328931
O O7 0.275038 0.425780 0.382805
O O8 0.249542 0.545231 0.418051
O O9 0.500000 0.750000 0.164850
O O10 0.375524 0.630941 0.170323
O O11 0.500000 0.684177 0.245003
O O12 0.750000 0.917776 0.250000
O O13 0.869700 0.856364 0.176297
O O14 0.782907 0.187642 0.167169
O O15 0.000000 0.138792 0.129863
O O16 0.500000 0.750000 0.326664
O O17 0.250000 0.750000 0.750000
O O18 0.000000 0.750000 0.791998
O O19 0.000000 0.076328 0.544894
O O20 0.179497 0.000000 0.500000
#
# Coordination Sequence:
#
# PCOD8299334 Si02
#       8
#    16  16   8  16  16   8   8  16
#     4  10  19  37  66  93 113 149 207 256 295 354
#     4  11  22  38  61  87 116 158 206 244 290 353
#     4   9  18  32  54  78 103 147 191 231 290 338
#     4  10  20  34  54  83 115 146 191 240 287 344
#     4   9  18  34  61  88 112 152 202 247 291 348
#     4   9  16  32  54  76 103 141 193 241 270 324
#     4  10  20  38  60  90 130 164 202 256 311 362
#     4  11  24  40  60  90 124 156 191 243 308 368
#
# _framework density 19.071853000000001
#
# number of rings (size 3 to 8) (size 9 to 14) (size 15 to 20)
#    0.000    2.000    3.077    0.923    1.077    3.385 
#    0.000    3.077    0.000    0.000    0.000    0.000 
#    0.000    0.000    0.000    0.000    0.000    0.000 
#
# Total GULP energy -644265.036392 kJ/mol
# GULP energy per Si atom -12389.712238 kJ/mol
# Density = 1.902844 g / cm^3
# Si number density = 19.071853 Si / 1000 Ang^3
#
#
#
# Elastic Constant Matrix: (Units=GPa)
#
#
# Indices 1 2 3 4 5 6 
#
# 1 121.4256 54.3541 38.9761 0.0000 0.0000 0.0000
# 2 54.3541 133.5857 43.4800 0.0000 0.0000 0.0000
# 3 38.9761 43.4800 74.1613 0.0000 0.0000 0.0000
# 4 0.0000 0.0000 0.0000 -4.2098 0.0001 0.0000
# 5 0.0000 0.0000 0.0000 0.0001 -64.6544 0.0000
# 6 0.0000 0.0000 0.0000 0.0000 0.0000 33.2266
#
#
#
# Elastic Compliance Matrix: (Units=1/GPa)
#
#
# Indices 1 2 3 4 5 6 
#
# 1 0.010898 -0.003176 -0.003865 0.000000 0.000000 0.000000
# 2 -0.003176 0.010177 -0.004297 0.000000 0.000000 0.000000
# 3 -0.003865 -0.004297 0.018035 0.000000 0.000000 0.000000
# 4 0.000000 0.000000 0.000000 -0.237543 0.000000 0.000000
# 5 0.000000 0.000000 0.000000 0.000000 -0.015467 0.000000
# 6 0.000000 0.000000 0.000000 0.000000 0.000000 0.030096
#
#
# Mechanical properties :
#
#
# Convention : Reuss Voigt Hill
#
# Bulk Modulus (GPa) = 60.85606 66.97700 63.91653
# Shear Modulus (GPa) = -32.12364 5.69667 -13.21349
#
# Velocity S-wave (km/s) = -4.10853 1.73015 -2.63502
# Velocity P-wave (km/s) = 3.07756 6.25985 4.93240
#
# Compressibility (1/GPa) = 0.01643222
#
# Stress axis : x y z
#
# Youngs Moduli (GPa) = 91.76024 98.26212 55.44737
#
# Poissons Ratio (x) = 0.31209 0.21433
# Poissons Ratio (y) = 0.29144 0.23828
# Poissons Ratio (z) = 0.35469 0.42227
#
# Static dielectric constant tensor:
#      x y z
#    x 3.482740 0.000000 0.000000 
#    y 0.000000 3.789400 0.000000 
#    z 0.000000 0.000000 3.288470 
# 
# 
# High freq. dielectric constant tensor:
#      x y z
#    x 1.730250 0.000000 0.000000 
#    y 0.000000 1.755490 0.000000 
#    z 0.000000 0.000000 1.723760 
# 
# From -- ./inp_files/70668.got.cif
#   From: 2010.03.12/outbox.cif.g09.slc.cpg/sg74_36_cif.got.tgz:70668.got - 2010.04.16 15:46:19.
