data_PCOD8299185
_publ_section_title
;
Structure prediction by ZEFSAII (Michael W. Deem and Ramdas Pophale) SiO2 
 PCOD8299185
Probable space group: I M M A
;
_chemical_formula_sum "Si O2"
_cell_formula_units_Z 64
_cell_length_a 18.673848
_cell_length_b 15.599573
_cell_length_c 10.777749
_cell_angle_alpha 90.000000
_cell_angle_beta 90.000000
_cell_angle_gamma 90.000000
_cell_volume 3139.601988
_symmetry_space_group_name_H-M "I M M A"
_symmetry_group_IT_number 74
_symmetry_cell_setting 'orthorhombic'
loop_
_space_group_symop_operation_xyz
x,y,z
-x,1/2-y,z
x,-y,-z
-x,1/2+y,-z
-x,-y,-z
x,1/2+y,-z
-x,y,z
x,1/2-y,z
1/2+x,1/2+y,1/2+z
1/2-x,-y,1/2+z
1/2+x,1/2-y,1/2-z
1/2-x,y,1/2-z
1/2-x,1/2-y,1/2-z
1/2+x,y,1/2-z
1/2-x,1/2+y,1/2+z
1/2+x,-y,1/2+z
loop_
_atom_site_type_symbol
_atom_site_label
_atom_site_fract_x
_atom_site_fract_y
_atom_site_fract_z
Si Si1 0.718090 0.596850 0.127813
Si Si2 0.080625 0.649086 0.977100
Si Si3 0.776205 0.404615 0.122284
Si Si4 0.919591 0.850587 0.262161
O O1 0.750000 0.645424 0.250000
O O2 0.749488 0.501668 0.124891
O O3 0.632260 0.597774 0.144256
O O4 0.741063 0.642510 0.998489
O O5 0.087880 0.750000 0.955786
O O6 0.097591 0.625436 0.119615
O O7 0.000000 0.618996 0.942250
O O8 0.137396 0.600153 0.889184
O O9 0.750000 0.359166 0.250000
O O10 0.909202 0.750000 0.283344
O O11 0.000000 0.878430 0.295665
#
# Coordination Sequence:
#
# PCOD8299185 Si02
#       4
#    16  16  16  16
#     4  10  19  35  55  79 113 148 188 229 271 328
#     4   9  18  35  59  85 112 144 186 234 281 331
#     4  10  21  35  52  81 119 150 187 225 271 338
#     4   9  18  34  59  88 111 139 187 240 283 325
#
# _framework density 20.384748999999999
#
# number of rings (size 3 to 8) (size 9 to 14) (size 15 to 20)
#    0.000    2.500    2.500    1.500    0.000    2.000 
#    0.000   11.250    0.000    3.000    0.000    0.000 
#    0.000    0.000    0.000    0.000    0.000    0.000 
#
# Total GULP energy -396527.445489 kJ/mol
# GULP energy per Si atom -12391.482672 kJ/mol
# Density = 2.033835 g / cm^3
# Si number density = 20.384749 Si / 1000 Ang^3
#
#
#
# Elastic Constant Matrix: (Units=GPa)
#
#
# Indices 1 2 3 4 5 6 
#
# 1 197.4192 37.4629 90.8386 0.0000 0.0000 0.0000
# 2 37.4629 38.3614 11.1246 0.0000 0.0000 0.0000
# 3 90.8386 11.1246 170.8369 0.0000 0.0000 0.0000
# 4 0.0000 0.0000 0.0000 13.9868 0.0000 0.0000
# 5 0.0000 0.0000 0.0000 0.0000 44.9223 0.0000
# 6 0.0000 0.0000 0.0000 0.0000 0.0000 37.4921
#
#
#
# Elastic Compliance Matrix: (Units=1/GPa)
#
#
# Indices 1 2 3 4 5 6 
#
# 1 0.008152 -0.006833 -0.003890 0.000000 0.000000 0.000000
# 2 -0.006833 0.032297 0.001530 0.000000 0.000000 0.000000
# 3 -0.003890 0.001530 0.007822 0.000000 0.000000 0.000000
# 4 0.000000 0.000000 0.000000 0.071496 0.000000 0.000000
# 5 0.000000 0.000000 0.000000 0.000000 0.022261 0.000000
# 6 0.000000 0.000000 0.000000 0.000000 0.000000 0.026672
#
#
# Mechanical properties :
#
#
# Convention : Reuss Voigt Hill
#
# Bulk Modulus (GPa) = 33.46033 76.16331 54.81182
# Shear Modulus (GPa) = 25.37478 37.09300 31.23389
#
# Velocity S-wave (km/s) = 3.53199 4.27036 3.91860
# Velocity P-wave (km/s) = 5.75181 7.85866 6.88629
#
# Compressibility (1/GPa) = 0.02988613
#
# Stress axis : x y z
#
# Youngs Moduli (GPa) = 122.67439 30.96271 127.84354
#
# Poissons Ratio (x) = 0.21156 0.49725
# Poissons Ratio (y) = 0.83821 -0.19561
# Poissons Ratio (z) = 0.47714 -0.04737
#
# Static dielectric constant tensor:
#      x y z
#    x 3.960480 0.000000 0.000000 
#    y 0.000000 3.168680 0.000000 
#    z 0.000000 0.000000 5.656540 
# 
# 
# High freq. dielectric constant tensor:
#      x y z
#    x 1.810020 0.000000 0.000000 
#    y 0.000000 1.757940 0.000000 
#    z 0.000000 0.000000 1.785370 
# 
# From -- ./inp_files/20117.got.cif
#   From: 2010.03.12/outbox.cif.g09.slc.cpg/sg74_11_cif.got.tgz:20117.got - 2010.04.16 15:46:19.
