data_PCOD8299325
_publ_section_title
;
Structure prediction by ZEFSAII (Michael W. Deem and Ramdas Pophale) SiO2 
 PCOD8299325
Probable space group: I M M A
;
_chemical_formula_sum "Si O2"
_cell_formula_units_Z 64
_cell_length_a 8.910306
_cell_length_b 23.549082
_cell_length_c 15.414135
_cell_angle_alpha 90.000000
_cell_angle_beta 90.000000
_cell_angle_gamma 90.000000
_cell_volume 3234.340651
_symmetry_space_group_name_H-M "I M M A"
_symmetry_group_IT_number 74
_symmetry_cell_setting 'orthorhombic'
loop_
_space_group_symop_operation_xyz
x,y,z
-x,1/2-y,z
x,-y,-z
-x,1/2+y,-z
-x,-y,-z
x,1/2+y,-z
-x,y,z
x,1/2-y,z
1/2+x,1/2+y,1/2+z
1/2-x,-y,1/2+z
1/2+x,1/2-y,1/2-z
1/2-x,y,1/2-z
1/2-x,1/2-y,1/2-z
1/2+x,y,1/2-z
1/2-x,1/2+y,1/2+z
1/2+x,-y,1/2+z
loop_
_atom_site_type_symbol
_atom_site_label
_atom_site_fract_x
_atom_site_fract_y
_atom_site_fract_z
Si Si1 0.326404 0.316543 0.005522
Si Si2 0.174061 0.493185 0.399644
Si Si3 0.675086 0.617044 0.162186
Si Si4 0.177198 0.880232 0.839399
O O1 0.500000 0.333275 0.021112
O O2 0.304487 0.250000 0.993923
O O3 0.230426 0.337724 0.086191
O O4 0.263785 0.346940 0.919150
O O5 0.214678 0.500000 0.500000
O O6 0.214732 0.551151 0.351032
O O7 0.275349 0.444675 0.358337
O O8 0.000000 0.476539 0.388310
O O9 0.500000 0.627269 0.171213
O O10 0.750000 0.639636 0.250000
O O11 0.250000 0.859059 0.750000
O O12 0.000000 0.877240 0.830816
#
# Coordination Sequence:
#
# PCOD8299325 Si02
#       4
#    16  16  16  16
#     4  10  22  43  66  86 115 159 207 251 300 355
#     4  10  19  37  63  89 123 160 197 243 299 357
#     4  10  21  37  60  90 122 158 197 242 297 354
#     4  12  25  40  62  91 124 158 200 246 301 363
#
# _framework density 19.787649999999999
#
# number of rings (size 3 to 8) (size 9 to 14) (size 15 to 20)
#    0.000    1.500    2.500    3.000    0.000    6.000 
#    0.000    0.000    0.000    0.000    0.000    0.000 
#    0.000    0.000    0.000    0.000    0.000    0.000 
#
# Total GULP energy -396980.068256 kJ/mol
# GULP energy per Si atom -12405.627133 kJ/mol
# Density = 1.974261 g / cm^3
# Si number density = 19.787650 Si / 1000 Ang^3
#
#
#
# Elastic Constant Matrix: (Units=GPa)
#
#
# Indices 1 2 3 4 5 6 
#
# 1 90.5604 26.7441 56.1353 -0.0002 -0.0001 -0.0002
# 2 26.7441 63.1982 32.8694 -0.0002 0.0000 -0.0002
# 3 56.1353 32.8694 159.2365 0.0000 0.0002 -0.0001
# 4 -0.0002 -0.0002 0.0000 7.6784 0.0000 0.0000
# 5 -0.0001 0.0000 0.0002 0.0000 37.6565 -0.0001
# 6 -0.0002 -0.0002 -0.0001 0.0000 -0.0001 17.3588
#
#
#
# Elastic Compliance Matrix: (Units=1/GPa)
#
#
# Indices 1 2 3 4 5 6 
#
# 1 0.014993 -0.004028 -0.004454 0.000000 0.000000 0.000000
# 2 -0.004028 0.018809 -0.002462 0.000000 0.000000 0.000000
# 3 -0.004454 -0.002462 0.008358 0.000000 0.000000 0.000000
# 4 0.000000 0.000000 0.000000 0.130236 0.000000 0.000000
# 5 0.000000 0.000000 0.000000 0.000000 0.026556 0.000000
# 6 0.000000 0.000000 0.000000 0.000000 0.000000 0.057608
#
#
# Mechanical properties :
#
#
# Convention : Reuss Voigt Hill
#
# Bulk Modulus (GPa) = 49.33197 60.49919 54.91558
# Shear Modulus (GPa) = 17.53125 25.68850 21.60987
#
# Velocity S-wave (km/s) = 2.97975 3.60698 3.30826
# Velocity P-wave (km/s) = 6.06823 6.92731 6.51195
#
# Compressibility (1/GPa) = 0.02027083
#
# Stress axis : x y z
#
# Youngs Moduli (GPa) = 66.69899 53.16727 119.64058
#
# Poissons Ratio (x) = 0.21416 0.53286
# Poissons Ratio (y) = 0.26867 0.29460
# Poissons Ratio (z) = 0.29707 0.13092
#
# Static dielectric constant tensor:
#      x y z
#    x 3.486400 0.000000 0.000000 
#    y 0.000000 3.583430 0.000000 
#    z 0.000000 0.000000 3.863720 
# 
# 
# High freq. dielectric constant tensor:
#      x y z
#    x 1.758070 0.000000 0.000000 
#    y 0.000000 1.770260 0.000000 
#    z 0.000000 0.000000 1.790240 
# 
# From -- ./inp_files/28799.got.cif
#   From: 2010.03.12/outbox.cif.g09.slc.cpg/sg74_15_cif.got.tgz:28799.got - 2010.04.16 15:46:19.
