data_PCOD8299499
_publ_section_title
;
Structure prediction by ZEFSAII (Michael W. Deem and Ramdas Pophale) SiO2 
 PCOD8299499
Probable space group: I M M A
;
_chemical_formula_sum "Si O2"
_cell_formula_units_Z 72
_cell_length_a 9.500693
_cell_length_b 25.340128
_cell_length_c 16.983350
_cell_angle_alpha 90.000000
_cell_angle_beta 90.000000
_cell_angle_gamma 90.000000
_cell_volume 4088.720737
_symmetry_space_group_name_H-M "I M M A"
_symmetry_group_IT_number 74
_symmetry_cell_setting 'orthorhombic'
loop_
_space_group_symop_operation_xyz
x,y,z
-x,1/2-y,z
x,-y,-z
-x,1/2+y,-z
-x,-y,-z
x,1/2+y,-z
-x,y,z
x,1/2-y,z
1/2+x,1/2+y,1/2+z
1/2-x,-y,1/2+z
1/2+x,1/2-y,1/2-z
1/2-x,y,1/2-z
1/2-x,1/2-y,1/2-z
1/2+x,y,1/2-z
1/2-x,1/2+y,1/2+z
1/2+x,-y,1/2+z
loop_
_atom_site_type_symbol
_atom_site_label
_atom_site_fract_x
_atom_site_fract_y
_atom_site_fract_z
Si Si1 0.661945 0.166587 0.040215
Si Si2 0.657306 0.692839 0.392573
Si Si3 0.336911 0.914304 0.323452
Si Si4 0.158242 0.058733 0.529899
Si Si5 0.165881 0.250000 0.331272
O O1 0.500000 0.180357 0.027612
O O2 0.710064 0.196703 0.120127
O O3 0.739930 0.190890 0.966082
O O4 0.687714 0.102623 0.039168
O O5 0.500000 0.684233 0.426190
O O6 0.673195 0.750000 0.351517
O O7 0.687268 0.648782 0.326726
O O8 0.500000 0.930456 0.315000
O O9 0.250000 0.937291 0.250000
O O10 0.275047 0.938023 0.403123
O O11 0.000000 0.068730 0.563307
O O12 0.171818 0.000000 0.500000
O O13 0.250000 0.250000 0.250000
O O14 0.000000 0.250000 0.312206
#
# Coordination Sequence:
#
# PCOD8299499 Si02
#       5
#    16  16  16  16   8
#     4   9  17  31  50  72  98 128 164 203 247 301
#     4   9  17  29  47  71  98 129 163 198 238 288
#     4  10  20  33  49  72 102 133 165 203 247 293
#     4   9  18  34  56  77  98 129 168 209 254 305
#     4  10  20  32  48  72 101 132 165 206 253 302
#
# _framework density 17.60942
#
# number of rings (size 3 to 8) (size 9 to 14) (size 15 to 20)
#    0.000    2.667    1.111    0.667    0.000    2.667 
#    0.000    1.111    0.000    2.667    0.000    0.000 
#    0.000    0.000    0.000    0.000    0.000    0.000 
#
# Total GULP energy -446026.881901 kJ/mol
# GULP energy per Si atom -12389.635608 kJ/mol
# Density = 1.756934 g / cm^3
# Si number density = 17.609420 Si / 1000 Ang^3
#
#
#
# Elastic Constant Matrix: (Units=GPa)
#
#
# Indices 1 2 3 4 5 6 
#
# 1 86.8225 30.5088 52.2754 0.0000 0.0000 0.0000
# 2 30.5088 104.3134 31.7507 0.0001 0.0000 0.0000
# 3 52.2754 31.7507 86.9170 0.0000 0.0000 0.0000
# 4 0.0000 0.0001 0.0000 12.9130 0.0000 0.0000
# 5 0.0000 0.0000 0.0000 0.0000 31.8657 0.0000
# 6 0.0000 0.0000 0.0000 0.0000 0.0000 16.5801
#
#
#
# Elastic Compliance Matrix: (Units=1/GPa)
#
#
# Indices 1 2 3 4 5 6 
#
# 1 0.018526 -0.002280 -0.010309 0.000000 0.000000 0.000000
# 2 -0.002280 0.011066 -0.002671 0.000000 0.000000 0.000000
# 3 -0.010309 -0.002671 0.018681 0.000000 0.000000 0.000000
# 4 0.000000 0.000000 0.000000 0.077441 0.000000 0.000000
# 5 0.000000 0.000000 0.000000 0.000000 0.031382 0.000000
# 6 0.000000 0.000000 0.000000 0.000000 0.000000 0.060313
#
#
# Mechanical properties :
#
#
# Convention : Reuss Voigt Hill
#
# Bulk Modulus (GPa) = 56.33027 56.34695 56.33861
# Shear Modulus (GPa) = 19.69669 23.17298 21.43484
#
# Velocity S-wave (km/s) = 3.34807 3.63153 3.49268
# Velocity P-wave (km/s) = 6.85597 7.04639 6.95183
#
# Compressibility (1/GPa) = 0.01775244
#
# Stress axis : x y z
#
# Youngs Moduli (GPa) = 53.97718 90.36306 53.52905
#
# Poissons Ratio (x) = 0.20607 0.55185
# Poissons Ratio (y) = 0.12309 0.14298
# Poissons Ratio (z) = 0.55647 0.24136
#
# Static dielectric constant tensor:
#      x y z
#    x 3.430510 0.000000 0.000000 
#    y 0.000000 3.436460 0.000000 
#    z 0.000000 0.000000 2.923350 
# 
# 
# High freq. dielectric constant tensor:
#      x y z
#    x 1.689990 0.000000 0.000000 
#    y 0.000000 1.681840 0.000000 
#    z 0.000000 0.000000 1.647200 
# 
# From -- ./inp_files/29126.got.cif
#   From: 2010.03.12/outbox.cif.g09.slc.cpg/sg74_15_cif.got.tgz:29126.got - 2010.04.16 15:46:19.
