data_PCOD8299885
_publ_section_title
;
Structure prediction by ZEFSAII (Michael W. Deem and Ramdas Pophale) SiO2 
 PCOD8299885
Probable space group: I M M A
;
_chemical_formula_sum "Si O2"
_cell_formula_units_Z 96
_cell_length_a 9.402138
_cell_length_b 29.144494
_cell_length_c 19.009347
_cell_angle_alpha 90.000000
_cell_angle_beta 90.000000
_cell_angle_gamma 90.000000
_cell_volume 5208.951806
_symmetry_space_group_name_H-M "I M M A"
_symmetry_group_IT_number 74
_symmetry_cell_setting 'orthorhombic'
loop_
_space_group_symop_operation_xyz
x,y,z
-x,1/2-y,z
x,-y,-z
-x,1/2+y,-z
-x,-y,-z
x,1/2+y,-z
-x,y,z
x,1/2-y,z
1/2+x,1/2+y,1/2+z
1/2-x,-y,1/2+z
1/2+x,1/2-y,1/2-z
1/2-x,y,1/2-z
1/2-x,1/2-y,1/2-z
1/2+x,y,1/2-z
1/2-x,1/2+y,1/2+z
1/2+x,-y,1/2+z
loop_
_atom_site_type_symbol
_atom_site_label
_atom_site_fract_x
_atom_site_fract_y
_atom_site_fract_z
Si Si1 0.160691 0.878825 0.414461
Si Si2 0.166414 0.197795 0.320941
Si Si3 0.661715 0.026254 0.430078
Si Si4 0.660353 0.699095 0.188019
Si Si5 0.337266 0.947064 0.321880
Si Si6 0.165727 0.883176 0.575032
O O1 0.174332 0.828060 0.383885
O O2 0.271729 0.911070 0.375933
O O3 0.201837 0.872005 0.494821
O O4 0.000000 0.898362 0.405239
O O5 0.200493 0.250000 0.346740
O O6 0.250000 0.186356 0.250000
O O7 0.216075 0.160635 0.379124
O O8 0.000000 0.192620 0.305041
O O9 0.500000 0.040929 0.447313
O O10 0.750766 0.070519 0.406924
O O11 0.723509 0.000000 0.500000
O O12 0.669325 0.995553 0.360622
O O13 0.500000 0.700371 0.215341
O O14 0.720103 0.750000 0.173466
O O15 0.750000 0.674706 0.250000
O O16 0.500000 0.933184 0.304804
O O17 0.250000 0.949069 0.250000
O O18 0.000000 0.892866 0.587535
#
# Coordination Sequence:
#
# PCOD8299885 Si02
#       6
#    16  16  16  16  16  16
#     4  10  20  34  53  79 108 140 178 221 271 323
#     4   9  19  37  59  84 116 152 190 234 286 342
#     4  10  21  39  58  78 108 147 185 226 280 334
#     4   9  18  32  49  70  99 135 173 213 258 308
#     4  11  23  38  57  80 108 142 182 224 271 327
#     4  10  21  35  57  86 112 143 184 229 277 330
#
# _framework density 18.429811000000001
#
# number of rings (size 3 to 8) (size 9 to 14) (size 15 to 20)
#    0.000    2.167    1.667    1.000    0.000    5.667 
#    0.000    6.667    0.000    0.000    0.000    7.000 
#    0.000    0.000    0.000    0.000    0.000    0.000 
#
# Total GULP energy -595116.463277 kJ/mol
# GULP energy per Si atom -12398.259652 kJ/mol
# Density = 1.838786 g / cm^3
# Si number density = 18.429811 Si / 1000 Ang^3
#
#
#
# Elastic Constant Matrix: (Units=GPa)
#
#
# Indices 1 2 3 4 5 6 
#
# 1 83.6242 56.7332 61.1173 0.0000 0.0000 0.0000
# 2 56.7332 114.8338 66.1719 0.0001 0.0000 0.0000
# 3 61.1173 66.1719 127.2699 0.0003 -0.0001 0.0002
# 4 0.0000 0.0001 0.0003 34.7672 0.0000 0.0001
# 5 0.0000 0.0000 -0.0001 0.0000 28.6260 0.0000
# 6 0.0000 0.0000 0.0002 0.0001 0.0000 24.1826
#
#
#
# Elastic Compliance Matrix: (Units=1/GPa)
#
#
# Indices 1 2 3 4 5 6 
#
# 1 0.021491 -0.006668 -0.006853 0.000000 0.000000 0.000000
# 2 -0.006668 0.014503 -0.004338 0.000000 0.000000 0.000000
# 3 -0.006853 -0.004338 0.013404 0.000000 0.000000 0.000000
# 4 0.000000 0.000000 0.000000 0.028763 0.000000 0.000000
# 5 0.000000 0.000000 0.000000 0.000000 0.034933 0.000000
# 6 0.000000 0.000000 0.000000 0.000000 0.000000 0.041352
#
#
# Mechanical properties :
#
#
# Convention : Reuss Voigt Hill
#
# Bulk Modulus (GPa) = 73.11026 77.08588 75.09807
# Shear Modulus (GPa) = 25.67731 26.96218 26.31974
#
# Velocity S-wave (km/s) = 3.73667 3.82902 3.78313
# Velocity P-wave (km/s) = 7.64020 7.84003 7.74076
#
# Compressibility (1/GPa) = 0.01367797
#
# Stress axis : x y z
#
# Youngs Moduli (GPa) = 46.53087 68.95350 74.60534
#
# Poissons Ratio (x) = 0.45982 0.51129
# Poissons Ratio (y) = 0.31029 0.32364
# Poissons Ratio (z) = 0.31889 0.29912
#
# Static dielectric constant tensor:
#      x y z
#    x 3.474370 0.000000 0.000000 
#    y 0.000000 3.503870 0.000000 
#    z 0.000000 0.000000 3.448980 
# 
# 
# High freq. dielectric constant tensor:
#      x y z
#    x 1.713750 0.000000 0.000000 
#    y 0.000000 1.718010 0.000000 
#    z 0.000000 0.000000 1.714860 
# 
# From -- ./inp_files/49173.got.cif
#   From: 2010.03.12/outbox.cif.g09.slc.cpg/sg74_25_cif.got.tgz:49173.got - 2010.04.16 15:46:19.
