data_PCOD8299387
_publ_section_title
;
Structure prediction by ZEFSAII (Michael W. Deem and Ramdas Pophale) SiO2 
 PCOD8299387
Probable space group: I M M A
;
_chemical_formula_sum "Si O2"
_cell_formula_units_Z 96
_cell_length_a 18.834976
_cell_length_b 9.111149
_cell_length_c 32.728586
_cell_angle_alpha 90.000000
_cell_angle_beta 90.000000
_cell_angle_gamma 90.000000
_cell_volume 5616.496113
_symmetry_space_group_name_H-M "I M M A"
_symmetry_group_IT_number 74
_symmetry_cell_setting 'orthorhombic'
loop_
_space_group_symop_operation_xyz
x,y,z
-x,1/2-y,z
x,-y,-z
-x,1/2+y,-z
-x,-y,-z
x,1/2+y,-z
-x,y,z
x,1/2-y,z
1/2+x,1/2+y,1/2+z
1/2-x,-y,1/2+z
1/2+x,1/2-y,1/2-z
1/2-x,y,1/2-z
1/2-x,1/2-y,1/2-z
1/2+x,y,1/2-z
1/2-x,1/2+y,1/2+z
1/2+x,-y,1/2+z
loop_
_atom_site_type_symbol
_atom_site_label
_atom_site_fract_x
_atom_site_fract_y
_atom_site_fract_z
Si Si1 0.581410 0.578153 0.242868
Si Si2 0.848659 0.422883 0.331457
Si Si3 0.922105 0.923786 0.586303
Si Si4 0.710919 0.577019 0.622397
Si Si5 0.080246 0.921996 0.826618
Si Si6 0.716635 0.924472 0.958238
O O1 0.500000 0.541420 0.231827
O O2 0.595182 0.750000 0.245780
O O3 0.632263 0.510283 0.209047
O O4 0.601728 0.507932 0.286069
O O5 0.853462 0.250000 0.322388
O O6 0.902061 0.470246 0.367664
O O7 0.769647 0.473083 0.344576
O O8 0.923748 0.750000 0.584433
O O9 0.862814 0.978664 0.554186
O O10 0.000000 0.989556 0.575360
O O11 0.716398 0.750000 0.619262
O O12 0.632962 0.525873 0.637084
O O13 0.729123 0.518175 0.576964
O O14 0.089437 0.750000 0.817552
O O15 0.000000 0.959384 0.840496
O O16 0.719549 0.750000 0.963503
O O17 0.740156 0.000000 0.000000
#
# Coordination Sequence:
#
# PCOD8299387 Si02
#       6
#    16  16  16  16  16  16
#     4  10  20  31  42  62  95 126 149 182 225 260
#     4   9  16  28  47  66  86 118 158 191 216 252
#     4   8  14  25  42  63  86 115 151 185 213 244
#     4   8  16  31  49  69  90 112 144 188 228 257
#     4   9  17  31  51  69  84 111 152 188 219 263
#     4   9  17  30  47  66  89 114 140 175 219 264
#
# _framework density 17.092507000000001
#
# number of rings (size 3 to 8) (size 9 to 14) (size 15 to 20)
#    0.000    3.167    0.000    3.000    0.000    2.667 
#    0.000    8.333    0.000    1.500    0.000    0.000 
#    0.000    0.000    0.000    0.000    0.000    0.000 
#
# Total GULP energy -594926.460655 kJ/mol
# GULP energy per Si atom -12394.301264 kJ/mol
# Density = 1.705360 g / cm^3
# Si number density = 17.092507 Si / 1000 Ang^3
#
#
#
# Elastic Constant Matrix: (Units=GPa)
#
#
# Indices 1 2 3 4 5 6 
#
# 1 109.8488 27.8094 86.0552 0.0000 0.0000 0.0000
# 2 27.8094 36.0822 40.0411 0.0000 0.0000 0.0000
# 3 86.0552 40.0411 139.2479 0.0000 0.0000 0.0000
# 4 0.0000 0.0000 0.0000 22.3021 0.0000 0.0000
# 5 0.0000 0.0000 0.0000 0.0000 19.3342 0.0000
# 6 0.0000 0.0000 0.0000 0.0000 0.0000 12.6204
#
#
#
# Elastic Compliance Matrix: (Units=1/GPa)
#
#
# Indices 1 2 3 4 5 6 
#
# 1 0.017767 -0.002216 -0.010343 0.000000 0.000000 0.000000
# 2 -0.002216 0.040979 -0.010414 0.000000 0.000000 0.000000
# 3 -0.010343 -0.010414 0.016568 0.000000 0.000000 0.000000
# 4 0.000000 0.000000 0.000000 0.044839 0.000000 0.000000
# 5 0.000000 0.000000 0.000000 0.000000 0.051722 0.000000
# 6 0.000000 0.000000 0.000000 0.000000 0.000000 0.079237
#
#
# Mechanical properties :
#
#
# Convention : Reuss Voigt Hill
#
# Bulk Modulus (GPa) = 34.05035 65.88780 49.96908
# Shear Modulus (GPa) = 16.29477 19.60287 17.94882
#
# Velocity S-wave (km/s) = 3.09095 3.39022 3.24404
# Velocity P-wave (km/s) = 5.71866 7.34549 6.58253
#
# Compressibility (1/GPa) = 0.02936827
#
# Stress axis : x y z
#
# Youngs Moduli (GPa) = 56.28450 24.40260 60.35753
#
# Poissons Ratio (x) = 0.05407 0.62426
# Poissons Ratio (y) = 0.12472 0.62858
# Poissons Ratio (z) = 0.58214 0.25414
#
# Static dielectric constant tensor:
#      x y z
#    x 3.512210 0.000000 0.000000 
#    y 0.000000 2.820460 0.000000 
#    z 0.000000 0.000000 3.188480 
# 
# 
# High freq. dielectric constant tensor:
#      x y z
#    x 1.655600 0.000000 0.000000 
#    y 0.000000 1.623930 0.000000 
#    z 0.000000 0.000000 1.652150 
# 
# From -- ./inp_files/68155.got.cif
#   From: 2010.03.12/outbox.cif.g09.slc.cpg/sg74_35_cif.got.tgz:68155.got - 2010.04.16 15:46:19.
