data_PCOD8299372
_publ_section_title
;
Structure prediction by ZEFSAII (Michael W. Deem and Ramdas Pophale) SiO2 
 PCOD8299372
Probable space group: I M M A
;
_chemical_formula_sum "Si O2"
_cell_formula_units_Z 104
_cell_length_a 9.079644
_cell_length_b 29.551800
_cell_length_c 24.340688
_cell_angle_alpha 90.000000
_cell_angle_beta 90.000000
_cell_angle_gamma 90.000000
_cell_volume 6531.089109
_symmetry_space_group_name_H-M "I M M A"
_symmetry_group_IT_number 74
_symmetry_cell_setting 'orthorhombic'
loop_
_space_group_symop_operation_xyz
x,y,z
-x,1/2-y,z
x,-y,-z
-x,1/2+y,-z
-x,-y,-z
x,1/2+y,-z
-x,y,z
x,1/2-y,z
1/2+x,1/2+y,1/2+z
1/2-x,-y,1/2+z
1/2+x,1/2-y,1/2-z
1/2-x,y,1/2-z
1/2-x,1/2-y,1/2-z
1/2+x,y,1/2-z
1/2-x,1/2+y,1/2+z
1/2+x,-y,1/2+z
loop_
_atom_site_type_symbol
_atom_site_label
_atom_site_fract_x
_atom_site_fract_y
_atom_site_fract_z
Si Si1 0.170586 0.494753 0.589170
Si Si2 0.324471 0.658125 0.546333
Si Si3 0.344178 0.750000 0.829010
Si Si4 0.329109 0.573463 0.993337
Si Si5 0.661573 0.384560 0.342542
Si Si6 0.823316 0.250000 0.446781
Si Si7 0.250000 0.324467 0.250000
Si Si8 0.324126 0.019452 0.307080
O O1 0.200391 0.451985 0.550367
O O2 0.215853 0.540802 0.557311
O O3 0.269934 0.487107 0.643533
O O4 0.000000 0.497040 0.606106
O O5 0.500000 0.664981 0.543958
O O6 0.272965 0.617961 0.505984
O O7 0.264152 0.643294 0.607393
O O8 0.244261 0.704323 0.526872
O O9 0.500000 0.750000 0.858997
O O10 0.247845 0.750000 0.884411
O O11 0.341844 0.706212 0.791105
O O12 0.500000 0.587152 0.988076
O O13 0.500000 0.397766 0.363768
O O14 0.644686 0.354508 0.287738
O O15 0.740705 0.431094 0.324767
O O16 0.000000 0.250000 0.454973
O O17 0.500000 0.018187 0.300312
O O18 0.250000 0.004328 0.250000
#
# Coordination Sequence:
#
# PCOD8299372 Si02
#       8
#    16  16   8  16  16   8   8  16
#     4   9  18  33  51  73  97 123 157 196 242 291
#     4  11  21  35  49  68  91 119 155 200 249 291
#     4  10  21  30  42  57  72 106 152 197 242 286
#     4   9  18  33  53  73  94 122 156 198 244 293
#     4  10  20  30  42  60  85 115 152 195 242 288
#     4  11  22  36  48  66  88 116 157 199 249 300
#     4  11  18  34  42  52  78 108 156 196 244 283
#     4  11  21  33  47  69  97 127 161 197 242 288
#
# _framework density 15.923837000000001
#
# number of rings (size 3 to 8) (size 9 to 14) (size 15 to 20)
#    0.000    1.846    3.846    2.538    0.000    0.615 
#    0.000    1.538    0.000    0.000    0.000    0.000 
#    0.000    0.000    0.000    0.692    0.000    9.231 
#
# Total GULP energy -644294.356142 kJ/mol
# GULP energy per Si atom -12390.276080 kJ/mol
# Density = 1.588759 g / cm^3
# Si number density = 15.923837 Si / 1000 Ang^3
#
#
#
# Elastic Constant Matrix: (Units=GPa)
#
#
# Indices 1 2 3 4 5 6 
#
# 1 78.1981 37.0642 35.1379 0.0000 0.0000 0.0000
# 2 37.0642 84.5442 34.4543 0.0000 0.0000 0.0000
# 3 35.1379 34.4543 75.8820 0.0000 0.0000 0.0000
# 4 0.0000 0.0000 0.0000 18.6217 0.0000 0.0000
# 5 0.0000 0.0000 0.0000 0.0000 22.5301 0.0000
# 6 0.0000 0.0000 0.0000 0.0000 0.0000 25.0359
#
#
#
# Elastic Compliance Matrix: (Units=1/GPa)
#
#
# Indices 1 2 3 4 5 6 
#
# 1 0.018031 -0.005524 -0.005841 0.000000 0.000000 0.000000
# 2 -0.005524 0.016206 -0.004800 0.000000 0.000000 0.000000
# 3 -0.005841 -0.004800 0.018063 0.000000 0.000000 0.000000
# 4 0.000000 0.000000 0.000000 0.053701 0.000000 0.000000
# 5 0.000000 0.000000 0.000000 0.000000 0.044385 0.000000
# 6 0.000000 0.000000 0.000000 0.000000 0.000000 0.039943
#
#
# Mechanical properties :
#
#
# Convention : Reuss Voigt Hill
#
# Bulk Modulus (GPa) = 50.07911 50.21524 50.14718
# Shear Modulus (GPa) = 21.80390 22.03540 21.91965
#
# Velocity S-wave (km/s) = 3.70437 3.72398 3.71419
# Velocity P-wave (km/s) = 7.05789 7.07770 7.06780
#
# Compressibility (1/GPa) = 0.01996841
#
# Stress axis : x y z
#
# Youngs Moduli (GPa) = 55.45952 61.70430 55.36249
#
# Poissons Ratio (x) = 0.34088 0.32338
# Poissons Ratio (y) = 0.30638 0.26576
# Poissons Ratio (z) = 0.32395 0.29620
#
# Static dielectric constant tensor:
#      x y z
#    x 2.844180 0.000000 0.000000 
#    y 0.000000 2.901970 0.000000 
#    z 0.000000 0.000000 2.812270 
# 
# 
# High freq. dielectric constant tensor:
#      x y z
#    x 1.608210 0.000000 0.000000 
#    y 0.000000 1.591420 0.000000 
#    z 0.000000 0.000000 1.581250 
# 
# From -- ./inp_files/57876.got.cif
#   From: 2010.03.12/outbox.cif.g09.slc.cpg/sg74_29_cif.got.tgz:57876.got - 2010.04.16 15:46:19.
