data_PCOD8299284
_publ_section_title
;
Structure prediction by ZEFSAII (Michael W. Deem and Ramdas Pophale) SiO2 
 PCOD8299284
Probable space group: I M M A
;
_chemical_formula_sum "Si O2"
_cell_formula_units_Z 112
_cell_length_a 18.585457
_cell_length_b 17.856490
_cell_length_c 17.799254
_cell_angle_alpha 90.000000
_cell_angle_beta 90.000000
_cell_angle_gamma 90.000000
_cell_volume 5907.056706
_symmetry_space_group_name_H-M "I M M A"
_symmetry_group_IT_number 74
_symmetry_cell_setting 'orthorhombic'
loop_
_space_group_symop_operation_xyz
x,y,z
-x,1/2-y,z
x,-y,-z
-x,1/2+y,-z
-x,-y,-z
x,1/2+y,-z
-x,y,z
x,1/2-y,z
1/2+x,1/2+y,1/2+z
1/2-x,-y,1/2+z
1/2+x,1/2-y,1/2-z
1/2-x,y,1/2-z
1/2-x,1/2-y,1/2-z
1/2+x,y,1/2-z
1/2-x,1/2+y,1/2+z
1/2+x,-y,1/2+z
loop_
_atom_site_type_symbol
_atom_site_label
_atom_site_fract_x
_atom_site_fract_y
_atom_site_fract_z
Si Si1 0.915244 0.663456 0.338899
Si Si2 0.918726 0.101265 0.229149
Si Si3 0.294337 0.423466 0.177195
Si Si4 0.917732 0.072555 0.807457
Si Si5 0.330145 0.549751 0.068558
Si Si6 0.332698 0.423160 0.539825
Si Si7 0.330291 0.335817 0.399981
O O1 0.890238 0.750000 0.340203
O O2 0.891495 0.626948 0.259520
O O3 0.880445 0.619799 0.409665
O O4 0.000000 0.655930 0.349062
O O5 0.863796 0.125594 0.296028
O O6 0.896828 0.144082 0.153652
O O7 0.000000 0.123248 0.251138
O O8 0.909507 0.012849 0.217584
O O9 0.250000 0.448175 0.250000
O O10 0.324292 0.498231 0.141166
O O11 0.243236 0.379561 0.119946
O O12 0.869472 0.088527 0.880166
O O13 0.000000 0.090245 0.829032
O O14 0.252678 0.581187 0.047075
O O15 0.362938 0.500000 0.000000
O O16 0.357791 0.500000 0.500000
O O17 0.355124 0.355941 0.484195
O O18 0.311056 0.250000 0.392690
#
# Coordination Sequence:
#
# PCOD8299284 Si02
#       7
#    16  16  16  16  16  16  16
#     4  10  23  42  62  89 124 155 190 246 305 349
#     4  10  20  35  60  87 111 150 201 245 280 344
#     4  10  19  36  61  84 113 154 194 238 283 349
#     4  10  20  36  62  88 117 158 201 236 289 355
#     4  11  21  36  61  90 116 153 196 242 285 345
#     4  11  20  36  58  87 120 153 197 247 286 346
#     4  11  23  38  56  83 119 157 190 239 306 349
#
# _framework density 18.960373000000001
#
# number of rings (size 3 to 8) (size 9 to 14) (size 15 to 20)
#    0.000    1.571    5.714    0.857    0.000    5.143 
#    0.000    0.714    0.000    0.000    0.000    0.000 
#    0.000    0.000    0.000    0.000    0.000    0.000 
#
# Total GULP energy -694324.614239 kJ/mol
# GULP energy per Si atom -12398.653826 kJ/mol
# Density = 1.891722 g / cm^3
# Si number density = 18.960373 Si / 1000 Ang^3
#
#
#
# Elastic Constant Matrix: (Units=GPa)
#
#
# Indices 1 2 3 4 5 6 
#
# 1 74.3308 19.2884 33.1636 0.0000 0.0000 0.0000
# 2 19.2884 97.5438 44.4599 0.0000 0.0000 0.0000
# 3 33.1636 44.4599 100.0667 0.0000 0.0000 0.0000
# 4 0.0000 0.0000 0.0000 27.7418 0.0000 0.0000
# 5 0.0000 0.0000 0.0000 0.0000 17.0475 0.0000
# 6 0.0000 0.0000 0.0000 0.0000 0.0000 20.8847
#
#
#
# Elastic Compliance Matrix: (Units=1/GPa)
#
#
# Indices 1 2 3 4 5 6 
#
# 1 0.015855 -0.000928 -0.004842 0.000000 0.000000 0.000000
# 2 -0.000928 0.012909 -0.005428 0.000000 0.000000 0.000000
# 3 -0.004842 -0.005428 0.014010 0.000000 0.000000 0.000000
# 4 0.000000 0.000000 0.000000 0.036047 0.000000 0.000000
# 5 0.000000 0.000000 0.000000 0.000000 0.058660 0.000000
# 6 0.000000 0.000000 0.000000 0.000000 0.000000 0.047882
#
#
# Mechanical properties :
#
#
# Convention : Reuss Voigt Hill
#
# Bulk Modulus (GPa) = 49.07445 51.75168 50.41306
# Shear Modulus (GPa) = 23.30449 24.80343 24.05396
#
# Velocity S-wave (km/s) = 3.50968 3.62079 3.56567
# Velocity P-wave (km/s) = 6.50866 6.69582 6.60290
#
# Compressibility (1/GPa) = 0.02037720
#
# Stress axis : x y z
#
# Youngs Moduli (GPa) = 63.07331 77.46276 71.37867
#
# Poissons Ratio (x) = 0.07189 0.34562
# Poissons Ratio (y) = 0.05854 0.38745
# Poissons Ratio (z) = 0.30541 0.42048
#
# Static dielectric constant tensor:
#      x y z
#    x 3.596240 0.000000 0.000000 
#    y 0.000000 3.337060 0.000000 
#    z 0.000000 0.000000 3.619840 
# 
# 
# High freq. dielectric constant tensor:
#      x y z
#    x 1.733310 0.000000 0.000000 
#    y 0.000000 1.718060 0.000000 
#    z 0.000000 0.000000 1.742820 
# 
# From -- ./inp_files/45438.got.cif
#   From: 2010.03.12/outbox.cif.g09.slc.cpg/sg74_23_cif.got.tgz:45438.got - 2010.04.16 15:46:19.
