data_PCOD8299629
_publ_section_title
;
Structure prediction by ZEFSAII (Michael W. Deem and Ramdas Pophale) SiO2 
 PCOD8299629
Probable space group: I M M A
;
_chemical_formula_sum "Si O2"
_cell_formula_units_Z 80
_cell_length_a 28.166267
_cell_length_b 8.849421
_cell_length_c 17.490719
_cell_angle_alpha 90.000000
_cell_angle_beta 90.000000
_cell_angle_gamma 90.000000
_cell_volume 4359.651870
_symmetry_space_group_name_H-M "I M M A"
_symmetry_group_IT_number 74
_symmetry_cell_setting 'orthorhombic'
loop_
_space_group_symop_operation_xyz
x,y,z
-x,1/2-y,z
x,-y,-z
-x,1/2+y,-z
-x,-y,-z
x,1/2+y,-z
-x,y,z
x,1/2-y,z
1/2+x,1/2+y,1/2+z
1/2-x,-y,1/2+z
1/2+x,1/2-y,1/2-z
1/2-x,y,1/2-z
1/2-x,1/2-y,1/2-z
1/2+x,y,1/2-z
1/2-x,1/2+y,1/2+z
1/2+x,-y,1/2+z
loop_
_atom_site_type_symbol
_atom_site_label
_atom_site_fract_x
_atom_site_fract_y
_atom_site_fract_z
Si Si1 0.641503 0.428603 0.203498
Si Si2 0.445687 0.927531 0.268045
Si Si3 0.210812 0.072028 0.582286
Si Si4 0.284381 0.084036 0.321636
Si Si5 0.055956 0.418452 0.074341
O O1 0.642596 0.250000 0.188700
O O2 0.587641 0.489612 0.206049
O O3 0.668706 0.509347 0.134792
O O4 0.665377 0.469902 0.286051
O O5 0.500000 0.970893 0.248740
O O6 0.437415 0.750000 0.263675
O O7 0.431311 0.983177 0.352078
O O8 0.206311 0.250000 0.576309
O O9 0.204612 0.000000 0.500000
O O10 0.262870 0.030989 0.616356
O O11 0.289068 0.250000 0.360238
O O12 0.250000 0.096921 0.250000
O O13 0.077795 0.250000 0.082919
O O14 0.000000 0.405495 0.063487
O O15 0.078409 0.500000 0.000000
#
# Coordination Sequence:
#
# PCOD8299629 Si02
#       5
#    16  16  16  16  16
#     4  10  20  35  55  78 106 139 176 217 261 311
#     4  10  20  33  50  74 104 139 181 225 266 312
#     4  11  21  34  55  81 109 139 172 211 258 313
#     4   8  16  32  52  75 103 132 163 203 252 305
#     4   9  16  27  44  65  90 122 161 206 255 303
#
# _framework density 18.350090000000002
#
# number of rings (size 3 to 8) (size 9 to 14) (size 15 to 20)
#    0.000    2.400    0.000    4.800    0.000    8.000 
#    0.000    1.000    0.000    5.400    0.000    0.000 
#    0.000    0.000    0.000    0.000    0.000    0.000 
#
# Total GULP energy -495854.877083 kJ/mol
# GULP energy per Si atom -12396.371927 kJ/mol
# Density = 1.830832 g / cm^3
# Si number density = 18.350090 Si / 1000 Ang^3
#
#
#
# Elastic Constant Matrix: (Units=GPa)
#
#
# Indices 1 2 3 4 5 6 
#
# 1 86.5244 52.6779 45.8616 0.0000 0.0000 0.0000
# 2 52.6779 140.8477 63.9911 0.0000 0.0000 0.0000
# 3 45.8616 63.9911 97.8255 0.0000 0.0000 0.0000
# 4 0.0000 0.0000 0.0000 32.7222 0.0000 0.0000
# 5 0.0000 0.0000 0.0000 0.0000 5.7972 0.0000
# 6 0.0000 0.0000 0.0000 0.0000 0.0000 10.3595
#
#
#
# Elastic Compliance Matrix: (Units=1/GPa)
#
#
# Indices 1 2 3 4 5 6 
#
# 1 0.016714 -0.003829 -0.005331 0.000000 0.000000 0.000000
# 2 -0.003829 0.010979 -0.005387 0.000000 0.000000 0.000000
# 3 -0.005331 -0.005387 0.016245 0.000000 0.000000 0.000000
# 4 0.000000 0.000000 0.000000 0.030560 0.000000 0.000000
# 5 0.000000 0.000000 0.000000 0.000000 0.172497 0.000000
# 6 0.000000 0.000000 0.000000 0.000000 0.000000 0.096530
#
#
# Mechanical properties :
#
#
# Convention : Reuss Voigt Hill
#
# Bulk Modulus (GPa) = 67.36347 72.25098 69.80723
# Shear Modulus (GPa) = 13.24262 20.62025 16.93144
#
# Velocity S-wave (km/s) = 2.68930 3.35582 3.04088
# Velocity P-wave (km/s) = 6.81417 7.38068 7.10308
#
# Compressibility (1/GPa) = 0.01484484
#
# Stress axis : x y z
#
# Youngs Moduli (GPa) = 59.82841 91.07949 61.55640
#
# Poissons Ratio (x) = 0.34877 0.32816
# Poissons Ratio (y) = 0.22910 0.33159
# Poissons Ratio (z) = 0.31895 0.49063
#
# Static dielectric constant tensor:
#      x y z
#    x 3.582180 0.000000 0.000000 
#    y 0.000000 3.510210 0.000000 
#    z 0.000000 0.000000 3.185770 
# 
# 
# High freq. dielectric constant tensor:
#      x y z
#    x 1.695530 0.000000 0.000000 
#    y 0.000000 1.724460 0.000000 
#    z 0.000000 0.000000 1.686860 
# 
# From -- ./inp_files/39721.got.cif
#   From: 2010.03.12/outbox.cif.g09.slc.cpg/sg74_20_cif.got.tgz:39721.got - 2010.04.16 15:46:19.
