data_PCOD8299384
_publ_section_title
;
Structure prediction by ZEFSAII (Michael W. Deem and Ramdas Pophale) SiO2 
 PCOD8299384
Probable space group: I M M A
;
_chemical_formula_sum "Si O2"
_cell_formula_units_Z 88
_cell_length_a 29.616155
_cell_length_b 9.353292
_cell_length_c 19.542015
_cell_angle_alpha 90.000000
_cell_angle_beta 90.000000
_cell_angle_gamma 90.000000
_cell_volume 5413.305154
_symmetry_space_group_name_H-M "I M M A"
_symmetry_group_IT_number 74
_symmetry_cell_setting 'orthorhombic'
loop_
_space_group_symop_operation_xyz
x,y,z
-x,1/2-y,z
x,-y,-z
-x,1/2+y,-z
-x,-y,-z
x,1/2+y,-z
-x,y,z
x,1/2-y,z
1/2+x,1/2+y,1/2+z
1/2-x,-y,1/2+z
1/2+x,1/2-y,1/2-z
1/2-x,y,1/2-z
1/2-x,1/2-y,1/2-z
1/2+x,y,1/2-z
1/2-x,1/2+y,1/2+z
1/2+x,-y,1/2+z
loop_
_atom_site_type_symbol
_atom_site_label
_atom_site_fract_x
_atom_site_fract_y
_atom_site_fract_z
Si Si1 0.713511 0.593033 0.884024
Si Si2 0.550990 0.916323 0.067337
Si Si3 0.367515 0.082748 0.840194
Si Si4 0.750000 0.500133 0.250000
Si Si5 0.338643 0.409037 0.693633
Si Si6 0.311027 0.579746 0.567557
O O1 0.698673 0.750000 0.909749
O O2 0.670769 0.487551 0.889160
O O3 0.727539 0.604938 0.804840
O O4 0.757805 0.539987 0.925282
O O5 0.500000 0.958160 0.088835
O O6 0.554943 0.750000 0.049852
O O7 0.583556 0.958532 0.130093
O O8 0.566401 0.000000 0.000000
O O9 0.357552 0.250000 0.843710
O O10 0.366663 0.034062 0.760236
O O11 0.713364 0.604446 0.283738
O O12 0.355029 0.250000 0.671236
O O13 0.341528 0.520185 0.630560
O O14 0.328953 0.500000 0.500000
O O15 0.318180 0.750000 0.562969
#
# Coordination Sequence:
#
# PCOD8299384 Si02
#       6
#    16  16  16   8  16  16
#     4   9  17  27  40  58  80 108 142 180 214 246
#     4   9  18  33  50  67  89 116 144 174 211 256
#     4   9  18  30  45  65  87 113 144 179 218 259
#     4   8  14  24  40  58  78 106 140 172 210 252
#     4   9  16  27  43  61  82 109 143 180 217 255
#     4  10  20  31  42  58  83 116 151 183 218 256
#
# _framework density 16.256242
#
# number of rings (size 3 to 8) (size 9 to 14) (size 15 to 20)
#    0.000    2.909    0.000    1.091    0.000   10.909 
#    0.000    3.636    0.000    0.000    0.000    0.000 
#    0.000    0.727    0.000    1.273    0.000    1.818 
#
# Total GULP energy -545182.574342 kJ/mol
# GULP energy per Si atom -12390.513053 kJ/mol
# Density = 1.621924 g / cm^3
# Si number density = 16.256242 Si / 1000 Ang^3
#
#
#
# Elastic Constant Matrix: (Units=GPa)
#
#
# Indices 1 2 3 4 5 6 
#
# 1 66.0774 26.9587 45.3880 0.0000 0.0000 0.0000
# 2 26.9587 65.5522 45.8310 0.0000 0.0000 0.0000
# 3 45.3880 45.8310 104.4234 0.0000 0.0000 0.0000
# 4 0.0000 0.0000 0.0000 23.4434 0.0000 0.0000
# 5 0.0000 0.0000 0.0000 0.0000 24.2180 0.0000
# 6 0.0000 0.0000 0.0000 0.0000 0.0000 15.4799
#
#
#
# Elastic Compliance Matrix: (Units=1/GPa)
#
#
# Indices 1 2 3 4 5 6 
#
# 1 0.022095 -0.003422 -0.008102 0.000000 0.000000 0.000000
# 2 -0.003422 0.022539 -0.008405 0.000000 0.000000 0.000000
# 3 -0.008102 -0.008405 0.016786 0.000000 0.000000 0.000000
# 4 0.000000 0.000000 0.000000 0.042656 0.000000 0.000000
# 5 0.000000 0.000000 0.000000 0.000000 0.041292 0.000000
# 6 0.000000 0.000000 0.000000 0.000000 0.000000 0.064600
#
#
# Mechanical properties :
#
#
# Convention : Reuss Voigt Hill
#
# Bulk Modulus (GPa) = 46.37577 52.48982 49.43280
# Shear Modulus (GPa) = 19.45433 20.48661 19.97047
#
# Velocity S-wave (km/s) = 3.46313 3.55382 3.50877
# Velocity P-wave (km/s) = 6.67690 7.01418 6.84761
#
# Compressibility (1/GPa) = 0.02156298
#
# Stress axis : x y z
#
# Youngs Moduli (GPa) = 45.25921 44.36844 59.57177
#
# Poissons Ratio (x) = 0.15185 0.48262
# Poissons Ratio (y) = 0.15490 0.50067
# Poissons Ratio (z) = 0.36667 0.37289
#
# Static dielectric constant tensor:
#      x y z
#    x 2.859700 0.000000 0.000000 
#    y 0.000000 2.992840 0.000000 
#    z 0.000000 0.000000 3.150190 
# 
# 
# High freq. dielectric constant tensor:
#      x y z
#    x 1.575680 0.000000 0.000000 
#    y 0.000000 1.626490 0.000000 
#    z 0.000000 0.000000 1.619870 
# 
# From -- ./inp_files/55543.got.cif
#   From: 2010.03.12/outbox.cif.g09.slc.cpg/sg74_28_cif.got.tgz:55543.got - 2010.04.16 15:46:19.
