data_PCOD8299782
_publ_section_title
;
Structure prediction by ZEFSAII (Michael W. Deem and Ramdas Pophale) SiO2 
 PCOD8299782
Probable space group: I M M A
;
_chemical_formula_sum "Si O2"
_cell_formula_units_Z 104
_cell_length_a 9.423480
_cell_length_b 21.020300
_cell_length_c 27.736022
_cell_angle_alpha 90.000000
_cell_angle_beta 90.000000
_cell_angle_gamma 90.000000
_cell_volume 5494.072628
_symmetry_space_group_name_H-M "I M M A"
_symmetry_group_IT_number 74
_symmetry_cell_setting 'orthorhombic'
loop_
_space_group_symop_operation_xyz
x,y,z
-x,1/2-y,z
x,-y,-z
-x,1/2+y,-z
-x,-y,-z
x,1/2+y,-z
-x,y,z
x,1/2-y,z
1/2+x,1/2+y,1/2+z
1/2-x,-y,1/2+z
1/2+x,1/2-y,1/2-z
1/2-x,y,1/2-z
1/2-x,1/2-y,1/2-z
1/2+x,y,1/2-z
1/2-x,1/2+y,1/2+z
1/2+x,-y,1/2+z
loop_
_atom_site_type_symbol
_atom_site_label
_atom_site_fract_x
_atom_site_fract_y
_atom_site_fract_z
Si Si1 0.837375 0.323144 0.348953
Si Si2 0.833538 0.649825 0.120089
Si Si3 0.335845 0.907309 0.941254
Si Si4 0.162236 0.820481 0.472407
Si Si5 0.164272 0.080298 0.204992
Si Si6 0.834015 0.250000 0.799973
Si Si7 0.662560 0.505234 0.387393
O O1 0.798138 0.250000 0.355119
O O2 0.807981 0.356343 0.399677
O O3 0.734017 0.352057 0.308549
O O4 0.000000 0.333023 0.332550
O O5 0.754850 0.681124 0.075410
O O6 0.792630 0.687103 0.169130
O O7 0.785157 0.576546 0.123146
O O8 0.000000 0.656817 0.110681
O O9 0.500000 0.925841 0.945203
O O10 0.251240 0.972507 0.930598
O O11 0.281204 0.873954 0.990317
O O12 0.172358 0.750000 0.496154
O O13 0.000000 0.835850 0.458703
O O14 0.250000 0.051403 0.250000
O O15 0.000000 0.090145 0.217992
O O16 0.187022 0.031284 0.162088
O O17 0.750000 0.250000 0.750000
O O18 0.000000 0.250000 0.787456
O O19 0.500000 0.503588 0.403932
#
# Coordination Sequence:
#
# PCOD8299782 Si02
#       7
#    16  16  16  16  16   8  16
#     4   9  17  31  51  73 100 136 177 219 263 310
#     4  10  21  39  59  81 110 143 178 219 271 326
#     4   9  18  33  53  79 110 144 181 221 266 314
#     4  10  20  34  55  83 114 146 182 224 267 315
#     4  10  20  34  51  72  99 132 172 218 268 319
#     4  10  22  40  62  86 112 142 180 228 281 336
#     4   9  20  37  55  76 106 141 179 223 268 323
#
# _framework density 18.929490999999999
#
# number of rings (size 3 to 8) (size 9 to 14) (size 15 to 20)
#    0.000    2.462    0.769    0.923    0.000    6.154 
#    0.000    3.077    0.000    2.769    0.000    0.000 
#    0.000    0.000    0.000    0.000    0.000    0.000 
#
# Total GULP energy -644778.897401 kJ/mol
# GULP energy per Si atom -12399.594181 kJ/mol
# Density = 1.888641 g / cm^3
# Si number density = 18.929491 Si / 1000 Ang^3
#
#
#
# Elastic Constant Matrix: (Units=GPa)
#
#
# Indices 1 2 3 4 5 6 
#
# 1 73.6326 46.3151 55.2079 0.0000 0.0000 0.0000
# 2 46.3151 138.0951 48.8160 0.0000 0.0000 0.0000
# 3 55.2079 48.8160 109.8682 0.0000 0.0000 0.0000
# 4 0.0000 0.0000 0.0000 20.0289 0.0000 0.0000
# 5 0.0000 0.0000 0.0000 0.0000 33.4689 0.0000
# 6 0.0000 0.0000 0.0000 0.0000 0.0000 27.3748
#
#
#
# Elastic Compliance Matrix: (Units=1/GPa)
#
#
# Indices 1 2 3 4 5 6 
#
# 1 0.023916 -0.004476 -0.010029 0.000000 0.000000 0.000000
# 2 -0.004476 0.009428 -0.001940 0.000000 0.000000 0.000000
# 3 -0.010029 -0.001940 0.015003 0.000000 0.000000 0.000000
# 4 0.000000 0.000000 0.000000 0.049928 0.000000 0.000000
# 5 0.000000 0.000000 0.000000 0.000000 0.029879 0.000000
# 6 0.000000 0.000000 0.000000 0.000000 0.000000 0.036530
#
#
# Mechanical properties :
#
#
# Convention : Reuss Voigt Hill
#
# Bulk Modulus (GPa) = 64.69216 69.14155 66.91686
# Shear Modulus (GPa) = 24.66395 27.59164 26.12780
#
# Velocity S-wave (km/s) = 3.61354 3.82200 3.71923
# Velocity P-wave (km/s) = 7.18747 7.48879 7.33968
#
# Compressibility (1/GPa) = 0.01545782
#
# Stress axis : x y z
#
# Youngs Moduli (GPa) = 41.81383 106.06344 66.65267
#
# Poissons Ratio (x) = 0.47472 0.66844
# Poissons Ratio (y) = 0.18715 0.12931
# Poissons Ratio (z) = 0.41934 0.20577
#
# Static dielectric constant tensor:
#      x y z
#    x 3.441520 0.000000 0.000000 
#    y 0.000000 3.621840 0.000000 
#    z 0.000000 0.000000 3.403160 
# 
# 
# High freq. dielectric constant tensor:
#      x y z
#    x 1.729340 0.000000 0.000000 
#    y 0.000000 1.742160 0.000000 
#    z 0.000000 0.000000 1.730360 
# 
# From -- ./inp_files/64443.got.cif
#   From: 2010.03.12/outbox.cif.g09.slc.cpg/sg74_33_cif.got.tgz:64443.got - 2010.04.16 15:46:19.
