data_PCOD8299264
_publ_section_title
;
Structure prediction by ZEFSAII (Michael W. Deem and Ramdas Pophale) SiO2 
 PCOD8299264
Probable space group: I M M A
;
_chemical_formula_sum "Si O2"
_cell_formula_units_Z 120
_cell_length_a 21.485754
_cell_length_b 26.453578
_cell_length_c 12.120170
_cell_angle_alpha 90.000000
_cell_angle_beta 90.000000
_cell_angle_gamma 90.000000
_cell_volume 6888.802464
_symmetry_space_group_name_H-M "I M M A"
_symmetry_group_IT_number 74
_symmetry_cell_setting 'orthorhombic'
loop_
_space_group_symop_operation_xyz
x,y,z
-x,1/2-y,z
x,-y,-z
-x,1/2+y,-z
-x,-y,-z
x,1/2+y,-z
-x,y,z
x,1/2-y,z
1/2+x,1/2+y,1/2+z
1/2-x,-y,1/2+z
1/2+x,1/2-y,1/2-z
1/2-x,y,1/2-z
1/2-x,1/2-y,1/2-z
1/2+x,y,1/2-z
1/2-x,1/2+y,1/2+z
1/2+x,-y,1/2+z
loop_
_atom_site_type_symbol
_atom_site_label
_atom_site_fract_x
_atom_site_fract_y
_atom_site_fract_z
Si Si1 0.877469 0.584594 0.200692
Si Si2 0.883128 0.446482 0.445652
Si Si3 0.570926 0.139473 0.894393
Si Si4 0.430391 0.978791 0.728819
Si Si5 0.144867 0.942860 0.967213
Si Si6 0.264091 0.112352 0.122136
Si Si7 0.250000 0.634489 0.250000
Si Si8 0.806955 0.691294 0.452939
O O1 0.920715 0.625106 0.264824
O O2 0.889053 0.528555 0.246630
O O3 0.805783 0.596905 0.222639
O O4 0.890338 0.584632 0.069391
O O5 0.870132 0.500000 0.500000
O O6 0.913072 0.410281 0.536256
O O7 0.931577 0.449346 0.344618
O O8 0.818614 0.427850 0.393968
O O9 0.500000 0.157645 0.914490
O O10 0.619225 0.183099 0.929795
O O11 0.500000 0.994210 0.694497
O O12 0.402740 0.942753 0.634299
O O13 0.204405 0.909988 0.938232
O O14 0.164474 0.000000 0.000000
O O15 0.250000 0.122599 0.250000
O O16 0.284925 0.164833 0.065771
O O17 0.233910 0.669993 0.352775
O O18 0.793621 0.750000 0.466455
#
# Coordination Sequence:
#
# PCOD8299264 Si02
#       8
#    16  16  16  16  16  16   8  16
#     4  10  20  32  53  77 109 144 180 219 260 308
#     4  11  21  33  52  81 112 153 181 217 260 309
#     4  10  21  35  54  82 112 145 180 215 261 323
#     4  11  22  33  49  75 112 153 189 217 250 309
#     4  10  21  35  51  77 111 150 182 222 261 308
#     4  11  21  37  57  80 110 138 187 227 277 325
#     4  10  19  36  58  80 108 136 174 220 279 336
#     4  10  22  38  59  84 106 135 174 228 287 332
#
# _framework density 17.419573
#
# number of rings (size 3 to 8) (size 9 to 14) (size 15 to 20)
#    0.000    1.600    4.000    1.400    0.000    6.133 
#    0.000    0.000    0.000    0.000    0.000    0.000 
#    0.000    0.533    0.000    0.000    0.000    0.000 
#
# Total GULP energy -743953.992041 kJ/mol
# GULP energy per Si atom -12399.233201 kJ/mol
# Density = 1.737993 g / cm^3
# Si number density = 17.419573 Si / 1000 Ang^3
#
#
#
# Elastic Constant Matrix: (Units=GPa)
#
#
# Indices 1 2 3 4 5 6 
#
# 1 110.9600 35.8720 35.4766 0.0000 0.0000 0.0000
# 2 35.8720 71.3184 31.0688 0.0000 0.0000 0.0000
# 3 35.4766 31.0688 114.6749 0.0000 0.0000 0.0000
# 4 0.0000 0.0000 0.0000 15.1533 0.0000 0.0000
# 5 0.0000 0.0000 0.0000 0.0000 19.5087 0.0000
# 6 0.0000 0.0000 0.0000 0.0000 0.0000 -1.4657
#
#
#
# Elastic Compliance Matrix: (Units=1/GPa)
#
#
# Indices 1 2 3 4 5 6 
#
# 1 0.011233 -0.004690 -0.002205 0.000000 0.000000 0.000000
# 2 -0.004690 0.017856 -0.003387 0.000000 0.000000 0.000000
# 3 -0.002205 -0.003387 0.010320 0.000000 0.000000 0.000000
# 4 0.000000 0.000000 0.000000 0.065992 0.000000 0.000000
# 5 0.000000 0.000000 0.000000 0.000000 0.051259 0.000000
# 6 0.000000 0.000000 0.000000 0.000000 0.000000 -0.682274
#
#
# Mechanical properties :
#
#
# Convention : Reuss Voigt Hill
#
# Bulk Modulus (GPa) = 53.05963 55.75423 54.40693
# Shear Modulus (GPa) = -10.02469 19.60833 4.79182
#
# Velocity S-wave (km/s) = -2.40153 3.35871 1.66036
# Velocity P-wave (km/s) = 4.77872 6.86421 5.91411
#
# Compressibility (1/GPa) = 0.01884672
#
# Stress axis : x y z
#
# Youngs Moduli (GPa) = 89.02135 56.00389 96.89991
#
# Poissons Ratio (x) = 0.26264 0.21363
# Poissons Ratio (y) = 0.41749 0.32818
# Poissons Ratio (z) = 0.19626 0.18968
#
# Static dielectric constant tensor:
#      x y z
#    x 3.243850 0.000000 0.000000 
#    y 0.000000 2.926550 0.000000 
#    z 0.000000 0.000000 3.546030 
# 
# 
# High freq. dielectric constant tensor:
#      x y z
#    x 1.674290 0.000000 0.000000 
#    y 0.000000 1.637910 0.000000 
#    z 0.000000 0.000000 1.691540 
# 
# From -- ./inp_files/24245.got.cif
#   From: 2010.03.12/outbox.cif.g09.slc.cpg/sg74_13_cif.got.tgz:24245.got - 2010.04.16 15:46:19.
