data_PCOD8299135
_publ_section_title
;
Structure prediction by ZEFSAII (Michael W. Deem and Ramdas Pophale) SiO2 
 PCOD8299135
Probable space group: I M M A
;
_chemical_formula_sum "Si O2"
_cell_formula_units_Z 88
_cell_length_a 9.262059
_cell_length_b 17.970152
_cell_length_c 28.786469
_cell_angle_alpha 90.000000
_cell_angle_beta 90.000000
_cell_angle_gamma 90.000000
_cell_volume 4791.237404
_symmetry_space_group_name_H-M "I M M A"
_symmetry_group_IT_number 74
_symmetry_cell_setting 'orthorhombic'
loop_
_space_group_symop_operation_xyz
x,y,z
-x,1/2-y,z
x,-y,-z
-x,1/2+y,-z
-x,-y,-z
x,1/2+y,-z
-x,y,z
x,1/2-y,z
1/2+x,1/2+y,1/2+z
1/2-x,-y,1/2+z
1/2+x,1/2-y,1/2-z
1/2-x,y,1/2-z
1/2-x,1/2-y,1/2-z
1/2+x,y,1/2-z
1/2-x,1/2+y,1/2+z
1/2+x,-y,1/2+z
loop_
_atom_site_type_symbol
_atom_site_label
_atom_site_fract_x
_atom_site_fract_y
_atom_site_fract_z
Si Si1 0.327551 0.250000 0.299035
Si Si2 0.831674 0.547435 0.127428
Si Si3 0.668187 0.834726 0.296475
Si Si4 0.832087 0.381152 0.135336
Si Si5 0.337799 0.662501 0.536069
Si Si6 0.666854 0.429629 0.967494
O O1 0.500000 0.250000 0.291860
O O2 0.250000 0.250000 0.250000
O O3 0.271029 0.176613 0.326629
O O4 0.779189 0.610629 0.162969
O O5 0.802177 0.466362 0.150501
O O6 0.740067 0.555794 0.081411
O O7 0.000000 0.556697 0.114997
O O8 0.500000 0.845149 0.286541
O O9 0.704756 0.750000 0.311217
O O10 0.750000 0.857756 0.250000
O O11 0.766108 0.368156 0.083882
O O12 0.000000 0.362984 0.130503
O O13 0.500000 0.630226 0.529007
O O14 0.342693 0.750000 0.539229
O O15 0.240085 0.640495 0.492383
O O16 0.500000 0.411882 0.959163
O O17 0.692172 0.500000 0.000000
#
# Coordination Sequence:
#
# PCOD8299135 Si02
#       6
#     8  16  16  16  16  16
#     4  10  20  36  54  78 110 140 178 230 281 332
#     4  10  20  35  58  82 106 143 188 229 267 321
#     4   9  19  36  57  81 108 138 175 220 271 326
#     4   9  17  32  55  77 100 136 181 225 269 316
#     4  10  19  34  58  81 100 139 193 232 264 317
#     4  11  23  36  51  79 117 150 178 221 279 331
#
# _framework density 18.366862999999999
#
# number of rings (size 3 to 8) (size 9 to 14) (size 15 to 20)
#    0.000    2.182    2.727    0.545    0.000    3.273 
#    0.000    3.636    0.000    0.000    0.000    0.000 
#    0.000    0.000    0.000    0.000    0.000    0.000 
#
# Total GULP energy -545602.863806 kJ/mol
# GULP energy per Si atom -12400.065086 kJ/mol
# Density = 1.832506 g / cm^3
# Si number density = 18.366863 Si / 1000 Ang^3
#
#
#
# Elastic Constant Matrix: (Units=GPa)
#
#
# Indices 1 2 3 4 5 6 
#
# 1 63.7238 41.8226 58.7655 0.0000 0.0000 0.0000
# 2 41.8226 113.9641 74.5667 0.0000 0.0000 0.0000
# 3 58.7655 74.5667 141.1641 0.0000 0.0000 0.0000
# 4 0.0000 0.0000 0.0000 36.0545 0.0000 0.0000
# 5 0.0000 0.0000 0.0000 0.0000 33.6857 0.0000
# 6 0.0000 0.0000 0.0000 0.0000 0.0000 15.1549
#
#
#
# Elastic Compliance Matrix: (Units=1/GPa)
#
#
# Indices 1 2 3 4 5 6 
#
# 1 0.026524 -0.003834 -0.009016 0.000000 0.000000 0.000000
# 2 -0.003834 0.013963 -0.005780 0.000000 0.000000 0.000000
# 3 -0.009016 -0.005780 0.013890 0.000000 0.000000 0.000000
# 4 0.000000 0.000000 0.000000 0.027736 0.000000 0.000000
# 5 0.000000 0.000000 0.000000 0.000000 0.029686 0.000000
# 6 0.000000 0.000000 0.000000 0.000000 0.000000 0.065985
#
#
# Mechanical properties :
#
#
# Convention : Reuss Voigt Hill
#
# Bulk Modulus (GPa) = 58.42112 74.35129 66.38620
# Shear Modulus (GPa) = 22.64990 26.55884 24.60437
#
# Velocity S-wave (km/s) = 3.51550 3.80678 3.66403
# Velocity P-wave (km/s) = 6.95379 7.73894 7.35685
#
# Compressibility (1/GPa) = 0.01711710
#
# Stress axis : x y z
#
# Youngs Moduli (GPa) = 37.70162 71.61546 71.99261
#
# Poissons Ratio (x) = 0.27461 0.64911
# Poissons Ratio (y) = 0.14457 0.41609
# Poissons Ratio (z) = 0.33993 0.41391
#
# Static dielectric constant tensor:
#      x y z
#    x 3.197650 0.000000 0.000000 
#    y 0.000000 3.599300 0.000000 
#    z 0.000000 0.000000 3.477770 
# 
# 
# High freq. dielectric constant tensor:
#      x y z
#    x 1.686410 0.000000 0.000000 
#    y 0.000000 1.723170 0.000000 
#    z 0.000000 0.000000 1.710080 
# 
# From -- ./inp_files/56955.got.cif
#   From: 2010.03.12/outbox.cif.g09.slc.cpg/sg74_29_cif.got.tgz:56955.got - 2010.04.16 15:46:19.
