data_PCOD8299282
_publ_section_title
;
Structure prediction by ZEFSAII (Michael W. Deem and Ramdas Pophale) SiO2 
 PCOD8299282
Probable space group: I M M A
;
_chemical_formula_sum "Si O2"
_cell_formula_units_Z 64
_cell_length_a 33.877875
_cell_length_b 10.268858
_cell_length_c 10.067373
_cell_angle_alpha 90.000000
_cell_angle_beta 90.000000
_cell_angle_gamma 90.000000
_cell_volume 3502.309074
_symmetry_space_group_name_H-M "I M M A"
_symmetry_group_IT_number 74
_symmetry_cell_setting 'orthorhombic'
loop_
_space_group_symop_operation_xyz
x,y,z
-x,1/2-y,z
x,-y,-z
-x,1/2+y,-z
-x,-y,-z
x,1/2+y,-z
-x,y,z
x,1/2-y,z
1/2+x,1/2+y,1/2+z
1/2-x,-y,1/2+z
1/2+x,1/2-y,1/2-z
1/2-x,y,1/2-z
1/2-x,1/2-y,1/2-z
1/2+x,y,1/2-z
1/2-x,1/2+y,1/2+z
1/2+x,-y,1/2+z
loop_
_atom_site_type_symbol
_atom_site_label
_atom_site_fract_x
_atom_site_fract_y
_atom_site_fract_z
Si Si1 0.045171 0.750000 0.636602
Si Si2 0.384918 0.250000 0.330071
Si Si3 0.847098 0.750000 0.101505
Si Si4 0.257077 0.750000 0.409832
Si Si5 0.920535 0.000000 0.500000
Si Si6 0.355693 0.510070 0.207823
Si Si7 0.288280 0.000000 0.000000
O O1 0.070336 0.750000 0.773435
O O2 0.053169 0.621234 0.548680
O O3 0.000000 0.750000 0.681708
O O4 0.381330 0.250000 0.489292
O O5 0.362348 0.374598 0.278280
O O6 0.802677 0.750000 0.047123
O O7 0.852201 0.621367 0.185524
O O8 0.250000 0.750000 0.250000
O O9 0.238643 0.874412 0.481663
O O10 0.892315 0.052222 0.616187
O O11 0.315234 0.490523 0.129700
#
# Coordination Sequence:
#
# PCOD8299282 Si02
#       7
#     8   8   8   8   8  16   8
#     4  10  19  36  60  91 122 146 185 238 290 343
#     4  10  23  36  57  85 111 158 196 225 292 357
#     4  12  23  38  56  79 116 156 198 240 284 356
#     4  12  25  38  56  85 117 153 196 249 305 344
#     4   9  19  34  61  90 112 150 188 234 287 340
#     4  10  20  38  59  81 113 152 197 241 287 345
#     4  11  22  40  59  82 117 148 199 258 301 336
#
# _framework density 18.273658000000001
#
# number of rings (size 3 to 8) (size 9 to 14) (size 15 to 20)
#    0.000    1.500    2.500    2.625    3.500    4.000 
#    0.000    1.875    0.000   15.000    0.000    0.000 
#    0.000    0.000    0.000    0.000    0.000    0.000 
#
# Total GULP energy -396767.140150 kJ/mol
# GULP energy per Si atom -12398.973130 kJ/mol
# Density = 1.823207 g / cm^3
# Si number density = 18.273658 Si / 1000 Ang^3
#
#
#
# Elastic Constant Matrix: (Units=GPa)
#
#
# Indices 1 2 3 4 5 6 
#
# 1 130.5535 79.5328 62.1758 0.0000 0.0000 0.0000
# 2 79.5328 164.4265 69.5185 0.0000 0.0000 0.0000
# 3 62.1758 69.5185 124.2662 0.0000 0.0000 0.0000
# 4 0.0000 0.0000 0.0000 38.6351 0.0000 0.0000
# 5 0.0000 0.0000 0.0000 0.0000 20.4937 0.0000
# 6 0.0000 0.0000 0.0000 0.0000 0.0000 12.5304
#
#
#
# Elastic Compliance Matrix: (Units=1/GPa)
#
#
# Indices 1 2 3 4 5 6 
#
# 1 0.011977 -0.004269 -0.003604 0.000000 0.000000 0.000000
# 2 -0.004269 0.009488 -0.003172 0.000000 0.000000 0.000000
# 3 -0.003604 -0.003172 0.011625 0.000000 0.000000 0.000000
# 4 0.000000 0.000000 0.000000 0.025883 0.000000 0.000000
# 5 0.000000 0.000000 0.000000 0.000000 0.048795 0.000000
# 6 0.000000 0.000000 0.000000 0.000000 0.000000 0.079806
#
#
# Mechanical properties :
#
#
# Convention : Reuss Voigt Hill
#
# Bulk Modulus (GPa) = 90.91496 93.52227 92.21861
# Shear Modulus (GPa) = 23.43772 28.19978 25.81875
#
# Velocity S-wave (km/s) = 3.58522 3.93261 3.76293
# Velocity P-wave (km/s) = 8.18525 8.48000 8.33393
#
# Compressibility (1/GPa) = 0.01099929
#
# Stress axis : x y z
#
# Youngs Moduli (GPa) = 83.49238 105.39843 86.02255
#
# Poissons Ratio (x) = 0.45000 0.31004
# Poissons Ratio (y) = 0.35647 0.27283
# Poissons Ratio (z) = 0.30092 0.33428
#
# Static dielectric constant tensor:
#      x y z
#    x 3.323070 0.000000 0.000000 
#    y 0.000000 3.635030 0.000000 
#    z 0.000000 0.000000 3.488470 
# 
# 
# High freq. dielectric constant tensor:
#      x y z
#    x 1.700690 0.000000 0.000000 
#    y 0.000000 1.731090 0.000000 
#    z 0.000000 0.000000 1.705640 
# 
# From -- ./inp_files/7412.got.cif
#   From: 2010.03.12/outbox.cif.g09.slc.cpg/sg74_4_cif.got.tgz:7412.got - 2010.04.16 15:46:19.
