data_PCOD8299093
_publ_section_title
;
Structure prediction by ZEFSAII (Michael W. Deem and Ramdas Pophale) SiO2 
 PCOD8299093
Probable space group: I M M A
;
_chemical_formula_sum "Si O2"
_cell_formula_units_Z 112
_cell_length_a 15.835540
_cell_length_b 24.607722
_cell_length_c 14.700179
_cell_angle_alpha 90.000000
_cell_angle_beta 90.000000
_cell_angle_gamma 90.000000
_cell_volume 5728.315273
_symmetry_space_group_name_H-M "I M M A"
_symmetry_group_IT_number 74
_symmetry_cell_setting 'orthorhombic'
loop_
_space_group_symop_operation_xyz
x,y,z
-x,1/2-y,z
x,-y,-z
-x,1/2+y,-z
-x,-y,-z
x,1/2+y,-z
-x,y,z
x,1/2-y,z
1/2+x,1/2+y,1/2+z
1/2-x,-y,1/2+z
1/2+x,1/2-y,1/2-z
1/2-x,y,1/2-z
1/2-x,1/2-y,1/2-z
1/2+x,y,1/2-z
1/2-x,1/2+y,1/2+z
1/2+x,-y,1/2+z
loop_
_atom_site_type_symbol
_atom_site_label
_atom_site_fract_x
_atom_site_fract_y
_atom_site_fract_z
Si Si1 0.654454 0.105702 0.735613
Si Si2 0.284970 0.591506 0.849261
Si Si3 0.594519 0.140640 0.543317
Si Si4 0.265993 0.188025 0.018346
Si Si5 0.906335 0.188560 0.627548
Si Si6 0.874751 0.955812 0.923849
Si Si7 0.907873 0.009641 0.273674
O O1 0.750000 0.125084 0.750000
O O2 0.624620 0.106307 0.631156
O O3 0.595381 0.148644 0.786688
O O4 0.647513 0.045128 0.776975
O O5 0.250000 0.604145 0.750000
O O6 0.292219 0.649555 0.898020
O O7 0.224961 0.552087 0.907660
O O8 0.370925 0.557347 0.837657
O O9 0.500000 0.167073 0.557606
O O10 0.669304 0.183003 0.518269
O O11 0.585186 0.100194 0.458571
O O12 0.279409 0.250000 0.049935
O O13 0.332742 0.171447 0.941173
O O14 0.890794 0.250000 0.662273
O O15 0.000000 0.183815 0.582675
O O16 0.918824 0.971040 0.829922
O O17 0.892065 0.000000 0.000000
O O18 0.000000 0.996183 0.312904
#
# Coordination Sequence:
#
# PCOD8299093 Si02
#       7
#    16  16  16  16  16  16  16
#     4  12  22  36  57  85 122 163 199 242 294 362
#     4   9  21  38  57  84 115 152 192 246 304 358
#     4  11  22  35  56  88 120 156 197 243 303 365
#     4  10  22  41  63  85 112 154 203 253 305 359
#     4  10  22  40  59  81 113 154 202 251 295 347
#     4  10  19  34  56  80 115 157 196 236 291 361
#     4  11  22  35  56  87 121 155 196 246 300 358
#
# _framework density 19.551995999999999
#
# number of rings (size 3 to 8) (size 9 to 14) (size 15 to 20)
#    0.000    1.571    2.857    3.000    0.000    2.571 
#    0.000    0.000    0.000    2.143    0.000    2.000 
#    0.000    0.000    0.000    0.000    0.000    0.000 
#
# Total GULP energy -694149.852248 kJ/mol
# GULP energy per Si atom -12395.533076 kJ/mol
# Density = 1.950749 g / cm^3
# Si number density = 19.551996 Si / 1000 Ang^3
#
#
#
# Elastic Constant Matrix: (Units=GPa)
#
#
# Indices 1 2 3 4 5 6 
#
# 1 117.9839 25.2935 31.0934 -0.0001 0.0000 0.0000
# 2 25.2935 90.3771 29.4022 0.0001 0.0000 0.0000
# 3 31.0934 29.4022 54.1778 0.0002 -0.0001 0.0000
# 4 -0.0001 0.0001 0.0002 32.1380 -0.0001 0.0000
# 5 0.0000 0.0000 -0.0001 -0.0001 10.4359 0.0000
# 6 0.0000 0.0000 0.0000 0.0000 0.0000 21.2451
#
#
#
# Elastic Compliance Matrix: (Units=1/GPa)
#
#
# Indices 1 2 3 4 5 6 
#
# 1 0.010082 -0.001141 -0.005167 0.000000 0.000000 0.000000
# 2 -0.001141 0.013566 -0.006708 0.000000 0.000000 0.000000
# 3 -0.005167 -0.006708 0.025064 0.000000 0.000000 0.000000
# 4 0.000000 0.000000 0.000000 0.031116 0.000000 0.000000
# 5 0.000000 0.000000 0.000000 0.000000 0.095824 0.000000
# 6 0.000000 0.000000 0.000000 0.000000 0.000000 0.047070
#
#
# Mechanical properties :
#
#
# Convention : Reuss Voigt Hill
#
# Bulk Modulus (GPa) = 44.09042 48.23522 46.16282
# Shear Modulus (GPa) = 19.50747 24.54711 22.02729
#
# Velocity S-wave (km/s) = 3.16210 3.54712 3.36013
# Velocity P-wave (km/s) = 5.99426 6.44204 6.22218
#
# Compressibility (1/GPa) = 0.02268066
#
# Stress axis : x y z
#
# Youngs Moduli (GPa) = 99.18661 73.71274 39.89860
#
# Poissons Ratio (x) = 0.08407 0.20616
# Poissons Ratio (y) = 0.11313 0.26763
# Poissons Ratio (z) = 0.51252 0.49445
#
# Static dielectric constant tensor:
#      x y z
#    x 3.686950 0.000000 0.000000 
#    y 0.000000 3.427350 0.000000 
#    z 0.000000 0.000000 3.492020 
# 
# 
# High freq. dielectric constant tensor:
#      x y z
#    x 1.774710 0.000000 0.000000 
#    y 0.000000 1.754530 0.000000 
#    z 0.000000 0.000000 1.745680 
# 
# From -- ./inp_files/32719.got.cif
#   From: 2010.03.12/outbox.cif.g09.slc.cpg/sg74_17_cif.got.tgz:32719.got - 2010.04.16 15:46:19.
