data_PCOD8299656
_publ_section_title
;
Structure prediction by ZEFSAII (Michael W. Deem and Ramdas Pophale) SiO2 
 PCOD8299656
Probable space group: I M M A
;
_chemical_formula_sum "Si O2"
_cell_formula_units_Z 80
_cell_length_a 9.156903
_cell_length_b 18.100358
_cell_length_c 27.032682
_cell_angle_alpha 90.000000
_cell_angle_beta 90.000000
_cell_angle_gamma 90.000000
_cell_volume 4480.483827
_symmetry_space_group_name_H-M "I M M A"
_symmetry_group_IT_number 74
_symmetry_cell_setting 'orthorhombic'
loop_
_space_group_symop_operation_xyz
x,y,z
-x,1/2-y,z
x,-y,-z
-x,1/2+y,-z
-x,-y,-z
x,1/2+y,-z
-x,y,z
x,1/2-y,z
1/2+x,1/2+y,1/2+z
1/2-x,-y,1/2+z
1/2+x,1/2-y,1/2-z
1/2-x,y,1/2-z
1/2-x,1/2-y,1/2-z
1/2+x,y,1/2-z
1/2-x,1/2+y,1/2+z
1/2+x,-y,1/2+z
loop_
_atom_site_type_symbol
_atom_site_label
_atom_site_fract_x
_atom_site_fract_y
_atom_site_fract_z
Si Si1 0.328778 0.540980 0.400759
Si Si2 0.828429 0.834718 0.452869
Si Si3 0.829114 0.467156 0.201828
Si Si4 0.331795 0.165731 0.158182
Si Si5 0.668237 0.092784 0.055547
O O1 0.500000 0.544734 0.410083
O O2 0.257022 0.620382 0.410664
O O3 0.291138 0.519422 0.344425
O O4 0.262259 0.481298 0.438575
O O5 0.779686 0.750000 0.448770
O O6 0.781672 0.864855 0.506502
O O7 0.000000 0.843735 0.444163
O O8 0.750000 0.501013 0.250000
O O9 0.769507 0.384759 0.192383
O O10 0.000000 0.462376 0.211767
O O11 0.500000 0.150510 0.172008
O O12 0.287689 0.250000 0.168246
O O13 0.304016 0.148665 0.100602
O O14 0.500000 0.068124 0.052526
#
# Coordination Sequence:
#
# PCOD8299656 Si02
#       5
#    16  16  16  16  16
#     4  10  21  35  51  74 102 130 163 204 248 294
#     4  10  20  33  51  76 104 134 168 203 239 284
#     4  10  21  36  53  72  94 124 164 208 252 298
#     4   9  17  30  49  73 102 135 168 202 240 282
#     4   9  17  31  51  74 102 137 173 203 232 275
#
# _framework density 17.855215999999999
#
# number of rings (size 3 to 8) (size 9 to 14) (size 15 to 20)
#    0.000    2.400    0.000    2.400    0.000    9.200 
#    0.000    0.000    0.000    4.200    0.000    0.000 
#    0.000    0.000    0.000    0.000    0.000    0.000 
#
# Total GULP energy -496146.255892 kJ/mol
# GULP energy per Si atom -12403.656397 kJ/mol
# Density = 1.781458 g / cm^3
# Si number density = 17.855216 Si / 1000 Ang^3
#
#
#
# Elastic Constant Matrix: (Units=GPa)
#
#
# Indices 1 2 3 4 5 6 
#
# 1 80.3565 61.9314 56.9876 0.0000 0.0000 0.0000
# 2 61.9314 131.1003 64.0560 0.0000 0.0000 0.0000
# 3 56.9876 64.0560 101.1860 0.0000 0.0000 0.0000
# 4 0.0000 0.0000 0.0000 13.8913 0.0000 0.0000
# 5 0.0000 0.0000 0.0000 0.0000 28.8333 0.0000
# 6 0.0000 0.0000 0.0000 0.0000 0.0000 24.4298
#
#
#
# Elastic Compliance Matrix: (Units=1/GPa)
#
#
# Indices 1 2 3 4 5 6 
#
# 1 0.024463 -0.006985 -0.009355 0.000000 0.000000 0.000000
# 2 -0.006985 0.013038 -0.004320 0.000000 0.000000 0.000000
# 3 -0.009355 -0.004320 0.017886 0.000000 0.000000 0.000000
# 4 0.000000 0.000000 0.000000 0.071988 0.000000 0.000000
# 5 0.000000 0.000000 0.000000 0.000000 0.034682 0.000000
# 6 0.000000 0.000000 0.000000 0.000000 0.000000 0.040934
#
#
# Mechanical properties :
#
#
# Convention : Reuss Voigt Hill
#
# Bulk Modulus (GPa) = 71.09026 75.39921 73.24473
# Shear Modulus (GPa) = 20.08029 22.07539 21.07784
#
# Velocity S-wave (km/s) = 3.35717 3.52000 3.43955
# Velocity P-wave (km/s) = 7.41139 7.67074 7.54218
#
# Compressibility (1/GPa) = 0.01406662
#
# Stress axis : x y z
#
# Youngs Moduli (GPa) = 40.87855 76.69797 55.90821
#
# Poissons Ratio (x) = 0.53574 0.52305
# Poissons Ratio (y) = 0.28554 0.24152
# Poissons Ratio (z) = 0.38244 0.33133
#
# Static dielectric constant tensor:
#      x y z
#    x 3.258640 0.000000 0.000000 
#    y 0.000000 3.250250 0.000000 
#    z 0.000000 0.000000 3.338830 
# 
# 
# High freq. dielectric constant tensor:
#      x y z
#    x 1.689750 0.000000 0.000000 
#    y 0.000000 1.678100 0.000000 
#    z 0.000000 0.000000 1.688410 
# 
# From -- ./inp_files/63903.got.cif
#   From: 2010.03.12/outbox.cif.g09.slc.cpg/sg74_32_cif.got.tgz:63903.got - 2010.04.16 15:46:19.
