data_PCOD8299505
_publ_section_title
;
Structure prediction by ZEFSAII (Michael W. Deem and Ramdas Pophale) SiO2 
 PCOD8299505
Probable space group: I M M A
;
_chemical_formula_sum "Si O2"
_cell_formula_units_Z 104
_cell_length_a 25.785005
_cell_length_b 9.392971
_cell_length_c 23.014448
_cell_angle_alpha 90.000000
_cell_angle_beta 90.000000
_cell_angle_gamma 90.000000
_cell_volume 5574.048770
_symmetry_space_group_name_H-M "I M M A"
_symmetry_group_IT_number 74
_symmetry_cell_setting 'orthorhombic'
loop_
_space_group_symop_operation_xyz
x,y,z
-x,1/2-y,z
x,-y,-z
-x,1/2+y,-z
-x,-y,-z
x,1/2+y,-z
-x,y,z
x,1/2-y,z
1/2+x,1/2+y,1/2+z
1/2-x,-y,1/2+z
1/2+x,1/2-y,1/2-z
1/2-x,y,1/2-z
1/2-x,1/2-y,1/2-z
1/2+x,y,1/2-z
1/2-x,1/2+y,1/2+z
1/2+x,-y,1/2+z
loop_
_atom_site_type_symbol
_atom_site_label
_atom_site_fract_x
_atom_site_fract_y
_atom_site_fract_z
Si Si1 0.500000 0.587673 0.058039
Si Si2 0.335373 0.412006 0.781596
Si Si3 0.354347 0.586498 0.346512
Si Si4 0.247753 0.090184 0.167062
Si Si5 0.308467 0.592060 0.951450
Si Si6 0.940263 0.582882 0.058950
Si Si7 0.608433 0.913966 0.103519
O O1 0.500000 0.750000 0.037763
O O2 0.451798 0.551325 0.098917
O O3 0.500000 0.500000 0.000000
O O4 0.315512 0.250000 0.788721
O O5 0.367868 0.430513 0.721865
O O6 0.283499 0.511087 0.784027
O O7 0.375201 0.456070 0.831426
O O8 0.340903 0.750000 0.361641
O O9 0.303315 0.491986 0.353787
O O10 0.401936 0.535408 0.388070
O O11 0.234633 0.250000 0.189045
O O12 0.279735 0.096580 0.108674
O O13 0.318307 0.750000 0.975491
O O14 0.362878 0.511090 0.943478
O O15 0.277081 0.500000 0.000000
O O16 0.934230 0.750000 0.046339
O O17 0.000000 0.546802 0.076422
O O18 0.924560 0.500000 0.000000
O O19 0.621691 0.750000 0.090282
#
# Coordination Sequence:
#
# PCOD8299505 Si02
#       7
#     8  16  16  16  16  16  16
#     4  10  20  32  48  72  98 128 167 208 248 292
#     4   9  18  34  53  74 103 138 171 208 255 305
#     4  10  20  34  54  80 105 134 171 209 254 307
#     4  10  21  34  50  75 106 138 172 212 256 304
#     4  10  20  33  49  70  97 131 170 209 254 302
#     4   9  19  37  58  80 107 138 173 215 264 316
#     4   9  18  33  50  70  98 131 168 208 252 298
#
# _framework density 18.657893000000001
#
# number of rings (size 3 to 8) (size 9 to 14) (size 15 to 20)
#    0.000    2.462    0.000    1.846    0.000    7.385 
#    1.385    3.077    0.000    0.000    0.000    0.000 
#    0.000    0.000    0.000    0.000    0.000    0.000 
#
# Total GULP energy -644441.383091 kJ/mol
# GULP energy per Si atom -12393.103521 kJ/mol
# Density = 1.861543 g / cm^3
# Si number density = 18.657893 Si / 1000 Ang^3
#
#
#
# Elastic Constant Matrix: (Units=GPa)
#
#
# Indices 1 2 3 4 5 6 
#
# 1 115.6329 49.4966 53.6555 0.0000 0.0000 0.0000
# 2 49.4966 90.2601 45.5883 0.0000 0.0000 0.0000
# 3 53.6555 45.5883 104.8406 0.0000 0.0000 0.0000
# 4 0.0000 0.0000 0.0000 27.9341 0.0000 0.0000
# 5 0.0000 0.0000 0.0000 0.0000 25.7181 0.0000
# 6 0.0000 0.0000 0.0000 0.0000 0.0000 17.9684
#
#
#
# Elastic Compliance Matrix: (Units=1/GPa)
#
#
# Indices 1 2 3 4 5 6 
#
# 1 0.012746 -0.004735 -0.004464 0.000000 0.000000 0.000000
# 2 -0.004735 0.015956 -0.004515 0.000000 0.000000 0.000000
# 3 -0.004464 -0.004515 0.013786 0.000000 0.000000 0.000000
# 4 0.000000 0.000000 0.000000 0.035799 0.000000 0.000000
# 5 0.000000 0.000000 0.000000 0.000000 0.038883 0.000000
# 6 0.000000 0.000000 0.000000 0.000000 0.000000 0.055653
#
#
# Mechanical properties :
#
#
# Convention : Reuss Voigt Hill
#
# Bulk Modulus (GPa) = 66.40074 67.57937 66.99006
# Shear Modulus (GPa) = 24.35786 25.12367 24.74077
#
# Velocity S-wave (km/s) = 3.61709 3.67351 3.64541
# Velocity P-wave (km/s) = 7.28768 7.36830 7.32810
#
# Compressibility (1/GPa) = 0.01506007
#
# Stress axis : x y z
#
# Youngs Moduli (GPa) = 78.45334 62.67219 72.53540
#
# Poissons Ratio (x) = 0.29675 0.32383
# Poissons Ratio (y) = 0.37147 0.32749
# Poissons Ratio (z) = 0.35025 0.28296
#
# Static dielectric constant tensor:
#      x y z
#    x 3.339390 0.000000 0.000000 
#    y 0.000000 3.796810 0.000000 
#    z 0.000000 0.000000 3.777080 
# 
# 
# High freq. dielectric constant tensor:
#      x y z
#    x 1.706430 0.000000 0.000000 
#    y 0.000000 1.725880 0.000000 
#    z 0.000000 0.000000 1.737080 
# 
# From -- ./inp_files/62347.got.cif
#   From: 2010.03.12/outbox.cif.g09.slc.cpg/sg74_32_cif.got.tgz:62347.got - 2010.04.16 15:46:19.
