data_PCOD8299434
_publ_section_title
;
Structure prediction by ZEFSAII (Michael W. Deem and Ramdas Pophale) SiO2 
 PCOD8299434
Probable space group: I M M A
;
_chemical_formula_sum "Si O2"
_cell_formula_units_Z 96
_cell_length_a 11.403524
_cell_length_b 13.931630
_cell_length_c 37.425879
_cell_angle_alpha 90.000000
_cell_angle_beta 90.000000
_cell_angle_gamma 90.000000
_cell_volume 5945.837311
_symmetry_space_group_name_H-M "I M M A"
_symmetry_group_IT_number 74
_symmetry_cell_setting 'orthorhombic'
loop_
_space_group_symop_operation_xyz
x,y,z
-x,1/2-y,z
x,-y,-z
-x,1/2+y,-z
-x,-y,-z
x,1/2+y,-z
-x,y,z
x,1/2-y,z
1/2+x,1/2+y,1/2+z
1/2-x,-y,1/2+z
1/2+x,1/2-y,1/2-z
1/2-x,y,1/2-z
1/2-x,1/2-y,1/2-z
1/2+x,y,1/2-z
1/2-x,1/2+y,1/2+z
1/2+x,-y,1/2+z
loop_
_atom_site_type_symbol
_atom_site_label
_atom_site_fract_x
_atom_site_fract_y
_atom_site_fract_z
Si Si1 0.135210 0.856355 0.148324
Si Si2 0.500000 0.134537 0.925772
Si Si3 0.133187 0.863859 0.229437
Si Si4 0.236914 0.043360 0.586614
Si Si5 0.368411 0.138529 0.522434
Si Si6 0.269347 0.639031 0.953103
Si Si7 0.000000 0.137791 0.494013
O O1 0.192279 0.750000 0.143493
O O2 0.153617 0.894399 0.188471
O O3 0.187272 0.933010 0.121132
O O4 0.000000 0.847672 0.139000
O O5 0.500000 0.250000 0.922823
O O6 0.389328 0.089098 0.905640
O O7 0.500000 0.093937 0.966345
O O8 0.131270 0.750000 0.233147
O O9 0.250000 0.905114 0.250000
O O10 0.000000 0.900136 0.241789
O O11 0.283488 0.085569 0.549458
O O12 0.241111 0.927603 0.582017
O O13 0.500000 0.101642 0.528135
O O14 0.355180 0.250000 0.531439
O O15 0.335387 0.119829 0.481141
O O16 0.272992 0.750000 0.940718
O O17 0.386941 0.604653 0.972596
O O18 0.000000 0.250000 0.499536
#
# Coordination Sequence:
#
# PCOD8299434 Si02
#       7
#    16   8  16  16  16  16   8
#     4   9  18  32  48  67  93 123 152 180 214 267
#     4  11  21  31  46  68  91 111 142 192 239 277
#     4   8  14  27  47  69  94 124 155 181 211 258
#     4  12  21  30  47  64  87 118 148 182 230 279
#     4  10  20  32  45  62  83 108 144 188 230 276
#     4  10  21  34  46  61  81 111 153 197 232 267
#     4   9  17  33  49  58  77 109 148 189 233 276
#
# _framework density 16.14575
#
# number of rings (size 3 to 8) (size 9 to 14) (size 15 to 20)
#    0.000    2.167    1.667    4.000    0.000    4.000 
#    1.500    0.000    0.000    0.000    0.000    0.000 
#    0.000    0.667    0.000    0.500    0.000    0.667 
#
# Total GULP energy -594875.369088 kJ/mol
# GULP energy per Si atom -12393.236856 kJ/mol
# Density = 1.610900 g / cm^3
# Si number density = 16.145750 Si / 1000 Ang^3
#
#
#
# Elastic Constant Matrix: (Units=GPa)
#
#
# Indices 1 2 3 4 5 6 
#
# 1 84.8274 32.6357 32.0935 0.0000 0.0000 0.0000
# 2 32.6357 56.3602 35.0421 0.0000 0.0000 0.0000
# 3 32.0935 35.0421 67.0236 0.0000 0.0000 0.0000
# 4 0.0000 0.0000 0.0000 13.1764 0.0000 0.0000
# 5 0.0000 0.0000 0.0000 0.0000 25.2320 0.0000
# 6 0.0000 0.0000 0.0000 0.0000 0.0000 12.6863
#
#
#
# Elastic Compliance Matrix: (Units=1/GPa)
#
#
# Indices 1 2 3 4 5 6 
#
# 1 0.015911 -0.006632 -0.004151 0.000000 0.000000 0.000000
# 2 -0.006632 0.029053 -0.012014 0.000000 0.000000 0.000000
# 3 -0.004151 -0.012014 0.023189 0.000000 0.000000 0.000000
# 4 0.000000 0.000000 0.000000 0.075893 0.000000 0.000000
# 5 0.000000 0.000000 0.000000 0.000000 0.039632 0.000000
# 6 0.000000 0.000000 0.000000 0.000000 0.000000 0.078825
#
#
# Mechanical properties :
#
#
# Convention : Reuss Voigt Hill
#
# Bulk Modulus (GPa) = 44.32990 45.30597 44.81794
# Shear Modulus (GPa) = 15.84191 17.44828 16.64509
#
# Velocity S-wave (km/s) = 3.13578 3.29093 3.21429
# Velocity P-wave (km/s) = 6.37389 6.52394 6.44935
#
# Compressibility (1/GPa) = 0.02255814
#
# Stress axis : x y z
#
# Youngs Moduli (GPa) = 62.85037 34.41942 43.12332
#
# Poissons Ratio (x) = 0.22828 0.17901
# Poissons Ratio (y) = 0.41684 0.51810
# Poissons Ratio (z) = 0.26090 0.41352
#
# Static dielectric constant tensor:
#      x y z
#    x 3.277870 0.000000 0.000000 
#    y 0.000000 2.933790 0.000000 
#    z 0.000000 0.000000 2.807470 
# 
# 
# High freq. dielectric constant tensor:
#      x y z
#    x 1.639070 0.000000 0.000000 
#    y 0.000000 1.592820 0.000000 
#    z 0.000000 0.000000 1.579500 
# 
# From -- ./inp_files/71829.got.cif
#   From: 2010.03.12/outbox.cif.g09.slc.cpg/sg74_36_cif.got.tgz:71829.got - 2010.04.16 15:46:19.
