data_PCOD8299064
_publ_section_title
;
Structure prediction by ZEFSAII (Michael W. Deem and Ramdas Pophale) SiO2 
 PCOD8299064
Probable space group: I M M A
;
_chemical_formula_sum "Si O2"
_cell_formula_units_Z 64
_cell_length_a 12.051573
_cell_length_b 8.984210
_cell_length_c 31.948596
_cell_angle_alpha 90.000000
_cell_angle_beta 90.000000
_cell_angle_gamma 90.000000
_cell_volume 3459.197896
_symmetry_space_group_name_H-M "I M M A"
_symmetry_group_IT_number 74
_symmetry_cell_setting 'orthorhombic'
loop_
_space_group_symop_operation_xyz
x,y,z
-x,1/2-y,z
x,-y,-z
-x,1/2+y,-z
-x,-y,-z
x,1/2+y,-z
-x,y,z
x,1/2-y,z
1/2+x,1/2+y,1/2+z
1/2-x,-y,1/2+z
1/2+x,1/2-y,1/2-z
1/2-x,y,1/2-z
1/2-x,1/2-y,1/2-z
1/2+x,y,1/2-z
1/2-x,1/2+y,1/2+z
1/2+x,-y,1/2+z
loop_
_atom_site_type_symbol
_atom_site_label
_atom_site_fract_x
_atom_site_fract_y
_atom_site_fract_z
Si Si1 0.761271 0.926201 0.377641
Si Si2 0.122457 0.918396 0.807622
Si Si3 0.372888 0.575012 0.457548
Si Si4 0.500000 0.072554 0.759698
Si Si5 0.000000 0.074804 0.645973
O O1 0.746228 0.750000 0.373538
O O2 0.702049 0.985686 0.419522
O O3 0.890388 0.975479 0.379343
O O4 0.708805 0.998480 0.336819
O O5 0.163175 0.750000 0.799317
O O6 0.000000 0.918308 0.829382
O O7 0.110317 0.006518 0.763307
O O8 0.329476 0.500000 0.500000
O O9 0.500000 0.529801 0.448463
O O10 0.359634 0.750000 0.462871
O O11 0.500000 0.250000 0.756568
O O12 0.500000 0.010564 0.806945
O O13 0.000000 0.250000 0.650770
#
# Coordination Sequence:
#
# PCOD8299064 Si02
#       5
#    16  16  16   8   8
#     4  10  19  34  55  76 103 138 178 216 257 307
#     4   9  19  33  50  76 104 132 169 216 269 311
#     4   9  18  32  53  80 104 130 163 208 263 315
#     4   9  17  33  53  74 101 135 176 218 264 308
#     4   9  20  35  52  76 102 137 183 224 252 294
#
# _framework density 18.501398999999999
#
# number of rings (size 3 to 8) (size 9 to 14) (size 15 to 20)
#    0.750    2.000    0.000    1.500    0.000    3.000 
#    0.000   11.250    0.000    0.000    0.000    0.000 
#    0.000    0.000    0.000    0.000    0.000    0.000 
#
# Total GULP energy -396611.849999 kJ/mol
# GULP energy per Si atom -12394.120312 kJ/mol
# Density = 1.845929 g / cm^3
# Si number density = 18.501399 Si / 1000 Ang^3
#
#
#
# Elastic Constant Matrix: (Units=GPa)
#
#
# Indices 1 2 3 4 5 6 
#
# 1 106.2835 23.7800 67.3629 0.0000 0.0000 0.0000
# 2 23.7800 50.1411 30.6632 0.0000 0.0000 0.0000
# 3 67.3629 30.6632 136.8344 0.0000 0.0000 0.0000
# 4 0.0000 0.0000 0.0000 22.6826 0.0000 0.0000
# 5 0.0000 0.0000 0.0000 0.0000 10.0178 0.0000
# 6 0.0000 0.0000 0.0000 0.0000 0.0000 12.9324
#
#
#
# Elastic Compliance Matrix: (Units=1/GPa)
#
#
# Indices 1 2 3 4 5 6 
#
# 1 0.014010 -0.002812 -0.006267 0.000000 0.000000 0.000000
# 2 -0.002812 0.023675 -0.003921 0.000000 0.000000 0.000000
# 3 -0.006267 -0.003921 0.011272 0.000000 0.000000 0.000000
# 4 0.000000 0.000000 0.000000 0.044087 0.000000 0.000000
# 5 0.000000 0.000000 0.000000 0.000000 0.099823 0.000000
# 6 0.000000 0.000000 0.000000 0.000000 0.000000 0.077325
#
#
# Mechanical properties :
#
#
# Convention : Reuss Voigt Hill
#
# Bulk Modulus (GPa) = 43.55920 59.65235 51.60578
# Shear Modulus (GPa) = 16.45583 20.55674 18.50629
#
# Velocity S-wave (km/s) = 2.98558 3.33692 3.16613
# Velocity P-wave (km/s) = 5.95649 6.86723 6.42801
#
# Compressibility (1/GPa) = 0.02295726
#
# Stress axis : x y z
#
# Youngs Moduli (GPa) = 71.37798 42.23835 88.71589
#
# Poissons Ratio (x) = 0.11877 0.55597
# Poissons Ratio (y) = 0.20071 0.34786
# Poissons Ratio (z) = 0.44732 0.16562
#
# Static dielectric constant tensor:
#      x y z
#    x 3.533360 0.000000 0.000000 
#    y 0.000000 3.201900 0.000000 
#    z 0.000000 0.000000 3.367930 
# 
# 
# High freq. dielectric constant tensor:
#      x y z
#    x 1.707840 0.000000 0.000000 
#    y 0.000000 1.704050 0.000000 
#    z 0.000000 0.000000 1.707310 
# 
# From -- ./inp_files/71313.got.cif
#   From: 2010.03.12/outbox.cif.g09.slc.cpg/sg74_36_cif.got.tgz:71313.got - 2010.04.16 15:46:19.
