data_PCOD8299679
_publ_section_title
;
Structure prediction by ZEFSAII (Michael W. Deem and Ramdas Pophale) SiO2 
 PCOD8299679
Probable space group: I M M A
;
_chemical_formula_sum "Si O2"
_cell_formula_units_Z 88
_cell_length_a 8.997436
_cell_length_b 21.442122
_cell_length_c 23.925423
_cell_angle_alpha 90.000000
_cell_angle_beta 90.000000
_cell_angle_gamma 90.000000
_cell_volume 4615.791187
_symmetry_space_group_name_H-M "I M M A"
_symmetry_group_IT_number 74
_symmetry_cell_setting 'orthorhombic'
loop_
_space_group_symop_operation_xyz
x,y,z
-x,1/2-y,z
x,-y,-z
-x,1/2+y,-z
-x,-y,-z
x,1/2+y,-z
-x,y,z
x,1/2-y,z
1/2+x,1/2+y,1/2+z
1/2-x,-y,1/2+z
1/2+x,1/2-y,1/2-z
1/2-x,y,1/2-z
1/2-x,1/2-y,1/2-z
1/2+x,y,1/2-z
1/2-x,1/2+y,1/2+z
1/2+x,-y,1/2+z
loop_
_atom_site_type_symbol
_atom_site_label
_atom_site_fract_x
_atom_site_fract_y
_atom_site_fract_z
Si Si1 0.667605 0.397235 0.407208
Si Si2 0.174673 0.321308 0.194444
Si Si3 0.680188 0.250000 0.687797
Si Si4 0.166786 0.316883 0.487008
Si Si5 0.670066 0.029334 0.559041
Si Si6 0.329570 0.649581 0.108945
O O1 0.500000 0.374045 0.410277
O O2 0.744935 0.361905 0.355700
O O3 0.736492 0.374840 0.466086
O O4 0.679188 0.471074 0.398339
O O5 0.218857 0.250000 0.183526
O O6 0.250000 0.347204 0.250000
O O7 0.000000 0.330830 0.200642
O O8 0.500000 0.250000 0.690366
O O9 0.750000 0.250000 0.750000
O O10 0.735786 0.186755 0.656213
O O11 0.221549 0.250000 0.462435
O O12 0.175206 0.309333 0.553481
O O13 0.000000 0.330489 0.467406
O O14 0.500000 0.052502 0.550460
O O15 0.764501 0.082332 0.590140
O O16 0.730135 0.000000 0.500000
O O17 0.500000 0.640908 0.130102
#
# Coordination Sequence:
#
# PCOD8299679 Si02
#       6
#    16  16   8  16  16  16
#     4  10  20  34  53  79 113 149 192 240 284 342
#     4   9  18  33  52  74 102 139 182 230 280 330
#     4  12  26  46  72  96 122 158 203 256 313 368
#     4  10  20  33  51  80 117 151 187 236 290 349
#     4  10  20  35  55  84 120 159 200 240 293 356
#     4  11  22  39  61  88 122 156 196 243 298 362
#
# _framework density 19.064986999999999
#
# number of rings (size 3 to 8) (size 9 to 14) (size 15 to 20)
#    0.000    1.818    2.727    1.909    0.000    3.636 
#    0.000    2.727    0.000    2.182    0.000    0.000 
#    0.000    0.000    0.000    0.000    0.000    0.000 
#
# Total GULP energy -545197.648153 kJ/mol
# GULP energy per Si atom -12390.855640 kJ/mol
# Density = 1.902159 g / cm^3
# Si number density = 19.064987 Si / 1000 Ang^3
#
#
#
# Elastic Constant Matrix: (Units=GPa)
#
#
# Indices 1 2 3 4 5 6 
#
# 1 90.6039 53.0986 41.8545 0.0000 0.0000 0.0000
# 2 53.0986 111.8334 47.4392 0.0000 0.0000 0.0000
# 3 41.8545 47.4392 102.4409 0.0000 0.0000 0.0000
# 4 0.0000 0.0000 0.0000 20.2953 0.0000 0.0000
# 5 0.0000 0.0000 0.0000 0.0000 29.9458 0.0000
# 6 0.0000 0.0000 0.0000 0.0000 0.0000 23.9311
#
#
#
# Elastic Compliance Matrix: (Units=1/GPa)
#
#
# Indices 1 2 3 4 5 6 
#
# 1 0.016433 -0.006165 -0.003859 0.000000 0.000000 0.000000
# 2 -0.006165 0.013441 -0.003705 0.000000 0.000000 0.000000
# 3 -0.003859 -0.003705 0.013054 0.000000 0.000000 0.000000
# 4 0.000000 0.000000 0.000000 0.049272 0.000000 0.000000
# 5 0.000000 0.000000 0.000000 0.000000 0.033394 0.000000
# 6 0.000000 0.000000 0.000000 0.000000 0.000000 0.041787
#
#
# Mechanical properties :
#
#
# Convention : Reuss Voigt Hill
#
# Bulk Modulus (GPa) = 64.64608 65.51810 65.08209
# Shear Modulus (GPa) = 25.00040 25.66683 25.33361
#
# Velocity S-wave (km/s) = 3.62515 3.67315 3.64923
# Velocity P-wave (km/s) = 7.17664 7.24083 7.20881
#
# Compressibility (1/GPa) = 0.01546884
#
# Stress axis : x y z
#
# Youngs Moduli (GPa) = 60.85334 74.39902 76.60332
#
# Poissons Ratio (x) = 0.45870 0.29560
# Poissons Ratio (y) = 0.37519 0.28384
# Poissons Ratio (z) = 0.23483 0.27567
#
# Static dielectric constant tensor:
#      x y z
#    x 3.442670 0.000000 0.000000 
#    y 0.000000 3.544970 0.000000 
#    z 0.000000 0.000000 3.518650 
# 
# 
# High freq. dielectric constant tensor:
#      x y z
#    x 1.733650 0.000000 0.000000 
#    y 0.000000 1.749260 0.000000 
#    z 0.000000 0.000000 1.726190 
# 
# From -- ./inp_files/56962.got.cif
#   From: 2010.03.12/outbox.cif.g09.slc.cpg/sg74_29_cif.got.tgz:56962.got - 2010.04.16 15:46:19.
