data_PCOD8299649
_publ_section_title
;
Structure prediction by ZEFSAII (Michael W. Deem and Ramdas Pophale) SiO2 
 PCOD8299649
Probable space group: I M M A
;
_chemical_formula_sum "Si O2"
_cell_formula_units_Z 96
_cell_length_a 9.229129
_cell_length_b 20.144884
_cell_length_c 27.516052
_cell_angle_alpha 90.000000
_cell_angle_beta 90.000000
_cell_angle_gamma 90.000000
_cell_volume 5115.777045
_symmetry_space_group_name_H-M "I M M A"
_symmetry_group_IT_number 74
_symmetry_cell_setting 'orthorhombic'
loop_
_space_group_symop_operation_xyz
x,y,z
-x,1/2-y,z
x,-y,-z
-x,1/2+y,-z
-x,-y,-z
x,1/2+y,-z
-x,y,z
x,1/2-y,z
1/2+x,1/2+y,1/2+z
1/2-x,-y,1/2+z
1/2+x,1/2-y,1/2-z
1/2-x,y,1/2-z
1/2-x,1/2-y,1/2-z
1/2+x,y,1/2-z
1/2-x,1/2+y,1/2+z
1/2+x,-y,1/2+z
loop_
_atom_site_type_symbol
_atom_site_label
_atom_site_fract_x
_atom_site_fract_y
_atom_site_fract_z
Si Si1 0.331851 0.673130 0.017003
Si Si2 0.332790 0.557710 0.866001
Si Si3 0.829025 0.940837 0.964007
Si Si4 0.331453 0.933323 0.199695
Si Si5 0.831443 0.825181 0.701904
Si Si6 0.672271 0.176721 0.873721
O O1 0.500000 0.653771 0.011429
O O2 0.308303 0.750000 0.003100
O O3 0.275536 0.659477 0.071770
O O4 0.238866 0.628581 0.980788
O O5 0.500000 0.555776 0.882926
O O6 0.232052 0.540829 0.911292
O O7 0.303379 0.504371 0.824091
O O8 0.289892 0.629211 0.843910
O O9 0.000000 0.932400 0.960877
O O10 0.783626 0.000000 0.000000
O O11 0.500000 0.920695 0.209402
O O12 0.250000 0.928746 0.250000
O O13 0.266314 0.876864 0.164025
O O14 0.786950 0.750000 0.688360
O O15 0.750000 0.849832 0.750000
O O16 0.000000 0.831628 0.713782
O O17 0.500000 0.175882 0.874347
O O18 0.728380 0.250000 0.858594
#
# Coordination Sequence:
#
# PCOD8299649 Si02
#       6
#    16  16  16  16  16  16
#     4   9  18  35  60  84 105 137 181 223 263 312
#     4  10  21  36  54  75 100 135 178 219 258 307
#     4  11  24  38  53  78 111 143 176 220 273 323
#     4  10  20  33  51  75 102 133 170 213 259 306
#     4   9  18  33  53  77 104 133 167 208 254 306
#     4   8  15  30  52  76 101 131 169 210 251 302
#
# _framework density 18.765478000000002
#
# number of rings (size 3 to 8) (size 9 to 14) (size 15 to 20)
#    0.000    2.500    0.000    3.000    0.000    5.333 
#    0.000    2.500    0.000    1.000    0.000    0.000 
#    0.000    0.000    0.000    0.000    0.000    0.000 
#
# Total GULP energy -595263.176610 kJ/mol
# GULP energy per Si atom -12401.316179 kJ/mol
# Density = 1.872277 g / cm^3
# Si number density = 18.765478 Si / 1000 Ang^3
#
#
#
# Elastic Constant Matrix: (Units=GPa)
#
#
# Indices 1 2 3 4 5 6 
#
# 1 47.7195 24.4746 28.1009 0.0000 0.0000 0.0000
# 2 24.4746 74.8440 20.4367 0.0000 0.0000 0.0000
# 3 28.1009 20.4367 71.3184 0.0000 0.0000 0.0000
# 4 0.0000 0.0000 0.0000 31.3790 0.0000 0.0000
# 5 0.0000 0.0000 0.0000 0.0000 36.0403 0.0000
# 6 0.0000 0.0000 0.0000 0.0000 0.0000 20.0057
#
#
#
# Elastic Compliance Matrix: (Units=1/GPa)
#
#
# Indices 1 2 3 4 5 6 
#
# 1 0.030546 -0.007271 -0.009952 0.000000 0.000000 0.000000
# 2 -0.007271 0.016226 -0.001785 0.000000 0.000000 0.000000
# 3 -0.009952 -0.001785 0.018454 0.000000 0.000000 0.000000
# 4 0.000000 0.000000 0.000000 0.031868 0.000000 0.000000
# 5 0.000000 0.000000 0.000000 0.000000 0.027747 0.000000
# 6 0.000000 0.000000 0.000000 0.000000 0.000000 0.049986
#
#
# Mechanical properties :
#
#
# Convention : Reuss Voigt Hill
#
# Bulk Modulus (GPa) = 36.75076 37.76737 37.25907
# Shear Modulus (GPa) = 22.53137 25.54297 24.03717
#
# Velocity S-wave (km/s) = 3.46885 3.69340 3.58288
# Velocity P-wave (km/s) = 5.97249 6.19338 6.08394
#
# Compressibility (1/GPa) = 0.02721032
#
# Stress axis : x y z
#
# Youngs Moduli (GPa) = 32.73802 61.62872 54.18780
#
# Poissons Ratio (x) = 0.44811 0.53928
# Poissons Ratio (y) = 0.23804 0.09671
# Poissons Ratio (z) = 0.32581 0.10999
#
# Static dielectric constant tensor:
#      x y z
#    x 3.184430 0.000000 0.000000 
#    y 0.000000 3.738480 0.000000 
#    z 0.000000 0.000000 3.391430 
# 
# 
# High freq. dielectric constant tensor:
#      x y z
#    x 1.701660 0.000000 0.000000 
#    y 0.000000 1.743270 0.000000 
#    z 0.000000 0.000000 1.728840 
# 
# From -- ./inp_files/64291.got.cif
#   From: 2010.03.12/outbox.cif.g09.slc.cpg/sg74_33_cif.got.tgz:64291.got - 2010.04.16 15:46:19.
