data_PCOD8299222
_publ_section_title
;
Structure prediction by ZEFSAII (Michael W. Deem and Ramdas Pophale) SiO2 
 PCOD8299222
Probable space group: I M M A
;
_chemical_formula_sum "Si O2"
_cell_formula_units_Z 88
_cell_length_a 21.764529
_cell_length_b 18.928371
_cell_length_c 11.752456
_cell_angle_alpha 90.000000
_cell_angle_beta 90.000000
_cell_angle_gamma 90.000000
_cell_volume 4841.624976
_symmetry_space_group_name_H-M "I M M A"
_symmetry_group_IT_number 74
_symmetry_cell_setting 'orthorhombic'
loop_
_space_group_symop_operation_xyz
x,y,z
-x,1/2-y,z
x,-y,-z
-x,1/2+y,-z
-x,-y,-z
x,1/2+y,-z
-x,y,z
x,1/2-y,z
1/2+x,1/2+y,1/2+z
1/2-x,-y,1/2+z
1/2+x,1/2-y,1/2-z
1/2-x,y,1/2-z
1/2-x,1/2-y,1/2-z
1/2+x,y,1/2-z
1/2-x,1/2+y,1/2+z
1/2+x,-y,1/2+z
loop_
_atom_site_type_symbol
_atom_site_label
_atom_site_fract_x
_atom_site_fract_y
_atom_site_fract_z
Si Si1 0.000000 0.169237 0.762238
Si Si2 0.207633 0.572047 0.347232
Si Si3 0.500000 0.026882 0.629773
Si Si4 0.430214 0.168913 0.173539
Si Si5 0.397596 0.830497 0.078481
Si Si6 0.199127 0.000000 0.000000
Si Si7 0.375348 0.036974 0.286967
O O1 0.058546 0.154266 0.684189
O O2 0.000000 0.250000 0.809562
O O3 0.000000 0.113218 0.866592
O O4 0.250000 0.606546 0.250000
O O5 0.164478 0.628170 0.404532
O O6 0.256447 0.555926 0.443831
O O7 0.168570 0.504809 0.301226
O O8 0.500000 0.000000 0.500000
O O9 0.440834 0.001135 0.699647
O O10 0.500000 0.159538 0.216924
O O11 0.408477 0.250000 0.192982
O O12 0.385394 0.116748 0.242657
O O13 0.429253 0.148112 0.040235
O O14 0.378345 0.750000 0.073993
O O15 0.156598 0.958852 0.909805
#
# Coordination Sequence:
#
# PCOD8299222 Si02
#       7
#     8  16   8  16  16   8  16
#     4  10  20  37  61  91 121 154 190 237 301 355
#     4  10  21  36  56  80 108 148 201 242 284 336
#     4  12  22  37  61  89 121 149 192 244 294 346
#     4  10  20  34  55  87 120 148 178 233 301 354
#     4  10  19  35  58  86 119 147 186 243 299 346
#     4  10  22  39  56  77 114 160 198 240 288 338
#     4  11  21  37  59  84 114 153 195 242 293 351
#
# _framework density 18.175715
#
# number of rings (size 3 to 8) (size 9 to 14) (size 15 to 20)
#    0.000    1.636    4.545    1.091    0.000    0.364 
#    0.000    3.636    0.000    8.182    0.000    0.000 
#    0.000    0.000    0.000    0.000    0.000    0.000 
#
# Total GULP energy -545437.969650 kJ/mol
# GULP energy per Si atom -12396.317492 kJ/mol
# Density = 1.813435 g / cm^3
# Si number density = 18.175715 Si / 1000 Ang^3
#
#
#
# Elastic Constant Matrix: (Units=GPa)
#
#
# Indices 1 2 3 4 5 6 
#
# 1 106.6547 48.5789 34.6730 0.0000 0.0000 0.0000
# 2 48.5789 105.9763 59.2582 0.0000 0.0000 0.0000
# 3 34.6730 59.2582 89.8353 0.0000 0.0000 0.0000
# 4 0.0000 0.0000 0.0000 1223.7296 0.0000 0.0000
# 5 0.0000 0.0000 0.0000 0.0000 52.1534 0.0000
# 6 0.0000 0.0000 0.0000 0.0000 0.0000 29.2322
#
#
#
# Elastic Compliance Matrix: (Units=1/GPa)
#
#
# Indices 1 2 3 4 5 6 
#
# 1 0.011992 -0.004609 -0.001588 0.000000 0.000000 0.000000
# 2 -0.004609 0.016722 -0.009251 0.000000 0.000000 0.000000
# 3 -0.001588 -0.009251 0.017847 0.000000 0.000000 0.000000
# 4 0.000000 0.000000 0.000000 0.000817 0.000000 0.000000
# 5 0.000000 0.000000 0.000000 0.000000 0.019174 0.000000
# 6 0.000000 0.000000 0.000000 0.000000 0.000000 0.034209
#
#
# Mechanical properties :
#
#
# Convention : Reuss Voigt Hill
#
# Bulk Modulus (GPa) = 63.84242 65.27629 64.55936
# Shear Modulus (GPa) = 36.52873 271.68678 154.10775
#
# Velocity S-wave (km/s) = 4.48789 12.23938 9.21801
# Velocity P-wave (km/s) = 7.87758 15.35345 12.20215
#
# Compressibility (1/GPa) = 0.01566357
#
# Stress axis : x y z
#
# Youngs Moduli (GPa) = 83.39183 59.80223 56.03192
#
# Poissons Ratio (x) = 0.27562 0.08899
# Poissons Ratio (y) = 0.38434 0.51837
# Poissons Ratio (z) = 0.13244 0.55325
#
# Static dielectric constant tensor:
#      x y z
#    x 3.518690 0.000000 0.000000 
#    y 0.000000 3.248300 0.000000 
#    z 0.000000 0.000000 3.234150 
# 
# 
# High freq. dielectric constant tensor:
#      x y z
#    x 1.716960 0.000000 0.000000 
#    y 0.000000 1.691480 0.000000 
#    z 0.000000 0.000000 1.701630 
# 
# From -- ./inp_files/25030.got.cif
#   From: 2010.03.12/outbox.cif.g09.slc.cpg/sg74_13_cif.got.tgz:25030.got - 2010.04.16 15:46:19.
