data_PCOD8299795
_publ_section_title
;
Structure prediction by ZEFSAII (Michael W. Deem and Ramdas Pophale) SiO2 
 PCOD8299795
Probable space group: I M M A
;
_chemical_formula_sum "Si O2"
_cell_formula_units_Z 80
_cell_length_a 8.832748
_cell_length_b 27.818139
_cell_length_c 17.762172
_cell_angle_alpha 90.000000
_cell_angle_beta 90.000000
_cell_angle_gamma 90.000000
_cell_volume 4364.354146
_symmetry_space_group_name_H-M "I M M A"
_symmetry_group_IT_number 74
_symmetry_cell_setting 'orthorhombic'
loop_
_space_group_symop_operation_xyz
x,y,z
-x,1/2-y,z
x,-y,-z
-x,1/2+y,-z
-x,-y,-z
x,1/2+y,-z
-x,y,z
x,1/2-y,z
1/2+x,1/2+y,1/2+z
1/2-x,-y,1/2+z
1/2+x,1/2-y,1/2-z
1/2-x,y,1/2-z
1/2-x,1/2-y,1/2-z
1/2+x,y,1/2-z
1/2-x,1/2+y,1/2+z
1/2+x,-y,1/2+z
loop_
_atom_site_type_symbol
_atom_site_label
_atom_site_fract_x
_atom_site_fract_y
_atom_site_fract_z
Si Si1 0.677616 0.392686 0.455300
Si Si2 0.169341 0.806829 0.176311
Si Si3 0.833562 0.540286 0.437249
Si Si4 0.822085 0.694860 0.478526
Si Si5 0.320396 0.040754 0.168777
O O1 0.500000 0.393440 0.442593
O O2 0.717789 0.419050 0.534584
O O3 0.737380 0.337990 0.459974
O O4 0.756757 0.417683 0.384813
O O5 0.159606 0.750000 0.185281
O O6 0.250000 0.829235 0.250000
O O7 0.267814 0.820994 0.104174
O O8 0.000000 0.828323 0.168331
O O9 0.849293 0.500000 0.500000
O O10 0.775611 0.512540 0.362257
O O11 0.000000 0.563686 0.424157
O O12 0.777690 0.750000 0.495308
O O13 0.000000 0.686663 0.484149
O O14 0.500000 0.046390 0.171964
O O15 0.250000 0.047807 0.250000
#
# Coordination Sequence:
#
# PCOD8299795 Si02
#       5
#    16  16  16  16  16
#     4  11  21  33  53  79 107 139 176 217 261 313
#     4   9  16  27  44  66  92 122 159 204 253 303
#     4   8  16  32  52  74 102 134 166 204 251 303
#     4  10  20  34  52  73 100 138 183 227 268 311
#     4  10  20  35  56  81 109 139 172 212 259 312
#
# _framework density 18.330317000000001
#
# number of rings (size 3 to 8) (size 9 to 14) (size 15 to 20)
#    0.000    2.400    0.000    4.800    0.000    8.000 
#    0.000    1.000    0.000    3.000    0.000    0.000 
#    0.000    0.000    0.000    0.000    0.000    0.000 
#
# Total GULP energy -495869.992618 kJ/mol
# GULP energy per Si atom -12396.749815 kJ/mol
# Density = 1.828860 g / cm^3
# Si number density = 18.330317 Si / 1000 Ang^3
#
#
#
# Elastic Constant Matrix: (Units=GPa)
#
#
# Indices 1 2 3 4 5 6 
#
# 1 115.8631 43.7863 47.4546 -0.0001 0.0000 0.0000
# 2 43.7863 79.2183 50.1781 -0.0001 0.0000 0.0000
# 3 47.4546 50.1781 106.6573 -0.0005 0.0000 0.0000
# 4 -0.0001 -0.0001 -0.0005 13.5372 0.0000 0.0000
# 5 0.0000 0.0000 0.0000 0.0000 32.0138 0.0000
# 6 0.0000 0.0000 0.0000 0.0000 0.0000 24.1111
#
#
#
# Elastic Compliance Matrix: (Units=1/GPa)
#
#
# Indices 1 2 3 4 5 6 
#
# 1 0.011565 -0.004463 -0.003046 0.000000 0.000000 0.000000
# 2 -0.004463 0.019704 -0.007284 0.000000 0.000000 0.000000
# 3 -0.003046 -0.007284 0.014158 0.000000 0.000000 0.000000
# 4 0.000000 0.000000 0.000000 0.073871 0.000000 0.000000
# 5 0.000000 0.000000 0.000000 0.000000 0.031237 0.000000
# 6 0.000000 0.000000 0.000000 0.000000 0.000000 0.041475
#
#
# Mechanical properties :
#
#
# Convention : Reuss Voigt Hill
#
# Bulk Modulus (GPa) = 63.12841 64.95295 64.04068
# Shear Modulus (GPa) = 22.03848 24.62041 23.32944
#
# Velocity S-wave (km/s) = 3.47118 3.66888 3.57140
# Velocity P-wave (km/s) = 7.11193 7.31158 7.21245
#
# Compressibility (1/GPa) = 0.01584073
#
# Stress axis : x y z
#
# Youngs Moduli (GPa) = 86.46751 50.75064 70.63135
#
# Poissons Ratio (x) = 0.22650 0.21514
# Poissons Ratio (y) = 0.38591 0.51450
# Poissons Ratio (z) = 0.26337 0.36968
#
# Static dielectric constant tensor:
#      x y z
#    x 3.464460 0.000000 0.000000 
#    y 0.000000 3.339650 0.000000 
#    z 0.000000 0.000000 3.362220 
# 
# 
# High freq. dielectric constant tensor:
#      x y z
#    x 1.722870 0.000000 0.000000 
#    y 0.000000 1.691940 0.000000 
#    z 0.000000 0.000000 1.689840 
# 
# From -- ./inp_files/39732.got.cif
#   From: 2010.03.12/outbox.cif.g09.slc.cpg/sg74_20_cif.got.tgz:39732.got - 2010.04.16 15:46:19.
