data_PCOD8299751
_publ_section_title
;
Structure prediction by ZEFSAII (Michael W. Deem and Ramdas Pophale) SiO2 
 PCOD8299751
Probable space group: I M M A
;
_chemical_formula_sum "Si O2"
_cell_formula_units_Z 96
_cell_length_a 25.526852
_cell_length_b 9.197275
_cell_length_c 29.035117
_cell_angle_alpha 90.000000
_cell_angle_beta 90.000000
_cell_angle_gamma 90.000000
_cell_volume 6816.791535
_symmetry_space_group_name_H-M "I M M A"
_symmetry_group_IT_number 74
_symmetry_cell_setting 'orthorhombic'
loop_
_space_group_symop_operation_xyz
x,y,z
-x,1/2-y,z
x,-y,-z
-x,1/2+y,-z
-x,-y,-z
x,1/2+y,-z
-x,y,z
x,1/2-y,z
1/2+x,1/2+y,1/2+z
1/2-x,-y,1/2+z
1/2+x,1/2-y,1/2-z
1/2-x,y,1/2-z
1/2-x,1/2-y,1/2-z
1/2+x,y,1/2-z
1/2-x,1/2+y,1/2+z
1/2+x,-y,1/2+z
loop_
_atom_site_type_symbol
_atom_site_label
_atom_site_fract_x
_atom_site_fract_y
_atom_site_fract_z
Si Si1 0.648108 0.577272 0.305605
Si Si2 0.439492 0.582247 0.642385
Si Si3 0.806437 0.910732 0.726561
Si Si4 0.222322 0.582544 0.956263
Si Si5 0.101532 0.080910 0.044504
Si Si6 0.758127 0.420375 0.144218
O O1 0.649015 0.750000 0.307105
O O2 0.592343 0.518345 0.322485
O O3 0.656459 0.525211 0.252617
O O4 0.693156 0.514715 0.338379
O O5 0.500000 0.561953 0.654656
O O6 0.421619 0.750000 0.647944
O O7 0.429489 0.531039 0.589959
O O8 0.832251 0.750000 0.729029
O O9 0.750000 0.906948 0.750000
O O10 0.794812 0.955979 0.673303
O O11 0.227693 0.750000 0.968187
O O12 0.162074 0.537510 0.948539
O O13 0.253086 0.542229 0.909243
O O14 0.247105 0.500000 0.000000
O O15 0.094111 0.250000 0.035397
O O16 0.077845 0.000000 0.000000
O O17 0.773596 0.250000 0.149700
#
# Coordination Sequence:
#
# PCOD8299751 Si02
#       6
#    16  16  16  16  16  16
#     4  11  20  28  41  60  82  99 119 160 206 242
#     4  10  20  34  48  57  70  99 135 166 200 244
#     4   8  15  27  44  60  76 100 128 154 187 231
#     4   9  16  26  40  57  79 102 129 162 196 233
#     4   9  17  29  43  57  73  94 125 165 206 244
#     4   9  16  29  45  59  77 104 133 159 187 230
#
# _framework density 14.082871000000001
#
# number of rings (size 3 to 8) (size 9 to 14) (size 15 to 20)
#    0.000    2.667    1.667    2.500    0.000    5.000 
#    0.000    0.000    0.000    0.000    0.000    0.000 
#    0.000    0.000    0.000    0.000    0.000    0.833 
#
# Total GULP energy -594985.033501 kJ/mol
# GULP energy per Si atom -12395.521531 kJ/mol
# Density = 1.405082 g / cm^3
# Si number density = 14.082871 Si / 1000 Ang^3
#
#
#
# Elastic Constant Matrix: (Units=GPa)
#
#
# Indices 1 2 3 4 5 6 
#
# 1 38.2569 32.5972 43.4819 0.0000 0.0000 0.0000
# 2 32.5972 74.8924 54.1984 0.0000 0.0000 0.0000
# 3 43.4819 54.1984 115.9545 0.0000 0.0000 0.0000
# 4 0.0000 0.0000 0.0000 22.7874 0.0000 0.0000
# 5 0.0000 0.0000 0.0000 0.0000 18.6080 0.0000
# 6 0.0000 0.0000 0.0000 0.0000 0.0000 10.9353
#
#
#
# Elastic Compliance Matrix: (Units=1/GPa)
#
#
# Indices 1 2 3 4 5 6 
#
# 1 0.052876 -0.013095 -0.013707 0.000000 0.000000 0.000000
# 2 -0.013095 0.023421 -0.006037 0.000000 0.000000 0.000000
# 3 -0.013707 -0.006037 0.016586 0.000000 0.000000 0.000000
# 4 0.000000 0.000000 0.000000 0.043884 0.000000 0.000000
# 5 0.000000 0.000000 0.000000 0.000000 0.053740 0.000000
# 6 0.000000 0.000000 0.000000 0.000000 0.000000 0.091447
#
#
# Mechanical properties :
#
#
# Convention : Reuss Voigt Hill
#
# Bulk Modulus (GPa) = 36.75800 54.40655 45.58228
# Shear Modulus (GPa) = 14.01738 17.05454 15.53596
#
# Velocity S-wave (km/s) = 3.15834 3.48374 3.32502
# Velocity P-wave (km/s) = 6.28156 7.40938 6.86866
#
# Compressibility (1/GPa) = 0.02720496
#
# Stress axis : x y z
#
# Youngs Moduli (GPa) = 18.91214 42.69736 60.29234
#
# Poissons Ratio (x) = 0.55911 0.82645
# Poissons Ratio (y) = 0.24765 0.36397
# Poissons Ratio (z) = 0.25924 0.25775
#
# Static dielectric constant tensor:
#      x y z
#    x 2.437340 0.000000 0.000000 
#    y 0.000000 2.736290 0.000000 
#    z 0.000000 0.000000 3.137540 
# 
# 
# High freq. dielectric constant tensor:
#      x y z
#    x 1.478280 0.000000 0.000000 
#    y 0.000000 1.535780 0.000000 
#    z 0.000000 0.000000 1.540150 
# 
# From -- ./inp_files/68584.got.cif
#   From: 2010.03.12/outbox.cif.g09.slc.cpg/sg74_35_cif.got.tgz:68584.got - 2010.04.16 15:46:19.
