data_PCOD8299038
_publ_section_title
;
Structure prediction by ZEFSAII (Michael W. Deem and Ramdas Pophale) SiO2 
 PCOD8299038
Probable space group: I M M A
;
_chemical_formula_sum "Si O2"
_cell_formula_units_Z 96
_cell_length_a 9.178841
_cell_length_b 19.511850
_cell_length_c 30.403109
_cell_angle_alpha 90.000000
_cell_angle_beta 90.000000
_cell_angle_gamma 90.000000
_cell_volume 5445.080340
_symmetry_space_group_name_H-M "I M M A"
_symmetry_group_IT_number 74
_symmetry_cell_setting 'orthorhombic'
loop_
_space_group_symop_operation_xyz
x,y,z
-x,1/2-y,z
x,-y,-z
-x,1/2+y,-z
-x,-y,-z
x,1/2+y,-z
-x,y,z
x,1/2-y,z
1/2+x,1/2+y,1/2+z
1/2-x,-y,1/2+z
1/2+x,1/2-y,1/2-z
1/2-x,y,1/2-z
1/2-x,1/2-y,1/2-z
1/2+x,y,1/2-z
1/2-x,1/2+y,1/2+z
1/2+x,-y,1/2+z
loop_
_atom_site_type_symbol
_atom_site_label
_atom_site_fract_x
_atom_site_fract_y
_atom_site_fract_z
Si Si1 0.171477 0.529287 0.203320
Si Si2 0.329178 0.544712 0.041873
Si Si3 0.332259 0.540944 0.872474
Si Si4 0.834959 0.673400 0.577468
Si Si5 0.331882 0.322097 0.704741
Si Si6 0.828982 0.327705 0.988490
O O1 0.250000 0.520002 0.250000
O O2 0.232505 0.474451 0.169251
O O3 0.207054 0.605179 0.181995
O O4 0.000000 0.517326 0.209892
O O5 0.500000 0.559003 0.039003
O O6 0.285636 0.504445 0.085786
O O7 0.277357 0.500000 0.000000
O O8 0.247734 0.617892 0.043627
O O9 0.500000 0.527259 0.860190
O O10 0.303271 0.620600 0.883373
O O11 0.814555 0.750000 0.596423
O O12 0.725858 0.659289 0.537775
O O13 0.000000 0.661942 0.559671
O O14 0.500000 0.324137 0.717025
O O15 0.297105 0.250000 0.678091
O O16 0.250000 0.318671 0.750000
O O17 0.790383 0.250000 0.973388
O O18 0.000000 0.340491 0.987238
#
# Coordination Sequence:
#
# PCOD8299038 Si02
#       6
#    16  16  16  16  16  16
#     4  10  20  34  53  76 103 136 172 212 262 310
#     4  10  19  34  53  75 103 138 175 212 256 309
#     4  10  20  34  53  78 105 132 170 216 259 310
#     4   9  17  32  54  76 100 134 173 212 256 310
#     4   8  14  26  45  68  92 120 157 199 241 288
#     4  10  20  32  48  74 107 141 176 216 260 305
#
# _framework density 17.630593000000001
#
# number of rings (size 3 to 8) (size 9 to 14) (size 15 to 20)
#    0.000    2.500    1.667    1.000    0.000    3.333 
#    0.000    0.833    0.000    3.500    0.000    0.000 
#    0.000    0.000    0.000    0.000    0.000    0.000 
#
# Total GULP energy -594786.984755 kJ/mol
# GULP energy per Si atom -12391.395516 kJ/mol
# Density = 1.759047 g / cm^3
# Si number density = 17.630593 Si / 1000 Ang^3
#
#
#
# Elastic Constant Matrix: (Units=GPa)
#
#
# Indices 1 2 3 4 5 6 
#
# 1 62.7428 49.1767 35.8934 0.0000 0.0000 0.0000
# 2 49.1767 132.3077 50.2780 0.0000 0.0000 0.0000
# 3 35.8934 50.2780 75.7376 0.0000 0.0000 0.0000
# 4 0.0000 0.0000 0.0000 48.7809 0.0000 0.0000
# 5 0.0000 0.0000 0.0000 0.0000 25.8032 0.0000
# 6 0.0000 0.0000 0.0000 0.0000 0.0000 23.6789
#
#
#
# Elastic Compliance Matrix: (Units=1/GPa)
#
#
# Indices 1 2 3 4 5 6 
#
# 1 0.025486 -0.006530 -0.007743 0.000000 0.000000 0.000000
# 2 -0.006530 0.011781 -0.004726 0.000000 0.000000 0.000000
# 3 -0.007743 -0.004726 0.020011 0.000000 0.000000 0.000000
# 4 0.000000 0.000000 0.000000 0.020500 0.000000 0.000000
# 5 0.000000 0.000000 0.000000 0.000000 0.038755 0.000000
# 6 0.000000 0.000000 0.000000 0.000000 0.000000 0.042232
#
#
# Mechanical properties :
#
#
# Convention : Reuss Voigt Hill
#
# Bulk Modulus (GPa) = 51.87085 60.16494 56.01790
# Shear Modulus (GPa) = 24.60752 28.68193 26.64472
#
# Velocity S-wave (km/s) = 3.74000 4.03777 3.89173
# Velocity P-wave (km/s) = 6.93793 7.47914 7.21361
#
# Compressibility (1/GPa) = 0.01927865
#
# Stress axis : x y z
#
# Youngs Moduli (GPa) = 39.23708 84.88012 49.97365
#
# Poissons Ratio (x) = 0.55429 0.38696
# Poissons Ratio (y) = 0.25623 0.23618
# Poissons Ratio (z) = 0.30382 0.40115
#
# Static dielectric constant tensor:
#      x y z
#    x 3.215820 0.000000 0.000000 
#    y 0.000000 3.792010 0.000000 
#    z 0.000000 0.000000 2.813630 
# 
# 
# High freq. dielectric constant tensor:
#      x y z
#    x 1.683550 0.000000 0.000000 
#    y 0.000000 1.699380 0.000000 
#    z 0.000000 0.000000 1.634500 
# 
# From -- ./inp_files/64306.got.cif
#   From: 2010.03.12/outbox.cif.g09.slc.cpg/sg74_33_cif.got.tgz:64306.got - 2010.04.16 15:46:19.
