data_PCOD8299219
_publ_section_title
;
Structure prediction by ZEFSAII (Michael W. Deem and Ramdas Pophale) SiO2 
 PCOD8299219
Probable space group: I M M A
;
_chemical_formula_sum "Si O2"
_cell_formula_units_Z 104
_cell_length_a 19.628211
_cell_length_b 8.921330
_cell_length_c 29.780928
_cell_angle_alpha 90.000000
_cell_angle_beta 90.000000
_cell_angle_gamma 90.000000
_cell_volume 5214.930787
_symmetry_space_group_name_H-M "I M M A"
_symmetry_group_IT_number 74
_symmetry_cell_setting 'orthorhombic'
loop_
_space_group_symop_operation_xyz
x,y,z
-x,1/2-y,z
x,-y,-z
-x,1/2+y,-z
-x,-y,-z
x,1/2+y,-z
-x,y,z
x,1/2-y,z
1/2+x,1/2+y,1/2+z
1/2-x,-y,1/2+z
1/2+x,1/2-y,1/2-z
1/2-x,y,1/2-z
1/2-x,1/2-y,1/2-z
1/2+x,y,1/2-z
1/2-x,1/2+y,1/2+z
1/2+x,-y,1/2+z
loop_
_atom_site_type_symbol
_atom_site_label
_atom_site_fract_x
_atom_site_fract_y
_atom_site_fract_z
Si Si1 0.000000 0.919702 0.454435
Si Si2 0.244209 0.925534 0.200166
Si Si3 0.500000 0.570515 0.652271
Si Si4 0.767725 0.572392 0.950522
Si Si5 0.859618 0.930132 0.124736
Si Si6 0.619358 0.587049 0.914704
Si Si7 0.375797 0.414651 0.186345
Si Si8 0.000000 0.927413 0.744198
O O1 0.000000 0.750000 0.464985
O O2 0.000000 0.000000 0.500000
O O3 0.930174 0.957980 0.430232
O O4 0.236005 0.750000 0.204081
O O5 0.250000 0.998829 0.250000
O O6 0.182362 0.985492 0.169107
O O7 0.314966 0.969642 0.178099
O O8 0.500000 0.750000 0.647412
O O9 0.434525 0.500108 0.628227
O O10 0.500000 0.520346 0.704417
O O11 0.781904 0.750000 0.954033
O O12 0.826096 0.494734 0.920512
O O13 0.696721 0.538193 0.925284
O O14 0.767844 0.500000 0.000000
O O15 0.862790 0.750000 0.121849
O O16 0.606579 0.750000 0.938090
O O17 0.597391 0.607452 0.863402
O O18 0.352885 0.250000 0.205073
O O19 0.432379 0.488785 0.219191
O O20 0.000000 0.750000 0.738493
#
# Coordination Sequence:
#
# PCOD8299219 Si02
#       8
#     8  16   8  16  16  16  16   8
#     4  12  25  38  56  81 114 156 203 250 299 354
#     4  10  21  36  56  86 124 162 201 247 298 357
#     4  11  23  40  63  91 123 160 205 256 308 372
#     4  11  23  41  66  95 124 161 207 259 318 377
#     4  11  23  41  64  90 124 163 204 254 313 375
#     4  10  21  38  60  87 122 161 204 255 306 357
#     4  10  19  35  58  84 117 159 204 249 295 347
#     4   9  19  34  56  88 125 166 211 256 303 356
#
# _framework density 19.942737000000001
#
# number of rings (size 3 to 8) (size 9 to 14) (size 15 to 20)
#    0.000    1.538    1.538    3.692    0.000    5.231 
#    0.000    1.538    0.000    0.000    0.000    0.000 
#    0.000    0.000    0.000    0.000    0.000    0.000 
#
# Total GULP energy -644452.405192 kJ/mol
# GULP energy per Si atom -12393.315484 kJ/mol
# Density = 1.989735 g / cm^3
# Si number density = 19.942737 Si / 1000 Ang^3
#
#
#
# Elastic Constant Matrix: (Units=GPa)
#
#
# Indices 1 2 3 4 5 6 
#
# 1 140.5245 46.5542 46.9980 0.0000 0.0000 0.0000
# 2 46.5542 79.4003 45.2470 0.0000 0.0000 0.0000
# 3 46.9980 45.2470 110.2192 0.0000 0.0000 0.0000
# 4 0.0000 0.0000 0.0000 27.2575 0.0000 0.0000
# 5 0.0000 0.0000 0.0000 0.0000 20.5377 0.0000
# 6 0.0000 0.0000 0.0000 0.0000 0.0000 24.9272
#
#
#
# Elastic Compliance Matrix: (Units=1/GPa)
#
#
# Indices 1 2 3 4 5 6 
#
# 1 0.009236 -0.004140 -0.002239 0.000000 0.000000 0.000000
# 2 -0.004140 0.018296 -0.005746 0.000000 0.000000 0.000000
# 3 -0.002239 -0.005746 0.012386 0.000000 0.000000 0.000000
# 4 0.000000 0.000000 0.000000 0.036687 0.000000 0.000000
# 5 0.000000 0.000000 0.000000 0.000000 0.048691 0.000000
# 6 0.000000 0.000000 0.000000 0.000000 0.000000 0.040117
#
#
# Mechanical properties :
#
#
# Convention : Reuss Voigt Hill
#
# Bulk Modulus (GPa) = 63.81662 67.52696 65.67179
# Shear Modulus (GPa) = 25.65613 27.30079 26.47846
#
# Velocity S-wave (km/s) = 3.59066 3.70396 3.64775
# Velocity P-wave (km/s) = 7.01854 7.22678 7.12342
#
# Compressibility (1/GPa) = 0.01566990
#
# Stress axis : x y z
#
# Youngs Moduli (GPa) = 108.26671 54.65758 80.73455
#
# Poissons Ratio (x) = 0.22626 0.18077
# Poissons Ratio (y) = 0.44818 0.46387
# Poissons Ratio (z) = 0.24242 0.31404
#
# Static dielectric constant tensor:
#      x y z
#    x 3.584630 0.000000 0.000000 
#    y 0.000000 3.398620 0.000000 
#    z 0.000000 0.000000 3.764980 
# 
# 
# High freq. dielectric constant tensor:
#      x y z
#    x 1.777940 0.000000 0.000000 
#    y 0.000000 1.772370 0.000000 
#    z 0.000000 0.000000 1.782600 
# 
# From -- ./inp_files/68296.got.cif
#   From: 2010.03.12/outbox.cif.g09.slc.cpg/sg74_35_cif.got.tgz:68296.got - 2010.04.16 15:46:19.
