data_PCOD8299906
_publ_section_title
;
Structure prediction by ZEFSAII (Michael W. Deem and Ramdas Pophale) SiO2 
 PCOD8299906
Probable space group: I M M A
;
_chemical_formula_sum "Si O2"
_cell_formula_units_Z 72
_cell_length_a 31.967627
_cell_length_b 8.761684
_cell_length_c 13.463295
_cell_angle_alpha 90.000000
_cell_angle_beta 90.000000
_cell_angle_gamma 90.000000
_cell_volume 3770.937609
_symmetry_space_group_name_H-M "I M M A"
_symmetry_group_IT_number 74
_symmetry_cell_setting 'orthorhombic'
loop_
_space_group_symop_operation_xyz
x,y,z
-x,1/2-y,z
x,-y,-z
-x,1/2+y,-z
-x,-y,-z
x,1/2+y,-z
-x,y,z
x,1/2-y,z
1/2+x,1/2+y,1/2+z
1/2-x,-y,1/2+z
1/2+x,1/2-y,1/2-z
1/2-x,y,1/2-z
1/2-x,1/2-y,1/2-z
1/2+x,y,1/2-z
1/2-x,1/2+y,1/2+z
1/2+x,-y,1/2+z
loop_
_atom_site_type_symbol
_atom_site_label
_atom_site_fract_x
_atom_site_fract_y
_atom_site_fract_z
Si Si1 0.842079 0.077822 0.398045
Si Si2 0.500000 0.572398 0.109789
Si Si3 0.865939 0.930755 0.895101
Si Si4 0.203980 0.571747 0.224472
Si Si5 0.423592 0.579607 0.788021
O O1 0.823301 0.250000 0.390958
O O2 0.891543 0.085290 0.380034
O O3 0.830715 0.000000 0.500000
O O4 0.823252 0.961745 0.319962
O O5 0.500000 0.750000 0.090175
O O6 0.460454 0.530375 0.177852
O O7 0.500000 0.500000 0.000000
O O8 0.863708 0.750000 0.901414
O O9 0.900166 0.980552 0.811938
O O10 0.819117 0.989742 0.868134
O O11 0.880338 0.000000 0.000000
O O12 0.206019 0.750000 0.200075
O O13 0.250000 0.506285 0.250000
O O14 0.441362 0.750000 0.768794
#
# Coordination Sequence:
#
# PCOD8299906 Si02
#       5
#    16   8  16  16  16
#     4  10  20  34  54  78 105 140 177 217 268 322
#     4  12  24  36  57  86 115 148 181 220 272 328
#     4  10  21  38  61  84 109 146 187 230 279 329
#     4  10  21  36  54  78 108 142 182 228 274 322
#     4   9  20  38  57  80 110 142 179 223 269 320
#
# _framework density 19.093395000000001
#
# number of rings (size 3 to 8) (size 9 to 14) (size 15 to 20)
#    0.000    2.000    0.000    5.000    0.000    9.778 
#    0.000    0.556    0.000    0.000    0.000    0.000 
#    0.000    0.000    0.000    0.000    0.000    0.000 
#
# Total GULP energy -446225.385606 kJ/mol
# GULP energy per Si atom -12395.149600 kJ/mol
# Density = 1.904994 g / cm^3
# Si number density = 19.093395 Si / 1000 Ang^3
#
#
#
# Elastic Constant Matrix: (Units=GPa)
#
#
# Indices 1 2 3 4 5 6 
#
# 1 99.4605 45.8361 32.4906 0.0000 0.0000 0.0000
# 2 45.8361 94.6590 37.1262 0.0000 0.0000 0.0000
# 3 32.4906 37.1262 108.5419 0.0000 0.0000 0.0000
# 4 0.0000 0.0000 0.0000 32.7187 0.0000 0.0000
# 5 0.0000 0.0000 0.0000 0.0000 17.0199 0.0000
# 6 0.0000 0.0000 0.0000 0.0000 0.0000 30.8405
#
#
#
# Elastic Compliance Matrix: (Units=1/GPa)
#
#
# Indices 1 2 3 4 5 6 
#
# 1 0.013329 -0.005647 -0.002058 0.000000 0.000000 0.000000
# 2 -0.005647 0.014593 -0.003301 0.000000 0.000000 0.000000
# 3 -0.002058 -0.003301 0.010958 0.000000 0.000000 0.000000
# 4 0.000000 0.000000 0.000000 0.030564 0.000000 0.000000
# 5 0.000000 0.000000 0.000000 0.000000 0.058755 0.000000
# 6 0.000000 0.000000 0.000000 0.000000 0.000000 0.032425
#
#
# Mechanical properties :
#
#
# Convention : Reuss Voigt Hill
#
# Bulk Modulus (GPa) = 59.28499 59.28524 59.28511
# Shear Modulus (GPa) = 26.55905 28.59637 27.57771
#
# Velocity S-wave (km/s) = 3.73367 3.87422 3.80460
# Velocity P-wave (km/s) = 7.05014 7.15055 7.10052
#
# Compressibility (1/GPa) = 0.01686768
#
# Stress axis : x y z
#
# Youngs Moduli (GPa) = 75.02438 68.52415 91.25455
#
# Poissons Ratio (x) = 0.38695 0.18784
# Poissons Ratio (y) = 0.42366 0.30126
# Poissons Ratio (z) = 0.15443 0.22622
#
# Static dielectric constant tensor:
#      x y z
#    x 3.543710 0.000000 0.000000 
#    y 0.000000 3.503020 0.000000 
#    z 0.000000 0.000000 3.686630 
# 
# 
# High freq. dielectric constant tensor:
#      x y z
#    x 1.731980 0.000000 0.000000 
#    y 0.000000 1.749430 0.000000 
#    z 0.000000 0.000000 1.742000 
# 
# From -- ./inp_files/29401.got.cif
#   From: 2010.03.12/outbox.cif.g09.slc.cpg/sg74_15_cif.got.tgz:29401.got - 2010.04.16 15:46:19.
