data_PCOD8299304
_publ_section_title
;
Structure prediction by ZEFSAII (Michael W. Deem and Ramdas Pophale) SiO2 
 PCOD8299304
Probable space group: I M M A
;
_chemical_formula_sum "Si O2"
_cell_formula_units_Z 104
_cell_length_a 25.190111
_cell_length_b 20.218927
_cell_length_c 9.370799
_cell_angle_alpha 90.000000
_cell_angle_beta 90.000000
_cell_angle_gamma 90.000000
_cell_volume 4772.707379
_symmetry_space_group_name_H-M "I M M A"
_symmetry_group_IT_number 74
_symmetry_cell_setting 'orthorhombic'
loop_
_space_group_symop_operation_xyz
x,y,z
-x,1/2-y,z
x,-y,-z
-x,1/2+y,-z
-x,-y,-z
x,1/2+y,-z
-x,y,z
x,1/2-y,z
1/2+x,1/2+y,1/2+z
1/2-x,-y,1/2+z
1/2+x,1/2-y,1/2-z
1/2-x,y,1/2-z
1/2-x,1/2-y,1/2-z
1/2+x,y,1/2-z
1/2-x,1/2+y,1/2+z
1/2+x,-y,1/2+z
loop_
_atom_site_type_symbol
_atom_site_label
_atom_site_fract_x
_atom_site_fract_y
_atom_site_fract_z
Si Si1 0.593135 0.928729 0.466770
Si Si2 0.180760 0.823927 0.008335
Si Si3 0.750000 0.628263 0.250000
Si Si4 0.058681 0.044207 0.664635
Si Si5 0.335046 0.325699 0.188764
Si Si6 0.831724 0.926988 0.450455
Si Si7 0.441790 0.895841 0.767397
O O1 0.638108 0.875444 0.435486
O O2 0.556241 0.933836 0.328552
O O3 0.556201 0.908514 0.598210
O O4 0.620469 0.000000 0.500000
O O5 0.156933 0.750000 0.016676
O O6 0.231160 0.828106 0.114116
O O7 0.194532 0.838507 0.840948
O O8 0.798822 0.583717 0.305083
O O9 0.105353 0.083036 0.582005
O O10 0.071308 0.034698 0.348850
O O11 0.000000 0.059741 0.599689
O O12 0.326891 0.250000 0.139117
O O13 0.397922 0.340646 0.200876
O O14 0.311820 0.374820 0.069700
O O15 0.817474 0.000000 0.500000
O O16 0.500000 0.869793 0.813014
#
# Coordination Sequence:
#
# PCOD8299304 Si02
#       7
#    16  16   8  16  16  16  16
#     4   9  17  33  61  94 133 162 211 267 321 379
#     4  10  22  42  68  95 124 169 215 263 323 386
#     4  12  27  44  70  96 125 164 218 274 319 376
#     4  10  19  36  64  96 129 168 214 267 321 379
#     4  10  23  42  64  91 133 171 208 265 327 388
#     4  12  26  45  65  98 130 170 215 265 324 384
#     4   9  17  32  61  94 128 168 212 262 317 383
#
# _framework density 21.790566999999999
#
# number of rings (size 3 to 8) (size 9 to 14) (size 15 to 20)
#    0.000    1.846    3.077    0.692    0.000    6.769 
#    0.000    1.538    0.000    2.308    0.000    0.000 
#    0.000    0.000    0.000    0.000    0.000    0.000 
#
# Total GULP energy -644540.493065 kJ/mol
# GULP energy per Si atom -12395.009482 kJ/mol
# Density = 2.174097 g / cm^3
# Si number density = 21.790567 Si / 1000 Ang^3
#
#
#
# Elastic Constant Matrix: (Units=GPa)
#
#
# Indices 1 2 3 4 5 6 
#
# 1 81.2838 34.5659 52.0104 0.0000 0.0000 0.0000
# 2 34.5659 113.5585 48.5815 0.0000 0.0000 0.0000
# 3 52.0104 48.5815 107.9097 0.0000 0.0000 0.0000
# 4 0.0000 0.0000 0.0000 31.5417 0.0000 0.0000
# 5 0.0000 0.0000 0.0000 0.0000 25.8575 0.0000
# 6 0.0000 0.0000 0.0000 0.0000 0.0000 12.0953
#
#
#
# Elastic Compliance Matrix: (Units=1/GPa)
#
#
# Indices 1 2 3 4 5 6 
#
# 1 0.018228 -0.002217 -0.007788 0.000000 0.000000 0.000000
# 2 -0.002217 0.011176 -0.003963 0.000000 0.000000 0.000000
# 3 -0.007788 -0.003963 0.014805 0.000000 0.000000 0.000000
# 4 0.000000 0.000000 0.000000 0.031704 0.000000 0.000000
# 5 0.000000 0.000000 0.000000 0.000000 0.038674 0.000000
# 6 0.000000 0.000000 0.000000 0.000000 0.000000 0.082677
#
#
# Mechanical properties :
#
#
# Convention : Reuss Voigt Hill
#
# Bulk Modulus (GPa) = 61.44756 63.67416 62.56086
# Shear Modulus (GPa) = 21.68032 25.07184 23.37608
#
# Velocity S-wave (km/s) = 3.15769 3.39570 3.27886
# Velocity P-wave (km/s) = 6.44632 6.68273 6.56559
#
# Compressibility (1/GPa) = 0.01627404
#
# Stress axis : x y z
#
# Youngs Moduli (GPa) = 54.85972 89.47517 67.54592
#
# Poissons Ratio (x) = 0.19835 0.52602
# Poissons Ratio (y) = 0.12162 0.26769
# Poissons Ratio (z) = 0.42723 0.35460
#
# Static dielectric constant tensor:
#      x y z
#    x 3.723760 0.000000 0.000000 
#    y 0.000000 3.685060 0.000000 
#    z 0.000000 0.000000 4.186290 
# 
# 
# High freq. dielectric constant tensor:
#      x y z
#    x 1.846530 0.000000 0.000000 
#    y 0.000000 1.826170 0.000000 
#    z 0.000000 0.000000 1.883010 
# 
# From -- ./inp_files/15212.got.cif
#   From: 2010.03.12/outbox.cif.g09.slc.cpg/sg74_8_cif.got.tgz:15212.got - 2010.04.16 15:46:19.
