data_PCOD8299792
_publ_section_title
;
Structure prediction by ZEFSAII (Michael W. Deem and Ramdas Pophale) SiO2 
 PCOD8299792
Probable space group: I M M A
;
_chemical_formula_sum "Si O2"
_cell_formula_units_Z 112
_cell_length_a 19.517934
_cell_length_b 23.647553
_cell_length_c 13.528869
_cell_angle_alpha 90.000000
_cell_angle_beta 90.000000
_cell_angle_gamma 90.000000
_cell_volume 6244.268139
_symmetry_space_group_name_H-M "I M M A"
_symmetry_group_IT_number 74
_symmetry_cell_setting 'orthorhombic'
loop_
_space_group_symop_operation_xyz
x,y,z
-x,1/2-y,z
x,-y,-z
-x,1/2+y,-z
-x,-y,-z
x,1/2+y,-z
-x,y,z
x,1/2-y,z
1/2+x,1/2+y,1/2+z
1/2-x,-y,1/2+z
1/2+x,1/2-y,1/2-z
1/2-x,y,1/2-z
1/2-x,1/2-y,1/2-z
1/2+x,y,1/2-z
1/2-x,1/2+y,1/2+z
1/2+x,-y,1/2+z
loop_
_atom_site_type_symbol
_atom_site_label
_atom_site_fract_x
_atom_site_fract_y
_atom_site_fract_z
Si Si1 0.320610 0.315732 0.803035
Si Si2 0.420486 0.970972 0.711215
Si Si3 0.677447 0.618768 0.787615
Si Si4 0.213195 0.685968 0.527166
Si Si5 0.923171 0.584528 0.983495
Si Si6 0.079966 0.402789 0.800156
Si Si7 0.639256 0.312985 0.394266
O O1 0.339879 0.250000 0.784639
O O2 0.250000 0.331152 0.750000
O O3 0.380614 0.355029 0.760636
O O4 0.312342 0.329392 0.918249
O O5 0.500000 0.952535 0.715625
O O6 0.377887 0.931314 0.784686
O O7 0.394034 0.961352 0.596384
O O8 0.410914 0.035163 0.748280
O O9 0.750000 0.593699 0.750000
O O10 0.677917 0.641697 0.898984
O O11 0.659535 0.671707 0.717536
O O12 0.191766 0.750000 0.554957
O O13 0.295265 0.680406 0.533807
O O14 0.920088 0.645786 0.931829
O O15 0.000000 0.566709 0.008676
O O16 0.886714 0.589578 0.090034
O O17 0.000000 0.384804 0.802943
O O18 0.609621 0.250000 0.396638
#
# Coordination Sequence:
#
# PCOD8299792 Si02
#       7
#    16  16  16  16  16  16  16
#     4  10  21  36  53  73  98 128 162 199 238 281
#     4   9  18  33  51  72  99 128 158 196 243 291
#     4   9  17  30  50  75  99 125 159 198 239 286
#     4   9  17  31  50  70  96 129 161 196 241 289
#     4   9  17  29  47  71  99 129 158 192 238 291
#     4  10  20  34  52  72  96 129 165 199 238 284
#     4   9  16  27  46  73 101 126 156 195 240 289
#
# _framework density 17.936449
#
# number of rings (size 3 to 8) (size 9 to 14) (size 15 to 20)
#    0.000    2.714    0.000    1.714    0.000    6.286 
#    0.000    2.857    0.000    3.857    0.000    0.000 
#    0.000    0.000    0.000    0.000    0.000    0.000 
#
# Total GULP energy -694054.580190 kJ/mol
# GULP energy per Si atom -12393.831789 kJ/mol
# Density = 1.789562 g / cm^3
# Si number density = 17.936449 Si / 1000 Ang^3
#
#
#
# Elastic Constant Matrix: (Units=GPa)
#
#
# Indices 1 2 3 4 5 6 
#
# 1 60.5634 47.2369 40.8285 0.0000 0.0000 0.0000
# 2 47.2369 100.1180 46.4676 0.0000 0.0000 0.0000
# 3 40.8285 46.4676 101.1694 0.0000 0.0000 0.0000
# 4 0.0000 0.0000 0.0000 19.5356 0.0000 0.0000
# 5 0.0000 0.0000 0.0000 0.0000 24.0939 0.0000
# 6 0.0000 0.0000 0.0000 0.0000 0.0000 31.1253
#
#
#
# Elastic Compliance Matrix: (Units=1/GPa)
#
#
# Indices 1 2 3 4 5 6 
#
# 1 0.029597 -0.010702 -0.007029 0.000000 0.000000 0.000000
# 2 -0.010702 0.016564 -0.003289 0.000000 0.000000 0.000000
# 3 -0.007029 -0.003289 0.014232 0.000000 0.000000 0.000000
# 4 0.000000 0.000000 0.000000 0.051189 0.000000 0.000000
# 5 0.000000 0.000000 0.000000 0.000000 0.041504 0.000000
# 6 0.000000 0.000000 0.000000 0.000000 0.000000 0.032128
#
#
# Mechanical properties :
#
#
# Convention : Reuss Voigt Hill
#
# Bulk Modulus (GPa) = 54.48664 58.99077 56.73870
# Shear Modulus (GPa) = 21.42506 23.43884 22.43195
#
# Velocity S-wave (km/s) = 3.45990 3.61885 3.54027
# Velocity P-wave (km/s) = 6.81211 7.10082 6.95796
#
# Compressibility (1/GPa) = 0.01835312
#
# Stress axis : x y z
#
# Youngs Moduli (GPa) = 33.78691 60.37162 70.26566
#
# Poissons Ratio (x) = 0.64610 0.49389
# Poissons Ratio (y) = 0.36159 0.23110
# Poissons Ratio (z) = 0.23749 0.19856
#
# Static dielectric constant tensor:
#      x y z
#    x 3.107140 0.000000 0.000000 
#    y 0.000000 3.293500 0.000000 
#    z 0.000000 0.000000 3.269930 
# 
# 
# High freq. dielectric constant tensor:
#      x y z
#    x 1.668280 0.000000 0.000000 
#    y 0.000000 1.697550 0.000000 
#    z 0.000000 0.000000 1.686650 
# 
# From -- ./inp_files/24169.got.cif
#   From: 2010.03.12/outbox.cif.g09.slc.cpg/sg74_13_cif.got.tgz:24169.got - 2010.04.16 15:46:19.
