data_PCOD8299639
_publ_section_title
;
Structure prediction by ZEFSAII (Michael W. Deem and Ramdas Pophale) SiO2 
 PCOD8299639
Probable space group: I M M A
;
_chemical_formula_sum "Si O2"
_cell_formula_units_Z 112
_cell_length_a 16.990584
_cell_length_b 14.449617
_cell_length_c 23.719165
_cell_angle_alpha 90.000000
_cell_angle_beta 90.000000
_cell_angle_gamma 90.000000
_cell_volume 5823.231274
_symmetry_space_group_name_H-M "I M M A"
_symmetry_group_IT_number 74
_symmetry_cell_setting 'orthorhombic'
loop_
_space_group_symop_operation_xyz
x,y,z
-x,1/2-y,z
x,-y,-z
-x,1/2+y,-z
-x,-y,-z
x,1/2+y,-z
-x,y,z
x,1/2-y,z
1/2+x,1/2+y,1/2+z
1/2-x,-y,1/2+z
1/2+x,1/2-y,1/2-z
1/2-x,y,1/2-z
1/2-x,1/2-y,1/2-z
1/2+x,y,1/2-z
1/2-x,1/2+y,1/2+z
1/2+x,-y,1/2+z
loop_
_atom_site_type_symbol
_atom_site_label
_atom_site_fract_x
_atom_site_fract_y
_atom_site_fract_z
Si Si1 0.588235 0.029352 0.909700
Si Si2 0.593011 0.530247 0.297590
Si Si3 0.192706 0.855003 0.802375
Si Si4 0.271152 0.403408 0.981769
Si Si5 0.811419 0.148243 0.399084
Si Si6 0.644194 0.858902 0.189879
Si Si7 0.807211 0.352848 0.869768
O O1 0.500000 0.019489 0.933195
O O2 0.641461 0.076717 0.957415
O O3 0.585350 0.093971 0.854547
O O4 0.620199 0.927412 0.893489
O O5 0.500000 0.534680 0.293715
O O6 0.619184 0.423474 0.294228
O O7 0.632709 0.592881 0.249660
O O8 0.623172 0.575000 0.356347
O O9 0.160215 0.750000 0.805872
O O10 0.250000 0.867245 0.750000
O O11 0.239462 0.882316 0.859114
O O12 0.216332 0.355745 0.935514
O O13 0.231334 0.500000 0.000000
O O14 0.279876 0.340768 0.037002
O O15 0.842765 0.250000 0.380180
O O16 0.625655 0.750000 0.194462
O O17 0.732751 0.877848 0.169231
O O18 0.837383 0.250000 0.856275
#
# Coordination Sequence:
#
# PCOD8299639 Si02
#       7
#    16  16  16  16  16  16  16
#     4  10  20  33  50  77 115 150 177 214 263 310
#     4  12  23  34  54  83 112 139 170 217 274 323
#     4  10  21  39  61  81 104 138 179 220 262 311
#     4   9  18  33  54  76 103 140 184 224 261 309
#     4  10  20  35  57  80 102 137 184 225 261 309
#     4  10  21  37  56  77 105 145 187 218 250 306
#     4  10  20  35  55  78 107 143 181 219 260 309
#
# _framework density 19.233308000000001
#
# number of rings (size 3 to 8) (size 9 to 14) (size 15 to 20)
#    0.000    1.857    0.000    6.000    0.000    6.857 
#    0.000    0.000    0.000    8.143    0.000    4.000 
#    0.000    0.000    0.000    0.000    0.000    0.000 
#
# Total GULP energy -694377.239050 kJ/mol
# GULP energy per Si atom -12399.593554 kJ/mol
# Density = 1.918953 g / cm^3
# Si number density = 19.233308 Si / 1000 Ang^3
#
#
#
# Elastic Constant Matrix: (Units=GPa)
#
#
# Indices 1 2 3 4 5 6 
#
# 1 57.4709 36.1665 33.7721 0.0000 0.0000 0.0000
# 2 36.1665 112.0641 33.1148 0.0000 0.0000 0.0000
# 3 33.7721 33.1148 104.4830 0.0000 0.0000 0.0000
# 4 0.0000 0.0000 0.0000 25.6888 0.0000 0.0000
# 5 0.0000 0.0000 0.0000 0.0000 8.8926 0.0000
# 6 0.0000 0.0000 0.0000 0.0000 0.0000 14.6738
#
#
#
# Elastic Compliance Matrix: (Units=1/GPa)
#
#
# Indices 1 2 3 4 5 6 
#
# 1 0.024893 -0.006241 -0.006068 0.000000 0.000000 0.000000
# 2 -0.006241 0.011410 -0.001599 0.000000 0.000000 0.000000
# 3 -0.006068 -0.001599 0.012039 0.000000 0.000000 0.000000
# 4 0.000000 0.000000 0.000000 0.038927 0.000000 0.000000
# 5 0.000000 0.000000 0.000000 0.000000 0.112453 0.000000
# 6 0.000000 0.000000 0.000000 0.000000 0.000000 0.068149
#
#
# Mechanical properties :
#
#
# Convention : Reuss Voigt Hill
#
# Bulk Modulus (GPa) = 48.71789 53.34721 51.03255
# Shear Modulus (GPa) = 16.52728 21.24869 18.88798
#
# Velocity S-wave (km/s) = 2.93457 3.32744 3.13716
# Velocity P-wave (km/s) = 6.07184 6.52377 6.30186
#
# Compressibility (1/GPa) = 0.02052634
#
# Stress axis : x y z
#
# Youngs Moduli (GPa) = 40.17129 87.64204 83.06167
#
# Poissons Ratio (x) = 0.54694 0.50405
# Poissons Ratio (y) = 0.25070 0.13283
# Poissons Ratio (z) = 0.24378 0.14015
#
# Static dielectric constant tensor:
#      x y z
#    x 3.116780 0.000000 0.000000 
#    y 0.000000 3.710540 0.000000 
#    z 0.000000 0.000000 3.712500 
# 
# 
# High freq. dielectric constant tensor:
#      x y z
#    x 1.704000 0.000000 0.000000 
#    y 0.000000 1.767020 0.000000 
#    z 0.000000 0.000000 1.757910 
# 
# From -- ./inp_files/60090.got.cif
#   From: 2010.03.12/outbox.cif.g09.slc.cpg/sg74_31_cif.got.tgz:60090.got - 2010.04.16 15:46:19.
