data_PCOD8299539
_publ_section_title
;
Structure prediction by ZEFSAII (Michael W. Deem and Ramdas Pophale) SiO2 
 PCOD8299539
Probable space group: I M M A
;
_chemical_formula_sum "Si O2"
_cell_formula_units_Z 128
_cell_length_a 17.312379
_cell_length_b 21.043061
_cell_length_c 19.464955
_cell_angle_alpha 90.000000
_cell_angle_beta 90.000000
_cell_angle_gamma 90.000000
_cell_volume 7091.189139
_symmetry_space_group_name_H-M "I M M A"
_symmetry_group_IT_number 74
_symmetry_cell_setting 'orthorhombic'
loop_
_space_group_symop_operation_xyz
x,y,z
-x,1/2-y,z
x,-y,-z
-x,1/2+y,-z
-x,-y,-z
x,1/2+y,-z
-x,y,z
x,1/2-y,z
1/2+x,1/2+y,1/2+z
1/2-x,-y,1/2+z
1/2+x,1/2-y,1/2-z
1/2-x,y,1/2-z
1/2-x,1/2-y,1/2-z
1/2+x,y,1/2-z
1/2-x,1/2+y,1/2+z
1/2+x,-y,1/2+z
loop_
_atom_site_type_symbol
_atom_site_label
_atom_site_fract_x
_atom_site_fract_y
_atom_site_fract_z
Si Si1 0.180500 0.103392 0.297961
Si Si2 0.585636 0.933969 0.028193
Si Si3 0.089376 0.398471 0.168677
Si Si4 0.701141 0.178503 0.962318
Si Si5 0.085283 0.455403 0.818808
Si Si6 0.716571 0.321819 0.398678
Si Si7 0.235787 0.119739 0.826296
Si Si8 0.871422 0.972784 0.330864
O O1 0.250000 0.076826 0.250000
O O2 0.115172 0.127400 0.244241
O O3 0.211375 0.156265 0.350664
O O4 0.142520 0.047574 0.342980
O O5 0.500000 0.923736 0.996573
O O6 0.636213 0.871717 0.014438
O O7 0.577592 0.942672 0.109548
O O8 0.623316 0.000000 0.000000
O O9 0.105954 0.473382 0.156649
O O10 0.139688 0.362963 0.111459
O O11 0.000000 0.381862 0.158149
O O12 0.665967 0.250000 0.961653
O O13 0.738354 0.166777 0.887245
O O14 0.765968 0.172900 0.020608
O O15 0.147682 0.402415 0.841283
O O16 0.080689 0.458068 0.736828
O O17 0.000000 0.435236 0.846113
O O18 0.699224 0.250000 0.376928
O O19 0.250000 0.151274 0.750000
O O20 0.286117 0.056424 0.828453
#
# Coordination Sequence:
#
# PCOD8299539 Si02
#       8
#    16  16  16  16  16  16  16  16
#     4   9  16  28  48  72  99 130 165 203 245 294
#     4  10  20  32  50  77 104 131 167 209 250 298
#     4   9  18  31  49  75 103 131 165 207 255 301
#     4  10  22  38  54  73 101 139 175 209 258 311
#     4   9  16  28  48  74 102 127 156 203 261 310
#     4  10  20  34  49  65  93 135 177 212 250 302
#     4   9  17  31  53  76  97 126 169 213 251 301
#     4   9  15  27  47  72 100 128 157 198 254 308
#
# _framework density 18.05057
#
# number of rings (size 3 to 8) (size 9 to 14) (size 15 to 20)
#    0.000    2.625    0.000    3.750    0.000    4.500 
#    0.000    1.250    0.000    3.375    0.000    0.000 
#    0.000    0.000    0.000    0.000    0.000    0.000 
#
# Total GULP energy -793083.379475 kJ/mol
# GULP energy per Si atom -12391.927804 kJ/mol
# Density = 1.800949 g / cm^3
# Si number density = 18.050570 Si / 1000 Ang^3
#
#
#
# Elastic Constant Matrix: (Units=GPa)
#
#
# Indices 1 2 3 4 5 6 
#
# 1 97.0150 46.1754 20.4162 0.0000 0.0000 0.0000
# 2 46.1754 99.9313 34.5136 0.0000 0.0000 0.0000
# 3 20.4162 34.5136 68.0645 0.0000 0.0000 0.0000
# 4 0.0000 0.0000 0.0000 27.0502 0.0000 0.0000
# 5 0.0000 0.0000 0.0000 0.0000 14.3873 0.0000
# 6 0.0000 0.0000 0.0000 0.0000 0.0000 15.4554
#
#
#
# Elastic Compliance Matrix: (Units=1/GPa)
#
#
# Indices 1 2 3 4 5 6 
#
# 1 0.013276 -0.005770 -0.001057 0.000000 0.000000 0.000000
# 2 -0.005770 0.014639 -0.005692 0.000000 0.000000 0.000000
# 3 -0.001057 -0.005692 0.017895 0.000000 0.000000 0.000000
# 4 0.000000 0.000000 0.000000 0.036968 0.000000 0.000000
# 5 0.000000 0.000000 0.000000 0.000000 0.069506 0.000000
# 6 0.000000 0.000000 0.000000 0.000000 0.000000 0.064702
#
#
# Mechanical properties :
#
#
# Convention : Reuss Voigt Hill
#
# Bulk Modulus (GPa) = 48.13898 51.91346 50.02622
# Shear Modulus (GPa) = 20.08448 22.30560 21.19504
#
# Velocity S-wave (km/s) = 3.33930 3.51911 3.43038
# Velocity P-wave (km/s) = 6.44940 6.73310 6.59277
#
# Compressibility (1/GPa) = 0.02077318
#
# Stress axis : x y z
#
# Youngs Moduli (GPa) = 75.32302 68.31155 55.88058
#
# Poissons Ratio (x) = 0.39413 0.05904
# Poissons Ratio (y) = 0.43458 0.31809
# Poissons Ratio (z) = 0.07959 0.38885
#
# Static dielectric constant tensor:
#      x y z
#    x 3.269450 0.000000 0.000000 
#    y 0.000000 3.160990 0.000000 
#    z 0.000000 0.000000 3.352430 
# 
# 
# High freq. dielectric constant tensor:
#      x y z
#    x 1.692890 0.000000 0.000000 
#    y 0.000000 1.677730 0.000000 
#    z 0.000000 0.000000 1.691900 
# 
# From -- ./inp_files/53416.got.cif
#   From: 2010.03.12/outbox.cif.g09.slc.cpg/sg74_27_cif.got.tgz:53416.got - 2010.04.16 15:46:19.
