data_PCOD8299301
_publ_section_title
;
Structure prediction by ZEFSAII (Michael W. Deem and Ramdas Pophale) SiO2 
 PCOD8299301
Probable space group: I M M A
;
_chemical_formula_sum "Si O2"
_cell_formula_units_Z 72
_cell_length_a 8.839960
_cell_length_b 22.584930
_cell_length_c 18.895139
_cell_angle_alpha 90.000000
_cell_angle_beta 90.000000
_cell_angle_gamma 90.000000
_cell_volume 3772.412192
_symmetry_space_group_name_H-M "I M M A"
_symmetry_group_IT_number 74
_symmetry_cell_setting 'orthorhombic'
loop_
_space_group_symop_operation_xyz
x,y,z
-x,1/2-y,z
x,-y,-z
-x,1/2+y,-z
-x,-y,-z
x,1/2+y,-z
-x,y,z
x,1/2-y,z
1/2+x,1/2+y,1/2+z
1/2-x,-y,1/2+z
1/2+x,1/2-y,1/2-z
1/2-x,y,1/2-z
1/2-x,1/2-y,1/2-z
1/2+x,y,1/2-z
1/2-x,1/2+y,1/2+z
1/2+x,-y,1/2+z
loop_
_atom_site_type_symbol
_atom_site_label
_atom_site_fract_x
_atom_site_fract_y
_atom_site_fract_z
Si Si1 0.179019 0.146588 0.927022
Si Si2 0.676252 0.818882 0.581057
Si Si3 0.677731 0.915501 0.825709
Si Si4 0.173100 0.986324 0.082122
Si Si5 0.320149 0.750000 0.326719
O O1 0.228046 0.080826 0.904094
O O2 0.240128 0.192300 0.868523
O O3 0.000000 0.152149 0.932497
O O4 0.243793 0.163178 0.004398
O O5 0.500000 0.835647 0.585527
O O6 0.703816 0.750000 0.595009
O O7 0.763157 0.854402 0.641468
O O8 0.500000 0.911378 0.817059
O O9 0.750000 0.926259 0.750000
O O10 0.718392 0.970873 0.874938
O O11 0.000000 0.995575 0.106984
O O12 0.188519 0.000000 0.000000
O O13 0.500000 0.750000 0.320621
O O14 0.250000 0.750000 0.250000
#
# Coordination Sequence:
#
# PCOD8299301 Si02
#       5
#    16  16  16  16   8
#     4   9  17  33  61  90 116 152 196 239 288 353
#     4  10  19  37  66  93 116 152 201 247 296 360
#     4  12  26  42  60  86 124 160 199 249 303 357
#     4  10  19  36  64  91 118 154 198 243 296 359
#     4  10  20  36  56  84 121 156 193 236 289 344
#
# _framework density 19.085932
#
# number of rings (size 3 to 8) (size 9 to 14) (size 15 to 20)
#    0.000    1.778    3.333    2.000    0.000    2.222 
#    0.000    4.444    0.000    0.000    0.000    0.000 
#    0.000    0.000    0.000    0.000    0.000    0.000 
#
# Total GULP energy -446488.739979 kJ/mol
# GULP energy per Si atom -12402.464999 kJ/mol
# Density = 1.904249 g / cm^3
# Si number density = 19.085932 Si / 1000 Ang^3
#
#
#
# Elastic Constant Matrix: (Units=GPa)
#
#
# Indices 1 2 3 4 5 6 
#
# 1 80.8101 45.3018 37.4906 0.0000 0.0000 0.0000
# 2 45.3018 141.5158 46.4767 0.0000 0.0000 0.0000
# 3 37.4906 46.4767 85.0042 0.0000 0.0000 0.0000
# 4 0.0000 0.0000 0.0000 29.3101 0.0000 0.0000
# 5 0.0000 0.0000 0.0000 0.0000 31.7078 0.0000
# 6 0.0000 0.0000 0.0000 0.0000 0.0000 18.6676
#
#
#
# Elastic Compliance Matrix: (Units=1/GPa)
#
#
# Indices 1 2 3 4 5 6 
#
# 1 0.016956 -0.003622 -0.005498 0.000000 0.000000 0.000000
# 2 -0.003622 0.009387 -0.003535 0.000000 0.000000 0.000000
# 3 -0.005498 -0.003535 0.016122 0.000000 0.000000 0.000000
# 4 0.000000 0.000000 0.000000 0.034118 0.000000 0.000000
# 5 0.000000 0.000000 0.000000 0.000000 0.031538 0.000000
# 6 0.000000 0.000000 0.000000 0.000000 0.000000 0.053569
#
#
# Mechanical properties :
#
#
# Convention : Reuss Voigt Hill
#
# Bulk Modulus (GPa) = 58.29329 62.87428 60.58378
# Shear Modulus (GPa) = 25.94482 27.80783 26.87633
#
# Velocity S-wave (km/s) = 3.69096 3.82118 3.75664
# Velocity P-wave (km/s) = 6.98377 7.24450 7.11533
#
# Compressibility (1/GPa) = 0.01715463
#
# Stress axis : x y z
#
# Youngs Moduli (GPa) = 58.97628 106.53266 62.02890
#
# Poissons Ratio (x) = 0.38590 0.34102
# Poissons Ratio (y) = 0.21363 0.21925
# Poissons Ratio (z) = 0.32424 0.37656
#
# Static dielectric constant tensor:
#      x y z
#    x 3.185750 0.000000 0.000000 
#    y 0.000000 3.943070 0.000000 
#    z 0.000000 0.000000 3.534130 
# 
# 
# High freq. dielectric constant tensor:
#      x y z
#    x 1.708460 0.000000 0.000000 
#    y 0.000000 1.762390 0.000000 
#    z 0.000000 0.000000 1.744090 
# 
# From -- ./inp_files/39434.got.cif
#   From: 2010.03.12/outbox.cif.g09.slc.cpg/sg74_20_cif.got.tgz:39434.got - 2010.04.16 15:46:19.
