data_PCOD8299840
_publ_section_title
;
Structure prediction by ZEFSAII (Michael W. Deem and Ramdas Pophale) SiO2 
 PCOD8299840
Probable space group: I M M A
;
_chemical_formula_sum "Si O2"
_cell_formula_units_Z 88
_cell_length_a 19.796207
_cell_length_b 8.947962
_cell_length_c 24.354682
_cell_angle_alpha 90.000000
_cell_angle_beta 90.000000
_cell_angle_gamma 90.000000
_cell_volume 4314.083839
_symmetry_space_group_name_H-M "I M M A"
_symmetry_group_IT_number 74
_symmetry_cell_setting 'orthorhombic'
loop_
_space_group_symop_operation_xyz
x,y,z
-x,1/2-y,z
x,-y,-z
-x,1/2+y,-z
-x,-y,-z
x,1/2+y,-z
-x,y,z
x,1/2-y,z
1/2+x,1/2+y,1/2+z
1/2-x,-y,1/2+z
1/2+x,1/2-y,1/2-z
1/2-x,y,1/2-z
1/2-x,1/2-y,1/2-z
1/2+x,y,1/2-z
1/2-x,1/2+y,1/2+z
1/2+x,-y,1/2+z
loop_
_atom_site_type_symbol
_atom_site_label
_atom_site_fract_x
_atom_site_fract_y
_atom_site_fract_z
Si Si1 0.574401 0.078057 0.834807
Si Si2 0.373808 0.073524 0.367534
Si Si3 0.759469 0.424047 0.053982
Si Si4 0.171585 0.927634 0.750401
Si Si5 0.394918 0.426750 0.056061
Si Si6 0.500000 0.570994 0.560855
O O1 0.500000 0.064876 0.806642
O O2 0.595022 0.250000 0.842942
O O3 0.632532 0.998165 0.800383
O O4 0.566009 0.998193 0.893393
O O5 0.380565 0.250000 0.365949
O O6 0.303787 0.021975 0.394894
O O7 0.368079 0.015176 0.304982
O O8 0.436298 0.011487 0.403365
O O9 0.766562 0.250000 0.044327
O O10 0.683036 0.471543 0.064827
O O11 0.789570 0.500000 0.000000
O O12 0.168255 0.750000 0.744505
O O13 0.250000 0.979362 0.750000
O O14 0.407049 0.250000 0.053947
O O15 0.422398 0.500000 0.000000
O O16 0.500000 0.750000 0.554127
O O17 0.500000 0.500000 0.500000
#
# Coordination Sequence:
#
# PCOD8299840 Si02
#       6
#    16  16  16  16  16   8
#     4  11  25  42  59  84 120 157 195 242 295 356
#     4   9  18  32  53  79 110 147 189 235 285 346
#     4   9  17  31  52  80 112 144 184 234 284 337
#     4  10  21  39  64  90 115 150 200 252 303 363
#     4  10  20  36  60  87 115 150 192 240 295 353
#     4  10  20  34  52  78 112 152 193 234 283 346
#
# _framework density 20.398304
#
# number of rings (size 3 to 8) (size 9 to 14) (size 15 to 20)
#    0.000    2.182    0.000    2.727    1.273    5.818 
#    0.000    1.818    0.000    0.000    0.000    0.000 
#    0.000    0.000    0.000    0.000    0.000    0.000 
#
# Total GULP energy -545464.066734 kJ/mol
# GULP energy per Si atom -12396.910608 kJ/mol
# Density = 2.035188 g / cm^3
# Si number density = 20.398304 Si / 1000 Ang^3
#
#
#
# Elastic Constant Matrix: (Units=GPa)
#
#
# Indices 1 2 3 4 5 6 
#
# 1 112.3340 31.8443 57.1450 0.0000 0.0000 0.0000
# 2 31.8443 52.0156 37.3821 0.0000 0.0000 0.0000
# 3 57.1450 37.3821 143.2910 0.0000 0.0000 0.0000
# 4 0.0000 0.0000 0.0000 35.6355 0.0000 0.0000
# 5 0.0000 0.0000 0.0000 0.0000 38.4701 0.0000
# 6 0.0000 0.0000 0.0000 0.0000 0.0000 15.8111
#
#
#
# Elastic Compliance Matrix: (Units=1/GPa)
#
#
# Indices 1 2 3 4 5 6 
#
# 1 0.012083 -0.004842 -0.003556 0.000000 0.000000 0.000000
# 2 -0.004842 0.025602 -0.004748 0.000000 0.000000 0.000000
# 3 -0.003556 -0.004748 0.009635 0.000000 0.000000 0.000000
# 4 0.000000 0.000000 0.000000 0.028062 0.000000 0.000000
# 5 0.000000 0.000000 0.000000 0.000000 0.025994 0.000000
# 6 0.000000 0.000000 0.000000 0.000000 0.000000 0.063247
#
#
# Mechanical properties :
#
#
# Convention : Reuss Voigt Hill
#
# Bulk Modulus (GPa) = 47.55351 62.26483 54.90917
# Shear Modulus (GPa) = 25.26213 30.06795 27.66504
#
# Velocity S-wave (km/s) = 3.52297 3.84349 3.68671
# Velocity P-wave (km/s) = 6.31756 7.09136 6.71561
#
# Compressibility (1/GPa) = 0.02102894
#
# Stress axis : x y z
#
# Youngs Moduli (GPa) = 82.75749 39.05995 103.78312
#
# Poissons Ratio (x) = 0.18914 0.36902
# Poissons Ratio (y) = 0.40073 0.49275
# Poissons Ratio (z) = 0.29426 0.18545
#
# Static dielectric constant tensor:
#      x y z
#    x 3.880060 0.000000 0.000000 
#    y 0.000000 3.411940 0.000000 
#    z 0.000000 0.000000 19.194600 
# 
# 
# High freq. dielectric constant tensor:
#      x y z
#    x 1.809040 0.000000 0.000000 
#    y 0.000000 1.769260 0.000000 
#    z 0.000000 0.000000 1.806040 
# 
# From -- ./inp_files/56982.got.cif
#   From: 2010.03.12/outbox.cif.g09.slc.cpg/sg74_29_cif.got.tgz:56982.got - 2010.04.16 15:46:19.
