data_PCOD8299337
_publ_section_title
;
Structure prediction by ZEFSAII (Michael W. Deem and Ramdas Pophale) SiO2 
 PCOD8299337
Probable space group: I M M A
;
_chemical_formula_sum "Si O2"
_cell_formula_units_Z 64
_cell_length_a 9.602282
_cell_length_b 15.355630
_cell_length_c 23.715114
_cell_angle_alpha 90.000000
_cell_angle_beta 90.000000
_cell_angle_gamma 90.000000
_cell_volume 3496.771968
_symmetry_space_group_name_H-M "I M M A"
_symmetry_group_IT_number 74
_symmetry_cell_setting 'orthorhombic'
loop_
_space_group_symop_operation_xyz
x,y,z
-x,1/2-y,z
x,-y,-z
-x,1/2+y,-z
-x,-y,-z
x,1/2+y,-z
-x,y,z
x,1/2-y,z
1/2+x,1/2+y,1/2+z
1/2-x,-y,1/2+z
1/2+x,1/2-y,1/2-z
1/2-x,y,1/2-z
1/2-x,1/2-y,1/2-z
1/2+x,y,1/2-z
1/2-x,1/2+y,1/2+z
1/2+x,-y,1/2+z
loop_
_atom_site_type_symbol
_atom_site_label
_atom_site_fract_x
_atom_site_fract_y
_atom_site_fract_z
Si Si1 0.500000 0.250000 0.047585
Si Si2 0.000000 0.850042 0.165531
Si Si3 0.000000 0.750000 0.812911
Si Si4 0.000000 0.088883 0.533992
Si Si5 0.500000 0.629045 0.789295
Si Si6 0.197242 0.750000 0.647968
Si Si7 0.500000 0.575857 0.212892
Si Si8 0.297747 0.648329 0.125352
O O1 0.641101 0.250000 0.084321
O O2 0.500000 0.335147 0.010605
O O3 0.000000 0.907994 0.220957
O O4 0.866394 0.870919 0.127037
O O5 0.000000 0.750000 0.185387
O O6 0.000000 0.662672 0.775050
O O7 0.135697 0.750000 0.852789
O O8 0.136475 0.094680 0.573616
O O9 0.000000 0.000000 0.500000
O O10 0.638807 0.664902 0.819842
O O11 0.500000 0.526837 0.795184
O O12 0.363169 0.617372 0.184570
O O13 0.330812 0.750000 0.116530
#
# Coordination Sequence:
#
# PCOD8299337 Si02
#       8
#     4   8   4   8   8   8   8  16
#     4  10  21  42  60  82 108 138 193 240 276 328
#     4  10  21  36  55  84 119 146 173 223 276 329
#     4  10  19  38  52  80 114 152 175 224 280 322
#     4  11  22  40  65  81 101 144 193 234 280 334
#     4   9  19  35  54  79 115 154 182 215 264 327
#     4   9  21  35  58  78 110 144 190 225 269 327
#     4  11  20  32  57  86 115 149 185 215 261 331
#     4  10  21  38  58  82 112 146 183 222 276 331
#
# _framework density 18.302595
#
# number of rings (size 3 to 8) (size 9 to 14) (size 15 to 20)
#    0.000    2.250    1.250    4.125    7.000    6.000 
#    0.000    1.875    0.000    0.000    0.000    0.000 
#    0.000    0.000    0.000    0.000    0.000    0.000 
#
# Total GULP energy -396818.898192 kJ/mol
# GULP energy per Si atom -12400.590569 kJ/mol
# Density = 1.826094 g / cm^3
# Si number density = 18.302595 Si / 1000 Ang^3
#
#
#
# Elastic Constant Matrix: (Units=GPa)
#
#
# Indices 1 2 3 4 5 6 
#
# 1 173.6425 47.2047 59.3500 0.0000 0.0000 0.0000
# 2 47.2047 121.8519 48.6157 0.0000 0.0000 0.0000
# 3 59.3500 48.6157 115.2946 0.0000 0.0000 0.0000
# 4 0.0000 0.0000 0.0000 26.1446 0.0000 0.0000
# 5 0.0000 0.0000 0.0000 0.0000 9.1218 0.0000
# 6 0.0000 0.0000 0.0000 0.0000 0.0000 12.4807
#
#
#
# Elastic Compliance Matrix: (Units=1/GPa)
#
#
# Indices 1 2 3 4 5 6 
#
# 1 0.007234 -0.001583 -0.003056 0.000000 0.000000 0.000000
# 2 -0.001583 0.010213 -0.003492 0.000000 0.000000 0.000000
# 3 -0.003056 -0.003492 0.011719 0.000000 0.000000 0.000000
# 4 0.000000 0.000000 0.000000 0.038249 0.000000 0.000000
# 5 0.000000 0.000000 0.000000 0.000000 0.109627 0.000000
# 6 0.000000 0.000000 0.000000 0.000000 0.000000 0.080124
#
#
# Mechanical properties :
#
#
# Convention : Reuss Voigt Hill
#
# Bulk Modulus (GPa) = 77.49447 80.12553 78.81000
# Shear Modulus (GPa) = 18.00317 26.59065 22.29691
#
# Velocity S-wave (km/s) = 3.13971 3.81574 3.49411
# Velocity P-wave (km/s) = 7.45495 7.95528 7.70917
#
# Compressibility (1/GPa) = 0.01290415
#
# Stress axis : x y z
#
# Youngs Moduli (GPa) = 138.23758 97.91466 85.33149
#
# Poissons Ratio (x) = 0.15500 0.26080
# Poissons Ratio (y) = 0.21883 0.29794
# Poissons Ratio (z) = 0.42250 0.34188
#
# Static dielectric constant tensor:
#      x y z
#    x 3.420190 0.000000 0.000000 
#    y 0.000000 3.239600 0.000000 
#    z 0.000000 0.000000 3.272880 
# 
# 
# High freq. dielectric constant tensor:
#      x y z
#    x 1.709820 0.000000 0.000000 
#    y 0.000000 1.707420 0.000000 
#    z 0.000000 0.000000 1.697370 
# 
# From -- ./inp_files/56537.got.cif
#   From: 2010.03.12/outbox.cif.g09.slc.cpg/sg74_29_cif.got.tgz:56537.got - 2010.04.16 15:46:19.
