data_PCOD8299275
_publ_section_title
;
Structure prediction by ZEFSAII (Michael W. Deem and Ramdas Pophale) SiO2 
 PCOD8299275
Probable space group: I M M A
;
_chemical_formula_sum "Si O2"
_cell_formula_units_Z 96
_cell_length_a 19.231234
_cell_length_b 18.572753
_cell_length_c 13.301140
_cell_angle_alpha 90.000000
_cell_angle_beta 90.000000
_cell_angle_gamma 90.000000
_cell_volume 4750.860736
_symmetry_space_group_name_H-M "I M M A"
_symmetry_group_IT_number 74
_symmetry_cell_setting 'orthorhombic'
loop_
_space_group_symop_operation_xyz
x,y,z
-x,1/2-y,z
x,-y,-z
-x,1/2+y,-z
-x,-y,-z
x,1/2+y,-z
-x,y,z
x,1/2-y,z
1/2+x,1/2+y,1/2+z
1/2-x,-y,1/2+z
1/2+x,1/2-y,1/2-z
1/2-x,y,1/2-z
1/2-x,1/2-y,1/2-z
1/2+x,y,1/2-z
1/2-x,1/2+y,1/2+z
1/2+x,-y,1/2+z
loop_
_atom_site_type_symbol
_atom_site_label
_atom_site_fract_x
_atom_site_fract_y
_atom_site_fract_z
Si Si1 0.579501 0.943356 0.415603
Si Si2 0.157545 0.664852 0.436442
Si Si3 0.685284 0.332300 0.518466
Si Si4 0.080855 0.601431 0.626557
Si Si5 0.176378 0.333320 0.214672
Si Si6 0.078601 0.446238 0.687466
O O1 0.500000 0.920810 0.438066
O O2 0.628560 0.874240 0.417556
O O3 0.588060 0.973115 0.302492
O O4 0.604899 0.000000 0.500000
O O5 0.149495 0.750000 0.415395
O O6 0.237135 0.642329 0.454500
O O7 0.114540 0.643624 0.534601
O O8 0.129611 0.619352 0.341419
O O9 0.676461 0.250000 0.548451
O O10 0.668440 0.346123 0.402739
O O11 0.113323 0.627247 0.731145
O O12 0.092945 0.515445 0.616827
O O13 0.000000 0.620414 0.629560
O O14 0.173733 0.250000 0.245225
O O15 0.250000 0.366347 0.250000
O O16 0.000000 0.418395 0.670289
#
# Coordination Sequence:
#
# PCOD8299275 Si02
#       6
#    16  16  16  16  16  16
#     4  10  22  42  64  87 117 156 202 252 307 363
#     4  11  23  40  60  88 126 164 202 246 303 370
#     4  10  22  39  60  87 121 158 200 252 302 358
#     4  11  22  38  61  90 122 159 205 253 303 365
#     4  10  19  36  59  86 122 159 196 245 303 355
#     4  10  23  41  60  87 123 157 198 256 308 358
#
# _framework density 20.206865000000001
#
# number of rings (size 3 to 8) (size 9 to 14) (size 15 to 20)
#    0.000    1.667    1.667    2.500    0.000    8.667 
#    3.000    5.000    0.000    0.000    0.000    0.000 
#    0.000    0.000    0.000    0.000    0.000    0.000 
#
# Total GULP energy -595293.661240 kJ/mol
# GULP energy per Si atom -12401.951276 kJ/mol
# Density = 2.016087 g / cm^3
# Si number density = 20.206865 Si / 1000 Ang^3
#
#
#
# Elastic Constant Matrix: (Units=GPa)
#
#
# Indices 1 2 3 4 5 6 
#
# 1 115.3422 52.0572 40.8637 0.0000 0.0000 0.0000
# 2 52.0572 78.6561 39.6941 0.0000 0.0000 0.0000
# 3 40.8637 39.6941 75.9963 0.0000 0.0000 0.0000
# 4 0.0000 0.0000 0.0000 36.7631 0.0000 0.0000
# 5 0.0000 0.0000 0.0000 0.0000 12.0009 0.0000
# 6 0.0000 0.0000 0.0000 0.0000 0.0000 36.8076
#
#
#
# Elastic Compliance Matrix: (Units=1/GPa)
#
#
# Indices 1 2 3 4 5 6 
#
# 1 0.012973 -0.006879 -0.003383 0.000000 0.000000 0.000000
# 2 -0.006879 0.020912 -0.007224 0.000000 0.000000 0.000000
# 3 -0.003383 -0.007224 0.018751 0.000000 0.000000 0.000000
# 4 0.000000 0.000000 0.000000 0.027201 0.000000 0.000000
# 5 0.000000 0.000000 0.000000 0.000000 0.083327 0.000000
# 6 0.000000 0.000000 0.000000 0.000000 0.000000 0.027168
#
#
# Mechanical properties :
#
#
# Convention : Reuss Voigt Hill
#
# Bulk Modulus (GPa) = 56.61034 59.46939 58.03986
# Shear Modulus (GPa) = 21.62724 26.27297 23.95010
#
# Velocity S-wave (km/s) = 3.27508 3.60974 3.44648
# Velocity P-wave (km/s) = 6.50982 6.84601 6.68003
#
# Compressibility (1/GPa) = 0.01766462
#
# Stress axis : x y z
#
# Youngs Moduli (GPa) = 77.08397 47.82019 53.33191
#
# Poissons Ratio (x) = 0.32894 0.18041
# Poissons Ratio (y) = 0.53024 0.38526
# Poissons Ratio (z) = 0.26075 0.34544
#
# Static dielectric constant tensor:
#      x y z
#    x 3.830230 0.000000 0.000000 
#    y 0.000000 3.601110 0.000000 
#    z 0.000000 0.000000 3.659200 
# 
# 
# High freq. dielectric constant tensor:
#      x y z
#    x 1.795630 0.000000 0.000000 
#    y 0.000000 1.782950 0.000000 
#    z 0.000000 0.000000 1.793950 
# 
# From -- ./inp_files/35242.got.cif
#   From: 2010.03.12/outbox.cif.g09.slc.cpg/sg74_18_cif.got.tgz:35242.got - 2010.04.16 15:46:19.
