data_PCOD8299476
_publ_section_title
;
Structure prediction by ZEFSAII (Michael W. Deem and Ramdas Pophale) SiO2 
 PCOD8299476
Probable space group: I M M A
;
_chemical_formula_sum "Si O2"
_cell_formula_units_Z 80
_cell_length_a 26.765025
_cell_length_b 8.954866
_cell_length_c 18.253988
_cell_angle_alpha 90.000000
_cell_angle_beta 90.000000
_cell_angle_gamma 90.000000
_cell_volume 4375.064958
_symmetry_space_group_name_H-M "I M M A"
_symmetry_group_IT_number 74
_symmetry_cell_setting 'orthorhombic'
loop_
_space_group_symop_operation_xyz
x,y,z
-x,1/2-y,z
x,-y,-z
-x,1/2+y,-z
-x,-y,-z
x,1/2+y,-z
-x,y,z
x,1/2-y,z
1/2+x,1/2+y,1/2+z
1/2-x,-y,1/2+z
1/2+x,1/2-y,1/2-z
1/2-x,y,1/2-z
1/2-x,1/2-y,1/2-z
1/2+x,y,1/2-z
1/2-x,1/2+y,1/2+z
1/2+x,-y,1/2+z
loop_
_atom_site_type_symbol
_atom_site_label
_atom_site_fract_x
_atom_site_fract_y
_atom_site_fract_z
Si Si1 0.700304 0.578393 0.210353
Si Si2 0.943155 0.924540 0.926981
Si Si3 0.599060 0.418416 0.708527
Si Si4 0.056725 0.423703 0.637799
Si Si5 0.151216 0.573036 0.575301
O O1 0.706621 0.750000 0.185009
O O2 0.750000 0.518095 0.250000
O O3 0.656391 0.563232 0.269103
O O4 0.688501 0.479822 0.139178
O O5 0.939405 0.750000 0.938082
O O6 0.000000 0.977988 0.913891
O O7 0.910385 0.970195 0.857728
O O8 0.921123 0.000000 0.000000
O O9 0.587367 0.250000 0.682869
O O10 0.563601 0.462136 0.776606
O O11 0.070167 0.250000 0.624754
O O12 0.094098 0.522321 0.589630
O O13 0.000000 0.460484 0.614493
O O14 0.170149 0.500000 0.500000
O O15 0.152916 0.750000 0.569053
#
# Coordination Sequence:
#
# PCOD8299476 Si02
#       5
#    16  16  16  16  16
#     4   9  19  38  61  81 103 133 170 213 262 312
#     4  10  20  32  47  69  99 135 172 209 250 298
#     4   9  17  31  52  76 101 130 165 207 255 306
#     4   9  18  33  53  77 106 141 178 213 254 307
#     4  11  22  36  55  79 109 141 175 215 258 307
#
# _framework density 18.285443000000001
#
# number of rings (size 3 to 8) (size 9 to 14) (size 15 to 20)
#    0.000    2.400    0.000    4.200    0.000    6.400 
#    0.000    1.000    0.000    0.000    0.000    0.000 
#    0.000    0.000    0.000    0.000    0.000    0.000 
#
# Total GULP energy -496098.724127 kJ/mol
# GULP energy per Si atom -12402.468103 kJ/mol
# Density = 1.824382 g / cm^3
# Si number density = 18.285443 Si / 1000 Ang^3
#
#
#
# Elastic Constant Matrix: (Units=GPa)
#
#
# Indices 1 2 3 4 5 6 
#
# 1 87.9125 36.0520 40.8175 0.0000 0.0000 0.0000
# 2 36.0520 104.4075 61.8003 0.0000 0.0000 0.0000
# 3 40.8175 61.8003 115.0554 0.0000 0.0000 0.0000
# 4 0.0000 0.0000 0.0000 37.3440 0.0000 0.0000
# 5 0.0000 0.0000 0.0000 0.0000 14.6564 0.0000
# 6 0.0000 0.0000 0.0000 0.0000 0.0000 24.4103
#
#
#
# Elastic Compliance Matrix: (Units=1/GPa)
#
#
# Indices 1 2 3 4 5 6 
#
# 1 0.014158 -0.002809 -0.003514 0.000000 0.000000 0.000000
# 2 -0.002809 0.014600 -0.006846 0.000000 0.000000 0.000000
# 3 -0.003514 -0.006846 0.013615 0.000000 0.000000 0.000000
# 4 0.000000 0.000000 0.000000 0.026778 0.000000 0.000000
# 5 0.000000 0.000000 0.000000 0.000000 0.068230 0.000000
# 6 0.000000 0.000000 0.000000 0.000000 0.000000 0.040966
#
#
# Mechanical properties :
#
#
# Convention : Reuss Voigt Hill
#
# Bulk Modulus (GPa) = 62.35893 64.96834 63.66364
# Shear Modulus (GPa) = 23.80614 26.52917 25.16765
#
# Velocity S-wave (km/s) = 3.61212 3.81312 3.71398
# Velocity P-wave (km/s) = 7.18148 7.41577 7.29957
#
# Compressibility (1/GPa) = 0.01603619
#
# Stress axis : x y z
#
# Youngs Moduli (GPa) = 70.62918 68.49437 73.44749
#
# Poissons Ratio (x) = 0.19239 0.25811
# Poissons Ratio (y) = 0.19839 0.50279
# Poissons Ratio (z) = 0.24820 0.46888
#
# Static dielectric constant tensor:
#      x y z
#    x 3.332040 0.000000 0.000000 
#    y 0.000000 3.264940 0.000000 
#    z 0.000000 0.000000 3.306040 
# 
# 
# High freq. dielectric constant tensor:
#      x y z
#    x 1.693200 0.000000 0.000000 
#    y 0.000000 1.705800 0.000000 
#    z 0.000000 0.000000 1.709600 
# 
# From -- ./inp_files/39680.got.cif
#   From: 2010.03.12/outbox.cif.g09.slc.cpg/sg74_20_cif.got.tgz:39680.got - 2010.04.16 15:46:19.
