data_PCOD8299435
_publ_section_title
;
Structure prediction by ZEFSAII (Michael W. Deem and Ramdas Pophale) SiO2 
 PCOD8299435
Probable space group: I M M A
;
_chemical_formula_sum "Si O2"
_cell_formula_units_Z 80
_cell_length_a 18.992513
_cell_length_b 8.932924
_cell_length_c 32.826865
_cell_angle_alpha 90.000000
_cell_angle_beta 90.000000
_cell_angle_gamma 90.000000
_cell_volume 5569.362427
_symmetry_space_group_name_H-M "I M M A"
_symmetry_group_IT_number 74
_symmetry_cell_setting 'orthorhombic'
loop_
_space_group_symop_operation_xyz
x,y,z
-x,1/2-y,z
x,-y,-z
-x,1/2+y,-z
-x,-y,-z
x,1/2+y,-z
-x,y,z
x,1/2-y,z
1/2+x,1/2+y,1/2+z
1/2-x,-y,1/2+z
1/2+x,1/2-y,1/2-z
1/2-x,y,1/2-z
1/2-x,1/2-y,1/2-z
1/2+x,y,1/2-z
1/2-x,1/2+y,1/2+z
1/2+x,-y,1/2+z
loop_
_atom_site_type_symbol
_atom_site_label
_atom_site_fract_x
_atom_site_fract_y
_atom_site_fract_z
Si Si1 0.635937 0.572601 0.120084
Si Si2 0.000000 0.926829 0.240351
Si Si3 0.500000 0.072764 0.831951
Si Si4 0.359071 0.575607 0.732304
Si Si5 0.280362 0.075140 0.186547
Si Si6 0.581104 0.573759 0.957527
O O1 0.637694 0.750000 0.114542
O O2 0.568364 0.513302 0.144826
O O3 0.703626 0.517993 0.145594
O O4 0.633221 0.495726 0.076024
O O5 0.000000 0.990724 0.286350
O O6 0.000000 0.750000 0.237817
O O7 0.929310 0.987557 0.219033
O O8 0.500000 0.250000 0.830834
O O9 0.376329 0.750000 0.733976
O O10 0.330787 0.521552 0.776446
O O11 0.300279 0.541643 0.698322
O O12 0.291784 0.250000 0.178143
O O13 0.500000 0.533737 0.946952
O O14 0.592882 0.750000 0.960363
O O15 0.602931 0.500000 0.000000
#
# Coordination Sequence:
#
# PCOD8299435 Si02
#       6
#    16   8   8  16  16  16
#     4  11  19  30  45  61  85 112 142 180 219 258
#     4  11  19  29  43  62  84 109 144 183 219 258
#     4   9  18  27  36  58  85 109 140 177 214 251
#     4   9  18  31  44  59  82 111 142 179 219 256
#     4   9  18  31  44  60  82 109 144 180 215 257
#     4  10  20  32  45  62  83 110 143 178 217 256
#
# _framework density 14.364300999999999
#
# number of rings (size 3 to 8) (size 9 to 14) (size 15 to 20)
#    0.000    2.200    3.000    2.700    0.000    1.600 
#    0.000    2.000    0.000    0.000    0.000    0.000 
#    0.000    0.000    0.000    0.900    0.000   11.800 
#
# Total GULP energy -496023.398865 kJ/mol
# GULP energy per Si atom -12400.584972 kJ/mol
# Density = 1.433161 g / cm^3
# Si number density = 14.364301 Si / 1000 Ang^3
#
#
#
# Elastic Constant Matrix: (Units=GPa)
#
#
# Indices 1 2 3 4 5 6 
#
# 1 86.0726 39.9301 36.8869 0.0000 0.0000 0.0000
# 2 39.9301 68.8101 42.7878 0.0000 0.0000 0.0000
# 3 36.8869 42.7878 90.7495 0.0000 0.0000 0.0000
# 4 0.0000 0.0000 0.0000 24.2337 0.0000 0.0000
# 5 0.0000 0.0000 0.0000 0.0000 21.5883 0.0000
# 6 0.0000 0.0000 0.0000 0.0000 0.0000 21.2951
#
#
#
# Elastic Compliance Matrix: (Units=1/GPa)
#
#
# Indices 1 2 3 4 5 6 
#
# 1 0.016492 -0.007643 -0.003100 0.000000 0.000000 0.000000
# 2 -0.007643 0.024102 -0.008258 0.000000 0.000000 0.000000
# 3 -0.003100 -0.008258 0.016173 0.000000 0.000000 0.000000
# 4 0.000000 0.000000 0.000000 0.041265 0.000000 0.000000
# 5 0.000000 0.000000 0.000000 0.000000 0.046321 0.000000
# 6 0.000000 0.000000 0.000000 0.000000 0.000000 0.046959
#
#
# Mechanical properties :
#
#
# Convention : Reuss Voigt Hill
#
# Bulk Modulus (GPa) = 53.28568 53.87131 53.57850
# Shear Modulus (GPa) = 21.22517 21.82525 21.52521
#
# Velocity S-wave (km/s) = 3.84817 3.90219 3.87527
# Velocity P-wave (km/s) = 7.54460 7.60840 7.57657
#
# Compressibility (1/GPa) = 0.01876677
#
# Stress axis : x y z
#
# Youngs Moduli (GPa) = 60.63493 41.48950 61.83184
#
# Poissons Ratio (x) = 0.31709 0.19169
# Poissons Ratio (y) = 0.46340 0.51059
# Poissons Ratio (z) = 0.18798 0.34261
#
# Static dielectric constant tensor:
#      x y z
#    x 2.679880 0.000000 0.000000 
#    y 0.000000 2.698070 0.000000 
#    z 0.000000 0.000000 2.660340 
# 
# 
# High freq. dielectric constant tensor:
#      x y z
#    x 1.523380 0.000000 0.000000 
#    y 0.000000 1.554030 0.000000 
#    z 0.000000 0.000000 1.523480 
# 
# From -- ./inp_files/64203.got.cif
#   From: 2010.03.12/outbox.cif.g09.slc.cpg/sg74_33_cif.got.tgz:64203.got - 2010.04.16 15:46:19.
