data_PCOD8299085
_publ_section_title
;
Structure prediction by ZEFSAII (Michael W. Deem and Ramdas Pophale) SiO2 
 PCOD8299085
Probable space group: I M M A
;
_chemical_formula_sum "Si O2"
_cell_formula_units_Z 72
_cell_length_a 15.352480
_cell_length_b 17.877358
_cell_length_c 13.270083
_cell_angle_alpha 90.000000
_cell_angle_beta 90.000000
_cell_angle_gamma 90.000000
_cell_volume 3642.130616
_symmetry_space_group_name_H-M "I M M A"
_symmetry_group_IT_number 74
_symmetry_cell_setting 'orthorhombic'
loop_
_space_group_symop_operation_xyz
x,y,z
-x,1/2-y,z
x,-y,-z
-x,1/2+y,-z
-x,-y,-z
x,1/2+y,-z
-x,y,z
x,1/2-y,z
1/2+x,1/2+y,1/2+z
1/2-x,-y,1/2+z
1/2+x,1/2-y,1/2-z
1/2-x,y,1/2-z
1/2-x,1/2-y,1/2-z
1/2+x,y,1/2-z
1/2-x,1/2+y,1/2+z
1/2+x,-y,1/2+z
loop_
_atom_site_type_symbol
_atom_site_label
_atom_site_fract_x
_atom_site_fract_y
_atom_site_fract_z
Si Si1 0.394431 0.750000 0.472790
Si Si2 0.402635 0.389635 0.653328
Si Si3 0.813696 0.594074 0.561424
Si Si4 0.255327 0.750000 0.869284
Si Si5 0.657271 0.500000 0.500000
Si Si6 0.396487 0.453250 0.858316
O O1 0.500000 0.750000 0.494600
O O2 0.360404 0.679384 0.407202
O O3 0.340483 0.750000 0.577864
O O4 0.500000 0.364757 0.677733
O O5 0.403089 0.463914 0.585075
O O6 0.357513 0.410538 0.759926
O O7 0.812663 0.678239 0.600542
O O8 0.715536 0.564762 0.549660
O O9 0.863043 0.539081 0.639609
O O10 0.862576 0.592162 0.454350
O O11 0.250000 0.750000 0.750000
O O12 0.500000 0.455024 0.856367
#
# Coordination Sequence:
#
# PCOD8299085 Si02
#       6
#     8  16  16   8   8  16
#     4  10  22  43  61  89 127 155 192 250 302 354
#     4  10  20  35  62  89 118 156 197 245 297 350
#     4  10  22  37  60  82 122 160 194 250 291 345
#     4  12  26  43  57  89 123 159 203 245 299 359
#     4  10  19  34  55  86 116 154 200 242 287 346
#     4   9  20  40  63  91 119 155 202 247 300 359
#
# _framework density 19.768647999999999
#
# number of rings (size 3 to 8) (size 9 to 14) (size 15 to 20)
#    0.000    2.222    2.222    1.667    3.111    3.556 
#    0.000    6.667    0.000    0.000    0.000    0.000 
#    0.000    0.000    0.000    0.000    0.000    0.000 
#
# Total GULP energy -446171.744633 kJ/mol
# GULP energy per Si atom -12393.659573 kJ/mol
# Density = 1.972365 g / cm^3
# Si number density = 19.768648 Si / 1000 Ang^3
#
#
#
# Elastic Constant Matrix: (Units=GPa)
#
#
# Indices 1 2 3 4 5 6 
#
# 1 56.4533 33.7027 32.7268 0.0000 0.0000 0.0000
# 2 33.7027 153.8276 79.0263 0.0000 0.0000 0.0000
# 3 32.7268 79.0263 151.1525 0.0000 0.0000 0.0000
# 4 0.0000 0.0000 0.0000 26.1575 0.0000 0.0000
# 5 0.0000 0.0000 0.0000 0.0000 23.2822 0.0000
# 6 0.0000 0.0000 0.0000 0.0000 0.0000 18.1154
#
#
#
# Elastic Compliance Matrix: (Units=1/GPa)
#
#
# Indices 1 2 3 4 5 6 
#
# 1 0.021313 -0.003143 -0.002971 0.000000 0.000000 0.000000
# 2 -0.003143 0.009352 -0.004209 0.000000 0.000000 0.000000
# 3 -0.002971 -0.004209 0.009460 0.000000 0.000000 0.000000
# 4 0.000000 0.000000 0.000000 0.038230 0.000000 0.000000
# 5 0.000000 0.000000 0.000000 0.000000 0.042951 0.000000
# 6 0.000000 0.000000 0.000000 0.000000 0.000000 0.055202
#
#
# Mechanical properties :
#
#
# Convention : Reuss Voigt Hill
#
# Bulk Modulus (GPa) = 51.34056 72.48278 61.91167
# Shear Modulus (GPa) = 24.55248 27.90951 26.23100
#
# Velocity S-wave (km/s) = 3.52801 3.76148 3.64661
# Velocity P-wave (km/s) = 6.52862 7.45722 7.00832
#
# Compressibility (1/GPa) = 0.01947778
#
# Stress axis : x y z
#
# Youngs Moduli (GPa) = 46.92049 106.93395 105.71301
#
# Poissons Ratio (x) = 0.33610 0.31410
# Poissons Ratio (y) = 0.14747 0.44492
# Poissons Ratio (z) = 0.13941 0.45005
#
# Static dielectric constant tensor:
#      x y z
#    x 3.426620 0.000000 0.000000 
#    y 0.000000 3.716120 0.000000 
#    z 0.000000 0.000000 3.815520 
# 
# 
# High freq. dielectric constant tensor:
#      x y z
#    x 1.759360 0.000000 0.000000 
#    y 0.000000 1.771310 0.000000 
#    z 0.000000 0.000000 1.772850 
# 
# From -- ./inp_files/31961.got.cif
#   From: 2010.03.12/outbox.cif.g09.slc.cpg/sg74_16_cif.got.tgz:31961.got - 2010.04.16 15:46:19.
