data_PCOD8299870
_publ_section_title
;
Structure prediction by ZEFSAII (Michael W. Deem and Ramdas Pophale) SiO2 
 PCOD8299870
Probable space group: I M M A
;
_chemical_formula_sum "Si O2"
_cell_formula_units_Z 80
_cell_length_a 14.562306
_cell_length_b 28.474135
_cell_length_c 9.575556
_cell_angle_alpha 90.000000
_cell_angle_beta 90.000000
_cell_angle_gamma 90.000000
_cell_volume 3970.495361
_symmetry_space_group_name_H-M "I M M A"
_symmetry_group_IT_number 74
_symmetry_cell_setting 'orthorhombic'
loop_
_space_group_symop_operation_xyz
x,y,z
-x,1/2-y,z
x,-y,-z
-x,1/2+y,-z
-x,-y,-z
x,1/2+y,-z
-x,y,z
x,1/2-y,z
1/2+x,1/2+y,1/2+z
1/2-x,-y,1/2+z
1/2+x,1/2-y,1/2-z
1/2-x,y,1/2-z
1/2-x,1/2-y,1/2-z
1/2+x,y,1/2-z
1/2-x,1/2+y,1/2+z
1/2+x,-y,1/2+z
loop_
_atom_site_type_symbol
_atom_site_label
_atom_site_fract_x
_atom_site_fract_y
_atom_site_fract_z
Si Si1 0.298100 0.803360 0.490638
Si Si2 0.393689 0.632893 0.697318
Si Si3 0.649611 0.382287 0.719966
Si Si4 0.399055 0.160944 0.997361
Si Si5 0.397533 0.949372 0.513392
O O1 0.331093 0.750000 0.473576
O O2 0.335139 0.823190 0.638219
O O3 0.342767 0.833416 0.365846
O O4 0.186521 0.803648 0.482914
O O5 0.500000 0.639217 0.651509
O O6 0.382828 0.629955 0.863610
O O7 0.351630 0.585063 0.629103
O O8 0.750000 0.402574 0.750000
O O9 0.597603 0.422298 0.634073
O O10 0.596892 0.373639 0.864616
O O11 0.500000 0.186231 0.007978
O O12 0.500000 0.960237 0.566099
O O13 0.345746 0.000000 0.500000
#
# Coordination Sequence:
#
# PCOD8299870 Si02
#       5
#    16  16  16  16  16
#     4  10  21  37  55  75 103 141 180 214 254 310
#     4   9  19  35  54  78 107 138 174 215 258 306
#     4   9  19  35  53  74 103 137 172 213 258 307
#     4  10  20  34  53  77 107 139 171 215 265 305
#     4   9  17  33  56  77 100 134 173 209 251 308
#
# _framework density 20.148617999999999
#
# number of rings (size 3 to 8) (size 9 to 14) (size 15 to 20)
#    0.000    2.600    0.000    1.200    0.000    6.800 
#    0.000    9.000    0.000    4.800    0.000    0.000 
#    0.000    0.000    0.000    0.000    0.000    0.000 
#
# Total GULP energy -495686.678803 kJ/mol
# GULP energy per Si atom -12392.166970 kJ/mol
# Density = 2.010276 g / cm^3
# Si number density = 20.148618 Si / 1000 Ang^3
#
#
#
# Elastic Constant Matrix: (Units=GPa)
#
#
# Indices 1 2 3 4 5 6 
#
# 1 70.7106 22.5318 17.7419 -0.0004 0.0004 -0.0004
# 2 22.5318 149.2021 53.2310 0.0020 0.0017 -0.0005
# 3 17.7419 53.2310 148.2971 0.0083 -0.0022 -0.0014
# 4 -0.0004 0.0020 0.0083 6.9097 0.0004 -0.0002
# 5 0.0004 0.0017 -0.0022 0.0004 22.4936 -0.0002
# 6 -0.0004 -0.0005 -0.0014 -0.0002 -0.0002 10.4220
#
#
#
# Elastic Compliance Matrix: (Units=1/GPa)
#
#
# Indices 1 2 3 4 5 6 
#
# 1 0.015020 -0.001866 -0.001127 0.000003 0.000000 0.000000
# 2 -0.001866 0.007919 -0.002619 0.000001 -0.000001 0.000000
# 3 -0.001127 -0.002619 0.007818 -0.000009 0.000001 0.000001
# 4 0.000003 0.000001 -0.000009 0.144723 -0.000002 0.000002
# 5 0.000000 -0.000001 0.000001 -0.000002 0.044457 0.000001
# 6 0.000000 0.000000 0.000001 0.000002 0.000001 0.095951
#
#
# Mechanical properties :
#
#
# Convention : Reuss Voigt Hill
#
# Bulk Modulus (GPa) = 51.19858 61.69101 56.44479
# Shear Modulus (GPa) = 14.98701 26.27875 20.63288
#
# Velocity S-wave (km/s) = 2.73027 3.61535 3.20353
# Velocity P-wave (km/s) = 5.95019 6.93629 6.46208
#
# Compressibility (1/GPa) = 0.01953179
#
# Stress axis : x y z
#
# Youngs Moduli (GPa) = 66.57979 126.28584 127.90700
#
# Poissons Ratio (x) = 0.23566 0.14416
# Poissons Ratio (y) = 0.12424 0.33500
# Poissons Ratio (z) = 0.07504 0.33075
#
# Static dielectric constant tensor:
#      x y z
#    x 3.730160 0.000000 0.000000 
#    y 0.000000 3.451250 0.000000 
#    z 0.000000 0.000000 3.777470 
# 
# 
# High freq. dielectric constant tensor:
#      x y z
#    x 1.783170 0.000000 0.000000 
#    y 0.000000 1.751070 0.000000 
#    z 0.000000 0.000000 1.795760 
# 
# From -- ./inp_files/10970.got.cif
#   From: 2010.03.12/outbox.cif.g09.slc.cpg/sg74_6_cif.got.tgz:10970.got - 2010.04.16 15:46:19.
