data_PCOD8299313
_publ_section_title
;
Structure prediction by ZEFSAII (Michael W. Deem and Ramdas Pophale) SiO2 
 PCOD8299313
Probable space group: I M M A
;
_chemical_formula_sum "Si O2"
_cell_formula_units_Z 72
_cell_length_a 8.698426
_cell_length_b 27.134568
_cell_length_c 14.555378
_cell_angle_alpha 90.000000
_cell_angle_beta 90.000000
_cell_angle_gamma 90.000000
_cell_volume 3435.477221
_symmetry_space_group_name_H-M "I M M A"
_symmetry_group_IT_number 74
_symmetry_cell_setting 'orthorhombic'
loop_
_space_group_symop_operation_xyz
x,y,z
-x,1/2-y,z
x,-y,-z
-x,1/2+y,-z
-x,-y,-z
x,1/2+y,-z
-x,y,z
x,1/2-y,z
1/2+x,1/2+y,1/2+z
1/2-x,-y,1/2+z
1/2+x,1/2-y,1/2-z
1/2-x,y,1/2-z
1/2-x,1/2-y,1/2-z
1/2+x,y,1/2-z
1/2-x,1/2+y,1/2+z
1/2+x,-y,1/2+z
loop_
_atom_site_type_symbol
_atom_site_label
_atom_site_fract_x
_atom_site_fract_y
_atom_site_fract_z
Si Si1 0.319790 0.750000 0.648347
Si Si2 0.680046 0.916198 0.657967
Si Si3 0.819686 0.878642 0.345408
Si Si4 0.319903 0.161379 0.035683
Si Si5 0.177230 0.012395 0.605830
O O1 0.500000 0.750000 0.661825
O O2 0.250000 0.750000 0.750000
O O3 0.272869 0.797284 0.589480
O O4 0.500000 0.905300 0.651144
O O5 0.750000 0.891677 0.750000
O O6 0.770978 0.891959 0.573401
O O7 0.715282 0.974367 0.660656
O O8 0.750000 0.859111 0.250000
O O9 0.778018 0.840078 0.426990
O O10 0.758675 0.933297 0.370456
O O11 0.000000 0.881604 0.334164
O O12 0.500000 0.170369 0.050552
O O13 0.000000 0.005830 0.636099
O O14 0.197929 0.000000 0.500000
#
# Coordination Sequence:
#
# PCOD8299313 Si02
#       5
#     8  16  16  16  16
#     4  12  26  46  71 102 129 158 195 250 312 378
#     4  12  24  37  57  88 123 164 208 257 308 368
#     4  10  22  39  63  90 124 167 211 258 310 364
#     4  11  23  44  67  91 123 164 205 254 312 372
#     4  10  19  37  59  85 123 167 210 257 309 364
#
# _framework density 20.957788000000001
#
# number of rings (size 3 to 8) (size 9 to 14) (size 15 to 20)
#    0.000    1.111    2.222    5.000    0.000    4.889 
#    0.000    0.556    0.000    0.000    0.000    0.000 
#    0.000    0.000    0.000    0.000    0.000    0.000 
#
# Total GULP energy -446441.983348 kJ/mol
# GULP energy per Si atom -12401.166204 kJ/mol
# Density = 2.091009 g / cm^3
# Si number density = 20.957788 Si / 1000 Ang^3
#
#
#
# Elastic Constant Matrix: (Units=GPa)
#
#
# Indices 1 2 3 4 5 6 
#
# 1 89.1765 33.9521 59.3222 0.0000 0.0000 0.0000
# 2 33.9521 90.1285 50.3150 0.0001 0.0000 0.0000
# 3 59.3222 50.3150 161.9473 0.0005 0.0000 0.0001
# 4 0.0000 0.0001 0.0005 28.1507 0.0000 0.0001
# 5 0.0000 0.0000 0.0000 0.0000 36.3992 0.0001
# 6 0.0000 0.0000 0.0001 0.0001 0.0001 33.7661
#
#
#
# Elastic Compliance Matrix: (Units=1/GPa)
#
#
# Indices 1 2 3 4 5 6 
#
# 1 0.015573 -0.003245 -0.004696 0.000000 0.000000 0.000000
# 2 -0.003245 0.014100 -0.003192 0.000000 0.000000 0.000000
# 3 -0.004696 -0.003192 0.008887 0.000000 0.000000 0.000000
# 4 0.000000 0.000000 0.000000 0.035523 0.000000 0.000000
# 5 0.000000 0.000000 0.000000 0.000000 0.027473 0.000000
# 6 0.000000 0.000000 0.000000 0.000000 0.000000 0.029615
#
#
# Mechanical properties :
#
#
# Convention : Reuss Voigt Hill
#
# Bulk Modulus (GPa) = 61.37479 69.82566 65.60023
# Shear Modulus (GPa) = 31.47250 32.84076 32.15663
#
# Velocity S-wave (km/s) = 3.87939 3.96282 3.92133
# Velocity P-wave (km/s) = 7.02957 7.37077 7.20219
#
# Compressibility (1/GPa) = 0.01629333
#
# Stress axis : x y z
#
# Youngs Moduli (GPa) = 64.21253 70.92437 112.52505
#
# Poissons Ratio (x) = 0.23013 0.52847
# Poissons Ratio (y) = 0.20835 0.35918
# Poissons Ratio (z) = 0.30157 0.22639
#
# Static dielectric constant tensor:
#      x y z
#    x 3.616050 0.000000 0.000000 
#    y 0.000000 3.698550 0.000000 
#    z 0.000000 0.000000 4.107040 
# 
# 
# High freq. dielectric constant tensor:
#      x y z
#    x 1.814820 0.000000 0.000000 
#    y 0.000000 1.802750 0.000000 
#    z 0.000000 0.000000 1.838390 
# 
# From -- ./inp_files/29150.got.cif
#   From: 2010.03.12/outbox.cif.g09.slc.cpg/sg74_15_cif.got.tgz:29150.got - 2010.04.16 15:46:19.
