data_PCOD8299401
_publ_section_title
;
Structure prediction by ZEFSAII (Michael W. Deem and Ramdas Pophale) SiO2 
 PCOD8299401
Probable space group: I M M A
;
_chemical_formula_sum "Si O2"
_cell_formula_units_Z 96
_cell_length_a 17.608180
_cell_length_b 26.225772
_cell_length_c 11.278992
_cell_angle_alpha 90.000000
_cell_angle_beta 90.000000
_cell_angle_gamma 90.000000
_cell_volume 5208.504444
_symmetry_space_group_name_H-M "I M M A"
_symmetry_group_IT_number 74
_symmetry_cell_setting 'orthorhombic'
loop_
_space_group_symop_operation_xyz
x,y,z
-x,1/2-y,z
x,-y,-z
-x,1/2+y,-z
-x,-y,-z
x,1/2+y,-z
-x,y,z
x,1/2-y,z
1/2+x,1/2+y,1/2+z
1/2-x,-y,1/2+z
1/2+x,1/2-y,1/2-z
1/2-x,y,1/2-z
1/2-x,1/2-y,1/2-z
1/2+x,y,1/2-z
1/2-x,1/2+y,1/2+z
1/2+x,-y,1/2+z
loop_
_atom_site_type_symbol
_atom_site_label
_atom_site_fract_x
_atom_site_fract_y
_atom_site_fract_z
Si Si1 0.681061 0.379506 0.178887
Si Si2 0.212227 0.805243 0.482830
Si Si3 0.663479 0.622479 0.206981
Si Si4 0.620244 0.305923 0.599304
Si Si5 0.412485 0.059882 0.984278
Si Si6 0.584704 0.693137 0.662286
O O1 0.750000 0.407915 0.250000
O O2 0.634809 0.417300 0.094548
O O3 0.625660 0.352107 0.270201
O O4 0.723227 0.335504 0.104439
O O5 0.176157 0.750000 0.510463
O O6 0.157161 0.834991 0.394922
O O7 0.290778 0.798972 0.416611
O O8 0.750000 0.609575 0.250000
O O9 0.610175 0.646375 0.310470
O O10 0.624877 0.573257 0.144555
O O11 0.589296 0.250000 0.644201
O O12 0.580689 0.321157 0.476708
O O13 0.500000 0.078907 0.988459
O O14 0.408248 0.000000 0.000000
O O15 0.500000 0.695229 0.713210
O O16 0.622543 0.750000 0.676507
#
# Coordination Sequence:
#
# PCOD8299401 Si02
#       6
#    16  16  16  16  16  16
#     4  11  20  33  56  80 103 136 179 224 265 312
#     4   9  16  27  47  78 110 139 173 209 248 299
#     4   9  18  32  55  81 106 135 177 220 260 307
#     4   9  16  28  47  75 110 143 172 202 244 303
#     4  10  23  42  60  77 101 136 177 227 286 331
#     4  10  20  31  46  75 115 151 177 205 248 307
#
# _framework density 18.431394000000001
#
# number of rings (size 3 to 8) (size 9 to 14) (size 15 to 20)
#    0.000    2.333    1.667    1.500    0.000    4.000 
#    0.000    0.000    0.000    9.500    0.000    3.500 
#    0.000    0.000    0.000    0.000    0.000    0.000 
#
# Total GULP energy -594650.879388 kJ/mol
# GULP energy per Si atom -12388.559987 kJ/mol
# Density = 1.838944 g / cm^3
# Si number density = 18.431394 Si / 1000 Ang^3
#
#
#
# Elastic Constant Matrix: (Units=GPa)
#
#
# Indices 1 2 3 4 5 6 
#
# 1 72.7696 34.4898 40.2461 0.0000 0.0000 0.0000
# 2 34.4898 79.0361 42.2721 0.0000 0.0000 0.0000
# 3 40.2461 42.2721 97.9562 0.0000 0.0000 0.0000
# 4 0.0000 0.0000 0.0000 26.2762 0.0000 0.0000
# 5 0.0000 0.0000 0.0000 0.0000 6.1539 0.0000
# 6 0.0000 0.0000 0.0000 0.0000 0.0000 15.5362
#
#
#
# Elastic Compliance Matrix: (Units=1/GPa)
#
#
# Indices 1 2 3 4 5 6 
#
# 1 0.019451 -0.005478 -0.005627 0.000000 0.000000 0.000000
# 2 -0.005478 0.017992 -0.005514 0.000000 0.000000 0.000000
# 3 -0.005627 -0.005514 0.014900 0.000000 0.000000 0.000000
# 4 0.000000 0.000000 0.000000 0.038057 0.000000 0.000000
# 5 0.000000 0.000000 0.000000 0.000000 0.162499 0.000000
# 6 0.000000 0.000000 0.000000 0.000000 0.000000 0.064366
#
#
# Mechanical properties :
#
#
# Convention : Reuss Voigt Hill
#
# Bulk Modulus (GPa) = 52.34372 53.75313 53.04842
# Shear Modulus (GPa) = 14.01064 18.44351 16.22708
#
# Velocity S-wave (km/s) = 2.76007 3.16675 2.97038
# Velocity P-wave (km/s) = 6.21436 6.52674 6.37246
#
# Compressibility (1/GPa) = 0.01910449
#
# Stress axis : x y z
#
# Youngs Moduli (GPa) = 51.41196 55.58071 67.11394
#
# Poissons Ratio (x) = 0.30448 0.37768
# Poissons Ratio (y) = 0.28164 0.37003
# Poissons Ratio (z) = 0.28932 0.30644
#
# Static dielectric constant tensor:
#      x y z
#    x 3.333020 0.000000 0.000000 
#    y 0.000000 3.420520 0.000000 
#    z 0.000000 0.000000 3.551580 
# 
# 
# High freq. dielectric constant tensor:
#      x y z
#    x 1.705030 0.000000 0.000000 
#    y 0.000000 1.686490 0.000000 
#    z 0.000000 0.000000 1.721420 
# 
# From -- ./inp_files/22628.got.cif
#   From: 2010.03.12/outbox.cif.g09.slc.cpg/sg74_12_cif.got.tgz:22628.got - 2010.04.16 15:46:19.
