data_PCOD8299175
_publ_section_title
;
Structure prediction by ZEFSAII (Michael W. Deem and Ramdas Pophale) SiO2 
 PCOD8299175
Probable space group: I M M A
;
_chemical_formula_sum "Si O2"
_cell_formula_units_Z 96
_cell_length_a 28.601616
_cell_length_b 9.564976
_cell_length_c 18.921102
_cell_angle_alpha 90.000000
_cell_angle_beta 90.000000
_cell_angle_gamma 90.000000
_cell_volume 5176.317218
_symmetry_space_group_name_H-M "I M M A"
_symmetry_group_IT_number 74
_symmetry_cell_setting 'orthorhombic'
loop_
_space_group_symop_operation_xyz
x,y,z
-x,1/2-y,z
x,-y,-z
-x,1/2+y,-z
-x,-y,-z
x,1/2+y,-z
-x,y,z
x,1/2-y,z
1/2+x,1/2+y,1/2+z
1/2-x,-y,1/2+z
1/2+x,1/2-y,1/2-z
1/2-x,y,1/2-z
1/2-x,1/2-y,1/2-z
1/2+x,y,1/2-z
1/2-x,1/2+y,1/2+z
1/2+x,-y,1/2+z
loop_
_atom_site_type_symbol
_atom_site_label
_atom_site_fract_x
_atom_site_fract_y
_atom_site_fract_z
Si Si1 0.760186 0.905846 0.332330
Si Si2 0.897042 0.088781 0.810006
Si Si3 0.000000 0.583953 0.622844
Si Si4 0.172688 0.588793 0.070952
Si Si5 0.155622 0.906725 0.693965
Si Si6 0.094199 0.597117 0.558400
Si Si7 0.500000 0.588292 0.265465
O O1 0.775893 0.750000 0.356534
O O2 0.750000 0.903970 0.250000
O O3 0.715059 0.954536 0.376877
O O4 0.800561 0.018534 0.343158
O O5 0.887959 0.250000 0.787911
O O6 0.876359 0.061436 0.888308
O O7 0.952702 0.054682 0.810335
O O8 0.867692 0.993369 0.756753
O O9 0.956466 0.535028 0.576194
O O10 0.000000 0.750000 0.638127
O O11 0.000000 0.507236 0.697352
O O12 0.177181 0.750000 0.049076
O O13 0.174346 0.500000 0.000000
O O14 0.169061 0.750000 0.720744
O O15 0.119072 0.895222 0.632334
O O16 0.119122 0.500000 0.500000
O O17 0.091104 0.750000 0.523977
O O18 0.500000 0.750000 0.242257
#
# Coordination Sequence:
#
# PCOD8299175 Si02
#       7
#    16  16   8  16  16  16   8
#     4  10  20  38  61  84 113 152 191 230 280 336
#     4  10  20  38  60  86 117 151 192 237 287 347
#     4  10  19  35  53  75 111 145 183 237 289 338
#     4  10  22  40  62  86 118 154 190 234 288 347
#     4  11  22  35  56  86 115 148 191 240 286 334
#     4  10  22  36  51  74 109 150 188 231 284 335
#     4  10  20  33  60  91 110 143 196 243 282 340
#
# _framework density 18.546004
#
# number of rings (size 3 to 8) (size 9 to 14) (size 15 to 20)
#    0.000    1.833    3.333    0.750    0.000    4.333 
#    0.000    3.750    0.000    0.000    0.000    0.000 
#    0.000    0.000    0.000    0.000    0.000    0.000 
#
# Total GULP energy -594975.697854 kJ/mol
# GULP energy per Si atom -12395.327039 kJ/mol
# Density = 1.850379 g / cm^3
# Si number density = 18.546004 Si / 1000 Ang^3
#
#
#
# Elastic Constant Matrix: (Units=GPa)
#
#
# Indices 1 2 3 4 5 6 
#
# 1 84.4654 50.0171 38.5234 0.0000 0.0000 0.0000
# 2 50.0171 94.7485 54.3676 0.0000 0.0000 0.0000
# 3 38.5234 54.3676 106.8893 0.0000 0.0000 0.0000
# 4 0.0000 0.0000 0.0000 48.5583 0.0000 0.0000
# 5 0.0000 0.0000 0.0000 0.0000 24.4257 0.0000
# 6 0.0000 0.0000 0.0000 0.0000 0.0000 28.6352
#
#
#
# Elastic Compliance Matrix: (Units=1/GPa)
#
#
# Indices 1 2 3 4 5 6 
#
# 1 0.017610 -0.007985 -0.002285 0.000000 0.000000 0.000000
# 2 -0.007985 0.018525 -0.006545 0.000000 0.000000 0.000000
# 3 -0.002285 -0.006545 0.013508 0.000000 0.000000 0.000000
# 4 0.000000 0.000000 0.000000 0.020594 0.000000 0.000000
# 5 0.000000 0.000000 0.000000 0.000000 0.040940 0.000000
# 6 0.000000 0.000000 0.000000 0.000000 0.000000 0.034922
#
#
# Mechanical properties :
#
#
# Convention : Reuss Voigt Hill
#
# Bulk Modulus (GPa) = 62.44888 63.54659 62.99773
# Shear Modulus (GPa) = 27.01747 29.87018 28.44382
#
# Velocity S-wave (km/s) = 3.82092 4.01758 3.92048
# Velocity P-wave (km/s) = 7.29462 7.47395 7.38483
#
# Compressibility (1/GPa) = 0.01601310
#
# Stress axis : x y z
#
# Youngs Moduli (GPa) = 56.78685 53.98205 74.03075
#
# Poissons Ratio (x) = 0.43103 0.16918
# Poissons Ratio (y) = 0.45343 0.48450
# Poissons Ratio (z) = 0.12978 0.35329
#
# Static dielectric constant tensor:
#      x y z
#    x 4.299350 0.000000 0.000000 
#    y 0.000000 3.776230 0.000000 
#    z 0.000000 0.000000 3.181200 
# 
# 
# High freq. dielectric constant tensor:
#      x y z
#    x 1.726110 0.000000 0.000000 
#    y 0.000000 1.724560 0.000000 
#    z 0.000000 0.000000 1.702680 
# 
# From -- ./inp_files/37797.got.cif
#   From: 2010.03.12/outbox.cif.g09.slc.cpg/sg74_19_cif.got.tgz:37797.got - 2010.04.16 15:46:19.
