data_PCOD8299627
_publ_section_title
;
Structure prediction by ZEFSAII (Michael W. Deem and Ramdas Pophale) SiO2 
 PCOD8299627
Probable space group: I M M A
;
_chemical_formula_sum "Si O2"
_cell_formula_units_Z 96
_cell_length_a 9.045972
_cell_length_b 18.772969
_cell_length_c 31.028625
_cell_angle_alpha 90.000000
_cell_angle_beta 90.000000
_cell_angle_gamma 90.000000
_cell_volume 5269.273400
_symmetry_space_group_name_H-M "I M M A"
_symmetry_group_IT_number 74
_symmetry_cell_setting 'orthorhombic'
loop_
_space_group_symop_operation_xyz
x,y,z
-x,1/2-y,z
x,-y,-z
-x,1/2+y,-z
-x,-y,-z
x,1/2+y,-z
-x,y,z
x,1/2-y,z
1/2+x,1/2+y,1/2+z
1/2-x,-y,1/2+z
1/2+x,1/2-y,1/2-z
1/2-x,y,1/2-z
1/2-x,1/2-y,1/2-z
1/2+x,y,1/2-z
1/2-x,1/2+y,1/2+z
1/2+x,-y,1/2+z
loop_
_atom_site_type_symbol
_atom_site_label
_atom_site_fract_x
_atom_site_fract_y
_atom_site_fract_z
Si Si1 0.833255 0.665180 0.459613
Si Si2 0.827142 0.832399 0.126095
Si Si3 0.326268 0.087750 0.293967
Si Si4 0.831119 0.834518 0.628887
Si Si5 0.166876 0.665164 0.956441
Si Si6 0.327557 0.576436 0.293379
O O1 0.831246 0.750000 0.460958
O O2 0.756923 0.638209 0.415861
O O3 0.743597 0.634648 0.500472
O O4 0.000000 0.635864 0.461490
O O5 0.790667 0.750000 0.134813
O O6 0.768546 0.876816 0.166869
O O7 0.000000 0.844593 0.118101
O O8 0.500000 0.101416 0.290150
O O9 0.250000 0.113474 0.250000
O O10 0.261930 0.134156 0.332211
O O11 0.288590 0.005438 0.303010
O O12 0.822381 0.750000 0.631759
O O13 0.759250 0.862322 0.584515
O O14 0.000000 0.861165 0.630932
O O15 0.165707 0.750000 0.957654
O O16 0.000000 0.635442 0.953636
O O17 0.500000 0.588277 0.286628
O O18 0.250000 0.603549 0.250000
#
# Coordination Sequence:
#
# PCOD8299627 Si02
#       6
#    16  16  16  16  16  16
#     4   9  16  26  42  67  98 129 161 197 236 279
#     4   9  17  30  48  71  99 129 161 198 240 284
#     4  10  20  35  53  71  94 126 163 199 238 287
#     4  10  20  33  50  74 101 126 156 197 241 283
#     4   9  16  27  45  69  97 129 161 192 232 283
#     4   9  19  34  51  71  95 126 163 200 239 286
#
# _framework density 18.218831000000002
#
# number of rings (size 3 to 8) (size 9 to 14) (size 15 to 20)
#    0.000    2.667    0.000    2.000    0.000    7.000 
#    0.000    0.000    0.000    1.000    0.000    7.000 
#    0.000    0.000    0.000    0.000    0.000    0.000 
#
# Total GULP energy -595267.549848 kJ/mol
# GULP energy per Si atom -12401.407288 kJ/mol
# Density = 1.817736 g / cm^3
# Si number density = 18.218831 Si / 1000 Ang^3
#
#
#
# Elastic Constant Matrix: (Units=GPa)
#
#
# Indices 1 2 3 4 5 6 
#
# 1 115.0408 24.5407 77.3702 0.0000 0.0000 0.0000
# 2 24.5407 21.6412 36.2239 0.0000 0.0000 0.0000
# 3 77.3702 36.2239 178.1795 0.0000 0.0000 0.0000
# 4 0.0000 0.0000 0.0000 -3.4966 0.0000 0.0000
# 5 0.0000 0.0000 0.0000 0.0000 42.4961 0.0000
# 6 0.0000 0.0000 0.0000 0.0000 0.0000 15.7202
#
#
#
# Elastic Compliance Matrix: (Units=1/GPa)
#
#
# Indices 1 2 3 4 5 6 
#
# 1 0.013157 -0.008120 -0.004062 0.000000 0.000000 0.000000
# 2 -0.008120 0.075055 -0.011733 0.000000 0.000000 0.000000
# 3 -0.004062 -0.011733 0.009761 0.000000 0.000000 0.000000
# 4 0.000000 0.000000 0.000000 -0.285992 0.000000 0.000000
# 5 0.000000 0.000000 0.000000 0.000000 0.023532 0.000000
# 6 0.000000 0.000000 0.000000 0.000000 0.000000 0.063612
#
#
# Mechanical properties :
#
#
# Convention : Reuss Voigt Hill
#
# Bulk Modulus (GPa) = 19.94291 65.68124 42.81208
# Shear Modulus (GPa) = -137.62412 22.72573 -57.44920
#
# Velocity S-wave (km/s) = -8.70077 3.53565 -5.62151
# Velocity P-wave (km/s) = 9.48514 7.26618 4.31106
#
# Compressibility (1/GPa) = 0.05014312
#
# Stress axis : x y z
#
# Youngs Moduli (GPa) = 76.00654 13.32361 102.44337
#
# Poissons Ratio (x) = 0.10819 0.41615
# Poissons Ratio (y) = 0.61718 1.20194
# Poissons Ratio (z) = 0.30875 0.15632
#
# Static dielectric constant tensor:
#      x y z
#    x 3.507840 0.000000 0.000000 
#    y 0.000000 2.966510 0.000000 
#    z 0.000000 0.000000 3.583590 
# 
# 
# High freq. dielectric constant tensor:
#      x y z
#    x 1.717290 0.000000 0.000000 
#    y 0.000000 1.656800 0.000000 
#    z 0.000000 0.000000 1.722500 
# 
# From -- ./inp_files/64664.got.cif
#   From: 2010.03.12/outbox.cif.g09.slc.cpg/sg74_33_cif.got.tgz:64664.got - 2010.04.16 15:46:19.
