data_PCOD8299624
_publ_section_title
;
Structure prediction by ZEFSAII (Michael W. Deem and Ramdas Pophale) SiO2 
 PCOD8299624
Probable space group: I M M A
;
_chemical_formula_sum "Si O2"
_cell_formula_units_Z 104
_cell_length_a 25.198122
_cell_length_b 9.088155
_cell_length_c 21.288060
_cell_angle_alpha 90.000000
_cell_angle_beta 90.000000
_cell_angle_gamma 90.000000
_cell_volume 4875.060226
_symmetry_space_group_name_H-M "I M M A"
_symmetry_group_IT_number 74
_symmetry_cell_setting 'orthorhombic'
loop_
_space_group_symop_operation_xyz
x,y,z
-x,1/2-y,z
x,-y,-z
-x,1/2+y,-z
-x,-y,-z
x,1/2+y,-z
-x,y,z
x,1/2-y,z
1/2+x,1/2+y,1/2+z
1/2-x,-y,1/2+z
1/2+x,1/2-y,1/2-z
1/2-x,y,1/2-z
1/2-x,1/2-y,1/2-z
1/2+x,y,1/2-z
1/2-x,1/2+y,1/2+z
1/2+x,-y,1/2+z
loop_
_atom_site_type_symbol
_atom_site_label
_atom_site_fract_x
_atom_site_fract_y
_atom_site_fract_z
Si Si1 0.600874 0.082090 0.879526
Si Si2 0.440480 0.419285 0.646824
Si Si3 0.628290 0.586557 0.559420
Si Si4 0.500000 0.925463 0.932264
Si Si5 0.779061 0.583757 0.840357
Si Si6 0.209384 0.918637 0.436788
Si Si7 0.352701 0.921438 0.252816
O O1 0.579815 0.250000 0.872627
O O2 0.645380 0.073142 0.933865
O O3 0.629888 0.028742 0.816233
O O4 0.552182 0.975129 0.894618
O O5 0.500000 0.458975 0.667499
O O6 0.434416 0.250000 0.628267
O O7 0.425160 0.511556 0.585246
O O8 0.403014 0.460715 0.704543
O O9 0.651149 0.500000 0.500000
O O10 0.613927 0.750000 0.538179
O O11 0.672293 0.582555 0.612326
O O12 0.500000 0.750000 0.939798
O O13 0.500000 0.000000 0.000000
O O14 0.759487 0.750000 0.826953
O O15 0.732410 0.490581 0.873025
O O16 0.800137 0.510957 0.775145
O O17 0.229021 0.750000 0.440245
O O18 0.228824 0.000000 0.500000
O O19 0.337806 0.750000 0.255348
#
# Coordination Sequence:
#
# PCOD8299624 Si02
#       7
#    16  16  16   8  16  16  16
#     4  10  23  42  66  94 125 162 203 252 307 367
#     4   9  18  32  52  77 103 139 186 236 288 344
#     4  10  20  33  50  73 103 142 187 235 290 348
#     4  12  26  44  68  96 128 166 207 256 311 370
#     4  10  21  37  58  85 119 158 197 245 300 355
#     4  11  23  39  61  90 121 158 203 250 304 365
#     4   9  19  37  61  87 118 156 199 246 296 357
#
# _framework density 21.333069999999999
#
# number of rings (size 3 to 8) (size 9 to 14) (size 15 to 20)
#    0.000    2.000    0.000    3.000    1.077    7.385 
#    0.000    3.077    0.000    0.000    0.000    0.000 
#    0.000    0.000    0.000    0.000    0.000    0.000 
#
# Total GULP energy -644882.965988 kJ/mol
# GULP energy per Si atom -12401.595500 kJ/mol
# Density = 2.128451 g / cm^3
# Si number density = 21.333070 Si / 1000 Ang^3
#
#
#
# Elastic Constant Matrix: (Units=GPa)
#
#
# Indices 1 2 3 4 5 6 
#
# 1 92.8848 51.7935 17.8448 0.0000 0.0000 0.0000
# 2 51.7935 141.3927 48.7602 0.0000 0.0000 0.0000
# 3 17.8448 48.7602 92.9226 0.0000 0.0000 0.0000
# 4 0.0000 0.0000 0.0000 32.7052 0.0000 0.0000
# 5 0.0000 0.0000 0.0000 0.0000 21.5564 0.0000
# 6 0.0000 0.0000 0.0000 0.0000 0.0000 30.4060
#
#
#
# Elastic Compliance Matrix: (Units=1/GPa)
#
#
# Indices 1 2 3 4 5 6 
#
# 1 0.013530 -0.004957 0.000003 0.000000 0.000000 0.000000
# 2 -0.004957 0.010451 -0.004532 0.000000 0.000000 0.000000
# 3 0.000003 -0.004532 0.013139 0.000000 0.000000 0.000000
# 4 0.000000 0.000000 0.000000 0.030576 0.000000 0.000000
# 5 0.000000 0.000000 0.000000 0.000000 0.046390 0.000000
# 6 0.000000 0.000000 0.000000 0.000000 0.000000 0.032888
#
#
# Mechanical properties :
#
#
# Convention : Reuss Voigt Hill
#
# Bulk Modulus (GPa) = 55.10409 62.66638 58.88523
# Shear Modulus (GPa) = 29.07038 30.85363 29.96201
#
# Velocity S-wave (km/s) = 3.69547 3.80713 3.75171
# Velocity P-wave (km/s) = 6.64041 6.98317 6.81395
#
# Compressibility (1/GPa) = 0.01814747
#
# Stress axis : x y z
#
# Youngs Moduli (GPa) = 73.91236 95.68206 76.10736
#
# Poissons Ratio (x) = 0.47430 -0.00022
# Poissons Ratio (y) = 0.36638 0.34494
# Poissons Ratio (z) = -0.00022 0.43366
#
# Static dielectric constant tensor:
#      x y z
#    x 3.861240 0.000000 0.000000 
#    y 0.000000 3.944600 0.000000 
#    z 0.000000 0.000000 3.906040 
# 
# 
# High freq. dielectric constant tensor:
#      x y z
#    x 1.837680 0.000000 0.000000 
#    y 0.000000 1.833280 0.000000 
#    z 0.000000 0.000000 1.840590 
# 
# From -- ./inp_files/55203.got.cif
#   From: 2010.03.12/outbox.cif.g09.slc.cpg/sg74_28_cif.got.tgz:55203.got - 2010.04.16 15:46:19.
