data_PCOD8299237
_publ_section_title
;
Structure prediction by ZEFSAII (Michael W. Deem and Ramdas Pophale) SiO2 
 PCOD8299237
Probable space group: I M M A
;
_chemical_formula_sum "Si O2"
_cell_formula_units_Z 96
_cell_length_a 18.964095
_cell_length_b 17.312777
_cell_length_c 14.992305
_cell_angle_alpha 90.000000
_cell_angle_beta 90.000000
_cell_angle_gamma 90.000000
_cell_volume 4922.290785
_symmetry_space_group_name_H-M "I M M A"
_symmetry_group_IT_number 74
_symmetry_cell_setting 'orthorhombic'
loop_
_space_group_symop_operation_xyz
x,y,z
-x,1/2-y,z
x,-y,-z
-x,1/2+y,-z
-x,-y,-z
x,1/2+y,-z
-x,y,z
x,1/2-y,z
1/2+x,1/2+y,1/2+z
1/2-x,-y,1/2+z
1/2+x,1/2-y,1/2-z
1/2-x,y,1/2-z
1/2-x,1/2-y,1/2-z
1/2+x,y,1/2-z
1/2-x,1/2+y,1/2+z
1/2+x,-y,1/2+z
loop_
_atom_site_type_symbol
_atom_site_label
_atom_site_fract_x
_atom_site_fract_y
_atom_site_fract_z
Si Si1 0.581508 0.839506 0.363486
Si Si2 0.160855 0.590621 0.486233
Si Si3 0.679599 0.409525 0.489940
Si Si4 0.081927 0.605239 0.660228
Si Si5 0.181164 0.337886 0.198024
Si Si6 0.918332 0.425559 0.686129
O O1 0.500000 0.857259 0.384329
O O2 0.593492 0.750000 0.341100
O O3 0.625176 0.862505 0.450240
O O4 0.607869 0.889591 0.279223
O O5 0.153538 0.500000 0.500000
O O6 0.241873 0.616580 0.482744
O O7 0.120512 0.630194 0.568741
O O8 0.124796 0.615255 0.393488
O O9 0.666891 0.500000 0.500000
O O10 0.666257 0.390210 0.387229
O O11 0.113150 0.657654 0.738606
O O12 0.096119 0.516651 0.686977
O O13 0.000000 0.623294 0.648871
O O14 0.193626 0.250000 0.167518
O O15 0.250000 0.369955 0.250000
O O16 0.000000 0.406803 0.669691
#
# Coordination Sequence:
#
# PCOD8299237 Si02
#       6
#    16  16  16  16  16  16
#     4  10  22  40  58  80 114 153 193 238 288 339
#     4   9  18  33  56  88 118 147 183 233 290 338
#     4  11  22  38  61  88 113 147 192 238 281 337
#     4  10  19  35  60  88 114 147 197 240 277 341
#     4  11  23  39  56  79 119 159 186 227 290 344
#     4   9  18  35  59  86 117 152 188 237 290 334
#
# _framework density 19.503115999999999
#
# number of rings (size 3 to 8) (size 9 to 14) (size 15 to 20)
#    0.000    2.000    1.667    2.000    0.000    4.000 
#    0.000    3.333    0.000    2.000    0.000    0.000 
#    0.000    0.000    0.000    0.000    0.000    0.000 
#
# Total GULP energy -595407.249846 kJ/mol
# GULP energy per Si atom -12404.317705 kJ/mol
# Density = 1.945873 g / cm^3
# Si number density = 19.503116 Si / 1000 Ang^3
#
#
#
# Elastic Constant Matrix: (Units=GPa)
#
#
# Indices 1 2 3 4 5 6 
#
# 1 95.2390 28.5756 58.6751 0.0000 0.0000 0.0000
# 2 28.5756 52.6115 36.8582 0.0000 0.0000 0.0000
# 3 58.6751 36.8582 152.6270 0.0000 0.0000 0.0000
# 4 0.0000 0.0000 0.0000 15.0167 0.0000 0.0000
# 5 0.0000 0.0000 0.0000 0.0000 41.9952 0.0000
# 6 0.0000 0.0000 0.0000 0.0000 0.0000 20.0051
#
#
#
# Elastic Compliance Matrix: (Units=1/GPa)
#
#
# Indices 1 2 3 4 5 6 
#
# 1 0.014720 -0.004851 -0.004487 0.000000 0.000000 0.000000
# 2 -0.004851 0.024477 -0.004046 0.000000 0.000000 0.000000
# 3 -0.004487 -0.004046 0.009254 0.000000 0.000000 0.000000
# 4 0.000000 0.000000 0.000000 0.066592 0.000000 0.000000
# 5 0.000000 0.000000 0.000000 0.000000 0.023812 0.000000
# 6 0.000000 0.000000 0.000000 0.000000 0.000000 0.049987
#
#
# Mechanical properties :
#
#
# Convention : Reuss Voigt Hill
#
# Bulk Modulus (GPa) = 46.12209 60.96616 53.54413
# Shear Modulus (GPa) = 22.43770 27.16132 24.79951
#
# Velocity S-wave (km/s) = 3.39553 3.73589 3.56977
# Velocity P-wave (km/s) = 6.25082 7.06659 6.67119
#
# Compressibility (1/GPa) = 0.02168158
#
# Stress axis : x y z
#
# Youngs Moduli (GPa) = 67.93435 40.85519 108.06074
#
# Poissons Ratio (x) = 0.19821 0.48490
# Poissons Ratio (y) = 0.32958 0.43720
# Poissons Ratio (z) = 0.30484 0.16530
#
# Static dielectric constant tensor:
#      x y z
#    x 3.582280 0.000000 0.000000 
#    y 0.000000 3.330070 0.000000 
#    z 0.000000 0.000000 3.648460 
# 
# 
# High freq. dielectric constant tensor:
#      x y z
#    x 1.762920 0.000000 0.000000 
#    y 0.000000 1.740120 0.000000 
#    z 0.000000 0.000000 1.769530 
# 
# From -- ./inp_files/35243.got.cif
#   From: 2010.03.12/outbox.cif.g09.slc.cpg/sg74_18_cif.got.tgz:35243.got - 2010.04.16 15:46:19.
