data_PCOD8299740
_publ_section_title
;
Structure prediction by ZEFSAII (Michael W. Deem and Ramdas Pophale) SiO2 
 PCOD8299740
Probable space group: I M M A
;
_chemical_formula_sum "Si O2"
_cell_formula_units_Z 96
_cell_length_a 19.010251
_cell_length_b 27.088507
_cell_length_c 9.456392
_cell_angle_alpha 90.000000
_cell_angle_beta 90.000000
_cell_angle_gamma 90.000000
_cell_volume 4869.657168
_symmetry_space_group_name_H-M "I M M A"
_symmetry_group_IT_number 74
_symmetry_cell_setting 'orthorhombic'
loop_
_space_group_symop_operation_xyz
x,y,z
-x,1/2-y,z
x,-y,-z
-x,1/2+y,-z
-x,-y,-z
x,1/2+y,-z
-x,y,z
x,1/2-y,z
1/2+x,1/2+y,1/2+z
1/2-x,-y,1/2+z
1/2+x,1/2-y,1/2-z
1/2-x,y,1/2-z
1/2-x,1/2-y,1/2-z
1/2+x,y,1/2-z
1/2-x,1/2+y,1/2+z
1/2+x,-y,1/2+z
loop_
_atom_site_type_symbol
_atom_site_label
_atom_site_fract_x
_atom_site_fract_y
_atom_site_fract_z
Si Si1 0.663211 0.363300 0.054835
Si Si2 0.828275 0.115226 0.761114
Si Si3 0.920889 0.353271 0.179376
Si Si4 0.802271 0.692504 0.006473
Si Si5 0.730971 0.461361 0.102045
Si Si6 0.883345 0.443911 0.998810
O O1 0.598379 0.347308 0.153953
O O2 0.683144 0.414578 0.130809
O O3 0.639626 0.372521 0.893068
O O4 0.729100 0.326001 0.062584
O O5 0.750000 0.090567 0.750000
O O6 0.817816 0.166434 0.844771
O O7 0.885593 0.080194 0.841010
O O8 0.920264 0.409489 0.116174
O O9 0.000000 0.333092 0.162013
O O10 0.866860 0.318493 0.097314
O O11 0.796070 0.750000 0.035595
O O12 0.750000 0.487484 0.250000
O O13 0.800606 0.443282 0.024464
O O14 0.690860 0.500000 0.000000
O O15 0.914737 0.500000 0.000000
#
# Coordination Sequence:
#
# PCOD8299740 Si02
#       6
#    16  16  16  16  16  16
#     4  11  20  36  56  87 117 144 184 232 287 332
#     4   9  18  33  54  87 116 142 178 231 286 334
#     4  11  23  40  57  79 113 152 192 230 272 335
#     4  10  21  39  62  85 109 141 184 233 287 343
#     4  11  20  29  53  85 118 147 186 233 279 324
#     4  10  20  33  55  83 112 152 190 227 275 322
#
# _framework density 19.713913999999999
#
# number of rings (size 3 to 8) (size 9 to 14) (size 15 to 20)
#    0.000    1.667    6.667    0.500    4.667    5.000 
#    0.000    3.333    0.000    3.500    0.000    0.000 
#    0.000    0.000    0.000    0.000    0.000    0.000 
#
# Total GULP energy -594823.481135 kJ/mol
# GULP energy per Si atom -12392.155857 kJ/mol
# Density = 1.966904 g / cm^3
# Si number density = 19.713914 Si / 1000 Ang^3
#
#
#
# Elastic Constant Matrix: (Units=GPa)
#
#
# Indices 1 2 3 4 5 6 
#
# 1 70.2584 17.0395 34.2374 0.0000 0.0000 0.0000
# 2 17.0395 114.4276 32.7984 0.0000 0.0000 0.0000
# 3 34.2374 32.7984 154.9352 0.0000 0.0000 0.0000
# 4 0.0000 0.0000 0.0000 16.1010 0.0000 0.0000
# 5 0.0000 0.0000 0.0000 0.0000 11.0856 0.0000
# 6 0.0000 0.0000 0.0000 0.0000 0.0000 0.0861
#
#
#
# Elastic Compliance Matrix: (Units=1/GPa)
#
#
# Indices 1 2 3 4 5 6 
#
# 1 0.016181 -0.001474 -0.003264 0.000000 0.000000 0.000000
# 2 -0.001474 0.009438 -0.001672 0.000000 0.000000 0.000000
# 3 -0.003264 -0.001672 0.007529 0.000000 0.000000 0.000000
# 4 0.000000 0.000000 0.000000 0.062108 0.000000 -0.000001
# 5 0.000000 0.000000 0.000000 0.000000 0.090207 -0.000003
# 6 0.000000 0.000000 0.000000 -0.000001 -0.000003 11.619804
#
#
# Mechanical properties :
#
#
# Convention : Reuss Voigt Hill
#
# Bulk Modulus (GPa) = 49.19147 56.41908 52.80527
# Shear Modulus (GPa) = 0.42284 22.49094 11.45689
#
# Velocity S-wave (km/s) = 0.46363 3.38134 2.41334
# Velocity P-wave (km/s) = 5.02926 6.62764 5.88299
#
# Compressibility (1/GPa) = 0.02032873
#
# Stress axis : x y z
#
# Youngs Moduli (GPa) = 61.80062 105.95519 132.81118
#
# Poissons Ratio (x) = 0.15619 0.43345
# Poissons Ratio (y) = 0.09110 0.22209
# Poissons Ratio (z) = 0.20169 0.17718
#
# Static dielectric constant tensor:
#      x y z
#    x 3.120220 0.000000 0.000000 
#    y 0.000000 3.648290 0.000000 
#    z 0.000000 0.000000 4.153950 
# 
# 
# High freq. dielectric constant tensor:
#      x y z
#    x 1.713720 0.000000 0.000000 
#    y 0.000000 1.759310 0.000000 
#    z 0.000000 0.000000 1.786110 
# 
# From -- ./inp_files/12669.got.cif
#   From: 2010.03.12/outbox.cif.g09.slc.cpg/sg74_7_cif.got.tgz:12669.got - 2010.04.16 15:46:19.
