data_PCOD8299026
_publ_section_title
;
Structure prediction by ZEFSAII (Michael W. Deem and Ramdas Pophale) SiO2 
 PCOD8299026
Probable space group: I M M A
;
_chemical_formula_sum "Si O2"
_cell_formula_units_Z 104
_cell_length_a 31.991837
_cell_length_b 9.191500
_cell_length_c 20.312900
_cell_angle_alpha 90.000000
_cell_angle_beta 90.000000
_cell_angle_gamma 90.000000
_cell_volume 5973.068570
_symmetry_space_group_name_H-M "I M M A"
_symmetry_group_IT_number 74
_symmetry_cell_setting 'orthorhombic'
loop_
_space_group_symop_operation_xyz
x,y,z
-x,1/2-y,z
x,-y,-z
-x,1/2+y,-z
-x,-y,-z
x,1/2+y,-z
-x,y,z
x,1/2-y,z
1/2+x,1/2+y,1/2+z
1/2-x,-y,1/2+z
1/2+x,1/2-y,1/2-z
1/2-x,y,1/2-z
1/2-x,1/2-y,1/2-z
1/2+x,y,1/2-z
1/2-x,1/2+y,1/2+z
1/2+x,-y,1/2+z
loop_
_atom_site_type_symbol
_atom_site_label
_atom_site_fract_x
_atom_site_fract_y
_atom_site_fract_z
Si Si1 0.282965 0.081253 0.064977
Si Si2 0.129053 0.919451 0.817515
Si Si3 0.500000 0.078203 0.068171
Si Si4 0.351674 0.581128 0.830297
Si Si5 0.067888 0.914949 0.354367
Si Si6 0.687733 0.421498 0.434512
Si Si7 0.546679 0.414531 0.703011
O O1 0.285750 0.250000 0.047884
O O2 0.308820 0.045240 0.131351
O O3 0.235538 0.032831 0.079851
O O4 0.300499 0.000000 0.000000
O O5 0.121120 0.750000 0.825011
O O6 0.151176 0.954951 0.747582
O O7 0.160223 0.977906 0.873447
O O8 0.083604 0.990988 0.828619
O O9 0.500000 0.250000 0.060091
O O10 0.458776 0.028151 0.104965
O O11 0.500000 0.000000 0.000000
O O12 0.364532 0.750000 0.840092
O O13 0.385253 0.472775 0.861378
O O14 0.065125 0.750000 0.382136
O O15 0.050877 0.919836 0.280996
O O16 0.671092 0.500000 0.500000
O O17 0.683331 0.250000 0.444321
O O18 0.500000 0.472881 0.684059
O O19 0.551759 0.250000 0.677479
#
# Coordination Sequence:
#
# PCOD8299026 Si02
#       7
#    16  16   8  16  16  16  16
#     4   9  18  32  50  70  97 133 171 207 248 299
#     4   9  18  31  49  76 103 127 165 209 251 297
#     4  12  24  36  50  68  92 126 169 212 253 298
#     4   9  18  32  49  73 101 130 167 209 252 297
#     4  10  19  34  51  69  96 128 162 203 251 297
#     4   9  18  33  52  74 100 132 166 204 249 301
#     4   9  17  31  51  73  99 129 160 195 242 298
#
# _framework density 17.411486
#
# number of rings (size 3 to 8) (size 9 to 14) (size 15 to 20)
#    0.000    2.615    0.769    1.154    0.000    3.385 
#    0.000    4.615    0.000    0.462    0.000    8.615 
#    0.000    0.000    0.000    0.000    0.000    0.000 
#
# Total GULP energy -644623.623426 kJ/mol
# GULP energy per Si atom -12396.608143 kJ/mol
# Density = 1.737186 g / cm^3
# Si number density = 17.411486 Si / 1000 Ang^3
#
#
#
# Elastic Constant Matrix: (Units=GPa)
#
#
# Indices 1 2 3 4 5 6 
#
# 1 121.9002 47.1467 72.0900 0.0000 0.0000 0.0000
# 2 47.1467 73.8659 42.8069 0.0000 0.0000 0.0000
# 3 72.0900 42.8069 95.6849 0.0000 0.0000 0.0000
# 4 0.0000 0.0000 0.0000 25.8778 0.0000 0.0000
# 5 0.0000 0.0000 0.0000 0.0000 36.0431 0.0000
# 6 0.0000 0.0000 0.0000 0.0000 0.0000 27.6769
#
#
#
# Elastic Compliance Matrix: (Units=1/GPa)
#
#
# Indices 1 2 3 4 5 6 
#
# 1 0.015740 -0.004285 -0.009942 0.000000 0.000000 0.000000
# 2 -0.004285 0.019443 -0.005470 0.000000 0.000000 0.000000
# 3 -0.009942 -0.005470 0.020388 0.000000 0.000000 0.000000
# 4 0.000000 0.000000 0.000000 0.038643 0.000000 0.000000
# 5 0.000000 0.000000 0.000000 0.000000 0.027745 0.000000
# 6 0.000000 0.000000 0.000000 0.000000 0.000000 0.036131
#
#
# Mechanical properties :
#
#
# Convention : Reuss Voigt Hill
#
# Bulk Modulus (GPa) = 61.81226 68.39312 65.10269
# Shear Modulus (GPa) = 24.64554 26.54672 25.59613
#
# Velocity S-wave (km/s) = 3.76636 3.90893 3.83831
# Velocity P-wave (km/s) = 7.38186 7.72909 7.55747
#
# Compressibility (1/GPa) = 0.01617802
#
# Stress axis : x y z
#
# Youngs Moduli (GPa) = 63.53174 51.43243 49.04778
#
# Poissons Ratio (x) = 0.22039 0.48762
# Poissons Ratio (y) = 0.27224 0.26828
# Poissons Ratio (z) = 0.63162 0.28133
#
# Static dielectric constant tensor:
#      x y z
#    x 3.351400 0.000000 0.000000 
#    y 0.000000 3.317630 0.000000 
#    z 0.000000 0.000000 3.043920 
# 
# 
# High freq. dielectric constant tensor:
#      x y z
#    x 1.674440 0.000000 0.000000 
#    y 0.000000 1.671620 0.000000 
#    z 0.000000 0.000000 1.653820 
# 
# From -- ./inp_files/49574.got.cif
#   From: 2010.03.12/outbox.cif.g09.slc.cpg/sg74_25_cif.got.tgz:49574.got - 2010.04.16 15:46:19.
