data_PCOD8299655
_publ_section_title
;
Structure prediction by ZEFSAII (Michael W. Deem and Ramdas Pophale) SiO2 
 PCOD8299655
Probable space group: I M M A
;
_chemical_formula_sum "Si O2"
_cell_formula_units_Z 80
_cell_length_a 28.093711
_cell_length_b 9.126433
_cell_length_c 17.235099
_cell_angle_alpha 90.000000
_cell_angle_beta 90.000000
_cell_angle_gamma 90.000000
_cell_volume 4418.999605
_symmetry_space_group_name_H-M "I M M A"
_symmetry_group_IT_number 74
_symmetry_cell_setting 'orthorhombic'
loop_
_space_group_symop_operation_xyz
x,y,z
-x,1/2-y,z
x,-y,-z
-x,1/2+y,-z
-x,-y,-z
x,1/2+y,-z
-x,y,z
x,1/2-y,z
1/2+x,1/2+y,1/2+z
1/2-x,-y,1/2+z
1/2+x,1/2-y,1/2-z
1/2-x,y,1/2-z
1/2-x,1/2-y,1/2-z
1/2+x,y,1/2-z
1/2-x,1/2+y,1/2+z
1/2+x,-y,1/2+z
loop_
_atom_site_type_symbol
_atom_site_label
_atom_site_fract_x
_atom_site_fract_y
_atom_site_fract_z
Si Si1 0.642982 0.920573 0.216063
Si Si2 0.446140 0.076551 0.256792
Si Si3 0.215898 0.078597 0.578826
Si Si4 0.287049 0.084545 0.319405
Si Si5 0.055721 0.409472 0.070176
O O1 0.639630 0.750000 0.235764
O O2 0.673138 0.948259 0.138759
O O3 0.590540 0.988965 0.201976
O O4 0.665710 0.002672 0.290206
O O5 0.500000 0.038147 0.230970
O O6 0.437673 0.250000 0.250460
O O7 0.436802 0.020225 0.344891
O O8 0.225088 0.250000 0.565072
O O9 0.200143 0.000000 0.500000
O O10 0.264649 0.005398 0.609242
O O11 0.299656 0.250000 0.345960
O O12 0.250000 0.087487 0.250000
O O13 0.079925 0.250000 0.068412
O O14 0.000000 0.393138 0.054155
O O15 0.079821 0.500000 0.000000
#
# Coordination Sequence:
#
# PCOD8299655 Si02
#       5
#    16  16  16  16  16
#     4  10  20  33  51  76 104 133 168 211 254 300
#     4   9  18  32  49  70  98 134 176 218 258 303
#     4  10  20  34  53  78 106 133 164 205 253 306
#     4   9  17  31  52  75  99 129 162 197 243 299
#     4   8  14  25  41  61  85 114 150 193 239 284
#
# _framework density 18.103645
#
# number of rings (size 3 to 8) (size 9 to 14) (size 15 to 20)
#    0.000    2.800    0.000    3.000    0.000    6.000 
#    0.000    3.000    0.000    3.000    0.000    0.000 
#    0.000    0.000    0.000    0.000    0.000    0.000 
#
# Total GULP energy -495837.353555 kJ/mol
# GULP energy per Si atom -12395.933839 kJ/mol
# Density = 1.806244 g / cm^3
# Si number density = 18.103645 Si / 1000 Ang^3
#
#
#
# Elastic Constant Matrix: (Units=GPa)
#
#
# Indices 1 2 3 4 5 6 
#
# 1 99.6109 59.6207 34.6990 0.0000 0.0000 0.0000
# 2 59.6207 126.3982 52.6839 0.0000 0.0000 0.0000
# 3 34.6990 52.6839 68.0763 0.0000 0.0000 0.0000
# 4 0.0000 0.0000 0.0000 31.3799 0.0000 0.0000
# 5 0.0000 0.0000 0.0000 0.0000 15.4086 0.0000
# 6 0.0000 0.0000 0.0000 0.0000 0.0000 29.6940
#
#
#
# Elastic Compliance Matrix: (Units=1/GPa)
#
#
# Indices 1 2 3 4 5 6 
#
# 1 0.014412 -0.005515 -0.003078 0.000000 0.000000 0.000000
# 2 -0.005515 0.013789 -0.007860 0.000000 0.000000 0.000000
# 3 -0.003078 -0.007860 0.022341 0.000000 0.000000 0.000000
# 4 0.000000 0.000000 0.000000 0.031867 0.000000 0.000000
# 5 0.000000 0.000000 0.000000 0.000000 0.064899 0.000000
# 6 0.000000 0.000000 0.000000 0.000000 0.000000 0.033677
#
#
# Mechanical properties :
#
#
# Convention : Reuss Voigt Hill
#
# Bulk Modulus (GPa) = 56.70202 65.34361 61.02282
# Shear Modulus (GPa) = 22.75094 25.10196 23.92645
#
# Velocity S-wave (km/s) = 3.54885 3.72771 3.63938
# Velocity P-wave (km/s) = 6.94127 7.39596 7.17222
#
# Compressibility (1/GPa) = 0.01763606
#
# Stress axis : x y z
#
# Youngs Moduli (GPa) = 69.38525 72.52049 44.76046
#
# Poissons Ratio (x) = 0.39997 0.13776
# Poissons Ratio (y) = 0.38268 0.35183
# Poissons Ratio (z) = 0.21355 0.57003
#
# Static dielectric constant tensor:
#      x y z
#    x 3.193460 0.000000 0.000000 
#    y 0.000000 3.578470 0.000000 
#    z 0.000000 0.000000 3.141300 
# 
# 
# High freq. dielectric constant tensor:
#      x y z
#    x 1.684670 0.000000 0.000000 
#    y 0.000000 1.709010 0.000000 
#    z 0.000000 0.000000 1.674070 
# 
# From -- ./inp_files/39722.got.cif
#   From: 2010.03.12/outbox.cif.g09.slc.cpg/sg74_20_cif.got.tgz:39722.got - 2010.04.16 15:46:19.
