data_PCOD8299678
_publ_section_title
;
Structure prediction by ZEFSAII (Michael W. Deem and Ramdas Pophale) SiO2 
 PCOD8299678
Probable space group: I M M A
;
_chemical_formula_sum "Si O2"
_cell_formula_units_Z 64
_cell_length_a 8.943028
_cell_length_b 16.719415
_cell_length_c 18.850648
_cell_angle_alpha 90.000000
_cell_angle_beta 90.000000
_cell_angle_gamma 90.000000
_cell_volume 2818.590294
_symmetry_space_group_name_H-M "I M M A"
_symmetry_group_IT_number 74
_symmetry_cell_setting 'orthorhombic'
loop_
_space_group_symop_operation_xyz
x,y,z
-x,1/2-y,z
x,-y,-z
-x,1/2+y,-z
-x,-y,-z
x,1/2+y,-z
-x,y,z
x,1/2-y,z
1/2+x,1/2+y,1/2+z
1/2-x,-y,1/2+z
1/2+x,1/2-y,1/2-z
1/2-x,y,1/2-z
1/2-x,1/2-y,1/2-z
1/2+x,y,1/2-z
1/2-x,1/2+y,1/2+z
1/2+x,-y,1/2+z
loop_
_atom_site_type_symbol
_atom_site_label
_atom_site_fract_x
_atom_site_fract_y
_atom_site_fract_z
Si Si1 0.323730 0.657460 0.436422
Si Si2 0.176851 0.442975 0.673788
Si Si3 0.175048 0.089762 0.430002
Si Si4 0.838110 0.160104 0.186499
O O1 0.500000 0.643278 0.432686
O O2 0.286802 0.750000 0.454936
O O3 0.248958 0.636864 0.360584
O O4 0.254487 0.595240 0.493876
O O5 0.250000 0.459054 0.750000
O O6 0.217940 0.513486 0.618185
O O7 0.000000 0.432889 0.682612
O O8 0.238895 0.163417 0.384463
O O9 0.000000 0.095831 0.444295
O O10 0.868282 0.250000 0.211013
O O11 0.750000 0.114445 0.250000
O O12 0.000000 0.117842 0.174647
#
# Coordination Sequence:
#
# PCOD8299678 Si02
#       4
#    16  16  16  16
#     4  11  25  44  67  96 129 168 214 263 318 379
#     4  11  25  44  67  96 129 168 214 263 318 379
#     4  11  23  39  62  93 127 163 207 258 314 376
#     4  10  20  33  51  79 117 162 210 257 309 371
#
# _framework density 22.706385000000001
#
# number of rings (size 3 to 8) (size 9 to 14) (size 15 to 20)
#    0.000    1.250    0.000    5.250    0.000   16.000 
#    0.000    0.000    0.000    0.000    0.000    0.000 
#    0.000    0.000    0.000    0.000    0.000    0.000 
#
# Total GULP energy -396629.415020 kJ/mol
# GULP energy per Si atom -12394.669219 kJ/mol
# Density = 2.265470 g / cm^3
# Si number density = 22.706385 Si / 1000 Ang^3
#
#
#
# Elastic Constant Matrix: (Units=GPa)
#
#
# Indices 1 2 3 4 5 6 
#
# 1 155.1609 54.0807 84.1946 0.0000 0.0000 0.0000
# 2 54.0807 63.7287 56.8107 0.0000 0.0000 0.0000
# 3 84.1946 56.8107 152.0799 0.0000 0.0000 0.0000
# 4 0.0000 0.0000 0.0000 26.9364 0.0000 0.0000
# 5 0.0000 0.0000 0.0000 0.0000 48.2604 0.0000
# 6 0.0000 0.0000 0.0000 0.0000 0.0000 17.9220
#
#
#
# Elastic Compliance Matrix: (Units=1/GPa)
#
#
# Indices 1 2 3 4 5 6 
#
# 1 0.010362 -0.005517 -0.003676 0.000000 0.000000 0.000000
# 2 -0.005517 0.026463 -0.006831 0.000000 0.000000 0.000000
# 3 -0.003676 -0.006831 0.011163 0.000000 0.000000 0.000000
# 4 0.000000 0.000000 0.000000 0.037124 0.000000 0.000000
# 5 0.000000 0.000000 0.000000 0.000000 0.020721 0.000000
# 6 0.000000 0.000000 0.000000 0.000000 0.000000 0.055797
#
#
# Mechanical properties :
#
#
# Convention : Reuss Voigt Hill
#
# Bulk Modulus (GPa) = 62.73633 84.57128 73.65380
# Shear Modulus (GPa) = 25.12670 30.34932 27.73801
#
# Velocity S-wave (km/s) = 3.33016 3.65992 3.49892
# Velocity P-wave (km/s) = 6.51736 7.42876 6.98793
#
# Compressibility (1/GPa) = 0.01593973
#
# Stress axis : x y z
#
# Youngs Moduli (GPa) = 96.50196 37.78914 89.58558
#
# Poissons Ratio (x) = 0.20847 0.32933
# Poissons Ratio (y) = 0.53237 0.61198
# Poissons Ratio (z) = 0.35475 0.25815
#
# Static dielectric constant tensor:
#      x y z
#    x 4.361780 0.000000 0.000000 
#    y 0.000000 3.981320 0.000000 
#    z 0.000000 0.000000 4.200070 
# 
# 
# High freq. dielectric constant tensor:
#      x y z
#    x 1.910770 0.000000 0.000000 
#    y 0.000000 1.881030 0.000000 
#    z 0.000000 0.000000 1.904300 
# 
# From -- ./inp_files/48011.got.cif
#   From: 2010.03.12/outbox.cif.g09.slc.cpg/sg74_25_cif.got.tgz:48011.got - 2010.04.16 15:46:19.
