data_PCOD8299149
_publ_section_title
;
Structure prediction by ZEFSAII (Michael W. Deem and Ramdas Pophale) SiO2 
 PCOD8299149
Probable space group: I M M A
;
_chemical_formula_sum "Si O2"
_cell_formula_units_Z 88
_cell_length_a 24.010351
_cell_length_b 20.439249
_cell_length_c 9.025217
_cell_angle_alpha 90.000000
_cell_angle_beta 90.000000
_cell_angle_gamma 90.000000
_cell_volume 4429.157216
_symmetry_space_group_name_H-M "I M M A"
_symmetry_group_IT_number 74
_symmetry_cell_setting 'orthorhombic'
loop_
_space_group_symop_operation_xyz
x,y,z
-x,1/2-y,z
x,-y,-z
-x,1/2+y,-z
-x,-y,-z
x,1/2+y,-z
-x,y,z
x,1/2-y,z
1/2+x,1/2+y,1/2+z
1/2-x,-y,1/2+z
1/2+x,1/2-y,1/2-z
1/2-x,y,1/2-z
1/2-x,1/2-y,1/2-z
1/2+x,y,1/2-z
1/2-x,1/2+y,1/2+z
1/2+x,-y,1/2+z
loop_
_atom_site_type_symbol
_atom_site_label
_atom_site_fract_x
_atom_site_fract_y
_atom_site_fract_z
Si Si1 0.709848 0.939492 0.615453
Si Si2 0.280436 0.674727 0.401256
Si Si3 0.586273 0.404877 0.310951
Si Si4 0.000000 0.824954 0.637638
Si Si5 0.592731 0.321166 0.583264
Si Si6 0.500000 0.349973 0.794818
Si Si7 0.000000 0.507515 0.173350
O O1 0.750000 0.961264 0.750000
O O2 0.736570 0.876744 0.530238
O O3 0.652543 0.915880 0.694753
O O4 0.700922 0.000000 0.500000
O O5 0.267250 0.750000 0.450288
O O6 0.250000 0.656291 0.250000
O O7 0.345013 0.663542 0.365467
O O8 0.558727 0.353929 0.196721
O O9 0.570246 0.377442 0.474224
O O10 0.556756 0.472974 0.274269
O O11 0.000000 0.750000 0.681513
O O12 0.000000 0.836592 0.465256
O O13 0.590774 0.250000 0.503353
O O14 0.555146 0.317545 0.728419
O O15 0.500000 0.425299 0.755998
O O16 0.000000 0.500000 0.000000
#
# Coordination Sequence:
#
# PCOD8299149 Si02
#       7
#    16  16  16   8  16   8   8
#     4  11  24  42  64  95 126 167 216 271 323 378
#     4   9  20  39  63  90 123 164 210 259 313 377
#     4  10  22  39  63  84 118 169 205 250 302 375
#     4  11  24  42  60  93 133 161 201 263 326 378
#     4  10  19  34  58  86 114 156 206 244 292 363
#     4  12  23  34  58  89 124 156 195 255 312 366
#     4  11  19  37  60  86 114 156 206 244 293 369
#
# _framework density 19.86834
#
# number of rings (size 3 to 8) (size 9 to 14) (size 15 to 20)
#    0.000    1.636    1.818    3.000    2.545    4.000 
#    3.273    1.818    0.000    0.000    0.000    0.000 
#    0.000    0.000    0.000    0.000    0.000    0.000 
#
# Total GULP energy -545248.161817 kJ/mol
# GULP energy per Si atom -12392.003678 kJ/mol
# Density = 1.982312 g / cm^3
# Si number density = 19.868340 Si / 1000 Ang^3
#
#
#
# Elastic Constant Matrix: (Units=GPa)
#
#
# Indices 1 2 3 4 5 6 
#
# 1 91.0577 22.3239 38.9403 0.0000 0.0000 0.0000
# 2 22.3239 95.5597 3.1097 0.0000 0.0000 0.0000
# 3 38.9403 3.1097 69.2712 0.0000 0.0000 0.0000
# 4 0.0000 0.0000 0.0000 33.0997 0.0000 0.0000
# 5 0.0000 0.0000 0.0000 0.0000 30.0124 0.0000
# 6 0.0000 0.0000 0.0000 0.0000 0.0000 17.5018
#
#
#
# Elastic Compliance Matrix: (Units=1/GPa)
#
#
# Indices 1 2 3 4 5 6 
#
# 1 0.015449 -0.003331 -0.008535 0.000000 0.000000 0.000000
# 2 -0.003331 0.011198 0.001370 0.000000 0.000000 0.000000
# 3 -0.008535 0.001370 0.019172 0.000000 0.000000 0.000000
# 4 0.000000 0.000000 0.000000 0.030212 0.000000 0.000000
# 5 0.000000 0.000000 0.000000 0.000000 0.033320 0.000000
# 6 0.000000 0.000000 0.000000 0.000000 0.000000 0.057137
#
#
# Mechanical properties :
#
#
# Convention : Reuss Voigt Hill
#
# Bulk Modulus (GPa) = 40.27874 42.73739 41.50806
# Shear Modulus (GPa) = 25.54210 28.89044 27.21627
#
# Velocity S-wave (km/s) = 3.58937 3.81740 3.70514
# Velocity P-wave (km/s) = 6.12331 6.40211 6.26426
#
# Compressibility (1/GPa) = 0.02482699
#
# Stress axis : x y z
#
# Youngs Moduli (GPa) = 64.73086 89.29930 52.15863
#
# Poissons Ratio (x) = 0.29748 0.44516
# Poissons Ratio (y) = 0.21563 -0.07145
# Poissons Ratio (z) = 0.55246 -0.12233
#
# Static dielectric constant tensor:
#      x y z
#    x 3.607980 0.000000 0.000000 
#    y 0.000000 2.204950 0.000000 
#    z 0.000000 0.000000 3.397200 
# 
# 
# High freq. dielectric constant tensor:
#      x y z
#    x 1.775360 0.000000 0.000000 
#    y 0.000000 1.796500 0.000000 
#    z 0.000000 0.000000 1.752810 
# 
# From -- ./inp_files/12510.got.cif
#   From: 2010.03.12/outbox.cif.g09.slc.cpg/sg74_7_cif.got.tgz:12510.got - 2010.04.16 15:46:19.
