data_PCOD8299474
_publ_section_title
;
Structure prediction by ZEFSAII (Michael W. Deem and Ramdas Pophale) SiO2 
 PCOD8299474
Probable space group: I M M A
;
_chemical_formula_sum "Si O2"
_cell_formula_units_Z 96
_cell_length_a 16.689499
_cell_length_b 18.390651
_cell_length_c 18.376564
_cell_angle_alpha 90.000000
_cell_angle_beta 90.000000
_cell_angle_gamma 90.000000
_cell_volume 5640.332598
_symmetry_space_group_name_H-M "I M M A"
_symmetry_group_IT_number 74
_symmetry_cell_setting 'orthorhombic'
loop_
_space_group_symop_operation_xyz
x,y,z
-x,1/2-y,z
x,-y,-z
-x,1/2+y,-z
-x,-y,-z
x,1/2+y,-z
-x,y,z
x,1/2-y,z
1/2+x,1/2+y,1/2+z
1/2-x,-y,1/2+z
1/2+x,1/2-y,1/2-z
1/2-x,y,1/2-z
1/2-x,1/2-y,1/2-z
1/2+x,y,1/2-z
1/2-x,1/2+y,1/2+z
1/2+x,-y,1/2+z
loop_
_atom_site_type_symbol
_atom_site_label
_atom_site_fract_x
_atom_site_fract_y
_atom_site_fract_z
Si Si1 0.907435 0.059299 0.691436
Si Si2 0.246087 0.332943 0.051419
Si Si3 0.332465 0.911118 0.343720
Si Si4 0.729226 0.450988 0.169721
Si Si5 0.316961 0.833635 0.104387
Si Si6 0.410230 0.332902 0.529072
O O1 0.876917 0.093346 0.767043
O O2 0.893951 0.119793 0.628836
O O3 0.000000 0.038083 0.696301
O O4 0.858380 0.987226 0.670793
O O5 0.261312 0.250000 0.074887
O O6 0.275478 0.383163 0.116322
O O7 0.295860 0.352241 0.979009
O O8 0.151705 0.347008 0.036480
O O9 0.258741 0.854435 0.344746
O O10 0.395849 0.889883 0.405887
O O11 0.296472 0.991654 0.357164
O O12 0.750000 0.421951 0.250000
O O13 0.338044 0.750000 0.115008
O O14 0.500000 0.344341 0.498920
O O15 0.397768 0.250000 0.558144
#
# Coordination Sequence:
#
# PCOD8299474 Si02
#       6
#    16  16  16  16  16  16
#     4  10  20  32  47  69  98 129 161 201 238 268
#     4   9  18  34  53  70  92 123 158 197 240 287
#     4   9  17  30  48  70  99 132 160 185 224 283
#     4   9  19  35  52  70  92 120 158 200 240 288
#     4   9  18  31  47  70  99 130 162 193 227 275
#     4   9  17  29  47  75 107 131 152 184 228 279
#
# _framework density 17.020271999999999
#
# number of rings (size 3 to 8) (size 9 to 14) (size 15 to 20)
#    0.000    2.833    0.000    3.500    0.000    8.667 
#    0.000    6.667    0.000    1.500    0.000    0.000 
#    0.000    0.000    0.000    0.000    0.000    0.000 
#
# Total GULP energy -595103.503850 kJ/mol
# GULP energy per Si atom -12397.989664 kJ/mol
# Density = 1.698153 g / cm^3
# Si number density = 17.020272 Si / 1000 Ang^3
#
#
#
# Elastic Constant Matrix: (Units=GPa)
#
#
# Indices 1 2 3 4 5 6 
#
# 1 91.4273 41.4659 50.6777 0.0000 0.0000 0.0000
# 2 41.4659 90.7424 74.2899 0.0000 0.0000 0.0000
# 3 50.6777 74.2899 98.9633 0.0000 0.0000 0.0000
# 4 0.0000 0.0000 0.0000 33.8157 0.0000 0.0000
# 5 0.0000 0.0000 0.0000 0.0000 13.7816 0.0000
# 6 0.0000 0.0000 0.0000 0.0000 0.0000 16.1142
#
#
#
# Elastic Compliance Matrix: (Units=1/GPa)
#
#
# Indices 1 2 3 4 5 6 
#
# 1 0.015351 -0.001503 -0.006733 0.000000 0.000000 0.000000
# 2 -0.001503 0.028739 -0.020805 0.000000 0.000000 0.000000
# 3 -0.006733 -0.020805 0.029171 0.000000 0.000000 0.000000
# 4 0.000000 0.000000 0.000000 0.029572 0.000000 0.000000
# 5 0.000000 0.000000 0.000000 0.000000 0.072561 0.000000
# 6 0.000000 0.000000 0.000000 0.000000 0.000000 0.062057
#
#
# Mechanical properties :
#
#
# Convention : Reuss Voigt Hill
#
# Bulk Modulus (GPa) = 65.87535 68.22224 67.04879
# Shear Modulus (GPa) = 16.63382 20.38893 18.51138
#
# Velocity S-wave (km/s) = 3.12956 3.46485 3.30147
# Velocity P-wave (km/s) = 7.20048 7.49512 7.34928
#
# Compressibility (1/GPa) = 0.01518018
#
# Stress axis : x y z
#
# Youngs Moduli (GPa) = 65.14087 34.79532 34.28110
#
# Poissons Ratio (x) = 0.05228 0.23083
# Poissons Ratio (y) = 0.09787 0.71321
# Poissons Ratio (z) = 0.43861 0.72391
#
# Static dielectric constant tensor:
#      x y z
#    x 3.130660 0.000000 0.000000 
#    y 0.000000 3.047730 0.000000 
#    z 0.000000 0.000000 3.024930 
# 
# 
# High freq. dielectric constant tensor:
#      x y z
#    x 1.645020 0.000000 0.000000 
#    y 0.000000 1.647040 0.000000 
#    z 0.000000 0.000000 1.642720 
# 
# From -- ./inp_files/32402.got.cif
#   From: 2010.03.12/outbox.cif.g09.slc.cpg/sg74_17_cif.got.tgz:32402.got - 2010.04.16 15:46:19.
