data_PCOD8299456
_publ_section_title
;
Structure prediction by ZEFSAII (Michael W. Deem and Ramdas Pophale) SiO2 
 PCOD8299456
Probable space group: I M M A
;
_chemical_formula_sum "Si O2"
_cell_formula_units_Z 96
_cell_length_a 22.584659
_cell_length_b 8.979506
_cell_length_c 24.771555
_cell_angle_alpha 90.000000
_cell_angle_beta 90.000000
_cell_angle_gamma 90.000000
_cell_volume 5023.648589
_symmetry_space_group_name_H-M "I M M A"
_symmetry_group_IT_number 74
_symmetry_cell_setting 'orthorhombic'
loop_
_space_group_symop_operation_xyz
x,y,z
-x,1/2-y,z
x,-y,-z
-x,1/2+y,-z
-x,-y,-z
x,1/2+y,-z
-x,y,z
x,1/2-y,z
1/2+x,1/2+y,1/2+z
1/2-x,-y,1/2+z
1/2+x,1/2-y,1/2-z
1/2-x,y,1/2-z
1/2-x,1/2-y,1/2-z
1/2+x,y,1/2-z
1/2-x,1/2+y,1/2+z
1/2+x,-y,1/2+z
loop_
_atom_site_type_symbol
_atom_site_label
_atom_site_fract_x
_atom_site_fract_y
_atom_site_fract_z
Si Si1 0.066856 0.587989 0.347175
Si Si2 0.570730 0.415613 0.052084
Si Si3 0.345819 0.573002 0.646553
Si Si4 0.126535 0.076324 0.267700
Si Si5 0.931378 0.926237 0.057645
Si Si6 0.265939 0.921057 0.187521
O O1 0.097275 0.750000 0.337707
O O2 0.097611 0.501228 0.396513
O O3 0.065680 0.486366 0.292352
O O4 0.000000 0.615222 0.364285
O O5 0.500000 0.409561 0.052673
O O6 0.597200 0.250000 0.052134
O O7 0.595181 0.500000 0.000000
O O8 0.344676 0.750000 0.636732
O O9 0.371072 0.529075 0.705419
O O10 0.387733 0.496784 0.602144
O O11 0.278986 0.507891 0.647096
O O12 0.136201 0.250000 0.273134
O O13 0.169840 0.996554 0.312051
O O14 0.919854 0.750000 0.053929
O O15 0.000000 0.959239 0.073401
O O16 0.916624 0.000000 0.000000
O O17 0.266795 0.750000 0.169188
O O18 0.250000 0.941070 0.250000
#
# Coordination Sequence:
#
# PCOD8299456 Si02
#       6
#    16  16  16  16  16  16
#     4  10  20  32  46  67  97 132 169 209 254 304
#     4   9  16  27  44  64  86 115 154 197 238 282
#     4  10  20  34  54  79 106 137 174 215 261 315
#     4  10  20  33  50  74 105 139 174 215 264 316
#     4  10  21  37  57  81 110 144 183 227 274 325
#     4   9  17  31  52  76 101 130 167 209 251 298
#
# _framework density 19.109617
#
# number of rings (size 3 to 8) (size 9 to 14) (size 15 to 20)
#    0.000    2.333    0.000    3.000    0.000    8.667 
#    0.000    3.333    0.000    1.000    0.000    7.000 
#    0.000    0.000    0.000    0.000    0.000    0.000 
#
# Total GULP energy -594693.880673 kJ/mol
# GULP energy per Si atom -12389.455847 kJ/mol
# Density = 1.906612 g / cm^3
# Si number density = 19.109617 Si / 1000 Ang^3
#
#
#
# Elastic Constant Matrix: (Units=GPa)
#
#
# Indices 1 2 3 4 5 6 
#
# 1 55.6634 37.2273 43.8903 0.0000 0.0000 0.0000
# 2 37.2273 130.7783 70.1966 0.0000 0.0000 0.0000
# 3 43.8903 70.1966 121.7490 0.0000 0.0000 0.0000
# 4 0.0000 0.0000 0.0000 36.2640 0.0000 0.0000
# 5 0.0000 0.0000 0.0000 0.0000 30.1726 0.0000
# 6 0.0000 0.0000 0.0000 0.0000 0.0000 28.5357
#
#
#
# Elastic Compliance Matrix: (Units=1/GPa)
#
#
# Indices 1 2 3 4 5 6 
#
# 1 0.026132 -0.003450 -0.007431 0.000000 0.000000 0.000000
# 2 -0.003450 0.011529 -0.005404 0.000000 0.000000 0.000000
# 3 -0.007431 -0.005404 0.014008 0.000000 0.000000 0.000000
# 4 0.000000 0.000000 0.000000 0.027576 0.000000 0.000000
# 5 0.000000 0.000000 0.000000 0.000000 0.033143 0.000000
# 6 0.000000 0.000000 0.000000 0.000000 0.000000 0.035044
#
#
# Mechanical properties :
#
#
# Convention : Reuss Voigt Hill
#
# Bulk Modulus (GPa) = 52.35763 67.86879 60.11321
# Shear Modulus (GPa) = 26.82872 29.45291 28.14082
#
# Velocity S-wave (km/s) = 3.75098 3.93015 3.84161
# Velocity P-wave (km/s) = 6.79837 7.49582 7.15560
#
# Compressibility (1/GPa) = 0.01909941
#
# Stress axis : x y z
#
# Youngs Moduli (GPa) = 38.26722 86.73795 71.38679
#
# Poissons Ratio (x) = 0.29923 0.53051
# Poissons Ratio (y) = 0.13201 0.38574
# Poissons Ratio (z) = 0.28438 0.46870
#
# Static dielectric constant tensor:
#      x y z
#    x 3.560500 0.000000 0.000000 
#    y 0.000000 3.784340 0.000000 
#    z 0.000000 0.000000 3.429620 
# 
# 
# High freq. dielectric constant tensor:
#      x y z
#    x 1.716350 0.000000 0.000000 
#    y 0.000000 1.765880 0.000000 
#    z 0.000000 0.000000 1.732970 
# 
# From -- ./inp_files/55093.got.cif
#   From: 2010.03.12/outbox.cif.g09.slc.cpg/sg74_28_cif.got.tgz:55093.got - 2010.04.16 15:46:19.
