data_PCOD8299672
_publ_section_title
;
Structure prediction by ZEFSAII (Michael W. Deem and Ramdas Pophale) SiO2 
 PCOD8299672
Probable space group: I M M A
;
_chemical_formula_sum "Si O2"
_cell_formula_units_Z 48
_cell_length_a 7.572946
_cell_length_b 8.669158
_cell_length_c 38.124871
_cell_angle_alpha 90.000000
_cell_angle_beta 90.000000
_cell_angle_gamma 90.000000
_cell_volume 2502.938399
_symmetry_space_group_name_H-M "I M M A"
_symmetry_group_IT_number 74
_symmetry_cell_setting 'orthorhombic'
loop_
_space_group_symop_operation_xyz
x,y,z
-x,1/2-y,z
x,-y,-z
-x,1/2+y,-z
-x,-y,-z
x,1/2+y,-z
-x,y,z
x,1/2-y,z
1/2+x,1/2+y,1/2+z
1/2-x,-y,1/2+z
1/2+x,1/2-y,1/2-z
1/2-x,y,1/2-z
1/2-x,1/2-y,1/2-z
1/2+x,y,1/2-z
1/2-x,1/2+y,1/2+z
1/2+x,-y,1/2+z
loop_
_atom_site_type_symbol
_atom_site_label
_atom_site_fract_x
_atom_site_fract_y
_atom_site_fract_z
Si Si1 0.000000 0.431284 0.415788
Si Si2 0.696029 0.932988 0.287843
Si Si3 0.500000 0.566806 0.160389
Si Si4 0.797505 0.931535 0.037113
O O1 0.000000 0.473948 0.375311
O O2 0.176844 0.499865 0.432568
O O3 0.000000 0.250000 0.421113
O O4 0.500000 0.990605 0.297800
O O5 0.703473 0.750000 0.285161
O O6 0.750000 0.002533 0.250000
O O7 0.828828 0.988238 0.317944
O O8 0.500000 0.750000 0.153280
O O9 0.770674 0.750000 0.035668
O O10 0.000000 0.976638 0.045333
O O11 0.736610 0.000000 0.000000
#
# Coordination Sequence:
#
# PCOD8299672 Si02
#       4
#     8  16   8  16
#     4  12  25  39  56  80 119 162 200 238 284 341
#     4   9  15  26  48  78 106 132 169 225 287 339
#     4  10  20  33  51  78 110 142 185 236 287 341
#     4  10  21  39  64  91 118 150 192 239 288 341
#
# _framework density 19.177458999999999
#
# number of rings (size 3 to 8) (size 9 to 14) (size 15 to 20)
#    0.000    2.000    1.667    3.000    0.000    3.333 
#    0.000    3.333    0.000    1.000    0.000    0.000 
#    0.000    0.000    0.000    0.000    0.000    0.000 
#
# Total GULP energy -297635.099051 kJ/mol
# GULP energy per Si atom -12401.462460 kJ/mol
# Density = 1.913381 g / cm^3
# Si number density = 19.177459 Si / 1000 Ang^3
#
#
#
# Elastic Constant Matrix: (Units=GPa)
#
#
# Indices 1 2 3 4 5 6 
#
# 1 162.4059 31.6427 84.5549 0.0000 0.0000 0.0000
# 2 31.6427 58.9204 31.8940 0.0000 0.0000 0.0000
# 3 84.5549 31.8940 147.7637 0.0000 0.0000 0.0000
# 4 0.0000 0.0000 0.0000 27.2706 0.0000 0.0000
# 5 0.0000 0.0000 0.0000 0.0000 28.2011 0.0000
# 6 0.0000 0.0000 0.0000 0.0000 0.0000 18.1356
#
#
#
# Elastic Compliance Matrix: (Units=1/GPa)
#
#
# Indices 1 2 3 4 5 6 
#
# 1 0.009044 -0.002327 -0.004673 0.000000 0.000000 0.000000
# 2 -0.002327 0.019816 -0.002945 0.000000 0.000000 0.000000
# 3 -0.004673 -0.002945 0.010077 0.000000 0.000000 0.000000
# 4 0.000000 0.000000 0.000000 0.036670 0.000000 0.000000
# 5 0.000000 0.000000 0.000000 0.000000 0.035460 0.000000
# 6 0.000000 0.000000 0.000000 0.000000 0.000000 0.055140
#
#
# Mechanical properties :
#
#
# Convention : Reuss Voigt Hill
#
# Bulk Modulus (GPa) = 52.50426 73.91925 63.21176
# Shear Modulus (GPa) = 25.98127 29.45468 27.71798
#
# Velocity S-wave (km/s) = 3.68473 3.92331 3.80589
# Velocity P-wave (km/s) = 6.74837 7.69101 7.23506
#
# Compressibility (1/GPa) = 0.01904607
#
# Stress axis : x y z
#
# Youngs Moduli (GPa) = 110.57446 50.46330 99.23415
#
# Poissons Ratio (x) = 0.11745 0.46369
# Poissons Ratio (y) = 0.25736 0.29229
# Poissons Ratio (z) = 0.51668 0.14864
#
# Static dielectric constant tensor:
#      x y z
#    x 3.873470 0.000000 0.000000 
#    y 0.000000 3.170360 0.000000 
#    z 0.000000 0.000000 3.476610 
# 
# 
# High freq. dielectric constant tensor:
#      x y z
#    x 1.765290 0.000000 0.000000 
#    y 0.000000 1.712810 0.000000 
#    z 0.000000 0.000000 1.746660 
# 
# From -- ./inp_files/69532.got.cif
#   From: 2010.03.12/outbox.cif.g09.slc.cpg/sg74_35_cif.got.tgz:69532.got - 2010.04.16 15:46:19.
