data_PCOD8299628
_publ_section_title
;
Structure prediction by ZEFSAII (Michael W. Deem and Ramdas Pophale) SiO2 
 PCOD8299628
Probable space group: I M M A
;
_chemical_formula_sum "Si O2"
_cell_formula_units_Z 56
_cell_length_a 13.721257
_cell_length_b 25.098161
_cell_length_c 8.817386
_cell_angle_alpha 90.000000
_cell_angle_beta 90.000000
_cell_angle_gamma 90.000000
_cell_volume 3036.516554
_symmetry_space_group_name_H-M "I M M A"
_symmetry_group_IT_number 74
_symmetry_cell_setting 'orthorhombic'
loop_
_space_group_symop_operation_xyz
x,y,z
-x,1/2-y,z
x,-y,-z
-x,1/2+y,-z
-x,-y,-z
x,1/2+y,-z
-x,y,z
x,1/2-y,z
1/2+x,1/2+y,1/2+z
1/2-x,-y,1/2+z
1/2+x,1/2-y,1/2-z
1/2-x,y,1/2-z
1/2-x,1/2-y,1/2-z
1/2+x,y,1/2-z
1/2-x,1/2+y,1/2+z
1/2+x,-y,1/2+z
loop_
_atom_site_type_symbol
_atom_site_label
_atom_site_fract_x
_atom_site_fract_y
_atom_site_fract_z
Si Si1 0.610148 0.154553 0.176725
Si Si2 0.250000 0.378490 0.750000
Si Si3 0.703723 0.310419 0.474580
Si Si4 0.388510 0.558836 0.032676
O O1 0.500000 0.175162 0.150974
O O2 0.637674 0.157853 0.353536
O O3 0.683291 0.191221 0.079124
O O4 0.621459 0.093519 0.121070
O O5 0.307775 0.340725 0.633070
O O6 0.328349 0.415449 0.831399
O O7 0.666248 0.250000 0.492065
O O8 0.500000 0.555706 0.087528
O O9 0.347142 0.500000 0.000000
#
# Coordination Sequence:
#
# PCOD8299628 Si02
#       4
#    16   8  16  16
#     4   9  18  33  52  74 100 132 171 207 243 296
#     4  10  21  34  52  76 104 132 165 208 256 302
#     4  10  20  33  50  74 103 134 168 207 250 296
#     4   9  19  36  55  75 102 134 167 207 253 299
#
# _framework density 18.442184000000001
#
# number of rings (size 3 to 8) (size 9 to 14) (size 15 to 20)
#    0.000    2.571    0.000    2.143    0.000    8.000 
#    0.000    0.000    0.000   11.143    0.000    0.000 
#    0.000    0.000    0.000    0.000    0.000    0.000 
#
# Total GULP energy -347185.517663 kJ/mol
# GULP energy per Si atom -12399.482774 kJ/mol
# Density = 1.840021 g / cm^3
# Si number density = 18.442184 Si / 1000 Ang^3
#
#
#
# Elastic Constant Matrix: (Units=GPa)
#
#
# Indices 1 2 3 4 5 6 
#
# 1 82.9461 38.2655 36.7595 -0.0020 -0.0002 0.0002
# 2 38.2655 141.6889 73.9009 -0.0032 0.0000 0.0001
# 3 36.7595 73.9009 134.1453 -0.0137 -0.0030 0.0008
# 4 -0.0020 -0.0032 -0.0137 22.4786 -0.0008 0.0007
# 5 -0.0002 0.0000 -0.0030 -0.0008 22.6710 0.0005
# 6 0.0002 0.0001 0.0008 0.0007 0.0005 23.0977
#
#
#
# Elastic Compliance Matrix: (Units=1/GPa)
#
#
# Indices 1 2 3 4 5 6 
#
# 1 0.014356 -0.002561 -0.002523 -0.000001 0.000000 0.000000
# 2 -0.002561 0.010360 -0.005006 -0.000002 -0.000001 0.000000
# 3 -0.002523 -0.005006 0.010904 0.000006 0.000001 0.000000
# 4 -0.000001 -0.000002 0.000006 0.044487 0.000002 -0.000001
# 5 0.000000 -0.000001 0.000001 0.000002 0.044109 -0.000001
# 6 0.000000 0.000000 0.000000 -0.000001 -0.000001 0.043294
#
#
# Mechanical properties :
#
#
# Convention : Reuss Voigt Hill
#
# Bulk Modulus (GPa) = 64.76654 72.95911 68.86282
# Shear Modulus (GPa) = 25.92880 27.63974 26.78427
#
# Velocity S-wave (km/s) = 3.75367 3.87554 3.81509
# Velocity P-wave (km/s) = 7.34722 7.72485 7.53840
#
# Compressibility (1/GPa) = 0.01544007
#
# Stress axis : x y z
#
# Youngs Moduli (GPa) = 69.65908 96.52352 91.71315
#
# Poissons Ratio (x) = 0.24721 0.23139
# Poissons Ratio (y) = 0.17840 0.45908
# Poissons Ratio (z) = 0.17575 0.48316
#
# Static dielectric constant tensor:
#      x y z
#    x 3.400680 0.000000 0.000000 
#    y 0.000000 3.442710 -0.000010 
#    z 0.000000 -0.000010 3.349190 
# 
# 
# High freq. dielectric constant tensor:
#      x y z
#    x 1.708660 0.000000 0.000000 
#    y 0.000000 1.717600 0.000000 
#    z 0.000000 0.000000 1.708540 
# 
# From -- ./inp_files/8448.got.cif
#   From: 2010.03.12/outbox.cif.g09.slc.cpg/sg74_5_cif.got.tgz:8448.got - 2010.04.16 15:46:19.
