data_PCOD8299077
_publ_section_title
;
Structure prediction by ZEFSAII (Michael W. Deem and Ramdas Pophale) SiO2 
 PCOD8299077
Probable space group: I M M A
;
_chemical_formula_sum "Si O2"
_cell_formula_units_Z 104
_cell_length_a 27.885008
_cell_length_b 8.712003
_cell_length_c 23.112593
_cell_angle_alpha 90.000000
_cell_angle_beta 90.000000
_cell_angle_gamma 90.000000
_cell_volume 5614.840986
_symmetry_space_group_name_H-M "I M M A"
_symmetry_group_IT_number 74
_symmetry_cell_setting 'orthorhombic'
loop_
_space_group_symop_operation_xyz
x,y,z
-x,1/2-y,z
x,-y,-z
-x,1/2+y,-z
-x,-y,-z
x,1/2+y,-z
-x,y,z
x,1/2-y,z
1/2+x,1/2+y,1/2+z
1/2-x,-y,1/2+z
1/2+x,1/2-y,1/2-z
1/2-x,y,1/2-z
1/2-x,1/2-y,1/2-z
1/2+x,y,1/2-z
1/2-x,1/2+y,1/2+z
1/2+x,-y,1/2+z
loop_
_atom_site_type_symbol
_atom_site_label
_atom_site_fract_x
_atom_site_fract_y
_atom_site_fract_z
Si Si1 0.000000 0.924696 0.938887
Si Si2 0.304405 0.932464 0.756225
Si Si3 0.183012 0.070245 0.861067
Si Si4 0.145249 0.928206 0.629011
Si Si5 0.262133 0.428155 0.061613
Si Si6 0.897533 0.430839 0.063517
Si Si7 0.053957 0.568269 0.562595
O O1 0.050122 0.960578 0.905830
O O2 0.000000 0.750000 0.956310
O O3 0.000000 0.000000 0.000000
O O4 0.303626 0.750000 0.760112
O O5 0.250000 0.996079 0.750000
O O6 0.332939 0.001941 0.811959
O O7 0.331325 0.989710 0.699113
O O8 0.188846 0.250000 0.852040
O O9 0.232224 0.003937 0.886792
O O10 0.140265 0.032918 0.903626
O O11 0.138533 0.750000 0.641661
O O12 0.182139 0.955701 0.576201
O O13 0.093373 0.995918 0.608926
O O14 0.248768 0.250000 0.059442
O O15 0.248962 0.500000 0.000000
O O16 0.883707 0.250000 0.063360
O O17 0.898797 0.500000 0.000000
O O18 0.065412 0.500000 0.500000
O O19 0.058875 0.750000 0.557114
O O20 0.000000 0.521596 0.582856
#
# Coordination Sequence:
#
# PCOD8299077 Si02
#       7
#     8  16  16  16  16  16  16
#     4   8  16  30  52  78 102 130 168 208 251 304
#     4  10  19  37  59  75  96 137 181 222 267 314
#     4  12  24  36  51  76 106 139 177 219 264 314
#     4   9  18  33  55  78 103 138 179 216 262 318
#     4  11  21  35  52  76 107 140 174 214 263 316
#     4  10  19  34  55  80 108 138 172 214 263 316
#     4   9  17  31  53  82 113 141 172 214 264 321
#
# _framework density 18.522341000000001
#
# number of rings (size 3 to 8) (size 9 to 14) (size 15 to 20)
#    0.000    2.000    1.538    3.231    0.000    0.923 
#    0.000    1.538    1.692    0.000    0.000    0.000 
#    0.000    0.000    0.000    0.000    0.000    0.000 
#
# Total GULP energy -644392.205309 kJ/mol
# GULP energy per Si atom -12392.157794 kJ/mol
# Density = 1.848018 g / cm^3
# Si number density = 18.522341 Si / 1000 Ang^3
#
#
#
# Elastic Constant Matrix: (Units=GPa)
#
#
# Indices 1 2 3 4 5 6 
#
# 1 133.3765 15.2496 49.8483 0.0000 0.0000 0.0000
# 2 15.2496 20.6566 10.8843 0.0000 0.0000 0.0000
# 3 49.8483 10.8843 104.5898 0.0000 0.0000 0.0000
# 4 0.0000 0.0000 0.0000 24.3560 0.0000 0.0000
# 5 0.0000 0.0000 0.0000 0.0000 14.7152 0.0000
# 6 0.0000 0.0000 0.0000 0.0000 0.0000 13.4456
#
#
#
# Elastic Compliance Matrix: (Units=1/GPa)
#
#
# Indices 1 2 3 4 5 6 
#
# 1 0.009576 -0.004935 -0.004050 0.000000 0.000000 0.000000
# 2 -0.004935 0.053763 -0.003243 0.000000 0.000000 0.000000
# 3 -0.004050 -0.003243 0.011829 0.000000 0.000000 0.000000
# 4 0.000000 0.000000 0.000000 0.041058 0.000000 0.000000
# 5 0.000000 0.000000 0.000000 0.000000 0.067957 0.000000
# 6 0.000000 0.000000 0.000000 0.000000 0.000000 0.074374
#
#
# Mechanical properties :
#
#
# Convention : Reuss Voigt Hill
#
# Bulk Modulus (GPa) = 19.71952 45.62081 32.67016
# Shear Modulus (GPa) = 16.67137 22.67941 19.67539
#
# Velocity S-wave (km/s) = 3.00337 3.50299 3.26276
# Velocity P-wave (km/s) = 4.76408 6.40663 5.64541
#
# Compressibility (1/GPa) = 0.05071117
#
# Stress axis : x y z
#
# Youngs Moduli (GPa) = 104.43267 18.60025 84.53808
#
# Poissons Ratio (x) = 0.09179 0.34240
# Poissons Ratio (y) = 0.51537 0.27414
# Poissons Ratio (z) = 0.42297 0.06032
#
# Static dielectric constant tensor:
#      x y z
#    x 3.910170 0.000000 0.000000 
#    y 0.000000 3.240800 0.000000 
#    z 0.000000 0.000000 3.319210 
# 
# 
# High freq. dielectric constant tensor:
#      x y z
#    x 1.728620 0.000000 0.000000 
#    y 0.000000 1.704330 0.000000 
#    z 0.000000 0.000000 1.701830 
# 
# From -- ./inp_files/62681.got.cif
#   From: 2010.03.12/outbox.cif.g09.slc.cpg/sg74_32_cif.got.tgz:62681.got - 2010.04.16 15:46:19.
