data_PCOD8299350
_publ_section_title
;
Structure prediction by ZEFSAII (Michael W. Deem and Ramdas Pophale) SiO2 
 PCOD8299350
Probable space group: I M M A
;
_chemical_formula_sum "Si O2"
_cell_formula_units_Z 88
_cell_length_a 10.504276
_cell_length_b 17.649521
_cell_length_c 22.399456
_cell_angle_alpha 90.000000
_cell_angle_beta 90.000000
_cell_angle_gamma 90.000000
_cell_volume 4152.756998
_symmetry_space_group_name_H-M "I M M A"
_symmetry_group_IT_number 74
_symmetry_cell_setting 'orthorhombic'
loop_
_space_group_symop_operation_xyz
x,y,z
-x,1/2-y,z
x,-y,-z
-x,1/2+y,-z
-x,-y,-z
x,1/2+y,-z
-x,y,z
x,1/2-y,z
1/2+x,1/2+y,1/2+z
1/2-x,-y,1/2+z
1/2+x,1/2-y,1/2-z
1/2-x,y,1/2-z
1/2-x,1/2-y,1/2-z
1/2+x,y,1/2-z
1/2-x,1/2+y,1/2+z
1/2+x,-y,1/2+z
loop_
_atom_site_type_symbol
_atom_site_label
_atom_site_fract_x
_atom_site_fract_y
_atom_site_fract_z
Si Si1 0.849107 0.468362 0.302716
Si Si2 0.725930 0.411066 0.006537
Si Si3 0.138122 0.750000 0.297181
Si Si4 0.500000 0.910942 0.505931
Si Si5 0.000000 0.840373 0.122802
Si Si6 0.142904 0.667489 0.618355
Si Si7 0.273626 0.886308 0.130094
O O1 0.750000 0.486093 0.250000
O O2 0.799794 0.390289 0.332873
O O3 0.829054 0.532439 0.352569
O O4 0.000000 0.466467 0.283674
O O5 0.865405 0.392949 0.037272
O O6 0.715795 0.374510 0.941069
O O7 0.696593 0.500000 0.000000
O O8 0.633646 0.369419 0.052269
O O9 0.250000 0.750000 0.250000
O O10 0.141223 0.823310 0.338772
O O11 0.000000 0.750000 0.264093
O O12 0.500000 0.865838 0.444886
O O13 0.500000 0.000000 0.500000
O O14 0.872767 0.875232 0.152867
O O15 0.000000 0.750000 0.127768
O O16 0.213669 0.750000 0.618755
O O17 0.000000 0.681335 0.638493
#
# Coordination Sequence:
#
# PCOD8299350 Si02
#       7
#    16  16   8   8   8  16  16
#     4  11  25  46  69  97 127 170 224 275 329 392
#     4  10  19  38  63  97 131 169 204 262 323 389
#     4  12  28  44  64  92 132 174 223 272 316 379
#     4   8  18  32  56  90 130 166 206 250 305 378
#     4  10  20  36  62  92 126 178 216 255 328 386
#     4  10  23  42  66  97 133 169 211 266 334 400
#     4  11  23  40  66  96 132 170 221 271 322 390
#
# _framework density 21.190742
#
# number of rings (size 3 to 8) (size 9 to 14) (size 15 to 20)
#    0.000    1.636    2.727    1.091    3.818    2.909 
#    1.636    0.000    0.000    0.000    0.000    0.000 
#    0.000    0.000    0.000    0.000    0.000    0.000 
#
# Total GULP energy -545101.115504 kJ/mol
# GULP energy per Si atom -12388.661716 kJ/mol
# Density = 2.114251 g / cm^3
# Si number density = 21.190742 Si / 1000 Ang^3
#
#
#
# Elastic Constant Matrix: (Units=GPa)
#
#
# Indices 1 2 3 4 5 6 
#
# 1 102.3389 20.7968 20.9061 0.0000 0.0000 0.0000
# 2 20.7968 124.3697 13.9016 0.0000 0.0000 0.0000
# 3 20.9061 13.9016 61.0317 0.0000 0.0000 0.0000
# 4 0.0000 0.0000 0.0000 24.1667 0.0000 0.0000
# 5 0.0000 0.0000 0.0000 0.0000 24.1943 0.0000
# 6 0.0000 0.0000 0.0000 0.0000 0.0000 9.0981
#
#
#
# Elastic Compliance Matrix: (Units=1/GPa)
#
#
# Indices 1 2 3 4 5 6 
#
# 1 0.010746 -0.001422 -0.003357 0.000000 0.000000 0.000000
# 2 -0.001422 0.008439 -0.001435 0.000000 0.000000 0.000000
# 3 -0.003357 -0.001435 0.017862 0.000000 0.000000 0.000000
# 4 0.000000 0.000000 0.000000 0.041379 0.000000 0.000000
# 5 0.000000 0.000000 0.000000 0.000000 0.041332 0.000000
# 6 0.000000 0.000000 0.000000 0.000000 0.000000 0.109913
#
#
# Mechanical properties :
#
#
# Convention : Reuss Voigt Hill
#
# Bulk Modulus (GPa) = 40.61971 44.32768 42.47369
# Shear Modulus (GPa) = 19.97564 26.96755 23.47160
#
# Velocity S-wave (km/s) = 3.07361 3.57124 3.33172
# Velocity P-wave (km/s) = 5.63971 6.16188 5.90657
#
# Compressibility (1/GPa) = 0.02461859
#
# Stress axis : x y z
#
# Youngs Moduli (GPa) = 93.05621 118.50177 55.98530
#
# Poissons Ratio (x) = 0.16847 0.18796
# Poissons Ratio (y) = 0.13230 0.08035
# Poissons Ratio (z) = 0.31241 0.17007
#
# Static dielectric constant tensor:
#      x y z
#    x 4.330640 0.000000 0.000000 
#    y 0.000000 4.185130 0.000000 
#    z 0.000000 0.000000 3.545090 
# 
# 
# High freq. dielectric constant tensor:
#      x y z
#    x 1.834480 0.000000 0.000000 
#    y 0.000000 1.839480 0.000000 
#    z 0.000000 0.000000 1.807260 
# 
# From -- ./inp_files/50568.got.cif
#   From: 2010.03.12/outbox.cif.g09.slc.cpg/sg74_26_cif.got.tgz:50568.got - 2010.04.16 15:46:19.
