data_PCOD8299512
_publ_section_title
;
Structure prediction by ZEFSAII (Michael W. Deem and Ramdas Pophale) SiO2 
 PCOD8299512
Probable space group: I M M A
;
_chemical_formula_sum "Si O2"
_cell_formula_units_Z 88
_cell_length_a 22.483651
_cell_length_b 8.720532
_cell_length_c 24.327772
_cell_angle_alpha 90.000000
_cell_angle_beta 90.000000
_cell_angle_gamma 90.000000
_cell_volume 4769.931611
_symmetry_space_group_name_H-M "I M M A"
_symmetry_group_IT_number 74
_symmetry_cell_setting 'orthorhombic'
loop_
_space_group_symop_operation_xyz
x,y,z
-x,1/2-y,z
x,-y,-z
-x,1/2+y,-z
-x,-y,-z
x,1/2+y,-z
-x,y,z
x,1/2-y,z
1/2+x,1/2+y,1/2+z
1/2-x,-y,1/2+z
1/2+x,1/2-y,1/2-z
1/2-x,y,1/2-z
1/2-x,1/2-y,1/2-z
1/2+x,y,1/2-z
1/2-x,1/2+y,1/2+z
1/2+x,-y,1/2+z
loop_
_atom_site_type_symbol
_atom_site_label
_atom_site_fract_x
_atom_site_fract_y
_atom_site_fract_z
Si Si1 0.500000 0.430801 0.440113
Si Si2 0.889066 0.429664 0.131455
Si Si3 0.931586 0.071574 0.760757
Si Si4 0.430371 0.073183 0.146774
Si Si5 0.152754 0.569465 0.441581
Si Si6 0.777683 0.930224 0.941974
O O1 0.500000 0.250000 0.446268
O O2 0.500000 0.500000 0.500000
O O3 0.558183 0.488589 0.407873
O O4 0.896187 0.250000 0.143367
O O5 0.890844 0.519629 0.188704
O O6 0.826656 0.470156 0.103449
O O7 0.922421 0.250000 0.748870
O O8 0.000000 0.032434 0.774847
O O9 0.910440 0.978710 0.707343
O O10 0.500000 0.043792 0.138568
O O11 0.413212 0.250000 0.138568
O O12 0.397237 0.970613 0.102311
O O13 0.133731 0.500000 0.500000
O O14 0.158649 0.750000 0.447858
O O15 0.215755 0.501766 0.421790
O O16 0.769782 0.750000 0.949806
O O17 0.798183 0.000000 0.000000
#
# Coordination Sequence:
#
# PCOD8299512 Si02
#       6
#     8  16  16  16  16  16
#     4  10  20  32  48  74 108 142 183 232 281 324
#     4  10  20  34  53  76 107 147 188 230 276 328
#     4  10  20  34  54  81 111 145 184 227 274 326
#     4  10  21  38  61  86 113 144 177 219 271 327
#     4  11  22  38  60  84 113 146 180 222 269 325
#     4  10  20  35  55  79 108 146 188 229 276 329
#
# _framework density 18.448902
#
# number of rings (size 3 to 8) (size 9 to 14) (size 15 to 20)
#    0.000    1.818    0.909    4.909    0.000    4.364 
#    0.000    0.909    0.000    5.455    0.000    0.000 
#    0.000    0.000    0.000    0.000    0.000    0.000 
#
# Total GULP energy -545821.666892 kJ/mol
# GULP energy per Si atom -12405.037884 kJ/mol
# Density = 1.840691 g / cm^3
# Si number density = 18.448902 Si / 1000 Ang^3
#
#
#
# Elastic Constant Matrix: (Units=GPa)
#
#
# Indices 1 2 3 4 5 6 
#
# 1 80.0695 44.7098 66.9459 0.0000 0.0000 0.0000
# 2 44.7098 92.3226 46.7233 0.0000 0.0000 0.0000
# 3 66.9459 46.7233 124.8618 0.0000 0.0000 0.0000
# 4 0.0000 0.0000 0.0000 37.9990 0.0000 0.0000
# 5 0.0000 0.0000 0.0000 0.0000 31.4620 0.0000
# 6 0.0000 0.0000 0.0000 0.0000 0.0000 25.5908
#
#
#
# Elastic Compliance Matrix: (Units=1/GPa)
#
#
# Indices 1 2 3 4 5 6 
#
# 1 0.025633 -0.006733 -0.011224 0.000000 0.000000 0.000000
# 2 -0.006733 0.015131 -0.002052 0.000000 0.000000 0.000000
# 3 -0.011224 -0.002052 0.014794 0.000000 0.000000 0.000000
# 4 0.000000 0.000000 0.000000 0.026316 0.000000 0.000000
# 5 0.000000 0.000000 0.000000 0.000000 0.031784 0.000000
# 6 0.000000 0.000000 0.000000 0.000000 0.000000 0.039077
#
#
# Mechanical properties :
#
#
# Convention : Reuss Voigt Hill
#
# Bulk Modulus (GPa) = 64.34845 68.22356 66.28600
# Shear Modulus (GPa) = 25.26093 28.26868 26.76480
#
# Velocity S-wave (km/s) = 3.70434 3.91867 3.81301
# Velocity P-wave (km/s) = 7.29734 7.58516 7.44264
#
# Compressibility (1/GPa) = 0.01554039
#
# Stress axis : x y z
#
# Youngs Moduli (GPa) = 39.01186 66.09039 67.59296
#
# Poissons Ratio (x) = 0.44501 0.75866
# Poissons Ratio (y) = 0.26268 0.13869
# Poissons Ratio (z) = 0.43786 0.13560
#
# Static dielectric constant tensor:
#      x y z
#    x 3.342600 0.000000 0.000000 
#    y 0.000000 3.436600 0.000000 
#    z 0.000000 0.000000 3.366630 
# 
# 
# High freq. dielectric constant tensor:
#      x y z
#    x 1.706220 0.000000 0.000000 
#    y 0.000000 1.726760 0.000000 
#    z 0.000000 0.000000 1.719290 
# 
# From -- ./inp_files/48770.got.cif
#   From: 2010.03.12/outbox.cif.g09.slc.cpg/sg74_25_cif.got.tgz:48770.got - 2010.04.16 15:46:19.
