data_PCOD8299203
_publ_section_title
;
Structure prediction by ZEFSAII (Michael W. Deem and Ramdas Pophale) SiO2 
 PCOD8299203
Probable space group: I M M A
;
_chemical_formula_sum "Si O2"
_cell_formula_units_Z 72
_cell_length_a 9.218633
_cell_length_b 14.349651
_cell_length_c 29.012564
_cell_angle_alpha 90.000000
_cell_angle_beta 90.000000
_cell_angle_gamma 90.000000
_cell_volume 3837.902839
_symmetry_space_group_name_H-M "I M M A"
_symmetry_group_IT_number 74
_symmetry_cell_setting 'orthorhombic'
loop_
_space_group_symop_operation_xyz
x,y,z
-x,1/2-y,z
x,-y,-z
-x,1/2+y,-z
-x,-y,-z
x,1/2+y,-z
-x,y,z
x,1/2-y,z
1/2+x,1/2+y,1/2+z
1/2-x,-y,1/2+z
1/2+x,1/2-y,1/2-z
1/2-x,y,1/2-z
1/2-x,1/2-y,1/2-z
1/2+x,y,1/2-z
1/2-x,1/2+y,1/2+z
1/2+x,-y,1/2+z
loop_
_atom_site_type_symbol
_atom_site_label
_atom_site_fract_x
_atom_site_fract_y
_atom_site_fract_z
Si Si1 0.168853 0.250000 0.299199
Si Si2 0.172690 0.250000 0.057040
Si Si3 0.671967 0.415023 0.613173
Si Si4 0.829708 0.750000 0.049513
Si Si5 0.654319 0.356764 0.711363
Si Si6 0.672083 0.390317 0.120527
O O1 0.250000 0.250000 0.250000
O O2 0.209118 0.158674 0.330171
O O3 0.000000 0.250000 0.287216
O O4 0.244442 0.159836 0.079225
O O5 0.000000 0.250000 0.064618
O O6 0.214392 0.250000 0.003434
O O7 0.500000 0.438418 0.608362
O O8 0.727756 0.345976 0.572751
O O9 0.713665 0.361555 0.659916
O O10 0.769482 0.506084 0.616443
O O11 0.000000 0.750000 0.058162
O O12 0.500000 0.408738 0.713317
O O13 0.636336 0.250000 0.725816
O O14 0.750000 0.408777 0.750000
O O15 0.500000 0.386033 0.111900
#
# Coordination Sequence:
#
# PCOD8299203 Si02
#       6
#     8   8  16   8  16  16
#     4   9  20  38  59  80 108 143 180 223 270 317
#     4  10  20  38  62  83 102 138 186 230 278 330
#     4  10  19  35  57  81 109 146 188 229 271 322
#     4   9  19  36  59  83 109 139 185 239 273 311
#     4   9  17  30  49  72 103 142 180 219 263 311
#     4  10  22  39  56  81 117 147 174 223 280 332
#
# _framework density 18.760245000000001
#
# number of rings (size 3 to 8) (size 9 to 14) (size 15 to 20)
#    0.000    2.444    1.111    1.667    0.000    5.333 
#    0.000   11.667    0.000    0.000    0.000    0.000 
#    0.000    0.000    0.000    0.000    0.000    0.000 
#
# Total GULP energy -446013.754245 kJ/mol
# GULP energy per Si atom -12389.270951 kJ/mol
# Density = 1.871755 g / cm^3
# Si number density = 18.760245 Si / 1000 Ang^3
#
#
#
# Elastic Constant Matrix: (Units=GPa)
#
#
# Indices 1 2 3 4 5 6 
#
# 1 84.7873 50.6594 73.3743 0.0000 0.0000 0.0000
# 2 50.6594 106.2001 57.6126 0.0000 0.0000 0.0000
# 3 73.3743 57.6126 168.1526 0.0000 0.0000 0.0000
# 4 0.0000 0.0000 0.0000 1.7235 0.0000 0.0000
# 5 0.0000 0.0000 0.0000 0.0000 28.1615 0.0000
# 6 0.0000 0.0000 0.0000 0.0000 0.0000 11.8817
#
#
#
# Elastic Compliance Matrix: (Units=1/GPa)
#
#
# Indices 1 2 3 4 5 6 
#
# 1 0.022106 -0.006525 -0.007410 0.000000 0.000000 0.000000
# 2 -0.006525 0.013492 -0.001775 0.000000 0.000000 0.000000
# 3 -0.007410 -0.001775 0.009789 0.000000 0.000000 0.000000
# 4 0.000000 0.000000 0.000000 0.580229 0.000000 0.000000
# 5 0.000000 0.000000 0.000000 0.000000 0.035510 0.000000
# 6 0.000000 0.000000 0.000000 0.000000 0.000000 0.084163
#
#
# Mechanical properties :
#
#
# Convention : Reuss Voigt Hill
#
# Bulk Modulus (GPa) = 71.60720 80.27029 75.93874
# Shear Modulus (GPa) = 6.39906 20.18622 13.29264
#
# Velocity S-wave (km/s) = 1.84888 3.28382 2.66475
# Velocity P-wave (km/s) = 6.54296 7.56692 7.07349
#
# Compressibility (1/GPa) = 0.01396508
#
# Stress axis : x y z
#
# Youngs Moduli (GPa) = 45.23753 74.11929 102.15692
#
# Poissons Ratio (x) = 0.48360 0.75702
# Poissons Ratio (y) = 0.29516 0.18138
# Poissons Ratio (z) = 0.33523 0.13160
#
# Static dielectric constant tensor:
#      x y z
#    x 3.657300 0.000000 0.000000 
#    y 0.000000 3.468130 0.000000 
#    z 0.000000 0.000000 3.555910 
# 
# 
# High freq. dielectric constant tensor:
#      x y z
#    x 1.718170 0.000000 0.000000 
#    y 0.000000 1.720360 0.000000 
#    z 0.000000 0.000000 1.735040 
# 
# From -- ./inp_files/63707.got.cif
#   From: 2010.03.12/outbox.cif.g09.slc.cpg/sg74_32_cif.got.tgz:63707.got - 2010.04.16 15:46:19.
