data_PCOD8299752
_publ_section_title
;
Structure prediction by ZEFSAII (Michael W. Deem and Ramdas Pophale) SiO2 
 PCOD8299752
Probable space group: I M M A
;
_chemical_formula_sum "Si O2"
_cell_formula_units_Z 88
_cell_length_a 9.282893
_cell_length_b 19.623506
_cell_length_c 29.674744
_cell_angle_alpha 90.000000
_cell_angle_beta 90.000000
_cell_angle_gamma 90.000000
_cell_volume 5405.637616
_symmetry_space_group_name_H-M "I M M A"
_symmetry_group_IT_number 74
_symmetry_cell_setting 'orthorhombic'
loop_
_space_group_symop_operation_xyz
x,y,z
-x,1/2-y,z
x,-y,-z
-x,1/2+y,-z
-x,-y,-z
x,1/2+y,-z
-x,y,z
x,1/2-y,z
1/2+x,1/2+y,1/2+z
1/2-x,-y,1/2+z
1/2+x,1/2-y,1/2-z
1/2-x,y,1/2-z
1/2-x,1/2-y,1/2-z
1/2+x,y,1/2-z
1/2-x,1/2+y,1/2+z
1/2+x,-y,1/2+z
loop_
_atom_site_type_symbol
_atom_site_label
_atom_site_fract_x
_atom_site_fract_y
_atom_site_fract_z
Si Si1 0.837483 0.325176 0.475453
Si Si2 0.831453 0.543266 0.957665
Si Si3 0.338110 0.750000 0.205159
Si Si4 0.332144 0.944317 0.377478
Si Si5 0.339352 0.826472 0.082204
Si Si6 0.667921 0.399390 0.797146
O O1 0.788784 0.250000 0.458277
O O2 0.736724 0.382312 0.453918
O O3 0.828187 0.326063 0.528857
O O4 0.000000 0.340055 0.459636
O O5 0.795048 0.505916 0.910934
O O6 0.000000 0.552710 0.964980
O O7 0.768006 0.500000 0.000000
O O8 0.500000 0.750000 0.222641
O O9 0.250000 0.750000 0.250000
O O10 0.310316 0.822881 0.180143
O O11 0.500000 0.941692 0.365479
O O12 0.288095 0.873989 0.400844
O O13 0.240014 0.953028 0.331562
O O14 0.500000 0.852481 0.096870
O O15 0.317430 0.750000 0.101532
O O16 0.500000 0.416765 0.790043
O O17 0.750000 0.404451 0.750000
#
# Coordination Sequence:
#
# PCOD8299752 Si02
#       6
#    16  16   8  16  16  16
#     4   9  18  32  50  71  94 124 164 206 245 287
#     4  10  20  34  48  68 100 132 164 201 240 286
#     4   8  16  30  48  66  86 116 152 196 242 284
#     4  11  22  33  47  69  95 127 165 203 244 288
#     4   9  18  31  45  64  92 125 163 204 244 287
#     4  10  20  35  51  68  92 122 159 202 248 291
#
# _framework density 16.279301
#
# number of rings (size 3 to 8) (size 9 to 14) (size 15 to 20)
#    0.000    2.364    1.818    2.182    1.273    3.273 
#    0.000    1.818    0.000    0.000    0.000    0.000 
#    0.000    0.727    0.000    2.364    0.000    3.455 
#
# Total GULP energy -545342.953682 kJ/mol
# GULP energy per Si atom -12394.158038 kJ/mol
# Density = 1.624225 g / cm^3
# Si number density = 16.279301 Si / 1000 Ang^3
#
#
#
# Elastic Constant Matrix: (Units=GPa)
#
#
# Indices 1 2 3 4 5 6 
#
# 1 77.0013 47.4914 45.3867 0.0000 0.0000 0.0000
# 2 47.4914 94.6681 41.8948 0.0000 0.0000 0.0000
# 3 45.3867 41.8948 60.7642 0.0000 0.0000 0.0000
# 4 0.0000 0.0000 0.0000 24.2736 0.0000 0.0000
# 5 0.0000 0.0000 0.0000 0.0000 27.0535 0.0000
# 6 0.0000 0.0000 0.0000 0.0000 0.0000 24.7814
#
#
#
# Elastic Compliance Matrix: (Units=1/GPa)
#
#
# Indices 1 2 3 4 5 6 
#
# 1 0.025568 -0.006296 -0.014757 0.000000 0.000000 0.000000
# 2 -0.006296 0.016752 -0.006847 0.000000 0.000000 0.000000
# 3 -0.014757 -0.006847 0.032200 0.000000 0.000000 0.000000
# 4 0.000000 0.000000 0.000000 0.041197 0.000000 0.000000
# 5 0.000000 0.000000 0.000000 0.000000 0.036964 0.000000
# 6 0.000000 0.000000 0.000000 0.000000 0.000000 0.040353
#
#
# Mechanical properties :
#
#
# Convention : Reuss Voigt Hill
#
# Bulk Modulus (GPa) = 53.41775 55.77549 54.59662
# Shear Modulus (GPa) = 19.60222 21.73240 20.66731
#
# Velocity S-wave (km/s) = 3.47381 3.65769 3.56693
# Velocity P-wave (km/s) = 6.99816 7.22317 7.11156
#
# Compressibility (1/GPa) = 0.01872037
#
# Stress axis : x y z
#
# Youngs Moduli (GPa) = 39.11163 59.69498 31.05576
#
# Poissons Ratio (x) = 0.37584 0.45828
# Poissons Ratio (y) = 0.24625 0.21264
# Poissons Ratio (z) = 0.57716 0.40874
#
# Static dielectric constant tensor:
#      x y z
#    x 3.114770 0.000000 0.000000 
#    y 0.000000 3.112660 0.000000 
#    z 0.000000 0.000000 2.982820 
# 
# 
# High freq. dielectric constant tensor:
#      x y z
#    x 1.632310 0.000000 0.000000 
#    y 0.000000 1.599540 0.000000 
#    z 0.000000 0.000000 1.610320 
# 
# From -- ./inp_files/70296.got.cif
#   From: 2010.03.12/outbox.cif.g09.slc.cpg/sg74_36_cif.got.tgz:70296.got - 2010.04.16 15:46:19.
