data_PCOD8299094
_publ_section_title
;
Structure prediction by ZEFSAII (Michael W. Deem and Ramdas Pophale) SiO2 
 PCOD8299094
Probable space group: I M M A
;
_chemical_formula_sum "Si O2"
_cell_formula_units_Z 104
_cell_length_a 17.882128
_cell_length_b 9.356808
_cell_length_c 33.789512
_cell_angle_alpha 90.000000
_cell_angle_beta 90.000000
_cell_angle_gamma 90.000000
_cell_volume 5653.648927
_symmetry_space_group_name_H-M "I M M A"
_symmetry_group_IT_number 74
_symmetry_cell_setting 'orthorhombic'
loop_
_space_group_symop_operation_xyz
x,y,z
-x,1/2-y,z
x,-y,-z
-x,1/2+y,-z
-x,-y,-z
x,1/2+y,-z
-x,y,z
x,1/2-y,z
1/2+x,1/2+y,1/2+z
1/2-x,-y,1/2+z
1/2+x,1/2-y,1/2-z
1/2-x,y,1/2-z
1/2-x,1/2-y,1/2-z
1/2+x,y,1/2-z
1/2-x,1/2+y,1/2+z
1/2+x,-y,1/2+z
loop_
_atom_site_type_symbol
_atom_site_label
_atom_site_fract_x
_atom_site_fract_y
_atom_site_fract_z
Si Si1 0.820850 0.581054 0.833686
Si Si2 0.585369 0.913806 0.104638
Si Si3 0.084182 0.580187 0.759270
Si Si4 0.500000 0.416000 0.540336
Si Si5 0.352810 0.083006 0.588113
Si Si6 0.350647 0.418789 0.176480
Si Si7 0.205768 0.082607 0.540594
O O1 0.829353 0.750000 0.839055
O O2 0.866737 0.524303 0.795869
O O3 0.854655 0.504912 0.871670
O O4 0.735186 0.535689 0.828053
O O5 0.500000 0.933397 0.090969
O O6 0.603589 0.750000 0.115593
O O7 0.637445 0.964431 0.068616
O O8 0.599788 0.008750 0.142952
O O9 0.084233 0.750000 0.758999
O O10 0.120598 0.523890 0.718691
O O11 0.000000 0.520328 0.763253
O O12 0.500000 0.250000 0.529784
O O13 0.500000 0.500000 0.500000
O O14 0.572699 0.459316 0.564978
O O15 0.349168 0.250000 0.598511
O O16 0.282566 0.036322 0.561566
O O17 0.361237 0.250000 0.172682
O O18 0.204638 0.250000 0.531271
O O19 0.196841 0.000000 0.500000
#
# Coordination Sequence:
#
# PCOD8299094 Si02
#       7
#    16  16  16   8  16  16  16
#     4  10  20  33  54  82 109 142 185 226 267 321
#     4  10  21  37  56  79 110 145 180 221 271 325
#     4   9  18  32  51  78 112 145 178 222 272 317
#     4  10  22  38  58  84 112 146 186 230 278 328
#     4  10  21  38  57  80 112 147 180 221 275 326
#     4  10  19  34  56  81 108 142 184 227 269 316
#     4  10  21  37  57  79 107 141 176 218 269 322
#
# _framework density 18.395201
#
# number of rings (size 3 to 8) (size 9 to 14) (size 15 to 20)
#    0.000    2.154    1.538    1.385    1.077    4.923 
#    0.000    0.769    0.000    2.769    0.000    0.000 
#    0.000    0.000    0.000    0.000    0.000    0.000 
#
# Total GULP energy -645004.463431 kJ/mol
# GULP energy per Si atom -12403.931989 kJ/mol
# Density = 1.835333 g / cm^3
# Si number density = 18.395201 Si / 1000 Ang^3
#
#
#
# Elastic Constant Matrix: (Units=GPa)
#
#
# Indices 1 2 3 4 5 6 
#
# 1 152.3131 32.4841 79.3308 0.0000 0.0000 0.0000
# 2 32.4841 31.8099 48.2840 0.0000 0.0000 0.0000
# 3 79.3308 48.2840 168.7002 0.0000 0.0000 0.0000
# 4 0.0000 0.0000 0.0000 30.7145 0.0000 0.0000
# 5 0.0000 0.0000 0.0000 0.0000 24.8256 0.0000
# 6 0.0000 0.0000 0.0000 0.0000 0.0000 18.8819
#
#
#
# Elastic Compliance Matrix: (Units=1/GPa)
#
#
# Indices 1 2 3 4 5 6 
#
# 1 0.009116 -0.004955 -0.002869 0.000000 0.000000 0.000000
# 2 -0.004955 0.058279 -0.014350 0.000000 0.000000 0.000000
# 3 -0.002869 -0.014350 0.011384 0.000000 0.000000 0.000000
# 4 0.000000 0.000000 0.000000 0.032558 0.000000 0.000000
# 5 0.000000 0.000000 0.000000 0.000000 0.040281 0.000000
# 6 0.000000 0.000000 0.000000 0.000000 0.000000 0.052961
#
#
# Mechanical properties :
#
#
# Convention : Reuss Voigt Hill
#
# Bulk Modulus (GPa) = 29.04346 74.78010 51.91178
# Shear Modulus (GPa) = 19.20102 27.73268 23.46685
#
# Velocity S-wave (km/s) = 3.23430 3.88700 3.57558
# Velocity P-wave (km/s) = 5.45624 7.80290 6.73260
#
# Compressibility (1/GPa) = 0.03443116
#
# Stress axis : x y z
#
# Youngs Moduli (GPa) = 109.69276 17.15898 87.84440
#
# Poissons Ratio (x) = 0.08503 0.25200
# Poissons Ratio (y) = 0.54355 1.26055
# Poissons Ratio (z) = 0.31468 0.24623
#
# Static dielectric constant tensor:
#      x y z
#    x -65.210080 0.000000 0.000000 
#    y 0.000000 3.128850 0.000000 
#    z 0.000000 0.000000 3.406370 
# 
# 
# High freq. dielectric constant tensor:
#      x y z
#    x 1.732150 0.000000 0.000000 
#    y 0.000000 1.687660 0.000000 
#    z 0.000000 0.000000 1.722500 
# 
# From -- ./inp_files/67784.got.cif
#   From: 2010.03.12/outbox.cif.g09.slc.cpg/sg74_34_cif.got.tgz:67784.got - 2010.04.16 15:46:19.
