data_PCOD8299212
_publ_section_title
;
Structure prediction by ZEFSAII (Michael W. Deem and Ramdas Pophale) SiO2 
 PCOD8299212
Probable space group: I M M A
;
_chemical_formula_sum "Si O2"
_cell_formula_units_Z 104
_cell_length_a 26.281132
_cell_length_b 8.706448
_cell_length_c 22.395557
_cell_angle_alpha 90.000000
_cell_angle_beta 90.000000
_cell_angle_gamma 90.000000
_cell_volume 5124.446298
_symmetry_space_group_name_H-M "I M M A"
_symmetry_group_IT_number 74
_symmetry_cell_setting 'orthorhombic'
loop_
_space_group_symop_operation_xyz
x,y,z
-x,1/2-y,z
x,-y,-z
-x,1/2+y,-z
-x,-y,-z
x,1/2+y,-z
-x,y,z
x,1/2-y,z
1/2+x,1/2+y,1/2+z
1/2-x,-y,1/2+z
1/2+x,1/2-y,1/2-z
1/2-x,y,1/2-z
1/2-x,1/2-y,1/2-z
1/2+x,y,1/2-z
1/2-x,1/2+y,1/2+z
1/2+x,-y,1/2+z
loop_
_atom_site_type_symbol
_atom_site_label
_atom_site_fract_x
_atom_site_fract_y
_atom_site_fract_z
Si Si1 0.294760 0.931823 0.321305
Si Si2 0.055331 0.073739 0.104502
Si Si3 0.000000 0.567307 0.434263
Si Si4 0.090498 0.067139 0.650458
Si Si5 0.839736 0.070763 0.060442
Si Si6 0.440597 0.417372 0.721872
Si Si7 0.314865 0.432115 0.199777
O O1 0.287131 0.750000 0.316743
O O2 0.319535 0.975913 0.383724
O O3 0.328479 0.990486 0.264462
O O4 0.240745 0.015885 0.319450
O O5 0.045055 0.250000 0.114503
O O6 0.098969 0.045876 0.055499
O O7 0.000000 0.997372 0.087166
O O8 0.079728 0.015683 0.166722
O O9 0.000000 0.500000 0.500000
O O10 0.948726 0.509276 0.400507
O O11 0.000000 0.750000 0.436518
O O12 0.095089 0.250000 0.647052
O O13 0.069205 0.007284 0.713867
O O14 0.146339 0.989396 0.647461
O O15 0.825259 0.250000 0.066459
O O16 0.815917 0.000000 0.000000
O O17 0.500000 0.398767 0.713387
O O18 0.413919 0.250000 0.718409
O O19 0.317158 0.250000 0.205939
#
# Coordination Sequence:
#
# PCOD8299212 Si02
#       7
#    16  16   8  16  16  16  16
#     4  11  22  40  63  88 118 154 195 240 298 359
#     4   9  19  34  51  76 112 149 186 230 278 327
#     4  10  22  40  60  82 118 162 205 250 297 356
#     4  10  19  35  57  83 115 154 196 238 290 352
#     4  11  23  39  58  81 113 153 197 240 286 339
#     4   9  16  28  49  77 107 141 182 226 274 326
#     4  11  22  37  61  93 123 149 186 242 303 358
#
# _framework density 20.294875000000001
#
# number of rings (size 3 to 8) (size 9 to 14) (size 15 to 20)
#    0.000    1.846    0.769    5.077    0.000    5.231 
#    0.000    0.769    0.000    1.846    0.000    0.000 
#    0.000    0.000    0.000    0.000    0.000    0.000 
#
# Total GULP energy -644425.487452 kJ/mol
# GULP energy per Si atom -12392.797836 kJ/mol
# Density = 2.024868 g / cm^3
# Si number density = 20.294875 Si / 1000 Ang^3
#
#
#
# Elastic Constant Matrix: (Units=GPa)
#
#
# Indices 1 2 3 4 5 6 
#
# 1 70.5682 32.6461 44.2199 0.0000 0.0000 0.0000
# 2 32.6461 73.8430 28.7929 0.0000 0.0000 0.0000
# 3 44.2199 28.7929 101.4578 0.0000 0.0000 0.0000
# 4 0.0000 0.0000 0.0000 32.3540 0.0000 0.0000
# 5 0.0000 0.0000 0.0000 0.0000 24.2266 0.0000
# 6 0.0000 0.0000 0.0000 0.0000 0.0000 24.4440
#
#
#
# Elastic Compliance Matrix: (Units=1/GPa)
#
#
# Indices 1 2 3 4 5 6 
#
# 1 0.022151 -0.006779 -0.007731 0.000000 0.000000 0.000000
# 2 -0.006779 0.017302 -0.001956 0.000000 0.000000 0.000000
# 3 -0.007731 -0.001956 0.013781 0.000000 0.000000 0.000000
# 4 0.000000 0.000000 0.000000 0.030908 0.000000 0.000000
# 5 0.000000 0.000000 0.000000 0.000000 0.041277 0.000000
# 6 0.000000 0.000000 0.000000 0.000000 0.000000 0.040910
#
#
# Mechanical properties :
#
#
# Convention : Reuss Voigt Hill
#
# Bulk Modulus (GPa) = 49.25284 50.79852 50.02568
# Shear Modulus (GPa) = 24.26885 25.55225 24.91055
#
# Velocity S-wave (km/s) = 3.46180 3.55216 3.50727
# Velocity P-wave (km/s) = 6.34823 6.47366 6.41126
#
# Compressibility (1/GPa) = 0.02030340
#
# Stress axis : x y z
#
# Youngs Moduli (GPa) = 45.14511 57.79808 72.56548
#
# Poissons Ratio (x) = 0.39179 0.56098
# Poissons Ratio (y) = 0.30602 0.14191
# Poissons Ratio (z) = 0.34900 0.11303
#
# Static dielectric constant tensor:
#      x y z
#    x 3.916800 0.000000 0.000000 
#    y 0.000000 3.715650 0.000000 
#    z 0.000000 0.000000 3.575300 
# 
# 
# High freq. dielectric constant tensor:
#      x y z
#    x 1.802360 0.000000 0.000000 
#    y 0.000000 1.786980 0.000000 
#    z 0.000000 0.000000 1.773840 
# 
# From -- ./inp_files/55280.got.cif
#   From: 2010.03.12/outbox.cif.g09.slc.cpg/sg74_28_cif.got.tgz:55280.got - 2010.04.16 15:46:19.
