data_PCOD8299553
_publ_section_title
;
Structure prediction by ZEFSAII (Michael W. Deem and Ramdas Pophale) SiO2 
 PCOD8299553
Probable space group: I M M A
;
_chemical_formula_sum "Si O2"
_cell_formula_units_Z 80
_cell_length_a 9.316477
_cell_length_b 18.298360
_cell_length_c 24.308164
_cell_angle_alpha 90.000000
_cell_angle_beta 90.000000
_cell_angle_gamma 90.000000
_cell_volume 4143.964645
_symmetry_space_group_name_H-M "I M M A"
_symmetry_group_IT_number 74
_symmetry_cell_setting 'orthorhombic'
loop_
_space_group_symop_operation_xyz
x,y,z
-x,1/2-y,z
x,-y,-z
-x,1/2+y,-z
-x,-y,-z
x,1/2+y,-z
-x,y,z
x,1/2-y,z
1/2+x,1/2+y,1/2+z
1/2-x,-y,1/2+z
1/2+x,1/2-y,1/2-z
1/2-x,y,1/2-z
1/2-x,1/2-y,1/2-z
1/2+x,y,1/2-z
1/2-x,1/2+y,1/2+z
1/2+x,-y,1/2+z
loop_
_atom_site_type_symbol
_atom_site_label
_atom_site_fract_x
_atom_site_fract_y
_atom_site_fract_z
Si Si1 0.339216 0.382877 0.985151
Si Si2 0.340058 0.250000 0.517108
Si Si3 0.662418 0.950206 0.125705
Si Si4 0.337597 0.750000 0.614051
Si Si5 0.832065 0.833020 0.193315
Si Si6 0.167344 0.109596 0.390611
O O1 0.500000 0.351209 0.989237
O O2 0.238115 0.320775 0.959499
O O3 0.331468 0.448632 0.941276
O O4 0.287499 0.404984 0.045937
O O5 0.500000 0.250000 0.540691
O O6 0.333472 0.250000 0.451387
O O7 0.500000 0.931672 0.145258
O O8 0.772338 0.892481 0.150821
O O9 0.702189 0.033995 0.141824
O O10 0.500000 0.750000 0.636760
O O11 0.257618 0.823342 0.635385
O O12 0.806155 0.750000 0.171512
O O13 0.750000 0.845133 0.250000
O O14 0.000000 0.847697 0.202642
O O15 0.000000 0.129382 0.385456
#
# Coordination Sequence:
#
# PCOD8299553 Si02
#       6
#    16   8  16   8  16  16
#     4   9  17  29  45  67  98 136 174 212 251 296
#     4   9  17  27  39  59  90 129 172 211 247 291
#     4  10  20  32  51  77 102 131 170 215 261 308
#     4   9  17  29  45  65  94 133 172 209 249 291
#     4  10  22  40  59  78 102 134 171 216 266 315
#     4   9  17  31  49  71 101 138 177 213 250 299
#
# _framework density 19.305185000000002
#
# number of rings (size 3 to 8) (size 9 to 14) (size 15 to 20)
#    0.000    2.600    0.000    1.800    1.400    7.600 
#    0.000    0.000    0.000    6.000    0.000    0.700 
#    0.000    0.000    0.000    0.000    0.000    0.000 
#
# Total GULP energy -495734.317411 kJ/mol
# GULP energy per Si atom -12393.357935 kJ/mol
# Density = 1.926125 g / cm^3
# Si number density = 19.305185 Si / 1000 Ang^3
#
#
#
# Elastic Constant Matrix: (Units=GPa)
#
#
# Indices 1 2 3 4 5 6 
#
# 1 112.7524 71.8284 20.6400 0.0000 0.0000 0.0000
# 2 71.8284 140.4606 24.1911 0.0000 0.0000 0.0000
# 3 20.6400 24.1911 29.9435 0.0000 0.0000 0.0000
# 4 0.0000 0.0000 0.0000 18.1505 0.0000 0.0000
# 5 0.0000 0.0000 0.0000 0.0000 21.5321 0.0000
# 6 0.0000 0.0000 0.0000 0.0000 0.0000 25.6921
#
#
#
# Elastic Compliance Matrix: (Units=1/GPa)
#
#
# Indices 1 2 3 4 5 6 
#
# 1 0.013630 -0.006217 -0.004372 0.000000 0.000000 0.000000
# 2 -0.006217 0.011106 -0.004687 0.000000 0.000000 0.000000
# 3 -0.004372 -0.004687 0.040197 0.000000 0.000000 0.000000
# 4 0.000000 0.000000 0.000000 0.055095 0.000000 0.000000
# 5 0.000000 0.000000 0.000000 0.000000 0.046442 0.000000
# 6 0.000000 0.000000 0.000000 0.000000 0.000000 0.038923
#
#
# Mechanical properties :
#
#
# Convention : Reuss Voigt Hill
#
# Bulk Modulus (GPa) = 29.08691 57.38616 43.23653
# Shear Modulus (GPa) = 20.20978 24.17473 22.19226
#
# Velocity S-wave (km/s) = 3.23903 3.54254 3.39418
# Velocity P-wave (km/s) = 5.39333 6.82078 6.14862
#
# Compressibility (1/GPa) = 0.03437973
#
# Stress axis : x y z
#
# Youngs Moduli (GPa) = 73.36830 90.04240 24.87765
#
# Poissons Ratio (x) = 0.55979 0.10877
# Poissons Ratio (y) = 0.45613 0.11660
# Poissons Ratio (z) = 0.32080 0.42203
#
# Static dielectric constant tensor:
#      x y z
#    x 3.548840 0.000000 0.000000 
#    y 0.000000 3.632550 0.000000 
#    z 0.000000 0.000000 2.987700 
# 
# 
# High freq. dielectric constant tensor:
#      x y z
#    x 1.748570 0.000000 0.000000 
#    y 0.000000 1.759170 0.000000 
#    z 0.000000 0.000000 1.696730 
# 
# From -- ./inp_files/64015.got.cif
#   From: 2010.03.12/outbox.cif.g09.slc.cpg/sg74_33_cif.got.tgz:64015.got - 2010.04.16 15:46:19.
