data_PCOD8299633
_publ_section_title
;
Structure prediction by ZEFSAII (Michael W. Deem and Ramdas Pophale) SiO2 
 PCOD8299633
Probable space group: I M M A
;
_chemical_formula_sum "Si O2"
_cell_formula_units_Z 112
_cell_length_a 14.262239
_cell_length_b 28.100761
_cell_length_c 15.092125
_cell_angle_alpha 90.000000
_cell_angle_beta 90.000000
_cell_angle_gamma 90.000000
_cell_volume 6048.618378
_symmetry_space_group_name_H-M "I M M A"
_symmetry_group_IT_number 74
_symmetry_cell_setting 'orthorhombic'
loop_
_space_group_symop_operation_xyz
x,y,z
-x,1/2-y,z
x,-y,-z
-x,1/2+y,-z
-x,-y,-z
x,1/2+y,-z
-x,y,z
x,1/2-y,z
1/2+x,1/2+y,1/2+z
1/2-x,-y,1/2+z
1/2+x,1/2-y,1/2-z
1/2-x,y,1/2-z
1/2-x,1/2-y,1/2-z
1/2+x,y,1/2-z
1/2-x,1/2+y,1/2+z
1/2+x,-y,1/2+z
loop_
_atom_site_type_symbol
_atom_site_label
_atom_site_fract_x
_atom_site_fract_y
_atom_site_fract_z
Si Si1 0.772210 0.108838 0.653122
Si Si2 0.605918 0.662529 0.402005
Si Si3 0.393673 0.303567 0.793196
Si Si4 0.105470 0.857318 0.588892
Si Si5 0.892877 0.947449 0.481445
Si Si6 0.606367 0.804841 0.730170
Si Si7 0.781026 0.803343 0.941409
O O1 0.750000 0.087664 0.750000
O O2 0.673023 0.116291 0.603467
O O3 0.824593 0.159826 0.659276
O O4 0.834825 0.071653 0.601304
O O5 0.500000 0.644983 0.417847
O O6 0.614774 0.693201 0.312851
O O7 0.639013 0.694246 0.484353
O O8 0.500000 0.315155 0.822878
O O9 0.365363 0.250000 0.821431
O O10 0.115701 0.913849 0.569143
O O11 0.123425 0.842129 0.690237
O O12 0.187741 0.832871 0.531104
O O13 0.000000 0.840613 0.560355
O O14 0.000000 0.950543 0.449699
O O15 0.853333 0.000000 0.500000
O O16 0.500000 0.808839 0.695888
O O17 0.626728 0.750000 0.760189
O O18 0.675249 0.821068 0.651717
O O19 0.746558 0.750000 0.930117
#
# Coordination Sequence:
#
# PCOD8299633 Si02
#       7
#    16  16  16  16  16  16  16
#     4  10  20  36  58  83 109 142 182 225 270 326
#     4  10  20  33  50  74 109 150 187 223 260 308
#     4   9  18  32  51  78 113 147 181 224 271 322
#     4  10  20  35  53  76 104 138 178 223 273 322
#     4  10  21  40  64  85 108 136 174 228 285 335
#     4   9  18  32  50  76 113 150 183 218 257 310
#     4  11  20  31  50  77 110 152 188 217 256 313
#
# _framework density 18.516625999999999
#
# number of rings (size 3 to 8) (size 9 to 14) (size 15 to 20)
#    0.000    2.143    1.429    2.143    0.000    7.143 
#    0.000    1.429    0.000    0.429    0.000    0.000 
#    0.000    0.000    0.000    0.000    0.000    0.000 
#
# Total GULP energy -694164.170087 kJ/mol
# GULP energy per Si atom -12395.788752 kJ/mol
# Density = 1.847448 g / cm^3
# Si number density = 18.516626 Si / 1000 Ang^3
#
#
#
# Elastic Constant Matrix: (Units=GPa)
#
#
# Indices 1 2 3 4 5 6 
#
# 1 129.8352 57.7591 41.9418 0.0000 0.0000 0.0000
# 2 57.7591 109.5893 51.7995 -0.0005 0.0000 0.0000
# 3 41.9418 51.7995 79.0281 -0.0006 -0.0001 -0.0001
# 4 0.0000 -0.0005 -0.0006 21.5089 0.0000 0.0000
# 5 0.0000 0.0000 -0.0001 0.0000 26.0114 0.0000
# 6 0.0000 0.0000 -0.0001 0.0000 0.0000 20.6767
#
#
#
# Elastic Compliance Matrix: (Units=1/GPa)
#
#
# Indices 1 2 3 4 5 6 
#
# 1 0.010475 -0.004192 -0.002812 0.000000 0.000000 0.000000
# 2 -0.004192 0.014899 -0.007541 0.000000 0.000000 0.000000
# 3 -0.002812 -0.007541 0.019089 0.000000 0.000000 0.000000
# 4 0.000000 0.000000 0.000000 0.046492 0.000000 0.000000
# 5 0.000000 0.000000 0.000000 0.000000 0.038445 0.000000
# 6 0.000000 0.000000 0.000000 0.000000 0.000000 0.048364
#
#
# Mechanical properties :
#
#
# Convention : Reuss Voigt Hill
#
# Bulk Modulus (GPa) = 65.04626 69.05035 67.04831
# Shear Modulus (GPa) = 23.58755 24.76955 24.17855
#
# Velocity S-wave (km/s) = 3.57299 3.66142 3.61747
# Velocity P-wave (km/s) = 7.22679 7.43280 7.33052
#
# Compressibility (1/GPa) = 0.01537367
#
# Stress axis : x y z
#
# Youngs Moduli (GPa) = 95.46325 67.12056 52.38743
#
# Poissons Ratio (x) = 0.28137 0.14730
# Poissons Ratio (y) = 0.40018 0.39503
# Poissons Ratio (z) = 0.26842 0.50613
#
# Static dielectric constant tensor:
#      x y z
#    x 3.797910 0.000000 0.000000 
#    y 0.000000 3.101730 0.000000 
#    z 0.000000 0.000000 3.340350 
# 
# 
# High freq. dielectric constant tensor:
#      x y z
#    x 1.741490 0.000000 0.000000 
#    y 0.000000 1.669400 0.000000 
#    z 0.000000 0.000000 1.716960 
# 
# From -- ./inp_files/32913.got.cif
#   From: 2010.03.12/outbox.cif.g09.slc.cpg/sg74_17_cif.got.tgz:32913.got - 2010.04.16 15:46:19.
