data_PCOD8299122
_publ_section_title
;
Structure prediction by ZEFSAII (Michael W. Deem and Ramdas Pophale) SiO2 
 PCOD8299122
Probable space group: I M M A
;
_chemical_formula_sum "Si O2"
_cell_formula_units_Z 64
_cell_length_a 19.468961
_cell_length_b 17.536866
_cell_length_c 10.028442
_cell_angle_alpha 90.000000
_cell_angle_beta 90.000000
_cell_angle_gamma 90.000000
_cell_volume 3423.956400
_symmetry_space_group_name_H-M "I M M A"
_symmetry_group_IT_number 74
_symmetry_cell_setting 'orthorhombic'
loop_
_space_group_symop_operation_xyz
x,y,z
-x,1/2-y,z
x,-y,-z
-x,1/2+y,-z
-x,-y,-z
x,1/2+y,-z
-x,y,z
x,1/2-y,z
1/2+x,1/2+y,1/2+z
1/2-x,-y,1/2+z
1/2+x,1/2-y,1/2-z
1/2-x,y,1/2-z
1/2-x,1/2-y,1/2-z
1/2+x,y,1/2-z
1/2-x,1/2+y,1/2+z
1/2+x,-y,1/2+z
loop_
_atom_site_type_symbol
_atom_site_label
_atom_site_fract_x
_atom_site_fract_y
_atom_site_fract_z
Si Si1 0.079673 0.161814 0.884101
Si Si2 0.168481 0.163897 0.132165
Si Si3 0.313584 0.096713 0.108431
Si Si4 0.823232 0.422974 0.685436
O O1 0.093365 0.250000 0.845936
O O2 0.117276 0.106386 0.781586
O O3 0.000000 0.141528 0.880878
O O4 0.106079 0.144306 0.033746
O O5 0.194013 0.250000 0.109071
O O6 0.231104 0.106180 0.108283
O O7 0.147125 0.152877 0.287920
O O8 0.330326 0.012139 0.158333
O O9 0.336099 0.116705 0.958159
O O10 0.750000 0.400555 0.750000
#
# Coordination Sequence:
#
# PCOD8299122 Si02
#       4
#    16  16  16  16
#     4  10  23  41  59  84 119 158 199 239 287 352
#     4  10  19  34  57  82 115 151 191 241 293 342
#     4  10  20  33  56  87 117 142 190 244 292 338
#     4  11  20  35  60  84 119 152 190 244 292 338
#
# _framework density 18.691828000000001
#
# number of rings (size 3 to 8) (size 9 to 14) (size 15 to 20)
#    0.000    1.750    5.000    1.500    0.000    3.500 
#    0.000    6.250    0.000    3.000    0.000    0.000 
#    0.000    0.000    0.000    0.000    0.000    0.000 
#
# Total GULP energy -396623.706210 kJ/mol
# GULP energy per Si atom -12394.490819 kJ/mol
# Density = 1.864928 g / cm^3
# Si number density = 18.691828 Si / 1000 Ang^3
#
#
#
# Elastic Constant Matrix: (Units=GPa)
#
#
# Indices 1 2 3 4 5 6 
#
# 1 111.2645 46.6851 72.5753 0.0000 0.0000 0.0000
# 2 46.6851 63.5218 50.2703 0.0000 0.0000 0.0000
# 3 72.5753 50.2703 176.9332 0.0000 0.0000 0.0000
# 4 0.0000 0.0000 0.0000 35.7370 0.0000 0.0000
# 5 0.0000 0.0000 0.0000 0.0000 29.0885 0.0000
# 6 0.0000 0.0000 0.0000 0.0000 0.0000 16.8554
#
#
#
# Elastic Compliance Matrix: (Units=1/GPa)
#
#
# Indices 1 2 3 4 5 6 
#
# 1 0.014772 -0.007819 -0.003837 0.000000 0.000000 0.000000
# 2 -0.007819 0.024448 -0.003739 0.000000 0.000000 0.000000
# 3 -0.003837 -0.003739 0.008288 0.000000 0.000000 0.000000
# 4 0.000000 0.000000 0.000000 0.027982 0.000000 0.000000
# 5 0.000000 0.000000 0.000000 0.000000 0.034378 0.000000
# 6 0.000000 0.000000 0.000000 0.000000 0.000000 0.059328
#
#
# Mechanical properties :
#
#
# Convention : Reuss Voigt Hill
#
# Bulk Modulus (GPa) = 59.82039 76.75344 68.28691
# Shear Modulus (GPa) = 24.32379 28.48210 26.40295
#
# Velocity S-wave (km/s) = 3.61128 3.90779 3.76245
# Velocity P-wave (km/s) = 7.03288 7.84301 7.44897
#
# Compressibility (1/GPa) = 0.01671671
#
# Stress axis : x y z
#
# Youngs Moduli (GPa) = 67.69761 40.90255 120.65354
#
# Poissons Ratio (x) = 0.31983 0.46300
# Poissons Ratio (y) = 0.52936 0.45111
# Poissons Ratio (z) = 0.25978 0.15293
#
# Static dielectric constant tensor:
#      x y z
#    x 3.067090 0.000000 0.000000 
#    y 0.000000 3.374610 0.000000 
#    z 0.000000 0.000000 4.076760 
# 
# 
# High freq. dielectric constant tensor:
#      x y z
#    x 1.683160 0.000000 0.000000 
#    y 0.000000 1.724570 0.000000 
#    z 0.000000 0.000000 1.750750 
# 
# From -- ./inp_files/11804.got.cif
#   From: 2010.03.12/outbox.cif.g09.slc.cpg/sg74_6_cif.got.tgz:11804.got - 2010.04.16 15:46:19.
