data_PCOD8299614
_publ_section_title
;
Structure prediction by ZEFSAII (Michael W. Deem and Ramdas Pophale) SiO2 
 PCOD8299614
Probable space group: I M M A
;
_chemical_formula_sum "Si O2"
_cell_formula_units_Z 96
_cell_length_a 19.610529
_cell_length_b 21.783820
_cell_length_c 11.659063
_cell_angle_alpha 90.000000
_cell_angle_beta 90.000000
_cell_angle_gamma 90.000000
_cell_volume 4980.661167
_symmetry_space_group_name_H-M "I M M A"
_symmetry_group_IT_number 74
_symmetry_cell_setting 'orthorhombic'
loop_
_space_group_symop_operation_xyz
x,y,z
-x,1/2-y,z
x,-y,-z
-x,1/2+y,-z
-x,-y,-z
x,1/2+y,-z
-x,y,z
x,1/2-y,z
1/2+x,1/2+y,1/2+z
1/2-x,-y,1/2+z
1/2+x,1/2-y,1/2-z
1/2-x,y,1/2-z
1/2-x,1/2-y,1/2-z
1/2+x,y,1/2-z
1/2-x,1/2+y,1/2+z
1/2+x,-y,1/2+z
loop_
_atom_site_type_symbol
_atom_site_label
_atom_site_fract_x
_atom_site_fract_y
_atom_site_fract_z
Si Si1 0.423266 0.679569 0.024405
Si Si2 0.178448 0.485399 0.188851
Si Si3 0.578269 0.897178 0.798834
Si Si4 0.216493 0.319530 0.627358
Si Si5 0.579091 0.180972 0.421624
Si Si6 0.176745 0.095681 0.964732
O O1 0.500000 0.665720 0.071868
O O2 0.420316 0.750000 0.980173
O O3 0.405285 0.634226 0.919949
O O4 0.365728 0.668839 0.122863
O O5 0.250000 0.488236 0.250000
O O6 0.122624 0.458767 0.277917
O O7 0.159618 0.554048 0.146588
O O8 0.184351 0.443590 0.078165
O O9 0.500000 0.918054 0.791838
O O10 0.595728 0.847327 0.702103
O O11 0.231885 0.250000 0.587790
O O12 0.250000 0.331852 0.750000
O O13 0.252363 0.367355 0.542755
O O14 0.500000 0.178809 0.449975
O O15 0.607231 0.250000 0.421149
O O16 0.615080 0.143649 0.523529
#
# Coordination Sequence:
#
# PCOD8299614 Si02
#       6
#    16  16  16  16  16  16
#     4   9  17  31  53  80 107 134 165 204 253 307
#     4  10  20  33  50  72  99 133 173 214 255 302
#     4   9  17  30  51  78 106 134 165 206 256 306
#     4  10  20  34  52  73  99 132 170 211 254 302
#     4   9  17  30  49  75 106 136 167 206 253 305
#     4  10  20  33  50  71  98 135 174 212 255 301
#
# _framework density 19.274550000000001
#
# number of rings (size 3 to 8) (size 9 to 14) (size 15 to 20)
#    0.000    2.500    0.000    2.500    0.000    2.667 
#    0.000    4.167    0.000   14.000    0.000   11.667 
#    0.000    0.000    0.000    0.000    0.000    0.000 
#
# Total GULP energy -594965.377318 kJ/mol
# GULP energy per Si atom -12395.112027 kJ/mol
# Density = 1.923068 g / cm^3
# Si number density = 19.274550 Si / 1000 Ang^3
#
#
#
# Elastic Constant Matrix: (Units=GPa)
#
#
# Indices 1 2 3 4 5 6 
#
# 1 116.6413 53.3081 78.0662 0.0000 0.0000 0.0000
# 2 53.3081 87.7900 50.1637 0.0000 0.0000 0.0000
# 3 78.0662 50.1637 40.3784 0.0000 0.0000 0.0000
# 4 0.0000 0.0000 0.0000 16.3030 0.0000 0.0000
# 5 0.0000 0.0000 0.0000 0.0000 25.2731 0.0000
# 6 0.0000 0.0000 0.0000 0.0000 0.0000 -5.3060
#
#
#
# Elastic Compliance Matrix: (Units=1/GPa)
#
#
# Indices 1 2 3 4 5 6 
#
# 1 -0.009159 -0.015705 0.037218 0.000000 0.000000 0.000000
# 2 -0.015705 0.012330 0.015047 0.000000 0.000000 0.000000
# 3 0.037218 0.015047 -0.065884 0.000000 0.000000 0.000000
# 4 0.000000 0.000000 0.000000 0.061338 0.000000 0.000000
# 5 0.000000 0.000000 0.000000 0.000000 0.039568 0.000000
# 6 0.000000 0.000000 0.000000 0.000000 0.000000 -0.188467
#
#
# Mechanical properties :
#
#
# Convention : Reuss Voigt Hill
#
# Bulk Modulus (GPa) = 96.09543 67.54287 81.81915
# Shear Modulus (GPa) = -22.73519 11.47214 -5.63153
#
# Velocity S-wave (km/s) = -3.43818 2.44231 -1.71116
# Velocity P-wave (km/s) = 5.84833 6.56291 6.21590
#
# Compressibility (1/GPa) = 0.01040632
#
# Stress axis : x y z
#
# Youngs Moduli (GPa) = -109.18772 81.10378 -15.17825
#
# Poissons Ratio (x) = 1.27377 0.56491
# Poissons Ratio (y) = -1.71485 0.22838
# Poissons Ratio (z) = 4.06378 -1.22033
#
# Static dielectric constant tensor:
#      x y z
#    x 3.617130 0.000000 0.000000 
#    y 0.000000 3.828620 0.000000 
#    z 0.000000 0.000000 3.345140 
# 
# 
# High freq. dielectric constant tensor:
#      x y z
#    x 1.752100 0.000000 0.000000 
#    y 0.000000 1.756660 0.000000 
#    z 0.000000 0.000000 1.728270 
# 
# From -- ./inp_files/23896.got.cif
#   From: 2010.03.12/outbox.cif.g09.slc.cpg/sg74_12_cif.got.tgz:23896.got - 2010.04.16 15:46:19.
