data_PCOD8299886
_publ_section_title
;
Structure prediction by ZEFSAII (Michael W. Deem and Ramdas Pophale) SiO2 
 PCOD8299886
Probable space group: I M M A
;
_chemical_formula_sum "Si O2"
_cell_formula_units_Z 96
_cell_length_a 19.118152
_cell_length_b 8.702417
_cell_length_c 30.708427
_cell_angle_alpha 90.000000
_cell_angle_beta 90.000000
_cell_angle_gamma 90.000000
_cell_volume 5109.087856
_symmetry_space_group_name_H-M "I M M A"
_symmetry_group_IT_number 74
_symmetry_cell_setting 'orthorhombic'
loop_
_space_group_symop_operation_xyz
x,y,z
-x,1/2-y,z
x,-y,-z
-x,1/2+y,-z
-x,-y,-z
x,1/2+y,-z
-x,y,z
x,1/2-y,z
1/2+x,1/2+y,1/2+z
1/2-x,-y,1/2+z
1/2+x,1/2-y,1/2-z
1/2-x,y,1/2-z
1/2-x,1/2-y,1/2-z
1/2+x,y,1/2-z
1/2-x,1/2+y,1/2+z
1/2+x,-y,1/2+z
loop_
_atom_site_type_symbol
_atom_site_label
_atom_site_fract_x
_atom_site_fract_y
_atom_site_fract_z
Si Si1 0.325283 0.569661 0.294984
Si Si2 0.083206 0.577264 0.043680
Si Si3 0.082516 0.926129 0.867410
Si Si4 0.322003 0.930398 0.796934
Si Si5 0.082402 0.926485 0.367448
Si Si6 0.916782 0.077214 0.456321
O O1 0.324181 0.750000 0.286048
O O2 0.382153 0.531472 0.331253
O O3 0.346874 0.484440 0.250605
O O4 0.249159 0.515304 0.310947
O O5 0.112518 0.750000 0.047436
O O6 0.108776 0.480117 0.085184
O O7 0.000000 0.578658 0.041450
O O8 0.113961 0.500000 0.000000
O O9 0.104781 0.750000 0.860825
O O10 0.000000 0.948725 0.862891
O O11 0.308056 0.750000 0.796202
O O12 0.382269 0.969467 0.830959
O O13 0.103731 0.750000 0.360855
O O14 0.000000 0.951313 0.363013
O O15 0.108994 0.980259 0.414817
O O16 0.887570 0.250000 0.452607
O O17 0.000000 0.078149 0.458502
O O18 0.886017 0.000000 0.500000
#
# Coordination Sequence:
#
# PCOD8299886 Si02
#       6
#    16  16  16  16  16  16
#     4  11  22  38  58  78 103 136 175 215 259 313
#     4   9  16  27  45  71 103 138 174 212 256 305
#     4  10  20  34  53  79 109 139 174 217 262 306
#     4  11  22  38  58  78 103 136 175 215 259 313
#     4  10  20  34  53  79 109 139 174 217 262 306
#     4   9  16  27  45  71 103 138 174 212 256 305
#
# _framework density 18.790047999999999
#
# number of rings (size 3 to 8) (size 9 to 14) (size 15 to 20)
#    0.000    2.000    0.000    6.000    0.000    6.667 
#    0.000    0.000    0.000    1.000    0.000    7.000 
#    0.000    0.000    0.000    0.000    0.000    0.000 
#
# Total GULP energy -595338.033087 kJ/mol
# GULP energy per Si atom -12402.875689 kJ/mol
# Density = 1.874728 g / cm^3
# Si number density = 18.790048 Si / 1000 Ang^3
#
#
#
# Elastic Constant Matrix: (Units=GPa)
#
#
# Indices 1 2 3 4 5 6 
#
# 1 29.9274 22.3124 38.6788 0.0000 0.0000 0.0000
# 2 22.3124 103.0547 33.4589 0.0000 0.0000 0.0000
# 3 38.6788 33.4589 124.7066 0.0000 0.0000 0.0000
# 4 0.0000 0.0000 0.0000 40.4645 0.0000 0.0000
# 5 0.0000 0.0000 0.0000 0.0000 -2.7978 0.0000
# 6 0.0000 0.0000 0.0000 0.0000 0.0000 23.7238
#
#
#
# Elastic Compliance Matrix: (Units=1/GPa)
#
#
# Indices 1 2 3 4 5 6 
#
# 1 0.060913 -0.007728 -0.016819 0.000000 0.000000 0.000000
# 2 -0.007728 0.011610 -0.000718 0.000000 0.000000 0.000000
# 3 -0.016819 -0.000718 0.013428 0.000000 0.000000 0.000000
# 4 0.000000 0.000000 0.000000 0.024713 0.000000 0.000000
# 5 0.000000 0.000000 0.000000 0.000000 -0.357422 0.000000
# 6 0.000000 0.000000 0.000000 0.000000 0.000000 0.042152
#
#
# Mechanical properties :
#
#
# Convention : Reuss Voigt Hill
#
# Bulk Modulus (GPa) = 28.23186 49.62098 38.92642
# Shear Modulus (GPa) = -35.14471 23.16067 -5.99202
#
# Velocity S-wave (km/s) = -4.32949 3.51465 -1.78770
# Velocity P-wave (km/s) = 3.15201 6.55254 4.06206
#
# Compressibility (1/GPa) = 0.03542097
#
# Stress axis : x y z
#
# Youngs Moduli (GPa) = 16.41680 86.13378 74.47019
#
# Poissons Ratio (x) = 0.66560 1.25255
# Poissons Ratio (y) = 0.12686 0.05348
# Poissons Ratio (z) = 0.27612 0.06186
#
# Static dielectric constant tensor:
#      x y z
#    x 2.989860 0.000000 0.000000 
#    y 0.000000 3.651990 0.000000 
#    z 0.000000 0.000000 3.589280 
# 
# 
# High freq. dielectric constant tensor:
#      x y z
#    x 1.680640 0.000000 0.000000 
#    y 0.000000 1.751540 0.000000 
#    z 0.000000 0.000000 1.744160 
# 
# From -- ./inp_files/68135.got.cif
#   From: 2010.03.12/outbox.cif.g09.slc.cpg/sg74_35_cif.got.tgz:68135.got - 2010.04.16 15:46:19.
