data_PCOD8299901
_publ_section_title
;
Structure prediction by ZEFSAII (Michael W. Deem and Ramdas Pophale) SiO2 
 PCOD8299901
Probable space group: I M M A
;
_chemical_formula_sum "Si O2"
_cell_formula_units_Z 104
_cell_length_a 20.345816
_cell_length_b 9.703999
_cell_length_c 29.452302
_cell_angle_alpha 90.000000
_cell_angle_beta 90.000000
_cell_angle_gamma 90.000000
_cell_volume 5814.938163
_symmetry_space_group_name_H-M "I M M A"
_symmetry_group_IT_number 74
_symmetry_cell_setting 'orthorhombic'
loop_
_space_group_symop_operation_xyz
x,y,z
-x,1/2-y,z
x,-y,-z
-x,1/2+y,-z
-x,-y,-z
x,1/2+y,-z
-x,y,z
x,1/2-y,z
1/2+x,1/2+y,1/2+z
1/2-x,-y,1/2+z
1/2+x,1/2-y,1/2-z
1/2-x,y,1/2-z
1/2-x,1/2-y,1/2-z
1/2+x,y,1/2-z
1/2-x,1/2+y,1/2+z
1/2+x,-y,1/2+z
loop_
_atom_site_type_symbol
_atom_site_label
_atom_site_fract_x
_atom_site_fract_y
_atom_site_fract_z
Si Si1 0.145958 0.408155 0.367418
Si Si2 0.924692 0.091155 0.275443
Si Si3 0.643225 0.410640 0.545671
Si Si4 0.818443 0.592825 0.228037
Si Si5 0.000000 0.595735 0.042162
Si Si6 0.576300 0.908572 0.959166
Si Si7 0.270699 0.407057 0.630170
O O1 0.168830 0.250000 0.369405
O O2 0.092977 0.431868 0.328035
O O3 0.113200 0.455283 0.414114
O O4 0.208621 0.500726 0.358389
O O5 0.914289 0.250000 0.261677
O O6 0.000000 0.045932 0.268259
O O7 0.878826 0.999497 0.243836
O O8 0.654279 0.500000 0.500000
O O9 0.655033 0.250000 0.533518
O O10 0.569523 0.430980 0.567648
O O11 0.692711 0.461002 0.584869
O O12 0.830242 0.750000 0.244074
O O13 0.750000 0.539100 0.250000
O O14 0.818219 0.582286 0.173541
O O15 0.000000 0.750000 0.023138
O O16 0.000000 0.500000 0.000000
O O17 0.500000 0.938645 0.951376
O O18 0.589360 0.750000 0.971170
O O19 0.604901 0.000000 0.000000
O O20 0.247492 0.250000 0.623207
#
# Coordination Sequence:
#
# PCOD8299901 Si02
#       7
#    16  16  16  16   8  16  16
#     4  10  20  34  54  77 102 138 178 215 261 315
#     4  10  21  37  58  83 109 138 178 226 271 318
#     4   9  18  33  53  76 103 135 171 214 260 309
#     4  10  20  37  58  80 109 144 181 220 264 319
#     4   8  14  28  50  72  94 126 168 206 250 304
#     4   9  18  33  51  72 101 135 173 216 261 308
#     4  10  21  36  53  77 108 139 173 215 261 311
#
# _framework density 17.884971
#
# number of rings (size 3 to 8) (size 9 to 14) (size 15 to 20)
#    0.000    2.462    1.538    0.462    0.000    4.923 
#    1.385    3.077    0.000    2.769    0.000    0.000 
#    0.000    0.000    0.000    0.000    0.000    0.000 
#
# Total GULP energy -644611.974020 kJ/mol
# GULP energy per Si atom -12396.384116 kJ/mol
# Density = 1.784426 g / cm^3
# Si number density = 17.884971 Si / 1000 Ang^3
#
#
#
# Elastic Constant Matrix: (Units=GPa)
#
#
# Indices 1 2 3 4 5 6 
#
# 1 111.9708 56.1215 43.9760 0.0000 0.0000 0.0000
# 2 56.1215 67.9150 43.6858 0.0000 0.0000 0.0000
# 3 43.9760 43.6858 97.3156 0.0000 0.0000 0.0000
# 4 0.0000 0.0000 0.0000 30.3013 0.0000 0.0000
# 5 0.0000 0.0000 0.0000 0.0000 29.3720 0.0000
# 6 0.0000 0.0000 0.0000 0.0000 0.0000 28.3154
#
#
#
# Elastic Compliance Matrix: (Units=1/GPa)
#
#
# Indices 1 2 3 4 5 6 
#
# 1 0.015456 -0.011641 -0.001759 0.000000 0.000000 0.000000
# 2 -0.011641 0.029470 -0.007969 0.000000 0.000000 0.000000
# 3 -0.001759 -0.007969 0.014648 0.000000 0.000000 0.000000
# 4 0.000000 0.000000 0.000000 0.033002 0.000000 0.000000
# 5 0.000000 0.000000 0.000000 0.000000 0.034046 0.000000
# 6 0.000000 0.000000 0.000000 0.000000 0.000000 0.035316
#
#
# Mechanical properties :
#
#
# Convention : Reuss Voigt Hill
#
# Bulk Modulus (GPa) = 59.39381 62.75200 61.07290
# Shear Modulus (GPa) = 23.77697 26.49227 25.13462
#
# Velocity S-wave (km/s) = 3.65010 3.85289 3.75287
# Velocity P-wave (km/s) = 7.14459 7.41320 7.28014
#
# Compressibility (1/GPa) = 0.01683677
#
# Stress axis : x y z
#
# Youngs Moduli (GPa) = 64.69852 33.93325 68.26927
#
# Poissons Ratio (x) = 0.39502 0.12007
# Poissons Ratio (y) = 0.75315 0.54402
# Poissons Ratio (z) = 0.11379 0.27040
#
# Static dielectric constant tensor:
#      x y z
#    x 3.735510 0.000000 0.000000 
#    y 0.000000 3.319120 0.000000 
#    z 0.000000 0.000000 3.185670 
# 
# 
# High freq. dielectric constant tensor:
#      x y z
#    x 1.691380 0.000000 0.000000 
#    y 0.000000 1.690970 0.000000 
#    z 0.000000 0.000000 1.687320 
# 
# From -- ./inp_files/73405.got.cif
#   From: 2010.03.12/outbox.cif.g09.slc.cpg/sg74_37_cif.got.tgz:73405.got - 2010.04.16 15:46:19.
