data_PCOD8299406
_publ_section_title
;
Structure prediction by ZEFSAII (Michael W. Deem and Ramdas Pophale) SiO2 
 PCOD8299406
Probable space group: I M M A
;
_chemical_formula_sum "Si O2"
_cell_formula_units_Z 112
_cell_length_a 14.133584
_cell_length_b 14.454153
_cell_length_c 29.440990
_cell_angle_alpha 90.000000
_cell_angle_beta 90.000000
_cell_angle_gamma 90.000000
_cell_volume 6014.469981
_symmetry_space_group_name_H-M "I M M A"
_symmetry_group_IT_number 74
_symmetry_cell_setting 'orthorhombic'
loop_
_space_group_symop_operation_xyz
x,y,z
-x,1/2-y,z
x,-y,-z
-x,1/2+y,-z
-x,-y,-z
x,1/2+y,-z
-x,y,z
x,1/2-y,z
1/2+x,1/2+y,1/2+z
1/2-x,-y,1/2+z
1/2+x,1/2-y,1/2-z
1/2-x,y,1/2-z
1/2-x,1/2-y,1/2-z
1/2+x,y,1/2-z
1/2-x,1/2+y,1/2+z
1/2+x,-y,1/2+z
loop_
_atom_site_type_symbol
_atom_site_label
_atom_site_fract_x
_atom_site_fract_y
_atom_site_fract_z
Si Si1 0.388149 0.643829 0.794346
Si Si2 0.898627 0.358176 0.125380
Si Si3 0.890297 0.004714 0.549991
Si Si4 0.391464 0.143691 0.874709
Si Si5 0.732916 0.147656 0.697015
Si Si6 0.694865 0.142783 0.108836
Si Si7 0.104910 0.520859 0.788234
O O1 0.500000 0.633686 0.802543
O O2 0.364264 0.750000 0.780327
O O3 0.332575 0.615493 0.839856
O O4 0.351131 0.570010 0.756714
O O5 0.890975 0.250000 0.133236
O O6 0.803970 0.389091 0.098487
O O7 0.898450 0.398944 0.175235
O O8 0.000000 0.383653 0.100867
O O9 0.849305 0.085469 0.582729
O O10 0.000000 0.025022 0.543575
O O11 0.841906 0.000000 0.500000
O O12 0.873581 0.906739 0.573621
O O13 0.500000 0.115043 0.863305
O O14 0.385566 0.250000 0.889414
O O15 0.329442 0.123426 0.829865
O O16 0.695949 0.250000 0.681072
O O17 0.750000 0.151783 0.750000
O O18 0.658348 0.066240 0.689501
O O19 0.678291 0.250000 0.100250
O O20 0.000000 0.485087 0.776440
#
# Coordination Sequence:
#
# PCOD8299406 Si02
#       7
#    16  16  16  16  16  16  16
#     4   9  18  31  47  72 104 137 173 208 249 308
#     4   9  18  32  49  73 104 136 172 208 246 299
#     4  10  21  35  54  82 111 137 169 213 264 322
#     4   9  19  37  58  76 100 139 181 219 265 319
#     4  10  22  36  50  71  98 132 179 230 267 303
#     4  10  20  33  52  75 102 137 170 208 257 307
#     4  10  20  31  48  71  99 138 173 211 259 303
#
# _framework density 18.621756999999999
#
# number of rings (size 3 to 8) (size 9 to 14) (size 15 to 20)
#    0.000    2.429    0.000    1.714    4.000    4.000 
#    0.000    5.000    0.000    0.429    0.000    0.000 
#    0.000    2.286    0.000    0.000    0.000    0.000 
#
# Total GULP energy -693926.687851 kJ/mol
# GULP energy per Si atom -12391.547997 kJ/mol
# Density = 1.857937 g / cm^3
# Si number density = 18.621757 Si / 1000 Ang^3
#
#
#
# Elastic Constant Matrix: (Units=GPa)
#
#
# Indices 1 2 3 4 5 6 
#
# 1 57.5543 34.7290 25.3058 0.0000 0.0000 0.0000
# 2 34.7290 63.3934 45.5715 0.0000 0.0000 0.0000
# 3 25.3058 45.5715 92.0251 0.0000 0.0000 0.0000
# 4 0.0000 0.0000 0.0000 11.5834 0.0000 0.0000
# 5 0.0000 0.0000 0.0000 0.0000 17.9354 0.0000
# 6 0.0000 0.0000 0.0000 0.0000 0.0000 24.4846
#
#
#
# Elastic Compliance Matrix: (Units=1/GPa)
#
#
# Indices 1 2 3 4 5 6 
#
# 1 0.025956 -0.014112 -0.000149 0.000000 0.000000 0.000000
# 2 -0.014112 0.032167 -0.012049 0.000000 0.000000 0.000000
# 3 -0.000149 -0.012049 0.016874 0.000000 0.000000 0.000000
# 4 0.000000 0.000000 0.000000 0.086331 0.000000 0.000000
# 5 0.000000 0.000000 0.000000 0.000000 0.055756 0.000000
# 6 0.000000 0.000000 0.000000 0.000000 0.000000 0.040842
#
#
# Mechanical properties :
#
#
# Convention : Reuss Voigt Hill
#
# Bulk Modulus (GPa) = 44.68849 47.13171 45.91010
# Shear Modulus (GPa) = 15.72302 17.95844 16.84073
#
# Velocity S-wave (km/s) = 2.90890 3.10881 3.01052
# Velocity P-wave (km/s) = 5.94410 6.18476 6.06563
#
# Compressibility (1/GPa) = 0.02237713
#
# Stress axis : x y z
#
# Youngs Moduli (GPa) = 38.52665 31.08758 59.26218
#
# Poissons Ratio (x) = 0.43872 0.00883
# Poissons Ratio (y) = 0.54371 0.71403
# Poissons Ratio (z) = 0.00574 0.37456
#
# Static dielectric constant tensor:
#      x y z
#    x 3.755720 0.000000 0.000000 
#    y 0.000000 3.674970 0.000000 
#    z 0.000000 0.000000 3.309090 
# 
# 
# High freq. dielectric constant tensor:
#      x y z
#    x 1.718850 0.000000 0.000000 
#    y 0.000000 1.731310 0.000000 
#    z 0.000000 0.000000 1.684570 
# 
# From -- ./inp_files/60133.got.cif
#   From: 2010.03.12/outbox.cif.g09.slc.cpg/sg74_31_cif.got.tgz:60133.got - 2010.04.16 15:46:19.
