data_PCOD8299807
_publ_section_title
;
Structure prediction by ZEFSAII (Michael W. Deem and Ramdas Pophale) SiO2 
 PCOD8299807
Probable space group: I M M A
;
_chemical_formula_sum "Si O2"
_cell_formula_units_Z 104
_cell_length_a 26.626617
_cell_length_b 9.176435
_cell_length_c 23.794988
_cell_angle_alpha 90.000000
_cell_angle_beta 90.000000
_cell_angle_gamma 90.000000
_cell_volume 5814.005981
_symmetry_space_group_name_H-M "I M M A"
_symmetry_group_IT_number 74
_symmetry_cell_setting 'orthorhombic'
loop_
_space_group_symop_operation_xyz
x,y,z
-x,1/2-y,z
x,-y,-z
-x,1/2+y,-z
-x,-y,-z
x,1/2+y,-z
-x,y,z
x,1/2-y,z
1/2+x,1/2+y,1/2+z
1/2-x,-y,1/2+z
1/2+x,1/2-y,1/2-z
1/2-x,y,1/2-z
1/2-x,1/2-y,1/2-z
1/2+x,y,1/2-z
1/2-x,1/2+y,1/2+z
1/2+x,-y,1/2+z
loop_
_atom_site_type_symbol
_atom_site_label
_atom_site_fract_x
_atom_site_fract_y
_atom_site_fract_z
Si Si1 0.292593 0.082736 0.870511
Si Si2 0.181361 0.576473 0.154084
Si Si3 0.000000 0.416049 0.943153
Si Si4 0.129938 0.077881 0.442074
Si Si5 0.108048 0.920510 0.058955
Si Si6 0.633178 0.916566 0.231982
Si Si7 0.557391 0.079491 0.159484
O O1 0.290126 0.250000 0.891666
O O2 0.237683 0.019207 0.855999
O O3 0.323797 0.069469 0.813958
O O4 0.317252 0.985312 0.919423
O O5 0.182046 0.750000 0.158466
O O6 0.148681 0.518069 0.102154
O O7 0.156487 0.514630 0.211182
O O8 0.052848 0.451377 0.912216
O O9 0.000000 0.250000 0.961425
O O10 0.000000 0.500000 0.000000
O O11 0.135369 0.250000 0.451491
O O12 0.085644 0.038999 0.398350
O O13 0.115330 0.000000 0.500000
O O14 0.116302 0.750000 0.048299
O O15 0.114893 0.000000 0.000000
O O16 0.616743 0.750000 0.241357
O O17 0.583598 0.002653 0.212647
O O18 0.500000 0.025254 0.154554
O O19 0.560260 0.250000 0.170856
#
# Coordination Sequence:
#
# PCOD8299807 Si02
#       7
#    16  16   8  16  16  16  16
#     4   9  17  31  51  71  98 133 164 199 244 294
#     4   9  17  30  49  74  99 126 162 203 246 291
#     4   8  14  26  44  60  78 110 144 178 219 266
#     4  10  20  34  52  75 102 133 170 209 250 300
#     4   9  17  30  46  65  90 119 153 191 235 281
#     4   9  17  31  51  75  98 126 166 205 243 291
#     4   9  19  36  54  72 101 137 167 203 255 305
#
# _framework density 17.887837999999999
#
# number of rings (size 3 to 8) (size 9 to 14) (size 15 to 20)
#    0.000    2.923    0.000    0.923    0.000    3.692 
#    1.385    3.846    0.000    3.692    0.000    0.000 
#    0.000    0.000    0.000    0.000    0.000    0.000 
#
# Total GULP energy -644529.756735 kJ/mol
# GULP energy per Si atom -12394.803014 kJ/mol
# Density = 1.784712 g / cm^3
# Si number density = 17.887838 Si / 1000 Ang^3
#
#
#
# Elastic Constant Matrix: (Units=GPa)
#
#
# Indices 1 2 3 4 5 6 
#
# 1 155.4960 42.9958 64.8965 0.0000 0.0000 0.0000
# 2 42.9958 44.9974 31.7601 0.0000 0.0000 0.0000
# 3 64.8965 31.7601 84.8076 0.0000 0.0000 0.0000
# 4 0.0000 0.0000 0.0000 24.1554 0.0000 0.0000
# 5 0.0000 0.0000 0.0000 0.0000 17.9817 0.0000
# 6 0.0000 0.0000 0.0000 0.0000 0.0000 22.9505
#
#
#
# Elastic Compliance Matrix: (Units=1/GPa)
#
#
# Indices 1 2 3 4 5 6 
#
# 1 0.010495 -0.005926 -0.005812 0.000000 0.000000 0.000000
# 2 -0.005926 0.033555 -0.008031 0.000000 0.000000 0.000000
# 3 -0.005812 -0.008031 0.019246 0.000000 0.000000 0.000000
# 4 0.000000 0.000000 0.000000 0.041399 0.000000 0.000000
# 5 0.000000 0.000000 0.000000 0.000000 0.055612 0.000000
# 6 0.000000 0.000000 0.000000 0.000000 0.000000 0.043572
#
#
# Mechanical properties :
#
#
# Convention : Reuss Voigt Hill
#
# Bulk Modulus (GPa) = 42.09151 62.73398 52.41274
# Shear Modulus (GPa) = 19.89360 22.72743 21.31052
#
# Velocity S-wave (km/s) = 3.33848 3.56835 3.45533
# Velocity P-wave (km/s) = 6.20020 7.21972 6.72929
#
# Compressibility (1/GPa) = 0.02375776
#
# Stress axis : x y z
#
# Youngs Moduli (GPa) = 95.28103 29.80202 51.95791
#
# Poissons Ratio (x) = 0.17662 0.30197
# Poissons Ratio (y) = 0.56466 0.41728
# Poissons Ratio (z) = 0.55375 0.23935
#
# Static dielectric constant tensor:
#      x y z
#    x 3.842300 0.000000 0.000000 
#    y 0.000000 3.135590 0.000000 
#    z 0.000000 0.000000 3.214470 
# 
# 
# High freq. dielectric constant tensor:
#      x y z
#    x 1.703820 0.000000 0.000000 
#    y 0.000000 1.670680 0.000000 
#    z 0.000000 0.000000 1.681810 
# 
# From -- ./inp_files/62362.got.cif
#   From: 2010.03.12/outbox.cif.g09.slc.cpg/sg74_32_cif.got.tgz:62362.got - 2010.04.16 15:46:19.
