data_PCOD8299691
_publ_section_title
;
Structure prediction by ZEFSAII (Michael W. Deem and Ramdas Pophale) SiO2 
 PCOD8299691
Probable space group: I M M A
;
_chemical_formula_sum "Si O2"
_cell_formula_units_Z 96
_cell_length_a 20.264322
_cell_length_b 9.138255
_cell_length_c 27.771244
_cell_angle_alpha 90.000000
_cell_angle_beta 90.000000
_cell_angle_gamma 90.000000
_cell_volume 5142.694011
_symmetry_space_group_name_H-M "I M M A"
_symmetry_group_IT_number 74
_symmetry_cell_setting 'orthorhombic'
loop_
_space_group_symop_operation_xyz
x,y,z
-x,1/2-y,z
x,-y,-z
-x,1/2+y,-z
-x,-y,-z
x,1/2+y,-z
-x,y,z
x,1/2-y,z
1/2+x,1/2+y,1/2+z
1/2-x,-y,1/2+z
1/2+x,1/2-y,1/2-z
1/2-x,y,1/2-z
1/2-x,1/2-y,1/2-z
1/2+x,y,1/2-z
1/2-x,1/2+y,1/2+z
1/2+x,-y,1/2+z
loop_
_atom_site_type_symbol
_atom_site_label
_atom_site_fract_x
_atom_site_fract_y
_atom_site_fract_z
Si Si1 0.423067 0.580646 0.894459
Si Si2 0.574672 0.579177 0.451115
Si Si3 0.312418 0.077131 0.281149
Si Si4 0.187976 0.922225 0.450343
Si Si5 0.072668 0.924056 0.713865
Si Si6 0.690302 0.579299 0.382010
O O1 0.500000 0.558363 0.906355
O O2 0.402999 0.750000 0.901076
O O3 0.381398 0.481953 0.930748
O O4 0.407593 0.526617 0.840056
O O5 0.595062 0.500000 0.500000
O O6 0.500000 0.538424 0.435475
O O7 0.582596 0.750000 0.461168
O O8 0.624124 0.527761 0.409421
O O9 0.316610 0.250000 0.287463
O O10 0.250000 0.029709 0.250000
O O11 0.376344 0.014285 0.253117
O O12 0.306296 0.007941 0.332987
O O13 0.181816 0.750000 0.459194
O O14 0.245831 0.961076 0.413150
O O15 0.206264 0.000000 0.500000
O O16 0.072016 0.750000 0.714292
O O17 0.000000 0.984670 0.727151
O O18 0.687644 0.750000 0.370170
#
# Coordination Sequence:
#
# PCOD8299691 Si02
#       6
#    16  16  16  16  16  16
#     4   9  18  35  59  82 105 136 172 211 256 304
#     4   9  18  34  55  77 103 135 171 212 257 306
#     4  10  20  33  52  77 102 132 172 214 253 299
#     4  11  23  37  54  76 104 137 173 215 259 307
#     4   8  15  30  52  77 104 133 167 208 252 299
#     4  10  22  37  52  75 106 138 172 212 260 309
#
# _framework density 18.667259000000001
#
# number of rings (size 3 to 8) (size 9 to 14) (size 15 to 20)
#    0.000    2.500    0.000    3.000    0.000    5.000 
#    0.000    0.833    0.000    1.000    0.000    0.000 
#    0.000    0.000    0.000    0.000    0.000    0.000 
#
# Total GULP energy -595242.014725 kJ/mol
# GULP energy per Si atom -12400.875307 kJ/mol
# Density = 1.862477 g / cm^3
# Si number density = 18.667259 Si / 1000 Ang^3
#
#
#
# Elastic Constant Matrix: (Units=GPa)
#
#
# Indices 1 2 3 4 5 6 
#
# 1 118.7682 40.9075 73.0055 0.0000 0.0000 0.0000
# 2 40.9075 45.7430 46.4013 0.0000 0.0000 0.0000
# 3 73.0055 46.4013 134.2382 0.0000 0.0000 0.0000
# 4 0.0000 0.0000 0.0000 34.0175 0.0000 0.0000
# 5 0.0000 0.0000 0.0000 0.0000 34.2529 0.0000
# 6 0.0000 0.0000 0.0000 0.0000 0.0000 19.9948
#
#
#
# Elastic Compliance Matrix: (Units=1/GPa)
#
#
# Indices 1 2 3 4 5 6 
#
# 1 0.014125 -0.007453 -0.005106 0.000000 0.000000 0.000000
# 2 -0.007453 0.037598 -0.008943 0.000000 0.000000 0.000000
# 3 -0.005106 -0.008943 0.013318 0.000000 0.000000 0.000000
# 4 0.000000 0.000000 0.000000 0.029397 0.000000 0.000000
# 5 0.000000 0.000000 0.000000 0.000000 0.029195 0.000000
# 6 0.000000 0.000000 0.000000 0.000000 0.000000 0.050013
#
#
# Mechanical properties :
#
#
# Convention : Reuss Voigt Hill
#
# Bulk Modulus (GPa) = 45.37738 68.81975 57.09857
# Shear Modulus (GPa) = 22.32202 26.88205 24.60203
#
# Velocity S-wave (km/s) = 3.46176 3.79893 3.63426
# Velocity P-wave (km/s) = 6.35136 7.49594 6.94726
#
# Compressibility (1/GPa) = 0.02203741
#
# Stress axis : x y z
#
# Youngs Moduli (GPa) = 70.79533 26.59722 75.08863
#
# Poissons Ratio (x) = 0.19822 0.38339
# Poissons Ratio (y) = 0.52761 0.67153
# Poissons Ratio (z) = 0.36147 0.23786
#
# Static dielectric constant tensor:
#      x y z
#    x 3.776410 0.000000 0.000000 
#    y 0.000000 3.176610 0.000000 
#    z 0.000000 0.000000 3.414940 
# 
# 
# High freq. dielectric constant tensor:
#      x y z
#    x 1.740740 0.000000 0.000000 
#    y 0.000000 1.700920 0.000000 
#    z 0.000000 0.000000 1.727220 
# 
# From -- ./inp_files/64320.got.cif
#   From: 2010.03.12/outbox.cif.g09.slc.cpg/sg74_33_cif.got.tgz:64320.got - 2010.04.16 15:46:19.
