data_PCOD8299448
_publ_section_title
;
Structure prediction by ZEFSAII (Michael W. Deem and Ramdas Pophale) SiO2 
 PCOD8299448
Probable space group: I M M A
;
_chemical_formula_sum "Si O2"
_cell_formula_units_Z 96
_cell_length_a 8.758451
_cell_length_b 18.946820
_cell_length_c 32.974409
_cell_angle_alpha 90.000000
_cell_angle_beta 90.000000
_cell_angle_gamma 90.000000
_cell_volume 5471.931528
_symmetry_space_group_name_H-M "I M M A"
_symmetry_group_IT_number 74
_symmetry_cell_setting 'orthorhombic'
loop_
_space_group_symop_operation_xyz
x,y,z
-x,1/2-y,z
x,-y,-z
-x,1/2+y,-z
-x,-y,-z
x,1/2+y,-z
-x,y,z
x,1/2-y,z
1/2+x,1/2+y,1/2+z
1/2-x,-y,1/2+z
1/2+x,1/2-y,1/2-z
1/2-x,y,1/2-z
1/2-x,1/2-y,1/2-z
1/2+x,y,1/2-z
1/2-x,1/2+y,1/2+z
1/2+x,-y,1/2+z
loop_
_atom_site_type_symbol
_atom_site_label
_atom_site_fract_x
_atom_site_fract_y
_atom_site_fract_z
Si Si1 0.177812 0.330921 0.162011
Si Si2 0.681020 0.543182 0.792597
Si Si3 0.680329 0.537646 0.129595
Si Si4 0.180900 0.898684 0.586062
Si Si5 0.682266 0.828728 0.084247
Si Si6 0.319014 0.671389 0.994227
O O1 0.209124 0.250000 0.173761
O O2 0.262691 0.379030 0.195169
O O3 0.241006 0.344755 0.117074
O O4 0.000000 0.349353 0.163091
O O5 0.500000 0.544817 0.789848
O O6 0.750000 0.519165 0.750000
O O7 0.738987 0.486051 0.826021
O O8 0.500000 0.543755 0.130912
O O9 0.728622 0.478700 0.096624
O O10 0.749362 0.613402 0.115845
O O11 0.240276 0.881986 0.540535
O O12 0.000000 0.887913 0.590186
O O13 0.500000 0.829678 0.084730
O O14 0.740207 0.750000 0.096170
O O15 0.741162 0.849445 0.039050
O O16 0.500000 0.669794 0.995140
O O17 0.261781 0.750000 0.983313
#
# Coordination Sequence:
#
# PCOD8299448 Si02
#       6
#    16  16  16  16  16  16
#     4  10  20  32  46  66  92 122 155 186 215 251
#     4  10  20  34  51  69  89 113 143 180 222 269
#     4   8  15  26  40  61  86 114 148 181 220 269
#     4   9  16  26  41  62  91 124 156 190 222 255
#     4   8  13  22  37  60  91 120 145 181 228 270
#     4   8  13  20  33  57  88 121 154 186 222 259
#
# _framework density 17.544080000000001
#
# number of rings (size 3 to 8) (size 9 to 14) (size 15 to 20)
#    0.000    3.167    0.000    3.500    0.000    3.000 
#    0.000    3.333    0.000    0.500    0.000   10.500 
#    0.000   22.667    0.000    0.000    0.000    0.667 
#
# Total GULP energy -594818.827206 kJ/mol
# GULP energy per Si atom -12392.058900 kJ/mol
# Density = 1.750415 g / cm^3
# Si number density = 17.544080 Si / 1000 Ang^3
#
#
#
# Elastic Constant Matrix: (Units=GPa)
#
#
# Indices 1 2 3 4 5 6 
#
# 1 33.7111 22.9638 23.7171 0.0000 0.0000 0.0000
# 2 22.9638 128.4061 94.3305 0.0000 0.0000 0.0000
# 3 23.7171 94.3305 140.2775 0.0000 0.0000 0.0000
# 4 0.0000 0.0000 0.0000 19.1959 0.0000 0.0000
# 5 0.0000 0.0000 0.0000 0.0000 17.5723 0.0000
# 6 0.0000 0.0000 0.0000 0.0000 0.0000 8.4168
#
#
#
# Elastic Compliance Matrix: (Units=1/GPa)
#
#
# Indices 1 2 3 4 5 6 
#
# 1 0.034550 -0.003730 -0.003333 0.000000 0.000000 0.000000
# 2 -0.003730 0.015794 -0.009990 0.000000 0.000000 0.000000
# 3 -0.003333 -0.009990 0.014410 0.000000 0.000000 0.000000
# 4 0.000000 0.000000 0.000000 0.052094 0.000000 0.000000
# 5 0.000000 0.000000 0.000000 0.000000 0.056908 0.000000
# 6 0.000000 0.000000 0.000000 0.000000 0.000000 0.118809
#
#
# Mechanical properties :
#
#
# Convention : Reuss Voigt Hill
#
# Bulk Modulus (GPa) = 32.62947 64.93526 48.78236
# Shear Modulus (GPa) = 14.84176 19.79589 17.31883
#
# Velocity S-wave (km/s) = 2.91171 3.36274 3.14532
# Velocity P-wave (km/s) = 5.47202 7.22290 6.40755
#
# Compressibility (1/GPa) = 0.03064714
#
# Stress axis : x y z
#
# Youngs Moduli (GPa) = 28.94381 63.31601 69.39609
#
# Poissons Ratio (x) = 0.23619 0.23129
# Poissons Ratio (y) = 0.10797 0.69326
# Poissons Ratio (z) = 0.09647 0.63252
#
# Static dielectric constant tensor:
#      x y z
#    x 2.828090 0.000000 0.000000 
#    y 0.000000 3.492240 0.000000 
#    z 0.000000 0.000000 3.502680 
# 
# 
# High freq. dielectric constant tensor:
#      x y z
#    x 1.631810 0.000000 0.000000 
#    y 0.000000 1.669830 0.000000 
#    z 0.000000 0.000000 1.674780 
# 
# From -- ./inp_files/66105.got.cif
#   From: 2010.03.12/outbox.cif.g09.slc.cpg/sg74_34_cif.got.tgz:66105.got - 2010.04.16 15:46:19.
