data_PCOD8299183
_publ_section_title
;
Structure prediction by ZEFSAII (Michael W. Deem and Ramdas Pophale) SiO2 
 PCOD8299183
Probable space group: I M M A
;
_chemical_formula_sum "Si O2"
_cell_formula_units_Z 104
_cell_length_a 9.194070
_cell_length_b 21.469434
_cell_length_c 27.241192
_cell_angle_alpha 90.000000
_cell_angle_beta 90.000000
_cell_angle_gamma 90.000000
_cell_volume 5377.179180
_symmetry_space_group_name_H-M "I M M A"
_symmetry_group_IT_number 74
_symmetry_cell_setting 'orthorhombic'
loop_
_space_group_symop_operation_xyz
x,y,z
-x,1/2-y,z
x,-y,-z
-x,1/2+y,-z
-x,-y,-z
x,1/2+y,-z
-x,y,z
x,1/2-y,z
1/2+x,1/2+y,1/2+z
1/2-x,-y,1/2+z
1/2+x,1/2-y,1/2-z
1/2-x,y,1/2-z
1/2-x,1/2-y,1/2-z
1/2+x,y,1/2-z
1/2-x,1/2+y,1/2+z
1/2+x,-y,1/2+z
loop_
_atom_site_type_symbol
_atom_site_label
_atom_site_fract_x
_atom_site_fract_y
_atom_site_fract_z
Si Si1 0.665363 0.650770 0.140160
Si Si2 0.665073 0.531247 0.201358
Si Si3 0.827459 0.061372 0.471949
Si Si4 0.667298 0.176920 0.299143
Si Si5 0.671619 0.084151 0.138607
Si Si6 0.170768 0.180261 0.529226
Si Si7 0.670681 0.250000 0.699068
O O1 0.500000 0.674982 0.149274
O O2 0.682042 0.580022 0.157165
O O3 0.707145 0.657064 0.083660
O O4 0.782566 0.689132 0.170122
O O5 0.500000 0.525973 0.218444
O O6 0.750000 0.551200 0.250000
O O7 0.719804 0.466403 0.179037
O O8 0.781461 0.059711 0.415022
O O9 0.763778 0.126499 0.493908
O O10 0.000000 0.061246 0.478621
O O11 0.764248 0.000000 0.500000
O O12 0.500000 0.156172 0.294489
O O13 0.682545 0.250000 0.307027
O O14 0.750000 0.155108 0.250000
O O15 0.741326 0.146269 0.346971
O O16 0.500000 0.097822 0.139567
O O17 0.237627 0.250000 0.519637
O O18 0.000000 0.185052 0.520872
O O19 0.500000 0.250000 0.707753
O O20 0.750000 0.250000 0.750000
#
# Coordination Sequence:
#
# PCOD8299183 Si02
#       7
#    16  16  16  16  16  16   8
#     4  10  19  35  55  76 105 141 180 221 269 320
#     4  10  21  34  51  76 107 142 179 220 268 321
#     4   9  17  30  50  79 113 144 179 227 277 324
#     4  10  21  37  57  81 110 146 186 226 276 336
#     4  10  20  34  54  83 115 145 181 227 277 327
#     4   9  16  28  50  77 102 135 179 221 265 318
#     4  12  24  36  52  76 106 138 178 224 271 318
#
# _framework density 19.340996000000001
#
# number of rings (size 3 to 8) (size 9 to 14) (size 15 to 20)
#    0.000    2.154    0.769    3.000    0.000    8.923 
#    0.000    1.538    0.000    1.385    0.000    0.000 
#    0.000    0.000    0.000    0.000    0.000    0.000 
#
# Total GULP energy -644693.868717 kJ/mol
# GULP energy per Si atom -12397.959014 kJ/mol
# Density = 1.929698 g / cm^3
# Si number density = 19.340996 Si / 1000 Ang^3
#
#
#
# Elastic Constant Matrix: (Units=GPa)
#
#
# Indices 1 2 3 4 5 6 
#
# 1 67.8249 29.8041 36.8700 0.0000 0.0000 0.0000
# 2 29.8041 111.5643 56.2444 0.0000 0.0000 0.0000
# 3 36.8700 56.2444 105.4481 0.0000 0.0000 0.0000
# 4 0.0000 0.0000 0.0000 38.2921 0.0000 0.0000
# 5 0.0000 0.0000 0.0000 0.0000 21.6011 0.0000
# 6 0.0000 0.0000 0.0000 0.0000 0.0000 21.0129
#
#
#
# Elastic Compliance Matrix: (Units=1/GPa)
#
#
# Indices 1 2 3 4 5 6 
#
# 1 0.018631 -0.002316 -0.005279 0.000000 0.000000 0.000000
# 2 -0.002316 0.012548 -0.005883 0.000000 0.000000 0.000000
# 3 -0.005279 -0.005883 0.014467 0.000000 0.000000 0.000000
# 4 0.000000 0.000000 0.000000 0.026115 0.000000 0.000000
# 5 0.000000 0.000000 0.000000 0.000000 0.046294 0.000000
# 6 0.000000 0.000000 0.000000 0.000000 0.000000 0.047590
#
#
# Mechanical properties :
#
#
# Convention : Reuss Voigt Hill
#
# Bulk Modulus (GPa) = 53.50430 58.96381 56.23406
# Shear Modulus (GPa) = 25.14683 26.97579 26.06131
#
# Velocity S-wave (km/s) = 3.60972 3.73868 3.67477
# Velocity P-wave (km/s) = 6.71544 7.01353 6.86610
#
# Compressibility (1/GPa) = 0.01869009
#
# Stress axis : x y z
#
# Youngs Moduli (GPa) = 53.67315 79.69332 69.12161
#
# Poissons Ratio (x) = 0.18456 0.36491
# Poissons Ratio (y) = 0.12430 0.40666
# Poissons Ratio (z) = 0.28335 0.46885
#
# Static dielectric constant tensor:
#      x y z
#    x 3.300140 0.000000 0.000000 
#    y 0.000000 3.783470 0.000000 
#    z 0.000000 0.000000 4.051320 
# 
# 
# High freq. dielectric constant tensor:
#      x y z
#    x 1.705950 0.000000 0.000000 
#    y 0.000000 1.768420 0.000000 
#    z 0.000000 0.000000 1.756980 
# 
# From -- ./inp_files/64803.got.cif
#   From: 2010.03.12/outbox.cif.g09.slc.cpg/sg74_33_cif.got.tgz:64803.got - 2010.04.16 15:46:19.
