data_PCOD8299823
_publ_section_title
;
Structure prediction by ZEFSAII (Michael W. Deem and Ramdas Pophale) SiO2 
 PCOD8299823
Probable space group: I M M A
;
_chemical_formula_sum "Si O2"
_cell_formula_units_Z 96
_cell_length_a 14.255847
_cell_length_b 10.823660
_cell_length_c 36.558220
_cell_angle_alpha 90.000000
_cell_angle_beta 90.000000
_cell_angle_gamma 90.000000
_cell_volume 5640.949466
_symmetry_space_group_name_H-M "I M M A"
_symmetry_group_IT_number 74
_symmetry_cell_setting 'orthorhombic'
loop_
_space_group_symop_operation_xyz
x,y,z
-x,1/2-y,z
x,-y,-z
-x,1/2+y,-z
-x,-y,-z
x,1/2+y,-z
-x,y,z
x,1/2-y,z
1/2+x,1/2+y,1/2+z
1/2-x,-y,1/2+z
1/2+x,1/2-y,1/2-z
1/2-x,y,1/2-z
1/2-x,1/2-y,1/2-z
1/2+x,y,1/2-z
1/2-x,1/2+y,1/2+z
1/2+x,-y,1/2+z
loop_
_atom_site_type_symbol
_atom_site_label
_atom_site_fract_x
_atom_site_fract_y
_atom_site_fract_z
Si Si1 0.893728 0.977314 0.194080
Si Si2 0.265069 0.250000 0.706260
Si Si3 0.107884 0.750000 0.355483
Si Si4 0.892700 0.008612 0.392490
Si Si5 0.104029 0.391528 0.270972
Si Si6 0.733507 0.890000 0.833304
Si Si7 0.390579 0.106211 0.026989
O O1 0.830294 0.859106 0.193420
O O2 0.000000 0.952513 0.180990
O O3 0.890768 0.033109 0.234126
O O4 0.841703 0.066928 0.165066
O O5 0.250000 0.250000 0.750000
O O6 0.169910 0.250000 0.681753
O O7 0.128555 0.633586 0.381979
O O8 0.000000 0.750000 0.342052
O O9 0.000000 0.042622 0.382646
O O10 0.820250 0.093243 0.370887
O O11 0.871255 0.043919 0.433970
O O12 0.128708 0.250000 0.261676
O O13 0.175658 0.455069 0.299812
O O14 0.000000 0.401716 0.288191
O O15 0.732217 0.750000 0.822323
O O16 0.500000 0.118103 0.018747
O O17 0.349918 0.250000 0.023626
O O18 0.346906 0.000000 0.000000
#
# Coordination Sequence:
#
# PCOD8299823 Si02
#       7
#    16   8   8  16  16  16  16
#     4  11  23  36  49  67  93 129 170 217 267 319
#     4  12  23  39  54  71  97 132 177 227 276 329
#     4  10  22  37  56  77 102 138 180 227 274 323
#     4  10  20  34  52  76 106 138 176 219 264 313
#     4   9  18  32  49  69  92 121 162 211 264 320
#     4  11  20  32  51  72  96 129 167 215 265 315
#     4   9  18  31  50  77 111 147 180 212 252 312
#
# _framework density 17.018412000000001
#
# number of rings (size 3 to 8) (size 9 to 14) (size 15 to 20)
#    0.000    1.833    1.667    3.250    1.167    4.667 
#    0.000    0.000    0.000    0.000    0.000    0.000 
#    0.000    0.667    0.000    1.500    0.000    0.333 
#
# Total GULP energy -594633.879788 kJ/mol
# GULP energy per Si atom -12388.205829 kJ/mol
# Density = 1.697968 g / cm^3
# Si number density = 17.018412 Si / 1000 Ang^3
#
#
#
# Elastic Constant Matrix: (Units=GPa)
#
#
# Indices 1 2 3 4 5 6 
#
# 1 99.0295 36.2155 41.7787 0.0000 0.0000 0.0000
# 2 36.2155 86.1892 39.2589 0.0000 0.0000 0.0000
# 3 41.7787 39.2589 86.1823 0.0000 0.0000 0.0000
# 4 0.0000 0.0000 0.0000 24.9483 0.0000 0.0000
# 5 0.0000 0.0000 0.0000 0.0000 15.2674 0.0000
# 6 0.0000 0.0000 0.0000 0.0000 0.0000 42.5121
#
#
#
# Elastic Compliance Matrix: (Units=1/GPa)
#
#
# Indices 1 2 3 4 5 6 
#
# 1 0.013431 -0.003379 -0.004972 0.000000 0.000000 0.000000
# 2 -0.003379 0.015490 -0.005418 0.000000 0.000000 0.000000
# 3 -0.004972 -0.005418 0.016482 0.000000 0.000000 0.000000
# 4 0.000000 0.000000 0.000000 0.040083 0.000000 0.000000
# 5 0.000000 0.000000 0.000000 0.000000 0.065499 0.000000
# 6 0.000000 0.000000 0.000000 0.000000 0.000000 0.023523
#
#
# Mechanical properties :
#
#
# Convention : Reuss Voigt Hill
#
# Bulk Modulus (GPa) = 55.97542 56.21191 56.09366
# Shear Modulus (GPa) = 24.03836 26.82209 25.43023
#
# Velocity S-wave (km/s) = 3.76239 3.97427 3.86978
# Velocity P-wave (km/s) = 7.19976 7.35945 7.28005
#
# Compressibility (1/GPa) = 0.01786498
#
# Stress axis : x y z
#
# Youngs Moduli (GPa) = 74.45338 64.55707 60.67323
#
# Poissons Ratio (x) = 0.21813 0.30166
# Poissons Ratio (y) = 0.25157 0.32874
# Poissons Ratio (z) = 0.37017 0.34979
#
# Static dielectric constant tensor:
#      x y z
#    x 3.431390 0.000000 0.000000 
#    y 0.000000 3.262330 0.000000 
#    z 0.000000 0.000000 2.993880 
# 
# 
# High freq. dielectric constant tensor:
#      x y z
#    x 1.630980 0.000000 0.000000 
#    y 0.000000 1.678740 0.000000 
#    z 0.000000 0.000000 1.627740 
# 
# From -- ./inp_files/72440.got.cif
#   From: 2010.03.12/outbox.cif.g09.slc.cpg/sg74_37_cif.got.tgz:72440.got - 2010.04.16 15:46:19.
