data_PCOD8299538
_publ_section_title
;
Structure prediction by ZEFSAII (Michael W. Deem and Ramdas Pophale) SiO2 
 PCOD8299538
Probable space group: I M M A
;
_chemical_formula_sum "Si O2"
_cell_formula_units_Z 64
_cell_length_a 7.707387
_cell_length_b 9.377500
_cell_length_c 48.502952
_cell_angle_alpha 90.000000
_cell_angle_beta 90.000000
_cell_angle_gamma 90.000000
_cell_volume 3505.600406
_symmetry_space_group_name_H-M "I M M A"
_symmetry_group_IT_number 74
_symmetry_cell_setting 'orthorhombic'
loop_
_space_group_symop_operation_xyz
x,y,z
-x,1/2-y,z
x,-y,-z
-x,1/2+y,-z
-x,-y,-z
x,1/2+y,-z
-x,y,z
x,1/2-y,z
1/2+x,1/2+y,1/2+z
1/2-x,-y,1/2+z
1/2+x,1/2-y,1/2-z
1/2-x,y,1/2-z
1/2-x,1/2-y,1/2-z
1/2+x,y,1/2-z
1/2-x,1/2+y,1/2+z
1/2+x,-y,1/2+z
loop_
_atom_site_type_symbol
_atom_site_label
_atom_site_fract_x
_atom_site_fract_y
_atom_site_fract_z
Si Si1 0.794114 0.089255 0.525685
Si Si2 0.307279 0.081681 0.584805
Si Si3 0.000000 0.419350 0.319360
Si Si4 0.306371 0.080765 0.279678
Si Si5 0.500000 0.579837 0.123408
O O1 0.724586 0.250000 0.522302
O O2 0.725677 0.019349 0.554185
O O3 0.000000 0.085863 0.526401
O O4 0.720092 0.000000 0.500000
O O5 0.500000 0.038963 0.594908
O O6 0.282352 0.250000 0.582520
O O7 0.168843 0.024223 0.606839
O O8 0.170789 0.469801 0.302779
O O9 0.000000 0.502601 0.347663
O O10 0.000000 0.250000 0.324444
O O11 0.500000 0.025708 0.287219
O O12 0.304273 0.250000 0.277821
O O13 0.250000 0.017871 0.250000
O O14 0.500000 0.750000 0.127618
#
# Coordination Sequence:
#
# PCOD8299538 Si02
#       5
#    16  16   8  16   8
#     4   9  16  28  47  71  96 121 154 197 244 290
#     4   9  17  31  52  72  91 125 170 206 234 280
#     4  10  20  32  50  77 103 126 157 202 246 280
#     4   9  15  26  47  75 102 127 158 193 231 281
#     4  10  20  36  53  69  95 130 170 204 236 282
#
# _framework density 18.256502000000001
#
# number of rings (size 3 to 8) (size 9 to 14) (size 15 to 20)
#    0.000    2.750    2.500    0.000    0.000    1.500 
#    0.000    1.250    0.000    2.250    0.000    0.000 
#    0.000    0.000    0.000    0.000    0.000    0.000 
#
# Total GULP energy -396668.643922 kJ/mol
# GULP energy per Si atom -12395.895123 kJ/mol
# Density = 1.821495 g / cm^3
# Si number density = 18.256502 Si / 1000 Ang^3
#
#
#
# Elastic Constant Matrix: (Units=GPa)
#
#
# Indices 1 2 3 4 5 6 
#
# 1 152.0259 22.6235 92.4043 0.0000 0.0000 0.0000
# 2 22.6235 27.8835 38.5938 0.0000 0.0000 0.0000
# 3 92.4043 38.5938 182.5117 0.0000 0.0000 0.0000
# 4 0.0000 0.0000 0.0000 30.3276 0.0000 0.0000
# 5 0.0000 0.0000 0.0000 0.0000 13.0304 0.0000
# 6 0.0000 0.0000 0.0000 0.0000 0.0000 5.6244
#
#
#
# Elastic Compliance Matrix: (Units=1/GPa)
#
#
# Indices 1 2 3 4 5 6 
#
# 1 0.009546 -0.001493 -0.004517 0.000000 0.000000 0.000000
# 2 -0.001493 0.050937 -0.010015 0.000000 0.000000 0.000000
# 3 -0.004517 -0.010015 0.009884 0.000000 0.000000 0.000000
# 4 0.000000 0.000000 0.000000 0.032973 0.000000 0.000000
# 5 0.000000 0.000000 0.000000 0.000000 0.076743 0.000000
# 6 0.000000 0.000000 0.000000 0.000000 0.000000 0.177796
#
#
# Mechanical properties :
#
#
# Convention : Reuss Voigt Hill
#
# Bulk Modulus (GPa) = 26.09866 74.40714 50.25290
# Shear Modulus (GPa) = 12.41612 23.71645 18.06629
#
# Velocity S-wave (km/s) = 2.61069 3.60817 3.14917
# Velocity P-wave (km/s) = 4.83882 7.62912 6.38818
#
# Compressibility (1/GPa) = 0.03831614
#
# Stress axis : x y z
#
# Youngs Moduli (GPa) = 104.76016 19.63210 101.17343
#
# Poissons Ratio (x) = 0.02930 0.45703
# Poissons Ratio (y) = 0.15636 1.01330
# Poissons Ratio (z) = 0.47323 0.19662
#
# Static dielectric constant tensor:
#      x y z
#    x 3.646470 0.000000 0.000000 
#    y 0.000000 2.858010 0.000000 
#    z 0.000000 0.000000 3.407100 
# 
# 
# High freq. dielectric constant tensor:
#      x y z
#    x 1.722710 0.000000 0.000000 
#    y 0.000000 1.640180 0.000000 
#    z 0.000000 0.000000 1.711420 
# 
# From -- ./inp_files/69799.got.cif
#   From: 2010.03.12/outbox.cif.g09.slc.cpg/sg74_35_cif.got.tgz:69799.got - 2010.04.16 15:46:19.
