data_PCOD8299773
_publ_section_title
;
Structure prediction by ZEFSAII (Michael W. Deem and Ramdas Pophale) SiO2 
 PCOD8299773
Probable space group: I M M A
;
_chemical_formula_sum "Si O2"
_cell_formula_units_Z 72
_cell_length_a 29.552349
_cell_length_b 9.442742
_cell_length_c 14.324710
_cell_angle_alpha 90.000000
_cell_angle_beta 90.000000
_cell_angle_gamma 90.000000
_cell_volume 3997.384916
_symmetry_space_group_name_H-M "I M M A"
_symmetry_group_IT_number 74
_symmetry_cell_setting 'orthorhombic'
loop_
_space_group_symop_operation_xyz
x,y,z
-x,1/2-y,z
x,-y,-z
-x,1/2+y,-z
-x,-y,-z
x,1/2+y,-z
-x,y,z
x,1/2-y,z
1/2+x,1/2+y,1/2+z
1/2-x,-y,1/2+z
1/2+x,1/2-y,1/2-z
1/2-x,y,1/2-z
1/2-x,1/2-y,1/2-z
1/2+x,y,1/2-z
1/2-x,1/2+y,1/2+z
1/2+x,-y,1/2+z
loop_
_atom_site_type_symbol
_atom_site_label
_atom_site_fract_x
_atom_site_fract_y
_atom_site_fract_z
Si Si1 0.000000 0.418675 0.904968
Si Si2 0.183368 0.582473 0.219136
Si Si3 0.733753 0.918345 0.096497
Si Si4 0.916882 0.581538 0.218704
Si Si5 0.553744 0.908433 0.084099
O O1 0.954832 0.472538 0.852638
O O2 0.000000 0.250000 0.919068
O O3 0.000000 0.500000 0.000000
O O4 0.184685 0.750000 0.219379
O O5 0.217889 0.530718 0.138983
O O6 0.197070 0.535611 0.324544
O O7 0.133280 0.526080 0.192052
O O8 0.732583 0.750000 0.077326
O O9 0.724010 0.000000 0.000000
O O10 0.919092 0.750000 0.222247
O O11 0.928578 0.521598 0.320756
O O12 0.500000 0.908534 0.085236
O O13 0.572626 0.750000 0.071826
O O14 0.573737 0.000000 0.000000
#
# Coordination Sequence:
#
# PCOD8299773 Si02
#       5
#     8  16  16  16  16
#     4  10  20  34  51  70  92 122 161 198 231 268
#     4   8  16  30  48  69  93 124 158 188 225 279
#     4   9  17  31  50  71  94 121 154 191 232 277
#     4   9  16  30  50  68  91 125 161 191 223 274
#     4   9  16  27  44  66  89 116 150 185 223 268
#
# _framework density 18.011776000000001
#
# number of rings (size 3 to 8) (size 9 to 14) (size 15 to 20)
#    0.000    3.111    1.111    1.333    0.000    1.778 
#    0.000    3.333    0.000    2.667    0.000    0.000 
#    0.000    0.000    0.000    0.000    0.000    0.000 
#
# Total GULP energy -446101.317049 kJ/mol
# GULP energy per Si atom -12391.703251 kJ/mol
# Density = 1.797078 g / cm^3
# Si number density = 18.011776 Si / 1000 Ang^3
#
#
#
# Elastic Constant Matrix: (Units=GPa)
#
#
# Indices 1 2 3 4 5 6 
#
# 1 126.0648 18.0663 59.9549 0.0000 0.0000 0.0000
# 2 18.0663 27.9948 24.5318 0.0000 0.0000 0.0000
# 3 59.9549 24.5318 111.0113 0.0000 0.0000 0.0000
# 4 0.0000 0.0000 0.0000 33.9550 0.0000 0.0000
# 5 0.0000 0.0000 0.0000 0.0000 16.0305 0.0000
# 6 0.0000 0.0000 0.0000 0.0000 0.0000 8.6408
#
#
#
# Elastic Compliance Matrix: (Units=1/GPa)
#
#
# Indices 1 2 3 4 5 6 
#
# 1 0.010793 -0.002303 -0.005320 0.000000 0.000000 0.000000
# 2 -0.002303 0.044791 -0.008654 0.000000 0.000000 0.000000
# 3 -0.005320 -0.008654 0.013794 0.000000 0.000000 0.000000
# 4 0.000000 0.000000 0.000000 0.029451 0.000000 0.000000
# 5 0.000000 0.000000 0.000000 0.000000 0.062381 0.000000
# 6 0.000000 0.000000 0.000000 0.000000 0.000000 0.115729
#
#
# Mechanical properties :
#
#
# Convention : Reuss Voigt Hill
#
# Bulk Modulus (GPa) = 27.15719 52.24186 39.69953
# Shear Modulus (GPa) = 15.53919 22.55979 19.04949
#
# Velocity S-wave (km/s) = 2.94040 3.54291 3.25562
# Velocity P-wave (km/s) = 5.16122 6.76783 6.01838
#
# Compressibility (1/GPa) = 0.03682266
#
# Stress axis : x y z
#
# Youngs Moduli (GPa) = 92.65641 22.32601 72.49694
#
# Poissons Ratio (x) = 0.05142 0.38568
# Poissons Ratio (y) = 0.21340 0.62740
# Poissons Ratio (z) = 0.49292 0.19321
#
# Static dielectric constant tensor:
#      x y z
#    x 3.785480 0.000000 0.000000 
#    y 0.000000 2.891110 0.000000 
#    z 0.000000 0.000000 3.361740 
# 
# 
# High freq. dielectric constant tensor:
#      x y z
#    x 1.703190 0.000000 0.000000 
#    y 0.000000 1.641360 0.000000 
#    z 0.000000 0.000000 1.701370 
# 
# From -- ./inp_files/18935.got.cif
#   From: 2010.03.12/outbox.cif.g09.slc.cpg/sg74_10_cif.got.tgz:18935.got - 2010.04.16 15:46:19.
