data_PCOD8299595
_publ_section_title
;
Structure prediction by ZEFSAII (Michael W. Deem and Ramdas Pophale) SiO2 
 PCOD8299595
Probable space group: I M M A
;
_chemical_formula_sum "Si O2"
_cell_formula_units_Z 96
_cell_length_a 9.149998
_cell_length_b 18.102479
_cell_length_c 28.792937
_cell_angle_alpha 90.000000
_cell_angle_beta 90.000000
_cell_angle_gamma 90.000000
_cell_volume 4769.194325
_symmetry_space_group_name_H-M "I M M A"
_symmetry_group_IT_number 74
_symmetry_cell_setting 'orthorhombic'
loop_
_space_group_symop_operation_xyz
x,y,z
-x,1/2-y,z
x,-y,-z
-x,1/2+y,-z
-x,-y,-z
x,1/2+y,-z
-x,y,z
x,1/2-y,z
1/2+x,1/2+y,1/2+z
1/2-x,-y,1/2+z
1/2+x,1/2-y,1/2-z
1/2-x,y,1/2-z
1/2-x,1/2-y,1/2-z
1/2+x,y,1/2-z
1/2-x,1/2+y,1/2+z
1/2+x,-y,1/2+z
loop_
_atom_site_type_symbol
_atom_site_label
_atom_site_fract_x
_atom_site_fract_y
_atom_site_fract_z
Si Si1 0.826049 0.831984 0.855315
Si Si2 0.661720 0.337206 0.457183
Si Si3 0.828061 0.601543 0.132865
Si Si4 0.171680 0.030874 0.201881
Si Si5 0.159163 0.333545 0.709096
Si Si6 0.171809 0.336406 0.547713
O O1 0.762489 0.750000 0.844149
O O2 0.776389 0.860851 0.906490
O O3 0.771938 0.889276 0.816224
O O4 0.000000 0.828779 0.856193
O O5 0.500000 0.371870 0.466644
O O6 0.645107 0.250000 0.456626
O O7 0.775592 0.361731 0.496683
O O8 0.788584 0.526770 0.160786
O O9 0.753050 0.666836 0.162206
O O10 0.755527 0.607799 0.082325
O O11 0.000000 0.614076 0.128194
O O12 0.250000 0.011551 0.250000
O O13 0.000000 0.030438 0.211214
O O14 0.131625 0.250000 0.724280
O O15 0.250000 0.374914 0.750000
O O16 0.000000 0.372375 0.703159
O O17 0.211081 0.250000 0.557102
O O18 0.000000 0.349528 0.552145
#
# Coordination Sequence:
#
# PCOD8299595 Si02
#       6
#    16  16  16  16  16  16
#     4   8  15  32  59  85 107 133 168 211 257 309
#     4   8  14  28  53  81 105 133 170 210 254 305
#     4  11  22  34  49  70 100 139 179 216 255 303
#     4  10  22  38  55  78 106 137 174 215 262 313
#     4  10  20  33  49  69  93 124 167 218 266 309
#     4  10  20  33  51  77 108 140 175 217 261 304
#
# _framework density 20.129185
#
# number of rings (size 3 to 8) (size 9 to 14) (size 15 to 20)
#    0.000    2.500    0.000    3.500    0.000    7.000 
#    0.000    1.667    0.000    6.000    0.000    0.000 
#    0.000    0.000    0.000    0.000    0.000    0.000 
#
# Total GULP energy -594821.301800 kJ/mol
# GULP energy per Si atom -12392.110454 kJ/mol
# Density = 2.008337 g / cm^3
# Si number density = 20.129185 Si / 1000 Ang^3
#
#
#
# Elastic Constant Matrix: (Units=GPa)
#
#
# Indices 1 2 3 4 5 6 
#
# 1 97.8058 36.1562 46.5897 0.0000 0.0000 0.0000
# 2 36.1562 72.0010 42.9293 0.0000 0.0000 0.0000
# 3 46.5897 42.9293 104.3516 0.0000 0.0000 0.0000
# 4 0.0000 0.0000 0.0000 16.9794 0.0000 0.0000
# 5 0.0000 0.0000 0.0000 0.0000 27.4921 0.0000
# 6 0.0000 0.0000 0.0000 0.0000 0.0000 11.9104
#
#
#
# Elastic Compliance Matrix: (Units=1/GPa)
#
#
# Indices 1 2 3 4 5 6 
#
# 1 0.013948 -0.004361 -0.004433 0.000000 0.000000 0.000000
# 2 -0.004361 0.019766 -0.006185 0.000000 0.000000 0.000000
# 3 -0.004433 -0.006185 0.014107 0.000000 0.000000 0.000000
# 4 0.000000 0.000000 0.000000 0.058895 0.000000 0.000000
# 5 0.000000 0.000000 0.000000 0.000000 0.036374 0.000000
# 6 0.000000 0.000000 0.000000 0.000000 0.000000 0.083960
#
#
# Mechanical properties :
#
#
# Convention : Reuss Voigt Hill
#
# Bulk Modulus (GPa) = 55.98123 58.38988 57.18555
# Shear Modulus (GPa) = 19.01409 21.17523 20.09466
#
# Velocity S-wave (km/s) = 3.07677 3.24692 3.16299
# Velocity P-wave (km/s) = 6.36344 6.56713 6.46609
#
# Compressibility (1/GPa) = 0.01786313
#
# Stress axis : x y z
#
# Youngs Moduli (GPa) = 71.69312 50.59182 70.88867
#
# Poissons Ratio (x) = 0.22063 0.31428
# Poissons Ratio (y) = 0.31265 0.43841
# Poissons Ratio (z) = 0.31785 0.31289
#
# Static dielectric constant tensor:
#      x y z
#    x 3.632210 0.000000 0.000000 
#    y 0.000000 3.550610 0.000000 
#    z 0.000000 0.000000 3.893090 
# 
# 
# High freq. dielectric constant tensor:
#      x y z
#    x 1.770410 0.000000 0.000000 
#    y 0.000000 1.757330 0.000000 
#    z 0.000000 0.000000 1.791200 
# 
# From -- ./inp_files/64263.got.cif
#   From: 2010.03.12/outbox.cif.g09.slc.cpg/sg74_33_cif.got.tgz:64263.got - 2010.04.16 15:46:19.
