data_PCOD8299244
_publ_section_title
;
Structure prediction by ZEFSAII (Michael W. Deem and Ramdas Pophale) SiO2 
 PCOD8299244
Probable space group: I M M A
;
_chemical_formula_sum "Si O2"
_cell_formula_units_Z 88
_cell_length_a 27.694971
_cell_length_b 8.806630
_cell_length_c 19.564772
_cell_angle_alpha 90.000000
_cell_angle_beta 90.000000
_cell_angle_gamma 90.000000
_cell_volume 4771.835417
_symmetry_space_group_name_H-M "I M M A"
_symmetry_group_IT_number 74
_symmetry_cell_setting 'orthorhombic'
loop_
_space_group_symop_operation_xyz
x,y,z
-x,1/2-y,z
x,-y,-z
-x,1/2+y,-z
-x,-y,-z
x,1/2+y,-z
-x,y,z
x,1/2-y,z
1/2+x,1/2+y,1/2+z
1/2-x,-y,1/2+z
1/2+x,1/2-y,1/2-z
1/2-x,y,1/2-z
1/2-x,1/2-y,1/2-z
1/2+x,y,1/2-z
1/2-x,1/2+y,1/2+z
1/2+x,-y,1/2+z
loop_
_atom_site_type_symbol
_atom_site_label
_atom_site_fract_x
_atom_site_fract_y
_atom_site_fract_z
Si Si1 0.210822 0.429849 0.346187
Si Si2 0.000000 0.430816 0.074278
Si Si3 0.813405 0.570162 0.805436
Si Si4 0.055453 0.574776 0.674955
Si Si5 0.628639 0.928610 0.072045
Si Si6 0.418403 0.430272 0.325628
O O1 0.206055 0.250000 0.356478
O O2 0.189525 0.483125 0.273220
O O3 0.267004 0.484532 0.349183
O O4 0.181447 0.513085 0.405472
O O5 0.047213 0.492521 0.114427
O O6 0.000000 0.250000 0.069597
O O7 0.000000 0.500000 0.000000
O O8 0.812476 0.750000 0.804412
O O9 0.863576 0.509167 0.837722
O O10 0.072188 0.750000 0.669066
O O11 0.087927 0.473845 0.626004
O O12 0.062137 0.514908 0.752232
O O13 0.000000 0.555820 0.653011
O O14 0.630305 0.750000 0.064241
O O15 0.614309 0.000000 0.000000
O O16 0.419906 0.250000 0.326965
#
# Coordination Sequence:
#
# PCOD8299244 Si02
#       6
#    16   8  16  16  16  16
#     4   9  16  31  55  82 108 138 180 225 271 325
#     4  10  20  34  54  80 111 148 181 216 265 322
#     4   8  14  26  54  86 108 135 176 225 270 323
#     4  10  19  35  61  87 108 137 185 237 276 325
#     4  12  25  39  55  77 111 153 187 229 281 334
#     4   9  15  29  56  85 109 141 184 221 263 325
#
# _framework density 18.441541000000001
#
# number of rings (size 3 to 8) (size 9 to 14) (size 15 to 20)
#    0.000    2.364    2.727    2.727    0.000    0.727 
#    0.000    3.636    0.000    2.182    0.000    0.000 
#    0.000    0.000    0.000    0.000    0.000    0.000 
#
# Total GULP energy -545437.285604 kJ/mol
# GULP energy per Si atom -12396.301946 kJ/mol
# Density = 1.839957 g / cm^3
# Si number density = 18.441541 Si / 1000 Ang^3
#
#
#
# Elastic Constant Matrix: (Units=GPa)
#
#
# Indices 1 2 3 4 5 6 
#
# 1 154.8246 32.4071 66.0807 0.0000 0.0000 0.0000
# 2 32.4071 62.9463 35.8355 0.0000 0.0000 0.0000
# 3 66.0807 35.8355 120.3059 0.0000 0.0000 0.0000
# 4 0.0000 0.0000 0.0000 25.4944 0.0000 0.0000
# 5 0.0000 0.0000 0.0000 0.0000 28.0565 0.0000
# 6 0.0000 0.0000 0.0000 0.0000 0.0000 15.0079
#
#
#
# Elastic Compliance Matrix: (Units=1/GPa)
#
#
# Indices 1 2 3 4 5 6 
#
# 1 0.008663 -0.002109 -0.004130 0.000000 0.000000 0.000000
# 2 -0.002109 0.019644 -0.004693 0.000000 0.000000 0.000000
# 3 -0.004130 -0.004693 0.011979 0.000000 0.000000 0.000000
# 4 0.000000 0.000000 0.000000 0.039224 0.000000 0.000000
# 5 0.000000 0.000000 0.000000 0.000000 0.035642 0.000000
# 6 0.000000 0.000000 0.000000 0.000000 0.000000 0.066631
#
#
# Mechanical properties :
#
#
# Convention : Reuss Voigt Hill
#
# Bulk Modulus (GPa) = 54.28393 67.41371 60.84882
# Shear Modulus (GPa) = 23.83348 27.29533 25.56440
#
# Velocity S-wave (km/s) = 3.59887 3.85138 3.72726
# Velocity P-wave (km/s) = 6.83877 7.51081 7.18265
#
# Compressibility (1/GPa) = 0.01842166
#
# Stress axis : x y z
#
# Youngs Moduli (GPa) = 115.43121 50.90611 83.48114
#
# Poissons Ratio (x) = 0.10735 0.34480
# Poissons Ratio (y) = 0.24341 0.39179
# Poissons Ratio (z) = 0.47677 0.23891
#
# Static dielectric constant tensor:
#      x y z
#    x 3.957110 0.000000 0.000000 
#    y 0.000000 2.940220 0.000000 
#    z 0.000000 0.000000 3.275640 
# 
# 
# High freq. dielectric constant tensor:
#      x y z
#    x 1.737280 0.000000 0.000000 
#    y 0.000000 1.669460 0.000000 
#    z 0.000000 0.000000 1.695700 
# 
# From -- ./inp_files/40156.got.cif
#   From: 2010.03.12/outbox.cif.g09.slc.cpg/sg74_21_cif.got.tgz:40156.got - 2010.04.16 15:46:19.
