data_PCOD8299907
_publ_section_title
;
Structure prediction by ZEFSAII (Michael W. Deem and Ramdas Pophale) SiO2 
 PCOD8299907
Probable space group: I M M A
;
_chemical_formula_sum "Si O2"
_cell_formula_units_Z 80
_cell_length_a 29.046689
_cell_length_b 9.188578
_cell_length_c 15.202696
_cell_angle_alpha 90.000000
_cell_angle_beta 90.000000
_cell_angle_gamma 90.000000
_cell_volume 4057.565623
_symmetry_space_group_name_H-M "I M M A"
_symmetry_group_IT_number 74
_symmetry_cell_setting 'orthorhombic'
loop_
_space_group_symop_operation_xyz
x,y,z
-x,1/2-y,z
x,-y,-z
-x,1/2+y,-z
-x,-y,-z
x,1/2+y,-z
-x,y,z
x,1/2-y,z
1/2+x,1/2+y,1/2+z
1/2-x,-y,1/2+z
1/2+x,1/2-y,1/2-z
1/2-x,y,1/2-z
1/2-x,1/2-y,1/2-z
1/2+x,y,1/2-z
1/2-x,1/2+y,1/2+z
1/2+x,-y,1/2+z
loop_
_atom_site_type_symbol
_atom_site_label
_atom_site_fract_x
_atom_site_fract_y
_atom_site_fract_z
Si Si1 0.361402 0.920106 0.227905
Si Si2 0.817553 0.920064 0.087785
Si Si3 0.947883 0.090178 0.922425
Si Si4 0.948953 0.579218 0.742522
Si Si5 0.213283 0.920638 0.412458
O O1 0.371118 0.750000 0.217315
O O2 0.350577 0.960745 0.329972
O O3 0.318208 0.968957 0.169260
O O4 0.406538 0.005440 0.190307
O O5 0.818570 0.750000 0.068819
O O6 0.765374 0.968338 0.110663
O O7 0.835280 0.000000 0.000000
O O8 0.923919 0.250000 0.908420
O O9 0.000000 0.119762 0.951410
O O10 0.946145 0.994134 0.836627
O O11 0.922528 0.000000 0.000000
O O12 0.940473 0.750000 0.750928
O O13 0.000000 0.548747 0.700727
O O14 0.209580 0.750000 0.429325
O O15 0.195525 0.000000 0.500000
#
# Coordination Sequence:
#
# PCOD8299907 Si02
#       5
#    16  16  16  16  16
#     4  10  20  34  54  78 105 140 178 215 259 313
#     4   9  18  33  53  79 111 143 173 207 251 307
#     4   9  16  27  44  64  87 119 161 207 253 302
#     4  10  21  35  49  68  97 133 174 221 268 310
#     4   9  18  34  56  81 108 137 170 211 261 316
#
# _framework density 19.716255
#
# number of rings (size 3 to 8) (size 9 to 14) (size 15 to 20)
#    0.000    2.600    0.000    1.800    0.000    8.400 
#    0.000    2.000    0.000    6.600    0.000    0.000 
#    0.000    0.000    0.000    0.000    0.000    0.000 
#
# Total GULP energy -495701.541950 kJ/mol
# GULP energy per Si atom -12392.538549 kJ/mol
# Density = 1.967138 g / cm^3
# Si number density = 19.716255 Si / 1000 Ang^3
#
#
#
# Elastic Constant Matrix: (Units=GPa)
#
#
# Indices 1 2 3 4 5 6 
#
# 1 131.9810 49.7876 28.6250 0.0000 0.0000 0.0000
# 2 49.7876 67.2431 26.7276 0.0000 0.0000 0.0000
# 3 28.6250 26.7276 53.2768 0.0000 0.0000 0.0000
# 4 0.0000 0.0000 0.0000 27.5837 0.0000 0.0000
# 5 0.0000 0.0000 0.0000 0.0000 -25.0799 0.0000
# 6 0.0000 0.0000 0.0000 0.0000 0.0000 1.7257
#
#
#
# Elastic Compliance Matrix: (Units=1/GPa)
#
#
# Indices 1 2 3 4 5 6 
#
# 1 0.010720 -0.007054 -0.002221 0.000000 0.000000 0.000000
# 2 -0.007054 0.023218 -0.007858 0.000000 0.000000 0.000000
# 3 -0.002221 -0.007858 0.023905 0.000000 0.000000 0.000000
# 4 0.000000 0.000000 0.000000 0.036253 0.000000 0.000000
# 5 0.000000 0.000000 0.000000 0.000000 -0.039873 0.000000
# 6 0.000000 0.000000 0.000000 0.000000 0.000000 0.579480
#
#
# Mechanical properties :
#
#
# Convention : Reuss Voigt Hill
#
# Bulk Modulus (GPa) = 42.41348 51.42016 46.91682
# Shear Modulus (GPa) = 7.39835 10.66995 9.03415
#
# Velocity S-wave (km/s) = 1.93922 2.32884 2.14290
# Velocity P-wave (km/s) = 5.15487 5.77651 5.47452
#
# Compressibility (1/GPa) = 0.02357741
#
# Stress axis : x y z
#
# Youngs Moduli (GPa) = 93.28734 43.07062 41.83245
#
# Poissons Ratio (x) = 0.30383 0.09289
# Poissons Ratio (y) = 0.65808 0.32870
# Poissons Ratio (z) = 0.20715 0.33843
#
# Static dielectric constant tensor:
#      x y z
#    x 4.265440 0.000000 0.000000 
#    y 0.000000 4.952390 0.000000 
#    z 0.000000 0.000000 3.307850 
# 
# 
# High freq. dielectric constant tensor:
#      x y z
#    x 1.788420 0.000000 0.000000 
#    y 0.000000 1.766740 0.000000 
#    z 0.000000 0.000000 1.726530 
# 
# From -- ./inp_files/46502.got.cif
#   From: 2010.03.12/outbox.cif.g09.slc.cpg/sg74_24_cif.got.tgz:46502.got - 2010.04.16 15:46:19.
