data_PCOD8299236
_publ_section_title
;
Structure prediction by ZEFSAII (Michael W. Deem and Ramdas Pophale) SiO2 
 PCOD8299236
Probable space group: I M M A
;
_chemical_formula_sum "Si O2"
_cell_formula_units_Z 80
_cell_length_a 20.536478
_cell_length_b 17.393716
_cell_length_c 11.424787
_cell_angle_alpha 90.000000
_cell_angle_beta 90.000000
_cell_angle_gamma 90.000000
_cell_volume 4080.998649
_symmetry_space_group_name_H-M "I M M A"
_symmetry_group_IT_number 74
_symmetry_cell_setting 'orthorhombic'
loop_
_space_group_symop_operation_xyz
x,y,z
-x,1/2-y,z
x,-y,-z
-x,1/2+y,-z
-x,-y,-z
x,1/2+y,-z
-x,y,z
x,1/2-y,z
1/2+x,1/2+y,1/2+z
1/2-x,-y,1/2+z
1/2+x,1/2-y,1/2-z
1/2-x,y,1/2-z
1/2-x,1/2-y,1/2-z
1/2+x,y,1/2-z
1/2-x,1/2+y,1/2+z
1/2+x,-y,1/2+z
loop_
_atom_site_type_symbol
_atom_site_label
_atom_site_fract_x
_atom_site_fract_y
_atom_site_fract_z
Si Si1 0.743700 0.836779 0.112790
Si Si2 0.375533 0.089395 0.003404
Si Si3 0.500000 0.842021 0.382859
Si Si4 0.628073 0.159295 0.490261
Si Si5 0.000000 0.159423 0.616456
Si Si6 0.825449 0.659747 0.738182
O O1 0.731069 0.750000 0.063939
O O2 0.750000 0.834496 0.250000
O O3 0.685197 0.892144 0.079150
O O4 0.809115 0.872875 0.058527
O O5 0.437245 0.133863 0.954525
O O6 0.360540 0.114323 0.135274
O O7 0.391119 0.000000 0.000000
O O8 0.500000 0.750000 0.384916
O O9 0.562879 0.875403 0.451746
O O10 0.500000 0.873382 0.249550
O O11 0.626908 0.250000 0.506782
O O12 0.634387 0.136997 0.354300
O O13 0.000000 0.250000 0.624418
O O14 0.829446 0.750000 0.711865
O O15 0.750000 0.634636 0.750000
#
# Coordination Sequence:
#
# PCOD8299236 Si02
#       6
#    16  16   8  16   8  16
#     4  10  19  35  60  87 114 154 210 258 298 355
#     4  12  25  39  58  87 125 161 198 251 313 373
#     4   9  18  34  59  93 122 145 185 252 309 345
#     4   9  17  31  57  89 117 147 191 249 302 346
#     4  11  23  42  65  85 115 158 207 250 298 365
#     4  10  19  36  62  88 118 156 205 255 297 353
#
# _framework density 19.603044000000001
#
# number of rings (size 3 to 8) (size 9 to 14) (size 15 to 20)
#    0.000    1.800    2.000    3.300    0.000    4.800 
#    0.000    2.000    0.000    1.200    0.000    0.000 
#    0.000    0.000    0.000    0.000    0.000    0.000 
#
# Total GULP energy -496058.457016 kJ/mol
# GULP energy per Si atom -12401.461425 kJ/mol
# Density = 1.955843 g / cm^3
# Si number density = 19.603044 Si / 1000 Ang^3
#
#
#
# Elastic Constant Matrix: (Units=GPa)
#
#
# Indices 1 2 3 4 5 6 
#
# 1 162.0898 24.3817 76.3338 0.0000 0.0000 0.0000
# 2 24.3817 46.1747 33.2412 0.0000 0.0000 0.0000
# 3 76.3338 33.2412 152.5082 0.0000 0.0000 0.0000
# 4 0.0000 0.0000 0.0000 10.7928 0.0000 0.0000
# 5 0.0000 0.0000 0.0000 0.0000 36.6426 0.0000
# 6 0.0000 0.0000 0.0000 0.0000 0.0000 -79.2898
#
#
#
# Elastic Compliance Matrix: (Units=1/GPa)
#
#
# Indices 1 2 3 4 5 6 
#
# 1 0.008174 -0.001626 -0.003737 0.000000 0.000000 0.000000
# 2 -0.001626 0.026011 -0.004856 0.000000 0.000000 0.000000
# 3 -0.003737 -0.004856 0.009486 0.000000 0.000000 0.000000
# 4 0.000000 0.000000 0.000000 0.092654 0.000000 0.000000
# 5 0.000000 0.000000 0.000000 0.000000 0.027291 0.000000
# 6 0.000000 0.000000 0.000000 0.000000 0.000000 -0.012612
#
#
# Mechanical properties :
#
#
# Convention : Reuss Voigt Hill
#
# Bulk Modulus (GPa) = 43.04069 69.85401 56.44735
# Shear Modulus (GPa) = 27.90419 8.75019 18.32719
#
# Velocity S-wave (km/s) = 3.77697 2.11504 3.06096
# Velocity P-wave (km/s) = 6.40504 6.45571 6.43042
#
# Compressibility (1/GPa) = 0.02323383
#
# Stress axis : x y z
#
# Youngs Moduli (GPa) = 122.34266 38.44532 105.42176
#
# Poissons Ratio (x) = 0.06251 0.39394
# Poissons Ratio (y) = 0.19892 0.51189
# Poissons Ratio (z) = 0.45717 0.18668
#
# Static dielectric constant tensor:
#      x y z
#    x 3.764640 0.000000 0.000000 
#    y 0.000000 3.194390 0.000000 
#    z 0.000000 0.000000 3.741510 
# 
# 
# High freq. dielectric constant tensor:
#      x y z
#    x 1.774280 0.000000 0.000000 
#    y 0.000000 1.717920 0.000000 
#    z 0.000000 0.000000 1.783400 
# 
# From -- ./inp_files/22092.got.cif
#   From: 2010.03.12/outbox.cif.g09.slc.cpg/sg74_12_cif.got.tgz:22092.got - 2010.04.16 15:46:19.
