data_PCOD8299908
_publ_section_title
;
Structure prediction by ZEFSAII (Michael W. Deem and Ramdas Pophale) SiO2 
 PCOD8299908
Probable space group: I M M A
;
_chemical_formula_sum "Si O2"
_cell_formula_units_Z 96
_cell_length_a 23.378722
_cell_length_b 8.779331
_cell_length_c 24.209938
_cell_angle_alpha 90.000000
_cell_angle_beta 90.000000
_cell_angle_gamma 90.000000
_cell_volume 4969.078609
_symmetry_space_group_name_H-M "I M M A"
_symmetry_group_IT_number 74
_symmetry_cell_setting 'orthorhombic'
loop_
_space_group_symop_operation_xyz
x,y,z
-x,1/2-y,z
x,-y,-z
-x,1/2+y,-z
-x,-y,-z
x,1/2+y,-z
-x,y,z
x,1/2-y,z
1/2+x,1/2+y,1/2+z
1/2-x,-y,1/2+z
1/2+x,1/2-y,1/2-z
1/2-x,y,1/2-z
1/2-x,1/2-y,1/2-z
1/2+x,y,1/2-z
1/2-x,1/2+y,1/2+z
1/2+x,-y,1/2+z
loop_
_atom_site_type_symbol
_atom_site_label
_atom_site_fract_x
_atom_site_fract_y
_atom_site_fract_z
Si Si1 0.364787 0.572876 0.341232
Si Si2 0.137380 0.069452 0.271786
Si Si3 0.062612 0.429932 0.374185
Si Si4 0.167111 0.429602 0.442131
Si Si5 0.434047 0.570634 0.558677
Si Si6 0.269566 0.072907 0.842178
O O1 0.380528 0.750000 0.341299
O O2 0.387746 0.494064 0.285545
O O3 0.393658 0.497060 0.394215
O O4 0.297461 0.543615 0.339609
O O5 0.144615 0.250000 0.268839
O O6 0.091278 0.016554 0.317232
O O7 0.198813 0.997328 0.288481
O O8 0.056770 0.250000 0.373175
O O9 0.102712 0.480180 0.425273
O O10 0.000000 0.506050 0.380847
O O11 0.184194 0.500000 0.500000
O O12 0.172986 0.250000 0.445092
O O13 0.211249 0.489408 0.397435
O O14 0.415795 0.500000 0.500000
O O15 0.500000 0.529890 0.572169
O O16 0.424436 0.750000 0.555491
O O17 0.284899 0.250000 0.845062
#
# Coordination Sequence:
#
# PCOD8299908 Si02
#       6
#    16  16  16  16  16  16
#     4  11  23  37  57  84 111 144 184 223 266 322
#     4  10  20  34  55  82 112 146 182 225 276 325
#     4   8  16  32  52  75 105 140 178 220 265 313
#     4  10  20  34  54  78 105 141 181 224 274 324
#     4  10  22  41  63  85 111 143 178 221 273 325
#     4  10  21  37  55  77 109 146 183 226 274 323
#
# _framework density 19.319475000000001
#
# number of rings (size 3 to 8) (size 9 to 14) (size 15 to 20)
#    0.000    2.167    0.000    4.000    0.000    7.333 
#    0.000    1.667    0.000   17.000    0.000    0.000 
#    0.000    0.000    0.000    0.000    0.000    0.000 
#
# Total GULP energy -595189.664661 kJ/mol
# GULP energy per Si atom -12399.784680 kJ/mol
# Density = 1.927550 g / cm^3
# Si number density = 19.319475 Si / 1000 Ang^3
#
#
#
# Elastic Constant Matrix: (Units=GPa)
#
#
# Indices 1 2 3 4 5 6 
#
# 1 29.2773 20.3083 7.5563 0.0000 0.0000 0.0000
# 2 20.3083 89.0260 39.1698 0.0000 0.0000 0.0000
# 3 7.5563 39.1698 123.8771 0.0000 0.0000 0.0000
# 4 0.0000 0.0000 0.0000 39.0191 0.0000 0.0000
# 5 0.0000 0.0000 0.0000 0.0000 13.8786 0.0000
# 6 0.0000 0.0000 0.0000 0.0000 0.0000 23.4200
#
#
#
# Elastic Compliance Matrix: (Units=1/GPa)
#
#
# Indices 1 2 3 4 5 6 
#
# 1 0.040606 -0.009494 0.000525 0.000000 0.000000 0.000000
# 2 -0.009494 0.015268 -0.004249 0.000000 0.000000 0.000000
# 3 0.000525 -0.004249 0.009384 0.000000 0.000000 0.000000
# 4 0.000000 0.000000 0.000000 0.025628 0.000000 0.000000
# 5 0.000000 0.000000 0.000000 0.000000 0.072054 0.000000
# 6 0.000000 0.000000 0.000000 0.000000 0.000000 0.042698
#
#
# Mechanical properties :
#
#
# Convention : Reuss Voigt Hill
#
# Bulk Modulus (GPa) = 25.75803 41.80549 33.78176
# Shear Modulus (GPa) = 20.40701 26.93995 23.67348
#
# Velocity S-wave (km/s) = 3.25359 3.73828 3.50432
# Velocity P-wave (km/s) = 5.24176 6.34972 5.82216
#
# Compressibility (1/GPa) = 0.03882284
#
# Stress axis : x y z
#
# Youngs Moduli (GPa) = 24.62683 65.49784 106.56596
#
# Poissons Ratio (x) = 0.62183 -0.05595
# Poissons Ratio (y) = 0.23381 0.45275
# Poissons Ratio (z) = -0.01293 0.27827
#
# Static dielectric constant tensor:
#      x y z
#    x 3.687180 0.000000 0.000000 
#    y 0.000000 3.505260 0.000000 
#    z 0.000000 0.000000 3.603220 
# 
# 
# High freq. dielectric constant tensor:
#      x y z
#    x 1.748330 0.000000 0.000000 
#    y 0.000000 1.752150 0.000000 
#    z 0.000000 0.000000 1.761140 
# 
# From -- ./inp_files/57293.got.cif
#   From: 2010.03.12/outbox.cif.g09.slc.cpg/sg74_29_cif.got.tgz:57293.got - 2010.04.16 15:46:19.
