data_PCOD8299088
_publ_section_title
;
Structure prediction by ZEFSAII (Michael W. Deem and Ramdas Pophale) SiO2 
 PCOD8299088
Probable space group: I M M A
;
_chemical_formula_sum "Si O2"
_cell_formula_units_Z 96
_cell_length_a 27.734472
_cell_length_b 8.737435
_cell_length_c 20.471880
_cell_angle_alpha 90.000000
_cell_angle_beta 90.000000
_cell_angle_gamma 90.000000
_cell_volume 4960.912733
_symmetry_space_group_name_H-M "I M M A"
_symmetry_group_IT_number 74
_symmetry_cell_setting 'orthorhombic'
loop_
_space_group_symop_operation_xyz
x,y,z
-x,1/2-y,z
x,-y,-z
-x,1/2+y,-z
-x,-y,-z
x,1/2+y,-z
-x,y,z
x,1/2-y,z
1/2+x,1/2+y,1/2+z
1/2-x,-y,1/2+z
1/2+x,1/2-y,1/2-z
1/2-x,y,1/2-z
1/2-x,1/2-y,1/2-z
1/2+x,y,1/2-z
1/2-x,1/2+y,1/2+z
1/2+x,-y,1/2+z
loop_
_atom_site_type_symbol
_atom_site_label
_atom_site_fract_x
_atom_site_fract_y
_atom_site_fract_z
Si Si1 0.610897 0.930017 0.187382
Si Si2 0.782730 0.431571 0.931333
Si Si3 0.719979 0.931687 0.189357
Si Si4 0.055789 0.927050 0.805149
Si Si5 0.445027 0.069779 0.067477
Si Si6 0.614882 0.928841 0.567549
O O1 0.609351 0.750000 0.175226
O O2 0.665417 0.992409 0.192752
O O3 0.583457 0.968308 0.253837
O O4 0.586740 0.012266 0.126691
O O5 0.785267 0.250000 0.936127
O O6 0.744522 0.487661 0.877575
O O7 0.835158 0.493150 0.911329
O O8 0.765363 0.500000 0.000000
O O9 0.720477 0.750000 0.193498
O O10 0.750000 0.001050 0.250000
O O11 0.063435 0.750000 0.786167
O O12 0.075407 0.961793 0.877313
O O13 0.000000 0.972386 0.803927
O O14 0.500000 0.016297 0.079494
O O15 0.441099 0.250000 0.062696
O O16 0.425119 0.000000 0.000000
O O17 0.624245 0.750000 0.557139
O O18 0.595333 0.000000 0.500000
#
# Coordination Sequence:
#
# PCOD8299088 Si02
#       6
#    16  16  16  16  16  16
#     4  11  22  36  57  84 111 141 181 226 270 320
#     4  10  19  34  56  79 107 141 175 215 264 319
#     4   9  19  35  54  77 106 140 178 221 267 314
#     4  10  22  39  56  77 109 146 181 221 270 321
#     4  10  21  38  59  82 111 146 182 222 269 321
#     4  10  20  35  56  81 109 141 179 223 269 319
#
# _framework density 19.351277
#
# number of rings (size 3 to 8) (size 9 to 14) (size 15 to 20)
#    0.000    2.000    0.000    4.500    0.000    7.000 
#    0.000    5.000    0.000    6.000    0.000    0.000 
#    0.000    0.000    0.000    0.000    0.000    0.000 
#
# Total GULP energy -595364.780707 kJ/mol
# GULP energy per Si atom -12403.432931 kJ/mol
# Density = 1.930723 g / cm^3
# Si number density = 19.351277 Si / 1000 Ang^3
#
#
#
# Elastic Constant Matrix: (Units=GPa)
#
#
# Indices 1 2 3 4 5 6 
#
# 1 118.5681 27.9469 69.9222 0.0000 0.0000 0.0000
# 2 27.9469 65.1091 35.6451 0.0000 0.0000 0.0000
# 3 69.9222 35.6451 130.2911 0.0000 0.0000 0.0000
# 4 0.0000 0.0000 0.0000 36.2326 0.0000 0.0000
# 5 0.0000 0.0000 0.0000 0.0000 32.5111 0.0000
# 6 0.0000 0.0000 0.0000 0.0000 0.0000 -3.7618
#
#
#
# Elastic Compliance Matrix: (Units=1/GPa)
#
#
# Indices 1 2 3 4 5 6 
#
# 1 0.012557 -0.002000 -0.006191 0.000000 0.000000 0.000000
# 2 -0.002000 0.018383 -0.003956 0.000000 0.000000 0.000000
# 3 -0.006191 -0.003956 0.012080 0.000000 0.000000 0.000000
# 4 0.000000 0.000000 0.000000 0.027599 0.000000 0.000000
# 5 0.000000 0.000000 0.000000 0.000000 0.030759 0.000000
# 6 0.000000 0.000000 0.000000 0.000000 0.000000 -0.265834
#
#
# Mechanical properties :
#
#
# Convention : Reuss Voigt Hill
#
# Bulk Modulus (GPa) = 53.40477 64.55519 58.97998
# Shear Modulus (GPa) = -37.33600 25.02667 -6.15467
#
# Velocity S-wave (km/s) = -4.39724 3.60012 -1.78533
# Velocity P-wave (km/s) = 1.36986 7.12133 5.12786
#
# Compressibility (1/GPa) = 0.01872492
#
# Stress axis : x y z
#
# Youngs Moduli (GPa) = 79.63901 54.39796 82.78071
#
# Poissons Ratio (x) = 0.10880 0.51254
# Poissons Ratio (y) = 0.15928 0.32747
# Poissons Ratio (z) = 0.49308 0.21519
#
# Static dielectric constant tensor:
#      x y z
#    x 3.656510 0.000000 0.000000 
#    y 0.000000 3.519690 0.000000 
#    z 0.000000 0.000000 3.824190 
# 
# 
# High freq. dielectric constant tensor:
#      x y z
#    x 1.754740 0.000000 0.000000 
#    y 0.000000 1.746760 0.000000 
#    z 0.000000 0.000000 1.769020 
# 
# From -- ./inp_files/55042.got.cif
#   From: 2010.03.12/outbox.cif.g09.slc.cpg/sg74_28_cif.got.tgz:55042.got - 2010.04.16 15:46:19.
