data_PCOD8299941
_publ_section_title
;
Structure prediction by ZEFSAII (Michael W. Deem and Ramdas Pophale) SiO2 
 PCOD8299941
Probable space group: I M M A
;
_chemical_formula_sum "Si O2"
_cell_formula_units_Z 96
_cell_length_a 8.948278
_cell_length_b 23.493341
_cell_length_c 23.909275
_cell_angle_alpha 90.000000
_cell_angle_beta 90.000000
_cell_angle_gamma 90.000000
_cell_volume 5026.326056
_symmetry_space_group_name_H-M "I M M A"
_symmetry_group_IT_number 74
_symmetry_cell_setting 'orthorhombic'
loop_
_space_group_symop_operation_xyz
x,y,z
-x,1/2-y,z
x,-y,-z
-x,1/2+y,-z
-x,-y,-z
x,1/2+y,-z
-x,y,z
x,1/2-y,z
1/2+x,1/2+y,1/2+z
1/2-x,-y,1/2+z
1/2+x,1/2-y,1/2-z
1/2-x,y,1/2-z
1/2-x,1/2-y,1/2-z
1/2+x,y,1/2-z
1/2-x,1/2+y,1/2+z
1/2+x,-y,1/2+z
loop_
_atom_site_type_symbol
_atom_site_label
_atom_site_fract_x
_atom_site_fract_y
_atom_site_fract_z
Si Si1 0.173702 0.814688 0.373455
Si Si2 0.176549 0.112592 0.093019
Si Si3 0.673759 0.405928 0.693782
Si Si4 0.324647 0.183998 0.191426
Si Si5 0.673557 0.518579 0.411477
Si Si6 0.825403 0.889422 0.479962
O O1 0.227279 0.750000 0.377342
O O2 0.263773 0.844283 0.323499
O O3 0.211395 0.843903 0.432224
O O4 0.000000 0.820015 0.359177
O O5 0.253328 0.146090 0.143158
O O6 0.000000 0.122456 0.096140
O O7 0.221413 0.046408 0.096324
O O8 0.240889 0.134922 0.034263
O O9 0.500000 0.400330 0.704496
O O10 0.750000 0.428093 0.750000
O O11 0.714301 0.451626 0.646679
O O12 0.500000 0.171437 0.195386
O O13 0.292572 0.250000 0.177730
O O14 0.250000 0.166518 0.250000
O O15 0.500000 0.524835 0.426753
O O16 0.763857 0.548459 0.461866
O O17 0.000000 0.894615 0.492800
#
# Coordination Sequence:
#
# PCOD8299941 Si02
#       6
#    16  16  16  16  16  16
#     4   9  19  36  55  75 103 139 178 221 267 313
#     4  11  22  36  57  84 112 144 182 220 263 321
#     4  10  20  35  54  76 104 138 177 220 266 315
#     4  10  22  41  62  83 110 142 177 221 271 321
#     4   9  20  37  54  76 109 146 181 223 272 318
#     4  10  20  34  54  81 111 144 182 225 273 321
#
# _framework density 19.099437999999999
#
# number of rings (size 3 to 8) (size 9 to 14) (size 15 to 20)
#    0.000    2.167    0.000    2.500    0.000    7.667 
#    0.000    3.333    0.000    0.000    0.000    0.000 
#    0.000    0.000    0.000    0.000    0.000    0.000 
#
# Total GULP energy -595392.417192 kJ/mol
# GULP energy per Si atom -12404.008692 kJ/mol
# Density = 1.905597 g / cm^3
# Si number density = 19.099438 Si / 1000 Ang^3
#
#
#
# Elastic Constant Matrix: (Units=GPa)
#
#
# Indices 1 2 3 4 5 6 
#
# 1 79.3604 22.4331 50.4205 0.0000 0.0000 0.0000
# 2 22.4331 57.2133 24.9543 0.0000 0.0000 0.0000
# 3 50.4205 24.9543 120.3366 0.0000 0.0000 0.0000
# 4 0.0000 0.0000 0.0000 25.6413 0.0000 0.0000
# 5 0.0000 0.0000 0.0000 0.0000 41.5073 0.0000
# 6 0.0000 0.0000 0.0000 0.0000 0.0000 30.1759
#
#
#
# Elastic Compliance Matrix: (Units=1/GPa)
#
#
# Indices 1 2 3 4 5 6 
#
# 1 0.018025 -0.004149 -0.006692 0.000000 0.000000 0.000000
# 2 -0.004149 0.020171 -0.002445 0.000000 0.000000 0.000000
# 3 -0.006692 -0.002445 0.011621 0.000000 0.000000 0.000000
# 4 0.000000 0.000000 0.000000 0.039000 0.000000 0.000000
# 5 0.000000 0.000000 0.000000 0.000000 0.024092 0.000000
# 6 0.000000 0.000000 0.000000 0.000000 0.000000 0.033139
#
#
# Mechanical properties :
#
#
# Convention : Reuss Voigt Hill
#
# Bulk Modulus (GPa) = 43.01721 50.28066 46.64894
# Shear Modulus (GPa) = 27.72104 30.07172 28.89638
#
# Velocity S-wave (km/s) = 3.81387 3.97228 3.89388
# Velocity P-wave (km/s) = 6.47810 6.88633 6.68533
#
# Compressibility (1/GPa) = 0.02324651
#
# Stress axis : x y z
#
# Youngs Moduli (GPa) = 55.47762 49.57504 86.05134
#
# Poissons Ratio (x) = 0.20567 0.57587
# Poissons Ratio (y) = 0.23016 0.21037
# Poissons Ratio (z) = 0.37127 0.12119
#
# Static dielectric constant tensor:
#      x y z
#    x 3.534080 0.000000 0.000000 
#    y 0.000000 3.514460 0.000000 
#    z 0.000000 0.000000 3.585830 
# 
# 
# High freq. dielectric constant tensor:
#      x y z
#    x 1.750590 0.000000 0.000000 
#    y 0.000000 1.737780 0.000000 
#    z 0.000000 0.000000 1.752330 
# 
# From -- ./inp_files/49048.got.cif
#   From: 2010.03.12/outbox.cif.g09.slc.cpg/sg74_25_cif.got.tgz:49048.got - 2010.04.16 15:46:19.
