data_PCOD8299898
_publ_section_title
;
Structure prediction by ZEFSAII (Michael W. Deem and Ramdas Pophale) SiO2 
 PCOD8299898
Probable space group: I M M A
;
_chemical_formula_sum "Si O2"
_cell_formula_units_Z 64
_cell_length_a 28.452566
_cell_length_b 24.814118
_cell_length_c 4.979550
_cell_angle_alpha 90.000000
_cell_angle_beta 90.000000
_cell_angle_gamma 90.000000
_cell_volume 3515.688433
_symmetry_space_group_name_H-M "I M M A"
_symmetry_group_IT_number 74
_symmetry_cell_setting 'orthorhombic'
loop_
_space_group_symop_operation_xyz
x,y,z
-x,1/2-y,z
x,-y,-z
-x,1/2+y,-z
-x,-y,-z
x,1/2+y,-z
-x,y,z
x,1/2-y,z
1/2+x,1/2+y,1/2+z
1/2-x,-y,1/2+z
1/2+x,1/2-y,1/2-z
1/2-x,y,1/2-z
1/2-x,1/2-y,1/2-z
1/2+x,y,1/2-z
1/2-x,1/2+y,1/2+z
1/2+x,-y,1/2+z
loop_
_atom_site_type_symbol
_atom_site_label
_atom_site_fract_x
_atom_site_fract_y
_atom_site_fract_z
Si Si1 0.096607 0.062930 0.946662
Si Si2 0.281642 0.310280 0.991340
Si Si3 0.219637 0.500000 0.500000
Si Si4 0.151199 0.594265 0.558376
Si Si5 0.500000 0.960380 0.258531
O O1 0.135702 0.081803 0.741968
O O2 0.046412 0.076597 0.801952
O O3 0.107596 0.092916 0.229181
O O4 0.100461 0.000000 0.000000
O O5 0.299416 0.250000 0.916417
O O6 0.250000 0.334306 0.750000
O O7 0.250000 0.308469 0.250000
O O8 0.326848 0.346460 0.054481
O O9 0.250000 0.477612 0.750000
O O10 0.189348 0.548587 0.629785
O O11 0.500000 0.000000 0.500000
O O12 0.500000 0.000000 0.000000
#
# Coordination Sequence:
#
# PCOD8299898 Si02
#       5
#    16  16   8  16   8
#     4  11  20  35  51  79 109 139 172 219 260 329
#     4  10  21  38  56  75 102 140 187 230 263 304
#     4  12  22  32  46  69 108 141 168 204 262 322
#     4  12  21  34  53  77 107 139 178 219 265 314
#     4  10  20  34  54  76 107 146 177 208 268 317
#
# _framework density 18.204115999999999
#
# number of rings (size 3 to 8) (size 9 to 14) (size 15 to 20)
#    0.000    1.000    2.500    7.500    0.000    0.000 
#    0.000    0.000    0.000    0.000    0.000    5.250 
#    0.000    0.000    0.000    0.000    0.000    0.000 
#
# Total GULP energy -396637.856525 kJ/mol
# GULP energy per Si atom -12394.933016 kJ/mol
# Density = 1.816268 g / cm^3
# Si number density = 18.204116 Si / 1000 Ang^3
#
#
#
# Elastic Constant Matrix: (Units=GPa)
#
#
# Indices 1 2 3 4 5 6 
#
# 1 89.4886 45.5946 27.0252 0.0000 0.0000 0.0000
# 2 45.5946 83.9403 17.7774 0.0000 0.0000 0.0000
# 3 27.0252 17.7774 110.3449 0.0000 0.0000 0.0000
# 4 0.0000 0.0000 0.0000 23.1680 0.0000 0.0000
# 5 0.0000 0.0000 0.0000 0.0000 22.1335 0.0000
# 6 0.0000 0.0000 0.0000 0.0000 0.0000 39.6201
#
#
#
# Elastic Compliance Matrix: (Units=1/GPa)
#
#
# Indices 1 2 3 4 5 6 
#
# 1 0.016157 -0.008219 -0.002633 0.000000 0.000000 0.000000
# 2 -0.008219 0.016515 -0.000648 0.000000 0.000000 0.000000
# 3 -0.002633 -0.000648 0.009812 0.000000 0.000000 0.000000
# 4 0.000000 0.000000 0.000000 0.043163 0.000000 0.000000
# 5 0.000000 0.000000 0.000000 0.000000 0.045180 0.000000
# 6 0.000000 0.000000 0.000000 0.000000 0.000000 0.025240
#
#
# Mechanical properties :
#
#
# Convention : Reuss Voigt Hill
#
# Bulk Modulus (GPa) = 51.32247 51.61870 51.47059
# Shear Modulus (GPa) = 26.94543 29.87610 28.41076
#
# Velocity S-wave (km/s) = 3.85149 4.05553 3.95483
# Velocity P-wave (km/s) = 6.93056 7.09555 7.01354
#
# Compressibility (1/GPa) = 0.01948464
#
# Stress axis : x y z
#
# Youngs Moduli (GPa) = 61.89203 60.55253 101.91882
#
# Poissons Ratio (x) = 0.49766 0.26836
# Poissons Ratio (y) = 0.50867 0.06602
# Poissons Ratio (z) = 0.16297 0.03922
#
# Static dielectric constant tensor:
#      x y z
#    x 27.488360 0.000000 0.000000 
#    y 0.000000 3.310250 0.000000 
#    z 0.000000 0.000000 3.417490 
# 
# 
# High freq. dielectric constant tensor:
#      x y z
#    x 1.699490 0.000000 0.000000 
#    y 0.000000 1.661040 0.000000 
#    z 0.000000 0.000000 1.733380 
# 
# From -- ./inp_files/3702.got.cif
#   From: 2010.03.12/outbox.cif.g09.slc.cpg/sg74_2_cif.got.tgz:3702.got - 2010.04.16 15:46:19.
