data_PCOD8299467
_publ_section_title
;
Structure prediction by ZEFSAII (Michael W. Deem and Ramdas Pophale) SiO2 
 PCOD8299467
Probable space group: I M M A
;
_chemical_formula_sum "Si O2"
_cell_formula_units_Z 112
_cell_length_a 14.507388
_cell_length_b 14.610664
_cell_length_c 30.120650
_cell_angle_alpha 90.000000
_cell_angle_beta 90.000000
_cell_angle_gamma 90.000000
_cell_volume 6384.450432
_symmetry_space_group_name_H-M "I M M A"
_symmetry_group_IT_number 74
_symmetry_cell_setting 'orthorhombic'
loop_
_space_group_symop_operation_xyz
x,y,z
-x,1/2-y,z
x,-y,-z
-x,1/2+y,-z
-x,-y,-z
x,1/2+y,-z
-x,y,z
x,1/2-y,z
1/2+x,1/2+y,1/2+z
1/2-x,-y,1/2+z
1/2+x,1/2-y,1/2-z
1/2-x,y,1/2-z
1/2-x,1/2-y,1/2-z
1/2+x,y,1/2-z
1/2-x,1/2+y,1/2+z
1/2+x,-y,1/2+z
loop_
_atom_site_type_symbol
_atom_site_label
_atom_site_fract_x
_atom_site_fract_y
_atom_site_fract_z
Si Si1 0.394797 0.643584 0.814982
Si Si2 0.894477 0.355244 0.150384
Si Si3 0.895543 0.990808 0.552274
Si Si4 0.391050 0.148540 0.881607
Si Si5 0.609673 0.147931 0.781797
Si Si6 0.719499 0.145881 0.099912
Si Si7 0.109312 0.528503 0.766436
O O1 0.500000 0.613923 0.824460
O O2 0.386882 0.750000 0.804741
O O3 0.334886 0.613321 0.856593
O O4 0.352489 0.592000 0.772798
O O5 0.883762 0.250000 0.168011
O O6 0.829043 0.369507 0.107549
O O7 0.858407 0.428021 0.187028
O O8 0.000000 0.374254 0.136259
O O9 0.821041 0.911326 0.559539
O O10 0.000000 0.965878 0.567915
O O11 0.895376 0.000000 0.500000
O O12 0.858524 0.079041 0.579779
O O13 0.500000 0.153841 0.881991
O O14 0.351118 0.250000 0.892400
O O15 0.358102 0.119013 0.831788
O O16 0.500000 0.148438 0.780960
O O17 0.646618 0.250000 0.769840
O O18 0.645422 0.074971 0.744475
O O19 0.697414 0.250000 0.088474
O O20 0.000000 0.532059 0.766202
#
# Coordination Sequence:
#
# PCOD8299467 Si02
#       7
#    16  16  16  16  16  16  16
#     4   9  16  25  39  62  92 123 152 182 221 273
#     4   9  18  32  48  66  89 120 159 197 232 273
#     4  10  20  32  48  72  99 123 148 181 224 280
#     4   8  14  26  43  62  87 122 159 188 218 262
#     4   8  13  21  36  59  84 112 150 190 223 260
#     4  10  20  32  47  68  95 125 154 188 231 278
#     4   9  15  24  40  61  88 121 155 194 233 266
#
# _framework density 17.542622000000001
#
# number of rings (size 3 to 8) (size 9 to 14) (size 15 to 20)
#    0.000    3.000    0.000    2.571    0.000    6.000 
#    0.000    3.571    0.000    1.286    0.000    3.000 
#    0.000    0.000    0.000    0.000    0.000    0.000 
#
# Total GULP energy -693845.072976 kJ/mol
# GULP energy per Si atom -12390.090589 kJ/mol
# Density = 1.750269 g / cm^3
# Si number density = 17.542622 Si / 1000 Ang^3
#
#
#
# Elastic Constant Matrix: (Units=GPa)
#
#
# Indices 1 2 3 4 5 6 
#
# 1 55.7059 28.7049 25.9751 0.0000 0.0000 0.0000
# 2 28.7049 87.2710 46.4079 0.0000 0.0000 0.0000
# 3 25.9751 46.4079 58.3154 0.0000 0.0000 0.0000
# 4 0.0000 0.0000 0.0000 19.8504 0.0000 0.0000
# 5 0.0000 0.0000 0.0000 0.0000 15.0385 0.0000
# 6 0.0000 0.0000 0.0000 0.0000 0.0000 11.8661
#
#
#
# Elastic Compliance Matrix: (Units=1/GPa)
#
#
# Indices 1 2 3 4 5 6 
#
# 1 0.023335 -0.003724 -0.007430 0.000000 0.000000 0.000000
# 2 -0.003724 0.020460 -0.014623 0.000000 0.000000 0.000000
# 3 -0.007430 -0.014623 0.032095 0.000000 0.000000 0.000000
# 4 0.000000 0.000000 0.000000 0.050377 0.000000 0.000000
# 5 0.000000 0.000000 0.000000 0.000000 0.066496 0.000000
# 6 0.000000 0.000000 0.000000 0.000000 0.000000 0.084274
#
#
# Mechanical properties :
#
#
# Convention : Reuss Voigt Hill
#
# Bulk Modulus (GPa) = 41.09384 44.82981 42.96183
# Shear Modulus (GPa) = 14.84989 16.03129 15.44059
#
# Velocity S-wave (km/s) = 2.91263 3.02627 2.96999
# Velocity P-wave (km/s) = 5.89807 6.14991 6.02530
#
# Compressibility (1/GPa) = 0.02433455
#
# Stress axis : x y z
#
# Youngs Moduli (GPa) = 42.85385 48.87689 31.15747
#
# Poissons Ratio (x) = 0.18202 0.23151
# Poissons Ratio (y) = 0.15959 0.45562
# Poissons Ratio (z) = 0.31842 0.71473
#
# Static dielectric constant tensor:
#      x y z
#    x 3.053080 0.000000 0.000000 
#    y 0.000000 3.617260 0.000000 
#    z 0.000000 0.000000 3.018050 
# 
# 
# High freq. dielectric constant tensor:
#      x y z
#    x 1.647170 0.000000 0.000000 
#    y 0.000000 1.685510 0.000000 
#    z 0.000000 0.000000 1.641370 
# 
# From -- ./inp_files/67153.got.cif
#   From: 2010.03.12/outbox.cif.g09.slc.cpg/sg74_34_cif.got.tgz:67153.got - 2010.04.16 15:46:19.
