data_PCOD8299809
_publ_section_title
;
Structure prediction by ZEFSAII (Michael W. Deem and Ramdas Pophale) SiO2 
 PCOD8299809
Probable space group: I M M A
;
_chemical_formula_sum "Si O2"
_cell_formula_units_Z 88
_cell_length_a 8.891567
_cell_length_b 22.346728
_cell_length_c 24.580507
_cell_angle_alpha 90.000000
_cell_angle_beta 90.000000
_cell_angle_gamma 90.000000
_cell_volume 4884.083550
_symmetry_space_group_name_H-M "I M M A"
_symmetry_group_IT_number 74
_symmetry_cell_setting 'orthorhombic'
loop_
_space_group_symop_operation_xyz
x,y,z
-x,1/2-y,z
x,-y,-z
-x,1/2+y,-z
-x,-y,-z
x,1/2+y,-z
-x,y,z
x,1/2-y,z
1/2+x,1/2+y,1/2+z
1/2-x,-y,1/2+z
1/2+x,1/2-y,1/2-z
1/2-x,y,1/2-z
1/2-x,1/2-y,1/2-z
1/2+x,y,1/2-z
1/2-x,1/2+y,1/2+z
1/2+x,-y,1/2+z
loop_
_atom_site_type_symbol
_atom_site_label
_atom_site_fract_x
_atom_site_fract_y
_atom_site_fract_z
Si Si1 0.821130 0.750000 0.309295
Si Si2 0.326267 0.179827 0.983426
Si Si3 0.825699 0.965353 0.195417
Si Si4 0.677636 0.600067 0.694031
Si Si5 0.324894 0.819037 0.595038
Si Si6 0.676019 0.144742 0.623398
O O1 0.750000 0.750000 0.250000
O O2 0.769845 0.808388 0.341540
O O3 0.000000 0.750000 0.304444
O O4 0.500000 0.162196 0.977966
O O5 0.300528 0.250000 0.973981
O O6 0.229902 0.144641 0.938728
O O7 0.267421 0.160236 0.042351
O O8 0.750000 0.940200 0.250000
O O9 0.788998 0.921564 0.145563
O O10 0.000000 0.966976 0.208412
O O11 0.768583 0.032217 0.181222
O O12 0.500000 0.604994 0.699930
O O13 0.750000 0.623189 0.750000
O O14 0.735334 0.642022 0.645366
O O15 0.500000 0.830702 0.583409
O O16 0.293542 0.750000 0.608969
O O17 0.500000 0.160810 0.627029
#
# Coordination Sequence:
#
# PCOD8299809 Si02
#       6
#     8  16  16  16  16  16
#     4  12  24  36  50  74 106 136 171 218 265 306
#     4  10  20  34  52  75 103 135 171 215 262 308
#     4   9  19  34  52  74 100 135 174 211 256 307
#     4   9  18  34  54  77 106 136 169 210 256 308
#     4   9  18  33  54  78 104 136 172 210 254 308
#     4  11  21  34  53  75 100 135 176 215 259 310
#
# _framework density 18.017709
#
# number of rings (size 3 to 8) (size 9 to 14) (size 15 to 20)
#    0.000    2.182    0.909    2.455    0.000    4.727 
#    0.000    0.909    0.000    5.455    0.000    0.000 
#    0.000    0.000    0.000    0.000    0.000    0.000 
#
# Total GULP energy -545719.532562 kJ/mol
# GULP energy per Si atom -12402.716649 kJ/mol
# Density = 1.797670 g / cm^3
# Si number density = 18.017709 Si / 1000 Ang^3
#
#
#
# Elastic Constant Matrix: (Units=GPa)
#
#
# Indices 1 2 3 4 5 6 
#
# 1 74.6060 37.9851 57.4331 0.0000 0.0000 0.0000
# 2 37.9851 78.7932 72.1199 0.0000 0.0000 0.0000
# 3 57.4331 72.1199 159.5147 0.0000 0.0000 0.0000
# 4 0.0000 0.0000 0.0000 31.5173 0.0000 0.0000
# 5 0.0000 0.0000 0.0000 0.0000 35.7157 0.0000
# 6 0.0000 0.0000 0.0000 0.0000 0.0000 16.9578
#
#
#
# Elastic Compliance Matrix: (Units=1/GPa)
#
#
# Indices 1 2 3 4 5 6 
#
# 1 0.019685 -0.005122 -0.004772 0.000000 0.000000 0.000000
# 2 -0.005122 0.022984 -0.008547 0.000000 0.000000 0.000000
# 3 -0.004772 -0.008547 0.011852 0.000000 0.000000 0.000000
# 4 0.000000 0.000000 0.000000 0.031729 0.000000 0.000000
# 5 0.000000 0.000000 0.000000 0.000000 0.027999 0.000000
# 6 0.000000 0.000000 0.000000 0.000000 0.000000 0.058970
#
#
# Mechanical properties :
#
#
# Convention : Reuss Voigt Hill
#
# Bulk Modulus (GPa) = 56.69552 71.99889 64.34721
# Shear Modulus (GPa) = 23.15022 26.52987 24.84005
#
# Velocity S-wave (km/s) = 3.58838 3.84139 3.71704
# Velocity P-wave (km/s) = 6.97879 7.72799 7.36293
#
# Compressibility (1/GPa) = 0.01763808
#
# Stress axis : x y z
#
# Youngs Moduli (GPa) = 50.79993 43.50785 84.37741
#
# Poissons Ratio (x) = 0.22286 0.40262
# Poissons Ratio (y) = 0.26022 0.72121
# Poissons Ratio (z) = 0.24240 0.37188
#
# Static dielectric constant tensor:
#      x y z
#    x 3.346170 0.000000 0.000000 
#    y 0.000000 3.461820 0.000000 
#    z 0.000000 0.000000 3.439280 
# 
# 
# High freq. dielectric constant tensor:
#      x y z
#    x 1.700280 0.000000 0.000000 
#    y 0.000000 1.685020 0.000000 
#    z 0.000000 0.000000 1.702740 
# 
# From -- ./inp_files/48769.got.cif
#   From: 2010.03.12/outbox.cif.g09.slc.cpg/sg74_25_cif.got.tgz:48769.got - 2010.04.16 15:46:19.
