data_PCOD8299150
_publ_section_title
;
Structure prediction by ZEFSAII (Michael W. Deem and Ramdas Pophale) SiO2 
 PCOD8299150
Probable space group: I M M A
;
_chemical_formula_sum "Si O2"
_cell_formula_units_Z 80
_cell_length_a 13.665679
_cell_length_b 23.461075
_cell_length_c 11.974712
_cell_angle_alpha 90.000000
_cell_angle_beta 90.000000
_cell_angle_gamma 90.000000
_cell_volume 3839.230615
_symmetry_space_group_name_H-M "I M M A"
_symmetry_group_IT_number 74
_symmetry_cell_setting 'orthorhombic'
loop_
_space_group_symop_operation_xyz
x,y,z
-x,1/2-y,z
x,-y,-z
-x,1/2+y,-z
-x,-y,-z
x,1/2+y,-z
-x,y,z
x,1/2-y,z
1/2+x,1/2+y,1/2+z
1/2-x,-y,1/2+z
1/2+x,1/2-y,1/2-z
1/2-x,y,1/2-z
1/2-x,1/2-y,1/2-z
1/2+x,y,1/2-z
1/2-x,1/2+y,1/2+z
1/2+x,-y,1/2+z
loop_
_atom_site_type_symbol
_atom_site_label
_atom_site_fract_x
_atom_site_fract_y
_atom_site_fract_z
Si Si1 0.884589 0.250000 0.075849
Si Si2 0.773409 0.144962 0.128975
Si Si3 0.393343 0.631060 0.257257
Si Si4 0.657644 0.750000 0.331271
Si Si5 0.114354 0.816393 0.464412
Si Si6 0.613679 0.434757 0.532600
O O1 0.853086 0.194891 0.146021
O O2 0.000000 0.250000 0.050950
O O3 0.817093 0.250000 0.963469
O O4 0.750000 0.119303 0.250000
O O5 0.672827 0.168019 0.075280
O O6 0.820513 0.095509 0.057756
O O7 0.500000 0.607803 0.226549
O O8 0.404464 0.692448 0.316840
O O9 0.340007 0.644506 0.138156
O O10 0.346793 0.584001 0.342575
O O11 0.750000 0.750000 0.250000
O O12 0.126147 0.750000 0.430247
O O13 0.000000 0.830044 0.484283
O O14 0.626167 0.500000 0.500000
O O15 0.500000 0.415683 0.524554
#
# Coordination Sequence:
#
# PCOD8299150 Si02
#       6
#     8  16  16   8  16  16
#     4  12  23  37  61  93 127 164 212 261 311 384
#     4  12  25  42  59  90 127 169 219 260 315 380
#     4  10  19  34  58  88 120 154 195 245 310 375
#     4  12  20  29  54  93 125 153 185 245 319 380
#     4  10  21  37  60  95 136 167 198 249 320 391
#     4  10  23  44  67  90 119 160 211 267 320 375
#
# _framework density 20.837508
#
# number of rings (size 3 to 8) (size 9 to 14) (size 15 to 20)
#    0.000    1.200    4.000    3.000    0.000    1.600 
#    3.600    0.000    0.000    0.600    0.000    0.000 
#    0.000    0.000    0.000    0.000    0.000    0.000 
#
# Total GULP energy -495542.588816 kJ/mol
# GULP energy per Si atom -12388.564720 kJ/mol
# Density = 2.079008 g / cm^3
# Si number density = 20.837508 Si / 1000 Ang^3
#
#
#
# Elastic Constant Matrix: (Units=GPa)
#
#
# Indices 1 2 3 4 5 6 
#
# 1 90.3291 37.2480 48.2278 0.0000 0.0000 0.0000
# 2 37.2480 84.8066 40.8784 0.0001 0.0000 0.0000
# 3 48.2278 40.8784 148.1427 0.0001 0.0001 0.0000
# 4 0.0000 0.0001 0.0001 14.6111 0.0000 0.0000
# 5 0.0000 0.0000 0.0001 0.0000 26.3066 0.0000
# 6 0.0000 0.0000 0.0000 0.0000 0.0000 23.3196
#
#
#
# Elastic Compliance Matrix: (Units=1/GPa)
#
#
# Indices 1 2 3 4 5 6 
#
# 1 0.014962 -0.004872 -0.003527 0.000000 0.000000 0.000000
# 2 -0.004872 0.015187 -0.002605 0.000000 0.000000 0.000000
# 3 -0.003527 -0.002605 0.008617 0.000000 0.000000 0.000000
# 4 0.000000 0.000000 0.000000 0.068441 0.000000 0.000000
# 5 0.000000 0.000000 0.000000 0.000000 0.038013 0.000000
# 6 0.000000 0.000000 0.000000 0.000000 0.000000 0.042882
#
#
# Mechanical properties :
#
#
# Convention : Reuss Voigt Hill
#
# Bulk Modulus (GPa) = 59.66539 63.99853 61.83196
# Shear Modulus (GPa) = 23.18077 25.97573 24.57825
#
# Velocity S-wave (km/s) = 3.33897 3.53453 3.43814
# Velocity P-wave (km/s) = 6.60006 6.88745 6.74529
#
# Compressibility (1/GPa) = 0.01676013
#
# Stress axis : x y z
#
# Youngs Moduli (GPa) = 66.83378 65.84693 116.04845
#
# Poissons Ratio (x) = 0.32079 0.40927
# Poissons Ratio (y) = 0.32560 0.30226
# Poissons Ratio (z) = 0.23570 0.17151
#
# Static dielectric constant tensor:
#      x y z
#    x 3.763390 0.000000 0.000000 
#    y 0.000000 3.613630 0.000000 
#    z 0.000000 0.000000 3.815480 
# 
# 
# High freq. dielectric constant tensor:
#      x y z
#    x 1.822970 0.000000 0.000000 
#    y 0.000000 1.780400 0.000000 
#    z 0.000000 0.000000 1.815020 
# 
# From -- ./inp_files/20554.got.cif
#   From: 2010.03.12/outbox.cif.g09.slc.cpg/sg74_11_cif.got.tgz:20554.got - 2010.04.16 15:46:19.
