data_PCOD8299343
_publ_section_title
;
Structure prediction by ZEFSAII (Michael W. Deem and Ramdas Pophale) SiO2 
 PCOD8299343
Probable space group: I M M A
;
_chemical_formula_sum "Si O2"
_cell_formula_units_Z 88
_cell_length_a 8.805650
_cell_length_b 21.839661
_cell_length_c 23.167771
_cell_angle_alpha 90.000000
_cell_angle_beta 90.000000
_cell_angle_gamma 90.000000
_cell_volume 4455.449896
_symmetry_space_group_name_H-M "I M M A"
_symmetry_group_IT_number 74
_symmetry_cell_setting 'orthorhombic'
loop_
_space_group_symop_operation_xyz
x,y,z
-x,1/2-y,z
x,-y,-z
-x,1/2+y,-z
-x,-y,-z
x,1/2+y,-z
-x,y,z
x,1/2-y,z
1/2+x,1/2+y,1/2+z
1/2-x,-y,1/2+z
1/2+x,1/2-y,1/2-z
1/2-x,y,1/2-z
1/2-x,1/2-y,1/2-z
1/2+x,y,1/2-z
1/2-x,1/2+y,1/2+z
1/2+x,-y,1/2+z
loop_
_atom_site_type_symbol
_atom_site_label
_atom_site_fract_x
_atom_site_fract_y
_atom_site_fract_z
Si Si1 0.820946 0.004371 0.689636
Si Si2 0.177867 0.905065 0.891242
Si Si3 0.679105 0.375416 0.871418
Si Si4 0.329675 0.677855 0.807078
Si Si5 0.178538 0.071577 0.506909
Si Si6 0.318434 0.250000 0.814125
O O1 0.750000 0.983617 0.750000
O O2 0.772464 0.074139 0.675937
O O3 0.000000 0.997386 0.693156
O O4 0.763035 0.962080 0.637889
O O5 0.227172 0.842542 0.860389
O O6 0.229500 0.894970 0.956705
O O7 0.000000 0.915934 0.886927
O O8 0.500000 0.371917 0.876648
O O9 0.741018 0.309430 0.849994
O O10 0.741064 0.398212 0.933692
O O11 0.500000 0.650343 0.811016
O O12 0.336078 0.750000 0.805995
O O13 0.250000 0.651391 0.750000
O O14 0.000000 0.083226 0.499763
O O15 0.216624 0.000000 0.500000
O O16 0.500000 0.250000 0.808468
O O17 0.250000 0.250000 0.750000
#
# Coordination Sequence:
#
# PCOD8299343 Si02
#       6
#    16  16  16  16  16   8
#     4  11  21  36  56  84 116 151 192 240 295 351
#     4  12  24  37  56  85 118 153 191 240 293 351
#     4   9  19  36  60  85 115 154 195 242 295 354
#     4  10  21  39  62  86 114 151 192 235 286 346
#     4  10  19  38  62  82 111 153 197 242 292 352
#     4  10  20  38  62  90 120 154 199 244 299 358
#
# _framework density 19.751090999999999
#
# number of rings (size 3 to 8) (size 9 to 14) (size 15 to 20)
#    0.000    1.636    1.818    3.818    0.000    1.455 
#    1.636    1.818    0.000    0.000    0.000    0.000 
#    0.000    0.000    0.000    0.000    0.000    0.000 
#
# Total GULP energy -545561.006429 kJ/mol
# GULP energy per Si atom -12399.113782 kJ/mol
# Density = 1.970614 g / cm^3
# Si number density = 19.751091 Si / 1000 Ang^3
#
#
#
# Elastic Constant Matrix: (Units=GPa)
#
#
# Indices 1 2 3 4 5 6 
#
# 1 79.7546 22.0647 44.9856 0.0000 0.0000 0.0000
# 2 22.0647 84.5832 49.1262 0.0000 0.0000 0.0000
# 3 44.9856 49.1262 149.8662 0.0000 0.0000 0.0000
# 4 0.0000 0.0000 0.0000 29.1880 0.0000 0.0000
# 5 0.0000 0.0000 0.0000 0.0000 35.3753 0.0000
# 6 0.0000 0.0000 0.0000 0.0000 0.0000 17.0693
#
#
#
# Elastic Compliance Matrix: (Units=1/GPa)
#
#
# Indices 1 2 3 4 5 6 
#
# 1 0.015274 -0.001632 -0.004050 0.000000 0.000000 0.000000
# 2 -0.001632 0.014777 -0.004354 0.000000 0.000000 0.000000
# 3 -0.004050 -0.004354 0.009316 0.000000 0.000000 0.000000
# 4 0.000000 0.000000 0.000000 0.034261 0.000000 0.000000
# 5 0.000000 0.000000 0.000000 0.000000 0.028268 0.000000
# 6 0.000000 0.000000 0.000000 0.000000 0.000000 0.058585
#
#
# Mechanical properties :
#
#
# Convention : Reuss Voigt Hill
#
# Bulk Modulus (GPa) = 51.82753 60.72853 56.27803
# Shear Modulus (GPa) = 26.74013 29.52836 28.13424
#
# Velocity S-wave (km/s) = 3.68347 3.87075 3.77827
# Velocity P-wave (km/s) = 6.66242 7.12675 6.89850
#
# Compressibility (1/GPa) = 0.01929476
#
# Stress axis : x y z
#
# Youngs Moduli (GPa) = 65.46905 67.67116 107.34774
#
# Poissons Ratio (x) = 0.11046 0.43474
# Poissons Ratio (y) = 0.10687 0.46739
# Poissons Ratio (z) = 0.26514 0.29464
#
# Static dielectric constant tensor:
#      x y z
#    x 3.472140 0.000000 0.000000 
#    y 0.000000 3.725270 0.000000 
#    z 0.000000 0.000000 3.860980 
# 
# 
# High freq. dielectric constant tensor:
#      x y z
#    x 1.753870 0.000000 0.000000 
#    y 0.000000 1.770520 0.000000 
#    z 0.000000 0.000000 1.779190 
# 
# From -- ./inp_files/48719.got.cif
#   From: 2010.03.12/outbox.cif.g09.slc.cpg/sg74_25_cif.got.tgz:48719.got - 2010.04.16 15:46:19.
