data_PCOD8299215
_publ_section_title
;
Structure prediction by ZEFSAII (Michael W. Deem and Ramdas Pophale) SiO2 
 PCOD8299215
Probable space group: I M M A
;
_chemical_formula_sum "Si O2"
_cell_formula_units_Z 88
_cell_length_a 19.799951
_cell_length_b 22.212582
_cell_length_c 10.816713
_cell_angle_alpha 90.000000
_cell_angle_beta 90.000000
_cell_angle_gamma 90.000000
_cell_volume 4757.277292
_symmetry_space_group_name_H-M "I M M A"
_symmetry_group_IT_number 74
_symmetry_cell_setting 'orthorhombic'
loop_
_space_group_symop_operation_xyz
x,y,z
-x,1/2-y,z
x,-y,-z
-x,1/2+y,-z
-x,-y,-z
x,1/2+y,-z
-x,y,z
x,1/2-y,z
1/2+x,1/2+y,1/2+z
1/2-x,-y,1/2+z
1/2+x,1/2-y,1/2-z
1/2-x,y,1/2-z
1/2-x,1/2-y,1/2-z
1/2+x,y,1/2-z
1/2-x,1/2+y,1/2+z
1/2+x,-y,1/2+z
loop_
_atom_site_type_symbol
_atom_site_label
_atom_site_fract_x
_atom_site_fract_y
_atom_site_fract_z
Si Si1 0.000000 0.903569 0.479261
Si Si2 0.609561 0.684140 0.111330
Si Si3 0.818309 0.630490 0.179173
Si Si4 0.245807 0.317352 0.463874
Si Si5 0.861735 0.002821 0.147172
Si Si6 0.500000 0.012910 0.208656
Si Si7 0.250000 0.092989 0.250000
O O1 0.065807 0.862913 0.465089
O O2 0.000000 0.953247 0.372997
O O3 0.000000 0.930285 0.616690
O O4 0.575017 0.750000 0.108808
O O5 0.619060 0.664258 0.254477
O O6 0.682580 0.687012 0.052382
O O7 0.750000 0.645429 0.250000
O O8 0.832164 0.560116 0.190876
O O9 0.810057 0.654948 0.038972
O O10 0.264735 0.250000 0.415345
O O11 0.223906 0.362748 0.356494
O O12 0.811153 0.053470 0.197597
O O13 0.934877 0.015619 0.204178
O O14 0.867369 0.000000 0.000000
#
# Coordination Sequence:
#
# PCOD8299215 Si02
#       7
#     8  16  16  16  16   8   8
#     4  11  21  38  58  85 114 148 194 244 290 356
#     4  10  20  36  60  86 115 149 188 242 297 353
#     4  10  19  35  57  86 116 149 192 239 297 350
#     4  10  21  37  56  85 121 153 190 241 299 359
#     4  12  23  40  59  85 120 159 202 251 295 359
#     4  11  25  40  58  83 120 162 195 240 301 359
#     4  12  23  36  62  90 115 156 200 246 300 354
#
# _framework density 18.497975
#
# number of rings (size 3 to 8) (size 9 to 14) (size 15 to 20)
#    0.000    1.273    4.545    2.455    0.000    2.182 
#    3.273    0.000    0.000    0.000    0.000    1.273 
#    0.000    0.000    0.000    0.000    0.000    0.000 
#
# Total GULP energy -545428.570464 kJ/mol
# GULP energy per Si atom -12396.103874 kJ/mol
# Density = 1.845587 g / cm^3
# Si number density = 18.497975 Si / 1000 Ang^3
#
#
#
# Elastic Constant Matrix: (Units=GPa)
#
#
# Indices 1 2 3 4 5 6 
#
# 1 85.1612 46.0210 41.7887 0.0000 0.0000 0.0000
# 2 46.0210 152.4589 61.1465 0.0000 0.0000 0.0000
# 3 41.7887 61.1465 120.4121 0.0000 0.0000 0.0000
# 4 0.0000 0.0000 0.0000 26.0722 0.0000 0.0000
# 5 0.0000 0.0000 0.0000 0.0000 27.9800 0.0000
# 6 0.0000 0.0000 0.0000 0.0000 0.0000 20.1289
#
#
#
# Elastic Compliance Matrix: (Units=1/GPa)
#
#
# Indices 1 2 3 4 5 6 
#
# 1 0.015246 -0.003114 -0.003709 0.000000 0.000000 0.000000
# 2 -0.003114 0.008873 -0.003425 0.000000 0.000000 0.000000
# 3 -0.003709 -0.003425 0.011331 0.000000 0.000000 0.000000
# 4 0.000000 0.000000 0.000000 0.038355 0.000000 0.000000
# 5 0.000000 0.000000 0.000000 0.000000 0.035740 0.000000
# 6 0.000000 0.000000 0.000000 0.000000 0.000000 0.049680
#
#
# Mechanical properties :
#
#
# Convention : Reuss Voigt Hill
#
# Bulk Modulus (GPa) = 66.87843 72.88273 69.88058
# Shear Modulus (GPa) = 27.07006 28.77464 27.92235
#
# Velocity S-wave (km/s) = 3.82960 3.94833 3.88942
# Velocity P-wave (km/s) = 7.46910 7.76348 7.61771
#
# Compressibility (1/GPa) = 0.01495250
#
# Stress axis : x y z
#
# Youngs Moduli (GPa) = 65.59254 112.70349 88.25038
#
# Poissons Ratio (x) = 0.35099 0.32736
# Poissons Ratio (y) = 0.20427 0.30225
# Poissons Ratio (z) = 0.24332 0.38600
#
# Static dielectric constant tensor:
#      x y z
#    x 3.258970 0.000000 0.000000 
#    y 0.000000 3.701350 0.000000 
#    z 0.000000 0.000000 3.512370 
# 
# 
# High freq. dielectric constant tensor:
#      x y z
#    x 1.701830 0.000000 0.000000 
#    y 0.000000 1.737420 0.000000 
#    z 0.000000 0.000000 1.717510 
# 
# From -- ./inp_files/22231.got.cif
#   From: 2010.03.12/outbox.cif.g09.slc.cpg/sg74_12_cif.got.tgz:22231.got - 2010.04.16 15:46:19.
