data_PCOD8299187
_publ_section_title
;
Structure prediction by ZEFSAII (Michael W. Deem and Ramdas Pophale) SiO2 
 PCOD8299187
Probable space group: I M M A
;
_chemical_formula_sum "Si O2"
_cell_formula_units_Z 88
_cell_length_a 27.636642
_cell_length_b 9.141621
_cell_length_c 17.889688
_cell_angle_alpha 90.000000
_cell_angle_beta 90.000000
_cell_angle_gamma 90.000000
_cell_volume 4519.717091
_symmetry_space_group_name_H-M "I M M A"
_symmetry_group_IT_number 74
_symmetry_cell_setting 'orthorhombic'
loop_
_space_group_symop_operation_xyz
x,y,z
-x,1/2-y,z
x,-y,-z
-x,1/2+y,-z
-x,-y,-z
x,1/2+y,-z
-x,y,z
x,1/2-y,z
1/2+x,1/2+y,1/2+z
1/2-x,-y,1/2+z
1/2+x,1/2-y,1/2-z
1/2-x,y,1/2-z
1/2-x,1/2-y,1/2-z
1/2+x,y,1/2-z
1/2-x,1/2+y,1/2+z
1/2+x,-y,1/2+z
loop_
_atom_site_type_symbol
_atom_site_label
_atom_site_fract_x
_atom_site_fract_y
_atom_site_fract_z
Si Si1 0.946066 0.922568 0.666357
Si Si2 0.144989 0.076611 0.422674
Si Si3 0.326562 0.917641 0.574830
Si Si4 0.737816 0.576608 0.831798
Si Si5 0.920460 0.082329 0.167402
Si Si6 0.000000 0.422334 0.921797
O O1 0.949814 0.750000 0.660125
O O2 0.907803 0.979851 0.604782
O O3 0.924770 0.965723 0.746746
O O4 0.000000 0.990794 0.653796
O O5 0.145664 0.250000 0.434732
O O6 0.184539 0.031075 0.360110
O O7 0.158165 0.000000 0.500000
O O8 0.320627 0.750000 0.551623
O O9 0.276711 0.982653 0.607904
O O10 0.365714 0.935744 0.640511
O O11 0.342622 0.000000 0.500000
O O12 0.743075 0.750000 0.826754
O O13 0.750000 0.509270 0.750000
O O14 0.938494 0.250000 0.156436
O O15 0.952434 0.970337 0.121404
O O16 0.000000 0.250000 0.933342
O O17 0.000000 0.500000 0.000000
#
# Coordination Sequence:
#
# PCOD8299187 Si02
#       6
#    16  16  16  16  16   8
#     4   9  17  32  56  80 102 136 183 225 266 319
#     4  10  20  34  55  81 110 144 179 222 273 323
#     4  10  20  32  51  77 105 137 171 212 262 310
#     4   9  17  32  54  80 105 133 178 225 260 308
#     4  10  19  35  56  77 102 137 180 224 267 314
#     4  12  24  36  52  76 107 142 179 220 269 318
#
# _framework density 19.470244999999998
#
# number of rings (size 3 to 8) (size 9 to 14) (size 15 to 20)
#    0.000    2.182    0.909    3.000    0.000    6.909 
#    0.000    0.909    0.000    4.364    0.000    0.000 
#    0.000    0.000    0.000    0.000    0.000    0.000 
#
# Total GULP energy -545522.528149 kJ/mol
# GULP energy per Si atom -12398.239276 kJ/mol
# Density = 1.942593 g / cm^3
# Si number density = 19.470245 Si / 1000 Ang^3
#
#
#
# Elastic Constant Matrix: (Units=GPa)
#
#
# Indices 1 2 3 4 5 6 
#
# 1 135.2240 25.1932 54.0825 0.0000 0.0000 0.0000
# 2 25.1932 51.0903 29.2065 0.0000 0.0000 0.0000
# 3 54.0825 29.2065 124.5574 0.0000 0.0000 0.0000
# 4 0.0000 0.0000 0.0000 24.7348 0.0000 0.0000
# 5 0.0000 0.0000 0.0000 0.0000 81.3527 0.0000
# 6 0.0000 0.0000 0.0000 0.0000 0.0000 13.7133
#
#
#
# Elastic Compliance Matrix: (Units=1/GPa)
#
#
# Indices 1 2 3 4 5 6 
#
# 1 0.009242 -0.002614 -0.003400 0.000000 0.000000 0.000000
# 2 -0.002614 0.023342 -0.004338 0.000000 0.000000 0.000000
# 3 -0.003400 -0.004338 0.010522 0.000000 0.000000 0.000000
# 4 0.000000 0.000000 0.000000 0.040429 0.000000 0.000000
# 5 0.000000 0.000000 0.000000 0.000000 0.012292 0.000000
# 6 0.000000 0.000000 0.000000 0.000000 0.000000 0.072922
#
#
# Mechanical properties :
#
#
# Convention : Reuss Voigt Hill
#
# Bulk Modulus (GPa) = 44.63916 58.64844 51.64380
# Shear Modulus (GPa) = 25.39098 37.45279 31.42188
#
# Velocity S-wave (km/s) = 3.61514 4.39063 4.02162
# Velocity P-wave (km/s) = 6.35628 7.47603 6.93878
#
# Compressibility (1/GPa) = 0.02240186
#
# Stress axis : x y z
#
# Youngs Moduli (GPa) = 108.20308 42.84100 95.03920
#
# Poissons Ratio (x) = 0.11197 0.32313
# Poissons Ratio (y) = 0.28280 0.41232
# Poissons Ratio (z) = 0.36789 0.18586
#
# Static dielectric constant tensor:
#      x y z
#    x 3.886660 0.000000 0.000000 
#    y 0.000000 3.141160 0.000000 
#    z 0.000000 0.000000 4.301000 
# 
# 
# High freq. dielectric constant tensor:
#      x y z
#    x 1.776340 0.000000 0.000000 
#    y 0.000000 1.703510 0.000000 
#    z 0.000000 0.000000 1.765160 
# 
# From -- ./inp_files/47045.got.cif
#   From: 2010.03.12/outbox.cif.g09.slc.cpg/sg74_24_cif.got.tgz:47045.got - 2010.04.16 15:46:19.
