data_PCOD8299455
_publ_section_title
;
Structure prediction by ZEFSAII (Michael W. Deem and Ramdas Pophale) SiO2 
 PCOD8299455
Probable space group: I M M A
;
_chemical_formula_sum "Si O2"
_cell_formula_units_Z 80
_cell_length_a 8.823371
_cell_length_b 18.186872
_cell_length_c 27.893749
_cell_angle_alpha 90.000000
_cell_angle_beta 90.000000
_cell_angle_gamma 90.000000
_cell_volume 4476.096485
_symmetry_space_group_name_H-M "I M M A"
_symmetry_group_IT_number 74
_symmetry_cell_setting 'orthorhombic'
loop_
_space_group_symop_operation_xyz
x,y,z
-x,1/2-y,z
x,-y,-z
-x,1/2+y,-z
-x,-y,-z
x,1/2+y,-z
-x,y,z
x,1/2-y,z
1/2+x,1/2+y,1/2+z
1/2-x,-y,1/2+z
1/2+x,1/2-y,1/2-z
1/2-x,y,1/2-z
1/2-x,1/2-y,1/2-z
1/2+x,y,1/2-z
1/2-x,1/2+y,1/2+z
1/2+x,-y,1/2+z
loop_
_atom_site_type_symbol
_atom_site_label
_atom_site_fract_x
_atom_site_fract_y
_atom_site_fract_z
Si Si1 0.820331 0.029990 0.299109
Si Si2 0.825248 0.166951 0.157103
Si Si3 0.322132 0.883060 0.937130
Si Si4 0.822586 0.962311 0.396237
Si Si5 0.180712 0.332218 0.540808
O O1 0.750000 0.999225 0.250000
O O2 0.769366 0.113823 0.308073
O O3 0.000000 0.028308 0.295719
O O4 0.758693 0.979078 0.342900
O O5 0.803482 0.250000 0.175706
O O6 0.766671 0.162738 0.102709
O O7 0.000000 0.142908 0.158725
O O8 0.500000 0.867046 0.930544
O O9 0.287389 0.969710 0.931506
O O10 0.261392 0.856952 0.988598
O O11 0.751504 0.888146 0.419192
O O12 0.000000 0.950897 0.391327
O O13 0.238824 0.250000 0.552469
O O14 0.000000 0.335638 0.540930
#
# Coordination Sequence:
#
# PCOD8299455 Si02
#       5
#    16  16  16  16  16
#     4  10  20  34  52  69  87 115 152 194 236 277
#     4  10  20  32  46  67  97 128 155 185 221 265
#     4   9  16  27  45  68  95 127 160 190 221 261
#     4   8  15  27  43  65  92 121 152 189 231 272
#     4   9  15  23  41  70  98 122 153 193 231 267
#
# _framework density 17.872714999999999
#
# number of rings (size 3 to 8) (size 9 to 14) (size 15 to 20)
#    0.000    2.800    0.000    3.600    0.000    5.200 
#    0.000    0.000    0.000   11.400    0.000    0.000 
#    0.000    0.000    0.000    0.000    0.000    0.800 
#
# Total GULP energy -495841.975819 kJ/mol
# GULP energy per Si atom -12396.049395 kJ/mol
# Density = 1.783204 g / cm^3
# Si number density = 17.872715 Si / 1000 Ang^3
#
#
#
# Elastic Constant Matrix: (Units=GPa)
#
#
# Indices 1 2 3 4 5 6 
#
# 1 40.0607 13.5259 19.3564 0.0000 0.0000 0.0000
# 2 13.5259 92.5225 50.3192 0.0000 0.0000 0.0000
# 3 19.3564 50.3192 113.8761 0.0000 0.0000 0.0000
# 4 0.0000 0.0000 0.0000 14.7131 0.0000 0.0000
# 5 0.0000 0.0000 0.0000 0.0000 22.5177 0.0000
# 6 0.0000 0.0000 0.0000 0.0000 0.0000 9.3956
#
#
#
# Elastic Compliance Matrix: (Units=1/GPa)
#
#
# Indices 1 2 3 4 5 6 
#
# 1 0.027458 -0.001943 -0.003809 0.000000 0.000000 0.000000
# 2 -0.001943 0.014365 -0.006017 0.000000 0.000000 0.000000
# 3 -0.003809 -0.006017 0.012088 0.000000 0.000000 0.000000
# 4 0.000000 0.000000 0.000000 0.067967 0.000000 0.000000
# 5 0.000000 0.000000 0.000000 0.000000 0.044409 0.000000
# 6 0.000000 0.000000 0.000000 0.000000 0.000000 0.106433
#
#
# Mechanical properties :
#
#
# Convention : Reuss Voigt Hill
#
# Bulk Modulus (GPa) = 32.92364 45.87360 39.39862
# Shear Modulus (GPa) = 16.31951 20.20914 18.26432
#
# Velocity S-wave (km/s) = 3.02503 3.36627 3.20020
# Velocity P-wave (km/s) = 5.53735 6.38996 5.97887
#
# Compressibility (1/GPa) = 0.03037331
#
# Stress axis : x y z
#
# Youngs Moduli (GPa) = 36.41871 69.61518 82.72823
#
# Poissons Ratio (x) = 0.13524 0.31511
# Poissons Ratio (y) = 0.07075 0.49779
# Poissons Ratio (z) = 0.13872 0.41889
#
# Static dielectric constant tensor:
#      x y z
#    x 2.956340 0.000000 0.000000 
#    y 0.000000 3.466750 0.000000 
#    z 0.000000 0.000000 3.522480 
# 
# 
# High freq. dielectric constant tensor:
#      x y z
#    x 1.654210 0.000000 0.000000 
#    y 0.000000 1.680090 0.000000 
#    z 0.000000 0.000000 1.689440 
# 
# From -- ./inp_files/63956.got.cif
#   From: 2010.03.12/outbox.cif.g09.slc.cpg/sg74_32_cif.got.tgz:63956.got - 2010.04.16 15:46:19.
