data_PCOD8299373
_publ_section_title
;
Structure prediction by ZEFSAII (Michael W. Deem and Ramdas Pophale) SiO2 
 PCOD8299373
Probable space group: I M M A
;
_chemical_formula_sum "Si O2"
_cell_formula_units_Z 88
_cell_length_a 8.826866
_cell_length_b 27.360635
_cell_length_c 19.023739
_cell_angle_alpha 90.000000
_cell_angle_beta 90.000000
_cell_angle_gamma 90.000000
_cell_volume 4594.397692
_symmetry_space_group_name_H-M "I M M A"
_symmetry_group_IT_number 74
_symmetry_cell_setting 'orthorhombic'
loop_
_space_group_symop_operation_xyz
x,y,z
-x,1/2-y,z
x,-y,-z
-x,1/2+y,-z
-x,-y,-z
x,1/2+y,-z
-x,y,z
x,1/2-y,z
1/2+x,1/2+y,1/2+z
1/2-x,-y,1/2+z
1/2+x,1/2-y,1/2-z
1/2-x,y,1/2-z
1/2-x,1/2-y,1/2-z
1/2+x,y,1/2-z
1/2-x,1/2+y,1/2+z
1/2+x,-y,1/2+z
loop_
_atom_site_type_symbol
_atom_site_label
_atom_site_fract_x
_atom_site_fract_y
_atom_site_fract_z
Si Si1 0.827847 0.675373 0.934074
Si Si2 0.325671 0.250000 0.322615
Si Si3 0.680193 0.995332 0.324090
Si Si4 0.322381 0.303144 0.925068
Si Si5 0.173051 0.434623 0.049809
Si Si6 0.680590 0.588615 0.096370
O O1 0.775824 0.701596 0.863565
O O2 0.813130 0.618651 0.917176
O O3 0.000000 0.689320 0.956078
O O4 0.715630 0.694712 0.993215
O O5 0.500000 0.250000 0.307868
O O6 0.250000 0.250000 0.250000
O O7 0.500000 0.995010 0.317318
O O8 0.750000 0.013656 0.250000
O O9 0.743757 0.941122 0.340013
O O10 0.734419 0.029394 0.389297
O O11 0.500000 0.302948 0.914657
O O12 0.259891 0.250000 0.894756
O O13 0.260206 0.354759 0.893167
O O14 0.000000 0.447904 0.029818
O O15 0.268525 0.436010 0.977637
O O16 0.500000 0.585899 0.100626
#
# Coordination Sequence:
#
# PCOD8299373 Si02
#       6
#    16   8  16  16  16  16
#     4   9  17  31  48  69  96 128 168 211 253 300
#     4  10  20  30  42  62  92 132 171 208 251 298
#     4  11  23  38  55  76 105 142 179 219 266 316
#     4   9  17  30  51  78 105 130 161 205 256 304
#     4   9  19  35  55  77 104 137 175 219 264 310
#     4  10  20  34  55  83 110 138 173 216 262 312
#
# _framework density 19.153762
#
# number of rings (size 3 to 8) (size 9 to 14) (size 15 to 20)
#    0.000    2.364    0.909    1.636    0.000    5.818 
#    0.000    0.000    0.000    0.545    0.000    0.000 
#    0.000    0.000    0.000    0.000    0.000    0.000 
#
# Total GULP energy -545121.280399 kJ/mol
# GULP energy per Si atom -12389.120009 kJ/mol
# Density = 1.911017 g / cm^3
# Si number density = 19.153762 Si / 1000 Ang^3
#
#
#
# Elastic Constant Matrix: (Units=GPa)
#
#
# Indices 1 2 3 4 5 6 
#
# 1 37.5770 21.2290 15.6588 0.0001 0.0000 0.0000
# 2 21.2290 115.1049 27.5802 0.0002 0.0000 0.0000
# 3 15.6588 27.5802 46.4711 0.0005 0.0000 0.0000
# 4 0.0001 0.0002 0.0005 30.4995 0.0000 0.0000
# 5 0.0000 0.0000 0.0000 0.0000 30.3163 0.0000
# 6 0.0000 0.0000 0.0000 0.0000 0.0000 23.2975
#
#
#
# Elastic Compliance Matrix: (Units=1/GPa)
#
#
# Indices 1 2 3 4 5 6 
#
# 1 0.032407 -0.003917 -0.008595 0.000000 0.000000 0.000000
# 2 -0.003917 0.010602 -0.004972 0.000000 0.000000 0.000000
# 3 -0.008595 -0.004972 0.027366 0.000000 0.000000 0.000000
# 4 0.000000 0.000000 0.000000 0.032787 0.000000 0.000000
# 5 0.000000 0.000000 0.000000 0.000000 0.032986 0.000000
# 6 0.000000 0.000000 0.000000 0.000000 0.000000 0.042923
#
#
# Mechanical properties :
#
#
# Convention : Reuss Voigt Hill
#
# Bulk Modulus (GPa) = 28.24406 36.45433 32.34920
# Shear Modulus (GPa) = 22.13956 25.80165 23.97060
#
# Velocity S-wave (km/s) = 3.40352 3.67424 3.54147
# Velocity P-wave (km/s) = 5.49757 6.08883 5.80074
#
# Compressibility (1/GPa) = 0.03540567
#
# Stress axis : x y z
#
# Youngs Moduli (GPa) = 30.85779 94.32591 36.54220
#
# Poissons Ratio (x) = 0.36952 0.31407
# Poissons Ratio (y) = 0.12088 0.18168
# Poissons Ratio (z) = 0.26522 0.46898
#
# Static dielectric constant tensor:
#      x y z
#    x 3.757450 0.000000 0.000000 
#    y 0.000000 4.254180 0.000000 
#    z 0.000000 0.000000 3.200450 
# 
# 
# High freq. dielectric constant tensor:
#      x y z
#    x 1.734390 0.000000 0.000000 
#    y 0.000000 1.769580 0.000000 
#    z 0.000000 0.000000 1.710770 
# 
# From -- ./inp_files/40085.got.cif
#   From: 2010.03.12/outbox.cif.g09.slc.cpg/sg74_21_cif.got.tgz:40085.got - 2010.04.16 15:46:19.
