data_PCOD8299925
_publ_section_title
;
Structure prediction by ZEFSAII (Michael W. Deem and Ramdas Pophale) SiO2 
 PCOD8299925
Probable space group: I M M A
;
_chemical_formula_sum "Si O2"
_cell_formula_units_Z 72
_cell_length_a 8.654549
_cell_length_b 14.493025
_cell_length_c 28.805299
_cell_angle_alpha 90.000000
_cell_angle_beta 90.000000
_cell_angle_gamma 90.000000
_cell_volume 3613.065793
_symmetry_space_group_name_H-M "I M M A"
_symmetry_group_IT_number 74
_symmetry_cell_setting 'orthorhombic'
loop_
_space_group_symop_operation_xyz
x,y,z
-x,1/2-y,z
x,-y,-z
-x,1/2+y,-z
-x,-y,-z
x,1/2+y,-z
-x,y,z
x,1/2-y,z
1/2+x,1/2+y,1/2+z
1/2-x,-y,1/2+z
1/2+x,1/2-y,1/2-z
1/2-x,y,1/2-z
1/2-x,1/2-y,1/2-z
1/2+x,y,1/2-z
1/2-x,1/2+y,1/2+z
1/2+x,-y,1/2+z
loop_
_atom_site_type_symbol
_atom_site_label
_atom_site_fract_x
_atom_site_fract_y
_atom_site_fract_z
Si Si1 0.180104 0.586620 0.615478
Si Si2 0.177607 0.250000 0.952829
Si Si3 0.820344 0.388305 0.873831
Si Si4 0.819112 0.250000 0.448081
Si Si5 0.169786 0.644048 0.794207
Si Si6 0.817571 0.750000 0.301976
O O1 0.274816 0.492656 0.616493
O O2 0.245343 0.655857 0.575576
O O3 0.211056 0.636579 0.663826
O O4 0.000000 0.564818 0.608838
O O5 0.219334 0.161416 0.922131
O O6 0.000000 0.250000 0.968916
O O7 0.283517 0.250000 0.997882
O O8 0.733051 0.341860 0.830238
O O9 0.000000 0.378895 0.862148
O O10 0.000000 0.250000 0.438877
O O11 0.142612 0.750000 0.782273
O O12 0.250000 0.594375 0.750000
O O13 0.000000 0.598782 0.804249
O O14 0.750000 0.750000 0.250000
O O15 0.000000 0.750000 0.297625
#
# Coordination Sequence:
#
# PCOD8299925 Si02
#       6
#    16   8  16   8  16   8
#     4  11  22  38  58  86 120 157 198 246 295 349
#     4   9  21  41  63  84 113 150 192 243 302 356
#     4  10  22  41  62  89 121 155 196 246 295 351
#     4  10  23  39  59  85 119 155 196 246 296 352
#     4  10  20  34  54  79 110 151 192 234 283 340
#     4  11  22  40  66  95 124 159 196 241 293 348
#
# _framework density 19.927672999999999
#
# number of rings (size 3 to 8) (size 9 to 14) (size 15 to 20)
#    0.000    1.778    1.111    3.667    0.000    7.111 
#    0.000    8.889    0.000    0.000    0.000    0.000 
#    0.000    0.000    0.000    0.000    0.000    0.000 
#
# Total GULP energy -446293.920633 kJ/mol
# GULP energy per Si atom -12397.053351 kJ/mol
# Density = 1.988232 g / cm^3
# Si number density = 19.927673 Si / 1000 Ang^3
#
#
#
# Elastic Constant Matrix: (Units=GPa)
#
#
# Indices 1 2 3 4 5 6 
#
# 1 81.4524 34.4415 41.7414 0.0000 0.0000 0.0000
# 2 34.4415 118.3195 54.9240 0.0000 0.0000 0.0000
# 3 41.7414 54.9240 147.8930 0.0000 0.0000 0.0000
# 4 0.0000 0.0000 0.0000 4.0801 0.0000 0.0000
# 5 0.0000 0.0000 0.0000 0.0000 35.8054 0.0000
# 6 0.0000 0.0000 0.0000 0.0000 0.0000 28.6252
#
#
#
# Elastic Compliance Matrix: (Units=1/GPa)
#
#
# Indices 1 2 3 4 5 6 
#
# 1 0.015150 -0.002930 -0.003188 0.000000 0.000000 0.000000
# 2 -0.002930 0.010779 -0.003176 0.000000 0.000000 0.000000
# 3 -0.003188 -0.003176 0.008841 0.000000 0.000000 0.000000
# 4 0.000000 0.000000 0.000000 0.245094 0.000000 0.000000
# 5 0.000000 0.000000 0.000000 0.000000 0.027929 0.000000
# 6 0.000000 0.000000 0.000000 0.000000 0.000000 0.034934
#
#
# Mechanical properties :
#
#
# Convention : Reuss Voigt Hill
#
# Bulk Modulus (GPa) = 61.79816 67.76431 64.78123
# Shear Modulus (GPa) = 13.63482 28.13933 20.88707
#
# Velocity S-wave (km/s) = 2.61859 3.76183 3.24102
# Velocity P-wave (km/s) = 6.34202 7.27650 6.82527
#
# Compressibility (1/GPa) = 0.01618171
#
# Stress axis : x y z
#
# Youngs Moduli (GPa) = 66.00796 92.77339 113.11152
#
# Poissons Ratio (x) = 0.27184 0.36056
# Poissons Ratio (y) = 0.19342 0.35925
# Poissons Ratio (z) = 0.21041 0.29465
#
# Static dielectric constant tensor:
#      x y z
#    x 3.737200 0.000000 0.000000 
#    y 0.000000 3.836130 0.000000 
#    z 0.000000 0.000000 3.572250 
# 
# 
# High freq. dielectric constant tensor:
#      x y z
#    x 1.784800 0.000000 0.000000 
#    y 0.000000 1.772170 0.000000 
#    z 0.000000 0.000000 1.778960 
# 
# From -- ./inp_files/63710.got.cif
#   From: 2010.03.12/outbox.cif.g09.slc.cpg/sg74_32_cif.got.tgz:63710.got - 2010.04.16 15:46:19.
