data_PCOD8299250
_publ_section_title
;
Structure prediction by ZEFSAII (Michael W. Deem and Ramdas Pophale) SiO2 
 PCOD8299250
Probable space group: I M M A
;
_chemical_formula_sum "Si O2"
_cell_formula_units_Z 96
_cell_length_a 26.339219
_cell_length_b 19.450157
_cell_length_c 8.425213
_cell_angle_alpha 90.000000
_cell_angle_beta 90.000000
_cell_angle_gamma 90.000000
_cell_volume 4316.253005
_symmetry_space_group_name_H-M "I M M A"
_symmetry_group_IT_number 74
_symmetry_cell_setting 'orthorhombic'
loop_
_space_group_symop_operation_xyz
x,y,z
-x,1/2-y,z
x,-y,-z
-x,1/2+y,-z
-x,-y,-z
x,1/2+y,-z
-x,y,z
x,1/2-y,z
1/2+x,1/2+y,1/2+z
1/2-x,-y,1/2+z
1/2+x,1/2-y,1/2-z
1/2-x,y,1/2-z
1/2-x,1/2-y,1/2-z
1/2+x,y,1/2-z
1/2-x,1/2+y,1/2+z
1/2+x,-y,1/2+z
loop_
_atom_site_type_symbol
_atom_site_label
_atom_site_fract_x
_atom_site_fract_y
_atom_site_fract_z
Si Si1 0.060094 0.172238 0.196321
Si Si2 0.058448 0.961613 0.347613
Si Si3 0.399060 0.326372 0.948792
Si Si4 0.720393 0.171891 0.913009
Si Si5 0.709638 0.053668 0.132278
Si Si6 0.378029 0.049136 0.368006
O O1 0.067957 0.250000 0.132290
O O2 0.086359 0.163592 0.367636
O O3 0.090101 0.118168 0.081362
O O4 0.000000 0.154845 0.207634
O O5 0.069091 0.880346 0.347252
O O6 0.000000 0.976902 0.341935
O O7 0.082815 0.000000 0.500000
O O8 0.081334 0.994399 0.192196
O O9 0.414779 0.250000 0.894171
O O10 0.340152 0.339174 0.904562
O O11 0.733757 0.250000 0.962367
O O12 0.750000 0.153416 0.750000
O O13 0.737610 0.119938 0.052188
O O14 0.750000 0.018458 0.250000
O O15 0.661092 0.074755 0.234868
O O16 0.691956 0.000000 0.000000
O O17 0.350649 0.000000 0.500000
#
# Coordination Sequence:
#
# PCOD8299250 Si02
#       6
#    16  16  16  16  16  16
#     4  10  20  37  64  96 130 171 219 271 325 384
#     4  11  21  36  60  90 124 165 215 269 329 391
#     4  10  19  35  61  93 129 165 211 265 318 389
#     4  10  21  39  66  97 131 168 210 266 329 391
#     4  12  25  43  66  93 127 168 216 273 331 399
#     4  12  25  41  63  93 129 174 223 276 332 395
#
# _framework density 22.241512
#
# number of rings (size 3 to 8) (size 9 to 14) (size 15 to 20)
#    0.000    1.167    3.333    3.500    0.000    4.000 
#    0.000    0.833    0.000    1.000    0.000    0.000 
#    0.000    0.000    0.000    0.000    0.000    0.000 
#
# Total GULP energy -594795.173522 kJ/mol
# GULP energy per Si atom -12391.566115 kJ/mol
# Density = 2.219089 g / cm^3
# Si number density = 22.241512 Si / 1000 Ang^3
#
#
#
# Elastic Constant Matrix: (Units=GPa)
#
#
# Indices 1 2 3 4 5 6 
#
# 1 79.9356 21.0960 31.9109 0.0000 0.0000 0.0000
# 2 21.0960 137.4309 44.1604 0.0000 0.0000 0.0000
# 3 31.9109 44.1604 69.3881 0.0000 0.0000 0.0000
# 4 0.0000 0.0000 0.0000 35.4722 0.0000 0.0000
# 5 0.0000 0.0000 0.0000 0.0000 32.4013 0.0000
# 6 0.0000 0.0000 0.0000 0.0000 0.0000 30.0428
#
#
#
# Elastic Compliance Matrix: (Units=1/GPa)
#
#
# Indices 1 2 3 4 5 6 
#
# 1 0.015325 -0.000110 -0.006977 0.000000 0.000000 0.000000
# 2 -0.000110 0.009148 -0.005771 0.000000 0.000000 0.000000
# 3 -0.006977 -0.005771 0.021293 0.000000 0.000000 0.000000
# 4 0.000000 0.000000 0.000000 0.028191 0.000000 0.000000
# 5 0.000000 0.000000 0.000000 0.000000 0.030863 0.000000
# 6 0.000000 0.000000 0.000000 0.000000 0.000000 0.033286
#
#
# Mechanical properties :
#
#
# Convention : Reuss Voigt Hill
#
# Bulk Modulus (GPa) = 49.88015 53.45434 51.66724
# Shear Modulus (GPa) = 29.32447 32.22243 30.77345
#
# Velocity S-wave (km/s) = 3.63500 3.81038 3.72372
# Velocity P-wave (km/s) = 6.33189 6.59124 6.46287
#
# Compressibility (1/GPa) = 0.02004806
#
# Stress axis : x y z
#
# Youngs Moduli (GPa) = 65.25445 109.31663 46.96283
#
# Poissons Ratio (x) = 0.01206 0.32768
# Poissons Ratio (y) = 0.00720 0.27103
# Poissons Ratio (z) = 0.45531 0.63088
#
# Static dielectric constant tensor:
#      x y z
#    x 3.950520 0.000000 0.000000 
#    y 0.000000 4.555270 0.000000 
#    z 0.000000 0.000000 3.613360 
# 
# 
# High freq. dielectric constant tensor:
#      x y z
#    x 1.879450 0.000000 0.000000 
#    y 0.000000 1.895570 0.000000 
#    z 0.000000 0.000000 1.841670 
# 
# From -- ./inp_files/15141.got.cif
#   From: 2010.03.12/outbox.cif.g09.slc.cpg/sg74_8_cif.got.tgz:15141.got - 2010.04.16 15:46:19.
