data_PCOD8299643
_publ_section_title
;
Structure prediction by ZEFSAII (Michael W. Deem and Ramdas Pophale) SiO2 
 PCOD8299643
Probable space group: I M M A
;
_chemical_formula_sum "Si O2"
_cell_formula_units_Z 88
_cell_length_a 30.362348
_cell_length_b 9.073987
_cell_length_c 18.804993
_cell_angle_alpha 90.000000
_cell_angle_beta 90.000000
_cell_angle_gamma 90.000000
_cell_volume 5180.917569
_symmetry_space_group_name_H-M "I M M A"
_symmetry_group_IT_number 74
_symmetry_cell_setting 'orthorhombic'
loop_
_space_group_symop_operation_xyz
x,y,z
-x,1/2-y,z
x,-y,-z
-x,1/2+y,-z
-x,-y,-z
x,1/2+y,-z
-x,y,z
x,1/2-y,z
1/2+x,1/2+y,1/2+z
1/2-x,-y,1/2+z
1/2+x,1/2-y,1/2-z
1/2-x,y,1/2-z
1/2-x,1/2-y,1/2-z
1/2+x,y,1/2-z
1/2-x,1/2+y,1/2+z
1/2+x,-y,1/2+z
loop_
_atom_site_type_symbol
_atom_site_label
_atom_site_fract_x
_atom_site_fract_y
_atom_site_fract_z
Si Si1 0.345634 0.923646 0.573183
Si Si2 0.548894 0.084085 0.208676
Si Si3 0.623042 0.422816 0.709775
Si Si4 0.000000 0.580827 0.574401
Si Si5 0.244177 0.421993 0.428312
Si Si6 0.291593 0.420008 0.798338
O O1 0.353632 0.750000 0.566778
O O2 0.294763 0.962011 0.589888
O O3 0.360438 0.000000 0.500000
O O4 0.375568 0.989176 0.635851
O O5 0.500000 0.076449 0.243828
O O6 0.568029 0.250000 0.217747
O O7 0.543195 0.046050 0.123852
O O8 0.579682 0.965993 0.246694
O O9 0.622500 0.250000 0.692884
O O10 0.664845 0.467533 0.756881
O O11 0.000000 0.500000 0.500000
O O12 0.000000 0.750000 0.553711
O O13 0.229111 0.500000 0.500000
O O14 0.237636 0.250000 0.438166
O O15 0.211721 0.479513 0.367644
O O16 0.292777 0.250000 0.821595
O O17 0.250000 0.454885 0.750000
#
# Coordination Sequence:
#
# PCOD8299643 Si02
#       6
#    16  16  16   8  16  16
#     4  10  20  33  51  75 104 138 177 219 260 309
#     4   8  18  36  55  78 107 139 171 211 262 311
#     4  11  21  33  54  81 106 137 176 218 262 310
#     4   8  16  32  56  82 107 136 169 208 258 308
#     4  10  20  33  51  72  99 138 181 221 263 310
#     4  10  20  34  50  72 107 143 176 218 262 307
#
# _framework density 16.985408
#
# number of rings (size 3 to 8) (size 9 to 14) (size 15 to 20)
#    0.545    1.818    1.818    1.636    0.000    4.364 
#    0.000    0.909    0.000    2.727    0.000    0.000 
#    0.000    0.000    0.000    0.000    0.000    0.000 
#
# Total GULP energy -545466.707687 kJ/mol
# GULP energy per Si atom -12396.970629 kJ/mol
# Density = 1.694675 g / cm^3
# Si number density = 16.985408 Si / 1000 Ang^3
#
#
#
# Elastic Constant Matrix: (Units=GPa)
#
#
# Indices 1 2 3 4 5 6 
#
# 1 67.2615 31.9902 45.2833 0.0000 0.0000 0.0000
# 2 31.9902 83.2981 66.8090 0.0000 0.0000 0.0000
# 3 45.2833 66.8090 129.2979 0.0000 0.0000 0.0000
# 4 0.0000 0.0000 0.0000 38.7404 0.0000 0.0000
# 5 0.0000 0.0000 0.0000 0.0000 20.5192 0.0000
# 6 0.0000 0.0000 0.0000 0.0000 0.0000 22.3936
#
#
#
# Elastic Compliance Matrix: (Units=1/GPa)
#
#
# Indices 1 2 3 4 5 6 
#
# 1 0.020045 -0.003531 -0.005196 0.000000 0.000000 0.000000
# 2 -0.003531 0.021123 -0.009678 0.000000 0.000000 0.000000
# 3 -0.005196 -0.009678 0.014554 0.000000 0.000000 0.000000
# 4 0.000000 0.000000 0.000000 0.025813 0.000000 0.000000
# 5 0.000000 0.000000 0.000000 0.000000 0.048735 0.000000
# 6 0.000000 0.000000 0.000000 0.000000 0.000000 0.044656
#
#
# Mechanical properties :
#
#
# Convention : Reuss Voigt Hill
#
# Bulk Modulus (GPa) = 52.87280 63.11362 57.99321
# Shear Modulus (GPa) = 22.93169 25.38230 24.15699
#
# Velocity S-wave (km/s) = 3.67833 3.86989 3.77533
# Velocity P-wave (km/s) = 7.01684 7.56348 7.29529
#
# Compressibility (1/GPa) = 0.01891332
#
# Stress axis : x y z
#
# Youngs Moduli (GPa) = 49.88869 47.34132 68.70774
#
# Poissons Ratio (x) = 0.16715 0.35699
# Poissons Ratio (y) = 0.17615 0.66495
# Poissons Ratio (z) = 0.25921 0.45817
#
# Static dielectric constant tensor:
#      x y z
#    x 2.908450 0.000000 0.000000 
#    y 0.000000 3.123340 0.000000 
#    z 0.000000 0.000000 3.190390 
# 
# 
# High freq. dielectric constant tensor:
#      x y z
#    x 1.622270 0.000000 0.000000 
#    y 0.000000 1.664110 0.000000 
#    z 0.000000 0.000000 1.657170 
# 
# From -- ./inp_files/47039.got.cif
#   From: 2010.03.12/outbox.cif.g09.slc.cpg/sg74_24_cif.got.tgz:47039.got - 2010.04.16 15:46:19.
