data_PCOD8299002
_publ_section_title
;
Structure prediction by ZEFSAII (Michael W. Deem and Ramdas Pophale) SiO2 
 PCOD8299002
Probable space group: I M M A
;
_chemical_formula_sum "Si O2"
_cell_formula_units_Z 80
_cell_length_a 14.119371
_cell_length_b 25.459320
_cell_length_c 11.505558
_cell_angle_alpha 90.000000
_cell_angle_beta 90.000000
_cell_angle_gamma 90.000000
_cell_volume 4135.898154
_symmetry_space_group_name_H-M "I M M A"
_symmetry_group_IT_number 74
_symmetry_cell_setting 'orthorhombic'
loop_
_space_group_symop_operation_xyz
x,y,z
-x,1/2-y,z
x,-y,-z
-x,1/2+y,-z
-x,-y,-z
x,1/2+y,-z
-x,y,z
x,1/2-y,z
1/2+x,1/2+y,1/2+z
1/2-x,-y,1/2+z
1/2+x,1/2-y,1/2-z
1/2-x,y,1/2-z
1/2-x,1/2-y,1/2-z
1/2+x,y,1/2-z
1/2-x,1/2+y,1/2+z
1/2+x,-y,1/2+z
loop_
_atom_site_type_symbol
_atom_site_label
_atom_site_fract_x
_atom_site_fract_y
_atom_site_fract_z
Si Si1 0.273817 0.191751 0.936923
Si Si2 0.604022 0.666660 0.278335
Si Si3 0.108461 0.945124 0.741481
Si Si4 0.760661 0.410116 0.070591
Si Si5 0.837767 0.556902 0.169024
O O1 0.292643 0.250000 0.988524
O O2 0.358736 0.175260 0.851976
O O3 0.174422 0.193948 0.868783
O O4 0.269894 0.149141 0.039620
O O5 0.500000 0.692341 0.288528
O O6 0.591627 0.605110 0.309229
O O7 0.155229 0.905487 0.834463
O O8 0.170243 0.941762 0.623296
O O9 0.000000 0.929434 0.715898
O O10 0.111674 0.003029 0.797258
O O11 0.799870 0.443799 0.962904
O O12 0.750000 0.569453 0.250000
#
# Coordination Sequence:
#
# PCOD8299002 Si02
#       5
#    16  16  16  16  16
#     4  10  21  37  57  82 113 152 193 240 292 335
#     4  10  19  33  56  89 122 148 181 230 290 356
#     4  11  24  39  60  86 116 158 196 234 280 332
#     4  10  22  40  60  80 119 152 193 242 278 344
#     4  11  19  37  60  88 122 151 181 227 286 352
#
# _framework density 19.342836999999999
#
# number of rings (size 3 to 8) (size 9 to 14) (size 15 to 20)
#    0.000    1.600    6.000    2.400    0.000    7.200 
#    0.000    3.000    0.000    1.200    0.000    0.000 
#    0.000    0.000    0.000    0.000    0.000    0.000 
#
# Total GULP energy -495857.419712 kJ/mol
# GULP energy per Si atom -12396.435493 kJ/mol
# Density = 1.929881 g / cm^3
# Si number density = 19.342837 Si / 1000 Ang^3
#
#
#
# Elastic Constant Matrix: (Units=GPa)
#
#
# Indices 1 2 3 4 5 6 
#
# 1 142.4523 11.8408 34.8047 0.0001 0.0000 0.0000
# 2 11.8408 127.4908 44.7688 0.0003 0.0000 -0.0001
# 3 34.8047 44.7688 64.7281 0.0016 0.0001 -0.0008
# 4 0.0001 0.0003 0.0016 17.4466 0.0001 -0.0008
# 5 0.0000 0.0000 0.0001 0.0001 11.7171 0.0000
# 6 0.0000 -0.0001 -0.0008 -0.0008 0.0000 -1.0616
#
#
#
# Elastic Compliance Matrix: (Units=1/GPa)
#
#
# Indices 1 2 3 4 5 6 
#
# 1 0.008184 0.001037 -0.005118 0.000000 0.000000 0.000004
# 2 0.001037 0.010491 -0.007814 0.000001 0.000000 0.000005
# 3 -0.005118 -0.007814 0.023606 -0.000002 0.000000 -0.000016
# 4 0.000000 0.000001 -0.000002 0.057318 0.000000 -0.000041
# 5 0.000000 0.000000 0.000000 0.000000 0.085346 0.000000
# 6 0.000004 0.000005 -0.000016 -0.000041 0.000000 -0.941930
#
#
# Mechanical properties :
#
#
# Convention : Reuss Voigt Hill
#
# Bulk Modulus (GPa) = 54.07883 57.49999 55.78941
# Shear Modulus (GPa) = -6.87727 21.83753 7.48013
#
# Velocity S-wave (km/s) = -1.88764 3.36366 1.96864
# Velocity P-wave (km/s) = 4.82368 6.69903 5.83716
#
# Compressibility (1/GPa) = 0.01849152
#
# Stress axis : x y z
#
# Youngs Moduli (GPa) = 122.18759 95.31762 42.36286
#
# Poissons Ratio (x) = -0.09885 0.21681
# Poissons Ratio (y) = -0.12672 0.33102
# Poissons Ratio (z) = 0.62535 0.74480
#
# Static dielectric constant tensor:
#      x y z
#    x 3.504250 0.000000 0.000000 
#    y 0.000000 3.613380 0.000000 
#    z 0.000000 0.000000 3.572610 
# 
# 
# High freq. dielectric constant tensor:
#      x y z
#    x 1.748560 0.000000 0.000000 
#    y 0.000000 1.751430 0.000000 
#    z 0.000000 0.000000 1.735350 
# 
# From -- ./inp_files/20808.got.cif
#   From: 2010.03.12/outbox.cif.g09.slc.cpg/sg74_11_cif.got.tgz:20808.got - 2010.04.16 15:46:19.
