data_PCOD8299366
_publ_section_title
;
Structure prediction by ZEFSAII (Michael W. Deem and Ramdas Pophale) SiO2 
 PCOD8299366
Probable space group: I M M A
;
_chemical_formula_sum "Si O2"
_cell_formula_units_Z 88
_cell_length_a 14.510996
_cell_length_b 12.398219
_cell_length_c 26.906345
_cell_angle_alpha 90.000000
_cell_angle_beta 90.000000
_cell_angle_gamma 90.000000
_cell_volume 4840.734152
_symmetry_space_group_name_H-M "I M M A"
_symmetry_group_IT_number 74
_symmetry_cell_setting 'orthorhombic'
loop_
_space_group_symop_operation_xyz
x,y,z
-x,1/2-y,z
x,-y,-z
-x,1/2+y,-z
-x,-y,-z
x,1/2+y,-z
-x,y,z
x,1/2-y,z
1/2+x,1/2+y,1/2+z
1/2-x,-y,1/2+z
1/2+x,1/2-y,1/2-z
1/2-x,y,1/2-z
1/2-x,1/2-y,1/2-z
1/2+x,y,1/2-z
1/2-x,1/2+y,1/2+z
1/2+x,-y,1/2+z
loop_
_atom_site_type_symbol
_atom_site_label
_atom_site_fract_x
_atom_site_fract_y
_atom_site_fract_z
Si Si1 0.893311 0.631623 0.368971
Si Si2 0.609270 0.750000 0.638004
Si Si3 0.896414 0.908139 0.778799
Si Si4 0.893263 0.456008 0.444930
Si Si5 0.143484 0.631838 0.257314
Si Si6 0.705680 0.250000 0.090693
Si Si7 0.390017 0.250000 0.196965
O O1 0.846446 0.750000 0.376002
O O2 0.851565 0.544876 0.406862
O O3 0.879680 0.591882 0.312637
O O4 0.000000 0.642121 0.381505
O O5 0.500000 0.750000 0.621333
O O6 0.639209 0.856182 0.669893
O O7 0.681617 0.750000 0.592034
O O8 0.854167 0.854844 0.728634
O O9 0.000000 0.867857 0.776528
O O10 0.889910 0.038275 0.780001
O O11 0.883760 0.500000 0.500000
O O12 0.829589 0.352125 0.440105
O O13 0.000000 0.427877 0.432408
O O14 0.096817 0.750000 0.246815
O O15 0.250000 0.645771 0.250000
O O16 0.663229 0.250000 0.145555
O O17 0.500000 0.250000 0.185867
#
# Coordination Sequence:
#
# PCOD8299366 Si02
#       7
#    16   8  16  16  16   8   8
#     4   9  18  33  51  69  99 146 181 207 255 312
#     4   9  22  38  52  78 106 138 178 229 276 309
#     4   9  18  32  48  68 105 142 176 220 269 312
#     4  10  22  36  54  83 115 138 168 215 264 324
#     4  10  20  29  43  70 103 136 182 221 252 301
#     4  12  22  33  58  80 104 142 179 212 267 325
#     4   9  18  30  48  80 108 136 174 217 260 318
#
# _framework density 18.179061000000001
#
# number of rings (size 3 to 8) (size 9 to 14) (size 15 to 20)
#    0.000    2.364    0.000    3.545    6.364    4.727 
#    0.000    0.000    0.000    0.545    0.000    0.000 
#    0.000    0.000    0.000    0.000    0.000    0.000 
#
# Total GULP energy -545164.617229 kJ/mol
# GULP energy per Si atom -12390.104937 kJ/mol
# Density = 1.813768 g / cm^3
# Si number density = 18.179061 Si / 1000 Ang^3
#
#
#
# Elastic Constant Matrix: (Units=GPa)
#
#
# Indices 1 2 3 4 5 6 
#
# 1 64.7346 25.3512 23.5677 0.0000 0.0000 0.0000
# 2 25.3512 143.8990 40.3997 0.0000 0.0000 0.0000
# 3 23.5677 40.3997 46.0485 0.0000 0.0000 0.0000
# 4 0.0000 0.0000 0.0000 16.8148 0.0000 0.0000
# 5 0.0000 0.0000 0.0000 0.0000 14.4199 0.0000
# 6 0.0000 0.0000 0.0000 0.0000 0.0000 15.9286
#
#
#
# Elastic Compliance Matrix: (Units=1/GPa)
#
#
# Indices 1 2 3 4 5 6 
#
# 1 0.019058 -0.000821 -0.009033 0.000000 0.000000 0.000000
# 2 -0.000821 0.009256 -0.007700 0.000000 0.000000 0.000000
# 3 -0.009033 -0.007700 0.033095 0.000000 0.000000 0.000000
# 4 0.000000 0.000000 0.000000 0.059471 0.000000 0.000000
# 5 0.000000 0.000000 0.000000 0.000000 0.069349 0.000000
# 6 0.000000 0.000000 0.000000 0.000000 0.000000 0.062780
#
#
# Mechanical properties :
#
#
# Convention : Reuss Voigt Hill
#
# Bulk Modulus (GPa) = 38.02367 48.14656 43.08512
# Shear Modulus (GPa) = 16.84157 20.45692 18.64924
#
# Velocity S-wave (km/s) = 3.04703 3.35819 3.20639
# Velocity P-wave (km/s) = 5.77415 6.44816 6.12044
#
# Compressibility (1/GPa) = 0.02629941
#
# Stress axis : x y z
#
# Youngs Moduli (GPa) = 52.47118 108.04029 30.21615
#
# Poissons Ratio (x) = 0.08875 0.27295
# Poissons Ratio (y) = 0.04310 0.23266
# Poissons Ratio (z) = 0.47399 0.83191
#
# Static dielectric constant tensor:
#      x y z
#    x 3.210860 0.000000 0.000000 
#    y 0.000000 3.987000 0.000000 
#    z 0.000000 0.000000 3.027990 
# 
# 
# High freq. dielectric constant tensor:
#      x y z
#    x 1.678980 0.000000 0.000000 
#    y 0.000000 1.722920 0.000000 
#    z 0.000000 0.000000 1.666390 
# 
# From -- ./inp_files/67020.got.cif
#   From: 2010.03.12/outbox.cif.g09.slc.cpg/sg74_34_cif.got.tgz:67020.got - 2010.04.16 15:46:19.
