data_PCOD8299188
_publ_section_title
;
Structure prediction by ZEFSAII (Michael W. Deem and Ramdas Pophale) SiO2 
 PCOD8299188
Probable space group: I M M A
;
_chemical_formula_sum "Si O2"
_cell_formula_units_Z 104
_cell_length_a 21.407235
_cell_length_b 9.126017
_cell_length_c 28.609666
_cell_angle_alpha 90.000000
_cell_angle_beta 90.000000
_cell_angle_gamma 90.000000
_cell_volume 5589.264186
_symmetry_space_group_name_H-M "I M M A"
_symmetry_group_IT_number 74
_symmetry_cell_setting 'orthorhombic'
loop_
_space_group_symop_operation_xyz
x,y,z
-x,1/2-y,z
x,-y,-z
-x,1/2+y,-z
-x,-y,-z
x,1/2+y,-z
-x,y,z
x,1/2-y,z
1/2+x,1/2+y,1/2+z
1/2-x,-y,1/2+z
1/2+x,1/2-y,1/2-z
1/2-x,y,1/2-z
1/2-x,1/2-y,1/2-z
1/2+x,y,1/2-z
1/2-x,1/2+y,1/2+z
1/2+x,-y,1/2+z
loop_
_atom_site_type_symbol
_atom_site_label
_atom_site_fract_x
_atom_site_fract_y
_atom_site_fract_z
Si Si1 0.358301 0.579287 0.885259
Si Si2 0.322820 0.423419 0.797105
Si Si3 0.243281 0.923227 0.952094
Si Si4 0.072798 0.911011 0.457346
Si Si5 0.630073 0.576267 0.403427
Si Si6 0.500000 0.421255 0.549803
Si Si7 0.818779 0.422421 0.805678
O O1 0.370968 0.750000 0.883474
O O2 0.363220 0.514186 0.833512
O O3 0.293867 0.540876 0.911963
O O4 0.415770 0.501700 0.910691
O O5 0.329537 0.250000 0.805443
O O6 0.252250 0.478360 0.806620
O O7 0.346710 0.467998 0.744993
O O8 0.235661 0.750000 0.959861
O O9 0.177297 0.991583 0.937098
O O10 0.264909 0.000000 0.000000
O O11 0.104296 0.750000 0.455029
O O12 0.000000 0.892879 0.465707
O O13 0.104023 0.000000 0.500000
O O14 0.642173 0.750000 0.407576
O O15 0.560311 0.534239 0.419478
O O16 0.640812 0.519556 0.349790
O O17 0.500000 0.250000 0.538982
O O18 0.500000 0.500000 0.500000
O O19 0.816894 0.250000 0.808112
#
# Coordination Sequence:
#
# PCOD8299188 Si02
#       7
#    16  16  16  16  16   8  16
#     4  11  22  34  51  79 110 141 175 215 264 314
#     4   9  16  30  53  79 105 136 174 215 263 317
#     4  11  23  35  49  75 107 138 174 214 262 315
#     4  10  21  37  57  79 104 138 179 217 256 309
#     4  10  19  35  56  77 103 138 178 221 270 321
#     4  10  22  36  54  78 104 138 182 226 271 324
#     4   8  15  29  53  79 102 134 174 216 264 317
#
# _framework density 18.607099999999999
#
# number of rings (size 3 to 8) (size 9 to 14) (size 15 to 20)
#    0.000    2.154    1.538    3.231    0.000    5.846 
#    0.000    2.308    1.692    0.000    0.000    0.000 
#    0.000    0.000    0.000    0.000    0.000    0.000 
#
# Total GULP energy -644588.844137 kJ/mol
# GULP energy per Si atom -12395.939310 kJ/mol
# Density = 1.856475 g / cm^3
# Si number density = 18.607100 Si / 1000 Ang^3
#
#
#
# Elastic Constant Matrix: (Units=GPa)
#
#
# Indices 1 2 3 4 5 6 
#
# 1 41.0373 21.2695 23.4152 0.0000 0.0000 0.0000
# 2 21.2695 87.1695 49.5169 0.0000 0.0000 0.0000
# 3 23.4152 49.5169 145.8402 0.0000 0.0000 0.0000
# 4 0.0000 0.0000 0.0000 30.6613 0.0000 0.0000
# 5 0.0000 0.0000 0.0000 0.0000 29.3423 0.0000
# 6 0.0000 0.0000 0.0000 0.0000 0.0000 15.6535
#
#
#
# Elastic Compliance Matrix: (Units=1/GPa)
#
#
# Indices 1 2 3 4 5 6 
#
# 1 0.028772 -0.005447 -0.002770 0.000000 0.000000 0.000000
# 2 -0.005447 0.015244 -0.004301 0.000000 0.000000 0.000000
# 3 -0.002770 -0.004301 0.008762 0.000000 0.000000 0.000000
# 4 0.000000 0.000000 0.000000 0.032614 0.000000 0.000000
# 5 0.000000 0.000000 0.000000 0.000000 0.034081 0.000000
# 6 0.000000 0.000000 0.000000 0.000000 0.000000 0.063883
#
#
# Mechanical properties :
#
#
# Convention : Reuss Voigt Hill
#
# Bulk Modulus (GPa) = 36.04702 51.38335 43.71519
# Shear Modulus (GPa) = 22.97370 27.12110 25.04740
#
# Velocity S-wave (km/s) = 3.51760 3.82195 3.67293
# Velocity P-wave (km/s) = 5.99273 6.86668 6.44454
#
# Compressibility (1/GPa) = 0.02774154
#
# Stress axis : x y z
#
# Youngs Moduli (GPa) = 34.75641 65.59807 114.12918
#
# Poissons Ratio (x) = 0.35730 0.31614
# Poissons Ratio (y) = 0.18931 0.49091
# Poissons Ratio (z) = 0.09628 0.28216
#
# Static dielectric constant tensor:
#      x y z
#    x 3.250340 0.000000 0.000000 
#    y 0.000000 3.352790 0.000000 
#    z 0.000000 0.000000 3.861780 
# 
# 
# High freq. dielectric constant tensor:
#      x y z
#    x 1.694600 0.000000 0.000000 
#    y 0.000000 1.711020 0.000000 
#    z 0.000000 0.000000 1.735440 
# 
# From -- ./inp_files/68649.got.cif
#   From: 2010.03.12/outbox.cif.g09.slc.cpg/sg74_35_cif.got.tgz:68649.got - 2010.04.16 15:46:19.
