data_PCOD8299102
_publ_section_title
;
Structure prediction by ZEFSAII (Michael W. Deem and Ramdas Pophale) SiO2 
 PCOD8299102
Probable space group: I M M A
;
_chemical_formula_sum "Si O2"
_cell_formula_units_Z 88
_cell_length_a 19.339034
_cell_length_b 18.960202
_cell_length_c 12.622488
_cell_angle_alpha 90.000000
_cell_angle_beta 90.000000
_cell_angle_gamma 90.000000
_cell_volume 4628.312808
_symmetry_space_group_name_H-M "I M M A"
_symmetry_group_IT_number 74
_symmetry_cell_setting 'orthorhombic'
loop_
_space_group_symop_operation_xyz
x,y,z
-x,1/2-y,z
x,-y,-z
-x,1/2+y,-z
-x,-y,-z
x,1/2+y,-z
-x,y,z
x,1/2-y,z
1/2+x,1/2+y,1/2+z
1/2-x,-y,1/2+z
1/2+x,1/2-y,1/2-z
1/2-x,y,1/2-z
1/2-x,1/2-y,1/2-z
1/2+x,y,1/2-z
1/2-x,1/2+y,1/2+z
1/2+x,-y,1/2+z
loop_
_atom_site_type_symbol
_atom_site_label
_atom_site_fract_x
_atom_site_fract_y
_atom_site_fract_z
Si Si1 0.142398 0.457818 0.401355
Si Si2 0.422307 0.917671 0.202430
Si Si3 0.845860 0.331946 0.535358
Si Si4 0.250000 0.400197 0.250000
Si Si5 0.079656 0.574703 0.052772
Si Si6 0.195325 0.669656 0.953666
O O1 0.176849 0.500000 0.500000
O O2 0.080485 0.505909 0.355798
O O3 0.117953 0.380103 0.442897
O O4 0.198269 0.452221 0.309417
O O5 0.500000 0.888879 0.191336
O O6 0.371344 0.859820 0.149592
O O7 0.401242 0.928009 0.323744
O O8 0.866213 0.250000 0.519173
O O9 0.763345 0.343458 0.525802
O O10 0.209637 0.351069 0.167554
O O11 0.000000 0.597459 0.035371
O O12 0.094480 0.500000 0.000000
O O13 0.129238 0.629786 0.997241
O O14 0.173395 0.750000 0.955842
#
# Coordination Sequence:
#
# PCOD8299102 Si02
#       6
#    16  16  16   8  16  16
#     4   9  19  33  53  79 106 140 181 223 268 322
#     4  10  21  36  55  79 109 146 186 229 276 326
#     4   9  20  36  53  80 113 143 181 228 277 326
#     4  10  19  34  56  82 111 142 178 224 275 324
#     4  10  22  39  58  82 112 145 182 226 275 326
#     4  10  21  37  58  83 112 145 183 228 274 326
#
# _framework density 19.013407000000001
#
# number of rings (size 3 to 8) (size 9 to 14) (size 15 to 20)
#    0.000    2.364    0.000    1.364    0.000   16.364 
#    0.000    3.636    0.000    1.091    0.000   15.273 
#    0.000    0.000    0.000    0.000    0.000    0.000 
#
# Total GULP energy -545409.921256 kJ/mol
# GULP energy per Si atom -12395.680029 kJ/mol
# Density = 1.897013 g / cm^3
# Si number density = 19.013407 Si / 1000 Ang^3
#
#
#
# Elastic Constant Matrix: (Units=GPa)
#
#
# Indices 1 2 3 4 5 6 
#
# 1 81.1353 59.1064 67.1414 0.0000 0.0000 0.0000
# 2 59.1064 141.5889 69.0043 0.0000 0.0000 0.0000
# 3 67.1414 69.0043 147.8710 0.0000 0.0000 0.0000
# 4 0.0000 0.0000 0.0000 24.6708 0.0000 0.0000
# 5 0.0000 0.0000 0.0000 0.0000 19.8078 0.0000
# 6 0.0000 0.0000 0.0000 0.0000 0.0000 29.3443
#
#
#
# Elastic Compliance Matrix: (Units=1/GPa)
#
#
# Indices 1 2 3 4 5 6 
#
# 1 0.022937 -0.005824 -0.007697 0.000000 0.000000 0.000000
# 2 -0.005824 0.010621 -0.002312 0.000000 0.000000 0.000000
# 3 -0.007697 -0.002312 0.011336 0.000000 0.000000 0.000000
# 4 0.000000 0.000000 0.000000 0.040534 0.000000 0.000000
# 5 0.000000 0.000000 0.000000 0.000000 0.050485 0.000000
# 6 0.000000 0.000000 0.000000 0.000000 0.000000 0.034078
#
#
# Mechanical properties :
#
#
# Convention : Reuss Voigt Hill
#
# Bulk Modulus (GPa) = 75.59306 84.56660 80.07983
# Shear Modulus (GPa) = 24.26404 26.45410 25.35907
#
# Velocity S-wave (km/s) = 3.57621 3.73411 3.65601
# Velocity P-wave (km/s) = 7.54297 7.94766 7.74796
#
# Compressibility (1/GPa) = 0.01322873
#
# Stress axis : x y z
#
# Youngs Moduli (GPa) = 43.59711 94.15697 88.21256
#
# Poissons Ratio (x) = 0.54837 0.67897
# Poissons Ratio (y) = 0.25391 0.20392
# Poissons Ratio (z) = 0.33557 0.21766
#
# Static dielectric constant tensor:
#      x y z
#    x 3.313810 0.000000 0.000000 
#    y 0.000000 3.603330 0.000000 
#    z 0.000000 0.000000 3.654440 
# 
# 
# High freq. dielectric constant tensor:
#      x y z
#    x 1.721210 0.000000 0.000000 
#    y 0.000000 1.743140 0.000000 
#    z 0.000000 0.000000 1.748940 
# 
# From -- ./inp_files/22179.got.cif
#   From: 2010.03.12/outbox.cif.g09.slc.cpg/sg74_12_cif.got.tgz:22179.got - 2010.04.16 15:46:19.
