data_PCOD8299257
_publ_section_title
;
Structure prediction by ZEFSAII (Michael W. Deem and Ramdas Pophale) SiO2 
 PCOD8299257
Probable space group: I M M A
;
_chemical_formula_sum "Si O2"
_cell_formula_units_Z 96
_cell_length_a 18.721702
_cell_length_b 28.513209
_cell_length_c 9.655811
_cell_angle_alpha 90.000000
_cell_angle_beta 90.000000
_cell_angle_gamma 90.000000
_cell_volume 5154.424493
_symmetry_space_group_name_H-M "I M M A"
_symmetry_group_IT_number 74
_symmetry_cell_setting 'orthorhombic'
loop_
_space_group_symop_operation_xyz
x,y,z
-x,1/2-y,z
x,-y,-z
-x,1/2+y,-z
-x,-y,-z
x,1/2+y,-z
-x,y,z
x,1/2-y,z
1/2+x,1/2+y,1/2+z
1/2-x,-y,1/2+z
1/2+x,1/2-y,1/2-z
1/2-x,y,1/2-z
1/2-x,1/2-y,1/2-z
1/2+x,y,1/2-z
1/2-x,1/2+y,1/2+z
1/2+x,-y,1/2+z
loop_
_atom_site_type_symbol
_atom_site_label
_atom_site_fract_x
_atom_site_fract_y
_atom_site_fract_z
Si Si1 0.809745 0.971467 0.142347
Si Si2 0.864448 0.608040 0.694173
Si Si3 0.221357 0.388144 0.038729
Si Si4 0.723638 0.197109 0.898291
Si Si5 0.581054 0.196757 0.040365
Si Si6 0.919429 0.509799 0.651389
O O1 0.750000 0.989154 0.250000
O O2 0.882877 0.980378 0.224700
O O3 0.798605 0.917155 0.100124
O O4 0.806318 0.000000 0.000000
O O5 0.843497 0.609360 0.854781
O O6 0.795760 0.593710 0.602677
O O7 0.900374 0.657882 0.656084
O O8 0.919637 0.565611 0.677668
O O9 0.232859 0.333517 0.007489
O O10 0.747054 0.250000 0.927541
O O11 0.750000 0.180096 0.750000
O O12 0.637525 0.190584 0.914088
O O13 0.500000 0.188818 0.985769
O O14 0.588536 0.250000 0.101540
O O15 0.884436 0.500000 0.500000
O O16 0.000000 0.491242 0.651075
#
# Coordination Sequence:
#
# PCOD8299257 Si02
#       6
#    16  16  16  16  16  16
#     4  12  22  36  58  82 109 144 189 237 281 337
#     4  10  19  36  54  80 112 144 185 233 282 335
#     4  10  20  33  54  81 108 142 189 230 279 336
#     4   9  18  33  54  81 113 144 182 234 284 336
#     4   9  18  33  56  83 110 146 187 228 280 341
#     4  11  24  40  57  80 112 150 189 235 292 346
#
# _framework density 18.624775
#
# number of rings (size 3 to 8) (size 9 to 14) (size 15 to 20)
#    0.000    1.833    1.667    3.500    0.000    2.333 
#    0.000    3.333    0.000    2.000    0.000    2.333 
#    0.000    0.000    0.000    0.000    0.000    0.000 
#
# Total GULP energy -594947.983837 kJ/mol
# GULP energy per Si atom -12394.749663 kJ/mol
# Density = 1.858238 g / cm^3
# Si number density = 18.624775 Si / 1000 Ang^3
#
#
#
# Elastic Constant Matrix: (Units=GPa)
#
#
# Indices 1 2 3 4 5 6 
#
# 1 86.0644 42.0103 53.0441 0.0000 0.0001 0.0000
# 2 42.0103 93.3886 42.0318 0.0000 0.0000 0.0000
# 3 53.0441 42.0318 118.2797 0.0003 0.0004 0.0004
# 4 0.0000 0.0000 0.0003 31.6748 0.0000 0.0001
# 5 0.0001 0.0000 0.0004 0.0000 25.2484 0.0000
# 6 0.0000 0.0000 0.0004 0.0001 0.0000 25.1535
#
#
#
# Elastic Compliance Matrix: (Units=1/GPa)
#
#
# Indices 1 2 3 4 5 6 
#
# 1 0.018038 -0.005325 -0.006197 0.000000 0.000000 0.000000
# 2 -0.005325 0.014319 -0.002700 0.000000 0.000000 0.000000
# 3 -0.006197 -0.002700 0.012193 0.000000 0.000000 0.000000
# 4 0.000000 0.000000 0.000000 0.031571 0.000000 0.000000
# 5 0.000000 0.000000 0.000000 0.000000 0.039606 0.000000
# 6 0.000000 0.000000 0.000000 0.000000 0.000000 0.039756
#
#
# Mechanical properties :
#
#
# Convention : Reuss Voigt Hill
#
# Bulk Modulus (GPa) = 62.09166 63.54499 62.81833
# Shear Modulus (GPa) = 26.41364 27.12511 26.76937
#
# Velocity S-wave (km/s) = 3.76998 3.82042 3.79529
# Velocity P-wave (km/s) = 7.23609 7.32485 7.28060
#
# Compressibility (1/GPa) = 0.01610522
#
# Stress axis : x y z
#
# Youngs Moduli (GPa) = 55.43865 69.83876 82.01299
#
# Poissons Ratio (x) = 0.37190 0.50824
# Poissons Ratio (y) = 0.29522 0.22145
# Poissons Ratio (z) = 0.34355 0.18857
#
# Static dielectric constant tensor:
#      x y z
#    x 3.361020 0.000000 0.000000 
#    y 0.000000 3.559190 0.000000 
#    z 0.000000 0.000000 3.502390 
# 
# 
# High freq. dielectric constant tensor:
#      x y z
#    x 1.712250 0.000000 0.000000 
#    y 0.000000 1.735530 0.000000 
#    z 0.000000 0.000000 1.710480 
# 
# From -- ./inp_files/12620.got.cif
#   From: 2010.03.12/outbox.cif.g09.slc.cpg/sg74_7_cif.got.tgz:12620.got - 2010.04.16 15:46:19.
