data_PCOD8299677
_publ_section_title
;
Structure prediction by ZEFSAII (Michael W. Deem and Ramdas Pophale) SiO2 
 PCOD8299677
Probable space group: I M M A
;
_chemical_formula_sum "Si O2"
_cell_formula_units_Z 96
_cell_length_a 23.381863
_cell_length_b 9.252156
_cell_length_c 21.398530
_cell_angle_alpha 90.000000
_cell_angle_beta 90.000000
_cell_angle_gamma 90.000000
_cell_volume 4629.200574
_symmetry_space_group_name_H-M "I M M A"
_symmetry_group_IT_number 74
_symmetry_cell_setting 'orthorhombic'
loop_
_space_group_symop_operation_xyz
x,y,z
-x,1/2-y,z
x,-y,-z
-x,1/2+y,-z
-x,-y,-z
x,1/2+y,-z
-x,y,z
x,1/2-y,z
1/2+x,1/2+y,1/2+z
1/2-x,-y,1/2+z
1/2+x,1/2-y,1/2-z
1/2-x,y,1/2-z
1/2-x,1/2-y,1/2-z
1/2+x,y,1/2-z
1/2-x,1/2+y,1/2+z
1/2+x,-y,1/2+z
loop_
_atom_site_type_symbol
_atom_site_label
_atom_site_fract_x
_atom_site_fract_y
_atom_site_fract_z
Si Si1 0.315482 0.916711 0.439482
Si Si2 0.064569 0.915004 0.773058
Si Si3 0.751491 0.085371 0.680372
Si Si4 0.381547 0.085136 0.831858
Si Si5 0.932558 0.910945 0.557621
Si Si6 0.562498 0.411855 0.604196
O O1 0.296602 0.750000 0.445456
O O2 0.290181 0.981463 0.373534
O O3 0.384330 0.934909 0.442212
O O4 0.290416 0.000000 0.500000
O O5 0.085993 0.750000 0.768596
O O6 0.000000 0.928229 0.746465
O O7 0.107341 0.019487 0.736243
O O8 0.066602 0.965298 0.844007
O O9 0.731441 0.250000 0.690639
O O10 0.750000 0.010214 0.750000
O O11 0.814870 0.074342 0.652315
O O12 0.403006 0.250000 0.834267
O O13 0.418098 0.990961 0.879026
O O14 0.905895 0.750000 0.557917
O O15 0.000000 0.900630 0.550421
O O16 0.905706 0.000000 0.500000
O O17 0.500000 0.427146 0.570332
O O18 0.567178 0.250000 0.633705
#
# Coordination Sequence:
#
# PCOD8299677 Si02
#       6
#    16  16  16  16  16  16
#     4  10  21  38  59  83 114 148 183 229 282 336
#     4  10  20  33  51  79 114 146 177 221 276 328
#     4   9  19  37  59  81 107 145 192 236 278 326
#     4  11  21  33  54  80 105 139 183 227 272 328
#     4  10  21  37  55  76 106 142 179 223 276 332
#     4   9  18  34  57  83 109 142 184 224 265 320
#
# _framework density 20.737922000000001
#
# number of rings (size 3 to 8) (size 9 to 14) (size 15 to 20)
#    0.000    2.167    0.000    3.000    0.000    8.333 
#    0.000    3.333    0.000    3.500    0.000    0.000 
#    0.000    0.000    0.000    0.000    0.000    0.000 
#
# Total GULP energy -594955.057201 kJ/mol
# GULP energy per Si atom -12394.897025 kJ/mol
# Density = 2.069072 g / cm^3
# Si number density = 20.737922 Si / 1000 Ang^3
#
#
#
# Elastic Constant Matrix: (Units=GPa)
#
#
# Indices 1 2 3 4 5 6 
#
# 1 57.4124 23.8030 22.0788 0.0000 0.0000 0.0000
# 2 23.8030 118.4757 39.9518 0.0000 0.0000 0.0000
# 3 22.0788 39.9518 115.5522 0.0000 0.0000 0.0000
# 4 0.0000 0.0000 0.0000 32.6820 0.0000 0.0000
# 5 0.0000 0.0000 0.0000 0.0000 22.3512 0.0000
# 6 0.0000 0.0000 0.0000 0.0000 0.0000 11.3862
#
#
#
# Elastic Compliance Matrix: (Units=1/GPa)
#
#
# Indices 1 2 3 4 5 6 
#
# 1 0.019726 -0.003047 -0.002715 0.000000 0.000000 0.000000
# 2 -0.003047 0.010025 -0.002884 0.000000 0.000000 0.000000
# 3 -0.002715 -0.002884 0.010170 0.000000 0.000000 0.000000
# 4 0.000000 0.000000 0.000000 0.030598 0.000000 0.000000
# 5 0.000000 0.000000 0.000000 0.000000 0.044740 0.000000
# 6 0.000000 0.000000 0.000000 0.000000 0.000000 0.087826
#
#
# Mechanical properties :
#
#
# Convention : Reuss Voigt Hill
#
# Bulk Modulus (GPa) = 44.19410 51.45639 47.82525
# Shear Modulus (GPa) = 21.93743 26.99098 24.46421
#
# Velocity S-wave (km/s) = 3.25598 3.61158 3.43838
# Velocity P-wave (km/s) = 5.95753 6.50061 6.23499
#
# Compressibility (1/GPa) = 0.02262745
#
# Stress axis : x y z
#
# Youngs Moduli (GPa) = 50.69576 99.74754 98.32798
#
# Poissons Ratio (x) = 0.30397 0.26700
# Poissons Ratio (y) = 0.15449 0.28357
# Poissons Ratio (z) = 0.13766 0.28767
#
# Static dielectric constant tensor:
#      x y z
#    x 3.739010 0.000000 0.000000 
#    y 0.000000 3.762400 0.000000 
#    z 0.000000 0.000000 3.589570 
# 
# 
# High freq. dielectric constant tensor:
#      x y z
#    x 1.805800 0.000000 0.000000 
#    y 0.000000 1.796040 0.000000 
#    z 0.000000 0.000000 1.802520 
# 
# From -- ./inp_files/55035.got.cif
#   From: 2010.03.12/outbox.cif.g09.slc.cpg/sg74_28_cif.got.tgz:55035.got - 2010.04.16 15:46:19.
