data_PCOD8299573
_publ_section_title
;
Structure prediction by ZEFSAII (Michael W. Deem and Ramdas Pophale) SiO2 
 PCOD8299573
Probable space group: I M M A
;
_chemical_formula_sum "Si O2"
_cell_formula_units_Z 88
_cell_length_a 20.947261
_cell_length_b 10.936677
_cell_length_c 19.655978
_cell_angle_alpha 90.000000
_cell_angle_beta 90.000000
_cell_angle_gamma 90.000000
_cell_volume 4503.055373
_symmetry_space_group_name_H-M "I M M A"
_symmetry_group_IT_number 74
_symmetry_cell_setting 'orthorhombic'
loop_
_space_group_symop_operation_xyz
x,y,z
-x,1/2-y,z
x,-y,-z
-x,1/2+y,-z
-x,-y,-z
x,1/2+y,-z
-x,y,z
x,1/2-y,z
1/2+x,1/2+y,1/2+z
1/2-x,-y,1/2+z
1/2+x,1/2-y,1/2-z
1/2-x,y,1/2-z
1/2-x,1/2-y,1/2-z
1/2+x,y,1/2-z
1/2-x,1/2+y,1/2+z
1/2+x,-y,1/2+z
loop_
_atom_site_type_symbol
_atom_site_label
_atom_site_fract_x
_atom_site_fract_y
_atom_site_fract_z
Si Si1 0.132231 0.542675 0.923263
Si Si2 0.573179 0.020809 0.179460
Si Si3 0.656080 0.750000 0.800882
Si Si4 0.299841 0.750000 0.650580
Si Si5 0.427588 0.611108 0.318792
Si Si6 0.000000 0.880552 0.955164
Si Si7 0.574626 0.887187 0.044381
O O1 0.187700 0.629361 0.894940
O O2 0.123528 0.421728 0.877407
O O3 0.065594 0.617150 0.912780
O O4 0.147222 0.500000 0.000000
O O5 0.500000 0.065459 0.173397
O O6 0.619624 0.134196 0.168701
O O7 0.587959 0.966785 0.252792
O O8 0.587670 0.917477 0.123294
O O9 0.656675 0.750000 0.718512
O O10 0.726542 0.750000 0.830298
O O11 0.500000 0.587240 0.345066
O O12 0.417641 0.750000 0.298111
O O13 0.000000 0.750000 0.995920
O O14 0.000000 0.000000 0.000000
O O15 0.500000 0.880732 0.028112
O O16 0.603464 0.750000 0.028732
O O17 0.604611 0.000000 0.000000
#
# Coordination Sequence:
#
# PCOD8299573 Si02
#       7
#    16  16   8   8  16   8  16
#     4  11  22  36  58  85 122 162 201 250 299 360
#     4  10  20  36  60  91 122 153 194 258 317 372
#     4  11  23  40  65  84 114 157 212 259 303 373
#     4  11  24  43  60  83 114 165 212 253 299 357
#     4  10  20  33  53  88 126 158 195 242 306 371
#     4  10  20  32  54  88 124 160 197 248 297 360
#     4   9  18  32  54  86 123 156 189 236 307 381
#
# _framework density 19.542287999999999
#
# number of rings (size 3 to 8) (size 9 to 14) (size 15 to 20)
#    0.000    1.818    3.636    0.818    2.545    2.909 
#    1.636    0.909    0.000    3.273    0.000    0.000 
#    0.000    0.000    0.000    0.000    0.000    0.000 
#
# Total GULP energy -545337.274047 kJ/mol
# GULP energy per Si atom -12394.028956 kJ/mol
# Density = 1.949781 g / cm^3
# Si number density = 19.542288 Si / 1000 Ang^3
#
#
#
# Elastic Constant Matrix: (Units=GPa)
#
#
# Indices 1 2 3 4 5 6 
#
# 1 54.0667 38.1471 29.4689 0.0000 0.0000 0.0000
# 2 38.1471 146.1772 43.3224 0.0000 0.0000 0.0000
# 3 29.4689 43.3224 103.0921 0.0000 0.0000 0.0000
# 4 0.0000 0.0000 0.0000 30.5321 0.0000 0.0000
# 5 0.0000 0.0000 0.0000 0.0000 18.1665 0.0000
# 6 0.0000 0.0000 0.0000 0.0000 0.0000 8.8855
#
#
#
# Elastic Compliance Matrix: (Units=1/GPa)
#
#
# Indices 1 2 3 4 5 6 
#
# 1 0.024718 -0.004976 -0.004974 0.000000 0.000000 0.000000
# 2 -0.004976 0.008816 -0.002282 0.000000 0.000000 0.000000
# 3 -0.004974 -0.002282 0.012081 0.000000 0.000000 0.000000
# 4 0.000000 0.000000 0.000000 0.032752 0.000000 0.000000
# 5 0.000000 0.000000 0.000000 0.000000 0.055046 0.000000
# 6 0.000000 0.000000 0.000000 0.000000 0.000000 0.112542
#
#
# Mechanical properties :
#
#
# Convention : Reuss Voigt Hill
#
# Bulk Modulus (GPa) = 47.28336 58.35700 52.82018
# Shear Modulus (GPa) = 18.01983 24.34334 21.18158
#
# Velocity S-wave (km/s) = 3.03989 3.53324 3.29581
# Velocity P-wave (km/s) = 6.04725 6.82435 6.44752
#
# Compressibility (1/GPa) = 0.02114909
#
# Stress axis : x y z
#
# Youngs Moduli (GPa) = 40.45633 113.42956 82.77377
#
# Poissons Ratio (x) = 0.56445 0.41176
# Poissons Ratio (y) = 0.20132 0.18892
# Poissons Ratio (z) = 0.20125 0.25888
#
# Static dielectric constant tensor:
#      x y z
#    x 3.263680 0.000000 0.000000 
#    y 0.000000 3.752160 0.000000 
#    z 0.000000 0.000000 3.576510 
# 
# 
# High freq. dielectric constant tensor:
#      x y z
#    x 1.707020 0.000000 0.000000 
#    y 0.000000 1.776100 0.000000 
#    z 0.000000 0.000000 1.766780 
# 
# From -- ./inp_files/45151.got.cif
#   From: 2010.03.12/outbox.cif.g09.slc.cpg/sg74_23_cif.got.tgz:45151.got - 2010.04.16 15:46:19.
