data_PCOD8299216
_publ_section_title
;
Structure prediction by ZEFSAII (Michael W. Deem and Ramdas Pophale) SiO2 
 PCOD8299216
Probable space group: I M M A
;
_chemical_formula_sum "Si O2"
_cell_formula_units_Z 88
_cell_length_a 15.770244
_cell_length_b 16.872823
_cell_length_c 17.020545
_cell_angle_alpha 90.000000
_cell_angle_beta 90.000000
_cell_angle_gamma 90.000000
_cell_volume 4528.971896
_symmetry_space_group_name_H-M "I M M A"
_symmetry_group_IT_number 74
_symmetry_cell_setting 'orthorhombic'
loop_
_space_group_symop_operation_xyz
x,y,z
-x,1/2-y,z
x,-y,-z
-x,1/2+y,-z
-x,-y,-z
x,1/2+y,-z
-x,y,z
x,1/2-y,z
1/2+x,1/2+y,1/2+z
1/2-x,-y,1/2+z
1/2+x,1/2-y,1/2-z
1/2-x,y,1/2-z
1/2-x,1/2-y,1/2-z
1/2+x,y,1/2-z
1/2-x,1/2+y,1/2+z
1/2+x,-y,1/2+z
loop_
_atom_site_type_symbol
_atom_site_label
_atom_site_fract_x
_atom_site_fract_y
_atom_site_fract_z
Si Si1 0.171046 0.461855 0.309951
Si Si2 0.000000 0.836376 0.165509
Si Si3 0.691201 0.574379 0.054213
Si Si4 0.635964 0.660692 0.467812
Si Si5 0.597708 0.657481 0.929848
Si Si6 0.000000 0.925628 0.944038
Si Si7 0.500000 0.503317 0.725951
O O1 0.250000 0.449694 0.250000
O O2 0.178390 0.546272 0.355764
O O3 0.162580 0.388657 0.371308
O O4 0.083539 0.462599 0.264445
O O5 0.082295 0.843099 0.111472
O O6 0.000000 0.907285 0.228156
O O7 0.000000 0.750000 0.208336
O O8 0.785345 0.605255 0.046301
O O9 0.675797 0.500000 0.000000
O O10 0.624485 0.639596 0.021000
O O11 0.664586 0.750000 0.487327
O O12 0.583042 0.627988 0.541788
O O13 0.500000 0.630679 0.917515
O O14 0.608221 0.750000 0.912749
O O15 0.000000 0.961325 0.859479
O O16 0.000000 0.000000 0.000000
#
# Coordination Sequence:
#
# PCOD8299216 Si02
#       7
#    16   8  16  16  16   8   8
#     4  11  25  40  63  95 128 167 210 254 320 384
#     4   9  19  34  55  80 118 161 197 248 308 363
#     4  10  22  37  64  86 117 158 217 255 301 362
#     4  10  19  35  57  89 120 152 201 262 310 359
#     4  10  22  43  67  91 121 164 213 265 316 368
#     4  11  21  33  61  87 118 165 211 252 308 380
#     4  12  23  40  61  88 130 167 207 256 320 378
#
# _framework density 19.430458999999999
#
# number of rings (size 3 to 8) (size 9 to 14) (size 15 to 20)
#    0.000    1.636    2.727    3.000    6.364    1.455 
#    0.000    3.636    0.000    4.909    0.000    0.000 
#    0.000    0.000    0.000    0.000    0.000    0.000 
#
# Total GULP energy -545390.181581 kJ/mol
# GULP energy per Si atom -12395.231400 kJ/mol
# Density = 1.938623 g / cm^3
# Si number density = 19.430459 Si / 1000 Ang^3
#
#
#
# Elastic Constant Matrix: (Units=GPa)
#
#
# Indices 1 2 3 4 5 6 
#
# 1 119.0539 13.8898 43.6889 0.0000 0.0000 0.0000
# 2 13.8898 56.8624 25.1900 0.0000 0.0000 0.0000
# 3 43.6889 25.1900 87.6006 0.0000 0.0000 0.0000
# 4 0.0000 0.0000 0.0000 24.6431 0.0000 0.0000
# 5 0.0000 0.0000 0.0000 0.0000 100.1049 0.0000
# 6 0.0000 0.0000 0.0000 0.0000 0.0000 33.1432
#
#
#
# Elastic Compliance Matrix: (Units=1/GPa)
#
#
# Indices 1 2 3 4 5 6 
#
# 1 0.010285 -0.000275 -0.005050 0.000000 0.000000 0.000000
# 2 -0.000275 0.020161 -0.005660 0.000000 0.000000 0.000000
# 3 -0.005050 -0.005660 0.015562 0.000000 0.000000 0.000000
# 4 0.000000 0.000000 0.000000 0.040579 0.000000 0.000000
# 5 0.000000 0.000000 0.000000 0.000000 0.009990 0.000000
# 6 0.000000 0.000000 0.000000 0.000000 0.000000 0.030172
#
#
# Mechanical properties :
#
#
# Convention : Reuss Voigt Hill
#
# Bulk Modulus (GPa) = 41.60324 47.67271 44.63798
# Shear Modulus (GPa) = 31.90158 43.62811 37.76485
#
# Velocity S-wave (km/s) = 4.05635 4.74365 4.41340
# Velocity P-wave (km/s) = 6.58760 7.38859 6.99956
#
# Compressibility (1/GPa) = 0.02403659
#
# Stress axis : x y z
#
# Youngs Moduli (GPa) = 97.22949 49.60079 64.25985
#
# Poissons Ratio (x) = 0.01364 0.32453
# Poissons Ratio (y) = 0.02674 0.36373
# Poissons Ratio (z) = 0.49104 0.28075
#
# Static dielectric constant tensor:
#      x y z
#    x 3.658140 0.000000 0.000000 
#    y 0.000000 3.880350 0.000000 
#    z 0.000000 0.000000 3.436030 
# 
# 
# High freq. dielectric constant tensor:
#      x y z
#    x 1.766500 0.000000 0.000000 
#    y 0.000000 1.764890 0.000000 
#    z 0.000000 0.000000 1.738070 
# 
# From -- ./inp_files/42842.got.cif
#   From: 2010.03.12/outbox.cif.g09.slc.cpg/sg74_22_cif.got.tgz:42842.got - 2010.04.16 15:46:19.
