data_PCOD8299438
_publ_section_title
;
Structure prediction by ZEFSAII (Michael W. Deem and Ramdas Pophale) SiO2 
 PCOD8299438
Probable space group: I M M A
;
_chemical_formula_sum "Si O2"
_cell_formula_units_Z 104
_cell_length_a 9.269617
_cell_length_b 23.898447
_cell_length_c 23.067342
_cell_angle_alpha 90.000000
_cell_angle_beta 90.000000
_cell_angle_gamma 90.000000
_cell_volume 5110.095600
_symmetry_space_group_name_H-M "I M M A"
_symmetry_group_IT_number 74
_symmetry_cell_setting 'orthorhombic'
loop_
_space_group_symop_operation_xyz
x,y,z
-x,1/2-y,z
x,-y,-z
-x,1/2+y,-z
-x,-y,-z
x,1/2+y,-z
-x,y,z
x,1/2-y,z
1/2+x,1/2+y,1/2+z
1/2-x,-y,1/2+z
1/2+x,1/2-y,1/2-z
1/2-x,y,1/2-z
1/2-x,1/2-y,1/2-z
1/2+x,y,1/2-z
1/2-x,1/2+y,1/2+z
1/2+x,-y,1/2+z
loop_
_atom_site_type_symbol
_atom_site_label
_atom_site_fract_x
_atom_site_fract_y
_atom_site_fract_z
Si Si1 0.835589 0.582761 0.115538
Si Si2 0.838700 0.311882 0.476068
Si Si3 0.836201 0.583917 0.977925
Si Si4 0.167691 0.871179 0.689874
Si Si5 0.165288 0.750000 0.690941
Si Si6 0.338042 0.311607 0.885872
Si Si7 0.170759 0.524528 0.612437
O O1 0.769217 0.641068 0.139067
O O2 0.741588 0.531128 0.140331
O O3 0.000000 0.578041 0.137275
O O4 0.825308 0.581560 0.046504
O O5 0.799735 0.250000 0.451792
O O6 0.724239 0.356991 0.453531
O O7 0.836495 0.311029 0.545099
O O8 0.000000 0.328821 0.454443
O O9 0.740155 0.534028 0.951149
O O10 0.000000 0.576589 0.956619
O O11 0.250000 0.875288 0.750000
O O12 0.198089 0.809813 0.658621
O O13 0.219336 0.921775 0.649563
O O14 0.000000 0.878569 0.703563
O O15 0.250000 0.750000 0.750000
O O16 0.000000 0.750000 0.709397
O O17 0.500000 0.324732 0.864087
O O18 0.288617 0.250000 0.863516
O O19 0.000000 0.516371 0.607364
#
# Coordination Sequence:
#
# PCOD8299438 Si02
#       7
#    16  16  16  16   8  16  16
#     4  10  20  32  47  68  96 132 168 205 248 287
#     4   8  14  26  43  61  83 116 157 197 239 284
#     4  10  20  32  45  64  93 127 165 206 247 290
#     4   9  19  35  56  78  98 123 157 201 254 306
#     4   8  14  30  54  76  96 118 150 194 246 302
#     4   8  14  26  45  67  90 120 159 199 237 278
#     4  11  22  34  48  70  96 126 165 201 242 298
#
# _framework density 20.351870000000002
#
# number of rings (size 3 to 8) (size 9 to 14) (size 15 to 20)
#    0.000    2.769    0.000    2.769    0.000    5.538 
#    1.385    3.077    0.000    0.000    0.000    0.000 
#    0.000    0.615    0.000    2.000    0.000    2.462 
#
# Total GULP energy -644399.963283 kJ/mol
# GULP energy per Si atom -12392.306986 kJ/mol
# Density = 2.030555 g / cm^3
# Si number density = 20.351870 Si / 1000 Ang^3
#
#
#
# Elastic Constant Matrix: (Units=GPa)
#
#
# Indices 1 2 3 4 5 6 
#
# 1 112.4119 77.3863 13.1011 0.0000 0.0000 0.0000
# 2 77.3863 179.1475 17.3544 0.0000 0.0000 0.0000
# 3 13.1011 17.3544 10.5526 0.0000 0.0000 0.0000
# 4 0.0000 0.0000 0.0000 19.7611 0.0000 0.0000
# 5 0.0000 0.0000 0.0000 0.0000 14.6541 0.0000
# 6 0.0000 0.0000 0.0000 0.0000 0.0000 32.4244
#
#
#
# Elastic Compliance Matrix: (Units=1/GPa)
#
#
# Indices 1 2 3 4 5 6 
#
# 1 0.013255 -0.004915 -0.008374 0.000000 0.000000 0.000000
# 2 -0.004915 0.008462 -0.007815 0.000000 0.000000 0.000000
# 3 -0.008374 -0.007815 0.118012 0.000000 0.000000 0.000000
# 4 0.000000 0.000000 0.000000 0.050605 0.000000 0.000000
# 5 0.000000 0.000000 0.000000 0.000000 0.068240 0.000000
# 6 0.000000 0.000000 0.000000 0.000000 0.000000 0.030841
#
#
# Mechanical properties :
#
#
# Convention : Reuss Voigt Hill
#
# Bulk Modulus (GPa) = 10.25405 57.53283 33.89344
# Shear Modulus (GPa) = 13.73139 26.31924 20.02531
#
# Velocity S-wave (km/s) = 2.60031 3.60002 3.14021
# Velocity P-wave (km/s) = 3.75031 6.75357 5.46239
#
# Compressibility (1/GPa) = 0.09752243
#
# Stress axis : x y z
#
# Youngs Moduli (GPa) = 75.44265 118.17564 8.47371
#
# Poissons Ratio (x) = 0.58079 0.07096
# Poissons Ratio (y) = 0.37077 0.06622
# Poissons Ratio (z) = 0.63176 0.92351
#
# Static dielectric constant tensor:
#      x y z
#    x 5.625590 0.000000 0.000000 
#    y 0.000000 4.357160 0.000000 
#    z 0.000000 0.000000 3.151370 
# 
# 
# High freq. dielectric constant tensor:
#      x y z
#    x 1.791190 0.000000 0.000000 
#    y 0.000000 1.821550 0.000000 
#    z 0.000000 0.000000 1.727840 
# 
# From -- ./inp_files/64793.got.cif
#   From: 2010.03.12/outbox.cif.g09.slc.cpg/sg74_33_cif.got.tgz:64793.got - 2010.04.16 15:46:19.
