data_PCOD8299658
_publ_section_title
;
Structure prediction by ZEFSAII (Michael W. Deem and Ramdas Pophale) SiO2 
 PCOD8299658
Probable space group: I M M A
;
_chemical_formula_sum "Si O2"
_cell_formula_units_Z 64
_cell_length_a 9.454086
_cell_length_b 15.513548
_cell_length_c 19.775083
_cell_angle_alpha 90.000000
_cell_angle_beta 90.000000
_cell_angle_gamma 90.000000
_cell_volume 2900.340569
_symmetry_space_group_name_H-M "I M M A"
_symmetry_group_IT_number 74
_symmetry_cell_setting 'orthorhombic'
loop_
_space_group_symop_operation_xyz
x,y,z
-x,1/2-y,z
x,-y,-z
-x,1/2+y,-z
-x,-y,-z
x,1/2+y,-z
-x,y,z
x,1/2-y,z
1/2+x,1/2+y,1/2+z
1/2-x,-y,1/2+z
1/2+x,1/2-y,1/2-z
1/2-x,y,1/2-z
1/2-x,1/2-y,1/2-z
1/2+x,y,1/2-z
1/2-x,1/2+y,1/2+z
1/2+x,-y,1/2+z
loop_
_atom_site_type_symbol
_atom_site_label
_atom_site_fract_x
_atom_site_fract_y
_atom_site_fract_z
Si Si1 0.655148 0.152795 0.567213
Si Si2 0.341050 0.647205 0.186901
Si Si3 0.662816 0.349266 0.185356
Si Si4 0.661685 0.088219 0.040476
O O1 0.500000 0.106980 0.565737
O O2 0.630927 0.250000 0.591205
O O3 0.762121 0.108772 0.620944
O O4 0.729293 0.154195 0.494020
O O5 0.500000 0.608103 0.189600
O O6 0.351244 0.750000 0.185427
O O7 0.250000 0.614391 0.250000
O O8 0.500000 0.356685 0.205667
O O9 0.702222 0.250000 0.167610
O O10 0.750000 0.382940 0.250000
O O11 0.696142 0.410691 0.120608
O O12 0.500000 0.118732 0.029474
O O13 0.691252 0.000000 0.000000
#
# Coordination Sequence:
#
# PCOD8299658 Si02
#       4
#    16  16  16  16
#     4  10  20  33  51  76 104 137 180 227 276 334
#     4   9  16  27  45  69  98 131 168 213 261 308
#     4   9  18  34  58  86 113 143 184 235 287 338
#     4  10  21  37  56  79 110 147 184 225 281 348
#
# _framework density 22.066374
#
# number of rings (size 3 to 8) (size 9 to 14) (size 15 to 20)
#    0.000    2.500    0.000    2.250    0.000    7.000 
#    0.000    3.750    0.000    3.000    0.000    0.000 
#    0.000    0.000    0.000    0.000    0.000    0.000 
#
# Total GULP energy -396575.773061 kJ/mol
# GULP energy per Si atom -12392.992908 kJ/mol
# Density = 2.201615 g / cm^3
# Si number density = 22.066374 Si / 1000 Ang^3
#
#
#
# Elastic Constant Matrix: (Units=GPa)
#
#
# Indices 1 2 3 4 5 6 
#
# 1 182.8016 15.0042 109.6921 0.0000 0.0000 0.0000
# 2 15.0042 39.0397 28.2325 0.0000 0.0000 0.0000
# 3 109.6921 28.2325 198.8573 0.0000 0.0000 0.0000
# 4 0.0000 0.0000 0.0000 23.9986 0.0000 0.0000
# 5 0.0000 0.0000 0.0000 0.0000 44.7296 0.0000
# 6 0.0000 0.0000 0.0000 0.0000 0.0000 10.6767
#
#
#
# Elastic Compliance Matrix: (Units=1/GPa)
#
#
# Indices 1 2 3 4 5 6 
#
# 1 0.008178 0.000133 -0.004530 0.000000 0.000000 0.000000
# 2 0.000133 0.028548 -0.004126 0.000000 0.000000 0.000000
# 3 -0.004530 -0.004126 0.008113 0.000000 0.000000 0.000000
# 4 0.000000 0.000000 0.000000 0.041669 0.000000 0.000000
# 5 0.000000 0.000000 0.000000 0.000000 0.022357 0.000000
# 6 0.000000 0.000000 0.000000 0.000000 0.000000 0.093661
#
#
# Mechanical properties :
#
#
# Convention : Reuss Voigt Hill
#
# Bulk Modulus (GPa) = 35.98106 80.72847 58.35477
# Shear Modulus (GPa) = 21.84965 33.73231 27.79098
#
# Velocity S-wave (km/s) = 3.15012 3.91407 3.55269
# Velocity P-wave (km/s) = 5.43804 7.55582 6.58265
#
# Compressibility (1/GPa) = 0.02779240
#
# Stress axis : x y z
#
# Youngs Moduli (GPa) = 122.28488 35.02872 123.25549
#
# Poissons Ratio (x) = -0.00465 0.55832
# Poissons Ratio (y) = -0.01625 0.50860
# Poissons Ratio (z) = 0.55392 0.14454
#
# Static dielectric constant tensor:
#      x y z
#    x 4.217500 0.000000 0.000000 
#    y 0.000000 3.454320 0.000000 
#    z 0.000000 0.000000 4.023760 
# 
# 
# High freq. dielectric constant tensor:
#      x y z
#    x 1.876290 0.000000 0.000000 
#    y 0.000000 1.822390 0.000000 
#    z 0.000000 0.000000 1.873040 
# 
# From -- ./inp_files/39068.got.cif
#   From: 2010.03.12/outbox.cif.g09.slc.cpg/sg74_20_cif.got.tgz:39068.got - 2010.04.16 15:46:19.
