data_PCOD8299947
_publ_section_title
;
Structure prediction by ZEFSAII (Michael W. Deem and Ramdas Pophale) SiO2 
 PCOD8299947
Probable space group: I M M A
;
_chemical_formula_sum "Si O2"
_cell_formula_units_Z 56
_cell_length_a 9.010107
_cell_length_b 22.516365
_cell_length_c 14.134521
_cell_angle_alpha 90.000000
_cell_angle_beta 90.000000
_cell_angle_gamma 90.000000
_cell_volume 2867.538939
_symmetry_space_group_name_H-M "I M M A"
_symmetry_group_IT_number 74
_symmetry_cell_setting 'orthorhombic'
loop_
_space_group_symop_operation_xyz
x,y,z
-x,1/2-y,z
x,-y,-z
-x,1/2+y,-z
-x,-y,-z
x,1/2+y,-z
-x,y,z
x,1/2-y,z
1/2+x,1/2+y,1/2+z
1/2-x,-y,1/2+z
1/2+x,1/2-y,1/2-z
1/2-x,y,1/2-z
1/2-x,1/2-y,1/2-z
1/2+x,y,1/2-z
1/2-x,1/2+y,1/2+z
1/2+x,-y,1/2+z
loop_
_atom_site_type_symbol
_atom_site_label
_atom_site_fract_x
_atom_site_fract_y
_atom_site_fract_z
Si Si1 0.175802 0.602243 0.343056
Si Si2 0.661585 0.524583 0.895911
Si Si3 0.825707 0.133007 0.037057
Si Si4 0.826446 0.750000 0.850711
O O1 0.250000 0.631986 0.250000
O O2 0.216867 0.532033 0.336144
O O3 0.242646 0.632072 0.436776
O O4 0.000000 0.612869 0.343468
O O5 0.500000 0.547497 0.859816
O O6 0.778519 0.578453 0.894262
O O7 0.641043 0.500000 0.000000
O O8 0.777604 0.192792 0.089546
O O9 0.000000 0.129037 0.018120
O O10 0.750000 0.750000 0.750000
O O11 0.000000 0.750000 0.831849
#
# Coordination Sequence:
#
# PCOD8299947 Si02
#       4
#    16  16  16   8
#     4  10  20  34  54  82 114 146 179 218 267 323
#     4   8  16  31  50  75 107 140 174 213 260 312
#     4  10  20  36  56  79 109 143 182 226 270 317
#     4  10  24  42  59  80 105 138 181 228 272 318
#
# _framework density 19.528942000000001
#
# number of rings (size 3 to 8) (size 9 to 14) (size 15 to 20)
#    0.000    2.571    0.000    3.429    0.000    9.714 
#    0.000    6.429    0.000    0.000    0.000    0.000 
#    0.000    0.000    0.000    0.000    0.000    0.000 
#
# Total GULP energy -347038.027001 kJ/mol
# GULP energy per Si atom -12394.215250 kJ/mol
# Density = 1.948449 g / cm^3
# Si number density = 19.528942 Si / 1000 Ang^3
#
#
#
# Elastic Constant Matrix: (Units=GPa)
#
#
# Indices 1 2 3 4 5 6 
#
# 1 101.8396 60.7207 69.3219 0.0000 0.0000 0.0000
# 2 60.7207 116.6002 55.4352 0.0000 0.0000 0.0000
# 3 69.3219 55.4352 124.8964 0.0002 0.0000 0.0000
# 4 0.0000 0.0000 0.0002 19.9493 0.0000 0.0000
# 5 0.0000 0.0000 0.0000 0.0000 30.4232 0.0000
# 6 0.0000 0.0000 0.0000 0.0000 0.0000 31.3641
#
#
#
# Elastic Compliance Matrix: (Units=1/GPa)
#
#
# Indices 1 2 3 4 5 6 
#
# 1 0.018653 -0.006073 -0.007657 0.000000 0.000000 0.000000
# 2 -0.006073 0.012847 -0.002332 0.000000 0.000000 0.000000
# 3 -0.007657 -0.002332 0.013292 0.000000 0.000000 0.000000
# 4 0.000000 0.000000 0.000000 0.050127 0.000000 0.000000
# 5 0.000000 0.000000 0.000000 0.000000 0.032870 0.000000
# 6 0.000000 0.000000 0.000000 0.000000 0.000000 0.031884
#
#
# Mechanical properties :
#
#
# Convention : Reuss Voigt Hill
#
# Bulk Modulus (GPa) = 78.94064 79.36576 79.15320
# Shear Modulus (GPa) = 25.50778 26.87120 26.18949
#
# Velocity S-wave (km/s) = 3.61799 3.71343 3.66602
# Velocity P-wave (km/s) = 7.61336 7.68859 7.65107
#
# Compressibility (1/GPa) = 0.01266775
#
# Stress axis : x y z
#
# Youngs Moduli (GPa) = 53.61155 77.83676 75.23535
#
# Poissons Ratio (x) = 0.47270 0.57611
# Poissons Ratio (y) = 0.32558 0.17542
# Poissons Ratio (z) = 0.41052 0.18148
#
# Static dielectric constant tensor:
#      x y z
#    x 3.572460 0.000000 0.000000 
#    y 0.000000 3.678330 0.000000 
#    z 0.000000 0.000000 3.760210 
# 
# 
# High freq. dielectric constant tensor:
#      x y z
#    x 1.766810 0.000000 0.000000 
#    y 0.000000 1.739250 0.000000 
#    z 0.000000 0.000000 1.760930 
# 
# From -- ./inp_files/28482.got.cif
#   From: 2010.03.12/outbox.cif.g09.slc.cpg/sg74_15_cif.got.tgz:28482.got - 2010.04.16 15:46:19.
