data_PCOD8299046
_publ_section_title
;
Structure prediction by ZEFSAII (Michael W. Deem and Ramdas Pophale) SiO2 
 PCOD8299046
Probable space group: I M M A
;
_chemical_formula_sum "Si O2"
_cell_formula_units_Z 72
_cell_length_a 16.434323
_cell_length_b 8.940597
_cell_length_c 27.847257
_cell_angle_alpha 90.000000
_cell_angle_beta 90.000000
_cell_angle_gamma 90.000000
_cell_volume 4091.671514
_symmetry_space_group_name_H-M "I M M A"
_symmetry_group_IT_number 74
_symmetry_cell_setting 'orthorhombic'
loop_
_space_group_symop_operation_xyz
x,y,z
-x,1/2-y,z
x,-y,-z
-x,1/2+y,-z
-x,-y,-z
x,1/2+y,-z
-x,y,z
x,1/2-y,z
1/2+x,1/2+y,1/2+z
1/2-x,-y,1/2+z
1/2+x,1/2-y,1/2-z
1/2-x,y,1/2-z
1/2-x,1/2-y,1/2-z
1/2+x,y,1/2-z
1/2-x,1/2+y,1/2+z
1/2+x,-y,1/2+z
loop_
_atom_site_type_symbol
_atom_site_label
_atom_site_fract_x
_atom_site_fract_y
_atom_site_fract_z
Si Si1 0.908285 0.425302 0.188708
Si Si2 0.829189 0.413984 0.282288
Si Si3 0.259536 0.426059 0.637961
Si Si4 0.323407 0.426305 0.052146
Si Si5 0.500000 0.578544 0.950159
O O1 0.887641 0.250000 0.182353
O O2 0.899533 0.468463 0.245468
O O3 0.847596 0.519979 0.155812
O O4 0.000000 0.462388 0.172505
O O5 0.850204 0.250000 0.304403
O O6 0.750000 0.399760 0.250000
O O7 0.812989 0.529320 0.325289
O O8 0.260398 0.250000 0.632077
O O9 0.243452 0.501127 0.586652
O O10 0.307031 0.250000 0.047747
O O11 0.413849 0.460347 0.075587
O O12 0.314773 0.500000 0.000000
O O13 0.500000 0.750000 0.963553
O O14 0.500000 0.500000 0.000000
#
# Coordination Sequence:
#
# PCOD8299046 Si02
#       5
#    16  16  16  16   8
#     4   9  18  34  55  76  99 132 173 215 258 303
#     4   8  15  30  50  70  95 127 165 207 249 295
#     4  11  21  32  49  75 106 139 171 206 251 303
#     4  10  19  34  54  76 102 133 171 212 254 301
#     4   8  16  30  50  72  94 124 160 202 248 292
#
# _framework density 17.596720000000001
#
# number of rings (size 3 to 8) (size 9 to 14) (size 15 to 20)
#    0.000    2.667    0.000    4.000    0.000    5.333 
#    2.000    0.000    0.000    0.667    0.000    0.000 
#    0.000    0.000    0.000    0.000    0.000    0.000 
#
# Total GULP energy -446016.146453 kJ/mol
# GULP energy per Si atom -12389.337401 kJ/mol
# Density = 1.755667 g / cm^3
# Si number density = 17.596720 Si / 1000 Ang^3
#
#
#
# Elastic Constant Matrix: (Units=GPa)
#
#
# Indices 1 2 3 4 5 6 
#
# 1 85.1412 49.4026 48.0024 0.0000 0.0000 0.0000
# 2 49.4026 111.7419 56.7006 0.0000 0.0000 0.0000
# 3 48.0024 56.7006 92.1615 0.0000 0.0000 0.0000
# 4 0.0000 0.0000 0.0000 28.6366 0.0000 0.0000
# 5 0.0000 0.0000 0.0000 0.0000 20.3167 0.0000
# 6 0.0000 0.0000 0.0000 0.0000 0.0000 16.8892
#
#
#
# Elastic Compliance Matrix: (Units=1/GPa)
#
#
# Indices 1 2 3 4 5 6 
#
# 1 0.018181 -0.004700 -0.006578 0.000000 0.000000 0.000000
# 2 -0.004700 0.014226 -0.006304 0.000000 0.000000 0.000000
# 3 -0.006578 -0.006304 0.018155 0.000000 0.000000 0.000000
# 4 0.000000 0.000000 0.000000 0.034920 0.000000 0.000000
# 5 0.000000 0.000000 0.000000 0.000000 0.049221 0.000000
# 6 0.000000 0.000000 0.000000 0.000000 0.000000 0.059209
#
#
# Mechanical properties :
#
#
# Convention : Reuss Voigt Hill
#
# Bulk Modulus (GPa) = 64.94506 66.36175 65.65341
# Shear Modulus (GPa) = 21.34835 22.16444 21.75640
#
# Velocity S-wave (km/s) = 3.48688 3.55290 3.52005
# Velocity P-wave (km/s) = 7.29375 7.39089 7.34248
#
# Compressibility (1/GPa) = 0.01539763
#
# Stress axis : x y z
#
# Youngs Moduli (GPa) = 55.00216 70.29291 55.08085
#
# Poissons Ratio (x) = 0.33040 0.36231
# Poissons Ratio (y) = 0.25853 0.34724
# Poissons Ratio (z) = 0.36180 0.44314
#
# Static dielectric constant tensor:
#      x y z
#    x 3.584400 0.000000 0.000000 
#    y 0.000000 3.186460 0.000000 
#    z 0.000000 0.000000 3.151940 
# 
# 
# High freq. dielectric constant tensor:
#      x y z
#    x 1.669460 0.000000 0.000000 
#    y 0.000000 1.678870 0.000000 
#    z 0.000000 0.000000 1.659360 
# 
# From -- ./inp_files/72273.got.cif
#   From: 2010.03.12/outbox.cif.g09.slc.cpg/sg74_37_cif.got.tgz:72273.got - 2010.04.16 15:46:19.
