data_PCOD8299768
_publ_section_title
;
Structure prediction by ZEFSAII (Michael W. Deem and Ramdas Pophale) SiO2 
 PCOD8299768
Probable space group: I M M A
;
_chemical_formula_sum "Si O2"
_cell_formula_units_Z 96
_cell_length_a 18.718901
_cell_length_b 9.104216
_cell_length_c 32.870281
_cell_angle_alpha 90.000000
_cell_angle_beta 90.000000
_cell_angle_gamma 90.000000
_cell_volume 5601.783462
_symmetry_space_group_name_H-M "I M M A"
_symmetry_group_IT_number 74
_symmetry_cell_setting 'orthorhombic'
loop_
_space_group_symop_operation_xyz
x,y,z
-x,1/2-y,z
x,-y,-z
-x,1/2+y,-z
-x,-y,-z
x,1/2+y,-z
-x,y,z
x,1/2-y,z
1/2+x,1/2+y,1/2+z
1/2-x,-y,1/2+z
1/2+x,1/2-y,1/2-z
1/2-x,y,1/2-z
1/2-x,1/2-y,1/2-z
1/2+x,y,1/2-z
1/2-x,1/2+y,1/2+z
1/2+x,-y,1/2+z
loop_
_atom_site_type_symbol
_atom_site_label
_atom_site_fract_x
_atom_site_fract_y
_atom_site_fract_z
Si Si1 0.718202 0.576510 0.957731
Si Si2 0.147669 0.078615 0.661883
Si Si3 0.920072 0.575319 0.167407
Si Si4 0.919779 0.076012 0.742838
Si Si5 0.288881 0.922479 0.384521
Si Si6 0.579708 0.920055 0.910540
O O1 0.728200 0.750000 0.962056
O O2 0.774386 0.515208 0.924978
O O3 0.637543 0.532544 0.944494
O O4 0.735715 0.500000 0.000000
O O5 0.131075 0.250000 0.660124
O O6 0.133570 0.017393 0.707608
O O7 0.228750 0.043758 0.649362
O O8 0.092048 0.005372 0.631173
O O9 0.917488 0.750000 0.168615
O O10 0.899031 0.514163 0.212386
O O11 0.863584 0.519322 0.133989
O O12 0.000000 0.521889 0.155478
O O13 0.915591 0.250000 0.744989
O O14 0.000000 0.025647 0.731777
O O15 0.290408 0.750000 0.395509
O O16 0.500000 0.955022 0.927061
O O17 0.589455 0.750000 0.900308
#
# Coordination Sequence:
#
# PCOD8299768 Si02
#       6
#    16  16  16  16  16  16
#     4  10  20  34  51  69  90 115 143 178 221 267
#     4   9  16  25  40  64  92 122 156 191 222 252
#     4   8  14  25  42  65  92 120 149 184 226 266
#     4   8  13  21  35  59  91 123 154 188 222 252
#     4   9  17  29  46  68  91 116 149 185 222 267
#     4   9  18  31  45  63  90 123 154 182 215 255
#
# _framework density 17.1374
#
# number of rings (size 3 to 8) (size 9 to 14) (size 15 to 20)
#    0.000    3.167    0.000    2.000    0.000    2.667 
#    0.000    3.333    0.000    2.000    0.000    7.000 
#    0.000    0.000    0.000    0.000    0.000    0.000 
#
# Total GULP energy -594907.933009 kJ/mol
# GULP energy per Si atom -12393.915271 kJ/mol
# Density = 1.709839 g / cm^3
# Si number density = 17.137400 Si / 1000 Ang^3
#
#
#
# Elastic Constant Matrix: (Units=GPa)
#
#
# Indices 1 2 3 4 5 6 
#
# 1 102.2554 27.5445 82.0630 0.0000 0.0000 0.0000
# 2 27.5445 33.1050 39.5452 0.0000 0.0000 0.0000
# 3 82.0630 39.5452 144.6045 0.0000 0.0000 0.0000
# 4 0.0000 0.0000 0.0000 18.7885 0.0000 0.0000
# 5 0.0000 0.0000 0.0000 0.0000 18.3307 0.0000
# 6 0.0000 0.0000 0.0000 0.0000 0.0000 13.4373
#
#
#
# Elastic Compliance Matrix: (Units=1/GPa)
#
#
# Indices 1 2 3 4 5 6 
#
# 1 0.018343 -0.004199 -0.009261 0.000000 0.000000 0.000000
# 2 -0.004199 0.045823 -0.010149 0.000000 0.000000 0.000000
# 3 -0.009261 -0.010149 0.014947 0.000000 0.000000 0.000000
# 4 0.000000 0.000000 0.000000 0.053224 0.000000 0.000000
# 5 0.000000 0.000000 0.000000 0.000000 0.054553 0.000000
# 6 0.000000 0.000000 0.000000 0.000000 0.000000 0.074420
#
#
# Mechanical properties :
#
#
# Convention : Reuss Voigt Hill
#
# Bulk Modulus (GPa) = 31.35250 64.25225 47.80237
# Shear Modulus (GPa) = 15.66614 18.83211 17.24912
#
# Velocity S-wave (km/s) = 3.02677 3.31855 3.17601
# Velocity P-wave (km/s) = 5.52717 7.22893 6.43456
#
# Compressibility (1/GPa) = 0.03189539
#
# Stress axis : x y z
#
# Youngs Moduli (GPa) = 54.51664 21.82288 66.90504
#
# Poissons Ratio (x) = 0.09163 0.61963
# Poissons Ratio (y) = 0.22891 0.67899
# Poissons Ratio (z) = 0.50490 0.22147
#
# Static dielectric constant tensor:
#      x y z
#    x 3.324540 0.000000 0.000000 
#    y 0.000000 2.867900 0.000000 
#    z 0.000000 0.000000 3.302970 
# 
# 
# High freq. dielectric constant tensor:
#      x y z
#    x 1.652570 0.000000 0.000000 
#    y 0.000000 1.624250 0.000000 
#    z 0.000000 0.000000 1.657050 
# 
# From -- ./inp_files/68156.got.cif
#   From: 2010.03.12/outbox.cif.g09.slc.cpg/sg74_35_cif.got.tgz:68156.got - 2010.04.16 15:46:19.
