data_PCOD8299397
_publ_section_title
;
Structure prediction by ZEFSAII (Michael W. Deem and Ramdas Pophale) SiO2 
 PCOD8299397
Probable space group: I M M A
;
_chemical_formula_sum "Si O2"
_cell_formula_units_Z 104
_cell_length_a 17.470459
_cell_length_b 12.039567
_cell_length_c 26.509357
_cell_angle_alpha 90.000000
_cell_angle_beta 90.000000
_cell_angle_gamma 90.000000
_cell_volume 5575.892305
_symmetry_space_group_name_H-M "I M M A"
_symmetry_group_IT_number 74
_symmetry_cell_setting 'orthorhombic'
loop_
_space_group_symop_operation_xyz
x,y,z
-x,1/2-y,z
x,-y,-z
-x,1/2+y,-z
-x,-y,-z
x,1/2+y,-z
-x,y,z
x,1/2-y,z
1/2+x,1/2+y,1/2+z
1/2-x,-y,1/2+z
1/2+x,1/2-y,1/2-z
1/2-x,y,1/2-z
1/2-x,1/2-y,1/2-z
1/2+x,y,1/2-z
1/2-x,1/2+y,1/2+z
1/2+x,-y,1/2+z
loop_
_atom_site_type_symbol
_atom_site_label
_atom_site_fract_x
_atom_site_fract_y
_atom_site_fract_z
Si Si1 0.084999 0.874929 0.284774
Si Si2 0.415259 0.750000 0.479037
Si Si3 0.870437 0.493193 0.189013
Si Si4 0.081957 0.528121 0.078592
Si Si5 0.742867 0.524711 0.555384
Si Si6 0.406828 0.750000 0.666746
Si Si7 0.771337 0.381333 0.649922
Si Si8 0.301947 0.250000 0.429577
O O1 0.100872 0.750000 0.265036
O O2 0.144096 0.904117 0.329114
O O3 0.000000 0.885369 0.308144
O O4 0.090107 0.957522 0.238051
O O5 0.500000 0.750000 0.505081
O O6 0.406547 0.651351 0.439777
O O7 0.343693 0.750000 0.516357
O O8 0.916442 0.527710 0.139190
O O9 0.873937 0.359207 0.195138
O O10 0.785250 0.545283 0.184598
O O11 0.149733 0.457875 0.053581
O O12 0.000000 0.477593 0.061126
O O13 0.776501 0.500000 0.500000
O O14 0.769032 0.426984 0.592623
O O15 0.760433 0.648725 0.574988
O O16 0.500000 0.750000 0.663850
O O17 0.369877 0.750000 0.611309
O O18 0.750368 0.250000 0.650568
#
# Coordination Sequence:
#
# PCOD8299397 Si02
#       8
#    16   8  16  16  16   8  16   8
#     4  10  21  39  64  90 110 137 178 228 283 343
#     4  10  21  30  44  69 103 146 191 236 274 301
#     4  11  22  35  56  81 115 152 189 226 273 326
#     4  10  20  31  44  71 108 148 187 226 265 310
#     4  11  23  34  55  75 108 146 190 232 281 324
#     4  12  23  36  50  76 116 161 199 235 267 314
#     4  10  22  39  60  84 116 144 178 228 284 331
#     4  12  21  36  49  72 103 155 202 235 266 322
#
# _framework density 18.651724000000002
#
# number of rings (size 3 to 8) (size 9 to 14) (size 15 to 20)
#    0.000    1.385    4.615    2.538    6.462    2.154 
#    0.000    2.308    0.000    0.462    0.000    0.000 
#    0.000    0.000    0.000    0.000    0.000    0.000 
#
# Total GULP energy -644345.246561 kJ/mol
# GULP energy per Si atom -12391.254742 kJ/mol
# Density = 1.860927 g / cm^3
# Si number density = 18.651724 Si / 1000 Ang^3
#
#
#
# Elastic Constant Matrix: (Units=GPa)
#
#
# Indices 1 2 3 4 5 6 
#
# 1 79.0107 43.2079 29.7707 0.0000 0.0000 0.0000
# 2 43.2079 136.4385 38.8466 0.0000 0.0000 0.0000
# 3 29.7707 38.8466 70.4049 0.0000 0.0000 0.0000
# 4 0.0000 0.0000 0.0000 22.6350 0.0000 0.0000
# 5 0.0000 0.0000 0.0000 0.0000 8.4246 0.0000
# 6 0.0000 0.0000 0.0000 0.0000 0.0000 5.7870
#
#
#
# Elastic Compliance Matrix: (Units=1/GPa)
#
#
# Indices 1 2 3 4 5 6 
#
# 1 0.016615 -0.003869 -0.004891 0.000000 0.000000 0.000000
# 2 -0.003869 0.009596 -0.003659 0.000000 0.000000 0.000000
# 3 -0.004891 -0.003659 0.018290 0.000000 0.000000 0.000000
# 4 0.000000 0.000000 0.000000 0.044179 0.000000 0.000000
# 5 0.000000 0.000000 0.000000 0.000000 0.118700 0.000000
# 6 0.000000 0.000000 0.000000 0.000000 0.000000 0.172802
#
#
# Mechanical properties :
#
#
# Convention : Reuss Voigt Hill
#
# Bulk Modulus (GPa) = 50.85367 56.61162 53.73264
# Shear Modulus (GPa) = 12.14839 18.97123 15.55981
#
# Velocity S-wave (km/s) = 2.55488 3.19271 2.89144
# Velocity P-wave (km/s) = 6.00227 6.63393 6.32599
#
# Compressibility (1/GPa) = 0.01966426
#
# Stress axis : x y z
#
# Youngs Moduli (GPa) = 60.18535 104.20614 54.67346
#
# Poissons Ratio (x) = 0.40320 0.26740
# Poissons Ratio (y) = 0.23287 0.20004
# Poissons Ratio (z) = 0.29436 0.38126
#
# Static dielectric constant tensor:
#      x y z
#    x 3.283790 0.000000 0.000000 
#    y 0.000000 3.939980 0.000000 
#    z 0.000000 0.000000 3.216460 
# 
# 
# High freq. dielectric constant tensor:
#      x y z
#    x 1.683390 0.000000 0.000000 
#    y 0.000000 1.746840 0.000000 
#    z 0.000000 0.000000 1.708610 
# 
# From -- ./inp_files/67800.got.cif
#   From: 2010.03.12/outbox.cif.g09.slc.cpg/sg74_34_cif.got.tgz:67800.got - 2010.04.16 15:46:19.
