data_PCOD8299712
_publ_section_title
;
Structure prediction by ZEFSAII (Michael W. Deem and Ramdas Pophale) SiO2 
 PCOD8299712
Probable space group: I M M A
;
_chemical_formula_sum "Si O2"
_cell_formula_units_Z 104
_cell_length_a 9.049048
_cell_length_b 21.730438
_cell_length_c 29.785495
_cell_angle_alpha 90.000000
_cell_angle_beta 90.000000
_cell_angle_gamma 90.000000
_cell_volume 5857.013080
_symmetry_space_group_name_H-M "I M M A"
_symmetry_group_IT_number 74
_symmetry_cell_setting 'orthorhombic'
loop_
_space_group_symop_operation_xyz
x,y,z
-x,1/2-y,z
x,-y,-z
-x,1/2+y,-z
-x,-y,-z
x,1/2+y,-z
-x,y,z
x,1/2-y,z
1/2+x,1/2+y,1/2+z
1/2-x,-y,1/2+z
1/2+x,1/2-y,1/2-z
1/2-x,y,1/2-z
1/2-x,1/2-y,1/2-z
1/2+x,y,1/2-z
1/2-x,1/2+y,1/2+z
1/2+x,-y,1/2+z
loop_
_atom_site_type_symbol
_atom_site_label
_atom_site_fract_x
_atom_site_fract_y
_atom_site_fract_z
Si Si1 0.827280 0.465034 0.795771
Si Si2 0.827178 0.178812 0.939738
Si Si3 0.671658 0.107874 0.295454
Si Si4 0.825434 0.868340 0.354967
Si Si5 0.163541 0.176917 0.039444
Si Si6 0.667957 0.822928 0.874027
Si Si7 0.326452 0.250000 0.797816
O O1 0.750000 0.443075 0.750000
O O2 0.796400 0.536503 0.804936
O O3 0.754983 0.428738 0.836688
O O4 0.000000 0.450039 0.792030
O O5 0.783330 0.250000 0.934722
O O6 0.727802 0.139794 0.905877
O O7 0.000000 0.169236 0.929340
O O8 0.788488 0.154297 0.989849
O O9 0.500000 0.121603 0.289736
O O10 0.750000 0.129886 0.250000
O O11 0.731829 0.147173 0.336340
O O12 0.775900 0.809802 0.325466
O O13 0.000000 0.878194 0.354035
O O14 0.157317 0.250000 0.038065
O O15 0.277426 0.153657 0.077163
O O16 0.000000 0.151464 0.051234
O O17 0.500000 0.844563 0.867795
O O18 0.684093 0.750000 0.870138
O O19 0.500000 0.250000 0.789850
O O20 0.250000 0.250000 0.750000
#
# Coordination Sequence:
#
# PCOD8299712 Si02
#       7
#    16  16  16  16  16  16   8
#     4  10  21  37  55  75  97 129 174 215 255 304
#     4   9  17  30  49  73 101 135 173 213 258 305
#     4  10  21  37  57  78 103 135 171 211 251 298
#     4  11  21  33  49  72 102 135 172 214 260 308
#     4   8  15  29  49  73 102 136 172 207 248 301
#     4  10  20  33  52  81 112 139 168 202 247 301
#     4  10  22  34  44  66  98 132 168 208 257 308
#
# _framework density 17.756491
#
# number of rings (size 3 to 8) (size 9 to 14) (size 15 to 20)
#    0.000    2.308    0.769    3.231    0.000    6.154 
#    0.000    1.538    0.000    0.923    0.000    6.462 
#    0.000    0.000    0.000    0.000    0.000    0.000 
#
# Total GULP energy -644881.309878 kJ/mol
# GULP energy per Si atom -12401.563652 kJ/mol
# Density = 1.771608 g / cm^3
# Si number density = 17.756491 Si / 1000 Ang^3
#
#
#
# Elastic Constant Matrix: (Units=GPa)
#
#
# Indices 1 2 3 4 5 6 
#
# 1 94.5113 34.2554 62.0121 0.0000 0.0000 0.0000
# 2 34.2554 34.9978 38.8834 0.0000 0.0000 0.0000
# 3 62.0121 38.8834 139.0554 0.0000 0.0000 0.0000
# 4 0.0000 0.0000 0.0000 19.2824 0.0000 0.0000
# 5 0.0000 0.0000 0.0000 0.0000 38.2694 0.0000
# 6 0.0000 0.0000 0.0000 0.0000 0.0000 24.7633
#
#
#
# Elastic Compliance Matrix: (Units=1/GPa)
#
#
# Indices 1 2 3 4 5 6 
#
# 1 0.018183 -0.012749 -0.004544 0.000000 0.000000 0.000000
# 2 -0.012749 0.050390 -0.008405 0.000000 0.000000 0.000000
# 3 -0.004544 -0.008405 0.011568 0.000000 0.000000 0.000000
# 4 0.000000 0.000000 0.000000 0.051861 0.000000 0.000000
# 5 0.000000 0.000000 0.000000 0.000000 0.026131 0.000000
# 6 0.000000 0.000000 0.000000 0.000000 0.000000 0.040382
#
#
# Mechanical properties :
#
#
# Convention : Reuss Voigt Hill
#
# Bulk Modulus (GPa) = 34.78814 59.87402 47.33108
# Shear Modulus (GPa) = 19.26848 25.35725 22.31286
#
# Velocity S-wave (km/s) = 3.29774 3.78306 3.54871
# Velocity P-wave (km/s) = 5.84247 7.27151 6.59580
#
# Compressibility (1/GPa) = 0.02874543
#
# Stress axis : x y z
#
# Youngs Moduli (GPa) = 54.99668 19.84531 86.44617
#
# Poissons Ratio (x) = 0.25301 0.39279
# Poissons Ratio (y) = 0.70115 0.72656
# Poissons Ratio (z) = 0.24989 0.16680
#
# Static dielectric constant tensor:
#      x y z
#    x 3.393590 0.000000 0.000000 
#    y 0.000000 3.019920 0.000000 
#    z 0.000000 0.000000 3.451110 
# 
# 
# High freq. dielectric constant tensor:
#      x y z
#    x 1.696100 0.000000 0.000000 
#    y 0.000000 1.652670 0.000000 
#    z 0.000000 0.000000 1.697250 
# 
# From -- ./inp_files/64752.got.cif
#   From: 2010.03.12/outbox.cif.g09.slc.cpg/sg74_33_cif.got.tgz:64752.got - 2010.04.16 15:46:19.
