data_PCOD8299242
_publ_section_title
;
Structure prediction by ZEFSAII (Michael W. Deem and Ramdas Pophale) SiO2 
 PCOD8299242
Probable space group: I M M A
;
_chemical_formula_sum "Si O2"
_cell_formula_units_Z 64
_cell_length_a 14.502530
_cell_length_b 14.526134
_cell_length_c 15.077801
_cell_angle_alpha 90.000000
_cell_angle_beta 90.000000
_cell_angle_gamma 90.000000
_cell_volume 3176.375413
_symmetry_space_group_name_H-M "I M M A"
_symmetry_group_IT_number 74
_symmetry_cell_setting 'orthorhombic'
loop_
_space_group_symop_operation_xyz
x,y,z
-x,1/2-y,z
x,-y,-z
-x,1/2+y,-z
-x,-y,-z
x,1/2+y,-z
-x,y,z
x,1/2-y,z
1/2+x,1/2+y,1/2+z
1/2-x,-y,1/2+z
1/2+x,1/2-y,1/2-z
1/2-x,y,1/2-z
1/2-x,1/2-y,1/2-z
1/2+x,y,1/2-z
1/2-x,1/2+y,1/2+z
1/2+x,-y,1/2+z
loop_
_atom_site_type_symbol
_atom_site_label
_atom_site_fract_x
_atom_site_fract_y
_atom_site_fract_z
Si Si1 0.391417 0.750000 0.029081
Si Si2 0.895187 0.445363 0.272420
Si Si3 0.609309 0.250000 0.168958
Si Si4 0.098568 0.453777 0.905653
Si Si5 0.700496 0.432634 0.915556
O O1 0.500000 0.750000 0.028192
O O2 0.360167 0.841765 0.078782
O O3 0.349725 0.750000 0.930330
O O4 0.855922 0.341639 0.281385
O O5 0.891139 0.467644 0.168702
O O6 0.830764 0.513760 0.327886
O O7 0.000000 0.452509 0.309466
O O8 0.500000 0.250000 0.165878
O O9 0.193455 0.395964 0.904287
O O10 0.000000 0.399380 0.888844
O O11 0.090291 0.500000 0.000000
O O12 0.688475 0.500000 0.000000
#
# Coordination Sequence:
#
# PCOD8299242 Si02
#       5
#     8  16   8  16  16
#     4  11  22  36  57  94 132 154 185 238 302 373
#     4  10  19  35  60  90 122 157 194 245 306 359
#     4   9  18  32  56  93 127 149 183 236 306 373
#     4   9  20  39  59  78 111 159 209 250 284 333
#     4  11  21  36  60  87 122 158 194 238 302 359
#
# _framework density 20.148752000000002
#
# number of rings (size 3 to 8) (size 9 to 14) (size 15 to 20)
#    0.000    2.000    2.500    1.500    0.000    1.000 
#    0.000   10.625    0.000    9.000    0.000    0.000 
#    0.000    0.000    0.000    0.000    0.000    0.000 
#
# Total GULP energy -396483.455604 kJ/mol
# GULP energy per Si atom -12390.107988 kJ/mol
# Density = 2.010289 g / cm^3
# Si number density = 20.148752 Si / 1000 Ang^3
#
#
#
# Elastic Constant Matrix: (Units=GPa)
#
#
# Indices 1 2 3 4 5 6 
#
# 1 127.0590 31.7422 27.6275 0.0000 0.0000 0.0000
# 2 31.7422 103.8505 44.4851 0.0000 0.0000 0.0000
# 3 27.6275 44.4851 127.9968 0.0000 0.0000 0.0000
# 4 0.0000 0.0000 0.0000 10.3001 0.0000 0.0000
# 5 0.0000 0.0000 0.0000 0.0000 27.1907 0.0000
# 6 0.0000 0.0000 0.0000 0.0000 0.0000 16.9730
#
#
#
# Elastic Compliance Matrix: (Units=1/GPa)
#
#
# Indices 1 2 3 4 5 6 
#
# 1 0.008654 -0.002168 -0.001115 0.000000 0.000000 0.000000
# 2 -0.002168 0.011857 -0.003653 0.000000 0.000000 0.000000
# 3 -0.001115 -0.003653 0.009323 0.000000 0.000000 0.000000
# 4 0.000000 0.000000 0.000000 0.097086 0.000000 0.000000
# 5 0.000000 0.000000 0.000000 0.000000 0.036777 0.000000
# 6 0.000000 0.000000 0.000000 0.000000 0.000000 0.058917
#
#
# Mechanical properties :
#
#
# Convention : Reuss Voigt Hill
#
# Bulk Modulus (GPa) = 62.64378 62.95732 62.80055
# Shear Modulus (GPa) = 20.67774 27.89618 24.28696
#
# Velocity S-wave (km/s) = 3.20700 3.72494 3.47563
# Velocity P-wave (km/s) = 6.69860 7.05793 6.88061
#
# Compressibility (1/GPa) = 0.01596328
#
# Stress axis : x y z
#
# Youngs Moduli (GPa) = 115.54994 84.34176 107.26379
#
# Poissons Ratio (x) = 0.18283 0.11955
# Poissons Ratio (y) = 0.25048 0.39182
# Poissons Ratio (z) = 0.12879 0.30809
#
# Static dielectric constant tensor:
#      x y z
#    x 4.314110 0.000000 0.000000 
#    y 0.000000 3.866140 0.000000 
#    z 0.000000 0.000000 3.711770 
# 
# 
# High freq. dielectric constant tensor:
#      x y z
#    x 1.808030 0.000000 0.000000 
#    y 0.000000 1.745070 0.000000 
#    z 0.000000 0.000000 1.793300 
# 
# From -- ./inp_files/31846.got.cif
#   From: 2010.03.12/outbox.cif.g09.slc.cpg/sg74_16_cif.got.tgz:31846.got - 2010.04.16 15:46:19.
