data_PCOD8299376
_publ_section_title
;
Structure prediction by ZEFSAII (Michael W. Deem and Ramdas Pophale) SiO2 
 PCOD8299376
Probable space group: I M M A
;
_chemical_formula_sum "Si O2"
_cell_formula_units_Z 104
_cell_length_a 20.145723
_cell_length_b 8.631114
_cell_length_c 32.517612
_cell_angle_alpha 90.000000
_cell_angle_beta 90.000000
_cell_angle_gamma 90.000000
_cell_volume 5654.163409
_symmetry_space_group_name_H-M "I M M A"
_symmetry_group_IT_number 74
_symmetry_cell_setting 'orthorhombic'
loop_
_space_group_symop_operation_xyz
x,y,z
-x,1/2-y,z
x,-y,-z
-x,1/2+y,-z
-x,-y,-z
x,1/2+y,-z
-x,y,z
x,1/2-y,z
1/2+x,1/2+y,1/2+z
1/2-x,-y,1/2+z
1/2+x,1/2-y,1/2-z
1/2-x,y,1/2-z
1/2-x,1/2-y,1/2-z
1/2+x,y,1/2-z
1/2-x,1/2+y,1/2+z
1/2+x,-y,1/2+z
loop_
_atom_site_type_symbol
_atom_site_label
_atom_site_fract_x
_atom_site_fract_y
_atom_site_fract_z
Si Si1 0.576772 0.570569 0.683112
Si Si2 0.231892 0.568406 0.956303
Si Si3 0.319379 0.576111 0.165387
Si Si4 0.861966 0.074405 0.573995
Si Si5 0.685995 0.434598 0.627989
Si Si6 0.500000 0.933358 0.044304
Si Si7 0.424990 0.934437 0.229237
O O1 0.500000 0.545945 0.672346
O O2 0.595516 0.750000 0.686524
O O3 0.616913 0.491077 0.646366
O O4 0.595770 0.487947 0.725535
O O5 0.219329 0.750000 0.956588
O O6 0.309424 0.532364 0.949548
O O7 0.190585 0.494707 0.918703
O O8 0.207485 0.500000 0.000000
O O9 0.307715 0.750000 0.181335
O O10 0.356894 0.572492 0.122583
O O11 0.246484 0.499943 0.157178
O O12 0.368725 0.494009 0.198464
O O13 0.852939 0.250000 0.557201
O O14 0.934330 0.003691 0.566279
O O15 0.690963 0.250000 0.626187
O O16 0.500000 0.750000 0.044621
O O17 0.500000 0.000000 0.000000
O O18 0.500000 0.995083 0.218584
O O19 0.424946 0.750000 0.226770
#
# Coordination Sequence:
#
# PCOD8299376 Si02
#       7
#    16  16  16  16  16   8  16
#     4  10  21  37  55  77 107 140 173 212 260 315
#     4  11  21  35  55  78 105 137 173 213 260 314
#     4   8  16  30  49  75 103 132 174 224 267 306
#     4   9  18  32  48  70  99 136 178 224 273 317
#     4  10  20  36  57  81 108 136 173 218 263 315
#     4  10  20  30  44  64  92 130 176 226 274 320
#     4   9  17  30  51  76 102 139 184 223 260 309
#
# _framework density 18.393525
#
# number of rings (size 3 to 8) (size 9 to 14) (size 15 to 20)
#    0.000    2.462    0.000    3.692    1.077    3.385 
#    0.000    6.923    0.000    0.462    0.000    0.000 
#    0.000    0.000    0.000    0.000    0.000    0.000 
#
# Total GULP energy -644499.724598 kJ/mol
# GULP energy per Si atom -12394.225473 kJ/mol
# Density = 1.835166 g / cm^3
# Si number density = 18.393525 Si / 1000 Ang^3
#
#
#
# Elastic Constant Matrix: (Units=GPa)
#
#
# Indices 1 2 3 4 5 6 
#
# 1 87.7560 26.9910 62.9154 0.0000 0.0000 0.0000
# 2 26.9910 47.8204 25.0292 0.0000 0.0000 0.0000
# 3 62.9154 25.0292 107.6106 0.0000 0.0000 0.0000
# 4 0.0000 0.0000 0.0000 26.8438 0.0000 0.0000
# 5 0.0000 0.0000 0.0000 0.0000 24.8991 0.0000
# 6 0.0000 0.0000 0.0000 0.0000 0.0000 21.6147
#
#
#
# Elastic Compliance Matrix: (Units=1/GPa)
#
#
# Indices 1 2 3 4 5 6 
#
# 1 0.021126 -0.006216 -0.010906 0.000000 0.000000 0.000000
# 2 -0.006216 0.025639 -0.002329 0.000000 0.000000 0.000000
# 3 -0.010906 -0.002329 0.016211 0.000000 0.000000 0.000000
# 4 0.000000 0.000000 0.000000 0.037253 0.000000 0.000000
# 5 0.000000 0.000000 0.000000 0.000000 0.040162 0.000000
# 6 0.000000 0.000000 0.000000 0.000000 0.000000 0.046265
#
#
# Mechanical properties :
#
#
# Convention : Reuss Voigt Hill
#
# Bulk Modulus (GPa) = 41.53863 52.56200 47.05031
# Shear Modulus (GPa) = 21.40590 23.22161 22.31376
#
# Velocity S-wave (km/s) = 3.41511 3.55701 3.48678
# Velocity P-wave (km/s) = 6.17924 6.74597 6.46881
#
# Compressibility (1/GPa) = 0.02407398
#
# Stress axis : x y z
#
# Youngs Moduli (GPa) = 47.33595 39.00299 61.68830
#
# Poissons Ratio (x) = 0.24244 0.67274
# Poissons Ratio (y) = 0.29423 0.14369
# Poissons Ratio (z) = 0.51622 0.09085
#
# Static dielectric constant tensor:
#      x y z
#    x 3.520660 0.000000 0.000000 
#    y 0.000000 3.272310 0.000000 
#    z 0.000000 0.000000 3.408420 
# 
# 
# High freq. dielectric constant tensor:
#      x y z
#    x 1.707360 0.000000 0.000000 
#    y 0.000000 1.694510 0.000000 
#    z 0.000000 0.000000 1.713380 
# 
# From -- ./inp_files/73392.got.cif
#   From: 2010.03.12/outbox.cif.g09.slc.cpg/sg74_37_cif.got.tgz:73392.got - 2010.04.16 15:46:19.
