data_PCOD8299593
_publ_section_title
;
Structure prediction by ZEFSAII (Michael W. Deem and Ramdas Pophale) SiO2 
 PCOD8299593
Probable space group: I M M A
;
_chemical_formula_sum "Si O2"
_cell_formula_units_Z 96
_cell_length_a 19.182363
_cell_length_b 9.489208
_cell_length_c 30.862178
_cell_angle_alpha 90.000000
_cell_angle_beta 90.000000
_cell_angle_gamma 90.000000
_cell_volume 5617.701296
_symmetry_space_group_name_H-M "I M M A"
_symmetry_group_IT_number 74
_symmetry_cell_setting 'orthorhombic'
loop_
_space_group_symop_operation_xyz
x,y,z
-x,1/2-y,z
x,-y,-z
-x,1/2+y,-z
-x,-y,-z
x,1/2+y,-z
-x,y,z
x,1/2-y,z
1/2+x,1/2+y,1/2+z
1/2-x,-y,1/2+z
1/2+x,1/2-y,1/2-z
1/2-x,y,1/2-z
1/2-x,1/2-y,1/2-z
1/2+x,y,1/2-z
1/2-x,1/2+y,1/2+z
1/2+x,-y,1/2+z
loop_
_atom_site_type_symbol
_atom_site_label
_atom_site_fract_x
_atom_site_fract_y
_atom_site_fract_z
Si Si1 0.417080 0.094115 0.286457
Si Si2 0.174670 0.413120 0.041809
Si Si3 0.082660 0.405306 0.710024
Si Si4 0.163139 0.914694 0.542589
Si Si5 0.918239 0.587338 0.387232
Si Si6 0.922251 0.082065 0.118717
O O1 0.500000 0.101239 0.282609
O O2 0.385081 0.250000 0.281838
O O3 0.398025 0.027881 0.333614
O O4 0.384348 0.003633 0.247245
O O5 0.157621 0.250000 0.032971
O O6 0.255514 0.436419 0.052080
O O7 0.131301 0.473015 0.082559
O O8 0.150786 0.500000 0.000000
O O9 0.113669 0.250000 0.717347
O O10 0.101847 0.457535 0.661775
O O11 0.000000 0.400622 0.714586
O O12 0.144400 0.750000 0.536646
O O13 0.140173 0.000000 0.500000
O O14 0.121971 0.978853 0.582631
O O15 0.896532 0.750000 0.396094
O O16 0.000000 0.569234 0.395547
O O17 0.923175 0.250000 0.120557
O O18 0.000000 0.026107 0.107602
#
# Coordination Sequence:
#
# PCOD8299593 Si02
#       6
#    16  16  16  16  16  16
#     4   8  13  22  39  63  88 115 147 179 212 255
#     4   9  18  32  48  66  89 118 152 186 222 267
#     4   8  14  25  41  62  89 117 141 172 218 263
#     4  10  20  33  49  67  88 117 151 185 222 266
#     4   9  18  32  49  69  92 117 146 182 224 266
#     4   8  14  26  45  68  93 120 149 184 225 262
#
# _framework density 17.088840000000001
#
# number of rings (size 3 to 8) (size 9 to 14) (size 15 to 20)
#    0.000    3.333    0.000    2.500    0.000    2.333 
#    0.000    2.500    0.000    2.000    0.000    7.000 
#    0.000    0.000    0.000    0.000    0.000    0.000 
#
# Total GULP energy -594903.783365 kJ/mol
# GULP energy per Si atom -12393.828820 kJ/mol
# Density = 1.704995 g / cm^3
# Si number density = 17.088840 Si / 1000 Ang^3
#
#
#
# Elastic Constant Matrix: (Units=GPa)
#
#
# Indices 1 2 3 4 5 6 
#
# 1 37.3012 32.6017 52.8422 0.0000 0.0000 0.0000
# 2 32.6017 82.6314 78.8184 0.0000 0.0000 0.0000
# 3 52.8422 78.8184 171.1717 0.0000 0.0000 0.0000
# 4 0.0000 0.0000 0.0000 33.5583 0.0000 0.0000
# 5 0.0000 0.0000 0.0000 0.0000 -0.2102 0.0000
# 6 0.0000 0.0000 0.0000 0.0000 0.0000 13.6440
#
#
#
# Elastic Compliance Matrix: (Units=1/GPa)
#
#
# Indices 1 2 3 4 5 6 
#
# 1 0.051249 -0.009146 -0.011610 0.000000 0.000000 0.000000
# 2 -0.009146 0.023213 -0.007865 0.000000 0.000000 0.000000
# 3 -0.011610 -0.007865 0.013048 0.000000 0.000000 0.000000
# 4 0.000000 0.000000 0.000000 0.029799 0.000000 0.000000
# 5 0.000000 0.000000 0.000000 0.000000 -4.756271 0.000000
# 6 0.000000 0.000000 0.000000 0.000000 0.000000 0.073292
#
#
# Mechanical properties :
#
#
# Convention : Reuss Voigt Hill
#
# Bulk Modulus (GPa) = 33.03834 68.84766 50.94300
# Shear Modulus (GPa) = -1.11152 17.85455 8.37151
#
# Velocity S-wave (km/s) = -0.80737 3.23586 2.21573
# Velocity P-wave (km/s) = 4.30187 7.37133 6.03501
#
# Compressibility (1/GPa) = 0.03026786
#
# Stress axis : x y z
#
# Youngs Moduli (GPa) = 19.51244 43.07998 76.64201
#
# Poissons Ratio (x) = 0.39402 0.88979
# Poissons Ratio (y) = 0.17846 0.60280
# Poissons Ratio (z) = 0.22653 0.33883
#
# Static dielectric constant tensor:
#      x y z
#    x 2.864300 0.000000 0.000000 
#    y 0.000000 3.244090 0.000000 
#    z 0.000000 0.000000 3.487080 
# 
# 
# High freq. dielectric constant tensor:
#      x y z
#    x 1.616280 0.000000 0.000000 
#    y 0.000000 1.644200 0.000000 
#    z 0.000000 0.000000 1.674440 
# 
# From -- ./inp_files/68582.got.cif
#   From: 2010.03.12/outbox.cif.g09.slc.cpg/sg74_35_cif.got.tgz:68582.got - 2010.04.16 15:46:19.
