data_PCOD8299625
_publ_section_title
;
Structure prediction by ZEFSAII (Michael W. Deem and Ramdas Pophale) SiO2 
 PCOD8299625
Probable space group: I M M A
;
_chemical_formula_sum "Si O2"
_cell_formula_units_Z 80
_cell_length_a 15.656504
_cell_length_b 8.719292
_cell_length_c 29.858319
_cell_angle_alpha 90.000000
_cell_angle_beta 90.000000
_cell_angle_gamma 90.000000
_cell_volume 4076.067515
_symmetry_space_group_name_H-M "I M M A"
_symmetry_group_IT_number 74
_symmetry_cell_setting 'orthorhombic'
loop_
_space_group_symop_operation_xyz
x,y,z
-x,1/2-y,z
x,-y,-z
-x,1/2+y,-z
-x,-y,-z
x,1/2+y,-z
-x,y,z
x,1/2-y,z
1/2+x,1/2+y,1/2+z
1/2-x,-y,1/2+z
1/2+x,1/2-y,1/2-z
1/2-x,y,1/2-z
1/2-x,1/2-y,1/2-z
1/2+x,y,1/2-z
1/2-x,1/2+y,1/2+z
1/2+x,-y,1/2+z
loop_
_atom_site_type_symbol
_atom_site_label
_atom_site_fract_x
_atom_site_fract_y
_atom_site_fract_z
Si Si1 0.597306 0.430742 0.452279
Si Si2 0.189554 0.927364 0.792926
Si Si3 0.235071 0.070012 0.886007
Si Si4 0.097520 0.569535 0.633119
Si Si5 0.903261 0.582304 0.275894
O O1 0.622094 0.500000 0.500000
O O2 0.500000 0.476972 0.439004
O O3 0.607058 0.250000 0.455087
O O4 0.662906 0.493691 0.416133
O O5 0.182242 0.750000 0.806687
O O6 0.250000 0.958622 0.750000
O O7 0.215049 0.027642 0.835033
O O8 0.102303 0.995357 0.772118
O O9 0.232330 0.250000 0.893423
O O10 0.331181 0.010165 0.898843
O O11 0.104874 0.750000 0.627351
O O12 0.128050 0.527522 0.683528
O O13 0.000000 0.515280 0.621907
O O14 0.856318 0.750000 0.276614
O O15 0.000000 0.615843 0.285931
#
# Coordination Sequence:
#
# PCOD8299625 Si02
#       5
#    16  16  16  16  16
#     4  10  22  43  70  97 126 158 196 246 305 369
#     4  11  22  35  52  75 109 153 198 245 297 351
#     4  12  24  37  60  89 120 158 201 249 302 363
#     4  10  20  35  55  80 113 154 199 244 290 345
#     4  10  20  33  50  73 103 143 191 241 293 349
#
# _framework density 19.626760999999998
#
# number of rings (size 3 to 8) (size 9 to 14) (size 15 to 20)
#    0.000    1.400    2.000    4.200    0.000    5.200 
#    0.000    0.000    0.000    0.600    0.000    0.000 
#    0.000    0.000    0.000    0.000    0.000    0.000 
#
# Total GULP energy -495672.778672 kJ/mol
# GULP energy per Si atom -12391.819467 kJ/mol
# Density = 1.958209 g / cm^3
# Si number density = 19.626761 Si / 1000 Ang^3
#
#
#
# Elastic Constant Matrix: (Units=GPa)
#
#
# Indices 1 2 3 4 5 6 
#
# 1 116.5910 36.0906 60.7117 0.0000 0.0000 0.0000
# 2 36.0906 89.7953 26.0258 0.0000 0.0000 0.0000
# 3 60.7117 26.0258 67.1572 0.0000 0.0000 0.0000
# 4 0.0000 0.0000 0.0000 32.9031 0.0000 0.0000
# 5 0.0000 0.0000 0.0000 0.0000 37.2801 0.0000
# 6 0.0000 0.0000 0.0000 0.0000 0.0000 30.2575
#
#
#
# Elastic Compliance Matrix: (Units=1/GPa)
#
#
# Indices 1 2 3 4 5 6 
#
# 1 0.016743 -0.002639 -0.014113 0.000000 0.000000 0.000000
# 2 -0.002639 0.012961 -0.002637 0.000000 0.000000 0.000000
# 3 -0.014113 -0.002637 0.028671 0.000000 0.000000 0.000000
# 4 0.000000 0.000000 0.000000 0.030392 0.000000 0.000000
# 5 0.000000 0.000000 0.000000 0.000000 0.026824 0.000000
# 6 0.000000 0.000000 0.000000 0.000000 0.000000 0.033050
#
#
# Mechanical properties :
#
#
# Convention : Reuss Voigt Hill
#
# Bulk Modulus (GPa) = 51.02964 57.68884 54.35924
# Shear Modulus (GPa) = 25.77935 30.13582 27.95758
#
# Velocity S-wave (km/s) = 3.62813 3.92273 3.77830
# Velocity P-wave (km/s) = 6.60360 7.06922 6.84037
#
# Compressibility (1/GPa) = 0.01959645
#
# Stress axis : x y z
#
# Youngs Moduli (GPa) = 59.72625 77.15176 34.87785
#
# Poissons Ratio (x) = 0.20359 0.49225
# Poissons Ratio (y) = 0.15761 0.09199
# Poissons Ratio (z) = 0.84295 0.20349
#
# Static dielectric constant tensor:
#      x y z
#    x 4.027120 0.000000 0.000000 
#    y 0.000000 3.812090 0.000000 
#    z 0.000000 0.000000 3.362580 
# 
# 
# High freq. dielectric constant tensor:
#      x y z
#    x 1.779950 0.000000 0.000000 
#    y 0.000000 1.783740 0.000000 
#    z 0.000000 0.000000 1.722410 
# 
# From -- ./inp_files/67544.got.cif
#   From: 2010.03.12/outbox.cif.g09.slc.cpg/sg74_34_cif.got.tgz:67544.got - 2010.04.16 15:46:19.
