data_PCOD8299515
_publ_section_title
;
Structure prediction by ZEFSAII (Michael W. Deem and Ramdas Pophale) SiO2 
 PCOD8299515
Probable space group: I M M A
;
_chemical_formula_sum "Si O2"
_cell_formula_units_Z 80
_cell_length_a 13.968840
_cell_length_b 9.737114
_cell_length_c 33.335153
_cell_angle_alpha 90.000000
_cell_angle_beta 90.000000
_cell_angle_gamma 90.000000
_cell_volume 4534.120422
_symmetry_space_group_name_H-M "I M M A"
_symmetry_group_IT_number 74
_symmetry_cell_setting 'orthorhombic'
loop_
_space_group_symop_operation_xyz
x,y,z
-x,1/2-y,z
x,-y,-z
-x,1/2+y,-z
-x,-y,-z
x,1/2+y,-z
-x,y,z
x,1/2-y,z
1/2+x,1/2+y,1/2+z
1/2-x,-y,1/2+z
1/2+x,1/2-y,1/2-z
1/2-x,y,1/2-z
1/2-x,1/2-y,1/2-z
1/2+x,y,1/2-z
1/2-x,1/2+y,1/2+z
1/2+x,-y,1/2+z
loop_
_atom_site_type_symbol
_atom_site_label
_atom_site_fract_x
_atom_site_fract_y
_atom_site_fract_z
Si Si1 0.110480 0.410609 0.354279
Si Si2 0.728923 0.910078 0.384686
Si Si3 0.612017 0.907723 0.306223
Si Si4 0.613339 0.597771 0.764221
Si Si5 0.389590 0.091651 0.537027
O O1 0.129712 0.250000 0.361578
O O2 0.174052 0.501275 0.384279
O O3 0.140287 0.452285 0.308894
O O4 0.000000 0.446009 0.362662
O O5 0.755844 0.750000 0.383837
O O6 0.662959 0.951113 0.347179
O O7 0.672039 0.950042 0.424556
O O8 0.500000 0.936806 0.312231
O O9 0.631113 0.750000 0.295339
O O10 0.655969 0.996501 0.269518
O O11 0.500000 0.601039 0.761092
O O12 0.654502 0.750000 0.756131
O O13 0.500000 0.061394 0.547385
O O14 0.374325 0.250000 0.525385
O O15 0.354039 0.000000 0.500000
#
# Coordination Sequence:
#
# PCOD8299515 Si02
#       5
#    16  16  16  16  16
#     4   9  19  35  51  67  92 128 168 208 247 283
#     4  10  20  32  49  74 100 126 158 198 242 286
#     4   9  17  29  45  67  97 130 161 195 238 288
#     4   8  15  29  46  63  88 125 166 205 244 283
#     4   9  18  34  55  78 105 133 157 185 228 285
#
# _framework density 17.643995
#
# number of rings (size 3 to 8) (size 9 to 14) (size 15 to 20)
#    0.000    3.000    0.000    1.800    0.000    6.000 
#    0.000    6.000    0.000    6.600    0.000    0.000 
#    0.000    0.000    0.000    0.000    0.000    0.000 
#
# Total GULP energy -495980.599796 kJ/mol
# GULP energy per Si atom -12399.514995 kJ/mol
# Density = 1.760384 g / cm^3
# Si number density = 17.643995 Si / 1000 Ang^3
#
#
#
# Elastic Constant Matrix: (Units=GPa)
#
#
# Indices 1 2 3 4 5 6 
#
# 1 76.8431 50.2284 61.2918 0.0000 0.0000 0.0000
# 2 50.2284 77.6328 70.8295 0.0000 0.0000 0.0000
# 3 61.2918 70.8295 124.4301 0.0000 0.0000 0.0000
# 4 0.0000 0.0000 0.0000 32.6170 0.0000 0.0000
# 5 0.0000 0.0000 0.0000 0.0000 27.4912 0.0000
# 6 0.0000 0.0000 0.0000 0.0000 0.0000 23.0725
#
#
#
# Elastic Compliance Matrix: (Units=1/GPa)
#
#
# Indices 1 2 3 4 5 6 
#
# 1 0.024785 -0.010189 -0.006409 0.000000 0.000000 0.000000
# 2 -0.010189 0.030988 -0.012620 0.000000 0.000000 0.000000
# 3 -0.006409 -0.012620 0.018377 0.000000 0.000000 0.000000
# 4 0.000000 0.000000 0.000000 0.030659 0.000000 0.000000
# 5 0.000000 0.000000 0.000000 0.000000 0.036375 0.000000
# 6 0.000000 0.000000 0.000000 0.000000 0.000000 0.043342
#
#
# Mechanical properties :
#
#
# Convention : Reuss Voigt Hill
#
# Bulk Modulus (GPa) = 63.63651 71.51169 67.57410
# Shear Modulus (GPa) = 20.14499 23.07323 21.60911
#
# Velocity S-wave (km/s) = 3.38264 3.62015 3.50341
# Velocity P-wave (km/s) = 7.16949 7.62183 7.39912
#
# Compressibility (1/GPa) = 0.01571425
#
# Stress axis : x y z
#
# Youngs Moduli (GPa) = 40.34637 32.27092 54.41439
#
# Poissons Ratio (x) = 0.32880 0.34874
# Poissons Ratio (y) = 0.41108 0.68673
# Poissons Ratio (z) = 0.25858 0.40727
#
# Static dielectric constant tensor:
#      x y z
#    x 3.125590 0.000000 0.000000 
#    y 0.000000 3.316670 0.000000 
#    z 0.000000 0.000000 3.224890 
# 
# 
# High freq. dielectric constant tensor:
#      x y z
#    x 1.678370 0.000000 0.000000 
#    y 0.000000 1.679840 0.000000 
#    z 0.000000 0.000000 1.664820 
# 
# From -- ./inp_files/66894.got.cif
#   From: 2010.03.12/outbox.cif.g09.slc.cpg/sg74_34_cif.got.tgz:66894.got - 2010.04.16 15:46:19.
