data_PCOD8299837
_publ_section_title
;
Structure prediction by ZEFSAII (Michael W. Deem and Ramdas Pophale) SiO2 
 PCOD8299837
Probable space group: I M M A
;
_chemical_formula_sum "Si O2"
_cell_formula_units_Z 72
_cell_length_a 8.818663
_cell_length_b 22.081440
_cell_length_c 19.398231
_cell_angle_alpha 90.000000
_cell_angle_beta 90.000000
_cell_angle_gamma 90.000000
_cell_volume 3777.393816
_symmetry_space_group_name_H-M "I M M A"
_symmetry_group_IT_number 74
_symmetry_cell_setting 'orthorhombic'
loop_
_space_group_symop_operation_xyz
x,y,z
-x,1/2-y,z
x,-y,-z
-x,1/2+y,-z
-x,-y,-z
x,1/2+y,-z
-x,y,z
x,1/2-y,z
1/2+x,1/2+y,1/2+z
1/2-x,-y,1/2+z
1/2+x,1/2-y,1/2-z
1/2-x,y,1/2-z
1/2-x,1/2-y,1/2-z
1/2+x,y,1/2-z
1/2-x,1/2+y,1/2+z
1/2+x,-y,1/2+z
loop_
_atom_site_type_symbol
_atom_site_label
_atom_site_fract_x
_atom_site_fract_y
_atom_site_fract_z
Si Si1 0.822049 0.637241 0.586041
Si Si2 0.320600 0.750000 0.824664
Si Si3 0.820493 0.975365 0.677668
Si Si4 0.320588 0.897256 0.322260
Si Si5 0.821455 0.681737 0.048744
O O1 0.761662 0.691201 0.634505
O O2 0.777001 0.573492 0.619876
O O3 0.746511 0.640664 0.511487
O O4 0.000000 0.643463 0.575821
O O5 0.500000 0.750000 0.816721
O O6 0.250000 0.750000 0.750000
O O7 0.750000 0.953845 0.750000
O O8 0.000000 0.981857 0.686664
O O9 0.749819 0.038908 0.654159
O O10 0.500000 0.904755 0.314186
O O11 0.250000 0.875789 0.250000
O O12 0.275423 0.847187 0.378323
O O13 0.755402 0.750000 0.045731
O O14 0.000000 0.682481 0.039692
#
# Coordination Sequence:
#
# PCOD8299837 Si02
#       5
#    16   8  16  16  16
#     4  10  21  36  55  80 112 147 184 226 271 324
#     4  10  20  34  52  78 109 144 185 224 265 314
#     4  10  20  35  56  83 113 146 185 227 272 324
#     4  10  21  38  59  83 110 141 181 228 278 332
#     4  10  22  39  58  81 110 144 184 229 276 328
#
# _framework density 19.060760999999999
#
# number of rings (size 3 to 8) (size 9 to 14) (size 15 to 20)
#    0.000    2.000    1.111    3.333    0.000    5.778 
#    0.000    4.444    0.000    0.000    0.000    0.000 
#    0.000    0.000    0.000    0.000    0.000    0.000 
#
# Total GULP energy -446514.320271 kJ/mol
# GULP energy per Si atom -12403.175563 kJ/mol
# Density = 1.901738 g / cm^3
# Si number density = 19.060761 Si / 1000 Ang^3
#
#
#
# Elastic Constant Matrix: (Units=GPa)
#
#
# Indices 1 2 3 4 5 6 
#
# 1 61.4178 39.7462 48.9431 0.0000 0.0000 0.0000
# 2 39.7462 102.6175 77.3282 0.0000 0.0000 0.0000
# 3 48.9431 77.3282 142.2378 0.0000 0.0000 0.0000
# 4 0.0000 0.0000 0.0000 35.0418 0.0000 0.0000
# 5 0.0000 0.0000 0.0000 0.0000 36.4729 0.0000
# 6 0.0000 0.0000 0.0000 0.0000 0.0000 24.7225
#
#
#
# Elastic Compliance Matrix: (Units=1/GPa)
#
#
# Indices 1 2 3 4 5 6 
#
# 1 0.023965 -0.005198 -0.005421 0.000000 0.000000 0.000000
# 2 -0.005198 0.017635 -0.007799 0.000000 0.000000 0.000000
# 3 -0.005421 -0.007799 0.013136 0.000000 0.000000 0.000000
# 4 0.000000 0.000000 0.000000 0.028537 0.000000 0.000000
# 5 0.000000 0.000000 0.000000 0.000000 0.027418 0.000000
# 6 0.000000 0.000000 0.000000 0.000000 0.000000 0.040449
#
#
# Mechanical properties :
#
#
# Convention : Reuss Voigt Hill
#
# Bulk Modulus (GPa) = 55.86084 70.92312 63.39198
# Shear Modulus (GPa) = 25.78106 28.59781 27.18944
#
# Velocity S-wave (km/s) = 3.68172 3.87764 3.78095
# Velocity P-wave (km/s) = 6.88795 7.57217 7.23815
#
# Compressibility (1/GPa) = 0.01790163
#
# Stress axis : x y z
#
# Youngs Moduli (GPa) = 41.72736 56.70554 76.12920
#
# Poissons Ratio (x) = 0.29473 0.41266
# Poissons Ratio (y) = 0.21688 0.59372
# Poissons Ratio (z) = 0.22619 0.44224
#
# Static dielectric constant tensor:
#      x y z
#    x 3.453970 0.000000 0.000000 
#    y 0.000000 3.648760 0.000000 
#    z 0.000000 0.000000 3.502480 
# 
# 
# High freq. dielectric constant tensor:
#      x y z
#    x 1.740290 0.000000 0.000000 
#    y 0.000000 1.746880 0.000000 
#    z 0.000000 0.000000 1.746270 
# 
# From -- ./inp_files/39471.got.cif
#   From: 2010.03.12/outbox.cif.g09.slc.cpg/sg74_20_cif.got.tgz:39471.got - 2010.04.16 15:46:19.
