data_PCOD8299303
_publ_section_title
;
Structure prediction by ZEFSAII (Michael W. Deem and Ramdas Pophale) SiO2 
 PCOD8299303
Probable space group: I M M A
;
_chemical_formula_sum "Si O2"
_cell_formula_units_Z 96
_cell_length_a 17.219078
_cell_length_b 22.487442
_cell_length_c 12.371606
_cell_angle_alpha 90.000000
_cell_angle_beta 90.000000
_cell_angle_gamma 90.000000
_cell_volume 4790.446895
_symmetry_space_group_name_H-M "I M M A"
_symmetry_group_IT_number 74
_symmetry_cell_setting 'orthorhombic'
loop_
_space_group_symop_operation_xyz
x,y,z
-x,1/2-y,z
x,-y,-z
-x,1/2+y,-z
-x,-y,-z
x,1/2+y,-z
-x,y,z
x,1/2-y,z
1/2+x,1/2+y,1/2+z
1/2-x,-y,1/2+z
1/2+x,1/2-y,1/2-z
1/2-x,y,1/2-z
1/2-x,1/2-y,1/2-z
1/2+x,y,1/2-z
1/2-x,1/2+y,1/2+z
1/2+x,-y,1/2+z
loop_
_atom_site_type_symbol
_atom_site_label
_atom_site_fract_x
_atom_site_fract_y
_atom_site_fract_z
Si Si1 0.412184 0.938427 0.647182
Si Si2 0.912148 0.064545 0.759218
Si Si3 0.408339 0.250000 0.211846
Si Si4 0.092233 0.124277 0.359952
Si Si5 0.344112 0.627077 0.449836
Si Si6 0.405958 0.250000 0.460856
Si Si7 0.686109 0.935888 0.045343
O O1 0.500000 0.915552 0.634847
O O2 0.375018 0.907528 0.752600
O O3 0.368930 0.920212 0.539589
O O4 0.406649 0.008753 0.660320
O O5 0.886220 0.119380 0.834120
O O6 0.856274 0.053959 0.658757
O O7 0.000000 0.074097 0.717250
O O8 0.500000 0.250000 0.214546
O O9 0.378533 0.192427 0.146788
O O10 0.380613 0.250000 0.335794
O O11 0.124776 0.092653 0.464585
O O12 0.000000 0.118421 0.365981
O O13 0.364939 0.693394 0.485517
O O14 0.253220 0.612702 0.435334
O O15 0.500000 0.250000 0.476453
O O16 0.715134 0.000000 0.000000
#
# Coordination Sequence:
#
# PCOD8299303 Si02
#       7
#    16  16   8  16  16   8  16
#     4  10  19  36  64  93 121 157 207 261 308 365
#     4  11  23  41  65  91 124 169 218 261 307 374
#     4   9  18  37  64  93 126 159 203 263 307 352
#     4  10  20  37  63  94 125 169 219 253 297 372
#     4  12  25  40  62  96 127 158 206 267 330 375
#     4  11  22  43  69  91 122 167 214 260 312 374
#     4  12  25  41  61  90 135 173 203 255 325 386
#
# _framework density 20.039885000000002
#
# number of rings (size 3 to 8) (size 9 to 14) (size 15 to 20)
#    0.000    1.167    3.333    4.000    0.000    3.333 
#    0.000    3.333    0.000    1.000    0.000    0.000 
#    0.000    0.000    0.000    0.000    0.000    0.000 
#
# Total GULP energy -595162.277657 kJ/mol
# GULP energy per Si atom -12399.214118 kJ/mol
# Density = 1.999427 g / cm^3
# Si number density = 20.039885 Si / 1000 Ang^3
#
#
#
# Elastic Constant Matrix: (Units=GPa)
#
#
# Indices 1 2 3 4 5 6 
#
# 1 90.2869 31.3846 34.6852 0.0000 0.0000 0.0000
# 2 31.3846 109.1671 29.1435 0.0000 0.0000 0.0000
# 3 34.6852 29.1435 94.2104 0.0000 0.0000 0.0000
# 4 0.0000 0.0000 0.0000 34.9959 0.0000 0.0000
# 5 0.0000 0.0000 0.0000 0.0000 24.7684 0.0000
# 6 0.0000 0.0000 0.0000 0.0000 0.0000 24.1815
#
#
#
# Elastic Compliance Matrix: (Units=1/GPa)
#
#
# Indices 1 2 3 4 5 6 
#
# 1 0.013651 -0.002815 -0.004155 0.000000 0.000000 0.000000
# 2 -0.002815 0.010565 -0.002232 0.000000 0.000000 0.000000
# 3 -0.004155 -0.002232 0.012835 0.000000 0.000000 0.000000
# 4 0.000000 0.000000 0.000000 0.028575 0.000000 0.000000
# 5 0.000000 0.000000 0.000000 0.000000 0.040374 0.000000
# 6 0.000000 0.000000 0.000000 0.000000 0.000000 0.041354
#
#
# Mechanical properties :
#
#
# Convention : Reuss Voigt Hill
#
# Bulk Modulus (GPa) = 53.62862 53.78788 53.70825
# Shear Modulus (GPa) = 29.07436 30.01923 29.54679
#
# Velocity S-wave (km/s) = 3.81310 3.87457 3.84396
# Velocity P-wave (km/s) = 6.79745 6.84945 6.82350
#
# Compressibility (1/GPa) = 0.01864676
#
# Stress axis : x y z
#
# Youngs Moduli (GPa) = 73.25718 94.64813 77.91423
#
# Poissons Ratio (x) = 0.26646 0.32372
# Poissons Ratio (y) = 0.20624 0.17390
# Poissons Ratio (z) = 0.30437 0.21124
#
# Static dielectric constant tensor:
#      x y z
#    x 3.653160 0.000000 0.000000 
#    y 0.000000 3.808580 0.000000 
#    z 0.000000 0.000000 3.625750 
# 
# 
# High freq. dielectric constant tensor:
#      x y z
#    x 1.772910 0.000000 0.000000 
#    y 0.000000 1.781700 0.000000 
#    z 0.000000 0.000000 1.786780 
# 
# From -- ./inp_files/22519.got.cif
#   From: 2010.03.12/outbox.cif.g09.slc.cpg/sg74_12_cif.got.tgz:22519.got - 2010.04.16 15:46:19.
