data_PCOD8299867
_publ_section_title
;
Structure prediction by ZEFSAII (Michael W. Deem and Ramdas Pophale) SiO2 
 PCOD8299867
Probable space group: I M M A
;
_chemical_formula_sum "Si O2"
_cell_formula_units_Z 120
_cell_length_a 27.038012
_cell_length_b 9.047835
_cell_length_c 27.774569
_cell_angle_alpha 90.000000
_cell_angle_beta 90.000000
_cell_angle_gamma 90.000000
_cell_volume 6794.644778
_symmetry_space_group_name_H-M "I M M A"
_symmetry_group_IT_number 74
_symmetry_cell_setting 'orthorhombic'
loop_
_space_group_symop_operation_xyz
x,y,z
-x,1/2-y,z
x,-y,-z
-x,1/2+y,-z
-x,-y,-z
x,1/2+y,-z
-x,y,z
x,1/2-y,z
1/2+x,1/2+y,1/2+z
1/2-x,-y,1/2+z
1/2+x,1/2-y,1/2-z
1/2-x,y,1/2-z
1/2-x,1/2-y,1/2-z
1/2+x,y,1/2-z
1/2-x,1/2+y,1/2+z
1/2+x,-y,1/2+z
loop_
_atom_site_type_symbol
_atom_site_label
_atom_site_fract_x
_atom_site_fract_y
_atom_site_fract_z
Si Si1 0.855749 0.418244 0.196946
Si Si2 0.385775 0.575318 0.450748
Si Si3 0.000000 0.420200 0.450304
Si Si4 0.556217 0.419755 0.368947
Si Si5 0.392603 0.576208 0.948379
Si Si6 0.308097 0.077814 0.123172
Si Si7 0.698853 0.080413 0.400021
Si Si8 0.199655 0.424216 0.724931
O O1 0.848227 0.250000 0.214018
O O2 0.911680 0.446374 0.179082
O O3 0.817564 0.457329 0.154267
O O4 0.845958 0.525200 0.241776
O O5 0.402627 0.500000 0.500000
O O6 0.386400 0.750000 0.456395
O O7 0.425306 0.526664 0.410909
O O8 0.330386 0.523224 0.437110
O O9 0.000000 0.500000 0.500000
O O10 0.052647 0.459536 0.424855
O O11 0.000000 0.250000 0.463014
O O12 0.500000 0.458325 0.356036
O O13 0.562560 0.250000 0.386178
O O14 0.385204 0.750000 0.956536
O O15 0.352100 0.516944 0.910617
O O16 0.385310 0.500000 0.000000
O O17 0.314853 0.250000 0.135299
O O18 0.256993 0.049753 0.094631
O O19 0.307974 0.990215 0.172560
O O20 0.685171 0.250000 0.411942
O O21 0.200031 0.250000 0.720028
O O22 0.250000 0.482607 0.750000
#
# Coordination Sequence:
#
# PCOD8299867 Si02
#       8
#    16  16   8  16  16  16  16  16
#     4   9  17  32  55  77  99 132 170 209 259 314
#     4  11  22  35  52  74 104 140 178 217 264 316
#     4   8  14  28  50  74  98 126 164 204 244 292
#     4   9  19  37  59  81 104 132 173 222 268 318
#     4   9  18  32  52  77 104 135 170 209 252 301
#     4  10  20  34  53  77 105 138 176 214 258 311
#     4   9  18  33  51  72  99 132 171 213 261 316
#     4  11  22  33  50  78 108 137 174 216 257 301
#
# _framework density 17.660968
#
# number of rings (size 3 to 8) (size 9 to 14) (size 15 to 20)
#    0.000    2.400    1.333    2.400    0.000    4.800 
#    0.000    1.333    1.467    0.000    0.000    0.000 
#    0.000    0.000    0.000    0.000    0.000    0.000 
#
# Total GULP energy -743825.655971 kJ/mol
# GULP energy per Si atom -12397.094266 kJ/mol
# Density = 1.762077 g / cm^3
# Si number density = 17.660968 Si / 1000 Ang^3
#
#
#
# Elastic Constant Matrix: (Units=GPa)
#
#
# Indices 1 2 3 4 5 6 
#
# 1 147.2917 37.3344 52.6255 0.0000 0.0000 0.0000
# 2 37.3344 71.5390 40.9169 0.0000 0.0000 0.0000
# 3 52.6255 40.9169 84.4496 0.0000 0.0000 0.0000
# 4 0.0000 0.0000 0.0000 29.6149 0.0000 0.0000
# 5 0.0000 0.0000 0.0000 0.0000 20.5105 0.0000
# 6 0.0000 0.0000 0.0000 0.0000 0.0000 16.1529
#
#
#
# Elastic Compliance Matrix: (Units=1/GPa)
#
#
# Indices 1 2 3 4 5 6 
#
# 1 0.008945 -0.002047 -0.004582 0.000000 0.000000 0.000000
# 2 -0.002047 0.019806 -0.008320 0.000000 0.000000 0.000000
# 3 -0.004582 -0.008320 0.018728 0.000000 0.000000 0.000000
# 4 0.000000 0.000000 0.000000 0.033767 0.000000 0.000000
# 5 0.000000 0.000000 0.000000 0.000000 0.048755 0.000000
# 6 0.000000 0.000000 0.000000 0.000000 0.000000 0.061908
#
#
# Mechanical properties :
#
#
# Convention : Reuss Voigt Hill
#
# Bulk Modulus (GPa) = 56.88557 62.78154 59.83355
# Shear Modulus (GPa) = 21.96163 24.74923 23.35543
#
# Velocity S-wave (km/s) = 3.53017 3.74752 3.64047
# Velocity P-wave (km/s) = 6.99256 7.37229 7.18493
#
# Compressibility (1/GPa) = 0.01757915
#
# Stress axis : x y z
#
# Youngs Moduli (GPa) = 111.78845 50.49054 53.39543
#
# Poissons Ratio (x) = 0.10338 0.24468
# Poissons Ratio (y) = 0.22889 0.44426
# Poissons Ratio (z) = 0.51226 0.42009
#
# Static dielectric constant tensor:
#      x y z
#    x 3.679610 0.000000 0.000000 
#    y 0.000000 3.475020 0.000000 
#    z 0.000000 0.000000 3.040680 
# 
# 
# High freq. dielectric constant tensor:
#      x y z
#    x 1.688960 0.000000 0.000000 
#    y 0.000000 1.678780 0.000000 
#    z 0.000000 0.000000 1.660440 
# 
# From -- ./inp_files/69002.got.cif
#   From: 2010.03.12/outbox.cif.g09.slc.cpg/sg74_35_cif.got.tgz:69002.got - 2010.04.16 15:46:19.
