data_PCOD8299154
_publ_section_title
;
Structure prediction by ZEFSAII (Michael W. Deem and Ramdas Pophale) SiO2 
 PCOD8299154
Probable space group: I M M A
;
_chemical_formula_sum "Si O2"
_cell_formula_units_Z 72
_cell_length_a 29.758107
_cell_length_b 7.538543
_cell_length_c 17.692528
_cell_angle_alpha 90.000000
_cell_angle_beta 90.000000
_cell_angle_gamma 90.000000
_cell_volume 3969.013801
_symmetry_space_group_name_H-M "I M M A"
_symmetry_group_IT_number 74
_symmetry_cell_setting 'orthorhombic'
loop_
_space_group_symop_operation_xyz
x,y,z
-x,1/2-y,z
x,-y,-z
-x,1/2+y,-z
-x,-y,-z
x,1/2+y,-z
-x,y,z
x,1/2-y,z
1/2+x,1/2+y,1/2+z
1/2-x,-y,1/2+z
1/2+x,1/2-y,1/2-z
1/2-x,y,1/2-z
1/2-x,1/2-y,1/2-z
1/2+x,y,1/2-z
1/2-x,1/2+y,1/2+z
1/2+x,-y,1/2+z
loop_
_atom_site_type_symbol
_atom_site_label
_atom_site_fract_x
_atom_site_fract_y
_atom_site_fract_z
Si Si1 0.553146 0.750000 0.306641
Si Si2 0.340244 0.045206 0.084124
Si Si3 0.446675 0.053447 0.418443
Si Si4 0.291900 0.250000 0.694357
Si Si5 0.872659 0.750000 0.308082
Si Si6 0.264379 0.954908 0.584266
O O1 0.500000 0.750000 0.292232
O O2 0.569722 0.578938 0.353562
O O3 0.577271 0.750000 0.225803
O O4 0.349323 0.250000 0.103091
O O5 0.287959 0.995806 0.092022
O O6 0.367958 0.926467 0.142160
O O7 0.356857 0.000000 0.000000
O O8 0.500000 0.044871 0.424297
O O9 0.429850 0.250000 0.396986
O O10 0.426302 0.000000 0.500000
O O11 0.250000 0.250000 0.750000
O O12 0.337787 0.250000 0.739743
O O13 0.291701 0.426215 0.643102
O O14 0.273491 0.750000 0.603361
O O15 0.280966 0.000000 0.500000
#
# Coordination Sequence:
#
# PCOD8299154 Si02
#       6
#     8  16  16   8   8  16
#     4  10  22  38  56  82 115 148 185 240 294 330
#     4  10  19  34  60  88 109 142 194 232 267 333
#     4   9  15  28  55  83 103 136 187 230 268 326
#     4  12  22  36  54  86 120 143 180 240 277 327
#     4  12  24  38  56  88 118 144 183 240 291 329
#     4  10  19  34  59  81 112 159 194 220 270 334
#
# _framework density 18.140526000000001
#
# number of rings (size 3 to 8) (size 9 to 14) (size 15 to 20)
#    0.000    1.778    5.556    0.000    0.000    2.222 
#    0.000    1.111    0.000    0.667    0.000    0.000 
#    0.000    0.000    0.000    0.000    0.000    0.000 
#
# Total GULP energy -446481.994341 kJ/mol
# GULP energy per Si atom -12402.277621 kJ/mol
# Density = 1.809924 g / cm^3
# Si number density = 18.140526 Si / 1000 Ang^3
#
#
#
# Elastic Constant Matrix: (Units=GPa)
#
#
# Indices 1 2 3 4 5 6 
#
# 1 43.8454 27.7612 43.8369 0.0000 0.0000 0.0000
# 2 27.7612 154.0792 71.9016 0.0000 0.0000 0.0000
# 3 43.8369 71.9016 133.4544 0.0000 0.0000 0.0000
# 4 0.0000 0.0000 0.0000 42.1307 0.0000 0.0000
# 5 0.0000 0.0000 0.0000 0.0000 28.9957 0.0000
# 6 0.0000 0.0000 0.0000 0.0000 0.0000 10.2804
#
#
#
# Elastic Compliance Matrix: (Units=1/GPa)
#
#
# Indices 1 2 3 4 5 6 
#
# 1 0.034133 -0.001226 -0.010551 0.000000 0.000000 0.000000
# 2 -0.001226 0.008714 -0.004292 0.000000 0.000000 0.000000
# 3 -0.010551 -0.004292 0.013272 0.000000 0.000000 0.000000
# 4 0.000000 0.000000 0.000000 0.023736 0.000000 0.000000
# 5 0.000000 0.000000 0.000000 0.000000 0.034488 0.000000
# 6 0.000000 0.000000 0.000000 0.000000 0.000000 0.097273
#
#
# Mechanical properties :
#
#
# Convention : Reuss Voigt Hill
#
# Bulk Modulus (GPa) = 41.70236 68.70873 55.20554
# Shear Modulus (GPa) = 19.86119 28.80664 24.33392
#
# Velocity S-wave (km/s) = 3.31244 3.98926 3.66650
# Velocity P-wave (km/s) = 6.13744 7.69266 6.95863
#
# Compressibility (1/GPa) = 0.02397946
#
# Stress axis : x y z
#
# Youngs Moduli (GPa) = 29.29706 114.75770 75.34895
#
# Poissons Ratio (x) = 0.14070 0.79504
# Poissons Ratio (y) = 0.03592 0.32341
# Poissons Ratio (z) = 0.30913 0.49255
#
# Static dielectric constant tensor:
#      x y z
#    x 2.828950 0.000000 0.000000 
#    y 0.000000 3.727850 0.000000 
#    z 0.000000 0.000000 3.403520 
# 
# 
# High freq. dielectric constant tensor:
#      x y z
#    x 1.645910 0.000000 0.000000 
#    y 0.000000 1.724590 0.000000 
#    z 0.000000 0.000000 1.705040 
# 
# From -- ./inp_files/37082.got.cif
#   From: 2010.03.12/outbox.cif.g09.slc.cpg/sg74_19_cif.got.tgz:37082.got - 2010.04.16 15:46:19.
