data_PCOD8299623
_publ_section_title
;
Structure prediction by ZEFSAII (Michael W. Deem and Ramdas Pophale) SiO2 
 PCOD8299623
Probable space group: I M M A
;
_chemical_formula_sum "Si O2"
_cell_formula_units_Z 96
_cell_length_a 9.147903
_cell_length_b 18.655886
_cell_length_c 30.651517
_cell_angle_alpha 90.000000
_cell_angle_beta 90.000000
_cell_angle_gamma 90.000000
_cell_volume 5231.056413
_symmetry_space_group_name_H-M "I M M A"
_symmetry_group_IT_number 74
_symmetry_cell_setting 'orthorhombic'
loop_
_space_group_symop_operation_xyz
x,y,z
-x,1/2-y,z
x,-y,-z
-x,1/2+y,-z
-x,-y,-z
x,1/2+y,-z
-x,y,z
x,1/2-y,z
1/2+x,1/2+y,1/2+z
1/2-x,-y,1/2+z
1/2+x,1/2-y,1/2-z
1/2-x,y,1/2-z
1/2-x,1/2-y,1/2-z
1/2+x,y,1/2-z
1/2-x,1/2+y,1/2+z
1/2+x,-y,1/2+z
loop_
_atom_site_type_symbol
_atom_site_label
_atom_site_fract_x
_atom_site_fract_y
_atom_site_fract_z
Si Si1 0.331055 0.333933 0.129251
Si Si2 0.670763 0.576086 0.293994
Si Si3 0.328621 0.411176 0.294076
Si Si4 0.172769 0.575559 0.548316
Si Si5 0.173173 0.085387 0.548739
Si Si6 0.170771 0.832882 0.123878
O O1 0.500000 0.354685 0.137946
O O2 0.310840 0.250000 0.123754
O O3 0.231785 0.361026 0.168254
O O4 0.270766 0.370002 0.084985
O O5 0.500000 0.587804 0.286337
O O6 0.750000 0.601605 0.250000
O O7 0.708302 0.493675 0.304855
O O8 0.729219 0.623457 0.334176
O O9 0.500000 0.398276 0.288660
O O10 0.250000 0.386770 0.250000
O O11 0.227636 0.601322 0.500721
O O12 0.225532 0.495326 0.560309
O O13 0.000000 0.574150 0.545934
O O14 0.248760 0.141608 0.580483
O O15 0.000000 0.094172 0.553581
O O16 0.206557 0.750000 0.131888
O O17 0.000000 0.846945 0.117335
#
# Coordination Sequence:
#
# PCOD8299623 Si02
#       6
#    16  16  16  16  16  16
#     4  10  20  33  50  73 102 135 166 199 246 299
#     4   9  19  35  54  75  98 128 166 206 249 295
#     4  10  20  35  55  76  98 126 164 208 249 293
#     4   8  16  32  53  77 103 130 164 210 256 290
#     4   9  17  32  55  78  99 129 172 213 245 289
#     4  10  21  35  49  71 107 141 164 198 252 302
#
# _framework density 18.351932999999999
#
# number of rings (size 3 to 8) (size 9 to 14) (size 15 to 20)
#    0.000    2.667    0.000    2.500    0.000    3.333 
#    0.000    4.167    0.000    0.000    0.000    0.000 
#    0.000    0.000    0.000    0.000    0.000    0.000 
#
# Total GULP energy -595221.954845 kJ/mol
# GULP energy per Si atom -12400.457393 kJ/mol
# Density = 1.831016 g / cm^3
# Si number density = 18.351933 Si / 1000 Ang^3
#
#
#
# Elastic Constant Matrix: (Units=GPa)
#
#
# Indices 1 2 3 4 5 6 
#
# 1 48.7651 36.1078 46.6014 0.0000 0.0000 0.0000
# 2 36.1078 85.9655 67.5256 0.0000 0.0000 0.0000
# 3 46.6014 67.5256 142.6794 0.0000 0.0000 0.0000
# 4 0.0000 0.0000 0.0000 12.3914 0.0000 0.0000
# 5 0.0000 0.0000 0.0000 0.0000 30.4124 0.0000
# 6 0.0000 0.0000 0.0000 0.0000 0.0000 23.7249
#
#
#
# Elastic Compliance Matrix: (Units=1/GPa)
#
#
# Indices 1 2 3 4 5 6 
#
# 1 0.033459 -0.008706 -0.006808 0.000000 0.000000 0.000000
# 2 -0.008706 0.020781 -0.006992 0.000000 0.000000 0.000000
# 3 -0.006808 -0.006992 0.012541 0.000000 0.000000 0.000000
# 4 0.000000 0.000000 0.000000 0.080701 0.000000 0.000000
# 5 0.000000 0.000000 0.000000 0.000000 0.032881 0.000000
# 6 0.000000 0.000000 0.000000 0.000000 0.000000 0.042150
#
#
# Mechanical properties :
#
#
# Convention : Reuss Voigt Hill
#
# Bulk Modulus (GPa) = 45.93448 64.20886 55.07167
# Shear Modulus (GPa) = 18.19633 21.78407 19.99020
#
# Velocity S-wave (km/s) = 3.15226 3.44905 3.30399
# Velocity P-wave (km/s) = 6.19137 7.13616 6.68049
#
# Compressibility (1/GPa) = 0.02177014
#
# Stress axis : x y z
#
# Youngs Moduli (GPa) = 29.88771 48.12051 79.73746
#
# Poissons Ratio (x) = 0.41893 0.54284
# Poissons Ratio (y) = 0.26020 0.55749
# Poissons Ratio (z) = 0.20347 0.33644
#
# Static dielectric constant tensor:
#      x y z
#    x 3.145770 0.000000 0.000000 
#    y 0.000000 3.407380 0.000000 
#    z 0.000000 0.000000 3.820820 
# 
# 
# High freq. dielectric constant tensor:
#      x y z
#    x 1.688760 0.000000 0.000000 
#    y 0.000000 1.708870 0.000000 
#    z 0.000000 0.000000 1.724420 
# 
# From -- ./inp_files/64283.got.cif
#   From: 2010.03.12/outbox.cif.g09.slc.cpg/sg74_33_cif.got.tgz:64283.got - 2010.04.16 15:46:19.
