data_PCOD8299859
_publ_section_title
;
Structure prediction by ZEFSAII (Michael W. Deem and Ramdas Pophale) SiO2 
 PCOD8299859
Probable space group: I M M A
;
_chemical_formula_sum "Si O2"
_cell_formula_units_Z 88
_cell_length_a 9.367454
_cell_length_b 16.495706
_cell_length_c 30.227761
_cell_angle_alpha 90.000000
_cell_angle_beta 90.000000
_cell_angle_gamma 90.000000
_cell_volume 4670.877275
_symmetry_space_group_name_H-M "I M M A"
_symmetry_group_IT_number 74
_symmetry_cell_setting 'orthorhombic'
loop_
_space_group_symop_operation_xyz
x,y,z
-x,1/2-y,z
x,-y,-z
-x,1/2+y,-z
-x,-y,-z
x,1/2+y,-z
-x,y,z
x,1/2-y,z
1/2+x,1/2+y,1/2+z
1/2-x,-y,1/2+z
1/2+x,1/2-y,1/2-z
1/2-x,y,1/2-z
1/2-x,1/2-y,1/2-z
1/2+x,y,1/2-z
1/2-x,1/2+y,1/2+z
1/2+x,-y,1/2+z
loop_
_atom_site_type_symbol
_atom_site_label
_atom_site_fract_x
_atom_site_fract_y
_atom_site_fract_z
Si Si1 0.333102 0.377824 0.629742
Si Si2 0.332015 0.935743 0.624246
Si Si3 0.833538 0.154626 0.037840
Si Si4 0.666017 0.250000 0.703839
Si Si5 0.163557 0.845119 0.791609
Si Si6 0.343088 0.341903 0.955490
O O1 0.500000 0.365912 0.618614
O O2 0.290025 0.471602 0.632989
O O3 0.295063 0.330216 0.675057
O O4 0.241018 0.341923 0.590318
O O5 0.500000 0.922776 0.623088
O O6 0.271660 0.898682 0.578594
O O7 0.267932 0.885304 0.664984
O O8 0.807853 0.250000 0.047340
O O9 0.000000 0.137748 0.029520
O O10 0.750779 0.119607 0.994963
O O11 0.500000 0.250000 0.716094
O O12 0.750000 0.250000 0.750000
O O13 0.181361 0.750000 0.797042
O O14 0.250000 0.878848 0.750000
O O15 0.000000 0.870927 0.784906
O O16 0.500000 0.384117 0.951389
O O17 0.367222 0.250000 0.969320
#
# Coordination Sequence:
#
# PCOD8299859 Si02
#       6
#    16  16  16   8  16  16
#     4  10  20  36  56  77 101 133 174 215 258 309
#     4   9  18  32  52  77 104 134 172 217 257 301
#     4   9  17  31  53  78 103 137 177 213 251 299
#     4  10  22  38  58  80 102 132 172 220 269 316
#     4   9  17  31  51  74 101 134 171 208 250 302
#     4  10  20  34  53  76 104 138 173 211 258 311
#
# _framework density 18.840143999999999
#
# number of rings (size 3 to 8) (size 9 to 14) (size 15 to 20)
#    0.000    2.545    0.909    1.091    0.000    5.091 
#    0.000    6.364    0.000    4.364    0.000    0.000 
#    0.000    0.000    0.000    0.000    0.000    0.000 
#
# Total GULP energy -545414.935865 kJ/mol
# GULP energy per Si atom -12395.793997 kJ/mol
# Density = 1.879726 g / cm^3
# Si number density = 18.840144 Si / 1000 Ang^3
#
#
#
# Elastic Constant Matrix: (Units=GPa)
#
#
# Indices 1 2 3 4 5 6 
#
# 1 75.1271 36.7397 72.4801 0.0000 0.0000 0.0000
# 2 36.7397 58.1360 55.7072 0.0000 0.0000 0.0000
# 3 72.4801 55.7072 185.5787 0.0000 0.0000 0.0000
# 4 0.0000 0.0000 0.0000 12.2487 0.0000 0.0000
# 5 0.0000 0.0000 0.0000 0.0000 32.4229 0.0000
# 6 0.0000 0.0000 0.0000 0.0000 0.0000 13.5680
#
#
#
# Elastic Compliance Matrix: (Units=1/GPa)
#
#
# Indices 1 2 3 4 5 6 
#
# 1 0.024155 -0.008739 -0.006811 0.000000 0.000000 0.000000
# 2 -0.008739 0.027308 -0.004784 0.000000 0.000000 0.000000
# 3 -0.006811 -0.004784 0.009485 0.000000 0.000000 0.000000
# 4 0.000000 0.000000 0.000000 0.081642 0.000000 0.000000
# 5 0.000000 0.000000 0.000000 0.000000 0.030842 0.000000
# 6 0.000000 0.000000 0.000000 0.000000 0.000000 0.073703
#
#
# Mechanical properties :
#
#
# Convention : Reuss Voigt Hill
#
# Bulk Modulus (GPa) = 49.30956 72.07730 60.69343
# Shear Modulus (GPa) = 16.97430 21.90891 19.44160
#
# Velocity S-wave (km/s) = 3.00486 3.41381 3.21584
# Velocity P-wave (km/s) = 6.18614 7.34024 6.78776
#
# Compressibility (1/GPa) = 0.02028004
#
# Stress axis : x y z
#
# Youngs Moduli (GPa) = 41.39871 36.61922 105.43190
#
# Poissons Ratio (x) = 0.32001 0.71809
# Poissons Ratio (y) = 0.36178 0.50442
# Poissons Ratio (z) = 0.28196 0.17520
#
# Static dielectric constant tensor:
#      x y z
#    x 3.389940 0.000000 0.000000 
#    y 0.000000 3.463580 0.000000 
#    z 0.000000 0.000000 3.595710 
# 
# 
# High freq. dielectric constant tensor:
#      x y z
#    x 1.707650 0.000000 0.000000 
#    y 0.000000 1.722490 0.000000 
#    z 0.000000 0.000000 1.740110 
# 
# From -- ./inp_files/70289.got.cif
#   From: 2010.03.12/outbox.cif.g09.slc.cpg/sg74_36_cif.got.tgz:70289.got - 2010.04.16 15:46:19.
