data_PCOD8299452
_publ_section_title
;
Structure prediction by ZEFSAII (Michael W. Deem and Ramdas Pophale) SiO2 
 PCOD8299452
Probable space group: I M M A
;
_chemical_formula_sum "Si O2"
_cell_formula_units_Z 80
_cell_length_a 9.085939
_cell_length_b 27.317501
_cell_length_c 18.524150
_cell_angle_alpha 90.000000
_cell_angle_beta 90.000000
_cell_angle_gamma 90.000000
_cell_volume 4597.789387
_symmetry_space_group_name_H-M "I M M A"
_symmetry_group_IT_number 74
_symmetry_cell_setting 'orthorhombic'
loop_
_space_group_symop_operation_xyz
x,y,z
-x,1/2-y,z
x,-y,-z
-x,1/2+y,-z
-x,-y,-z
x,1/2+y,-z
-x,y,z
x,1/2-y,z
1/2+x,1/2+y,1/2+z
1/2-x,-y,1/2+z
1/2+x,1/2-y,1/2-z
1/2-x,y,1/2-z
1/2-x,1/2-y,1/2-z
1/2+x,y,1/2-z
1/2-x,1/2+y,1/2+z
1/2+x,-y,1/2+z
loop_
_atom_site_type_symbol
_atom_site_label
_atom_site_fract_x
_atom_site_fract_y
_atom_site_fract_z
Si Si1 0.672256 0.193714 0.822806
Si Si2 0.825374 0.803847 0.896851
Si Si3 0.175318 0.901090 0.823617
Si Si4 0.828057 0.450477 0.031856
Si Si5 0.671291 0.350962 0.544129
O O1 0.500000 0.185633 0.813630
O O2 0.712377 0.250000 0.839034
O O3 0.750000 0.175743 0.750000
O O4 0.730730 0.160653 0.887240
O O5 0.762539 0.750000 0.875682
O O6 0.770749 0.845413 0.841092
O O7 0.000000 0.803804 0.895877
O O8 0.775190 0.816946 0.977970
O O9 0.250000 0.919023 0.750000
O O10 0.232278 0.936228 0.888470
O O11 0.000000 0.903276 0.816013
O O12 0.000000 0.459082 0.041601
O O13 0.753611 0.500000 0.000000
O O14 0.797980 0.407247 0.975465
O O15 0.500000 0.341834 0.561718
#
# Coordination Sequence:
#
# PCOD8299452 Si02
#       5
#    16  16  16  16  16
#     4  10  20  32  46  66  94 126 156 189 233 284
#     4   8  14  25  42  64  89 118 151 181 212 261
#     4   9  17  29  46  67  90 118 149 181 220 263
#     4   8  15  30  51  71  91 120 157 191 227 276
#     4   9  16  28  49  71  89 116 155 196 233 270
#
# _framework density 17.399664999999999
#
# number of rings (size 3 to 8) (size 9 to 14) (size 15 to 20)
#    0.000    3.200    0.000    3.600    0.000    2.400 
#    0.000    5.000    0.000    6.000    0.000    0.000 
#    0.000    0.000    0.000    0.000    0.000    0.000 
#
# Total GULP energy -495774.379157 kJ/mol
# GULP energy per Si atom -12394.359479 kJ/mol
# Density = 1.736006 g / cm^3
# Si number density = 17.399665 Si / 1000 Ang^3
#
#
#
# Elastic Constant Matrix: (Units=GPa)
#
#
# Indices 1 2 3 4 5 6 
#
# 1 37.9990 18.0533 36.0968 -0.0001 0.0000 0.0000
# 2 18.0533 105.8962 53.5125 0.0000 0.0000 0.0000
# 3 36.0968 53.5125 131.8953 -0.0005 0.0001 0.0000
# 4 -0.0001 0.0000 -0.0005 18.1842 0.0000 0.0000
# 5 0.0000 0.0000 0.0001 0.0000 31.1870 0.0000
# 6 0.0000 0.0000 0.0000 0.0000 0.0000 12.7713
#
#
#
# Elastic Compliance Matrix: (Units=1/GPa)
#
#
# Indices 1 2 3 4 5 6 
#
# 1 0.035737 -0.001447 -0.009193 0.000000 0.000000 0.000000
# 2 -0.001447 0.011937 -0.004447 0.000000 0.000000 0.000000
# 3 -0.009193 -0.004447 0.011902 0.000000 0.000000 0.000000
# 4 0.000000 0.000000 0.000000 0.054993 0.000000 0.000000
# 5 0.000000 0.000000 0.000000 0.000000 0.032065 0.000000
# 6 0.000000 0.000000 0.000000 0.000000 0.000000 0.078301
#
#
# Mechanical properties :
#
#
# Convention : Reuss Voigt Hill
#
# Bulk Modulus (GPa) = 34.01183 54.56841 44.29012
# Shear Modulus (GPa) = 18.87435 23.63702 21.25569
#
# Velocity S-wave (km/s) = 3.29713 3.68975 3.49895
# Velocity P-wave (km/s) = 5.83820 7.04146 6.46787
#
# Compressibility (1/GPa) = 0.02940154
#
# Stress axis : x y z
#
# Youngs Moduli (GPa) = 27.98214 83.77201 84.01852
#
# Poissons Ratio (x) = 0.12120 0.77242
# Poissons Ratio (y) = 0.04048 0.37365
# Poissons Ratio (z) = 0.25725 0.37255
#
# Static dielectric constant tensor:
#      x y z
#    x 2.786870 0.000000 0.000000 
#    y 0.000000 3.597360 0.000000 
#    z 0.000000 0.000000 3.261600 
# 
# 
# High freq. dielectric constant tensor:
#      x y z
#    x 1.629610 0.000000 0.000000 
#    y 0.000000 1.665370 0.000000 
#    z 0.000000 0.000000 1.674880 
# 
# From -- ./inp_files/39743.got.cif
#   From: 2010.03.12/outbox.cif.g09.slc.cpg/sg74_20_cif.got.tgz:39743.got - 2010.04.16 15:46:19.
