data_PCOD8299398
_publ_section_title
;
Structure prediction by ZEFSAII (Michael W. Deem and Ramdas Pophale) SiO2 
 PCOD8299398
Probable space group: I M M A
;
_chemical_formula_sum "Si O2"
_cell_formula_units_Z 112
_cell_length_a 25.385800
_cell_length_b 23.619164
_cell_length_c 11.011144
_cell_angle_alpha 90.000000
_cell_angle_beta 90.000000
_cell_angle_gamma 90.000000
_cell_volume 6602.186954
_symmetry_space_group_name_H-M "I M M A"
_symmetry_group_IT_number 74
_symmetry_cell_setting 'orthorhombic'
loop_
_space_group_symop_operation_xyz
x,y,z
-x,1/2-y,z
x,-y,-z
-x,1/2+y,-z
-x,-y,-z
x,1/2+y,-z
-x,y,z
x,1/2-y,z
1/2+x,1/2+y,1/2+z
1/2-x,-y,1/2+z
1/2+x,1/2-y,1/2-z
1/2-x,y,1/2-z
1/2-x,1/2-y,1/2-z
1/2+x,y,1/2-z
1/2-x,1/2+y,1/2+z
1/2+x,-y,1/2+z
loop_
_atom_site_type_symbol
_atom_site_label
_atom_site_fract_x
_atom_site_fract_y
_atom_site_fract_z
Si Si1 0.060617 0.184110 0.931400
Si Si2 0.698835 0.907861 0.058898
Si Si3 0.693417 0.908152 0.782053
Si Si4 0.278031 0.312158 0.575124
Si Si5 0.796093 0.521436 0.131984
Si Si6 0.361540 0.313713 0.361927
Si Si7 0.143602 0.876891 0.219773
O O1 0.068650 0.250000 0.898429
O O2 0.087590 0.147338 0.823642
O O3 0.000000 0.166382 0.935038
O O4 0.084703 0.171692 0.064896
O O5 0.728934 0.849638 0.040294
O O6 0.735796 0.952011 0.137196
O O7 0.646060 0.894545 0.137465
O O8 0.684275 0.926483 0.922742
O O9 0.750000 0.879870 0.750000
O O10 0.649168 0.862568 0.739069
O O11 0.693019 0.968694 0.718133
O O12 0.256287 0.250000 0.599412
O O13 0.316383 0.314835 0.461114
O O14 0.309639 0.331598 0.695355
O O15 0.841797 0.567512 0.143874
O O16 0.804771 0.500000 0.000000
O O17 0.364941 0.250000 0.303392
#
# Coordination Sequence:
#
# PCOD8299398 Si02
#       7
#    16  16  16  16  16  16  16
#     4   9  18  36  61  80  96 126 173 231 283 317
#     4  11  22  29  43  73 103 144 178 204 245 306
#     4  12  20  32  48  70 107 150 179 204 249 306
#     4   9  16  29  46  65  99 136 165 204 250 298
#     4  11  20  31  49  70 104 143 182 216 240 293
#     4   9  18  32  50  75 101 131 175 219 259 310
#     4  10  20  31  45  74 102 128 171 219 257 303
#
# _framework density 16.964075999999999
#
# number of rings (size 3 to 8) (size 9 to 14) (size 15 to 20)
#    0.000    1.857    2.857    5.571    0.000    2.571 
#    0.000    0.000    0.000    4.714    0.000    3.000 
#    0.000    0.000    0.000    0.000    0.000    0.000 
#
# Total GULP energy -693852.396466 kJ/mol
# GULP energy per Si atom -12390.221365 kJ/mol
# Density = 1.692546 g / cm^3
# Si number density = 16.964076 Si / 1000 Ang^3
#
#
#
# Elastic Constant Matrix: (Units=GPa)
#
#
# Indices 1 2 3 4 5 6 
#
# 1 88.0954 40.9158 29.1998 0.0000 0.0000 0.0000
# 2 40.9158 115.2677 32.3756 0.0000 0.0000 0.0000
# 3 29.1998 32.3756 55.5682 0.0000 0.0000 0.0000
# 4 0.0000 0.0000 0.0000 22.4072 0.0000 0.0000
# 5 0.0000 0.0000 0.0000 0.0000 17.2206 0.0000
# 6 0.0000 0.0000 0.0000 0.0000 0.0000 19.5729
#
#
#
# Elastic Compliance Matrix: (Units=1/GPa)
#
#
# Indices 1 2 3 4 5 6 
#
# 1 0.014964 -0.003710 -0.005702 0.000000 0.000000 0.000000
# 2 -0.003710 0.011293 -0.004630 0.000000 0.000000 0.000000
# 3 -0.005702 -0.004630 0.023689 0.000000 0.000000 0.000000
# 4 0.000000 0.000000 0.000000 0.044629 0.000000 0.000000
# 5 0.000000 0.000000 0.000000 0.000000 0.058070 0.000000
# 6 0.000000 0.000000 0.000000 0.000000 0.000000 0.051091
#
#
# Mechanical properties :
#
#
# Convention : Reuss Voigt Hill
#
# Bulk Modulus (GPa) = 45.73939 51.54597 48.64268
# Shear Modulus (GPa) = 20.91107 22.26949 21.59028
#
# Velocity S-wave (km/s) = 3.51475 3.62711 3.57137
# Velocity P-wave (km/s) = 6.59487 6.92767 6.76332
#
# Compressibility (1/GPa) = 0.02186300
#
# Stress axis : x y z
#
# Youngs Moduli (GPa) = 66.82491 88.55121 42.21283
#
# Poissons Ratio (x) = 0.32856 0.24069
# Poissons Ratio (y) = 0.24795 0.19544
# Poissons Ratio (z) = 0.38102 0.40998
#
# Static dielectric constant tensor:
#      x y z
#    x 2.872850 0.000000 0.000000 
#    y 0.000000 3.470350 0.000000 
#    z 0.000000 0.000000 3.284770 
# 
# 
# High freq. dielectric constant tensor:
#      x y z
#    x 1.591050 0.000000 0.000000 
#    y 0.000000 1.672520 0.000000 
#    z 0.000000 0.000000 1.655410 
# 
# From -- ./inp_files/26567.got.cif
#   From: 2010.03.12/outbox.cif.g09.slc.cpg/sg74_14_cif.got.tgz:26567.got - 2010.04.16 15:46:19.
