data_PCOD8299403
_publ_section_title
;
Structure prediction by ZEFSAII (Michael W. Deem and Ramdas Pophale) SiO2 
 PCOD8299403
Probable space group: I M M A
;
_chemical_formula_sum "Si O2"
_cell_formula_units_Z 112
_cell_length_a 28.461845
_cell_length_b 14.144546
_cell_length_c 15.064981
_cell_angle_alpha 90.000000
_cell_angle_beta 90.000000
_cell_angle_gamma 90.000000
_cell_volume 6064.858181
_symmetry_space_group_name_H-M "I M M A"
_symmetry_group_IT_number 74
_symmetry_cell_setting 'orthorhombic'
loop_
_space_group_symop_operation_xyz
x,y,z
-x,1/2-y,z
x,-y,-z
-x,1/2+y,-z
-x,-y,-z
x,1/2+y,-z
-x,y,z
x,1/2-y,z
1/2+x,1/2+y,1/2+z
1/2-x,-y,1/2+z
1/2+x,1/2-y,1/2-z
1/2-x,y,1/2-z
1/2-x,1/2-y,1/2-z
1/2+x,y,1/2-z
1/2-x,1/2+y,1/2+z
1/2+x,-y,1/2+z
loop_
_atom_site_type_symbol
_atom_site_label
_atom_site_fract_x
_atom_site_fract_y
_atom_site_fract_z
Si Si1 0.114906 0.644183 0.142398
Si Si2 0.208594 0.361883 0.129850
Si Si3 0.363717 0.474370 0.245325
Si Si4 0.552647 0.638505 0.717368
Si Si5 0.288132 0.494431 0.103750
Si Si6 0.051922 0.638382 0.981878
Si Si7 0.215654 0.853101 0.070662
O O1 0.095435 0.750000 0.166912
O O2 0.109497 0.568171 0.219995
O O3 0.088945 0.602760 0.054836
O O4 0.170205 0.652032 0.130317
O O5 0.205137 0.250000 0.152855
O O6 0.171171 0.422362 0.185476
O O7 0.262442 0.399062 0.141344
O O8 0.198638 0.386077 0.026840
O O9 0.407027 0.405300 0.219779
O O10 0.336305 0.504537 0.156909
O O11 0.500000 0.604911 0.744035
O O12 0.555681 0.750000 0.725333
O O13 0.564824 0.603224 0.617023
O O14 0.252081 0.579766 0.121239
O O15 0.301047 0.500000 0.000000
O O16 0.052540 0.750000 0.978411
O O17 0.000000 0.601775 0.008754
O O18 0.239664 0.750000 0.062372
#
# Coordination Sequence:
#
# PCOD8299403 Si02
#       7
#    16  16  16  16  16  16  16
#     4  10  20  31  47  73 104 142 182 212 245 294
#     4  10  20  33  52  78 105 132 166 213 265 314
#     4  12  22  32  53  78 101 133 179 224 258 306
#     4   9  19  35  54  79 110 138 166 206 261 322
#     4  10  22  38  51  70 101 136 175 216 271 319
#     4   8  15  30  50  74 108 143 168 197 245 304
#     4   9  18  34  52  71 103 142 175 210 255 311
#
# _framework density 18.467044000000001
#
# number of rings (size 3 to 8) (size 9 to 14) (size 15 to 20)
#    0.000    2.286    1.429    2.571    0.000    6.857 
#    0.000    2.857    0.000    0.429    0.000    0.000 
#    0.000    2.286    0.000    0.000    0.000    0.000 
#
# Total GULP energy -693889.898267 kJ/mol
# GULP energy per Si atom -12390.891040 kJ/mol
# Density = 1.842501 g / cm^3
# Si number density = 18.467044 Si / 1000 Ang^3
#
#
#
# Elastic Constant Matrix: (Units=GPa)
#
#
# Indices 1 2 3 4 5 6 
#
# 1 102.2180 25.8923 39.1993 0.0000 0.0000 0.0000
# 2 25.8923 57.6755 20.3114 0.0000 0.0000 0.0000
# 3 39.1993 20.3114 36.3783 0.0000 0.0000 0.0000
# 4 0.0000 0.0000 0.0000 16.8560 0.0000 0.0000
# 5 0.0000 0.0000 0.0000 0.0000 29.6644 0.0000
# 6 0.0000 0.0000 0.0000 0.0000 0.0000 19.6419
#
#
#
# Elastic Compliance Matrix: (Units=1/GPa)
#
#
# Indices 1 2 3 4 5 6 
#
# 1 0.016769 -0.001450 -0.017260 0.000000 0.000000 0.000000
# 2 -0.001450 0.021707 -0.010558 0.000000 0.000000 0.000000
# 3 -0.017260 -0.010558 0.051982 0.000000 0.000000 0.000000
# 4 0.000000 0.000000 0.000000 0.059326 0.000000 0.000000
# 5 0.000000 0.000000 0.000000 0.000000 0.033710 0.000000
# 6 0.000000 0.000000 0.000000 0.000000 0.000000 0.050911
#
#
# Mechanical properties :
#
#
# Convention : Reuss Voigt Hill
#
# Bulk Modulus (GPa) = 31.32500 40.78641 36.05571
# Shear Modulus (GPa) = 16.46992 20.62373 18.54682
#
# Velocity S-wave (km/s) = 2.98963 3.34546 3.17254
# Velocity P-wave (km/s) = 5.37742 6.08743 5.74341
#
# Compressibility (1/GPa) = 0.03192338
#
# Stress axis : x y z
#
# Youngs Moduli (GPa) = 59.63271 46.06735 19.23729
#
# Poissons Ratio (x) = 0.06679 0.33204
# Poissons Ratio (y) = 0.08645 0.20310
# Poissons Ratio (z) = 1.02927 0.48637
#
# Static dielectric constant tensor:
#      x y z
#    x 3.471290 0.000000 0.000000 
#    y 0.000000 3.718130 0.000000 
#    z 0.000000 0.000000 3.080200 
# 
# 
# High freq. dielectric constant tensor:
#      x y z
#    x 1.705480 0.000000 0.000000 
#    y 0.000000 1.728350 0.000000 
#    z 0.000000 0.000000 1.665240 
# 
# From -- ./inp_files/37944.got.cif
#   From: 2010.03.12/outbox.cif.g09.slc.cpg/sg74_19_cif.got.tgz:37944.got - 2010.04.16 15:46:19.
