data_PCOD8299489
_publ_section_title
;
Structure prediction by ZEFSAII (Michael W. Deem and Ramdas Pophale) SiO2 
 PCOD8299489
Probable space group: I M M A
;
_chemical_formula_sum "Si O2"
_cell_formula_units_Z 96
_cell_length_a 15.258425
_cell_length_b 10.546507
_cell_length_c 36.073860
_cell_angle_alpha 90.000000
_cell_angle_beta 90.000000
_cell_angle_gamma 90.000000
_cell_volume 5805.116878
_symmetry_space_group_name_H-M "I M M A"
_symmetry_group_IT_number 74
_symmetry_cell_setting 'orthorhombic'
loop_
_space_group_symop_operation_xyz
x,y,z
-x,1/2-y,z
x,-y,-z
-x,1/2+y,-z
-x,-y,-z
x,1/2+y,-z
-x,y,z
x,1/2-y,z
1/2+x,1/2+y,1/2+z
1/2-x,-y,1/2+z
1/2+x,1/2-y,1/2-z
1/2-x,y,1/2-z
1/2-x,1/2-y,1/2-z
1/2+x,y,1/2-z
1/2-x,1/2+y,1/2+z
1/2+x,-y,1/2+z
loop_
_atom_site_type_symbol
_atom_site_label
_atom_site_fract_x
_atom_site_fract_y
_atom_site_fract_z
Si Si1 0.101104 0.484893 0.610439
Si Si2 0.403740 0.984173 0.234093
Si Si3 0.220184 0.393682 0.671356
Si Si4 0.101011 0.250000 0.352228
Si Si5 0.656100 0.750000 0.769400
Si Si6 0.103031 0.895379 0.471440
Si Si7 0.405421 0.105887 0.686152
O O1 0.165379 0.395851 0.633776
O O2 0.121162 0.629879 0.621566
O O3 0.125294 0.455177 0.568304
O O4 0.000000 0.449559 0.618520
O O5 0.500000 0.955270 0.217006
O O6 0.397660 0.130414 0.245882
O O7 0.330281 0.967751 0.203224
O O8 0.387987 0.897556 0.269744
O O9 0.231125 0.250000 0.684828
O O10 0.318795 0.453426 0.666319
O O11 0.160046 0.250000 0.314977
O O12 0.000000 0.250000 0.339106
O O13 0.750000 0.750000 0.750000
O O14 0.141144 0.750000 0.475883
O O15 0.000000 0.885754 0.477855
O O16 0.143095 0.000000 0.500000
O O17 0.500000 0.038120 0.676713
O O18 0.414519 0.250000 0.673402
#
# Coordination Sequence:
#
# PCOD8299489 Si02
#       7
#    16  16  16   8   8  16  16
#     4  10  20  32  48  69  97 126 160 198 236 285
#     4  11  21  32  45  63  87 115 151 196 243 292
#     4  11  20  30  47  67  88 117 153 193 242 287
#     4  10  20  34  48  66  92 127 167 208 253 293
#     4  12  22  32  46  62  86 121 164 207 248 290
#     4   9  18  31  48  71 100 133 166 197 234 284
#     4   9  19  34  48  63  85 114 152 197 244 292
#
# _framework density 16.537134999999999
#
# number of rings (size 3 to 8) (size 9 to 14) (size 15 to 20)
#    0.000    1.833    1.667    3.750    1.167    4.000 
#    0.000    0.000    0.000    0.000    0.000    0.000 
#    0.000    0.667    0.000    0.333    0.000    0.333 
#
# Total GULP energy -594699.924151 kJ/mol
# GULP energy per Si atom -12389.581753 kJ/mol
# Density = 1.649950 g / cm^3
# Si number density = 16.537135 Si / 1000 Ang^3
#
#
#
# Elastic Constant Matrix: (Units=GPa)
#
#
# Indices 1 2 3 4 5 6 
#
# 1 115.0853 23.5239 46.1926 0.0000 0.0000 0.0000
# 2 23.5239 73.9157 25.6105 0.0000 0.0000 0.0000
# 3 46.1926 25.6105 79.8129 0.0000 0.0000 0.0000
# 4 0.0000 0.0000 0.0000 24.0206 0.0000 0.0000
# 5 0.0000 0.0000 0.0000 0.0000 11.0374 0.0000
# 6 0.0000 0.0000 0.0000 0.0000 0.0000 16.2397
#
#
#
# Elastic Compliance Matrix: (Units=1/GPa)
#
#
# Indices 1 2 3 4 5 6 
#
# 1 0.011468 -0.001519 -0.006150 0.000000 0.000000 0.000000
# 2 -0.001519 0.015422 -0.004070 0.000000 0.000000 0.000000
# 3 -0.006150 -0.004070 0.017395 0.000000 0.000000 0.000000
# 4 0.000000 0.000000 0.000000 0.041631 0.000000 0.000000
# 5 0.000000 0.000000 0.000000 0.000000 0.090601 0.000000
# 6 0.000000 0.000000 0.000000 0.000000 0.000000 0.061578
#
#
# Mechanical properties :
#
#
# Convention : Reuss Voigt Hill
#
# Bulk Modulus (GPa) = 48.05837 51.05198 49.55517
# Shear Modulus (GPa) = 18.62142 21.82532 20.22337
#
# Velocity S-wave (km/s) = 3.35929 3.63681 3.50080
# Velocity P-wave (km/s) = 6.64608 6.96946 6.80969
#
# Compressibility (1/GPa) = 0.02080803
#
# Stress axis : x y z
#
# Youngs Moduli (GPa) = 87.19829 64.84078 57.48942
#
# Poissons Ratio (x) = 0.09849 0.35355
# Poissons Ratio (y) = 0.13245 0.23396
# Poissons Ratio (z) = 0.53626 0.26388
#
# Static dielectric constant tensor:
#      x y z
#    x 3.300670 0.000000 0.000000 
#    y 0.000000 3.375240 0.000000 
#    z 0.000000 0.000000 2.927800 
# 
# 
# High freq. dielectric constant tensor:
#      x y z
#    x 1.616540 0.000000 0.000000 
#    y 0.000000 1.645100 0.000000 
#    z 0.000000 0.000000 1.601270 
# 
# From -- ./inp_files/71826.got.cif
#   From: 2010.03.12/outbox.cif.g09.slc.cpg/sg74_36_cif.got.tgz:71826.got - 2010.04.16 15:46:19.
