data_PCOD8299585
_publ_section_title
;
Structure prediction by ZEFSAII (Michael W. Deem and Ramdas Pophale) SiO2 
 PCOD8299585
Probable space group: I M M A
;
_chemical_formula_sum "Si O2"
_cell_formula_units_Z 72
_cell_length_a 8.876607
_cell_length_b 32.858322
_cell_length_c 14.670599
_cell_angle_alpha 90.000000
_cell_angle_beta 90.000000
_cell_angle_gamma 90.000000
_cell_volume 4278.979641
_symmetry_space_group_name_H-M "I M M A"
_symmetry_group_IT_number 74
_symmetry_cell_setting 'orthorhombic'
loop_
_space_group_symop_operation_xyz
x,y,z
-x,1/2-y,z
x,-y,-z
-x,1/2+y,-z
-x,-y,-z
x,1/2+y,-z
-x,y,z
x,1/2-y,z
1/2+x,1/2+y,1/2+z
1/2-x,-y,1/2+z
1/2+x,1/2-y,1/2-z
1/2-x,y,1/2-z
1/2-x,1/2-y,1/2-z
1/2+x,y,1/2-z
1/2-x,1/2+y,1/2+z
1/2+x,-y,1/2+z
loop_
_atom_site_type_symbol
_atom_site_label
_atom_site_fract_x
_atom_site_fract_y
_atom_site_fract_z
Si Si1 0.675201 0.250000 0.153670
Si Si2 0.324701 0.068936 0.656403
Si Si3 0.321087 0.088677 0.026144
Si Si4 0.824663 0.473560 0.156363
Si Si5 0.177279 0.162111 0.348579
O O1 0.500000 0.250000 0.171442
O O2 0.750000 0.250000 0.250000
O O3 0.720001 0.293268 0.106904
O O4 0.500000 0.079776 0.658098
O O5 0.250000 0.083990 0.750000
O O6 0.244199 0.093070 0.575136
O O7 0.296918 0.021145 0.642546
O O8 0.500000 0.085252 0.022077
O O9 0.254146 0.048347 0.072002
O O10 0.264195 0.128039 0.081896
O O11 0.750000 0.458055 0.250000
O O12 0.000000 0.462414 0.158717
O O13 0.250000 0.155374 0.250000
O O14 0.000000 0.157797 0.334746
#
# Coordination Sequence:
#
# PCOD8299585 Si02
#       5
#     8  16  16  16  16
#     4   8  14  28  46  64  91 124 153 180 215 262
#     4  10  21  36  51  66  87 119 158 197 235 274
#     4  11  21  31  46  70  96 122 154 191 231 273
#     4  10  20  33  48  67  92 123 157 191 230 274
#     4   9  18  30  46  69  96 125 154 184 220 266
#
# _framework density 16.826442
#
# number of rings (size 3 to 8) (size 9 to 14) (size 15 to 20)
#    0.000    2.222    0.000    3.333    0.000    8.889 
#    0.000    0.000    0.000    0.000    0.000    0.778 
#    0.000    0.000    0.000    0.000    0.000    0.000 
#
# Total GULP energy -446273.338370 kJ/mol
# GULP energy per Si atom -12396.481621 kJ/mol
# Density = 1.678814 g / cm^3
# Si number density = 16.826442 Si / 1000 Ang^3
#
#
#
# Elastic Constant Matrix: (Units=GPa)
#
#
# Indices 1 2 3 4 5 6 
#
# 1 72.9578 37.3411 47.3849 0.0002 0.0000 0.0000
# 2 37.3411 74.9844 52.1533 -0.0005 0.0000 0.0000
# 3 47.3849 52.1533 127.1943 -0.0015 0.0000 0.0000
# 4 0.0002 -0.0005 -0.0015 10.8118 -0.0002 -0.0001
# 5 0.0000 0.0000 0.0000 -0.0002 32.1064 0.0000
# 6 0.0000 0.0000 0.0000 -0.0001 0.0000 16.1156
#
#
#
# Elastic Compliance Matrix: (Units=1/GPa)
#
#
# Indices 1 2 3 4 5 6 
#
# 1 0.020276 -0.006776 -0.004775 -0.000001 0.000000 0.000000
# 2 -0.006776 0.020921 -0.006054 0.000000 0.000000 0.000000
# 3 -0.004775 -0.006054 0.012123 0.000001 0.000000 0.000000
# 4 -0.000001 0.000000 0.000001 0.092491 0.000001 0.000000
# 5 0.000000 0.000000 0.000000 0.000001 0.031146 0.000000
# 6 0.000000 0.000000 0.000000 0.000000 0.000000 0.062052
#
#
# Mechanical properties :
#
#
# Convention : Reuss Voigt Hill
#
# Bulk Modulus (GPa) = 55.21777 60.98836 58.10307
# Shear Modulus (GPa) = 17.84079 21.02392 19.43235
#
# Velocity S-wave (km/s) = 3.25973 3.53860 3.40202
# Velocity P-wave (km/s) = 6.85967 7.28147 7.07372
#
# Compressibility (1/GPa) = 0.01811011
#
# Stress axis : x y z
#
# Youngs Moduli (GPa) = 49.31931 47.79878 82.48584
#
# Poissons Ratio (x) = 0.32388 0.39390
# Poissons Ratio (y) = 0.33418 0.49937
# Poissons Ratio (z) = 0.23552 0.28937
#
# Static dielectric constant tensor:
#      x y z
#    x 3.120670 0.000010 0.000030 
#    y 0.000010 3.536420 0.000010 
#    z 0.000030 0.000010 3.228380 
# 
# 
# High freq. dielectric constant tensor:
#      x y z
#    x 1.660690 0.000000 0.000000 
#    y 0.000000 1.635100 0.000000 
#    z 0.000000 0.000000 1.631060 
# 
# From -- ./inp_files/29376.got.cif
#   From: 2010.03.12/outbox.cif.g09.slc.cpg/sg74_15_cif.got.tgz:29376.got - 2010.04.16 15:46:19.
