data_PCOD8299440
_publ_section_title
;
Structure prediction by ZEFSAII (Michael W. Deem and Ramdas Pophale) SiO2 
 PCOD8299440
Probable space group: I M M A
;
_chemical_formula_sum "Si O2"
_cell_formula_units_Z 96
_cell_length_a 23.347442
_cell_length_b 8.846671
_cell_length_c 24.669001
_cell_angle_alpha 90.000000
_cell_angle_beta 90.000000
_cell_angle_gamma 90.000000
_cell_volume 5095.311555
_symmetry_space_group_name_H-M "I M M A"
_symmetry_group_IT_number 74
_symmetry_cell_setting 'orthorhombic'
loop_
_space_group_symop_operation_xyz
x,y,z
-x,1/2-y,z
x,-y,-z
-x,1/2+y,-z
-x,-y,-z
x,1/2+y,-z
-x,y,z
x,1/2-y,z
1/2+x,1/2+y,1/2+z
1/2-x,-y,1/2+z
1/2+x,1/2-y,1/2-z
1/2-x,y,1/2-z
1/2-x,1/2-y,1/2-z
1/2+x,y,1/2-z
1/2-x,1/2+y,1/2+z
1/2+x,-y,1/2+z
loop_
_atom_site_type_symbol
_atom_site_label
_atom_site_fract_x
_atom_site_fract_y
_atom_site_fract_z
Si Si1 0.063680 0.570733 0.233813
Si Si2 0.364352 0.927353 0.365531
Si Si3 0.643127 0.073072 0.055560
Si Si4 0.726903 0.571256 0.556981
Si Si5 0.933487 0.076391 0.644198
Si Si6 0.433450 0.917446 0.551531
O O1 0.058958 0.750000 0.231576
O O2 0.116559 0.518783 0.194990
O O3 0.078845 0.519136 0.294709
O O4 0.000000 0.506065 0.217678
O O5 0.351639 0.750000 0.367841
O O6 0.310350 0.014389 0.391513
O O7 0.420995 0.972529 0.398668
O O8 0.639721 0.250000 0.047511
O O9 0.707977 0.020044 0.068171
O O10 0.603290 0.026508 0.104881
O O11 0.620490 0.000000 0.000000
O O12 0.705544 0.500000 0.500000
O O13 0.721318 0.750000 0.552473
O O14 0.914685 0.250000 0.637207
O O15 0.000000 0.056521 0.629845
O O16 0.500000 0.897792 0.543462
O O17 0.405400 0.750000 0.558533
O O18 0.405349 0.000000 0.500000
#
# Coordination Sequence:
#
# PCOD8299440 Si02
#       6
#    16  16  16  16  16  16
#     4   8  16  32  53  77 105 138 176 216 258 305
#     4  11  20  31  51  75  99 133 177 220 261 307
#     4  10  21  37  58  82 108 139 172 210 257 309
#     4  10  21  37  54  74 103 138 177 220 265 312
#     4   9  18  35  59  84 110 139 170 208 254 305
#     4  10  20  32  45  64  93 128 167 215 269 318
#
# _framework density 18.840848999999999
#
# number of rings (size 3 to 8) (size 9 to 14) (size 15 to 20)
#    0.000    2.333    0.000    4.000    0.000    4.333 
#    0.000    2.500    0.000    7.000    0.000    0.000 
#    0.000    0.000    0.000    0.000    0.000    0.000 
#
# Total GULP energy -594833.602652 kJ/mol
# GULP energy per Si atom -12392.366722 kJ/mol
# Density = 1.879797 g / cm^3
# Si number density = 18.840849 Si / 1000 Ang^3
#
#
#
# Elastic Constant Matrix: (Units=GPa)
#
#
# Indices 1 2 3 4 5 6 
#
# 1 80.8863 28.2994 63.1533 0.0000 0.0000 0.0000
# 2 28.2994 61.7072 36.1566 0.0000 0.0000 0.0000
# 3 63.1533 36.1566 134.1817 0.0000 0.0000 0.0000
# 4 0.0000 0.0000 0.0000 28.4917 0.0000 0.0000
# 5 0.0000 0.0000 0.0000 0.0000 29.3567 0.0000
# 6 0.0000 0.0000 0.0000 0.0000 0.0000 28.0650
#
#
#
# Elastic Compliance Matrix: (Units=1/GPa)
#
#
# Indices 1 2 3 4 5 6 
#
# 1 0.020528 -0.004457 -0.008461 0.000000 0.000000 0.000000
# 2 -0.004457 0.020212 -0.003349 0.000000 0.000000 0.000000
# 3 -0.008461 -0.003349 0.012337 0.000000 0.000000 0.000000
# 4 0.000000 0.000000 0.000000 0.035098 0.000000 0.000000
# 5 0.000000 0.000000 0.000000 0.000000 0.034064 0.000000
# 6 0.000000 0.000000 0.000000 0.000000 0.000000 0.035632
#
#
# Mechanical properties :
#
#
# Convention : Reuss Voigt Hill
#
# Bulk Modulus (GPa) = 48.67520 59.11043 53.89281
# Shear Modulus (GPa) = 25.34846 27.12707 26.23776
#
# Velocity S-wave (km/s) = 3.67195 3.79859 3.73580
# Velocity P-wave (km/s) = 6.62334 7.11904 6.87566
#
# Compressibility (1/GPa) = 0.02054434
#
# Stress axis : x y z
#
# Youngs Moduli (GPa) = 48.71342 49.47658 81.05716
#
# Poissons Ratio (x) = 0.22051 0.68580
# Poissons Ratio (y) = 0.21711 0.27142
# Poissons Ratio (z) = 0.41215 0.16567
#
# Static dielectric constant tensor:
#      x y z
#    x 3.446460 0.000000 0.000000 
#    y 0.000000 3.430260 0.000000 
#    z 0.000000 0.000000 3.573140 
# 
# 
# High freq. dielectric constant tensor:
#      x y z
#    x 1.726530 0.000000 0.000000 
#    y 0.000000 1.724540 0.000000 
#    z 0.000000 0.000000 1.727500 
# 
# From -- ./inp_files/57300.got.cif
#   From: 2010.03.12/outbox.cif.g09.slc.cpg/sg74_29_cif.got.tgz:57300.got - 2010.04.16 15:46:19.
