data_PCOD8299750
_publ_section_title
;
Structure prediction by ZEFSAII (Michael W. Deem and Ramdas Pophale) SiO2 
 PCOD8299750
Probable space group: I M M A
;
_chemical_formula_sum "Si O2"
_cell_formula_units_Z 88
_cell_length_a 26.345104
_cell_length_b 8.828143
_cell_length_c 27.144166
_cell_angle_alpha 90.000000
_cell_angle_beta 90.000000
_cell_angle_gamma 90.000000
_cell_volume 6313.145217
_symmetry_space_group_name_H-M "I M M A"
_symmetry_group_IT_number 74
_symmetry_cell_setting 'orthorhombic'
loop_
_space_group_symop_operation_xyz
x,y,z
-x,1/2-y,z
x,-y,-z
-x,1/2+y,-z
-x,-y,-z
x,1/2+y,-z
-x,y,z
x,1/2-y,z
1/2+x,1/2+y,1/2+z
1/2-x,-y,1/2+z
1/2+x,1/2-y,1/2-z
1/2-x,y,1/2-z
1/2-x,1/2-y,1/2-z
1/2+x,y,1/2-z
1/2-x,1/2+y,1/2+z
1/2+x,-y,1/2+z
loop_
_atom_site_type_symbol
_atom_site_label
_atom_site_fract_x
_atom_site_fract_y
_atom_site_fract_z
Si Si1 0.000000 0.069502 0.446094
Si Si2 0.801499 0.570032 0.551493
Si Si3 0.149024 0.083262 0.696615
Si Si4 0.099736 0.068997 0.598557
Si Si5 0.302348 0.581231 0.720343
Si Si6 0.247481 0.918410 0.137004
O O1 0.000000 0.250000 0.449616
O O2 0.000000 0.000000 0.500000
O O3 0.048500 0.011685 0.416803
O O4 0.783607 0.500000 0.500000
O O5 0.807613 0.750000 0.548505
O O6 0.855083 0.494870 0.565194
O O7 0.757834 0.527790 0.590780
O O8 0.133842 0.250000 0.715281
O O9 0.108473 0.025710 0.656087
O O10 0.202901 0.089753 0.670170
O O11 0.152006 0.977093 0.744601
O O12 0.097114 0.250000 0.591180
O O13 0.316183 0.750000 0.704150
O O14 0.250000 0.576133 0.750000
O O15 0.298287 0.482736 0.670526
O O16 0.232946 0.750000 0.118469
#
# Coordination Sequence:
#
# PCOD8299750 Si02
#       6
#     8  16  16  16  16  16
#     4  12  24  36  48  60  74  94 122 158 199 238
#     4  11  20  30  42  56  74  96 124 156 191 227
#     4   8  15  26  40  55  72  93 114 141 179 222
#     4  10  20  34  47  59  74  93 120 154 194 235
#     4   9  15  22  35  55  76  95 115 141 174 213
#     4   9  16  26  38  53  73  96 121 147 178 215
#
# _framework density 13.939169
#
# number of rings (size 3 to 8) (size 9 to 14) (size 15 to 20)
#    0.000    2.364    0.000    5.727    0.000    7.273 
#    0.000    0.000    0.000    0.000    0.000    0.000 
#    0.000    0.000    0.000    0.000    0.000    0.000 
#
# Total GULP energy -545407.551773 kJ/mol
# GULP energy per Si atom -12395.626177 kJ/mol
# Density = 1.390744 g / cm^3
# Si number density = 13.939169 Si / 1000 Ang^3
#
#
#
# Elastic Constant Matrix: (Units=GPa)
#
#
# Indices 1 2 3 4 5 6 
#
# 1 37.0995 29.6831 43.5337 0.0000 0.0000 0.0000
# 2 29.6831 114.4195 48.8874 0.0000 0.0000 0.0000
# 3 43.5337 48.8874 87.7419 0.0000 0.0000 0.0000
# 4 0.0000 0.0000 0.0000 26.1276 0.0000 0.0000
# 5 0.0000 0.0000 0.0000 0.0000 23.1030 0.0000
# 6 0.0000 0.0000 0.0000 0.0000 0.0000 16.1507
#
#
#
# Elastic Compliance Matrix: (Units=1/GPa)
#
#
# Indices 1 2 3 4 5 6 
#
# 1 0.065954 -0.004106 -0.030436 0.000000 0.000000 0.000000
# 2 -0.004106 0.011726 -0.004496 0.000000 0.000000 0.000000
# 3 -0.030436 -0.004496 0.029003 0.000000 0.000000 0.000000
# 4 0.000000 0.000000 0.000000 0.038274 0.000000 0.000000
# 5 0.000000 0.000000 0.000000 0.000000 0.043284 0.000000
# 6 0.000000 0.000000 0.000000 0.000000 0.000000 0.061917
#
#
# Mechanical properties :
#
#
# Convention : Reuss Voigt Hill
#
# Bulk Modulus (GPa) = 34.95622 53.71882 44.33752
# Shear Modulus (GPa) = 14.80302 20.88672 17.84487
#
# Velocity S-wave (km/s) = 3.26233 3.87514 3.58186
# Velocity P-wave (km/s) = 6.27077 7.65794 6.99880
#
# Compressibility (1/GPa) = 0.02860721
#
# Stress axis : x y z
#
# Youngs Moduli (GPa) = 15.16217 85.28041 34.47910
#
# Poissons Ratio (x) = 0.35015 1.04939
# Poissons Ratio (y) = 0.06225 0.15503
# Poissons Ratio (z) = 0.46147 0.38344
#
# Static dielectric constant tensor:
#      x y z
#    x 2.406200 0.000000 0.000000 
#    y 0.000000 2.990940 0.000000 
#    z 0.000000 0.000000 2.828140 
# 
# 
# High freq. dielectric constant tensor:
#      x y z
#    x 1.465440 0.000000 0.000000 
#    y 0.000000 1.552970 0.000000 
#    z 0.000000 0.000000 1.526750 
# 
# From -- ./inp_files/49487.got.cif
#   From: 2010.03.12/outbox.cif.g09.slc.cpg/sg74_25_cif.got.tgz:49487.got - 2010.04.16 15:46:19.
