data_PCOD8299959
_publ_section_title
;
Structure prediction by ZEFSAII (Michael W. Deem and Ramdas Pophale) SiO2 
 PCOD8299959
Probable space group: I M M A
;
_chemical_formula_sum "Si O2"
_cell_formula_units_Z 72
_cell_length_a 9.077055
_cell_length_b 29.053608
_cell_length_c 13.963721
_cell_angle_alpha 90.000000
_cell_angle_beta 90.000000
_cell_angle_gamma 90.000000
_cell_volume 3682.529227
_symmetry_space_group_name_H-M "I M M A"
_symmetry_group_IT_number 74
_symmetry_cell_setting 'orthorhombic'
loop_
_space_group_symop_operation_xyz
x,y,z
-x,1/2-y,z
x,-y,-z
-x,1/2+y,-z
-x,-y,-z
x,1/2+y,-z
-x,y,z
x,1/2-y,z
1/2+x,1/2+y,1/2+z
1/2-x,-y,1/2+z
1/2+x,1/2-y,1/2-z
1/2-x,y,1/2-z
1/2-x,1/2-y,1/2-z
1/2+x,y,1/2-z
1/2-x,1/2+y,1/2+z
1/2+x,-y,1/2+z
loop_
_atom_site_type_symbol
_atom_site_label
_atom_site_fract_x
_atom_site_fract_y
_atom_site_fract_z
Si Si1 0.325823 0.838250 0.028572
Si Si2 0.672901 0.929463 0.458147
Si Si3 0.171943 0.020756 0.150885
Si Si4 0.672713 0.750000 0.149574
Si Si5 0.671420 0.303287 0.347507
O O1 0.500000 0.839217 0.013778
O O2 0.276439 0.795467 0.093522
O O3 0.268090 0.885516 0.075275
O O4 0.245426 0.834460 0.927371
O O5 0.500000 0.918109 0.452885
O O6 0.714606 0.969534 0.383559
O O7 0.717237 0.944035 0.566396
O O8 0.250000 0.033879 0.250000
O O9 0.000000 0.024087 0.169893
O O10 0.500000 0.750000 0.166307
O O11 0.750000 0.750000 0.250000
O O12 0.500000 0.315126 0.339400
O O13 0.698814 0.250000 0.372241
O O14 0.750000 0.317111 0.250000
#
# Coordination Sequence:
#
# PCOD8299959 Si02
#       5
#    16  16  16   8  16
#     4  11  22  38  58  83 116 151 190 241 286 333
#     4   9  20  38  57  82 114 150 187 227 281 345
#     4   9  19  37  60  83 113 147 183 230 283 339
#     4  10  24  42  59  80 111 150 195 240 284 330
#     4  10  20  34  55  81 109 146 187 229 279 335
#
# _framework density 19.551779
#
# number of rings (size 3 to 8) (size 9 to 14) (size 15 to 20)
#    0.000    2.222    1.111    2.667    0.000    6.222 
#    0.000    8.889    0.000    0.000    0.000    0.000 
#    0.000    0.000    0.000    0.000    0.000    0.000 
#
# Total GULP energy -446471.082526 kJ/mol
# GULP energy per Si atom -12401.974515 kJ/mol
# Density = 1.950728 g / cm^3
# Si number density = 19.551779 Si / 1000 Ang^3
#
#
#
# Elastic Constant Matrix: (Units=GPa)
#
#
# Indices 1 2 3 4 5 6 
#
# 1 66.4852 37.7707 32.4567 -0.0001 0.0000 0.0000
# 2 37.7707 111.7197 26.0417 0.0000 0.0000 -0.0001
# 3 32.4567 26.0417 82.8134 -0.0002 0.0002 -0.0001
# 4 -0.0001 0.0000 -0.0002 13.2524 0.0001 -0.0001
# 5 0.0000 0.0000 0.0002 0.0001 37.6901 0.0000
# 6 0.0000 -0.0001 -0.0001 -0.0001 0.0000 31.2366
#
#
#
# Elastic Compliance Matrix: (Units=1/GPa)
#
#
# Indices 1 2 3 4 5 6 
#
# 1 0.021540 -0.005735 -0.006639 0.000000 0.000000 0.000000
# 2 -0.005735 0.011186 -0.001270 0.000000 0.000000 0.000000
# 3 -0.006639 -0.001270 0.015077 0.000000 0.000000 0.000000
# 4 0.000000 0.000000 0.000000 0.075458 0.000000 0.000000
# 5 0.000000 0.000000 0.000000 0.000000 0.026532 0.000000
# 6 0.000000 0.000000 0.000000 0.000000 0.000000 0.032014
#
#
# Mechanical properties :
#
#
# Convention : Reuss Voigt Hill
#
# Bulk Modulus (GPa) = 48.74370 50.39518 49.56944
# Shear Modulus (GPa) = 23.15553 27.41909 25.28731
#
# Velocity S-wave (km/s) = 3.44513 3.74890 3.60022
# Velocity P-wave (km/s) = 6.38826 6.67609 6.53376
#
# Compressibility (1/GPa) = 0.02051547
#
# Stress axis : x y z
#
# Youngs Moduli (GPa) = 46.42575 89.39879 66.32834
#
# Poissons Ratio (x) = 0.51269 0.44033
# Poissons Ratio (y) = 0.26624 0.08423
# Poissons Ratio (z) = 0.30820 0.11353
#
# Static dielectric constant tensor:
#      x y z
#    x 3.376330 0.000000 0.000000 
#    y 0.000000 3.666920 0.000000 
#    z 0.000000 0.000000 3.468940 
# 
# 
# High freq. dielectric constant tensor:
#      x y z
#    x 1.758890 0.000000 0.000000 
#    y 0.000000 1.766520 0.000000 
#    z 0.000000 0.000000 1.757380 
# 
# From -- ./inp_files/29133.got.cif
#   From: 2010.03.12/outbox.cif.g09.slc.cpg/sg74_15_cif.got.tgz:29133.got - 2010.04.16 15:46:19.
