data_PCOD8299598
_publ_section_title
;
Structure prediction by ZEFSAII (Michael W. Deem and Ramdas Pophale) SiO2 
 PCOD8299598
Probable space group: I M M A
;
_chemical_formula_sum "Si O2"
_cell_formula_units_Z 80
_cell_length_a 9.391794
_cell_length_b 24.774690
_cell_length_c 20.597787
_cell_angle_alpha 90.000000
_cell_angle_beta 90.000000
_cell_angle_gamma 90.000000
_cell_volume 4792.668051
_symmetry_space_group_name_H-M "I M M A"
_symmetry_group_IT_number 74
_symmetry_cell_setting 'orthorhombic'
loop_
_space_group_symop_operation_xyz
x,y,z
-x,1/2-y,z
x,-y,-z
-x,1/2+y,-z
-x,-y,-z
x,1/2+y,-z
-x,y,z
x,1/2-y,z
1/2+x,1/2+y,1/2+z
1/2-x,-y,1/2+z
1/2+x,1/2-y,1/2-z
1/2-x,y,1/2-z
1/2-x,1/2-y,1/2-z
1/2+x,y,1/2-z
1/2-x,1/2+y,1/2+z
1/2+x,-y,1/2+z
loop_
_atom_site_type_symbol
_atom_site_label
_atom_site_fract_x
_atom_site_fract_y
_atom_site_fract_z
Si Si1 0.667457 0.532632 0.185954
Si Si2 0.331416 0.531433 0.938306
Si Si3 0.160902 0.750000 0.132991
Si Si4 0.664387 0.852122 0.979649
Si Si5 0.838957 0.750000 0.978411
Si Si6 0.663322 0.148179 0.868857
O O1 0.500000 0.524722 0.196731
O O2 0.750000 0.514565 0.250000
O O3 0.725690 0.494600 0.128158
O O4 0.704310 0.594500 0.169805
O O5 0.500000 0.524424 0.941323
O O6 0.288811 0.594329 0.940901
O O7 0.264412 0.500000 0.000000
O O8 0.239731 0.696531 0.158903
O O9 0.000000 0.750000 0.159351
O O10 0.166685 0.750000 0.055692
O O11 0.500000 0.837514 0.967265
O O12 0.759174 0.803160 0.952296
O O13 0.691872 0.862928 0.055474
O O14 0.000000 0.750000 0.952200
O O15 0.500000 0.164744 0.857742
#
# Coordination Sequence:
#
# PCOD8299598 Si02
#       6
#    16  16   8  16   8  16
#     4  10  20  33  49  70  97 127 157 194 240 285
#     4   9  15  28  51  75  94 118 160 205 236 269
#     4   9  17  27  42  64  91 122 155 195 238 276
#     4   9  15  26  48  72  91 117 158 200 231 267
#     4   9  17  27  39  64 103 130 145 179 239 294
#     4   9  16  28  46  66  89 120 159 197 231 272
#
# _framework density 16.692163999999998
#
# number of rings (size 3 to 8) (size 9 to 14) (size 15 to 20)
#    0.000    2.800    2.000    0.600    0.000    3.200 
#    0.000    1.500    0.000    1.200    0.000    0.700 
#    0.000    0.000    0.000    0.000    0.000    0.000 
#
# Total GULP energy -495965.693843 kJ/mol
# GULP energy per Si atom -12399.142346 kJ/mol
# Density = 1.665417 g / cm^3
# Si number density = 16.692164 Si / 1000 Ang^3
#
#
#
# Elastic Constant Matrix: (Units=GPa)
#
#
# Indices 1 2 3 4 5 6 
#
# 1 69.6202 55.4482 34.6366 0.0000 0.0000 0.0000
# 2 55.4482 118.1105 61.1394 0.0000 0.0000 0.0000
# 3 34.6366 61.1394 80.6363 0.0001 0.0000 0.0000
# 4 0.0000 0.0000 0.0001 16.8111 0.0000 0.0000
# 5 0.0000 0.0000 0.0000 0.0000 19.0252 0.0000
# 6 0.0000 0.0000 0.0000 0.0000 0.0000 14.5979
#
#
#
# Elastic Compliance Matrix: (Units=1/GPa)
#
#
# Indices 1 2 3 4 5 6 
#
# 1 0.023326 -0.009488 -0.002826 0.000000 0.000000 0.000000
# 2 -0.009488 0.017796 -0.009418 0.000000 0.000000 0.000000
# 3 -0.002826 -0.009418 0.020756 0.000000 0.000000 0.000000
# 4 0.000000 0.000000 0.000000 0.059484 0.000000 0.000000
# 5 0.000000 0.000000 0.000000 0.000000 0.052562 0.000000
# 6 0.000000 0.000000 0.000000 0.000000 0.000000 0.068503
#
#
# Mechanical properties :
#
#
# Convention : Reuss Voigt Hill
#
# Bulk Modulus (GPa) = 54.30296 63.42395 58.86345
# Shear Modulus (GPa) = 17.12170 17.89637 17.50904
#
# Velocity S-wave (km/s) = 3.20618 3.27791 3.24224
# Velocity P-wave (km/s) = 6.80505 7.23913 7.02544
#
# Compressibility (1/GPa) = 0.01841520
#
# Stress axis : x y z
#
# Youngs Moduli (GPa) = 42.87063 56.19286 48.17988
#
# Poissons Ratio (x) = 0.53316 0.13613
# Poissons Ratio (y) = 0.40676 0.45374
# Poissons Ratio (z) = 0.12113 0.52920
#
# Static dielectric constant tensor:
#      x y z
#    x 2.969970 0.000000 0.000000 
#    y 0.000000 3.276060 0.000000 
#    z 0.000000 0.000000 2.828690 
# 
# 
# High freq. dielectric constant tensor:
#      x y z
#    x 1.621790 0.000000 0.000000 
#    y 0.000000 1.651910 0.000000 
#    z 0.000000 0.000000 1.600960 
# 
# From -- ./inp_files/39785.got.cif
#   From: 2010.03.12/outbox.cif.g09.slc.cpg/sg74_20_cif.got.tgz:39785.got - 2010.04.16 15:46:19.
