data_PCOD8299202
_publ_section_title
;
Structure prediction by ZEFSAII (Michael W. Deem and Ramdas Pophale) SiO2 
 PCOD8299202
Probable space group: I M M A
;
_chemical_formula_sum "Si O2"
_cell_formula_units_Z 72
_cell_length_a 14.470435
_cell_length_b 8.928545
_cell_length_c 30.063479
_cell_angle_alpha 90.000000
_cell_angle_beta 90.000000
_cell_angle_gamma 90.000000
_cell_volume 3884.199384
_symmetry_space_group_name_H-M "I M M A"
_symmetry_group_IT_number 74
_symmetry_cell_setting 'orthorhombic'
loop_
_space_group_symop_operation_xyz
x,y,z
-x,1/2-y,z
x,-y,-z
-x,1/2+y,-z
-x,-y,-z
x,1/2+y,-z
-x,y,z
x,1/2-y,z
1/2+x,1/2+y,1/2+z
1/2-x,-y,1/2+z
1/2+x,1/2-y,1/2-z
1/2-x,y,1/2-z
1/2-x,1/2-y,1/2-z
1/2+x,y,1/2-z
1/2-x,1/2+y,1/2+z
1/2+x,-y,1/2+z
loop_
_atom_site_type_symbol
_atom_site_label
_atom_site_fract_x
_atom_site_fract_y
_atom_site_fract_z
Si Si1 0.000000 0.928187 0.338107
Si Si2 0.699621 0.425913 0.452437
Si Si3 0.500000 0.927201 0.262239
Si Si4 0.695749 0.077931 0.704212
Si Si5 0.315353 0.573415 0.869085
Si Si6 0.500000 0.075564 0.453221
O O1 0.000000 0.992808 0.287824
O O2 0.000000 0.750000 0.338663
O O3 0.089441 0.986574 0.363566
O O4 0.719415 0.500000 0.500000
O O5 0.704223 0.250000 0.460392
O O6 0.776295 0.476386 0.417071
O O7 0.598274 0.470989 0.430947
O O8 0.500000 0.750000 0.257420
O O9 0.590907 0.980192 0.288657
O O10 0.698285 0.250000 0.687717
O O11 0.750000 0.062751 0.750000
O O12 0.741677 0.971454 0.668218
O O13 0.332412 0.750000 0.866138
O O14 0.500000 0.250000 0.461311
O O15 0.500000 0.000000 0.500000
#
# Coordination Sequence:
#
# PCOD8299202 Si02
#       6
#     8  16   8  16  16   8
#     4  11  21  39  61  79 104 149 195 231 276 336
#     4   9  19  35  56  81 113 147 184 228 276 330
#     4   9  18  34  56  81 109 144 191 237 270 314
#     4  10  19  35  57  80 109 148 191 230 269 325
#     4  11  23  37  55  85 117 144 182 235 289 339
#     4   8  14  29  52  76 103 141 176 210 263 322
#
# _framework density 18.536638
#
# number of rings (size 3 to 8) (size 9 to 14) (size 15 to 20)
#    0.000    2.222    2.222    1.000    0.000    3.111 
#    0.000    2.222    0.000    4.000    0.000    0.000 
#    0.000    0.000    0.000    0.000    0.000    0.000 
#
# Total GULP energy -446169.478269 kJ/mol
# GULP energy per Si atom -12393.596619 kJ/mol
# Density = 1.849445 g / cm^3
# Si number density = 18.536638 Si / 1000 Ang^3
#
#
#
# Elastic Constant Matrix: (Units=GPa)
#
#
# Indices 1 2 3 4 5 6 
#
# 1 176.3774 41.3315 68.7637 0.0000 0.0000 0.0000
# 2 41.3315 48.3188 35.6672 0.0000 0.0000 0.0000
# 3 68.7637 35.6672 99.2958 0.0000 0.0000 0.0000
# 4 0.0000 0.0000 0.0000 28.8255 0.0000 0.0000
# 5 0.0000 0.0000 0.0000 0.0000 18.8103 0.0000
# 6 0.0000 0.0000 0.0000 0.0000 0.0000 30.3271
#
#
#
# Elastic Compliance Matrix: (Units=1/GPa)
#
#
# Indices 1 2 3 4 5 6 
#
# 1 0.008267 -0.003872 -0.004334 0.000000 0.000000 0.000000
# 2 -0.003872 0.029977 -0.008086 0.000000 0.000000 0.000000
# 3 -0.004334 -0.008086 0.015977 0.000000 0.000000 0.000000
# 4 0.000000 0.000000 0.000000 0.034691 0.000000 0.000000
# 5 0.000000 0.000000 0.000000 0.000000 0.053162 0.000000
# 6 0.000000 0.000000 0.000000 0.000000 0.000000 0.032974
#
#
# Mechanical properties :
#
#
# Convention : Reuss Voigt Hill
#
# Bulk Modulus (GPa) = 46.21953 68.39075 57.30514
# Shear Modulus (GPa) = 23.27261 27.47456 25.37359
#
# Velocity S-wave (km/s) = 3.54714 3.85408 3.70379
# Velocity P-wave (km/s) = 6.46255 7.53527 7.01943
#
# Compressibility (1/GPa) = 0.02163588
#
# Stress axis : x y z
#
# Youngs Moduli (GPa) = 120.96752 33.35887 62.59060
#
# Poissons Ratio (x) = 0.12917 0.27126
# Poissons Ratio (y) = 0.46840 0.50613
# Poissons Ratio (z) = 0.52426 0.26975
#
# Static dielectric constant tensor:
#      x y z
#    x 4.487820 0.000000 0.000000 
#    y 0.000000 3.340350 0.000000 
#    z 0.000000 0.000000 3.321170 
# 
# 
# High freq. dielectric constant tensor:
#      x y z
#    x 1.737960 0.000000 0.000000 
#    y 0.000000 1.707740 0.000000 
#    z 0.000000 0.000000 1.701800 
# 
# From -- ./inp_files/66783.got.cif
#   From: 2010.03.12/outbox.cif.g09.slc.cpg/sg74_34_cif.got.tgz:66783.got - 2010.04.16 15:46:19.
