data_PCOD8299979
_publ_section_title
;
Structure prediction by ZEFSAII (Michael W. Deem and Ramdas Pophale) SiO2 
 PCOD8299979
Probable space group: I M M A
;
_chemical_formula_sum "Si O2"
_cell_formula_units_Z 88
_cell_length_a 25.069635
_cell_length_b 25.110317
_cell_length_c 7.504144
_cell_angle_alpha 90.000000
_cell_angle_beta 90.000000
_cell_angle_gamma 90.000000
_cell_volume 4723.907289
_symmetry_space_group_name_H-M "I M M A"
_symmetry_group_IT_number 74
_symmetry_cell_setting 'orthorhombic'
loop_
_space_group_symop_operation_xyz
x,y,z
-x,1/2-y,z
x,-y,-z
-x,1/2+y,-z
-x,-y,-z
x,1/2+y,-z
-x,y,z
x,1/2-y,z
1/2+x,1/2+y,1/2+z
1/2-x,-y,1/2+z
1/2+x,1/2-y,1/2-z
1/2-x,y,1/2-z
1/2-x,1/2-y,1/2-z
1/2+x,y,1/2-z
1/2-x,1/2+y,1/2+z
1/2+x,-y,1/2+z
loop_
_atom_site_type_symbol
_atom_site_label
_atom_site_fract_x
_atom_site_fract_y
_atom_site_fract_z
Si Si1 0.750000 0.389808 0.750000
Si Si2 0.649957 0.941882 0.419227
Si Si3 0.762244 0.190832 0.050645
Si Si4 0.439500 0.189335 0.070170
Si Si5 0.061456 0.878074 0.224321
Si Si6 0.623655 0.159616 0.415463
O O1 0.701092 0.428482 0.702376
O O2 0.764770 0.351014 0.584767
O O3 0.597276 0.931924 0.295311
O O4 0.645913 0.901477 0.587853
O O5 0.652983 0.000000 0.500000
O O6 0.738206 0.250000 0.016364
O O7 0.750000 0.170989 0.250000
O O8 0.826222 0.195503 0.026767
O O9 0.500000 0.179841 0.136426
O O10 0.431910 0.250000 0.006020
O O11 0.398679 0.177147 0.227037
O O12 0.425768 0.149942 0.910241
O O13 0.000000 0.894331 0.206268
O O14 0.077689 0.836371 0.067299
#
# Coordination Sequence:
#
# PCOD8299979 Si02
#       6
#     8  16  16  16  16  16
#     4  10  21  42  60  82 120 150 193 250 294 360
#     4   9  21  42  61  86 110 154 202 249 309 348
#     4  10  21  35  57  89 121 155 193 235 296 363
#     4  10  20  34  55  86 120 157 195 234 291 356
#     4   9  20  38  59  84 120 155 199 248 290 357
#     4   9  20  36  58  82 120 151 198 241 292 353
#
# _framework density 18.628646
#
# number of rings (size 3 to 8) (size 9 to 14) (size 15 to 20)
#    1.091    1.455    0.000    1.364    2.545    1.818 
#    6.545    2.727    0.000    2.182    0.000    0.000 
#    0.000    0.000    0.000    0.000    0.000    0.000 
#
# Total GULP energy -545157.681793 kJ/mol
# GULP energy per Si atom -12389.947313 kJ/mol
# Density = 1.858625 g / cm^3
# Si number density = 18.628646 Si / 1000 Ang^3
#
#
#
# Elastic Constant Matrix: (Units=GPa)
#
#
# Indices 1 2 3 4 5 6 
#
# 1 105.0063 39.2634 38.5649 0.0000 0.0000 0.0000
# 2 39.2634 102.5990 41.4280 0.0000 0.0000 0.0000
# 3 38.5649 41.4280 89.1706 0.0000 0.0000 0.0000
# 4 0.0000 0.0000 0.0000 21.2167 0.0000 0.0000
# 5 0.0000 0.0000 0.0000 0.0000 32.6677 0.0000
# 6 0.0000 0.0000 0.0000 0.0000 0.0000 23.6309
#
#
#
# Elastic Compliance Matrix: (Units=1/GPa)
#
#
# Indices 1 2 3 4 5 6 
#
# 1 0.012068 -0.003091 -0.003783 0.000000 0.000000 0.000000
# 2 -0.003091 0.012789 -0.004605 0.000000 0.000000 0.000000
# 3 -0.003783 -0.004605 0.014990 0.000000 0.000000 0.000000
# 4 0.000000 0.000000 0.000000 0.047133 0.000000 0.000000
# 5 0.000000 0.000000 0.000000 0.000000 0.030611 0.000000
# 6 0.000000 0.000000 0.000000 0.000000 0.000000 0.042317
#
#
# Mechanical properties :
#
#
# Convention : Reuss Voigt Hill
#
# Bulk Modulus (GPa) = 59.20940 59.47649 59.34294
# Shear Modulus (GPa) = 26.52562 27.33769 26.93165
#
# Velocity S-wave (km/s) = 3.77757 3.83496 3.80638
# Velocity P-wave (km/s) = 7.13301 7.18373 7.15842
#
# Compressibility (1/GPa) = 0.01688921
#
# Stress axis : x y z
#
# Youngs Moduli (GPa) = 82.86071 78.19296 66.71035
#
# Poissons Ratio (x) = 0.24167 0.25240
# Poissons Ratio (y) = 0.25610 0.30720
# Poissons Ratio (z) = 0.31350 0.36007
#
# Static dielectric constant tensor:
#      x y z
#    x 3.540130 0.000000 0.000000 
#    y 0.000000 3.154300 0.000000 
#    z 0.000000 0.000000 3.320240 
# 
# 
# High freq. dielectric constant tensor:
#      x y z
#    x 1.731460 0.000000 0.000000 
#    y 0.000000 1.700420 0.000000 
#    z 0.000000 0.000000 1.716560 
# 
# From -- ./inp_files/5228.got.cif
#   From: 2010.03.12/outbox.cif.g09.slc.cpg/sg74_3_cif.got.tgz:5228.got - 2010.04.16 15:46:19.
