data_PCOD8299199
_publ_section_title
;
Structure prediction by ZEFSAII (Michael W. Deem and Ramdas Pophale) SiO2 
 PCOD8299199
Probable space group: I M M A
;
_chemical_formula_sum "Si O2"
_cell_formula_units_Z 72
_cell_length_a 16.767914
_cell_length_b 7.617174
_cell_length_c 30.194603
_cell_angle_alpha 90.000000
_cell_angle_beta 90.000000
_cell_angle_gamma 90.000000
_cell_volume 3856.579053
_symmetry_space_group_name_H-M "I M M A"
_symmetry_group_IT_number 74
_symmetry_cell_setting 'orthorhombic'
loop_
_space_group_symop_operation_xyz
x,y,z
-x,1/2-y,z
x,-y,-z
-x,1/2+y,-z
-x,-y,-z
x,1/2+y,-z
-x,y,z
x,1/2-y,z
1/2+x,1/2+y,1/2+z
1/2-x,-y,1/2+z
1/2+x,1/2-y,1/2-z
1/2-x,y,1/2-z
1/2-x,1/2-y,1/2-z
1/2+x,y,1/2-z
1/2-x,1/2+y,1/2+z
1/2+x,-y,1/2+z
loop_
_atom_site_type_symbol
_atom_site_label
_atom_site_fract_x
_atom_site_fract_y
_atom_site_fract_z
Si Si1 0.592737 0.250000 0.745577
Si Si2 0.904864 0.750000 0.346901
Si Si3 0.000000 0.455414 0.050865
Si Si4 0.310539 0.445392 0.289869
Si Si5 0.207686 0.544807 0.624203
Si Si6 0.328089 0.956094 0.550859
O O1 0.500000 0.250000 0.748240
O O2 0.624978 0.250000 0.795960
O O3 0.618169 0.420762 0.718205
O O4 0.871016 0.574287 0.370435
O O5 0.000000 0.750000 0.352002
O O6 0.914665 0.534109 0.068036
O O7 0.000000 0.250000 0.059900
O O8 0.000000 0.500000 0.000000
O O9 0.347199 0.250000 0.291176
O O10 0.250000 0.466743 0.250000
O O11 0.266335 0.489214 0.335110
O O12 0.182083 0.750000 0.621166
O O13 0.255370 0.475584 0.580917
O O14 0.333374 0.750000 0.556885
O O15 0.309659 0.000000 0.500000
#
# Coordination Sequence:
#
# PCOD8299199 Si02
#       6
#     8   8   8  16  16  16
#     4  11  22  36  54  80 116 146 182 229 277 329
#     4  11  23  37  59  84 109 143 181 241 292 333
#     4   8  14  28  48  72 108 138 172 212 258 308
#     4  10  19  35  57  78 107 145 181 223 273 328
#     4  10  21  37  58  83 109 145 190 227 276 335
#     4   9  18  32  53  80 108 145 181 223 268 320
#
# _framework density 18.669395000000002
#
# number of rings (size 3 to 8) (size 9 to 14) (size 15 to 20)
#    0.000    2.222    2.222    1.000    1.556    0.889 
#    2.000    2.222    0.000    0.667    0.000    0.000 
#    0.000    0.000    0.000    0.000    0.000    0.000 
#
# Total GULP energy -446046.065035 kJ/mol
# GULP energy per Si atom -12390.168473 kJ/mol
# Density = 1.862690 g / cm^3
# Si number density = 18.669395 Si / 1000 Ang^3
#
#
#
# Elastic Constant Matrix: (Units=GPa)
#
#
# Indices 1 2 3 4 5 6 
#
# 1 89.9641 54.4441 46.6081 0.0000 0.0000 0.0000
# 2 54.4441 91.1565 27.4143 0.0000 0.0000 0.0000
# 3 46.6081 27.4143 94.8469 0.0000 0.0000 0.0000
# 4 0.0000 0.0000 0.0000 30.0945 0.0000 0.0000
# 5 0.0000 0.0000 0.0000 0.0000 41.4345 0.0000
# 6 0.0000 0.0000 0.0000 0.0000 0.0000 21.1393
#
#
#
# Elastic Compliance Matrix: (Units=1/GPa)
#
#
# Indices 1 2 3 4 5 6 
#
# 1 0.021326 -0.010498 -0.007445 0.000000 0.000000 0.000000
# 2 -0.010498 0.017182 0.000192 0.000000 0.000000 0.000000
# 3 -0.007445 0.000192 0.014146 0.000000 0.000000 0.000000
# 4 0.000000 0.000000 0.000000 0.033229 0.000000 0.000000
# 5 0.000000 0.000000 0.000000 0.000000 0.024134 0.000000
# 6 0.000000 0.000000 0.000000 0.000000 0.000000 0.047305
#
#
# Mechanical properties :
#
#
# Convention : Reuss Voigt Hill
#
# Bulk Modulus (GPa) = 58.29957 59.21115 58.75536
# Shear Modulus (GPa) = 25.18355 28.36706 26.77531
#
# Velocity S-wave (km/s) = 3.67675 3.90223 3.79117
# Velocity P-wave (km/s) = 7.02281 7.21718 7.12066
#
# Compressibility (1/GPa) = 0.01715278
#
# Stress axis : x y z
#
# Youngs Moduli (GPa) = 46.89134 58.19936 70.68970
#
# Poissons Ratio (x) = 0.61098 0.52631
# Poissons Ratio (y) = 0.49227 -0.01360
# Poissons Ratio (z) = 0.34912 -0.01120
#
# Static dielectric constant tensor:
#      x y z
#    x 3.518530 0.000000 0.000000 
#    y 0.000000 3.604150 0.000000 
#    z 0.000000 0.000000 3.238380 
# 
# 
# High freq. dielectric constant tensor:
#      x y z
#    x 1.709000 0.000000 0.000000 
#    y 0.000000 1.730630 0.000000 
#    z 0.000000 0.000000 1.712750 
# 
# From -- ./inp_files/66811.got.cif
#   From: 2010.03.12/outbox.cif.g09.slc.cpg/sg74_34_cif.got.tgz:66811.got - 2010.04.16 15:46:19.
