data_PCOD8299104
_publ_section_title
;
Structure prediction by ZEFSAII (Michael W. Deem and Ramdas Pophale) SiO2 
 PCOD8299104
Probable space group: I M M A
;
_chemical_formula_sum "Si O2"
_cell_formula_units_Z 104
_cell_length_a 30.874562
_cell_length_b 8.909346
_cell_length_c 19.478465
_cell_angle_alpha 90.000000
_cell_angle_beta 90.000000
_cell_angle_gamma 90.000000
_cell_volume 5357.983353
_symmetry_space_group_name_H-M "I M M A"
_symmetry_group_IT_number 74
_symmetry_cell_setting 'orthorhombic'
loop_
_space_group_symop_operation_xyz
x,y,z
-x,1/2-y,z
x,-y,-z
-x,1/2+y,-z
-x,-y,-z
x,1/2+y,-z
-x,y,z
x,1/2-y,z
1/2+x,1/2+y,1/2+z
1/2-x,-y,1/2+z
1/2+x,1/2-y,1/2-z
1/2-x,y,1/2-z
1/2-x,1/2-y,1/2-z
1/2+x,y,1/2-z
1/2-x,1/2+y,1/2+z
1/2+x,-y,1/2+z
loop_
_atom_site_type_symbol
_atom_site_label
_atom_site_fract_x
_atom_site_fract_y
_atom_site_fract_z
Si Si1 0.793095 0.071252 0.785554
Si Si2 0.178252 0.075628 0.930936
Si Si3 0.622584 0.071672 0.795163
Si Si4 0.450743 0.576659 0.706338
Si Si5 0.094124 0.926469 0.574542
Si Si6 0.422636 0.573475 0.429513
Si Si7 0.000000 0.920894 0.570939
O O1 0.792421 0.250000 0.784693
O O2 0.750000 0.004948 0.750000
O O3 0.795768 0.014487 0.864452
O O4 0.834988 0.013951 0.744554
O O5 0.185993 0.250000 0.940592
O O6 0.127986 0.039014 0.918716
O O7 0.196339 0.000000 0.000000
O O8 0.620306 0.250000 0.798416
O O9 0.580102 0.012329 0.757469
O O10 0.626433 0.004929 0.871994
O O11 0.500000 0.563513 0.733723
O O12 0.436225 0.750000 0.703166
O O13 0.448872 0.504377 0.631140
O O14 0.104036 0.750000 0.569027
O O15 0.045781 0.958074 0.607517
O O16 0.099992 0.000000 0.500000
O O17 0.439145 0.500000 0.500000
O O18 0.432335 0.750000 0.430166
O O19 0.000000 0.750000 0.550231
O O20 0.000000 0.000000 0.500000
#
# Coordination Sequence:
#
# PCOD8299104 Si02
#       7
#    16  16  16  16  16  16   8
#     4   9  18  36  61  86 114 148 187 231 285 347
#     4   9  17  32  55  84 112 144 186 229 276 333
#     4  11  22  38  59  85 114 149 190 235 289 344
#     4  11  24  39  55  79 114 156 197 237 285 337
#     4  10  20  36  56  81 112 150 192 234 283 337
#     4  10  19  34  56  83 113 149 193 238 284 336
#     4   8  16  30  50  74 104 138 181 226 267 320
#
# _framework density 19.410287
#
# number of rings (size 3 to 8) (size 9 to 14) (size 15 to 20)
#    0.000    2.154    1.538    1.846    1.077    2.769 
#    0.000    0.769    0.000    6.000    0.000    0.000 
#    0.000    0.000    0.000    0.000    0.000    0.000 
#
# Total GULP energy -644608.552001 kJ/mol
# GULP energy per Si atom -12396.318308 kJ/mol
# Density = 1.936611 g / cm^3
# Si number density = 19.410287 Si / 1000 Ang^3
#
#
#
# Elastic Constant Matrix: (Units=GPa)
#
#
# Indices 1 2 3 4 5 6 
#
# 1 88.7915 34.3915 64.8599 0.0000 0.0000 0.0000
# 2 34.3915 76.9578 46.3022 0.0000 0.0000 0.0000
# 3 64.8599 46.3022 145.8228 0.0000 0.0000 0.0000
# 4 0.0000 0.0000 0.0000 37.9880 0.0000 0.0000
# 5 0.0000 0.0000 0.0000 0.0000 28.9451 0.0000
# 6 0.0000 0.0000 0.0000 0.0000 0.0000 14.6042
#
#
#
# Elastic Compliance Matrix: (Units=1/GPa)
#
#
# Indices 1 2 3 4 5 6 
#
# 1 0.017579 -0.003896 -0.006582 0.000000 0.000000 0.000000
# 2 -0.003896 0.016926 -0.003642 0.000000 0.000000 0.000000
# 3 -0.006582 -0.003642 0.010942 0.000000 0.000000 0.000000
# 4 0.000000 0.000000 0.000000 0.026324 0.000000 0.000000
# 5 0.000000 0.000000 0.000000 0.000000 0.034548 0.000000
# 6 0.000000 0.000000 0.000000 0.000000 0.000000 0.068474
#
#
# Mechanical properties :
#
#
# Convention : Reuss Voigt Hill
#
# Bulk Modulus (GPa) = 58.11254 66.96437 62.53846
# Shear Modulus (GPa) = 23.95006 27.37535 25.66271
#
# Velocity S-wave (km/s) = 3.51648 3.75954 3.64004
# Velocity P-wave (km/s) = 6.81847 7.30889 7.06793
#
# Compressibility (1/GPa) = 0.01720799
#
# Stress axis : x y z
#
# Youngs Moduli (GPa) = 56.88511 59.08016 91.39499
#
# Poissons Ratio (x) = 0.23017 0.60156
# Poissons Ratio (y) = 0.22162 0.33283
# Poissons Ratio (z) = 0.37442 0.21515
#
# Static dielectric constant tensor:
#      x y z
#    x 3.555920 0.000000 0.000000 
#    y 0.000000 3.417240 0.000000 
#    z 0.000000 0.000000 3.768880 
# 
# 
# High freq. dielectric constant tensor:
#      x y z
#    x 1.733270 0.000000 0.000000 
#    y 0.000000 1.747390 0.000000 
#    z 0.000000 0.000000 1.767870 
# 
# From -- ./inp_files/55217.got.cif
#   From: 2010.03.12/outbox.cif.g09.slc.cpg/sg74_28_cif.got.tgz:55217.got - 2010.04.16 15:46:19.
