data_PCOD8299929
_publ_section_title
;
Structure prediction by ZEFSAII (Michael W. Deem and Ramdas Pophale) SiO2 
 PCOD8299929
Probable space group: I M M A
;
_chemical_formula_sum "Si O2"
_cell_formula_units_Z 64
_cell_length_a 9.050260
_cell_length_b 15.071903
_cell_length_c 19.875546
_cell_angle_alpha 90.000000
_cell_angle_beta 90.000000
_cell_angle_gamma 90.000000
_cell_volume 2711.116714
_symmetry_space_group_name_H-M "I M M A"
_symmetry_group_IT_number 74
_symmetry_cell_setting 'orthorhombic'
loop_
_space_group_symop_operation_xyz
x,y,z
-x,1/2-y,z
x,-y,-z
-x,1/2+y,-z
-x,-y,-z
x,1/2+y,-z
-x,y,z
x,1/2-y,z
1/2+x,1/2+y,1/2+z
1/2-x,-y,1/2+z
1/2+x,1/2-y,1/2-z
1/2-x,y,1/2-z
1/2-x,1/2-y,1/2-z
1/2+x,y,1/2-z
1/2-x,1/2+y,1/2+z
1/2+x,-y,1/2+z
loop_
_atom_site_type_symbol
_atom_site_label
_atom_site_fract_x
_atom_site_fract_y
_atom_site_fract_z
Si Si1 0.161125 0.348657 0.938806
Si Si2 0.335760 0.856105 0.185139
Si Si3 0.825908 0.081276 0.449303
Si Si4 0.325847 0.353343 0.320409
O O1 0.133798 0.250000 0.911718
O O2 0.256898 0.397682 0.880787
O O3 0.000000 0.394928 0.948301
O O4 0.252668 0.339247 0.008091
O O5 0.500000 0.896216 0.186234
O O6 0.342462 0.750000 0.183851
O O7 0.250000 0.891559 0.250000
O O8 0.748097 0.082674 0.376598
O O9 0.000000 0.092782 0.440158
O O10 0.783562 0.000000 0.500000
O O11 0.500000 0.372496 0.316314
O O12 0.294774 0.250000 0.337645
O O13 0.250000 0.378577 0.250000
#
# Coordination Sequence:
#
# PCOD8299929 Si02
#       4
#    16  16  16  16
#     4  10  20  34  54  80 108 142 188 239 291 351
#     4   9  16  27  45  70 101 136 174 219 269 319
#     4  11  24  40  58  84 120 159 198 243 300 366
#     4  10  21  39  66  98 128 161 205 258 315 373
#
# _framework density 23.606508999999999
#
# number of rings (size 3 to 8) (size 9 to 14) (size 15 to 20)
#    0.000    2.000    0.000    3.750    0.000   11.000 
#    0.000    1.250    0.000    6.000    0.000    0.000 
#    0.000    0.000    0.000    0.000    0.000    0.000 
#
# Total GULP energy -396585.990091 kJ/mol
# GULP energy per Si atom -12393.312190 kJ/mol
# Density = 2.355278 g / cm^3
# Si number density = 23.606509 Si / 1000 Ang^3
#
#
#
# Elastic Constant Matrix: (Units=GPa)
#
#
# Indices 1 2 3 4 5 6 
#
# 1 228.7755 32.2202 114.9477 0.0000 0.0000 0.0000
# 2 32.2202 39.5783 26.4773 0.0000 0.0000 0.0000
# 3 114.9477 26.4773 223.8378 0.0000 0.0000 0.0000
# 4 0.0000 0.0000 0.0000 19.1371 0.0000 0.0000
# 5 0.0000 0.0000 0.0000 0.0000 52.8805 0.0000
# 6 0.0000 0.0000 0.0000 0.0000 0.0000 15.7149
#
#
#
# Elastic Compliance Matrix: (Units=1/GPa)
#
#
# Indices 1 2 3 4 5 6 
#
# 1 0.006241 -0.003189 -0.002828 0.000000 0.000000 0.000000
# 2 -0.003189 0.029067 -0.001801 0.000000 0.000000 0.000000
# 3 -0.002828 -0.001801 0.006133 0.000000 0.000000 0.000000
# 4 0.000000 0.000000 0.000000 0.052255 0.000000 0.000000
# 5 0.000000 0.000000 0.000000 0.000000 0.018911 0.000000
# 6 0.000000 0.000000 0.000000 0.000000 0.000000 0.063634
#
#
# Mechanical properties :
#
#
# Convention : Reuss Voigt Hill
#
# Bulk Modulus (GPa) = 38.75070 93.27578 66.01324
# Shear Modulus (GPa) = 24.94060 38.78294 31.86177
#
# Velocity S-wave (km/s) = 3.25393 4.05766 3.67782
# Velocity P-wave (km/s) = 5.52886 7.84546 6.78674
#
# Compressibility (1/GPa) = 0.02580598
#
# Stress axis : x y z
#
# Youngs Moduli (GPa) = 160.23022 34.40319 163.06187
#
# Poissons Ratio (x) = 0.10971 0.46110
# Poissons Ratio (y) = 0.51098 0.29361
# Poissons Ratio (z) = 0.45309 0.06195
#
# Static dielectric constant tensor:
#      x y z
#    x 4.486650 0.000000 0.000000 
#    y 0.000000 3.851640 0.000000 
#    z 0.000000 0.000000 4.316680 
# 
# 
# High freq. dielectric constant tensor:
#      x y z
#    x 1.950180 0.000000 0.000000 
#    y 0.000000 1.903840 0.000000 
#    z 0.000000 0.000000 1.946330 
# 
# From -- ./inp_files/48008.got.cif
#   From: 2010.03.12/outbox.cif.g09.slc.cpg/sg74_25_cif.got.tgz:48008.got - 2010.04.16 15:46:19.
