data_PCOD8299968
_publ_section_title
;
Structure prediction by ZEFSAII (Michael W. Deem and Ramdas Pophale) SiO2 
 PCOD8299968
Probable space group: I M M A
;
_chemical_formula_sum "Si O2"
_cell_formula_units_Z 72
_cell_length_a 20.888442
_cell_length_b 9.082455
_cell_length_c 19.422724
_cell_angle_alpha 90.000000
_cell_angle_beta 90.000000
_cell_angle_gamma 90.000000
_cell_volume 3684.846848
_symmetry_space_group_name_H-M "I M M A"
_symmetry_group_IT_number 74
_symmetry_cell_setting 'orthorhombic'
loop_
_space_group_symop_operation_xyz
x,y,z
-x,1/2-y,z
x,-y,-z
-x,1/2+y,-z
-x,-y,-z
x,1/2+y,-z
-x,y,z
x,1/2-y,z
1/2+x,1/2+y,1/2+z
1/2-x,-y,1/2+z
1/2+x,1/2-y,1/2-z
1/2-x,y,1/2-z
1/2-x,1/2-y,1/2-z
1/2+x,y,1/2-z
1/2-x,1/2+y,1/2+z
1/2+x,-y,1/2+z
loop_
_atom_site_type_symbol
_atom_site_label
_atom_site_fract_x
_atom_site_fract_y
_atom_site_fract_z
Si Si1 0.381524 0.576316 0.329696
Si Si2 0.617487 0.923977 0.816358
Si Si3 0.427813 0.589886 0.061365
Si Si4 0.500000 0.077292 0.573728
Si Si5 0.242929 0.586859 0.831722
O O1 0.381004 0.750000 0.316753
O O2 0.393827 0.494141 0.258189
O O3 0.436733 0.530777 0.383533
O O4 0.311827 0.525132 0.358265
O O5 0.607162 0.750000 0.808758
O O6 0.685783 0.961480 0.853737
O O7 0.567970 0.997329 0.868134
O O8 0.500000 0.618382 0.037653
O O9 0.394200 0.750000 0.071744
O O10 0.392283 0.500000 0.000000
O O11 0.500000 0.250000 0.560133
O O12 0.500000 0.000000 0.500000
O O13 0.225004 0.750000 0.859139
O O14 0.250000 0.591134 0.750000
#
# Coordination Sequence:
#
# PCOD8299968 Si02
#       5
#    16  16  16   8  16
#     4  10  20  35  56  82 110 140 179 227 278 327
#     4  10  20  34  55  83 112 143 183 225 267 323
#     4  10  21  36  53  75 108 146 181 221 266 314
#     4  10  24  42  58  80 111 144 183 232 280 334
#     4   8  16  32  52  78 110 140 175 223 272 321
#
# _framework density 19.539480999999999
#
# number of rings (size 3 to 8) (size 9 to 14) (size 15 to 20)
#    0.000    2.444    0.000    3.333    1.556    8.000 
#    0.000    1.111    0.000    2.667    0.000    0.000 
#    0.000    0.000    0.000    0.000    0.000    0.000 
#
# Total GULP energy -446077.498955 kJ/mol
# GULP energy per Si atom -12391.041638 kJ/mol
# Density = 1.949501 g / cm^3
# Si number density = 19.539481 Si / 1000 Ang^3
#
#
#
# Elastic Constant Matrix: (Units=GPa)
#
#
# Indices 1 2 3 4 5 6 
#
# 1 85.1840 48.0045 38.6257 0.0000 0.0000 0.0000
# 2 48.0045 135.6829 68.5104 0.0000 0.0000 0.0000
# 3 38.6257 68.5104 107.8156 0.0000 0.0000 0.0000
# 4 0.0000 0.0000 0.0000 31.3239 0.0000 0.0000
# 5 0.0000 0.0000 0.0000 0.0000 10.6775 0.0000
# 6 0.0000 0.0000 0.0000 0.0000 0.0000 28.6627
#
#
#
# Elastic Compliance Matrix: (Units=1/GPa)
#
#
# Indices 1 2 3 4 5 6 
#
# 1 0.015297 -0.003894 -0.003005 0.000000 0.000000 0.000000
# 2 -0.003894 0.011844 -0.006131 0.000000 0.000000 0.000000
# 3 -0.003005 -0.006131 0.014247 0.000000 0.000000 0.000000
# 4 0.000000 0.000000 0.000000 0.031924 0.000000 0.000000
# 5 0.000000 0.000000 0.000000 0.000000 0.093655 0.000000
# 6 0.000000 0.000000 0.000000 0.000000 0.000000 0.034889
#
#
# Mechanical properties :
#
#
# Convention : Reuss Voigt Hill
#
# Bulk Modulus (GPa) = 65.24585 70.99595 68.12090
# Shear Modulus (GPa) = 21.45689 25.70229 23.57959
#
# Velocity S-wave (km/s) = 3.31740 3.63078 3.47762
# Velocity P-wave (km/s) = 6.93814 7.34781 7.14591
#
# Compressibility (1/GPa) = 0.01532665
#
# Stress axis : x y z
#
# Youngs Moduli (GPa) = 65.37341 84.43442 70.18782
#
# Poissons Ratio (x) = 0.32882 0.21095
# Poissons Ratio (y) = 0.25459 0.43030
# Poissons Ratio (z) = 0.19648 0.51764
#
# Static dielectric constant tensor:
#      x y z
#    x 4.192820 0.000000 0.000000 
#    y 0.000000 3.793750 0.000000 
#    z 0.000000 0.000000 3.226580 
# 
# 
# High freq. dielectric constant tensor:
#      x y z
#    x 1.755750 0.000000 0.000000 
#    y 0.000000 1.773670 0.000000 
#    z 0.000000 0.000000 1.732970 
# 
# From -- ./inp_files/45828.got.cif
#   From: 2010.03.12/outbox.cif.g09.slc.cpg/sg74_23_cif.got.tgz:45828.got - 2010.04.16 15:46:19.
