data_PCOD8299991
_publ_section_title
;
Structure prediction by ZEFSAII (Michael W. Deem and Ramdas Pophale) SiO2 
 PCOD8299991
Probable space group: I M M A
;
_chemical_formula_sum "Si O2"
_cell_formula_units_Z 80
_cell_length_a 25.190150
_cell_length_b 16.963355
_cell_length_c 9.873588
_cell_angle_alpha 90.000000
_cell_angle_beta 90.000000
_cell_angle_gamma 90.000000
_cell_volume 4219.077526
_symmetry_space_group_name_H-M "I M M A"
_symmetry_group_IT_number 74
_symmetry_cell_setting 'orthorhombic'
loop_
_space_group_symop_operation_xyz
x,y,z
-x,1/2-y,z
x,-y,-z
-x,1/2+y,-z
-x,-y,-z
x,1/2+y,-z
-x,y,z
x,1/2-y,z
1/2+x,1/2+y,1/2+z
1/2-x,-y,1/2+z
1/2+x,1/2-y,1/2-z
1/2-x,y,1/2-z
1/2-x,1/2-y,1/2-z
1/2+x,y,1/2-z
1/2-x,1/2+y,1/2+z
1/2+x,-y,1/2+z
loop_
_atom_site_type_symbol
_atom_site_label
_atom_site_fract_x
_atom_site_fract_y
_atom_site_fract_z
Si Si1 0.859687 0.156855 0.163296
Si Si2 0.941805 0.341992 0.643901
Si Si3 0.440689 0.343087 0.558077
Si Si4 0.758884 0.568045 0.901544
Si Si5 0.640954 0.412956 0.049994
O O1 0.865062 0.250000 0.193906
O O2 0.800273 0.139841 0.109421
O O3 0.874110 0.105410 0.295237
O O4 0.899761 0.123078 0.051073
O O5 0.948082 0.250000 0.663255
O O6 0.928258 0.377948 0.792329
O O7 0.893704 0.355794 0.542161
O O8 0.000000 0.374718 0.594234
O O9 0.500000 0.367117 0.513396
O O10 0.433783 0.250000 0.558999
O O11 0.750000 0.532676 0.750000
O O12 0.704155 0.601569 0.966187
O O13 0.781343 0.500000 0.000000
O O14 0.625572 0.500000 0.000000
#
# Coordination Sequence:
#
# PCOD8299991 Si02
#       5
#    16  16  16  16  16
#     4  10  20  34  56  82 105 136 179 223 263 308
#     4   9  18  34  55  76 102 138 176 217 265 313
#     4   8  16  32  52  75 102 130 165 211 260 307
#     4   9  20  36  53  74 105 142 174 213 267 317
#     4  10  21  35  51  75 106 140 174 212 265 320
#
# _framework density 18.961490000000001
#
# number of rings (size 3 to 8) (size 9 to 14) (size 15 to 20)
#    0.000    2.800    0.000    1.800    0.000   10.400 
#    0.000    2.000    0.000    7.200    0.000    0.000 
#    0.000    0.000    0.000    0.000    0.000    0.000 
#
# Total GULP energy -495662.282429 kJ/mol
# GULP energy per Si atom -12391.557061 kJ/mol
# Density = 1.891833 g / cm^3
# Si number density = 18.961490 Si / 1000 Ang^3
#
#
#
# Elastic Constant Matrix: (Units=GPa)
#
#
# Indices 1 2 3 4 5 6 
#
# 1 110.6181 27.3818 84.3938 0.0000 0.0000 0.0000
# 2 27.3818 37.3758 32.3430 0.0000 0.0000 0.0000
# 3 84.3938 32.3430 121.2020 0.0000 0.0000 0.0000
# 4 0.0000 0.0000 0.0000 31.4508 0.0000 0.0000
# 5 0.0000 0.0000 0.0000 0.0000 32.6257 0.0000
# 6 0.0000 0.0000 0.0000 0.0000 0.0000 7.6592
#
#
#
# Elastic Compliance Matrix: (Units=1/GPa)
#
#
# Indices 1 2 3 4 5 6 
#
# 1 0.019596 -0.003314 -0.012760 0.000000 0.000000 0.000000
# 2 -0.003314 0.035349 -0.007126 0.000000 0.000000 0.000000
# 3 -0.012760 -0.007126 0.019037 0.000000 0.000000 0.000000
# 4 0.000000 0.000000 0.000000 0.031796 0.000000 0.000000
# 5 0.000000 0.000000 0.000000 0.000000 0.030651 0.000000
# 6 0.000000 0.000000 0.000000 0.000000 0.000000 0.130561
#
#
# Mechanical properties :
#
#
# Convention : Reuss Voigt Hill
#
# Bulk Modulus (GPa) = 36.25467 61.93701 49.09584
# Shear Modulus (GPa) = 15.49988 22.68562 19.09275
#
# Velocity S-wave (km/s) = 2.86219 3.46266 3.17665
# Velocity P-wave (km/s) = 5.48494 6.98013 6.27721
#
# Compressibility (1/GPa) = 0.02758266
#
# Stress axis : x y z
#
# Youngs Moduli (GPa) = 51.03202 28.28924 52.52877
#
# Poissons Ratio (x) = 0.09375 0.67028
# Poissons Ratio (y) = 0.16911 0.37430
# Poissons Ratio (z) = 0.65118 0.20158
#
# Static dielectric constant tensor:
#      x y z
#    x 3.604720 0.000000 0.000000 
#    y 0.000000 3.109240 0.000000 
#    z 0.000000 0.000000 3.793350 
# 
# 
# High freq. dielectric constant tensor:
#      x y z
#    x 1.745210 0.000000 0.000000 
#    y 0.000000 1.700960 0.000000 
#    z 0.000000 0.000000 1.743820 
# 
# From -- ./inp_files/10957.got.cif
#   From: 2010.03.12/outbox.cif.g09.slc.cpg/sg74_6_cif.got.tgz:10957.got - 2010.04.16 15:46:19.
