data_PCOD8299759
_publ_section_title
;
Structure prediction by ZEFSAII (Michael W. Deem and Ramdas Pophale) SiO2 
 PCOD8299759
Probable space group: I M M A
;
_chemical_formula_sum "Si O2"
_cell_formula_units_Z 120
_cell_length_a 9.099417
_cell_length_b 26.691822
_cell_length_c 27.806022
_cell_angle_alpha 90.000000
_cell_angle_beta 90.000000
_cell_angle_gamma 90.000000
_cell_volume 6753.527148
_symmetry_space_group_name_H-M "I M M A"
_symmetry_group_IT_number 74
_symmetry_cell_setting 'orthorhombic'
loop_
_space_group_symop_operation_xyz
x,y,z
-x,1/2-y,z
x,-y,-z
-x,1/2+y,-z
-x,-y,-z
x,1/2+y,-z
-x,y,z
x,1/2-y,z
1/2+x,1/2+y,1/2+z
1/2-x,-y,1/2+z
1/2+x,1/2-y,1/2-z
1/2-x,y,1/2-z
1/2-x,1/2-y,1/2-z
1/2+x,y,1/2-z
1/2-x,1/2+y,1/2+z
1/2+x,-y,1/2+z
loop_
_atom_site_type_symbol
_atom_site_label
_atom_site_fract_x
_atom_site_fract_y
_atom_site_fract_z
Si Si1 0.169827 0.848308 0.530052
Si Si2 0.673009 0.950332 0.199904
Si Si3 0.830646 0.448760 0.524727
Si Si4 0.830866 0.194442 0.943100
Si Si5 0.826578 0.596941 0.111699
Si Si6 0.828589 0.564395 0.700834
Si Si7 0.825593 0.845062 0.637180
Si Si8 0.174614 0.750000 0.698515
O O1 0.194772 0.905517 0.514289
O O2 0.246633 0.810762 0.493259
O O3 0.238734 0.841040 0.583200
O O4 0.000000 0.833727 0.530047
O O5 0.500000 0.940378 0.204501
O O6 0.750000 0.937588 0.250000
O O7 0.742214 0.913494 0.160881
O O8 0.706831 0.007686 0.184605
O O9 0.782031 0.500000 0.500000
O O10 0.727990 0.441342 0.570928
O O11 0.000000 0.450613 0.542076
O O12 0.801281 0.250000 0.921973
O O13 0.781082 0.153424 0.903834
O O14 0.000000 0.185675 0.955450
O O15 0.000000 0.590486 0.119380
O O16 0.750000 0.578562 0.750000
O O17 0.770652 0.602610 0.660227
O O18 0.000000 0.571708 0.710225
O O19 0.770826 0.798611 0.669186
O O20 0.000000 0.845222 0.633928
O O21 0.250000 0.750000 0.750000
O O22 0.000000 0.750000 0.705484
#
# Coordination Sequence:
#
# PCOD8299759 Si02
#       8
#    16  16  16  16  16  16  16   8
#     4   9  18  31  49  74 100 128 168 210 250 299
#     4  10  20  34  55  79 107 138 172 210 253 303
#     4   9  18  31  50  74 102 136 173 209 251 305
#     4   9  19  36  55  74 102 136 167 206 256 307
#     4  10  20  34  53  77 106 137 172 210 256 309
#     4   9  18  32  50  70  96 129 166 207 251 300
#     4   9  18  31  49  71  94 126 166 210 256 301
#     4  10  20  34  50  68  92 124 166 214 263 306
#
# _framework density 17.768494
#
# number of rings (size 3 to 8) (size 9 to 14) (size 15 to 20)
#    0.000    2.667    0.000    1.200    2.800    1.600 
#    0.000    1.333    0.000    0.400    0.000    0.000 
#    0.000    0.000    0.000    0.000    0.000    0.000 
#
# Total GULP energy -744013.686549 kJ/mol
# GULP energy per Si atom -12400.228109 kJ/mol
# Density = 1.772805 g / cm^3
# Si number density = 17.768494 Si / 1000 Ang^3
#
#
#
# Elastic Constant Matrix: (Units=GPa)
#
#
# Indices 1 2 3 4 5 6 
#
# 1 56.0421 38.3523 53.0312 0.0000 0.0000 0.0000
# 2 38.3523 110.8262 73.2666 0.0000 0.0000 0.0000
# 3 53.0312 73.2666 146.3319 0.0000 0.0000 0.0000
# 4 0.0000 0.0000 0.0000 22.7531 0.0000 0.0000
# 5 0.0000 0.0000 0.0000 0.0000 31.7882 0.0000
# 6 0.0000 0.0000 0.0000 0.0000 0.0000 19.8387
#
#
#
# Elastic Compliance Matrix: (Units=1/GPa)
#
#
# Indices 1 2 3 4 5 6 
#
# 1 0.028616 -0.004554 -0.008090 0.000000 0.000000 0.000000
# 2 -0.004554 0.014212 -0.005465 0.000000 0.000000 0.000000
# 3 -0.008090 -0.005465 0.012502 0.000000 0.000000 0.000000
# 4 0.000000 0.000000 0.000000 0.043950 0.000000 0.000000
# 5 0.000000 0.000000 0.000000 0.000000 0.031458 0.000000
# 6 0.000000 0.000000 0.000000 0.000000 0.000000 0.050406
#
#
# Mechanical properties :
#
#
# Convention : Reuss Voigt Hill
#
# Bulk Modulus (GPa) = 52.32719 71.38894 61.85806
# Shear Modulus (GPa) = 22.34776 24.77933 23.56355
#
# Velocity S-wave (km/s) = 3.55028 3.73844 3.64557
# Velocity P-wave (km/s) = 6.80583 7.67457 7.25322
#
# Compressibility (1/GPa) = 0.01911053
#
# Stress axis : x y z
#
# Youngs Moduli (GPa) = 34.94526 70.36110 79.98598
#
# Poissons Ratio (x) = 0.32045 0.64711
# Poissons Ratio (y) = 0.15916 0.43716
# Poissons Ratio (z) = 0.28272 0.38455
#
# Static dielectric constant tensor:
#      x y z
#    x 3.170380 0.000000 0.000000 
#    y 0.000000 3.417690 0.000000 
#    z 0.000000 0.000000 3.332230 
# 
# 
# High freq. dielectric constant tensor:
#      x y z
#    x 1.673130 0.000000 0.000000 
#    y 0.000000 1.688510 0.000000 
#    z 0.000000 0.000000 1.683810 
# 
# From -- ./inp_files/65076.got.cif
#   From: 2010.03.12/outbox.cif.g09.slc.cpg/sg74_33_cif.got.tgz:65076.got - 2010.04.16 15:46:19.
