data_PCOD8299311
_publ_section_title
;
Structure prediction by ZEFSAII (Michael W. Deem and Ramdas Pophale) SiO2 
 PCOD8299311
Probable space group: I M M A
;
_chemical_formula_sum "Si O2"
_cell_formula_units_Z 88
_cell_length_a 21.983828
_cell_length_b 9.154594
_cell_length_c 22.990423
_cell_angle_alpha 90.000000
_cell_angle_beta 90.000000
_cell_angle_gamma 90.000000
_cell_volume 4626.892058
_symmetry_space_group_name_H-M "I M M A"
_symmetry_group_IT_number 74
_symmetry_cell_setting 'orthorhombic'
loop_
_space_group_symop_operation_xyz
x,y,z
-x,1/2-y,z
x,-y,-z
-x,1/2+y,-z
-x,-y,-z
x,1/2+y,-z
-x,y,z
x,1/2-y,z
1/2+x,1/2+y,1/2+z
1/2-x,-y,1/2+z
1/2+x,1/2-y,1/2-z
1/2-x,y,1/2-z
1/2-x,1/2-y,1/2-z
1/2+x,y,1/2-z
1/2-x,1/2+y,1/2+z
1/2+x,-y,1/2+z
loop_
_atom_site_type_symbol
_atom_site_label
_atom_site_fract_x
_atom_site_fract_y
_atom_site_fract_z
Si Si1 0.624306 0.919330 0.620883
Si Si2 0.500000 0.574412 0.563078
Si Si3 0.678448 0.420462 0.257697
Si Si4 0.332760 0.581471 0.145150
Si Si5 0.745212 0.078855 0.440636
Si Si6 0.932552 0.084233 0.553331
O O1 0.615672 0.750000 0.632155
O O2 0.559262 0.982024 0.599267
O O3 0.650273 0.983553 0.681905
O O4 0.673627 0.947774 0.570251
O O5 0.500000 0.750000 0.555063
O O6 0.500000 0.500000 0.500000
O O7 0.663290 0.250000 0.249891
O O8 0.750000 0.448260 0.250000
O O9 0.648588 0.516236 0.207202
O O10 0.311707 0.750000 0.149487
O O11 0.280106 0.488279 0.114305
O O12 0.395078 0.562920 0.111165
O O13 0.760831 0.250000 0.445215
O O14 0.764849 0.000000 0.500000
O O15 0.935183 0.250000 0.533429
O O16 0.000000 0.021036 0.565011
O O17 0.900627 0.000000 0.500000
#
# Coordination Sequence:
#
# PCOD8299311 Si02
#       6
#    16   8  16  16  16  16
#     4   9  19  36  58  81 110 149 186 228 280 334
#     4  10  20  38  62  86 114 148 193 238 283 338
#     4  10  19  37  59  78 107 147 184 222 275 333
#     4  11  22  35  54  82 110 142 182 227 275 327
#     4  11  21  35  54  81 113 145 180 225 280 333
#     4   9  19  36  55  75 105 141 176 217 267 320
#
# _framework density 19.019247
#
# number of rings (size 3 to 8) (size 9 to 14) (size 15 to 20)
#    0.000    2.000    1.818    2.182    0.000    3.273 
#    1.636    1.818    0.000    0.000    0.000    0.000 
#    0.000    0.000    0.000    0.000    0.000    0.000 
#
# Total GULP energy -545444.846054 kJ/mol
# GULP energy per Si atom -12396.473774 kJ/mol
# Density = 1.897596 g / cm^3
# Si number density = 19.019247 Si / 1000 Ang^3
#
#
#
# Elastic Constant Matrix: (Units=GPa)
#
#
# Indices 1 2 3 4 5 6 
#
# 1 92.6362 35.7063 47.5155 0.0000 0.0000 0.0000
# 2 35.7063 72.9984 51.3878 0.0000 0.0000 0.0000
# 3 47.5155 51.3878 142.6754 0.0000 0.0000 0.0000
# 4 0.0000 0.0000 0.0000 36.8803 0.0000 0.0000
# 5 0.0000 0.0000 0.0000 0.0000 23.4774 0.0000
# 6 0.0000 0.0000 0.0000 0.0000 0.0000 21.3362
#
#
#
# Elastic Compliance Matrix: (Units=1/GPa)
#
#
# Indices 1 2 3 4 5 6 
#
# 1 0.014191 -0.004842 -0.002982 0.000000 0.000000 0.000000
# 2 -0.004842 0.020004 -0.005592 0.000000 0.000000 0.000000
# 3 -0.002982 -0.005592 0.010016 0.000000 0.000000 0.000000
# 4 0.000000 0.000000 0.000000 0.027115 0.000000 0.000000
# 5 0.000000 0.000000 0.000000 0.000000 0.042594 0.000000
# 6 0.000000 0.000000 0.000000 0.000000 0.000000 0.046869
#
#
# Mechanical properties :
#
#
# Convention : Reuss Voigt Hill
#
# Bulk Modulus (GPa) = 57.54301 64.16992 60.85647
# Shear Modulus (GPa) = 25.85122 27.91882 26.88502
#
# Velocity S-wave (km/s) = 3.69075 3.83551 3.76383
# Velocity P-wave (km/s) = 6.96297 7.30941 7.13830
#
# Compressibility (1/GPa) = 0.01737830
#
# Stress axis : x y z
#
# Youngs Moduli (GPa) = 70.46808 49.98953 99.83767
#
# Poissons Ratio (x) = 0.24205 0.29772
# Poissons Ratio (y) = 0.34121 0.55833
# Poissons Ratio (z) = 0.21014 0.27956
#
# Static dielectric constant tensor:
#      x y z
#    x 3.739880 0.000000 0.000000 
#    y 0.000000 3.377680 0.000000 
#    z 0.000000 0.000000 3.631470 
# 
# 
# High freq. dielectric constant tensor:
#      x y z
#    x 1.738170 0.000000 0.000000 
#    y 0.000000 1.722660 0.000000 
#    z 0.000000 0.000000 1.746170 
# 
# From -- ./inp_files/48697.got.cif
#   From: 2010.03.12/outbox.cif.g09.slc.cpg/sg74_25_cif.got.tgz:48697.got - 2010.04.16 15:46:19.
