data_PCOD8299040
_publ_section_title
;
Structure prediction by ZEFSAII (Michael W. Deem and Ramdas Pophale) SiO2 
 PCOD8299040
Probable space group: I M M A
;
_chemical_formula_sum "Si O2"
_cell_formula_units_Z 96
_cell_length_a 19.760270
_cell_length_b 29.295126
_cell_length_c 9.481720
_cell_angle_alpha 90.000000
_cell_angle_beta 90.000000
_cell_angle_gamma 90.000000
_cell_volume 5488.774276
_symmetry_space_group_name_H-M "I M M A"
_symmetry_group_IT_number 74
_symmetry_cell_setting 'orthorhombic'
loop_
_space_group_symop_operation_xyz
x,y,z
-x,1/2-y,z
x,-y,-z
-x,1/2+y,-z
-x,-y,-z
x,1/2+y,-z
-x,y,z
x,1/2-y,z
1/2+x,1/2+y,1/2+z
1/2-x,-y,1/2+z
1/2+x,1/2-y,1/2-z
1/2-x,y,1/2-z
1/2-x,1/2-y,1/2-z
1/2+x,y,1/2-z
1/2-x,1/2+y,1/2+z
1/2+x,-y,1/2+z
loop_
_atom_site_type_symbol
_atom_site_label
_atom_site_fract_x
_atom_site_fract_y
_atom_site_fract_z
Si Si1 0.422669 0.530011 0.873398
Si Si2 0.682282 0.633148 0.672764
Si Si3 0.188707 0.527378 0.851759
Si Si4 0.689427 0.698684 0.430339
Si Si5 0.077416 0.134222 0.411594
Si Si6 0.845926 0.801667 0.379702
O O1 0.500000 0.517935 0.836426
O O2 0.381257 0.519273 0.731337
O O3 0.415306 0.580452 0.937278
O O4 0.393306 0.500000 0.000000
O O5 0.750000 0.650898 0.750000
O O6 0.694047 0.581439 0.619964
O O7 0.661051 0.662570 0.539239
O O8 0.619314 0.643865 0.771927
O O9 0.250000 0.511236 0.750000
O O10 0.189763 0.500000 0.000000
O O11 0.679674 0.750000 0.487281
O O12 0.768400 0.688199 0.413424
O O13 0.646335 0.692309 0.287932
O O14 0.106059 0.162048 0.544265
O O15 0.000000 0.148811 0.387123
O O16 0.865825 0.750000 0.424932
#
# Coordination Sequence:
#
# PCOD8299040 Si02
#       6
#    16  16  16  16  16  16
#     4   9  19  36  56  75 100 137 178 215 254 310
#     4  10  19  34  53  77 103 137 174 212 260 310
#     4  10  21  35  50  76 109 137 169 216 267 310
#     4   9  18  33  53  77 102 132 174 216 250 299
#     4  10  20  34  53  77 106 135 170 216 261 308
#     4   9  18  33  52  76 104 133 170 213 256 304
#
# _framework density 17.490244000000001
#
# number of rings (size 3 to 8) (size 9 to 14) (size 15 to 20)
#    0.000    2.500    1.667    1.500    0.000    3.000 
#    3.000    0.833    0.000    1.000    0.000    0.000 
#    0.000    0.000    0.000    0.000    0.000    0.000 
#
# Total GULP energy -594992.551343 kJ/mol
# GULP energy per Si atom -12395.678153 kJ/mol
# Density = 1.745044 g / cm^3
# Si number density = 17.490244 Si / 1000 Ang^3
#
#
#
# Elastic Constant Matrix: (Units=GPa)
#
#
# Indices 1 2 3 4 5 6 
#
# 1 92.8323 44.9094 52.4671 0.0000 0.0000 0.0000
# 2 44.9094 77.4082 73.4116 0.0000 0.0000 0.0000
# 3 52.4671 73.4116 118.7794 -0.0001 -0.0001 0.0000
# 4 0.0000 0.0000 -0.0001 41.6595 0.0000 0.0000
# 5 0.0000 0.0000 -0.0001 0.0000 23.2558 0.0000
# 6 0.0000 0.0000 0.0000 0.0000 0.0000 21.8371
#
#
#
# Elastic Compliance Matrix: (Units=1/GPa)
#
#
# Indices 1 2 3 4 5 6 
#
# 1 0.015434 -0.006013 -0.003101 0.000000 0.000000 0.000000
# 2 -0.006013 0.033558 -0.018084 0.000000 0.000000 0.000000
# 3 -0.003101 -0.018084 0.020966 0.000000 0.000000 0.000000
# 4 0.000000 0.000000 0.000000 0.024004 0.000000 0.000000
# 5 0.000000 0.000000 0.000000 0.000000 0.043000 0.000000
# 6 0.000000 0.000000 0.000000 0.000000 0.000000 0.045794
#
#
# Mechanical properties :
#
#
# Convention : Reuss Voigt Hill
#
# Bulk Modulus (GPa) = 64.26578 70.06622 67.16600
# Shear Modulus (GPa) = 20.63232 25.23260 22.93246
#
# Velocity S-wave (km/s) = 3.43833 3.80237 3.62492
# Velocity P-wave (km/s) = 7.25164 7.70873 7.48368
#
# Compressibility (1/GPa) = 0.01556038
#
# Stress axis : x y z
#
# Youngs Moduli (GPa) = 64.79320 29.79939 47.69732
#
# Poissons Ratio (x) = 0.17920 0.14790
# Poissons Ratio (y) = 0.38963 0.86256
# Poissons Ratio (z) = 0.20091 0.53890
#
# Static dielectric constant tensor:
#      x y z
#    x 3.284110 0.000000 0.000000 
#    y 0.000000 3.283190 0.000000 
#    z 0.000000 0.000000 3.336790 
# 
# 
# High freq. dielectric constant tensor:
#      x y z
#    x 1.667680 0.000000 0.000000 
#    y 0.000000 1.677520 0.000000 
#    z 0.000000 0.000000 1.672770 
# 
# From -- ./inp_files/12685.got.cif
#   From: 2010.03.12/outbox.cif.g09.slc.cpg/sg74_7_cif.got.tgz:12685.got - 2010.04.16 15:46:19.
