data_PCOD8299141
_publ_section_title
;
Structure prediction by ZEFSAII (Michael W. Deem and Ramdas Pophale) SiO2 
 PCOD8299141
Probable space group: I M M A
;
_chemical_formula_sum "Si O2"
_cell_formula_units_Z 64
_cell_length_a 20.457055
_cell_length_b 8.815251
_cell_length_c 18.192014
_cell_angle_alpha 90.000000
_cell_angle_beta 90.000000
_cell_angle_gamma 90.000000
_cell_volume 3280.640009
_symmetry_space_group_name_H-M "I M M A"
_symmetry_group_IT_number 74
_symmetry_cell_setting 'orthorhombic'
loop_
_space_group_symop_operation_xyz
x,y,z
-x,1/2-y,z
x,-y,-z
-x,1/2+y,-z
-x,-y,-z
x,1/2+y,-z
-x,y,z
x,1/2-y,z
1/2+x,1/2+y,1/2+z
1/2-x,-y,1/2+z
1/2+x,1/2-y,1/2-z
1/2-x,y,1/2-z
1/2-x,1/2-y,1/2-z
1/2+x,y,1/2-z
1/2-x,1/2+y,1/2+z
1/2+x,-y,1/2+z
loop_
_atom_site_type_symbol
_atom_site_label
_atom_site_fract_x
_atom_site_fract_y
_atom_site_fract_z
Si Si1 0.500000 0.083752 0.684710
Si Si2 0.264140 0.424645 0.423069
Si Si3 0.500000 0.918147 0.140712
Si Si4 0.869506 0.924521 0.652404
Si Si5 0.359817 0.068295 0.692176
O O1 0.500000 0.250000 0.648740
O O2 0.500000 0.094926 0.772244
O O3 0.431059 0.004672 0.662769
O O4 0.282036 0.500000 0.500000
O O5 0.285518 0.250000 0.424827
O O6 0.187367 0.442711 0.407569
O O7 0.303498 0.508737 0.359623
O O8 0.500000 0.750000 0.105208
O O9 0.565198 0.006470 0.115600
O O10 0.882148 0.750000 0.672892
O O11 0.846709 0.010756 0.725711
O O12 0.360470 0.250000 0.694006
#
# Coordination Sequence:
#
# PCOD8299141 Si02
#       5
#     8  16   8  16  16
#     4   7  14  29  50  79 108 133 167 212 258 309
#     4  11  24  39  54  76 108 145 185 227 272 323
#     4   9  17  31  54  83 110 137 175 220 267 321
#     4  10  20  35  56  82 111 141 177 223 272 322
#     4  10  19  34  58  84 110 141 179 221 267 323
#
# _framework density 19.508389000000001
#
# number of rings (size 3 to 8) (size 9 to 14) (size 15 to 20)
#    0.000    2.250    0.000    4.875    0.000    7.000 
#    0.000    3.125    0.000    0.000    0.000    0.000 
#    0.000    0.000    0.000    0.000    0.000    0.000 
#
# Total GULP energy -396648.670651 kJ/mol
# GULP energy per Si atom -12395.270958 kJ/mol
# Density = 1.946399 g / cm^3
# Si number density = 19.508389 Si / 1000 Ang^3
#
#
#
# Elastic Constant Matrix: (Units=GPa)
#
#
# Indices 1 2 3 4 5 6 
#
# 1 80.4504 31.6571 -3.5386 0.0000 0.0000 0.0000
# 2 31.6571 113.5447 15.0079 0.0000 0.0000 0.0000
# 3 -3.5386 15.0079 30.3194 0.0000 0.0000 0.0000
# 4 0.0000 0.0000 0.0000 25.3365 0.0000 0.0000
# 5 0.0000 0.0000 0.0000 0.0000 8.1330 0.0000
# 6 0.0000 0.0000 0.0000 0.0000 0.0000 34.3223
#
#
#
# Elastic Compliance Matrix: (Units=1/GPa)
#
#
# Indices 1 2 3 4 5 6 
#
# 1 0.014384 -0.004529 0.003920 0.000000 0.000000 0.000000
# 2 -0.004529 0.010849 -0.005899 0.000000 0.000000 0.000000
# 3 0.003920 -0.005899 0.036360 0.000000 0.000000 0.000000
# 4 0.000000 0.000000 0.000000 0.039469 0.000000 0.000000
# 5 0.000000 0.000000 0.000000 0.000000 0.122955 0.000000
# 6 0.000000 0.000000 0.000000 0.000000 0.000000 0.029136
#
#
# Mechanical properties :
#
#
# Convention : Reuss Voigt Hill
#
# Bulk Modulus (GPa) = 20.58491 34.50748 27.54620
# Shear Modulus (GPa) = 17.70786 25.63759 21.67272
#
# Velocity S-wave (km/s) = 3.01608 3.62910 3.33670
# Velocity P-wave (km/s) = 4.76484 5.94032 5.38475
#
# Compressibility (1/GPa) = 0.04857927
#
# Stress axis : x y z
#
# Youngs Moduli (GPa) = 69.51930 92.17069 27.50303
#
# Poissons Ratio (x) = 0.41741 -0.10783
# Poissons Ratio (y) = 0.31483 0.16224
# Poissons Ratio (z) = -0.27255 0.54371
#
# Static dielectric constant tensor:
#      x y z
#    x 4.039190 0.000000 0.000000 
#    y 0.000000 3.662150 0.000000 
#    z 0.000000 0.000000 2.919550 
# 
# 
# High freq. dielectric constant tensor:
#      x y z
#    x 1.781470 0.000000 0.000000 
#    y 0.000000 1.763500 0.000000 
#    z 0.000000 0.000000 1.717460 
# 
# From -- ./inp_files/39080.got.cif
#   From: 2010.03.12/outbox.cif.g09.slc.cpg/sg74_20_cif.got.tgz:39080.got - 2010.04.16 15:46:19.
