data_PCOD8299813
_publ_section_title
;
Structure prediction by ZEFSAII (Michael W. Deem and Ramdas Pophale) SiO2 
 PCOD8299813
Probable space group: I M M A
;
_chemical_formula_sum "Si O2"
_cell_formula_units_Z 96
_cell_length_a 8.755301
_cell_length_b 18.287829
_cell_length_c 28.467811
_cell_angle_alpha 90.000000
_cell_angle_beta 90.000000
_cell_angle_gamma 90.000000
_cell_volume 4558.136299
_symmetry_space_group_name_H-M "I M M A"
_symmetry_group_IT_number 74
_symmetry_cell_setting 'orthorhombic'
loop_
_space_group_symop_operation_xyz
x,y,z
-x,1/2-y,z
x,-y,-z
-x,1/2+y,-z
-x,-y,-z
x,1/2+y,-z
-x,y,z
x,1/2-y,z
1/2+x,1/2+y,1/2+z
1/2-x,-y,1/2+z
1/2+x,1/2-y,1/2-z
1/2-x,y,1/2-z
1/2-x,1/2-y,1/2-z
1/2+x,y,1/2-z
1/2-x,1/2+y,1/2+z
1/2+x,-y,1/2+z
loop_
_atom_site_type_symbol
_atom_site_label
_atom_site_fract_x
_atom_site_fract_y
_atom_site_fract_z
Si Si1 0.819801 0.833551 0.851747
Si Si2 0.667990 0.336032 0.455221
Si Si3 0.821266 0.583637 0.132139
Si Si4 0.319620 0.037097 0.199635
Si Si5 0.167593 0.334043 0.705767
Si Si6 0.178292 0.334365 0.549630
O O1 0.765957 0.750000 0.845172
O O2 0.777490 0.864377 0.904048
O O3 0.731338 0.881116 0.813411
O O4 0.000000 0.840932 0.843631
O O5 0.500000 0.368356 0.467906
O O6 0.651763 0.250000 0.449739
O O7 0.788278 0.356691 0.495671
O O8 0.737256 0.516828 0.158095
O O9 0.776745 0.656387 0.161122
O O10 0.764320 0.603748 0.079991
O O11 0.000000 0.567706 0.131124
O O12 0.500000 0.033354 0.203364
O O13 0.250000 0.014995 0.250000
O O14 0.142963 0.250000 0.716246
O O15 0.250000 0.372457 0.750000
O O16 0.000000 0.370750 0.698244
O O17 0.233739 0.250000 0.558994
O O18 0.000000 0.340111 0.560056
#
# Coordination Sequence:
#
# PCOD8299813 Si02
#       6
#    16  16  16  16  16  16
#     4   9  19  39  67  96 124 152 186 231 285 348
#     4   8  15  31  57  88 121 156 191 230 281 340
#     4  12  24  38  56  78 110 152 197 242 290 343
#     4  12  26  44  64  86 116 152 193 240 293 353
#     4  10  20  34  52  75 104 139 184 237 289 340
#     4  10  20  34  55  86 123 160 200 245 288 334
#
# _framework density 21.061240999999999
#
# number of rings (size 3 to 8) (size 9 to 14) (size 15 to 20)
#    0.000    1.833    0.000    6.000    0.000    5.333 
#    0.000    2.500    0.000    5.000    0.000    0.000 
#    0.000    0.000    0.000    0.000    0.000    0.000 
#
# Total GULP energy -594892.835490 kJ/mol
# GULP energy per Si atom -12393.600739 kJ/mol
# Density = 2.101330 g / cm^3
# Si number density = 21.061241 Si / 1000 Ang^3
#
#
#
# Elastic Constant Matrix: (Units=GPa)
#
#
# Indices 1 2 3 4 5 6 
#
# 1 123.6110 40.8959 37.0647 0.0000 0.0000 0.0000
# 2 40.8959 83.7402 41.2317 0.0000 0.0000 0.0000
# 3 37.0647 41.2317 87.7614 0.0000 0.0000 0.0000
# 4 0.0000 0.0000 0.0000 -34.0371 0.0000 0.0000
# 5 0.0000 0.0000 0.0000 0.0000 36.6386 0.0000
# 6 0.0000 0.0000 0.0000 0.0000 0.0000 25.7448
#
#
#
# Elastic Compliance Matrix: (Units=1/GPa)
#
#
# Indices 1 2 3 4 5 6 
#
# 1 0.010061 -0.003670 -0.002525 0.000000 0.000000 0.000000
# 2 -0.003670 0.016874 -0.006378 0.000000 0.000000 0.000000
# 3 -0.002525 -0.006378 0.015457 0.000000 0.000000 0.000000
# 4 0.000000 0.000000 0.000000 -0.029380 0.000000 0.000000
# 5 0.000000 0.000000 0.000000 0.000000 0.027294 0.000000
# 6 0.000000 0.000000 0.000000 0.000000 0.000000 0.038843
#
#
# Mechanical properties :
#
#
# Convention : Reuss Voigt Hill
#
# Bulk Modulus (GPa) = 57.98109 59.27746 58.62927
# Shear Modulus (GPa) = 45.43614 17.39729 31.41671
#
# Velocity S-wave (km/s) = 4.64975 2.87720 3.86642
# Velocity P-wave (km/s) = 7.51109 6.26451 6.91594
#
# Compressibility (1/GPa) = 0.01724700
#
# Stress axis : x y z
#
# Youngs Moduli (GPa) = 99.39066 59.26118 64.69474
#
# Poissons Ratio (x) = 0.21751 0.16334
# Poissons Ratio (y) = 0.36481 0.41261
# Poissons Ratio (z) = 0.25094 0.37795
#
# Static dielectric constant tensor:
#      x y z
#    x 3.923080 0.000000 0.000000 
#    y 0.000000 3.636080 0.000000 
#    z 0.000000 0.000000 4.011980 
# 
# 
# High freq. dielectric constant tensor:
#      x y z
#    x 1.824820 0.000000 0.000000 
#    y 0.000000 1.804670 0.000000 
#    z 0.000000 0.000000 1.830100 
# 
# From -- ./inp_files/64342.got.cif
#   From: 2010.03.12/outbox.cif.g09.slc.cpg/sg74_33_cif.got.tgz:64342.got - 2010.04.16 15:46:19.
