data_PCOD8299710
_publ_section_title
;
Structure prediction by ZEFSAII (Michael W. Deem and Ramdas Pophale) SiO2 
 PCOD8299710
Probable space group: I M M A
;
_chemical_formula_sum "Si O2"
_cell_formula_units_Z 88
_cell_length_a 14.044455
_cell_length_b 10.548142
_cell_length_c 32.718571
_cell_angle_alpha 90.000000
_cell_angle_beta 90.000000
_cell_angle_gamma 90.000000
_cell_volume 4847.024177
_symmetry_space_group_name_H-M "I M M A"
_symmetry_group_IT_number 74
_symmetry_cell_setting 'orthorhombic'
loop_
_space_group_symop_operation_xyz
x,y,z
-x,1/2-y,z
x,-y,-z
-x,1/2+y,-z
-x,-y,-z
x,1/2+y,-z
-x,y,z
x,1/2-y,z
1/2+x,1/2+y,1/2+z
1/2-x,-y,1/2+z
1/2+x,1/2-y,1/2-z
1/2-x,y,1/2-z
1/2-x,1/2-y,1/2-z
1/2+x,y,1/2-z
1/2-x,1/2+y,1/2+z
1/2+x,-y,1/2+z
loop_
_atom_site_type_symbol
_atom_site_label
_atom_site_fract_x
_atom_site_fract_y
_atom_site_fract_z
Si Si1 0.262535 0.395462 0.965815
Si Si2 0.612128 0.524192 0.106485
Si Si3 0.250000 0.954854 0.750000
Si Si4 0.240127 0.896992 0.167709
Si Si5 0.613526 0.250000 0.220645
Si Si6 0.105580 0.600405 0.096877
Si Si7 0.611159 0.750000 0.871393
O O1 0.261349 0.250000 0.982850
O O2 0.346392 0.402652 0.932431
O O3 0.162121 0.431477 0.944761
O O4 0.283695 0.500000 0.000000
O O5 0.500000 0.546312 0.108067
O O6 0.655274 0.579833 0.148481
O O7 0.640592 0.375009 0.103367
O O8 0.344934 0.873160 0.757052
O O9 0.227142 0.039713 0.788866
O O10 0.222718 0.750000 0.174448
O O11 0.162230 0.954688 0.135963
O O12 0.500000 0.250000 0.224087
O O13 0.654804 0.250000 0.174255
O O14 0.099204 0.750000 0.101857
O O15 0.000000 0.539688 0.094503
O O16 0.500000 0.750000 0.863678
#
# Coordination Sequence:
#
# PCOD8299710 Si02
#       7
#    16  16   8  16   8  16   8
#     4  10  22  37  56  85 111 141 178 222 273 331
#     4  10  20  36  57  79 109 144 182 224 267 322
#     4  11  21  34  54  78 109 147 176 232 280 315
#     4  10  20  33  52  80 110 144 185 222 270 324
#     4  10  21  37  54  77 105 140 187 227 276 329
#     4   8  16  34  56  76 104 142 181 222 268 317
#     4   9  17  33  57  78  99 143 190 221 263 319
#
# _framework density 18.155469
#
# number of rings (size 3 to 8) (size 9 to 14) (size 15 to 20)
#    0.000    2.364    1.818    1.909    1.273    2.909 
#    0.000    0.000    0.000    3.273    0.000    0.000 
#    0.000    0.000    0.000    0.000    0.000    0.000 
#
# Total GULP energy -545462.078155 kJ/mol
# GULP energy per Si atom -12396.865413 kJ/mol
# Density = 1.811415 g / cm^3
# Si number density = 18.155469 Si / 1000 Ang^3
#
#
#
# Elastic Constant Matrix: (Units=GPa)
#
#
# Indices 1 2 3 4 5 6 
#
# 1 108.7420 20.0211 24.0529 0.0000 0.0000 0.0000
# 2 20.0211 83.5072 36.4743 0.0000 0.0000 0.0000
# 3 24.0529 36.4743 88.3031 0.0000 0.0000 0.0000
# 4 0.0000 0.0000 0.0000 -22.4891 0.0000 0.0000
# 5 0.0000 0.0000 0.0000 0.0000 13.6007 0.0000
# 6 0.0000 0.0000 0.0000 0.0000 0.0000 18.9999
#
#
#
# Elastic Compliance Matrix: (Units=1/GPa)
#
#
# Indices 1 2 3 4 5 6 
#
# 1 0.009930 -0.001463 -0.002100 0.000000 0.000000 0.000000
# 2 -0.001463 0.014827 -0.005726 0.000000 0.000000 0.000000
# 3 -0.002100 -0.005726 0.014262 0.000000 0.000000 0.000000
# 4 0.000000 0.000000 0.000000 -0.044466 0.000000 0.000000
# 5 0.000000 0.000000 0.000000 0.000000 0.073526 0.000000
# 6 0.000000 0.000000 0.000000 0.000000 0.000000 0.052632
#
#
# Mechanical properties :
#
#
# Convention : Reuss Voigt Hill
#
# Bulk Modulus (GPa) = 48.92437 49.07211 48.99824
# Shear Modulus (GPa) = 34.22259 15.35591 24.78925
#
# Velocity S-wave (km/s) = 4.34634 2.91142 3.69912
# Velocity P-wave (km/s) = 7.22451 6.19591 6.72989
#
# Compressibility (1/GPa) = 0.02043971
#
# Stress axis : x y z
#
# Youngs Moduli (GPa) = 100.70393 67.44579 70.11739
#
# Poissons Ratio (x) = 0.09870 0.14727
# Poissons Ratio (y) = 0.14737 0.40147
# Poissons Ratio (z) = 0.21152 0.38617
#
# Static dielectric constant tensor:
#      x y z
#    x 3.462640 0.000000 0.000000 
#    y 0.000000 3.419070 0.000000 
#    z 0.000000 0.000000 3.265430 
# 
# 
# High freq. dielectric constant tensor:
#      x y z
#    x 1.698010 0.000000 0.000000 
#    y 0.000000 1.698110 0.000000 
#    z 0.000000 0.000000 1.696860 
# 
# From -- ./inp_files/66990.got.cif
#   From: 2010.03.12/outbox.cif.g09.slc.cpg/sg74_34_cif.got.tgz:66990.got - 2010.04.16 15:46:19.
