data_PCOD8299042
_publ_section_title
;
Structure prediction by ZEFSAII (Michael W. Deem and Ramdas Pophale) SiO2 
 PCOD8299042
Probable space group: I M M A
;
_chemical_formula_sum "Si O2"
_cell_formula_units_Z 64
_cell_length_a 9.350711
_cell_length_b 22.498839
_cell_length_c 17.259584
_cell_angle_alpha 90.000000
_cell_angle_beta 90.000000
_cell_angle_gamma 90.000000
_cell_volume 3631.073721
_symmetry_space_group_name_H-M "I M M A"
_symmetry_group_IT_number 74
_symmetry_cell_setting 'orthorhombic'
loop_
_space_group_symop_operation_xyz
x,y,z
-x,1/2-y,z
x,-y,-z
-x,1/2+y,-z
-x,-y,-z
x,1/2+y,-z
-x,y,z
x,1/2-y,z
1/2+x,1/2+y,1/2+z
1/2-x,-y,1/2+z
1/2+x,1/2-y,1/2-z
1/2-x,y,1/2-z
1/2-x,1/2-y,1/2-z
1/2+x,y,1/2-z
1/2-x,1/2+y,1/2+z
1/2+x,-y,1/2+z
loop_
_atom_site_type_symbol
_atom_site_label
_atom_site_fract_x
_atom_site_fract_y
_atom_site_fract_z
Si Si1 0.670336 0.250000 0.830897
Si Si2 0.840268 0.562599 0.680718
Si Si3 0.250000 0.052843 0.750000
Si Si4 0.340652 0.640707 0.379988
Si Si5 0.664280 0.436188 0.470065
O O1 0.500000 0.250000 0.820609
O O2 0.750000 0.250000 0.750000
O O3 0.719499 0.190929 0.875323
O O4 0.750000 0.593520 0.750000
O O5 0.848039 0.490944 0.696949
O O6 0.764248 0.580723 0.601284
O O7 0.000000 0.588415 0.678710
O O8 0.337753 0.094239 0.691159
O O9 0.500000 0.668799 0.378766
O O10 0.311215 0.610097 0.461596
O O11 0.712640 0.500000 0.500000
O O12 0.500000 0.437700 0.441615
#
# Coordination Sequence:
#
# PCOD8299042 Si02
#       5
#     8  16   8  16  16
#     4  12  26  40  56  76 105 142 189 232 266 312
#     4  10  20  32  49  76 109 143 177 215 264 320
#     4  10  20  31  54  78 108 147 180 224 262 316
#     4  11  22  38  57  77 108 146 184 224 269 318
#     4  10  19  34  53  77 108 140 175 219 272 324
#
# _framework density 17.625640000000001
#
# number of rings (size 3 to 8) (size 9 to 14) (size 15 to 20)
#    0.750    0.750    3.750    2.625    0.000    2.500 
#    0.000    0.000    0.000    0.000    0.000    0.875 
#    0.000    0.000    0.000    0.000    0.000    0.000 
#
# Total GULP energy -396615.046559 kJ/mol
# GULP energy per Si atom -12394.220205 kJ/mol
# Density = 1.758552 g / cm^3
# Si number density = 17.625640 Si / 1000 Ang^3
#
#
#
# Elastic Constant Matrix: (Units=GPa)
#
#
# Indices 1 2 3 4 5 6 
#
# 1 137.4758 22.8736 69.0388 0.0000 0.0000 0.0000
# 2 22.8736 44.6790 23.0722 0.0000 0.0000 0.0000
# 3 69.0388 23.0722 130.8766 0.0000 0.0000 0.0000
# 4 0.0000 0.0000 0.0000 19.4804 0.0000 0.0000
# 5 0.0000 0.0000 0.0000 0.0000 30.9045 0.0000
# 6 0.0000 0.0000 0.0000 0.0000 0.0000 31.3662
#
#
#
# Elastic Compliance Matrix: (Units=1/GPa)
#
#
# Indices 1 2 3 4 5 6 
#
# 1 0.010180 -0.002683 -0.004897 0.000000 0.000000 0.000000
# 2 -0.002683 0.025330 -0.003050 0.000000 0.000000 0.000000
# 3 -0.004897 -0.003050 0.010762 0.000000 0.000000 0.000000
# 4 0.000000 0.000000 0.000000 0.051334 0.000000 0.000000
# 5 0.000000 0.000000 0.000000 0.000000 0.032358 0.000000
# 6 0.000000 0.000000 0.000000 0.000000 0.000000 0.031881
#
#
# Mechanical properties :
#
#
# Convention : Reuss Voigt Hill
#
# Bulk Modulus (GPa) = 39.98106 60.33338 50.15722
# Shear Modulus (GPa) = 26.11762 29.55334 27.83548
#
# Velocity S-wave (km/s) = 3.85359 4.09922 3.97830
# Velocity P-wave (km/s) = 6.52172 7.53058 7.04424
#
# Compressibility (1/GPa) = 0.02501184
#
# Stress axis : x y z
#
# Youngs Moduli (GPa) = 98.23650 39.47813 92.92226
#
# Poissons Ratio (x) = 0.10591 0.45503
# Poissons Ratio (y) = 0.26354 0.28345
# Poissons Ratio (z) = 0.48105 0.12042
#
# Static dielectric constant tensor:
#      x y z
#    x 3.223770 0.000000 0.000000 
#    y 0.000000 -19.864760 0.000180 
#    z 0.000000 0.000180 2.598810 
# 
# 
# High freq. dielectric constant tensor:
#      x y z
#    x 1.684660 0.000000 0.000000 
#    y 0.000000 1.638810 0.000000 
#    z 0.000000 0.000000 1.687600 
# 
# From -- ./inp_files/39376.got.cif
#   From: 2010.03.12/outbox.cif.g09.slc.cpg/sg74_20_cif.got.tgz:39376.got - 2010.04.16 15:46:19.
