data_PCOD8299354
_publ_section_title
;
Structure prediction by ZEFSAII (Michael W. Deem and Ramdas Pophale) SiO2 
 PCOD8299354
Probable space group: I M M A
;
_chemical_formula_sum "Si O2"
_cell_formula_units_Z 80
_cell_length_a 16.615683
_cell_length_b 14.425128
_cell_length_c 17.027799
_cell_angle_alpha 90.000000
_cell_angle_beta 90.000000
_cell_angle_gamma 90.000000
_cell_volume 4081.279977
_symmetry_space_group_name_H-M "I M M A"
_symmetry_group_IT_number 74
_symmetry_cell_setting 'orthorhombic'
loop_
_space_group_symop_operation_xyz
x,y,z
-x,1/2-y,z
x,-y,-z
-x,1/2+y,-z
-x,-y,-z
x,1/2+y,-z
-x,y,z
x,1/2-y,z
1/2+x,1/2+y,1/2+z
1/2-x,-y,1/2+z
1/2+x,1/2-y,1/2-z
1/2-x,y,1/2-z
1/2-x,1/2-y,1/2-z
1/2+x,y,1/2-z
1/2-x,1/2+y,1/2+z
1/2+x,-y,1/2+z
loop_
_atom_site_type_symbol
_atom_site_label
_atom_site_fract_x
_atom_site_fract_y
_atom_site_fract_z
Si Si1 0.404096 0.147704 0.993824
Si Si2 0.407034 0.553553 0.418993
Si Si3 0.095169 0.750000 0.020612
Si Si4 0.093455 0.506399 0.619253
Si Si5 0.340240 0.559114 0.720315
Si Si6 0.095784 0.750000 0.843085
O O1 0.500000 0.156759 0.994162
O O2 0.364694 0.250000 0.990725
O O3 0.372444 0.089052 0.918485
O O4 0.372005 0.096185 0.072736
O O5 0.397419 0.500000 0.500000
O O6 0.500000 0.548327 0.390508
O O7 0.377451 0.659123 0.431508
O O8 0.348867 0.506645 0.355326
O O9 0.000000 0.750000 0.011312
O O10 0.130358 0.750000 0.931991
O O11 0.109142 0.511166 0.711053
O O12 0.000000 0.505143 0.601903
O O13 0.250000 0.566151 0.750000
O O14 0.373451 0.660611 0.702879
O O15 0.000000 0.750000 0.842336
#
# Coordination Sequence:
#
# PCOD8299354 Si02
#       6
#    16  16   8  16  16   8
#     4   8  15  31  55  81 107 140 191 244 278 323
#     4  10  19  38  66  91 118 160 213 262 305 357
#     4   9  18  35  64  96 115 149 215 270 304 345
#     4   9  18  34  56  81 109 148 198 239 281 341
#     4  12  25  39  56  89 131 159 189 245 315 379
#     4  11  21  39  67  94 119 153 204 259 306 364
#
# _framework density 19.601693000000001
#
# number of rings (size 3 to 8) (size 9 to 14) (size 15 to 20)
#    0.000    2.200    2.000    3.300    1.400    0.000 
#    5.400    0.500    0.000    0.000    0.000    0.000 
#    0.000    0.000    0.000    0.000    0.000    0.000 
#
# Total GULP energy -495858.895284 kJ/mol
# GULP energy per Si atom -12396.472382 kJ/mol
# Density = 1.955708 g / cm^3
# Si number density = 19.601693 Si / 1000 Ang^3
#
#
#
# Elastic Constant Matrix: (Units=GPa)
#
#
# Indices 1 2 3 4 5 6 
#
# 1 48.2972 33.3989 30.0608 0.0000 0.0000 0.0000
# 2 33.3989 171.1421 59.2028 0.0000 0.0000 0.0000
# 3 30.0608 59.2028 121.1599 0.0000 0.0000 0.0000
# 4 0.0000 0.0000 0.0000 2.2222 0.0000 0.0000
# 5 0.0000 0.0000 0.0000 0.0000 -39.7575 0.0000
# 6 0.0000 0.0000 0.0000 0.0000 0.0000 10.6045
#
#
#
# Elastic Compliance Matrix: (Units=1/GPa)
#
#
# Indices 1 2 3 4 5 6 
#
# 1 0.026057 -0.003428 -0.004790 0.000000 0.000000 0.000000
# 2 -0.003428 0.007483 -0.002806 0.000000 0.000000 0.000000
# 3 -0.004790 -0.002806 0.010813 0.000000 0.000000 0.000000
# 4 0.000000 0.000000 0.000000 0.450009 0.000000 0.000000
# 5 0.000000 0.000000 0.000000 0.000000 -0.025153 0.000000
# 6 0.000000 0.000000 0.000000 0.000000 0.000000 0.094300
#
#
# Mechanical properties :
#
#
# Convention : Reuss Voigt Hill
#
# Bulk Modulus (GPa) = 44.83262 65.10269 54.96765
# Shear Modulus (GPa) = 8.43182 9.14294 8.78738
#
# Velocity S-wave (km/s) = 2.07628 2.16206 2.11960
# Velocity P-wave (km/s) = 5.35438 6.28630 5.83896
#
# Compressibility (1/GPa) = 0.02230519
#
# Stress axis : x y z
#
# Youngs Moduli (GPa) = 38.37723 133.64162 92.48169
#
# Poissons Ratio (x) = 0.45815 0.44298
# Poissons Ratio (y) = 0.13156 0.25948
# Poissons Ratio (z) = 0.18382 0.37496
#
# Static dielectric constant tensor:
#      x y z
#    x 3.270220 0.000000 0.000000 
#    y 0.000000 4.018570 0.000000 
#    z 0.000000 0.000000 4.003330 
# 
# 
# High freq. dielectric constant tensor:
#      x y z
#    x 1.723710 0.000000 0.000000 
#    y 0.000000 1.777460 0.000000 
#    z 0.000000 0.000000 1.764750 
# 
# From -- ./inp_files/43882.got.cif
#   From: 2010.03.12/outbox.cif.g09.slc.cpg/sg74_22_cif.got.tgz:43882.got - 2010.04.16 15:46:19.
