data_PCOD8299018
_publ_section_title
;
Structure prediction by ZEFSAII (Michael W. Deem and Ramdas Pophale) SiO2 
 PCOD8299018
Probable space group: I M M A
;
_chemical_formula_sum "Si O2"
_cell_formula_units_Z 112
_cell_length_a 13.681484
_cell_length_b 23.537328
_cell_length_c 16.865479
_cell_angle_alpha 90.000000
_cell_angle_beta 90.000000
_cell_angle_gamma 90.000000
_cell_volume 5431.115597
_symmetry_space_group_name_H-M "I M M A"
_symmetry_group_IT_number 74
_symmetry_cell_setting 'orthorhombic'
loop_
_space_group_symop_operation_xyz
x,y,z
-x,1/2-y,z
x,-y,-z
-x,1/2+y,-z
-x,-y,-z
x,1/2+y,-z
-x,y,z
x,1/2-y,z
1/2+x,1/2+y,1/2+z
1/2-x,-y,1/2+z
1/2+x,1/2-y,1/2-z
1/2-x,y,1/2-z
1/2-x,1/2-y,1/2-z
1/2+x,y,1/2-z
1/2-x,1/2+y,1/2+z
1/2+x,-y,1/2+z
loop_
_atom_site_type_symbol
_atom_site_label
_atom_site_fract_x
_atom_site_fract_y
_atom_site_fract_z
Si Si1 0.239512 0.684529 0.342934
Si Si2 0.111640 0.615566 0.724019
Si Si3 0.733488 0.496888 0.416202
Si Si4 0.890039 0.581897 0.377666
Si Si5 0.107417 0.991489 0.229252
Si Si6 0.217438 0.131003 0.121591
Si Si7 0.390304 0.684054 0.474754
O O1 0.207643 0.750000 0.356401
O O2 0.250000 0.671498 0.250000
O O3 0.157038 0.644425 0.381469
O O4 0.341628 0.671888 0.388949
O O5 0.140540 0.548065 0.722315
O O6 0.129240 0.635014 0.814996
O O7 0.181662 0.651982 0.664635
O O8 0.000000 0.626983 0.699643
O O9 0.675369 0.500000 0.500000
O O10 0.831523 0.534686 0.428370
O O11 0.675144 0.525573 0.344135
O O12 0.750653 0.431681 0.400251
O O13 0.890625 0.562231 0.286349
O O14 0.000000 0.585504 0.411785
O O15 0.000000 0.003919 0.194800
O O16 0.183497 0.162979 0.043168
O O17 0.500000 0.656234 0.477457
O O18 0.402394 0.750000 0.489401
#
# Coordination Sequence:
#
# PCOD8299018 Si02
#       7
#    16  16  16  16  16  16  16
#     4  10  22  41  64  88 115 152 199 248 301 359
#     4   9  17  32  55  84 118 161 205 241 288 355
#     4  11  21  33  51  80 117 150 188 240 295 348
#     4  11  22  37  57  81 113 154 198 240 287 346
#     4   9  18  34  55  78 109 153 196 232 284 345
#     4  10  19  33  58  88 118 159 200 249 299 359
#     4  10  22  42  66  90 118 153 195 247 307 365
#
# _framework density 20.621914
#
# number of rings (size 3 to 8) (size 9 to 14) (size 15 to 20)
#    0.000    2.000    1.429    2.571    0.000    2.000 
#    0.000    8.571    0.000    2.143    0.000    0.000 
#    0.000    0.000    0.000    0.000    0.000    0.000 
#
# Total GULP energy -693916.631914 kJ/mol
# GULP energy per Si atom -12391.368427 kJ/mol
# Density = 2.057498 g / cm^3
# Si number density = 20.621914 Si / 1000 Ang^3
#
#
#
# Elastic Constant Matrix: (Units=GPa)
#
#
# Indices 1 2 3 4 5 6 
#
# 1 139.6158 35.5707 48.7159 0.0000 0.0000 0.0000
# 2 35.5707 50.5882 23.0450 0.0000 0.0000 0.0000
# 3 48.7159 23.0450 111.3162 -0.0001 -0.0001 0.0000
# 4 0.0000 0.0000 -0.0001 24.8918 0.0000 0.0000
# 5 0.0000 0.0000 -0.0001 0.0000 15.9482 0.0000
# 6 0.0000 0.0000 0.0000 0.0000 0.0000 27.3583
#
#
#
# Elastic Compliance Matrix: (Units=1/GPa)
#
#
# Indices 1 2 3 4 5 6 
#
# 1 0.009604 -0.005342 -0.003097 0.000000 0.000000 0.000000
# 2 -0.005342 0.024797 -0.002796 0.000000 0.000000 0.000000
# 3 -0.003097 -0.002796 0.010918 0.000000 0.000000 0.000000
# 4 0.000000 0.000000 0.000000 0.040174 0.000000 0.000000
# 5 0.000000 0.000000 0.000000 0.000000 0.062703 0.000000
# 6 0.000000 0.000000 0.000000 0.000000 0.000000 0.036552
#
#
# Mechanical properties :
#
#
# Convention : Reuss Voigt Hill
#
# Bulk Modulus (GPa) = 43.76554 57.35371 50.55963
# Shear Modulus (GPa) = 23.27369 26.58556 24.92963
#
# Velocity S-wave (km/s) = 3.36309 3.59442 3.48068
# Velocity P-wave (km/s) = 6.02905 6.71557 6.38155
#
# Compressibility (1/GPa) = 0.02284903
#
# Stress axis : x y z
#
# Youngs Moduli (GPa) = 104.12009 40.32685 91.59499
#
# Poissons Ratio (x) = 0.21544 0.28369
# Poissons Ratio (y) = 0.55624 0.25607
# Poissons Ratio (z) = 0.32248 0.11274
#
# Static dielectric constant tensor:
#      x y z
#    x 3.910240 0.000000 0.000000 
#    y 0.000000 3.490600 0.000000 
#    z 0.000000 0.000000 3.896700 
# 
# 
# High freq. dielectric constant tensor:
#      x y z
#    x 1.806070 0.000000 0.000000 
#    y 0.000000 1.779640 0.000000 
#    z 0.000000 0.000000 1.806960 
# 
# From -- ./inp_files/32742.got.cif
#   From: 2010.03.12/outbox.cif.g09.slc.cpg/sg74_17_cif.got.tgz:32742.got - 2010.04.16 15:46:19.
