data_PCOD8299718
_publ_section_title
;
Structure prediction by ZEFSAII (Michael W. Deem and Ramdas Pophale) SiO2 
 PCOD8299718
Probable space group: I M M A
;
_chemical_formula_sum "Si O2"
_cell_formula_units_Z 112
_cell_length_a 16.657430
_cell_length_b 29.203045
_cell_length_c 12.344156
_cell_angle_alpha 90.000000
_cell_angle_beta 90.000000
_cell_angle_gamma 90.000000
_cell_volume 6004.786022
_symmetry_space_group_name_H-M "I M M A"
_symmetry_group_IT_number 74
_symmetry_cell_setting 'orthorhombic'
loop_
_space_group_symop_operation_xyz
x,y,z
-x,1/2-y,z
x,-y,-z
-x,1/2+y,-z
-x,-y,-z
x,1/2+y,-z
-x,y,z
x,1/2-y,z
1/2+x,1/2+y,1/2+z
1/2-x,-y,1/2+z
1/2+x,1/2-y,1/2-z
1/2-x,y,1/2-z
1/2-x,1/2-y,1/2-z
1/2+x,y,1/2-z
1/2-x,1/2+y,1/2+z
1/2+x,-y,1/2+z
loop_
_atom_site_type_symbol
_atom_site_label
_atom_site_fract_x
_atom_site_fract_y
_atom_site_fract_z
Si Si1 0.908279 0.385113 0.621377
Si Si2 0.835475 0.439889 0.803932
Si Si3 0.406727 0.453848 0.048494
Si Si4 0.842418 0.800311 0.276279
Si Si5 0.592838 0.799829 0.455833
Si Si6 0.596134 0.397655 0.481546
Si Si7 0.160198 0.453741 0.219728
O O1 0.902291 0.419485 0.723677
O O2 0.870728 0.410480 0.516247
O O3 0.860070 0.337936 0.633091
O O4 0.000000 0.371545 0.604317
O O5 0.750000 0.426003 0.750000
O O6 0.842823 0.494109 0.819627
O O7 0.850623 0.418870 0.922072
O O8 0.500000 0.455888 0.020182
O O9 0.394244 0.448037 0.174916
O O10 0.365274 0.500000 0.000000
O O11 0.866849 0.750000 0.319917
O O12 0.750000 0.801956 0.250000
O O13 0.892099 0.812716 0.169037
O O14 0.500000 0.792717 0.473967
O O15 0.634753 0.750000 0.484495
O O16 0.619839 0.843516 0.527662
O O17 0.500000 0.404244 0.501226
O O18 0.622676 0.421342 0.370854
O O19 0.250000 0.438438 0.250000
#
# Coordination Sequence:
#
# PCOD8299718 Si02
#       7
#    16  16  16  16  16  16  16
#     4  11  21  34  57  81 108 149 188 229 281 342
#     4  11  23  36  55  84 118 151 184 234 292 347
#     4  10  21  37  56  75 106 150 194 234 280 345
#     4  10  20  33  52  82 115 147 182 229 288 348
#     4   9  18  33  54  81 112 145 183 230 290 354
#     4  11  23  38  60  88 118 152 195 246 295 343
#     4  11  25  38  56  80 114 155 199 241 287 340
#
# _framework density 18.651789000000001
#
# number of rings (size 3 to 8) (size 9 to 14) (size 15 to 20)
#    0.000    1.571    2.857    2.143    2.000    3.143 
#    0.000    0.000    0.000    1.286    0.000    2.000 
#    0.000    0.000    0.000    0.000    0.000    0.000 
#
# Total GULP energy -694137.273072 kJ/mol
# GULP energy per Si atom -12395.308448 kJ/mol
# Density = 1.860934 g / cm^3
# Si number density = 18.651789 Si / 1000 Ang^3
#
#
#
# Elastic Constant Matrix: (Units=GPa)
#
#
# Indices 1 2 3 4 5 6 
#
# 1 45.5562 44.6517 23.3644 -0.0001 0.0000 0.0000
# 2 44.6517 162.6974 71.6167 -0.0002 0.0002 0.0002
# 3 23.3644 71.6167 118.2868 -0.0038 0.0004 0.0013
# 4 -0.0001 -0.0002 -0.0038 30.0734 0.0003 0.0005
# 5 0.0000 0.0002 0.0004 0.0003 25.8249 -0.0003
# 6 0.0000 0.0002 0.0013 0.0005 -0.0003 22.8675
#
#
#
# Elastic Compliance Matrix: (Units=1/GPa)
#
#
# Indices 1 2 3 4 5 6 
#
# 1 0.030172 -0.007713 -0.001290 0.000000 0.000000 0.000000
# 2 -0.007713 0.010351 -0.004744 -0.000001 0.000000 0.000000
# 3 -0.001290 -0.004744 0.011581 0.000001 0.000000 -0.000001
# 4 0.000000 -0.000001 0.000001 0.033252 0.000000 -0.000001
# 5 0.000000 0.000000 0.000000 0.000000 0.038722 0.000001
# 6 0.000000 0.000000 -0.000001 -0.000001 0.000001 0.043730
#
#
# Mechanical properties :
#
#
# Convention : Reuss Voigt Hill
#
# Bulk Modulus (GPa) = 40.63170 67.31179 53.97175
# Shear Modulus (GPa) = 24.56935 28.21366 26.39151
#
# Velocity S-wave (km/s) = 3.63335 3.89350 3.76567
# Velocity P-wave (km/s) = 6.27959 7.50863 6.92144
#
# Compressibility (1/GPa) = 0.02461132
#
# Stress axis : x y z
#
# Youngs Moduli (GPa) = 33.14310 96.60689 86.34909
#
# Poissons Ratio (x) = 0.74511 0.11139
# Poissons Ratio (y) = 0.25563 0.40961
# Poissons Ratio (z) = 0.04275 0.45827
#
# Static dielectric constant tensor:
#      x y z
#    x 3.387590 0.000000 0.000000 
#    y 0.000000 3.947770 0.000000 
#    z 0.000000 0.000000 3.215230 
# 
# 
# High freq. dielectric constant tensor:
#      x y z
#    x 1.722010 0.000000 0.000000 
#    y 0.000000 1.737630 0.000000 
#    z 0.000000 0.000000 1.695880 
# 
# From -- ./inp_files/21104.got.cif
#   From: 2010.03.12/outbox.cif.g09.slc.cpg/sg74_11_cif.got.tgz:21104.got - 2010.04.16 15:46:19.
