data_PCOD8299405
_publ_section_title
;
Structure prediction by ZEFSAII (Michael W. Deem and Ramdas Pophale) SiO2 
 PCOD8299405
Probable space group: I M M A
;
_chemical_formula_sum "Si O2"
_cell_formula_units_Z 64
_cell_length_a 13.227386
_cell_length_b 7.578886
_cell_length_c 36.956876
_cell_angle_alpha 90.000000
_cell_angle_beta 90.000000
_cell_angle_gamma 90.000000
_cell_volume 3704.884340
_symmetry_space_group_name_H-M "I M M A"
_symmetry_group_IT_number 74
_symmetry_cell_setting 'orthorhombic'
loop_
_space_group_symop_operation_xyz
x,y,z
-x,1/2-y,z
x,-y,-z
-x,1/2+y,-z
-x,-y,-z
x,1/2+y,-z
-x,y,z
x,1/2-y,z
1/2+x,1/2+y,1/2+z
1/2-x,-y,1/2+z
1/2+x,1/2-y,1/2-z
1/2-x,y,1/2-z
1/2-x,1/2-y,1/2-z
1/2+x,y,1/2-z
1/2-x,1/2+y,1/2+z
1/2+x,-y,1/2+z
loop_
_atom_site_type_symbol
_atom_site_label
_atom_site_fract_x
_atom_site_fract_y
_atom_site_fract_z
Si Si1 0.705975 0.045333 0.612165
Si Si2 0.883932 0.547140 0.335700
Si Si3 0.612336 0.545286 0.460710
Si Si4 0.110901 0.750000 0.844078
Si Si5 0.787222 0.250000 0.290761
O O1 0.678277 0.250000 0.617997
O O2 0.818192 0.004732 0.628061
O O3 0.693657 0.987371 0.569997
O O4 0.625029 0.927894 0.633031
O O5 0.868646 0.750000 0.323523
O O6 0.850702 0.424287 0.302043
O O7 0.000000 0.508271 0.345876
O O8 0.658510 0.500000 0.500000
O O9 0.500000 0.456143 0.455967
O O10 0.596027 0.750000 0.457221
O O11 0.181541 0.750000 0.810126
O O12 0.000000 0.750000 0.827823
O O13 0.750000 0.250000 0.250000
#
# Coordination Sequence:
#
# PCOD8299405 Si02
#       5
#    16  16  16   8   8
#     4   9  18  32  48  69  96 125 162 207 243 283
#     4   9  18  34  56  77  96 127 169 206 244 289
#     4   9  17  27  41  63  92 127 161 197 245 296
#     4  10  20  31  48  71  94 128 164 193 240 295
#     4  10  21  35  52  75 105 130 155 201 248 295
#
# _framework density 17.274494000000001
#
# number of rings (size 3 to 8) (size 9 to 14) (size 15 to 20)
#    0.000    2.750    0.000    1.125    1.750    3.000 
#    0.000    0.000    0.000    0.750    0.000    0.000 
#    0.000    0.000    0.000    0.000    0.000    0.000 
#
# Total GULP energy -396460.978480 kJ/mol
# GULP energy per Si atom -12389.405578 kJ/mol
# Density = 1.723518 g / cm^3
# Si number density = 17.274494 Si / 1000 Ang^3
#
#
#
# Elastic Constant Matrix: (Units=GPa)
#
#
# Indices 1 2 3 4 5 6 
#
# 1 110.7679 42.1163 56.2428 0.0000 0.0000 0.0000
# 2 42.1163 72.6929 42.1018 0.0000 0.0000 0.0000
# 3 56.2428 42.1018 141.0496 0.0000 0.0000 0.0000
# 4 0.0000 0.0000 0.0000 21.2903 0.0000 0.0000
# 5 0.0000 0.0000 0.0000 0.0000 25.8800 0.0000
# 6 0.0000 0.0000 0.0000 0.0000 0.0000 16.5887
#
#
#
# Elastic Compliance Matrix: (Units=1/GPa)
#
#
# Indices 1 2 3 4 5 6 
#
# 1 0.012875 -0.005424 -0.003515 0.000000 0.000000 0.000000
# 2 -0.005424 0.018916 -0.003484 0.000000 0.000000 0.000000
# 3 -0.003515 -0.003484 0.009531 0.000000 0.000000 0.000000
# 4 0.000000 0.000000 0.000000 0.046970 0.000000 0.000000
# 5 0.000000 0.000000 0.000000 0.000000 0.038640 0.000000
# 6 0.000000 0.000000 0.000000 0.000000 0.000000 0.060282
#
#
# Mechanical properties :
#
#
# Convention : Reuss Voigt Hill
#
# Bulk Modulus (GPa) = 60.68713 67.27024 63.97868
# Shear Modulus (GPa) = 22.98316 25.02178 24.00247
#
# Velocity S-wave (km/s) = 3.65152 3.81002 3.73161
# Velocity P-wave (km/s) = 7.27911 7.64078 7.46213
#
# Compressibility (1/GPa) = 0.01647796
#
# Stress axis : x y z
#
# Youngs Moduli (GPa) = 77.67159 52.86408 104.91973
#
# Poissons Ratio (x) = 0.28671 0.36878
# Poissons Ratio (y) = 0.42126 0.36551
# Poissons Ratio (z) = 0.27300 0.18416
#
# Static dielectric constant tensor:
#      x y z
#    x 3.297860 0.000000 0.000000 
#    y 0.000000 28.227420 0.000000 
#    z 0.000000 0.000000 3.502030 
# 
# 
# High freq. dielectric constant tensor:
#      x y z
#    x 1.650810 0.000000 0.000000 
#    y 0.000000 1.680290 0.000000 
#    z 0.000000 0.000000 1.653370 
# 
# From -- ./inp_files/71318.got.cif
#   From: 2010.03.12/outbox.cif.g09.slc.cpg/sg74_36_cif.got.tgz:71318.got - 2010.04.16 15:46:19.
