data_PCOD8299254
_publ_section_title
;
Structure prediction by ZEFSAII (Michael W. Deem and Ramdas Pophale) SiO2 
 PCOD8299254
Probable space group: I M M A
;
_chemical_formula_sum "Si O2"
_cell_formula_units_Z 64
_cell_length_a 22.373024
_cell_length_b 17.782317
_cell_length_c 7.452705
_cell_angle_alpha 90.000000
_cell_angle_beta 90.000000
_cell_angle_gamma 90.000000
_cell_volume 2965.015496
_symmetry_space_group_name_H-M "I M M A"
_symmetry_group_IT_number 74
_symmetry_cell_setting 'orthorhombic'
loop_
_space_group_symop_operation_xyz
x,y,z
-x,1/2-y,z
x,-y,-z
-x,1/2+y,-z
-x,-y,-z
x,1/2+y,-z
-x,y,z
x,1/2-y,z
1/2+x,1/2+y,1/2+z
1/2-x,-y,1/2+z
1/2+x,1/2-y,1/2-z
1/2-x,y,1/2-z
1/2-x,1/2-y,1/2-z
1/2+x,y,1/2-z
1/2-x,1/2+y,1/2+z
1/2+x,-y,1/2+z
loop_
_atom_site_type_symbol
_atom_site_label
_atom_site_fract_x
_atom_site_fract_y
_atom_site_fract_z
Si Si1 0.067834 0.063899 0.724763
Si Si2 0.635647 0.663333 0.502697
Si Si3 0.381256 0.907642 0.876158
Si Si4 0.752198 0.083559 0.457448
O O1 0.068823 0.106569 0.529654
O O2 0.000000 0.039937 0.766298
O O3 0.109659 0.989824 0.713556
O O4 0.089059 0.116876 0.884959
O O5 0.627661 0.750000 0.455445
O O6 0.620067 0.651752 0.714131
O O7 0.703896 0.639350 0.452074
O O8 0.321492 0.903015 0.004096
O O9 0.750000 0.099322 0.250000
O O10 0.730201 0.000000 0.500000
#
# Coordination Sequence:
#
# PCOD8299254 Si02
#       4
#    16  16  16  16
#     4  11  23  42  67  95 120 160 221 268 305 368
#     4  11  25  40  58  93 134 170 203 249 317 387
#     4  10  21  40  68  92 120 158 209 271 318 362
#     4  10  19  35  64  90 122 157 207 259 322 372
#
# _framework density 21.585048
#
# number of rings (size 3 to 8) (size 9 to 14) (size 15 to 20)
#    0.000    1.500    2.500    5.250    0.000    9.000 
#    0.000    1.250    0.000    0.000    0.000    0.000 
#    0.000    0.000    0.000    0.000    0.000    0.000 
#
# Total GULP energy -396493.712591 kJ/mol
# GULP energy per Si atom -12390.428518 kJ/mol
# Density = 2.153592 g / cm^3
# Si number density = 21.585048 Si / 1000 Ang^3
#
#
#
# Elastic Constant Matrix: (Units=GPa)
#
#
# Indices 1 2 3 4 5 6 
#
# 1 106.7702 20.9228 20.1389 0.0000 0.0000 0.0000
# 2 20.9228 56.0729 18.5118 0.0000 0.0000 0.0000
# 3 20.1389 18.5118 70.9067 0.0000 0.0000 0.0000
# 4 0.0000 0.0000 0.0000 23.8789 0.0000 0.0000
# 5 0.0000 0.0000 0.0000 0.0000 34.9241 0.0000
# 6 0.0000 0.0000 0.0000 0.0000 0.0000 41.0241
#
#
#
# Elastic Compliance Matrix: (Units=1/GPa)
#
#
# Indices 1 2 3 4 5 6 
#
# 1 0.010388 -0.003176 -0.002121 0.000000 0.000000 0.000000
# 2 -0.003176 0.020487 -0.004447 0.000000 0.000000 0.000000
# 3 -0.002121 -0.004447 0.015866 0.000000 0.000000 0.000000
# 4 0.000000 0.000000 0.000000 0.041878 0.000000 0.000000
# 5 0.000000 0.000000 0.000000 0.000000 0.028634 0.000000
# 6 0.000000 0.000000 0.000000 0.000000 0.000000 0.024376
#
#
# Mechanical properties :
#
#
# Convention : Reuss Voigt Hill
#
# Bulk Modulus (GPa) = 36.69180 39.21078 37.95129
# Shear Modulus (GPa) = 29.37693 31.57717 30.47705
#
# Velocity S-wave (km/s) = 3.69316 3.82896 3.76167
# Velocity P-wave (km/s) = 5.93477 6.14435 6.04047
#
# Compressibility (1/GPa) = 0.02725405
#
# Stress axis : x y z
#
# Youngs Moduli (GPa) = 96.26123 48.81155 63.02619
#
# Poissons Ratio (x) = 0.15502 0.13370
# Poissons Ratio (y) = 0.30572 0.28025
# Poissons Ratio (z) = 0.20420 0.21704
#
# Static dielectric constant tensor:
#      x y z
#    x 5.108500 0.000000 0.000000 
#    y 0.000000 3.459580 0.000000 
#    z 0.000000 0.000000 4.238320 
# 
# 
# High freq. dielectric constant tensor:
#      x y z
#    x 1.854890 0.000000 0.000000 
#    y 0.000000 1.804640 0.000000 
#    z 0.000000 0.000000 1.855930 
# 
# From -- ./inp_files/10573.got.cif
#   From: 2010.03.12/outbox.cif.g09.slc.cpg/sg74_6_cif.got.tgz:10573.got - 2010.04.16 15:46:19.
