data_PCOD8299970
_publ_section_title
;
Structure prediction by ZEFSAII (Michael W. Deem and Ramdas Pophale) SiO2 
 PCOD8299970
Probable space group: I M M A
;
_chemical_formula_sum "Si O2"
_cell_formula_units_Z 96
_cell_length_a 15.366886
_cell_length_b 14.589708
_cell_length_c 20.888021
_cell_angle_alpha 90.000000
_cell_angle_beta 90.000000
_cell_angle_gamma 90.000000
_cell_volume 4683.060461
_symmetry_space_group_name_H-M "I M M A"
_symmetry_group_IT_number 74
_symmetry_cell_setting 'orthorhombic'
loop_
_space_group_symop_operation_xyz
x,y,z
-x,1/2-y,z
x,-y,-z
-x,1/2+y,-z
-x,-y,-z
x,1/2+y,-z
-x,y,z
x,1/2-y,z
1/2+x,1/2+y,1/2+z
1/2-x,-y,1/2+z
1/2+x,1/2-y,1/2-z
1/2-x,y,1/2-z
1/2-x,1/2-y,1/2-z
1/2+x,y,1/2-z
1/2-x,1/2+y,1/2+z
1/2+x,-y,1/2+z
loop_
_atom_site_type_symbol
_atom_site_label
_atom_site_fract_x
_atom_site_fract_y
_atom_site_fract_z
Si Si1 0.402052 0.645346 0.756559
Si Si2 0.272350 0.353082 0.918494
Si Si3 0.403188 0.104777 0.514022
Si Si4 0.656097 0.149957 0.381286
Si Si5 0.180720 0.035966 0.363513
Si Si6 0.596838 0.853833 0.967476
O O1 0.500000 0.630656 0.781088
O O2 0.371865 0.750000 0.770527
O O3 0.400513 0.623483 0.680925
O O4 0.338772 0.572857 0.792059
O O5 0.290690 0.250000 0.892963
O O6 0.170135 0.359407 0.936746
O O7 0.304605 0.425777 0.864573
O O8 0.330260 0.375572 0.980280
O O9 0.500000 0.121212 0.543784
O O10 0.401439 0.154831 0.445309
O O11 0.385131 0.000000 0.500000
O O12 0.698143 0.250000 0.370286
O O13 0.731249 0.077109 0.391884
O O14 0.104655 0.073196 0.409836
O O15 0.500000 0.865218 0.997035
O O16 0.609393 0.750000 0.941264
#
# Coordination Sequence:
#
# PCOD8299970 Si02
#       6
#    16  16  16  16  16  16
#     4  10  22  38  58  88 121 153 192 237 295 363
#     4  11  23  39  56  81 117 157 203 248 291 341
#     4  11  21  37  61  89 120 158 198 240 296 357
#     4  11  21  36  59  88 120 152 185 233 294 358
#     4  12  21  35  56  83 115 156 196 239 288 348
#     4  10  20  34  55  83 117 155 194 240 296 355
#
# _framework density 20.499414999999999
#
# number of rings (size 3 to 8) (size 9 to 14) (size 15 to 20)
#    0.000    1.167    3.333    4.000    0.000    6.667 
#    0.000    0.000    0.000    2.000    0.000    0.000 
#    0.000    0.000    0.000    0.000    0.000    0.000 
#
# Total GULP energy -595010.605595 kJ/mol
# GULP energy per Si atom -12396.054283 kJ/mol
# Density = 2.045276 g / cm^3
# Si number density = 20.499415 Si / 1000 Ang^3
#
#
#
# Elastic Constant Matrix: (Units=GPa)
#
#
# Indices 1 2 3 4 5 6 
#
# 1 99.5794 27.0209 15.8732 0.0000 0.0000 0.0000
# 2 27.0209 132.9490 40.8164 0.0000 0.0000 0.0000
# 3 15.8732 40.8164 64.6757 0.0000 0.0000 0.0000
# 4 0.0000 0.0000 0.0000 24.3756 0.0000 0.0000
# 5 0.0000 0.0000 0.0000 0.0000 18.7778 0.0000
# 6 0.0000 0.0000 0.0000 0.0000 0.0000 25.1192
#
#
#
# Elastic Compliance Matrix: (Units=1/GPa)
#
#
# Indices 1 2 3 4 5 6 
#
# 1 0.010754 -0.001706 -0.001563 0.000000 0.000000 0.000000
# 2 -0.001706 0.009600 -0.005640 0.000000 0.000000 0.000000
# 3 -0.001563 -0.005640 0.019404 0.000000 0.000000 0.000000
# 4 0.000000 0.000000 0.000000 0.041025 0.000000 0.000000
# 5 0.000000 0.000000 0.000000 0.000000 0.053254 0.000000
# 6 0.000000 0.000000 0.000000 0.000000 0.000000 0.039810
#
#
# Mechanical properties :
#
#
# Convention : Reuss Voigt Hill
#
# Bulk Modulus (GPa) = 45.57526 51.62500 48.60013
# Shear Modulus (GPa) = 25.12834 27.88742 26.50788
#
# Velocity S-wave (km/s) = 3.50495 3.69236 3.59988
# Velocity P-wave (km/s) = 6.21774 6.58911 6.40612
#
# Compressibility (1/GPa) = 0.02194173
#
# Stress axis : x y z
#
# Youngs Moduli (GPa) = 92.98641 104.16845 51.53450
#
# Poissons Ratio (x) = 0.17771 0.08054
# Poissons Ratio (y) = 0.15863 0.29064
# Poissons Ratio (z) = 0.14532 0.58748
#
# Static dielectric constant tensor:
#      x y z
#    x 3.804020 0.000000 0.000000 
#    y 0.000000 3.882880 0.000000 
#    z 0.000000 0.000000 3.371910 
# 
# 
# High freq. dielectric constant tensor:
#      x y z
#    x 1.811480 0.000000 0.000000 
#    y 0.000000 1.795210 0.000000 
#    z 0.000000 0.000000 1.758520 
# 
# From -- ./inp_files/51848.got.cif
#   From: 2010.03.12/outbox.cif.g09.slc.cpg/sg74_26_cif.got.tgz:51848.got - 2010.04.16 15:46:19.
