data_PCOD8299612
_publ_section_title
;
Structure prediction by ZEFSAII (Michael W. Deem and Ramdas Pophale) SiO2 
 PCOD8299612
Probable space group: I M M A
;
_chemical_formula_sum "Si O2"
_cell_formula_units_Z 80
_cell_length_a 18.617502
_cell_length_b 9.085340
_cell_length_c 26.079754
_cell_angle_alpha 90.000000
_cell_angle_beta 90.000000
_cell_angle_gamma 90.000000
_cell_volume 4411.294823
_symmetry_space_group_name_H-M "I M M A"
_symmetry_group_IT_number 74
_symmetry_cell_setting 'orthorhombic'
loop_
_space_group_symop_operation_xyz
x,y,z
-x,1/2-y,z
x,-y,-z
-x,1/2+y,-z
-x,-y,-z
x,1/2+y,-z
-x,y,z
x,1/2-y,z
1/2+x,1/2+y,1/2+z
1/2-x,-y,1/2+z
1/2+x,1/2-y,1/2-z
1/2-x,y,1/2-z
1/2-x,1/2-y,1/2-z
1/2+x,y,1/2-z
1/2-x,1/2+y,1/2+z
1/2+x,-y,1/2+z
loop_
_atom_site_type_symbol
_atom_site_label
_atom_site_fract_x
_atom_site_fract_y
_atom_site_fract_z
Si Si1 0.914349 0.412482 0.547774
Si Si2 0.079722 0.074597 0.658715
Si Si3 0.916809 0.423636 0.153377
Si Si4 0.166641 0.922424 0.244060
Si Si5 0.585271 0.083831 0.549800
O O1 0.880738 0.500000 0.500000
O O2 0.881598 0.250000 0.543691
O O3 0.893265 0.484342 0.602965
O O4 0.000000 0.407339 0.544212
O O5 0.077849 0.250000 0.655371
O O6 0.131744 0.019355 0.703280
O O7 0.000000 0.014237 0.670873
O O8 0.905816 0.250000 0.148685
O O9 0.866974 0.486575 0.197903
O O10 0.890536 0.497258 0.100582
O O11 0.000000 0.463012 0.164916
O O12 0.151235 0.750000 0.234769
O O13 0.250000 0.956408 0.250000
O O14 0.500000 0.087850 0.546263
O O15 0.616115 0.250000 0.551520
O O16 0.616747 0.000000 0.500000
#
# Coordination Sequence:
#
# PCOD8299612 Si02
#       5
#    16  16  16  16  16
#     4   8  13  22  38  61  87 113 140 174 219 267
#     4   8  14  26  45  67  91 119 150 186 230 280
#     4  10  20  33  50  73 100 130 165 205 249 297
#     4  10  20  33  50  71  94 125 165 205 247 295
#     4   9  16  27  46  73 103 131 159 196 243 293
#
# _framework density 18.135263999999999
#
# number of rings (size 3 to 8) (size 9 to 14) (size 15 to 20)
#    0.000    3.000    0.000    3.000    0.000    4.800 
#    0.000    1.000    0.000    4.800    0.000    2.800 
#    0.000    0.000    0.000    0.000    0.000    0.000 
#
# Total GULP energy -495784.212515 kJ/mol
# GULP energy per Si atom -12394.605313 kJ/mol
# Density = 1.809399 g / cm^3
# Si number density = 18.135264 Si / 1000 Ang^3
#
#
#
# Elastic Constant Matrix: (Units=GPa)
#
#
# Indices 1 2 3 4 5 6 
#
# 1 58.0758 31.9961 61.2596 0.0000 0.0000 0.0000
# 2 31.9961 90.9217 71.2493 0.0000 0.0000 0.0000
# 3 61.2596 71.2493 200.6505 0.0000 0.0000 0.0000
# 4 0.0000 0.0000 0.0000 36.2491 0.0000 0.0000
# 5 0.0000 0.0000 0.0000 0.0000 -0.3087 0.0000
# 6 0.0000 0.0000 0.0000 0.0000 0.0000 12.8873
#
#
#
# Elastic Compliance Matrix: (Units=1/GPa)
#
#
# Indices 1 2 3 4 5 6 
#
# 1 0.026473 -0.004132 -0.006615 0.000000 0.000000 0.000000
# 2 -0.004132 0.015884 -0.004379 0.000000 0.000000 0.000000
# 3 -0.006615 -0.004379 0.008558 0.000000 0.000000 0.000000
# 4 0.000000 0.000000 0.000000 0.027587 0.000000 0.000000
# 5 0.000000 0.000000 0.000000 0.000000 -3.239443 0.000000
# 6 0.000000 0.000000 0.000000 0.000000 0.000000 0.077596
#
#
# Mechanical properties :
#
#
# Convention : Reuss Voigt Hill
#
# Bulk Modulus (GPa) = 48.39501 75.40645 61.90073
# Shear Modulus (GPa) = -1.64139 22.10840 10.23351
#
# Velocity S-wave (km/s) = -0.95239 3.49533 2.37805
# Velocity P-wave (km/s) = 5.05313 7.61315 6.46120
#
# Compressibility (1/GPa) = 0.02066329
#
# Stress axis : x y z
#
# Youngs Moduli (GPa) = 37.77406 62.95674 116.84705
#
# Poissons Ratio (x) = 0.26016 0.77295
# Poissons Ratio (y) = 0.15610 0.51163
# Poissons Ratio (z) = 0.24988 0.27566
#
# Static dielectric constant tensor:
#      x y z
#    x 2.891470 0.000000 0.000000 
#    y 0.000000 3.280000 0.000000 
#    z 0.000000 0.000000 3.753880 
# 
# 
# High freq. dielectric constant tensor:
#      x y z
#    x 1.649150 0.000000 0.000000 
#    y 0.000000 1.683200 0.000000 
#    z 0.000000 0.000000 1.726050 
# 
# From -- ./inp_files/63976.got.cif
#   From: 2010.03.12/outbox.cif.g09.slc.cpg/sg74_32_cif.got.tgz:63976.got - 2010.04.16 15:46:19.
