data_PCOD8299314
_publ_section_title
;
Structure prediction by ZEFSAII (Michael W. Deem and Ramdas Pophale) SiO2 
 PCOD8299314
Probable space group: I M M A
;
_chemical_formula_sum "Si O2"
_cell_formula_units_Z 72
_cell_length_a 8.777955
_cell_length_b 26.627215
_cell_length_c 14.598085
_cell_angle_alpha 90.000000
_cell_angle_beta 90.000000
_cell_angle_gamma 90.000000
_cell_volume 3412.046830
_symmetry_space_group_name_H-M "I M M A"
_symmetry_group_IT_number 74
_symmetry_cell_setting 'orthorhombic'
loop_
_space_group_symop_operation_xyz
x,y,z
-x,1/2-y,z
x,-y,-z
-x,1/2+y,-z
-x,-y,-z
x,1/2+y,-z
-x,y,z
x,1/2-y,z
1/2+x,1/2+y,1/2+z
1/2-x,-y,1/2+z
1/2+x,1/2-y,1/2-z
1/2-x,y,1/2-z
1/2-x,1/2-y,1/2-z
1/2+x,y,1/2-z
1/2-x,1/2+y,1/2+z
1/2+x,-y,1/2+z
loop_
_atom_site_type_symbol
_atom_site_label
_atom_site_fract_x
_atom_site_fract_y
_atom_site_fract_z
Si Si1 0.679719 0.163219 0.524566
Si Si2 0.825049 0.523309 0.905497
Si Si3 0.682180 0.250000 0.852271
Si Si4 0.319814 0.874459 0.847218
Si Si5 0.830320 0.917159 0.162360
O O1 0.500000 0.174490 0.517092
O O2 0.759939 0.202253 0.591350
O O3 0.751965 0.163456 0.423192
O O4 0.720302 0.107963 0.566155
O O5 0.721082 0.567872 0.869011
O O6 0.813196 0.477172 0.835089
O O7 0.000000 0.542632 0.916299
O O8 0.764017 0.500000 0.000000
O O9 0.500000 0.250000 0.846564
O O10 0.750000 0.250000 0.750000
O O11 0.500000 0.868755 0.843193
O O12 0.250000 0.858537 0.750000
O O13 0.750000 0.893145 0.250000
O O14 0.000000 0.899277 0.177323
#
# Coordination Sequence:
#
# PCOD8299314 Si02
#       5
#    16  16   8  16  16
#     4  11  23  44  68  93 125 167 211 264 323 382
#     4  10  19  37  59  85 124 170 214 263 315 371
#     4  12  26  46  71 104 135 168 208 256 318 386
#     4  12  25  41  63  93 128 172 219 267 319 382
#     4  10  21  35  57  86 121 162 207 256 311 371
#
# _framework density 21.101704000000002
#
# number of rings (size 3 to 8) (size 9 to 14) (size 15 to 20)
#    0.000    1.111    2.222    5.000    0.000    6.667 
#    0.000    0.556    0.000    0.000    0.000    0.000 
#    0.000    0.000    0.000    0.000    0.000    0.000 
#
# Total GULP energy -446307.650224 kJ/mol
# GULP energy per Si atom -12397.434728 kJ/mol
# Density = 2.105368 g / cm^3
# Si number density = 21.101704 Si / 1000 Ang^3
#
#
#
# Elastic Constant Matrix: (Units=GPa)
#
#
# Indices 1 2 3 4 5 6 
#
# 1 151.1240 46.5226 81.1315 0.0000 0.0000 0.0000
# 2 46.5226 74.9526 40.1001 -0.0001 0.0000 0.0000
# 3 81.1315 40.1001 183.7801 0.0000 0.0000 -0.0001
# 4 0.0000 -0.0001 0.0000 31.6172 0.0000 0.0000
# 5 0.0000 0.0000 0.0000 0.0000 39.4691 0.0000
# 6 0.0000 0.0000 -0.0001 0.0000 0.0000 25.0555
#
#
#
# Elastic Compliance Matrix: (Units=1/GPa)
#
#
# Indices 1 2 3 4 5 6 
#
# 1 0.009731 -0.004236 -0.003372 0.000000 0.000000 0.000000
# 2 -0.004236 0.016949 -0.001828 0.000000 0.000000 0.000000
# 3 -0.003372 -0.001828 0.007329 0.000000 0.000000 0.000000
# 4 0.000000 0.000000 0.000000 0.031628 0.000000 0.000000
# 5 0.000000 0.000000 0.000000 0.000000 0.025336 0.000000
# 6 0.000000 0.000000 0.000000 0.000000 0.000000 0.039911
#
#
# Mechanical properties :
#
#
# Convention : Reuss Voigt Hill
#
# Bulk Modulus (GPa) = 66.06292 82.81835 74.44063
# Shear Modulus (GPa) = 32.29913 35.36853 33.83383
#
# Velocity S-wave (km/s) = 3.91658 4.09846 4.00855
# Velocity P-wave (km/s) = 7.19915 7.85678 7.53514
#
# Compressibility (1/GPa) = 0.01513708
#
# Stress axis : x y z
#
# Youngs Moduli (GPa) = 102.76152 58.99957 136.45170
#
# Poissons Ratio (x) = 0.24994 0.46006
# Poissons Ratio (y) = 0.43533 0.24945
# Poissons Ratio (z) = 0.34647 0.10786
#
# Static dielectric constant tensor:
#      x y z
#    x 3.764330 0.000000 0.000000 
#    y 0.000000 3.740180 0.000000 
#    z 0.000000 0.000000 4.052130 
# 
# 
# High freq. dielectric constant tensor:
#      x y z
#    x 1.822830 0.000000 0.000000 
#    y 0.000000 1.812130 0.000000 
#    z 0.000000 0.000000 1.845930 
# 
# From -- ./inp_files/29198.got.cif
#   From: 2010.03.12/outbox.cif.g09.slc.cpg/sg74_15_cif.got.tgz:29198.got - 2010.04.16 15:46:19.
