data_PCOD8299233
_publ_section_title
;
Structure prediction by ZEFSAII (Michael W. Deem and Ramdas Pophale) SiO2 
 PCOD8299233
Probable space group: I M M A
;
_chemical_formula_sum "Si O2"
_cell_formula_units_Z 88
_cell_length_a 15.338298
_cell_length_b 27.980152
_cell_length_c 10.596303
_cell_angle_alpha 90.000000
_cell_angle_beta 90.000000
_cell_angle_gamma 90.000000
_cell_volume 4547.593207
_symmetry_space_group_name_H-M "I M M A"
_symmetry_group_IT_number 74
_symmetry_cell_setting 'orthorhombic'
loop_
_space_group_symop_operation_xyz
x,y,z
-x,1/2-y,z
x,-y,-z
-x,1/2+y,-z
-x,-y,-z
x,1/2+y,-z
-x,y,z
x,1/2-y,z
1/2+x,1/2+y,1/2+z
1/2-x,-y,1/2+z
1/2+x,1/2-y,1/2-z
1/2-x,y,1/2-z
1/2-x,1/2-y,1/2-z
1/2+x,y,1/2-z
1/2-x,1/2+y,1/2+z
1/2+x,-y,1/2+z
loop_
_atom_site_type_symbol
_atom_site_label
_atom_site_fract_x
_atom_site_fract_y
_atom_site_fract_z
Si Si1 0.500000 0.589115 0.660253
Si Si2 0.000000 0.899712 0.136744
Si Si3 0.158877 0.453296 0.538151
Si Si4 0.658838 0.865747 0.208056
Si Si5 0.600810 0.695594 0.980379
Si Si6 0.342180 0.116535 0.188614
Si Si7 0.500000 0.989806 0.193542
O O1 0.500000 0.589889 0.510391
O O2 0.586129 0.617357 0.702193
O O3 0.500000 0.537673 0.724865
O O4 0.089382 0.872761 0.178751
O O5 0.000000 0.950080 0.201182
O O6 0.221004 0.500000 0.500000
O O7 0.192159 0.415330 0.641234
O O8 0.131604 0.423393 0.414460
O O9 0.081202 0.483250 0.601842
O O10 0.750000 0.841719 0.250000
O O11 0.610982 0.829830 0.114418
O O12 0.500000 0.692287 0.940215
O O13 0.633132 0.750000 0.989181
O O14 0.659424 0.668666 0.876322
O O15 0.250000 0.104436 0.250000
#
# Coordination Sequence:
#
# PCOD8299233 Si02
#       7
#     8   8  16  16  16  16   8
#     4  12  22  38  60  86 128 168 196 257 298 366
#     4  10  23  37  54  89 127 163 198 253 302 356
#     4  10  19  35  60  83 118 159 210 247 283 343
#     4  10  22  39  61  89 121 159 197 251 304 360
#     4  10  21  42  71  91 110 151 208 258 300 365
#     4  11  24  38  60  94 122 161 201 249 312 363
#     4  10  19  38  59  84 114 169 217 251 291 331
#
# _framework density 19.350895000000001
#
# number of rings (size 3 to 8) (size 9 to 14) (size 15 to 20)
#    0.000    1.636    3.636    1.091    7.636    1.455 
#    0.000    0.000    0.000    1.091    0.000    0.000 
#    0.000    0.000    0.000    0.000    0.000    0.000 
#
# Total GULP energy -545100.347747 kJ/mol
# GULP energy per Si atom -12388.644267 kJ/mol
# Density = 1.930685 g / cm^3
# Si number density = 19.350895 Si / 1000 Ang^3
#
#
#
# Elastic Constant Matrix: (Units=GPa)
#
#
# Indices 1 2 3 4 5 6 
#
# 1 102.7946 16.2317 44.2429 0.0000 -0.0001 -0.0003
# 2 16.2317 115.8224 40.6221 -0.0001 -0.0001 -0.0009
# 3 44.2429 40.6221 136.7720 -0.0022 -0.0005 -0.0067
# 4 0.0000 -0.0001 -0.0022 17.5165 -0.0004 -0.0024
# 5 -0.0001 -0.0001 -0.0005 -0.0004 40.5308 -0.0005
# 6 -0.0003 -0.0009 -0.0067 -0.0024 -0.0005 -2.2015
#
#
#
# Elastic Compliance Matrix: (Units=1/GPa)
#
#
# Indices 1 2 3 4 5 6 
#
# 1 0.011313 -0.000337 -0.003560 0.000000 0.000000 0.000009
# 2 -0.000337 0.009648 -0.002756 0.000000 0.000000 0.000005
# 3 -0.003560 -0.002756 0.009282 0.000001 0.000000 -0.000027
# 4 0.000000 0.000000 0.000001 0.057089 0.000001 -0.000063
# 5 0.000000 0.000000 0.000000 0.000001 0.024673 -0.000005
# 6 0.000009 0.000005 -0.000027 -0.000063 -0.000005 -0.454243
#
#
# Mechanical properties :
#
#
# Convention : Reuss Voigt Hill
#
# Bulk Modulus (GPa) = 59.04320 61.95360 60.49840
# Shear Modulus (GPa) = -15.46614 28.12198 6.32792
#
# Velocity S-wave (km/s) = -2.83016 3.81631 1.81030
# Velocity P-wave (km/s) = 4.46076 7.17665 5.97506
#
# Compressibility (1/GPa) = 0.01693675
#
# Stress axis : x y z
#
# Youngs Moduli (GPa) = 88.39084 103.64937 107.74058
#
# Poissons Ratio (x) = 0.03494 0.38351
# Poissons Ratio (y) = 0.02979 0.29698
# Poissons Ratio (z) = 0.31463 0.28571
#
# Static dielectric constant tensor:
#      x y z
#    x 3.344550 0.000000 0.000000 
#    y 0.000000 3.601830 0.000000 
#    z 0.000000 0.000000 3.613030 
# 
# 
# High freq. dielectric constant tensor:
#      x y z
#    x 1.733770 0.000000 0.000000 
#    y 0.000000 1.748480 0.000000 
#    z 0.000000 0.000000 1.760680 
# 
# From -- ./inp_files/11281.got.cif
#   From: 2010.03.12/outbox.cif.g09.slc.cpg/sg74_6_cif.got.tgz:11281.got - 2010.04.16 15:46:19.
