data_PCOD8299300
_publ_section_title
;
Structure prediction by ZEFSAII (Michael W. Deem and Ramdas Pophale) SiO2 
 PCOD8299300
Probable space group: I M M A
;
_chemical_formula_sum "Si O2"
_cell_formula_units_Z 104
_cell_length_a 20.512954
_cell_length_b 14.412798
_cell_length_c 18.045557
_cell_angle_alpha 90.000000
_cell_angle_beta 90.000000
_cell_angle_gamma 90.000000
_cell_volume 5335.152007
_symmetry_space_group_name_H-M "I M M A"
_symmetry_group_IT_number 74
_symmetry_cell_setting 'orthorhombic'
loop_
_space_group_symop_operation_xyz
x,y,z
-x,1/2-y,z
x,-y,-z
-x,1/2+y,-z
-x,-y,-z
x,1/2+y,-z
-x,y,z
x,1/2-y,z
1/2+x,1/2+y,1/2+z
1/2-x,-y,1/2+z
1/2+x,1/2-y,1/2-z
1/2-x,y,1/2-z
1/2-x,1/2-y,1/2-z
1/2+x,y,1/2-z
1/2-x,1/2+y,1/2+z
1/2+x,-y,1/2+z
loop_
_atom_site_type_symbol
_atom_site_label
_atom_site_fract_x
_atom_site_fract_y
_atom_site_fract_z
Si Si1 0.500000 0.607931 0.988693
Si Si2 0.108538 0.024810 0.726514
Si Si3 0.390708 0.646853 0.873572
Si Si4 0.500000 0.852442 0.155516
Si Si5 0.573243 0.979278 0.395839
Si Si6 0.743625 0.854020 0.618871
Si Si7 0.250000 0.012176 0.250000
Si Si8 0.126892 0.642191 0.982244
O O1 0.436310 0.637146 0.944186
O O2 0.500000 0.500000 0.000000
O O3 0.500000 0.657960 0.067244
O O4 0.092731 0.924091 0.692163
O O5 0.186879 0.047494 0.723397
O O6 0.067032 0.098573 0.680154
O O7 0.083806 0.026815 0.809357
O O8 0.397808 0.750000 0.839711
O O9 0.318133 0.628417 0.903795
O O10 0.500000 0.750000 0.190645
O O11 0.500000 0.948494 0.414646
O O12 0.620879 0.905953 0.437184
O O13 0.582953 0.084791 0.423935
O O14 0.732770 0.750000 0.649828
O O15 0.721762 0.924109 0.683704
O O16 0.701519 0.868695 0.544645
O O17 0.105012 0.750000 0.985151
#
# Coordination Sequence:
#
# PCOD8299300 Si02
#       8
#     8  16  16   8  16  16   8  16
#     4  12  22  43  65  92 127 159 201 255 309 377
#     4  11  22  41  63  94 124 165 209 251 315 368
#     4  10  21  38  65  99 129 159 196 252 316 378
#     4  12  26  45  66  88 124 169 213 255 306 372
#     4  11  23  39  59  86 125 157 209 268 296 364
#     4   9  18  34  59  93 127 160 197 241 311 380
#     4  10  19  36  63  92 126 158 196 260 310 370
#     4  10  21  39  60  86 121 165 207 251 312 366
#
# _framework density 19.493352000000002
#
# number of rings (size 3 to 8) (size 9 to 14) (size 15 to 20)
#    0.000    1.538    3.846    1.846    0.000    3.077 
#    5.538    0.385    0.000    0.000    0.000    0.000 
#    0.000    0.000    0.000    0.000    0.000    0.000 
#
# Total GULP energy -644684.509353 kJ/mol
# GULP energy per Si atom -12397.779026 kJ/mol
# Density = 1.944898 g / cm^3
# Si number density = 19.493352 Si / 1000 Ang^3
#
#
#
# Elastic Constant Matrix: (Units=GPa)
#
#
# Indices 1 2 3 4 5 6 
#
# 1 122.9197 42.2127 39.6270 0.0000 0.0000 0.0000
# 2 42.2127 114.3266 29.1636 0.0000 0.0000 0.0000
# 3 39.6270 29.1636 114.6976 0.0000 0.0000 0.0000
# 4 0.0000 0.0000 0.0000 13.4422 0.0000 0.0000
# 5 0.0000 0.0000 0.0000 0.0000 32.8917 0.0000
# 6 0.0000 0.0000 0.0000 0.0000 0.0000 19.9558
#
#
#
# Elastic Compliance Matrix: (Units=1/GPa)
#
#
# Indices 1 2 3 4 5 6 
#
# 1 0.010043 -0.003019 -0.002702 0.000000 0.000000 0.000000
# 2 -0.003019 0.010261 -0.001566 0.000000 0.000000 0.000000
# 3 -0.002702 -0.001566 0.010050 0.000000 0.000000 0.000000
# 4 0.000000 0.000000 0.000000 0.074393 0.000000 0.000000
# 5 0.000000 0.000000 0.000000 0.000000 0.030403 0.000000
# 6 0.000000 0.000000 0.000000 0.000000 0.000000 0.050111
#
#
# Mechanical properties :
#
#
# Convention : Reuss Voigt Hill
#
# Bulk Modulus (GPa) = 63.37028 63.77228 63.57128
# Shear Modulus (GPa) = 24.37889 29.32064 26.84976
#
# Velocity S-wave (km/s) = 3.54026 3.88253 3.71533
# Velocity P-wave (km/s) = 7.02072 7.27218 7.14755
#
# Compressibility (1/GPa) = 0.01578027
#
# Stress axis : x y z
#
# Youngs Moduli (GPa) = 99.56872 97.45613 99.49885
#
# Poissons Ratio (x) = 0.29422 0.26887
# Poissons Ratio (y) = 0.30059 0.15581
# Poissons Ratio (z) = 0.26906 0.15262
#
# Static dielectric constant tensor:
#      x y z
#    x 3.822180 0.000000 0.000000 
#    y 0.000000 3.336870 0.000000 
#    z 0.000000 0.000000 3.996050 
# 
# 
# High freq. dielectric constant tensor:
#      x y z
#    x 1.770860 0.000000 0.000000 
#    y 0.000000 1.748840 0.000000 
#    z 0.000000 0.000000 1.754090 
# 
# From -- ./inp_files/45349.got.cif
#   From: 2010.03.12/outbox.cif.g09.slc.cpg/sg74_23_cif.got.tgz:45349.got - 2010.04.16 15:46:19.
