data_PCOD8299939
_publ_section_title
;
Structure prediction by ZEFSAII (Michael W. Deem and Ramdas Pophale) SiO2 
 PCOD8299939
Probable space group: I M M A
;
_chemical_formula_sum "Si O2"
_cell_formula_units_Z 80
_cell_length_a 8.750210
_cell_length_b 19.355426
_cell_length_c 25.387706
_cell_angle_alpha 90.000000
_cell_angle_beta 90.000000
_cell_angle_gamma 90.000000
_cell_volume 4299.764509
_symmetry_space_group_name_H-M "I M M A"
_symmetry_group_IT_number 74
_symmetry_cell_setting 'orthorhombic'
loop_
_space_group_symop_operation_xyz
x,y,z
-x,1/2-y,z
x,-y,-z
-x,1/2+y,-z
-x,-y,-z
x,1/2+y,-z
-x,y,z
x,1/2-y,z
1/2+x,1/2+y,1/2+z
1/2-x,-y,1/2+z
1/2+x,1/2-y,1/2-z
1/2-x,y,1/2-z
1/2-x,1/2-y,1/2-z
1/2+x,y,1/2-z
1/2-x,1/2+y,1/2+z
1/2+x,-y,1/2+z
loop_
_atom_site_type_symbol
_atom_site_label
_atom_site_fract_x
_atom_site_fract_y
_atom_site_fract_z
Si Si1 0.826048 0.168534 0.890207
Si Si2 0.320098 0.429486 0.305601
Si Si3 0.178499 0.169678 0.388486
Si Si4 0.168823 0.331911 0.505408
Si Si5 0.679802 0.574936 0.194477
O O1 0.800057 0.250000 0.885085
O O2 0.716020 0.132843 0.848409
O O3 0.000000 0.147506 0.878827
O O4 0.783900 0.142750 0.949157
O O5 0.500000 0.437795 0.299217
O O6 0.250000 0.406044 0.250000
O O7 0.282910 0.371886 0.348385
O O8 0.249960 0.502265 0.324052
O O9 0.217052 0.250000 0.381023
O O10 0.222997 0.143860 0.447446
O O11 0.000000 0.155638 0.377700
O O12 0.159253 0.250000 0.504100
O O13 0.000000 0.361875 0.517741
O O14 0.500000 0.566740 0.200989
O O15 0.750000 0.598710 0.250000
#
# Coordination Sequence:
#
# PCOD8299939 Si02
#       5
#    16  16  16  16  16
#     4  10  20  34  54  81 111 140 173 214 258 307
#     4  11  22  37  56  77 105 139 176 217 264 317
#     4   9  18  34  56  81 109 140 176 217 260 309
#     4   8  15  30  52  77 106 140 174 210 257 309
#     4  11  22  38  58  77 103 138 176 217 263 315
#
# _framework density 18.605671000000001
#
# number of rings (size 3 to 8) (size 9 to 14) (size 15 to 20)
#    0.000    2.200    0.000    6.600    0.000    3.200 
#    0.000    3.000    0.000    6.000    0.000    0.000 
#    0.000    0.000    0.000    0.000    0.000    0.000 
#
# Total GULP energy -496000.283838 kJ/mol
# GULP energy per Si atom -12400.007096 kJ/mol
# Density = 1.856332 g / cm^3
# Si number density = 18.605671 Si / 1000 Ang^3
#
#
#
# Elastic Constant Matrix: (Units=GPa)
#
#
# Indices 1 2 3 4 5 6 
#
# 1 136.2668 42.4563 60.1285 0.0000 0.0000 0.0000
# 2 42.4563 53.2414 53.6350 0.0000 0.0000 0.0000
# 3 60.1285 53.6350 123.5775 0.0000 0.0000 0.0000
# 4 0.0000 0.0000 0.0000 -11.9757 0.0000 0.0000
# 5 0.0000 0.0000 0.0000 0.0000 35.9957 0.0000
# 6 0.0000 0.0000 0.0000 0.0000 0.0000 27.1273
#
#
#
# Elastic Compliance Matrix: (Units=1/GPa)
#
#
# Indices 1 2 3 4 5 6 
#
# 1 0.010196 -0.005567 -0.002545 0.000000 0.000000 0.000000
# 2 -0.005567 0.036414 -0.013096 0.000000 0.000000 0.000000
# 3 -0.002545 -0.013096 0.015014 0.000000 0.000000 0.000000
# 4 0.000000 0.000000 0.000000 -0.083502 0.000000 0.000000
# 5 0.000000 0.000000 0.000000 0.000000 0.027781 0.000000
# 6 0.000000 0.000000 0.000000 0.000000 0.000000 0.036863
#
#
# Mechanical properties :
#
#
# Convention : Reuss Voigt Hill
#
# Bulk Modulus (GPa) = 52.05834 69.50281 60.78058
# Shear Modulus (GPa) = 54.59433 20.68718 37.64076
#
# Velocity S-wave (km/s) = 5.42278 3.33810 4.50275
# Velocity P-wave (km/s) = 8.20057 7.23146 7.73121
#
# Compressibility (1/GPa) = 0.01920922
#
# Stress axis : x y z
#
# Youngs Moduli (GPa) = 98.07831 27.46180 66.60384
#
# Poissons Ratio (x) = 0.15288 0.16950
# Poissons Ratio (y) = 0.54599 0.87223
# Poissons Ratio (z) = 0.24960 0.35963
#
# Static dielectric constant tensor:
#      x y z
#    x 3.482320 0.000000 0.000000 
#    y 0.000000 3.134460 0.000000 
#    z 0.000000 0.000000 3.603210 
# 
# 
# High freq. dielectric constant tensor:
#      x y z
#    x 1.728890 0.000000 0.000000 
#    y 0.000000 1.695010 0.000000 
#    z 0.000000 0.000000 1.733490 
# 
# From -- ./inp_files/63928.got.cif
#   From: 2010.03.12/outbox.cif.g09.slc.cpg/sg74_32_cif.got.tgz:63928.got - 2010.04.16 15:46:19.
