data_PCOD8299402
_publ_section_title
;
Structure prediction by ZEFSAII (Michael W. Deem and Ramdas Pophale) SiO2 
 PCOD8299402
Probable space group: I M M A
;
_chemical_formula_sum "Si O2"
_cell_formula_units_Z 96
_cell_length_a 14.012307
_cell_length_b 14.226530
_cell_length_c 27.848324
_cell_angle_alpha 90.000000
_cell_angle_beta 90.000000
_cell_angle_gamma 90.000000
_cell_volume 5551.466085
_symmetry_space_group_name_H-M "I M M A"
_symmetry_group_IT_number 74
_symmetry_cell_setting 'orthorhombic'
loop_
_space_group_symop_operation_xyz
x,y,z
-x,1/2-y,z
x,-y,-z
-x,1/2+y,-z
-x,-y,-z
x,1/2+y,-z
-x,y,z
x,1/2-y,z
1/2+x,1/2+y,1/2+z
1/2-x,-y,1/2+z
1/2+x,1/2-y,1/2-z
1/2-x,y,1/2-z
1/2-x,1/2-y,1/2-z
1/2+x,y,1/2-z
1/2-x,1/2+y,1/2+z
1/2+x,-y,1/2+z
loop_
_atom_site_type_symbol
_atom_site_label
_atom_site_fract_x
_atom_site_fract_y
_atom_site_fract_z
Si Si1 0.648541 0.949550 0.270149
Si Si2 0.888279 0.750000 0.734925
Si Si3 0.615532 0.250000 0.342764
Si Si4 0.611747 0.750000 0.418886
Si Si5 0.888871 0.250000 0.811549
Si Si6 0.111578 0.952456 0.050202
Si Si7 0.895181 0.938404 0.684256
Si Si8 0.803037 0.946414 0.861371
O O1 0.750000 0.976663 0.250000
O O2 0.639858 0.839413 0.279996
O O3 0.582243 0.985798 0.226761
O O4 0.632029 0.007413 0.319228
O O5 0.844796 0.750000 0.788233
O O6 0.855269 0.841948 0.706786
O O7 0.000000 0.750000 0.741636
O O8 0.500000 0.250000 0.347926
O O9 0.662567 0.160248 0.368447
O O10 0.500000 0.750000 0.410670
O O11 0.659109 0.750000 0.364923
O O12 0.640920 0.657888 0.449380
O O13 0.000000 0.250000 0.819312
O O14 0.000000 0.965892 0.062218
O O15 0.175896 0.001741 0.089530
O O16 0.138051 0.000000 0.000000
O O17 0.810754 0.964640 0.647224
O O18 0.000000 0.925747 0.658787
#
# Coordination Sequence:
#
# PCOD8299402 Si02
#       8
#    16   8   8   8   8  16  16  16
#     4  10  20  31  47  71  99 132 171 209 244 293
#     4   9  17  29  47  69 101 143 171 201 246 294
#     4  11  21  30  48  76 108 138 172 213 252 300
#     4   9  18  32  52  75  97 129 164 200 250 304
#     4  11  19  29  48  68  97 134 168 201 243 299
#     4  10  21  37  56  76 101 130 166 211 260 313
#     4  10  20  33  49  72 104 138 175 210 245 295
#     4  11  21  33  51  74 101 136 171 210 257 302
#
# _framework density 17.292729000000001
#
# number of rings (size 3 to 8) (size 9 to 14) (size 15 to 20)
#    0.000    1.833    3.333    1.750    0.000    2.667 
#    0.000    1.667    0.000    0.500    0.000    0.000 
#    0.000    0.000    0.000    0.000    0.000    0.000 
#
# Total GULP energy -594874.035371 kJ/mol
# GULP energy per Si atom -12393.209070 kJ/mol
# Density = 1.725337 g / cm^3
# Si number density = 17.292729 Si / 1000 Ang^3
#
#
#
# Elastic Constant Matrix: (Units=GPa)
#
#
# Indices 1 2 3 4 5 6 
#
# 1 78.6087 22.5338 38.5360 0.0000 0.0000 0.0000
# 2 22.5338 146.0040 56.5808 0.0000 0.0000 0.0000
# 3 38.5360 56.5808 99.4095 0.0000 0.0000 0.0000
# 4 0.0000 0.0000 0.0000 26.5155 0.0000 0.0000
# 5 0.0000 0.0000 0.0000 0.0000 19.4457 0.0000
# 6 0.0000 0.0000 0.0000 0.0000 0.0000 30.3038
#
#
#
# Elastic Compliance Matrix: (Units=1/GPa)
#
#
# Indices 1 2 3 4 5 6 
#
# 1 0.015707 -0.000083 -0.006042 0.000000 0.000000 0.000000
# 2 -0.000083 0.008788 -0.004970 0.000000 0.000000 0.000000
# 3 -0.006042 -0.004970 0.015230 0.000000 0.000000 0.000000
# 4 0.000000 0.000000 0.000000 0.037714 0.000000 0.000000
# 5 0.000000 0.000000 0.000000 0.000000 0.051425 0.000000
# 6 0.000000 0.000000 0.000000 0.000000 0.000000 0.032999
#
#
# Mechanical properties :
#
#
# Convention : Reuss Voigt Hill
#
# Bulk Modulus (GPa) = 57.02416 62.14706 59.58561
# Shear Modulus (GPa) = 26.33018 29.01110 27.67064
#
# Velocity S-wave (km/s) = 3.90630 4.10035 4.00450
# Velocity P-wave (km/s) = 7.30705 7.64418 7.47752
#
# Compressibility (1/GPa) = 0.01753643
#
# Stress axis : x y z
#
# Youngs Moduli (GPa) = 63.66710 113.79427 65.66004
#
# Poissons Ratio (x) = 0.00943 0.39669
# Poissons Ratio (y) = 0.00527 0.32631
# Poissons Ratio (z) = 0.38465 0.56551
#
# Static dielectric constant tensor:
#      x y z
#    x 3.116250 0.000000 0.000000 
#    y 0.000000 3.425180 0.000000 
#    z 0.000000 0.000000 3.002670 
# 
# 
# High freq. dielectric constant tensor:
#      x y z
#    x 1.653290 0.000000 0.000000 
#    y 0.000000 1.684030 0.000000 
#    z 0.000000 0.000000 1.630920 
# 
# From -- ./inp_files/60067.got.cif
#   From: 2010.03.12/outbox.cif.g09.slc.cpg/sg74_31_cif.got.tgz:60067.got - 2010.04.16 15:46:19.
