data_PCOD8299894
_publ_section_title
;
Structure prediction by ZEFSAII (Michael W. Deem and Ramdas Pophale) SiO2 
 PCOD8299894
Probable space group: I M M A
;
_chemical_formula_sum "Si O2"
_cell_formula_units_Z 104
_cell_length_a 8.588418
_cell_length_b 22.341784
_cell_length_c 29.976179
_cell_angle_alpha 90.000000
_cell_angle_beta 90.000000
_cell_angle_gamma 90.000000
_cell_volume 5751.846608
_symmetry_space_group_name_H-M "I M M A"
_symmetry_group_IT_number 74
_symmetry_cell_setting 'orthorhombic'
loop_
_space_group_symop_operation_xyz
x,y,z
-x,1/2-y,z
x,-y,-z
-x,1/2+y,-z
-x,-y,-z
x,1/2+y,-z
-x,y,z
x,1/2-y,z
1/2+x,1/2+y,1/2+z
1/2-x,-y,1/2+z
1/2+x,1/2-y,1/2-z
1/2-x,y,1/2-z
1/2-x,1/2-y,1/2-z
1/2+x,y,1/2-z
1/2-x,1/2+y,1/2+z
1/2+x,-y,1/2+z
loop_
_atom_site_type_symbol
_atom_site_label
_atom_site_fract_x
_atom_site_fract_y
_atom_site_fract_z
Si Si1 0.182105 0.596967 0.296746
Si Si2 0.173636 0.321209 0.541190
Si Si3 0.315922 0.031127 0.298090
Si Si4 0.683948 0.750000 0.700707
Si Si5 0.678048 0.820149 0.368519
Si Si6 0.184741 0.316427 0.444961
Si Si7 0.184270 0.362326 0.351722
O O1 0.250000 0.620896 0.250000
O O2 0.267375 0.535974 0.310860
O O3 0.210486 0.646879 0.333863
O O4 0.000000 0.584200 0.291323
O O5 0.167644 0.250000 0.538713
O O6 0.284295 0.342726 0.581367
O O7 0.240570 0.343531 0.492959
O O8 0.000000 0.346568 0.550116
O O9 0.500000 0.037251 0.297281
O O10 0.250000 0.049854 0.250000
O O11 0.244960 0.074114 0.335263
O O12 0.500000 0.750000 0.703004
O O13 0.750000 0.750000 0.750000
O O14 0.740163 0.809088 0.675887
O O15 0.500000 0.835501 0.357599
O O16 0.712912 0.750000 0.364087
O O17 0.255057 0.250000 0.437015
O O18 0.235990 0.357896 0.403661
O O19 0.000000 0.311317 0.447402
O O20 0.000000 0.357646 0.346205
#
# Coordination Sequence:
#
# PCOD8299894 Si02
#       7
#    16  16  16   8  16  16  16
#     4  11  22  38  59  81 105 137 176 215 257 305
#     4   8  14  27  49  75 103 137 176 212 250 304
#     4  11  22  38  56  76 102 135 177 219 262 313
#     4  12  24  36  48  70 102 138 176 222 277 326
#     4  10  20  34  53  81 115 145 172 206 255 307
#     4   8  14  27  49  75 102 135 174 216 262 311
#     4  11  20  34  54  76 103 137 177 221 269 318
#
# _framework density 18.081149
#
# number of rings (size 3 to 8) (size 9 to 14) (size 15 to 20)
#    0.000    2.000    0.769    6.692    0.000    1.231 
#    0.000    1.538    0.000    0.923    0.000    6.462 
#    0.000    0.000    0.000    0.000    0.000    0.000 
#
# Total GULP energy -644711.037564 kJ/mol
# GULP energy per Si atom -12398.289184 kJ/mol
# Density = 1.804000 g / cm^3
# Si number density = 18.081149 Si / 1000 Ang^3
#
#
#
# Elastic Constant Matrix: (Units=GPa)
#
#
# Indices 1 2 3 4 5 6 
#
# 1 86.5406 19.9951 38.1794 0.0000 0.0000 0.0000
# 2 19.9951 54.7834 56.0087 0.0000 0.0000 0.0000
# 3 38.1794 56.0087 151.0359 0.0000 0.0000 0.0000
# 4 0.0000 0.0000 0.0000 14.4767 0.0000 0.0000
# 5 0.0000 0.0000 0.0000 0.0000 27.2201 0.0000
# 6 0.0000 0.0000 0.0000 0.0000 0.0000 26.0072
#
#
#
# Elastic Compliance Matrix: (Units=1/GPa)
#
#
# Indices 1 2 3 4 5 6 
#
# 1 0.013177 -0.002261 -0.002492 0.000000 0.000000 0.000000
# 2 -0.002261 0.029788 -0.010475 0.000000 0.000000 0.000000
# 3 -0.002492 -0.010475 0.011135 0.000000 0.000000 0.000000
# 4 0.000000 0.000000 0.000000 0.069077 0.000000 0.000000
# 5 0.000000 0.000000 0.000000 0.000000 0.036738 0.000000
# 6 0.000000 0.000000 0.000000 0.000000 0.000000 0.038451
#
#
# Mechanical properties :
#
#
# Convention : Reuss Voigt Hill
#
# Bulk Modulus (GPa) = 42.29446 57.85849 50.07647
# Shear Modulus (GPa) = 21.12345 25.41924 23.27135
#
# Velocity S-wave (km/s) = 3.42169 3.75352 3.59144
# Velocity P-wave (km/s) = 6.24923 7.13120 6.70473
#
# Compressibility (1/GPa) = 0.02364376
#
# Stress axis : x y z
#
# Youngs Moduli (GPa) = 75.88775 33.57061 89.80439
#
# Poissons Ratio (x) = 0.07591 0.22383
# Poissons Ratio (y) = 0.17161 0.94067
# Poissons Ratio (z) = 0.18915 0.35164
#
# Static dielectric constant tensor:
#      x y z
#    x 3.317730 0.000000 0.000000 
#    y 0.000000 2.818820 0.000000 
#    z 0.000000 0.000000 3.728810 
# 
# 
# High freq. dielectric constant tensor:
#      x y z
#    x 1.699800 0.000000 0.000000 
#    y 0.000000 1.666000 0.000000 
#    z 0.000000 0.000000 1.714770 
# 
# From -- ./inp_files/64462.got.cif
#   From: 2010.03.12/outbox.cif.g09.slc.cpg/sg74_33_cif.got.tgz:64462.got - 2010.04.16 15:46:19.
