data_PCOD8299239
_publ_section_title
;
Structure prediction by ZEFSAII (Michael W. Deem and Ramdas Pophale) SiO2 
 PCOD8299239
Probable space group: I M M A
;
_chemical_formula_sum "Si O2"
_cell_formula_units_Z 112
_cell_length_a 15.374698
_cell_length_b 22.463863
_cell_length_c 15.839372
_cell_angle_alpha 90.000000
_cell_angle_beta 90.000000
_cell_angle_gamma 90.000000
_cell_volume 5470.524840
_symmetry_space_group_name_H-M "I M M A"
_symmetry_group_IT_number 74
_symmetry_cell_setting 'orthorhombic'
loop_
_space_group_symop_operation_xyz
x,y,z
-x,1/2-y,z
x,-y,-z
-x,1/2+y,-z
-x,-y,-z
x,1/2+y,-z
-x,y,z
x,1/2-y,z
1/2+x,1/2+y,1/2+z
1/2-x,-y,1/2+z
1/2+x,1/2-y,1/2-z
1/2-x,y,1/2-z
1/2-x,1/2-y,1/2-z
1/2+x,y,1/2-z
1/2-x,1/2+y,1/2+z
1/2+x,-y,1/2+z
loop_
_atom_site_type_symbol
_atom_site_label
_atom_site_fract_x
_atom_site_fract_y
_atom_site_fract_z
Si Si1 0.785113 0.492716 0.409908
Si Si2 0.665051 0.111048 0.391983
Si Si3 0.249479 0.120128 0.849325
Si Si4 0.098466 0.819272 0.046016
Si Si5 0.095519 0.577072 0.716467
Si Si6 0.331063 0.182873 0.128708
Si Si7 0.099409 0.682176 0.441335
O O1 0.836766 0.500000 0.500000
O O2 0.713522 0.443805 0.436925
O O3 0.738874 0.551961 0.376721
O O4 0.842325 0.468035 0.333081
O O5 0.603471 0.144096 0.458644
O O6 0.613308 0.080864 0.315653
O O7 0.733957 0.158785 0.355523
O O8 0.250000 0.127464 0.750000
O O9 0.169209 0.157704 0.887020
O O10 0.344151 0.142657 0.878365
O O11 0.118620 0.750000 0.027526
O O12 0.000000 0.827074 0.081571
O O13 0.100817 0.643929 0.680905
O O14 0.000000 0.551220 0.702951
O O15 0.338061 0.250000 0.161592
O O16 0.354571 0.177214 0.031119
O O17 0.100048 0.750000 0.409490
O O18 0.000000 0.658264 0.444837
#
# Coordination Sequence:
#
# PCOD8299239 Si02
#       7
#    16  16  16  16  16  16  16
#     4  11  22  43  69  90 121 171 220 266 322 392
#     4  11  21  41  64  90 129 172 214 264 322 387
#     4  12  24  42  66  94 129 168 216 276 336 393
#     4  11  24  43  68  98 132 174 223 269 326 402
#     4  11  24  38  58  94 133 167 213 272 327 384
#     4  10  19  35  60  88 124 169 217 262 314 383
#     4  10  21  38  61  90 125 167 214 265 327 392
#
# _framework density 20.473355000000002
#
# number of rings (size 3 to 8) (size 9 to 14) (size 15 to 20)
#    0.000    1.143    2.857    5.143    0.000    5.143 
#    0.000    5.000    0.000    0.000    0.000    0.000 
#    0.000    0.000    0.000    0.000    0.000    0.000 
#
# Total GULP energy -694346.898698 kJ/mol
# GULP energy per Si atom -12399.051762 kJ/mol
# Density = 2.042676 g / cm^3
# Si number density = 20.473355 Si / 1000 Ang^3
#
#
#
# Elastic Constant Matrix: (Units=GPa)
#
#
# Indices 1 2 3 4 5 6 
#
# 1 104.0072 39.3002 20.1117 0.0004 0.0000 0.0000
# 2 39.3002 112.9662 30.3062 0.0000 0.0000 0.0000
# 3 20.1117 30.3062 109.3362 -0.0009 0.0000 0.0000
# 4 0.0004 0.0000 -0.0009 16.0891 0.0000 0.0000
# 5 0.0000 0.0000 0.0000 0.0000 18.3749 0.0000
# 6 0.0000 0.0000 0.0000 0.0000 0.0000 16.3061
#
#
#
# Elastic Compliance Matrix: (Units=1/GPa)
#
#
# Indices 1 2 3 4 5 6 
#
# 1 0.011182 -0.003606 -0.001057 0.000000 0.000000 0.000000
# 2 -0.003606 0.010727 -0.002310 0.000000 0.000000 0.000000
# 3 -0.001057 -0.002310 0.009981 0.000001 0.000000 0.000000
# 4 0.000000 0.000000 0.000001 0.062154 0.000000 0.000000
# 5 0.000000 0.000000 0.000000 0.000000 0.054422 0.000000
# 6 0.000000 0.000000 0.000000 0.000000 0.000000 0.061327
#
#
# Mechanical properties :
#
#
# Convention : Reuss Voigt Hill
#
# Bulk Modulus (GPa) = 55.73436 56.19398 55.96417
# Shear Modulus (GPa) = 21.76567 25.92679 23.84623
#
# Velocity S-wave (km/s) = 3.26409 3.56247 3.41654
# Velocity P-wave (km/s) = 6.44109 6.66547 6.55424
#
# Compressibility (1/GPa) = 0.01794225
#
# Stress axis : x y z
#
# Youngs Moduli (GPa) = 89.43027 93.22655 100.19221
#
# Poissons Ratio (x) = 0.33622 0.10592
# Poissons Ratio (y) = 0.32253 0.23143
# Poissons Ratio (z) = 0.09454 0.21534
#
# Static dielectric constant tensor:
#      x y z
#    x 3.684970 0.000000 0.000000 
#    y 0.000000 3.916870 0.000000 
#    z 0.000000 0.000000 3.665500 
# 
# 
# High freq. dielectric constant tensor:
#      x y z
#    x 1.790930 0.000000 0.000000 
#    y 0.000000 1.809940 0.000000 
#    z 0.000000 0.000000 1.802040 
# 
# From -- ./inp_files/32731.got.cif
#   From: 2010.03.12/outbox.cif.g09.slc.cpg/sg74_17_cif.got.tgz:32731.got - 2010.04.16 15:46:19.
