data_PCOD8299811
_publ_section_title
;
Structure prediction by ZEFSAII (Michael W. Deem and Ramdas Pophale) SiO2 
 PCOD8299811
Probable space group: I M M A
;
_chemical_formula_sum "Si O2"
_cell_formula_units_Z 96
_cell_length_a 18.440392
_cell_length_b 9.700464
_cell_length_c 29.272670
_cell_angle_alpha 90.000000
_cell_angle_beta 90.000000
_cell_angle_gamma 90.000000
_cell_volume 5236.305711
_symmetry_space_group_name_H-M "I M M A"
_symmetry_group_IT_number 74
_symmetry_cell_setting 'orthorhombic'
loop_
_space_group_symop_operation_xyz
x,y,z
-x,1/2-y,z
x,-y,-z
-x,1/2+y,-z
-x,-y,-z
x,1/2+y,-z
-x,y,z
x,1/2-y,z
1/2+x,1/2+y,1/2+z
1/2-x,-y,1/2+z
1/2+x,1/2-y,1/2-z
1/2-x,y,1/2-z
1/2-x,1/2-y,1/2-z
1/2+x,y,1/2-z
1/2-x,1/2+y,1/2+z
1/2+x,-y,1/2+z
loop_
_atom_site_type_symbol
_atom_site_label
_atom_site_fract_x
_atom_site_fract_y
_atom_site_fract_z
Si Si1 0.918067 0.593865 0.298536
Si Si2 0.345601 0.093140 0.129846
Si Si3 0.585475 0.902808 0.961503
Si Si4 0.683641 0.906498 0.281714
Si Si5 0.679688 0.907579 0.630039
Si Si6 0.584294 0.410204 0.456248
O O1 0.914894 0.750000 0.317190
O O2 0.862928 0.501995 0.327388
O O3 0.891020 0.588600 0.246540
O O4 0.000000 0.536089 0.300999
O O5 0.365427 0.250000 0.142999
O O6 0.394275 0.038951 0.088021
O O7 0.262700 0.079640 0.114490
O O8 0.500000 0.898603 0.966729
O O9 0.618807 0.750000 0.967544
O O10 0.620389 0.000000 0.000000
O O11 0.701677 0.750000 0.297445
O O12 0.750000 0.961554 0.250000
O O13 0.668388 0.999950 0.325438
O O14 0.659947 0.750000 0.642828
O O15 0.629770 0.958864 0.588094
O O16 0.608654 0.500000 0.500000
O O17 0.500000 0.435848 0.445088
O O18 0.599751 0.250000 0.467327
#
# Coordination Sequence:
#
# PCOD8299811 Si02
#       6
#    16  16  16  16  16  16
#     4  10  21  36  54  77 104 136 176 219 262 312
#     4  10  20  34  52  75 104 136 172 214 261 315
#     4   9  18  32  48  67  94 128 164 204 250 298
#     4  10  20  36  55  76 106 142 178 219 270 323
#     4  10  21  35  55  82 109 140 179 221 268 322
#     4   9  19  37  58  81 112 147 184 229 279 330
#
# _framework density 18.333535999999999
#
# number of rings (size 3 to 8) (size 9 to 14) (size 15 to 20)
#    0.000    2.333    1.667    0.500    0.000    4.667 
#    0.000    1.667    0.000    0.000    0.000    0.000 
#    0.000    0.000    0.000    0.000    0.000    0.000 
#
# Total GULP energy -595196.186435 kJ/mol
# GULP energy per Si atom -12399.920551 kJ/mol
# Density = 1.829181 g / cm^3
# Si number density = 18.333536 Si / 1000 Ang^3
#
#
#
# Elastic Constant Matrix: (Units=GPa)
#
#
# Indices 1 2 3 4 5 6 
#
# 1 71.2942 32.8074 41.2683 0.0000 0.0000 0.0000
# 2 32.8074 79.1359 73.1342 0.0000 0.0000 0.0000
# 3 41.2683 73.1342 132.1966 0.0000 0.0000 0.0000
# 4 0.0000 0.0000 0.0000 39.4060 0.0000 0.0000
# 5 0.0000 0.0000 0.0000 0.0000 34.9149 0.0000
# 6 0.0000 0.0000 0.0000 0.0000 0.0000 22.4189
#
#
#
# Elastic Compliance Matrix: (Units=1/GPa)
#
#
# Indices 1 2 3 4 5 6 
#
# 1 0.017909 -0.004620 -0.003035 0.000000 0.000000 0.000000
# 2 -0.004620 0.027047 -0.013521 0.000000 0.000000 0.000000
# 3 -0.003035 -0.013521 0.015992 0.000000 0.000000 0.000000
# 4 0.000000 0.000000 0.000000 0.025377 0.000000 0.000000
# 5 0.000000 0.000000 0.000000 0.000000 0.028641 0.000000
# 6 0.000000 0.000000 0.000000 0.000000 0.000000 0.044605
#
#
# Mechanical properties :
#
#
# Convention : Reuss Voigt Hill
#
# Bulk Modulus (GPa) = 53.77244 64.11630 58.94437
# Shear Modulus (GPa) = 24.02436 28.37573 26.20004
#
# Velocity S-wave (km/s) = 3.62388 3.93841 3.78442
# Velocity P-wave (km/s) = 6.84863 7.46522 7.16356
#
# Compressibility (1/GPa) = 0.01859689
#
# Stress axis : x y z
#
# Youngs Moduli (GPa) = 55.83775 36.97226 62.53093
#
# Poissons Ratio (x) = 0.17080 0.18978
# Poissons Ratio (y) = 0.25796 0.84548
# Poissons Ratio (z) = 0.16947 0.49990
#
# Static dielectric constant tensor:
#      x y z
#    x 3.375460 0.000000 0.000000 
#    y 0.000000 3.473860 0.000000 
#    z 0.000000 0.000000 3.286340 
# 
# 
# High freq. dielectric constant tensor:
#      x y z
#    x 1.709830 0.000000 0.000000 
#    y 0.000000 1.707300 0.000000 
#    z 0.000000 0.000000 1.705840 
# 
# From -- ./inp_files/64349.got.cif
#   From: 2010.03.12/outbox.cif.g09.slc.cpg/sg74_33_cif.got.tgz:64349.got - 2010.04.16 15:46:19.
