data_PCOD8299381
_publ_section_title
;
Structure prediction by ZEFSAII (Michael W. Deem and Ramdas Pophale) SiO2 
 PCOD8299381
Probable space group: I M M A
;
_chemical_formula_sum "Si O2"
_cell_formula_units_Z 72
_cell_length_a 7.412601
_cell_length_b 21.954118
_cell_length_c 22.993026
_cell_angle_alpha 90.000000
_cell_angle_beta 90.000000
_cell_angle_gamma 90.000000
_cell_volume 3741.818763
_symmetry_space_group_name_H-M "I M M A"
_symmetry_group_IT_number 74
_symmetry_cell_setting 'orthorhombic'
loop_
_space_group_symop_operation_xyz
x,y,z
-x,1/2-y,z
x,-y,-z
-x,1/2+y,-z
-x,-y,-z
x,1/2+y,-z
-x,y,z
x,1/2-y,z
1/2+x,1/2+y,1/2+z
1/2-x,-y,1/2+z
1/2+x,1/2-y,1/2-z
1/2-x,y,1/2-z
1/2-x,1/2-y,1/2-z
1/2+x,y,1/2-z
1/2-x,1/2+y,1/2+z
1/2+x,-y,1/2+z
loop_
_atom_site_type_symbol
_atom_site_label
_atom_site_fract_x
_atom_site_fract_y
_atom_site_fract_z
Si Si1 0.790381 0.472834 0.314378
Si Si2 0.284593 0.862754 0.891330
Si Si3 0.291308 0.250000 0.182669
Si Si4 0.000000 0.178517 0.886969
Si Si5 0.500000 0.322104 0.478271
Si Si6 0.788602 0.390752 0.684604
O O1 0.750000 0.447131 0.250000
O O2 0.716849 0.426143 0.362757
O O3 0.709127 0.540471 0.322487
O O4 0.000000 0.478357 0.323072
O O5 0.500000 0.861406 0.902339
O O6 0.214034 0.810491 0.847373
O O7 0.180777 0.852528 0.951724
O O8 0.500000 0.250000 0.171090
O O9 0.250000 0.250000 0.250000
O O10 0.181772 0.152027 0.859268
O O11 0.000000 0.250000 0.876520
O O12 0.000000 0.161339 0.954387
O O13 0.500000 0.250000 0.467384
O O14 0.750000 0.368340 0.750000
O O15 0.000000 0.385989 0.669990
#
# Coordination Sequence:
#
# PCOD8299381 Si02
#       6
#    16  16   8   8   8  16
#     4   9  19  33  57  89 121 158 199 238 301 365
#     4  10  21  37  54  83 118 161 205 252 294 344
#     4  10  20  30  50  80 116 154 198 254 301 331
#     4  11  26  43  63  95 115 151 210 242 298 379
#     4  11  24  41  61  79 115 170 210 249 298 348
#     4  10  20  40  65  92 127 155 179 241 308 365
#
# _framework density 19.241980999999999
#
# number of rings (size 3 to 8) (size 9 to 14) (size 15 to 20)
#    0.000    2.000    2.222    0.667    4.667    1.778 
#    0.000    4.444    0.000    4.000    0.000    0.000 
#    0.000    0.000    0.000    0.000    0.000    0.000 
#
# Total GULP energy -446335.591260 kJ/mol
# GULP energy per Si atom -12398.210868 kJ/mol
# Density = 1.919819 g / cm^3
# Si number density = 19.241981 Si / 1000 Ang^3
#
#
#
# Elastic Constant Matrix: (Units=GPa)
#
#
# Indices 1 2 3 4 5 6 
#
# 1 92.7026 42.1183 55.6451 0.0000 0.0000 0.0000
# 2 42.1183 110.0177 81.8039 0.0000 0.0000 0.0000
# 3 55.6451 81.8039 153.1989 0.0000 0.0000 0.0000
# 4 0.0000 0.0000 0.0000 32.3219 0.0000 0.0000
# 5 0.0000 0.0000 0.0000 0.0000 31.1997 0.0000
# 6 0.0000 0.0000 0.0000 0.0000 0.0000 21.5421
#
#
#
# Elastic Compliance Matrix: (Units=1/GPa)
#
#
# Indices 1 2 3 4 5 6 
#
# 1 0.014251 -0.002665 -0.003753 0.000000 0.000000 0.000000
# 2 -0.002665 0.015573 -0.007348 0.000000 0.000000 0.000000
# 3 -0.003753 -0.007348 0.011814 0.000000 0.000000 0.000000
# 4 0.000000 0.000000 0.000000 0.030939 0.000000 0.000000
# 5 0.000000 0.000000 0.000000 0.000000 0.032052 0.000000
# 6 0.000000 0.000000 0.000000 0.000000 0.000000 0.046421
#
#
# Mechanical properties :
#
#
# Convention : Reuss Voigt Hill
#
# Bulk Modulus (GPa) = 70.88949 79.45041 75.16995
# Shear Modulus (GPa) = 27.28027 28.76953 28.02490
#
# Velocity S-wave (km/s) = 3.76938 3.87090 3.82048
# Velocity P-wave (km/s) = 7.47431 7.83315 7.65584
#
# Compressibility (1/GPa) = 0.01410646
#
# Stress axis : x y z
#
# Youngs Moduli (GPa) = 70.17122 64.21386 84.64478
#
# Poissons Ratio (x) = 0.17113 0.31769
# Poissons Ratio (y) = 0.18701 0.62193
# Poissons Ratio (z) = 0.26337 0.47181
#
# Static dielectric constant tensor:
#      x y z
#    x 4.463130 0.000000 0.000000 
#    y 0.000000 3.911480 0.000000 
#    z 0.000000 0.000000 3.318750 
# 
# 
# High freq. dielectric constant tensor:
#      x y z
#    x 1.756420 0.000000 0.000000 
#    y 0.000000 1.751460 0.000000 
#    z 0.000000 0.000000 1.728300 
# 
# From -- ./inp_files/48436.got.cif
#   From: 2010.03.12/outbox.cif.g09.slc.cpg/sg74_25_cif.got.tgz:48436.got - 2010.04.16 15:46:19.
