data_PCOD8299589
_publ_section_title
;
Structure prediction by ZEFSAII (Michael W. Deem and Ramdas Pophale) SiO2 
 PCOD8299589
Probable space group: I M M A
;
_chemical_formula_sum "Si O2"
_cell_formula_units_Z 88
_cell_length_a 20.106646
_cell_length_b 8.942870
_cell_length_c 26.974442
_cell_angle_alpha 90.000000
_cell_angle_beta 90.000000
_cell_angle_gamma 90.000000
_cell_volume 4850.304663
_symmetry_space_group_name_H-M "I M M A"
_symmetry_group_IT_number 74
_symmetry_cell_setting 'orthorhombic'
loop_
_space_group_symop_operation_xyz
x,y,z
-x,1/2-y,z
x,-y,-z
-x,1/2+y,-z
-x,-y,-z
x,1/2+y,-z
-x,y,z
x,1/2-y,z
1/2+x,1/2+y,1/2+z
1/2-x,-y,1/2+z
1/2+x,1/2-y,1/2-z
1/2-x,y,1/2-z
1/2-x,1/2-y,1/2-z
1/2+x,y,1/2-z
1/2-x,1/2+y,1/2+z
1/2+x,-y,1/2+z
loop_
_atom_site_type_symbol
_atom_site_label
_atom_site_fract_x
_atom_site_fract_y
_atom_site_fract_z
Si Si1 0.000000 0.576844 0.051797
Si Si2 0.856241 0.074541 0.946890
Si Si3 0.233433 0.427583 0.856946
Si Si4 0.500000 0.918616 0.167642
Si Si5 0.633294 0.576941 0.714575
Si Si6 0.366468 0.923257 0.831607
Si Si7 0.000000 0.918088 0.214563
O O1 0.929382 0.533161 0.077238
O O2 0.000000 0.750000 0.040889
O O3 0.000000 0.500000 0.000000
O O4 0.849729 0.250000 0.955444
O O5 0.802066 0.018707 0.907473
O O6 0.843471 0.000000 0.000000
O O7 0.233746 0.250000 0.851180
O O8 0.196041 0.496834 0.809862
O O9 0.307851 0.489593 0.859241
O O10 0.500000 0.750000 0.146384
O O11 0.500000 0.914810 0.226636
O O12 0.435203 0.006430 0.148661
O O13 0.632557 0.750000 0.699721
O O14 0.640896 0.554800 0.773028
O O15 0.565169 0.502875 0.694878
O O16 0.364681 0.750000 0.846369
O O17 0.000000 0.750000 0.192364
#
# Coordination Sequence:
#
# PCOD8299589 Si02
#       7
#     8  16  16   8  16  16   8
#     4   8  14  29  50  69  91 121 158 199 242 283
#     4   9  19  34  52  73  97 127 164 207 251 295
#     4  11  22  33  48  73 101 131 168 207 250 297
#     4   9  17  31  52  74  96 126 164 204 244 291
#     4  10  20  33  48  69  99 134 171 208 246 291
#     4  10  20  34  51  72 100 133 167 204 246 293
#     4   9  17  30  48  69  95 131 170 207 248 288
#
# _framework density 18.143191000000002
#
# number of rings (size 3 to 8) (size 9 to 14) (size 15 to 20)
#    0.000    2.364    0.000    2.727    0.000    8.727 
#    0.000    1.818    0.000    2.182    0.000    0.636 
#    0.000    0.000    0.000    0.000    0.000    0.000 
#
# Total GULP energy -545445.543194 kJ/mol
# GULP energy per Si atom -12396.489618 kJ/mol
# Density = 1.810190 g / cm^3
# Si number density = 18.143191 Si / 1000 Ang^3
#
#
#
# Elastic Constant Matrix: (Units=GPa)
#
#
# Indices 1 2 3 4 5 6 
#
# 1 172.3893 68.1426 42.9565 0.0000 0.0000 0.0000
# 2 68.1426 108.0481 33.3904 0.0000 0.0000 0.0000
# 3 42.9565 33.3904 44.7278 0.0000 0.0000 0.0000
# 4 0.0000 0.0000 0.0000 19.6915 0.0000 0.0000
# 5 0.0000 0.0000 0.0000 0.0000 10.1781 0.0000
# 6 0.0000 0.0000 0.0000 0.0000 0.0000 35.8224
#
#
#
# Elastic Compliance Matrix: (Units=1/GPa)
#
#
# Indices 1 2 3 4 5 6 
#
# 1 0.008660 -0.003758 -0.005511 0.000000 0.000000 0.000000
# 2 -0.003758 0.013662 -0.006589 0.000000 0.000000 0.000000
# 3 -0.005511 -0.006589 0.032569 0.000000 0.000000 0.000000
# 4 0.000000 0.000000 0.000000 0.050783 0.000000 0.000000
# 5 0.000000 0.000000 0.000000 0.000000 0.098250 0.000000
# 6 0.000000 0.000000 0.000000 0.000000 0.000000 0.027915
#
#
# Mechanical properties :
#
#
# Convention : Reuss Voigt Hill
#
# Bulk Modulus (GPa) = 43.15304 68.23825 55.69565
# Shear Modulus (GPa) = 18.43104 25.18345 21.80724
#
# Velocity S-wave (km/s) = 3.19072 3.72968 3.47068
# Velocity P-wave (km/s) = 6.11642 7.49933 6.84290
#
# Compressibility (1/GPa) = 0.02317334
#
# Stress axis : x y z
#
# Youngs Moduli (GPa) = 115.47768 73.19732 30.70366
#
# Poissons Ratio (x) = 0.27510 0.16921
# Poissons Ratio (y) = 0.43400 0.20232
# Poissons Ratio (z) = 0.63641 0.48232
#
# Static dielectric constant tensor:
#      x y z
#    x 5.796440 0.000000 0.000000 
#    y 0.000000 3.430630 0.000000 
#    z 0.000000 0.000000 2.922990 
# 
# 
# High freq. dielectric constant tensor:
#      x y z
#    x 1.716160 0.000000 0.000000 
#    y 0.000000 1.715500 0.000000 
#    z 0.000000 0.000000 1.652740 
# 
# From -- ./inp_files/70317.got.cif
#   From: 2010.03.12/outbox.cif.g09.slc.cpg/sg74_36_cif.got.tgz:70317.got - 2010.04.16 15:46:19.
