data_PCOD8299451
_publ_section_title
;
Structure prediction by ZEFSAII (Michael W. Deem and Ramdas Pophale) SiO2 
 PCOD8299451
Probable space group: I M M A
;
_chemical_formula_sum "Si O2"
_cell_formula_units_Z 96
_cell_length_a 8.941358
_cell_length_b 23.312105
_cell_length_c 24.745799
_cell_angle_alpha 90.000000
_cell_angle_beta 90.000000
_cell_angle_gamma 90.000000
_cell_volume 5158.060780
_symmetry_space_group_name_H-M "I M M A"
_symmetry_group_IT_number 74
_symmetry_cell_setting 'orthorhombic'
loop_
_space_group_symop_operation_xyz
x,y,z
-x,1/2-y,z
x,-y,-z
-x,1/2+y,-z
-x,-y,-z
x,1/2+y,-z
-x,y,z
x,1/2-y,z
1/2+x,1/2+y,1/2+z
1/2-x,-y,1/2+z
1/2+x,1/2-y,1/2-z
1/2-x,y,1/2-z
1/2-x,1/2-y,1/2-z
1/2+x,y,1/2-z
1/2-x,1/2+y,1/2+z
1/2+x,-y,1/2+z
loop_
_atom_site_type_symbol
_atom_site_label
_atom_site_fract_x
_atom_site_fract_y
_atom_site_fract_z
Si Si1 0.175364 0.684492 0.098046
Si Si2 0.323881 0.315026 0.013042
Si Si3 0.675661 0.617594 0.882725
Si Si4 0.675837 0.105119 0.694485
Si Si5 0.823106 0.525616 0.806870
Si Si6 0.164780 0.816152 0.800142
O O1 0.216669 0.750000 0.111925
O O2 0.237130 0.645037 0.146393
O O3 0.000000 0.675930 0.090319
O O4 0.252119 0.664449 0.042827
O O5 0.500000 0.313121 0.006204
O O6 0.267512 0.250000 0.028365
O O7 0.280047 0.364853 0.056100
O O8 0.500000 0.606969 0.876524
O O9 0.762922 0.563235 0.857485
O O10 0.729098 0.674222 0.851122
O O11 0.500000 0.112144 0.701519
O O12 0.750000 0.125849 0.750000
O O13 0.721371 0.039882 0.680620
O O14 0.750000 0.545037 0.750000
O O15 0.000000 0.533052 0.802146
O O16 0.142334 0.750000 0.789230
O O17 0.250000 0.845672 0.750000
O O18 0.000000 0.844920 0.807074
#
# Coordination Sequence:
#
# PCOD8299451 Si02
#       6
#    16  16  16  16  16  16
#     4   9  18  34  56  81 108 135 165 204 250 302
#     4   9  19  35  53  74 101 134 171 211 256 303
#     4  11  21  33  50  71  97 131 173 217 258 301
#     4   9  19  35  55  80 108 137 167 203 250 302
#     4  10  20  35  53  73 101 136 174 214 256 304
#     4  10  20  32  46  66  93 125 163 209 261 312
#
# _framework density 18.611644999999999
#
# number of rings (size 3 to 8) (size 9 to 14) (size 15 to 20)
#    0.000    2.333    0.000    2.500    0.000    4.667 
#    0.000    2.500    0.000    5.000    0.000    0.000 
#    0.000    0.000    0.000    0.000    0.000    0.000 
#
# Total GULP energy -594887.247135 kJ/mol
# GULP energy per Si atom -12393.484315 kJ/mol
# Density = 1.856928 g / cm^3
# Si number density = 18.611645 Si / 1000 Ang^3
#
#
#
# Elastic Constant Matrix: (Units=GPa)
#
#
# Indices 1 2 3 4 5 6 
#
# 1 50.1011 31.7794 55.4604 0.0000 0.0000 0.0000
# 2 31.7794 96.5489 80.0402 0.0000 0.0000 0.0000
# 3 55.4604 80.0402 166.6443 0.0000 0.0000 0.0000
# 4 0.0000 0.0000 0.0000 34.9790 0.0000 0.0000
# 5 0.0000 0.0000 0.0000 0.0000 34.2304 0.0000
# 6 0.0000 0.0000 0.0000 0.0000 0.0000 20.7796
#
#
#
# Elastic Compliance Matrix: (Units=1/GPa)
#
#
# Indices 1 2 3 4 5 6 
#
# 1 0.032063 -0.002837 -0.009308 0.000000 0.000000 0.000000
# 2 -0.002837 0.017461 -0.007442 0.000000 0.000000 0.000000
# 3 -0.009308 -0.007442 0.012673 0.000000 0.000000 0.000000
# 4 0.000000 0.000000 0.000000 0.028589 0.000000 0.000000
# 5 0.000000 0.000000 0.000000 0.000000 0.029214 0.000000
# 6 0.000000 0.000000 0.000000 0.000000 0.000000 0.048124
#
#
# Mechanical properties :
#
#
# Convention : Reuss Voigt Hill
#
# Bulk Modulus (GPa) = 43.43660 71.98381 57.71021
# Shear Modulus (GPa) = 23.25867 27.73209 25.49538
#
# Velocity S-wave (km/s) = 3.53892 3.86429 3.70518
# Velocity P-wave (km/s) = 6.33148 7.65970 7.02705
#
# Compressibility (1/GPa) = 0.02302206
#
# Stress axis : x y z
#
# Youngs Moduli (GPa) = 31.18853 57.26981 78.90611
#
# Poissons Ratio (x) = 0.16248 0.73447
# Poissons Ratio (y) = 0.08849 0.58726
# Poissons Ratio (z) = 0.29031 0.42623
#
# Static dielectric constant tensor:
#      x y z
#    x 3.525990 0.000000 0.000000 
#    y 0.000000 3.453310 0.000000 
#    z 0.000000 0.000000 3.450950 
# 
# 
# High freq. dielectric constant tensor:
#      x y z
#    x 1.726190 0.000000 0.000000 
#    y 0.000000 1.716500 0.000000 
#    z 0.000000 0.000000 1.715120 
# 
# From -- ./inp_files/55109.got.cif
#   From: 2010.03.12/outbox.cif.g09.slc.cpg/sg74_28_cif.got.tgz:55109.got - 2010.04.16 15:46:19.
