data_PCOD8299801
_publ_section_title
;
Structure prediction by ZEFSAII (Michael W. Deem and Ramdas Pophale) SiO2 
 PCOD8299801
Probable space group: I M M A
;
_chemical_formula_sum "Si O2"
_cell_formula_units_Z 72
_cell_length_a 9.641756
_cell_length_b 14.314833
_cell_length_c 29.944191
_cell_angle_alpha 90.000000
_cell_angle_beta 90.000000
_cell_angle_gamma 90.000000
_cell_volume 4132.901044
_symmetry_space_group_name_H-M "I M M A"
_symmetry_group_IT_number 74
_symmetry_cell_setting 'orthorhombic'
loop_
_space_group_symop_operation_xyz
x,y,z
-x,1/2-y,z
x,-y,-z
-x,1/2+y,-z
-x,-y,-z
x,1/2+y,-z
-x,y,z
x,1/2-y,z
1/2+x,1/2+y,1/2+z
1/2-x,-y,1/2+z
1/2+x,1/2-y,1/2-z
1/2-x,y,1/2-z
1/2-x,1/2-y,1/2-z
1/2+x,y,1/2-z
1/2-x,1/2+y,1/2+z
1/2+x,-y,1/2+z
loop_
_atom_site_type_symbol
_atom_site_label
_atom_site_fract_x
_atom_site_fract_y
_atom_site_fract_z
Si Si1 0.838310 0.948156 0.882709
Si Si2 0.839157 0.750000 0.920670
Si Si3 0.155942 0.250000 0.792149
Si Si4 0.341745 0.750000 0.008951
Si Si5 0.160067 0.551109 0.454824
Si Si6 0.660057 0.953218 0.294325
O O1 0.800377 0.840325 0.891334
O O2 0.000000 0.968477 0.891209
O O3 0.752840 0.015258 0.914751
O O4 0.797107 0.971450 0.831693
O O5 0.000000 0.750000 0.934020
O O6 0.754559 0.750000 0.966047
O O7 0.250000 0.250000 0.750000
O O8 0.184181 0.349221 0.816906
O O9 0.000000 0.250000 0.774272
O O10 0.500000 0.750000 0.991414
O O11 0.312247 0.660986 0.039847
O O12 0.206801 0.500000 0.500000
O O13 0.000000 0.528838 0.444067
O O14 0.500000 0.966056 0.280457
O O15 0.750000 0.969636 0.250000
#
# Coordination Sequence:
#
# PCOD8299801 Si02
#       6
#    16   8   8   8  16  16
#     4  10  21  35  53  77 105 136 175 217 260 308
#     4  10  20  34  52  74 101 138 176 213 258 309
#     4   8  14  27  48  70  94 125 159 196 247 302
#     4  10  20  35  53  76 106 137 171 213 258 305
#     4  10  20  34  53  76 103 135 170 211 256 305
#     4   9  18  33  52  75 102 133 168 210 256 305
#
# _framework density 17.421177
#
# number of rings (size 3 to 8) (size 9 to 14) (size 15 to 20)
#    0.000    2.444    2.222    0.000    0.000    3.111 
#    0.000    1.667    0.000    4.000    0.000    0.000 
#    0.000    0.000    0.000    0.000    0.000    0.000 
#
# Total GULP energy -446199.575113 kJ/mol
# GULP energy per Si atom -12394.432642 kJ/mol
# Density = 1.738153 g / cm^3
# Si number density = 17.421177 Si / 1000 Ang^3
#
#
#
# Elastic Constant Matrix: (Units=GPa)
#
#
# Indices 1 2 3 4 5 6 
#
# 1 60.3706 49.3748 58.1020 0.0000 0.0000 0.0000
# 2 49.3748 136.4800 67.4891 0.0000 0.0000 0.0000
# 3 58.1020 67.4891 114.9833 0.0000 0.0000 0.0000
# 4 0.0000 0.0000 0.0000 5.0734 0.0000 0.0000
# 5 0.0000 0.0000 0.0000 0.0000 29.4475 0.0000
# 6 0.0000 0.0000 0.0000 0.0000 0.0000 16.2751
#
#
#
# Elastic Compliance Matrix: (Units=1/GPa)
#
#
# Indices 1 2 3 4 5 6 
#
# 1 0.034961 -0.005512 -0.014431 0.000000 0.000000 0.000000
# 2 -0.005512 0.011192 -0.003784 0.000000 0.000000 0.000000
# 3 -0.014431 -0.003784 0.018210 0.000000 0.000000 0.000000
# 4 0.000000 0.000000 0.000000 0.197105 0.000000 0.000000
# 5 0.000000 0.000000 0.000000 0.000000 0.033959 0.000000
# 6 0.000000 0.000000 0.000000 0.000000 0.000000 0.061443
#
#
# Mechanical properties :
#
#
# Convention : Reuss Voigt Hill
#
# Bulk Modulus (GPa) = 59.13815 73.52955 66.33385
# Shear Modulus (GPa) = 12.19630 19.28375 15.74002
#
# Velocity S-wave (km/s) = 2.64878 3.33064 3.00909
# Velocity P-wave (km/s) = 6.58594 7.55576 7.08746
#
# Compressibility (1/GPa) = 0.01690956
#
# Stress axis : x y z
#
# Youngs Moduli (GPa) = 28.60342 89.34655 54.91481
#
# Poissons Ratio (x) = 0.49247 0.79247
# Poissons Ratio (y) = 0.15766 0.20780
# Poissons Ratio (z) = 0.41277 0.33810
#
# Static dielectric constant tensor:
#      x y z
#    x 3.263490 0.000000 0.000000 
#    y 0.000000 3.962680 0.000000 
#    z 0.000000 0.000000 2.820240 
# 
# 
# High freq. dielectric constant tensor:
#      x y z
#    x 1.674890 0.000000 0.000000 
#    y 0.000000 1.688330 0.000000 
#    z 0.000000 0.000000 1.647740 
# 
# From -- ./inp_files/66766.got.cif
#   From: 2010.03.12/outbox.cif.g09.slc.cpg/sg74_34_cif.got.tgz:66766.got - 2010.04.16 15:46:19.
