data_PCOD8299007
_publ_section_title
;
Structure prediction by ZEFSAII (Michael W. Deem and Ramdas Pophale) SiO2 
 PCOD8299007
Probable space group: I M M A
;
_chemical_formula_sum "Si O2"
_cell_formula_units_Z 96
_cell_length_a 16.614194
_cell_length_b 23.633364
_cell_length_c 12.754289
_cell_angle_alpha 90.000000
_cell_angle_beta 90.000000
_cell_angle_gamma 90.000000
_cell_volume 5007.962576
_symmetry_space_group_name_H-M "I M M A"
_symmetry_group_IT_number 74
_symmetry_cell_setting 'orthorhombic'
loop_
_space_group_symop_operation_xyz
x,y,z
-x,1/2-y,z
x,-y,-z
-x,1/2+y,-z
-x,-y,-z
x,1/2+y,-z
-x,y,z
x,1/2-y,z
1/2+x,1/2+y,1/2+z
1/2-x,-y,1/2+z
1/2+x,1/2-y,1/2-z
1/2-x,y,1/2-z
1/2-x,1/2-y,1/2-z
1/2+x,y,1/2-z
1/2-x,1/2+y,1/2+z
1/2+x,-y,1/2+z
loop_
_atom_site_type_symbol
_atom_site_label
_atom_site_fract_x
_atom_site_fract_y
_atom_site_fract_z
Si Si1 0.404331 0.369533 0.681301
Si Si2 0.595822 0.250000 0.375372
Si Si3 0.905456 0.564744 0.975518
Si Si4 0.904297 0.250000 0.885787
Si Si5 0.904107 0.440923 0.627625
Si Si6 0.841326 0.366614 0.214762
Si Si7 0.906587 0.934380 0.602571
O O1 0.500000 0.371166 0.687265
O O2 0.376426 0.400191 0.575583
O O3 0.372560 0.305018 0.676429
O O4 0.366078 0.400734 0.782409
O O5 0.500000 0.250000 0.369137
O O6 0.627244 0.250000 0.494729
O O7 0.629682 0.305059 0.318504
O O8 0.855367 0.587072 0.876126
O O9 0.000000 0.573265 0.950764
O O10 0.885093 0.500000 0.000000
O O11 0.000000 0.250000 0.890580
O O12 0.872352 0.419848 0.513667
O O13 0.872823 0.505374 0.645079
O O14 0.000000 0.437621 0.637324
O O15 0.750000 0.365391 0.250000
O O16 0.890701 0.383902 0.317805
O O17 0.000000 0.943544 0.586227
#
# Coordination Sequence:
#
# PCOD8299007 Si02
#       7
#    16   8  16   8  16  16  16
#     4   9  15  26  47  78 106 131 176 235 289 328
#     4  11  21  39  62  81 107 150 201 245 291 344
#     4  10  19  33  57  84 110 142 193 252 294 339
#     4   9  16  27  48  77 107 137 170 227 291 331
#     4   8  15  29  54  82 107 138 182 236 283 332
#     4  12  24  37  53  84 120 156 188 238 299 359
#     4   9  17  33  55  78 107 149 191 227 278 344
#
# _framework density 19.169473
#
# number of rings (size 3 to 8) (size 9 to 14) (size 15 to 20)
#    0.000    2.333    1.667    3.750    0.000    2.667 
#    3.000    0.833    0.000    3.000    0.000    1.167 
#    0.000    0.000    0.000    0.000    0.000    0.000 
#
# Total GULP energy -594973.856267 kJ/mol
# GULP energy per Si atom -12395.288672 kJ/mol
# Density = 1.912584 g / cm^3
# Si number density = 19.169473 Si / 1000 Ang^3
#
#
#
# Elastic Constant Matrix: (Units=GPa)
#
#
# Indices 1 2 3 4 5 6 
#
# 1 33.8422 30.7561 34.3323 0.0000 0.0000 0.0000
# 2 30.7561 141.1874 78.4340 -0.0001 0.0000 0.0000
# 3 34.3323 78.4340 148.8246 0.0001 0.0000 0.0000
# 4 0.0000 -0.0001 0.0001 -6.7859 0.0000 0.0000
# 5 0.0000 0.0000 0.0000 0.0000 -0.0427 0.0000
# 6 0.0000 0.0000 0.0000 0.0000 0.0000 23.1464
#
#
#
# Elastic Compliance Matrix: (Units=1/GPa)
#
#
# Indices 1 2 3 4 5 6 
#
# 1 0.041124 -0.005215 -0.006739 0.000000 -0.000001 0.000000
# 2 -0.005215 0.010676 -0.004424 0.000000 0.000001 0.000000
# 3 -0.006739 -0.004424 0.010605 0.000000 -0.000003 0.000000
# 4 0.000000 0.000000 0.000000 -0.147364 0.000012 0.000000
# 5 -0.000001 0.000001 -0.000003 0.000012-23.437778 -0.000010
# 6 0.000000 0.000000 0.000000 0.000000 -0.000010 0.043203
#
#
# Mechanical properties :
#
#
# Convention : Reuss Voigt Hill
#
# Bulk Modulus (GPa) = 33.72503 67.87766 50.80134
# Shear Modulus (GPa) = -0.21334 15.28569 7.53618
#
# Velocity S-wave (km/s) = -0.33396 2.82689 1.98491
# Velocity P-wave (km/s) = 4.18122 6.79273 5.64020
#
# Compressibility (1/GPa) = 0.02965157
#
# Stress axis : x y z
#
# Youngs Moduli (GPa) = 24.31643 93.66585 94.29372
#
# Poissons Ratio (x) = 0.48847 0.63540
# Poissons Ratio (y) = 0.12681 0.41712
# Poissons Ratio (z) = 0.16386 0.41434
#
# Static dielectric constant tensor:
#      x y z
#    x 2.928870 0.000000 0.000000 
#    y 0.000000 3.634290 0.000000 
#    z 0.000000 0.000000 4.000950 
# 
# 
# High freq. dielectric constant tensor:
#      x y z
#    x 1.691420 0.000000 0.000000 
#    y 0.000000 1.750550 0.000000 
#    z 0.000000 0.000000 1.759660 
# 
# From -- ./inp_files/22694.got.cif
#   From: 2010.03.12/outbox.cif.g09.slc.cpg/sg74_12_cif.got.tgz:22694.got - 2010.04.16 15:46:19.
