data_PCOD8299772
_publ_section_title
;
Structure prediction by ZEFSAII (Michael W. Deem and Ramdas Pophale) SiO2 
 PCOD8299772
Probable space group: I M M A
;
_chemical_formula_sum "Si O2"
_cell_formula_units_Z 96
_cell_length_a 9.319715
_cell_length_b 18.646719
_cell_length_c 32.239819
_cell_angle_alpha 90.000000
_cell_angle_beta 90.000000
_cell_angle_gamma 90.000000
_cell_volume 5602.703668
_symmetry_space_group_name_H-M "I M M A"
_symmetry_group_IT_number 74
_symmetry_cell_setting 'orthorhombic'
loop_
_space_group_symop_operation_xyz
x,y,z
-x,1/2-y,z
x,-y,-z
-x,1/2+y,-z
-x,-y,-z
x,1/2+y,-z
-x,y,z
x,1/2-y,z
1/2+x,1/2+y,1/2+z
1/2-x,-y,1/2+z
1/2+x,1/2-y,1/2-z
1/2-x,y,1/2-z
1/2-x,1/2-y,1/2-z
1/2+x,y,1/2-z
1/2-x,1/2+y,1/2+z
1/2+x,-y,1/2+z
loop_
_atom_site_type_symbol
_atom_site_label
_atom_site_fract_x
_atom_site_fract_y
_atom_site_fract_z
Si Si1 0.834627 0.531878 0.874167
Si Si2 0.166383 0.410784 0.584389
Si Si3 0.667299 0.667454 0.002323
Si Si4 0.665682 0.167315 0.831849
Si Si5 0.830535 0.043372 0.790662
Si Si6 0.166451 0.669645 0.921068
O O1 0.747575 0.484448 0.906790
O O2 0.792280 0.513317 0.826936
O O3 0.801017 0.615622 0.882982
O O4 0.000000 0.513429 0.881595
O O5 0.223518 0.378284 0.541307
O O6 0.195280 0.352824 0.620423
O O7 0.000000 0.429560 0.581133
O O8 0.500000 0.654773 0.994649
O O9 0.701045 0.750000 0.012113
O O10 0.749488 0.641964 0.961353
O O11 0.500000 0.151924 0.820194
O O12 0.705369 0.250000 0.825318
O O13 0.768316 0.121521 0.802025
O O14 0.750000 0.014165 0.750000
O O15 0.000000 0.049580 0.782710
O O16 0.215846 0.750000 0.907959
O O17 0.000000 0.668942 0.932740
#
# Coordination Sequence:
#
# PCOD8299772 Si02
#       6
#    16  16  16  16  16  16
#     4   9  19  34  50  69  92 118 150 189 231 274
#     4   9  17  29  46  68  95 128 162 193 226 263
#     4   9  17  29  45  67  96 128 161 195 227 260
#     4   9  17  30  48  69  94 126 162 195 225 259
#     4  10  20  34  51  70  92 118 149 186 230 278
#     4   9  18  33  51  69  90 119 154 189 228 275
#
# _framework density 17.134585999999999
#
# number of rings (size 3 to 8) (size 9 to 14) (size 15 to 20)
#    0.000    2.833    0.000    1.000    0.000    5.333 
#    0.000    3.333    0.000    3.500    0.000    0.000 
#    0.000    0.000    0.000    0.000    0.000    0.500 
#
# Total GULP energy -595188.141870 kJ/mol
# GULP energy per Si atom -12399.752956 kJ/mol
# Density = 1.709559 g / cm^3
# Si number density = 17.134586 Si / 1000 Ang^3
#
#
#
# Elastic Constant Matrix: (Units=GPa)
#
#
# Indices 1 2 3 4 5 6 
#
# 1 55.9466 41.7103 48.1227 0.0000 0.0000 0.0000
# 2 41.7103 98.6026 70.8899 0.0000 0.0000 0.0000
# 3 48.1227 70.8899 113.5924 0.0000 0.0000 0.0000
# 4 0.0000 0.0000 0.0000 17.7169 0.0000 0.0000
# 5 0.0000 0.0000 0.0000 0.0000 28.2567 0.0000
# 6 0.0000 0.0000 0.0000 0.0000 0.0000 22.6246
#
#
#
# Elastic Compliance Matrix: (Units=1/GPa)
#
#
# Indices 1 2 3 4 5 6 
#
# 1 0.030256 -0.006500 -0.008762 0.000000 0.000000 0.000000
# 2 -0.006500 0.019791 -0.009598 0.000000 0.000000 0.000000
# 3 -0.008762 -0.009598 0.018505 0.000000 0.000000 0.000000
# 4 0.000000 0.000000 0.000000 0.056443 0.000000 0.000000
# 5 0.000000 0.000000 0.000000 0.000000 0.035390 0.000000
# 6 0.000000 0.000000 0.000000 0.000000 0.000000 0.044200
#
#
# Mechanical properties :
#
#
# Convention : Reuss Voigt Hill
#
# Bulk Modulus (GPa) = 53.09402 65.50971 59.30187
# Shear Modulus (GPa) = 19.18783 20.88087 20.03435
#
# Velocity S-wave (km/s) = 3.35002 3.49469 3.42312
# Velocity P-wave (km/s) = 6.78360 7.38913 7.09283
#
# Compressibility (1/GPa) = 0.01883451
#
# Stress axis : x y z
#
# Youngs Moduli (GPa) = 33.05100 50.52690 54.03990
#
# Poissons Ratio (x) = 0.32841 0.47347
# Poissons Ratio (y) = 0.21482 0.51866
# Poissons Ratio (z) = 0.28958 0.48494
#
# Static dielectric constant tensor:
#      x y z
#    x 3.194020 0.000000 0.000000 
#    y 0.000000 3.198180 0.000000 
#    z 0.000000 0.000000 3.250650 
# 
# 
# High freq. dielectric constant tensor:
#      x y z
#    x 1.660030 0.000000 0.000000 
#    y 0.000000 1.650170 0.000000 
#    z 0.000000 0.000000 1.653870 
# 
# From -- ./inp_files/64324.got.cif
#   From: 2010.03.12/outbox.cif.g09.slc.cpg/sg74_33_cif.got.tgz:64324.got - 2010.04.16 15:46:19.
