data_PCOD8299726
_publ_section_title
;
Structure prediction by ZEFSAII (Michael W. Deem and Ramdas Pophale) SiO2 
 PCOD8299726
Probable space group: I M M A
;
_chemical_formula_sum "Si O2"
_cell_formula_units_Z 80
_cell_length_a 8.665298
_cell_length_b 16.116105
_cell_length_c 29.253290
_cell_angle_alpha 90.000000
_cell_angle_beta 90.000000
_cell_angle_gamma 90.000000
_cell_volume 4085.246885
_symmetry_space_group_name_H-M "I M M A"
_symmetry_group_IT_number 74
_symmetry_cell_setting 'orthorhombic'
loop_
_space_group_symop_operation_xyz
x,y,z
-x,1/2-y,z
x,-y,-z
-x,1/2+y,-z
-x,-y,-z
x,1/2+y,-z
-x,y,z
x,1/2-y,z
1/2+x,1/2+y,1/2+z
1/2-x,-y,1/2+z
1/2+x,1/2-y,1/2-z
1/2-x,y,1/2-z
1/2-x,1/2-y,1/2-z
1/2+x,y,1/2-z
1/2-x,1/2+y,1/2+z
1/2+x,-y,1/2+z
loop_
_atom_site_type_symbol
_atom_site_label
_atom_site_fract_x
_atom_site_fract_y
_atom_site_fract_z
Si Si1 0.818987 0.250000 0.465723
Si Si2 0.818998 0.110943 0.203682
Si Si3 0.822366 0.750000 0.868405
Si Si4 0.182678 0.931770 0.297458
Si Si5 0.316299 0.411931 0.982180
Si Si6 0.316552 0.157295 0.887340
O O1 0.785189 0.250000 0.412244
O O2 0.750235 0.165840 0.488381
O O3 0.000000 0.250000 0.474442
O O4 0.750000 0.151102 0.250000
O O5 0.782695 0.169477 0.161190
O O6 0.000000 0.096507 0.210581
O O7 0.735100 0.025090 0.193824
O O8 0.000000 0.750000 0.883792
O O9 0.250000 0.896005 0.250000
O O10 0.248231 0.878272 0.339679
O O11 0.000000 0.927753 0.294814
O O12 0.500000 0.413583 0.985985
O O13 0.261813 0.399640 0.929740
O O14 0.248211 0.500000 0.000000
O O15 0.500000 0.159021 0.885929
O O16 0.251486 0.250000 0.894219
#
# Coordination Sequence:
#
# PCOD8299726 Si02
#       6
#     8  16   8  16  16  16
#     4  10  20  33  55  84 108 133 177 228 263 310
#     4  10  20  36  55  75 104 141 178 216 261 310
#     4  10  23  37  51  74 110 147 171 210 268 320
#     4  10  20  33  53  79 107 137 173 217 264 315
#     4   9  17  30  50  78 109 135 168 222 274 307
#     4   9  17  31  50  74 106 140 172 213 266 314
#
# _framework density 19.582657999999999
#
# number of rings (size 3 to 8) (size 9 to 14) (size 15 to 20)
#    0.000    2.400    1.000    2.700    2.800    2.000 
#    0.000    0.000    0.000    4.800    0.000    0.000 
#    0.000    0.000    0.000    0.000    0.000    0.000 
#
# Total GULP energy -495908.068664 kJ/mol
# GULP energy per Si atom -12397.701717 kJ/mol
# Density = 1.953809 g / cm^3
# Si number density = 19.582658 Si / 1000 Ang^3
#
#
#
# Elastic Constant Matrix: (Units=GPa)
#
#
# Indices 1 2 3 4 5 6 
#
# 1 33.7125 13.9288 22.0147 0.0000 0.0000 0.0000
# 2 13.9288 138.1018 89.1635 0.0000 0.0000 0.0000
# 3 22.0147 89.1635 177.4801 0.0000 0.0000 0.0000
# 4 0.0000 0.0000 0.0000 28.8779 0.0000 0.0000
# 5 0.0000 0.0000 0.0000 0.0000 26.2030 0.0000
# 6 0.0000 0.0000 0.0000 0.0000 0.0000 12.1998
#
#
#
# Elastic Compliance Matrix: (Units=1/GPa)
#
#
# Indices 1 2 3 4 5 6 
#
# 1 0.032369 -0.000995 -0.003515 0.000000 0.000000 0.000000
# 2 -0.000995 0.010748 -0.005276 0.000000 0.000000 0.000000
# 3 -0.003515 -0.005276 0.008721 0.000000 0.000000 0.000000
# 4 0.000000 0.000000 0.000000 0.034629 0.000000 0.000000
# 5 0.000000 0.000000 0.000000 0.000000 0.038164 0.000000
# 6 0.000000 0.000000 0.000000 0.000000 0.000000 0.081968
#
#
# Mechanical properties :
#
#
# Convention : Reuss Voigt Hill
#
# Bulk Modulus (GPa) = 30.99315 66.61207 48.80261
# Shear Modulus (GPa) = 21.10357 28.40197 24.75277
#
# Velocity S-wave (km/s) = 3.28634 3.81250 3.55916
# Velocity P-wave (km/s) = 5.50102 7.31231 6.47036
#
# Compressibility (1/GPa) = 0.03226520
#
# Stress axis : x y z
#
# Youngs Moduli (GPa) = 30.89361 93.04166 114.66440
#
# Poissons Ratio (x) = 0.09260 0.40306
# Poissons Ratio (y) = 0.03075 0.60498
# Poissons Ratio (z) = 0.10859 0.49090
#
# Static dielectric constant tensor:
#      x y z
#    x 3.126210 0.000000 0.000000 
#    y 0.000000 3.838110 0.000000 
#    z 0.000000 0.000000 3.765640 
# 
# 
# High freq. dielectric constant tensor:
#      x y z
#    x 1.718910 0.000000 0.000000 
#    y 0.000000 1.768760 0.000000 
#    z 0.000000 0.000000 1.777600 
# 
# From -- ./inp_files/64021.got.cif
#   From: 2010.03.12/outbox.cif.g09.slc.cpg/sg74_33_cif.got.tgz:64021.got - 2010.04.16 15:46:19.
