data_PCOD8299302
_publ_section_title
;
Structure prediction by ZEFSAII (Michael W. Deem and Ramdas Pophale) SiO2 
 PCOD8299302
Probable space group: I M M A
;
_chemical_formula_sum "Si O2"
_cell_formula_units_Z 112
_cell_length_a 14.992118
_cell_length_b 23.483795
_cell_length_c 14.595255
_cell_angle_alpha 90.000000
_cell_angle_beta 90.000000
_cell_angle_gamma 90.000000
_cell_volume 5138.578075
_symmetry_space_group_name_H-M "I M M A"
_symmetry_group_IT_number 74
_symmetry_cell_setting 'orthorhombic'
loop_
_space_group_symop_operation_xyz
x,y,z
-x,1/2-y,z
x,-y,-z
-x,1/2+y,-z
-x,-y,-z
x,1/2+y,-z
-x,y,z
x,1/2-y,z
1/2+x,1/2+y,1/2+z
1/2-x,-y,1/2+z
1/2+x,1/2-y,1/2-z
1/2-x,y,1/2-z
1/2-x,1/2-y,1/2-z
1/2+x,y,1/2-z
1/2-x,1/2+y,1/2+z
1/2+x,-y,1/2+z
loop_
_atom_site_type_symbol
_atom_site_label
_atom_site_fract_x
_atom_site_fract_y
_atom_site_fract_z
Si Si1 0.396119 0.139568 0.654600
Si Si2 0.398573 0.122999 0.861139
Si Si3 0.679356 0.187222 0.329623
Si Si4 0.750695 0.185337 0.971748
Si Si5 0.397225 0.004654 0.099266
Si Si6 0.893839 0.514822 0.098803
Si Si7 0.602735 0.925220 0.738540
O O1 0.500000 0.148178 0.628681
O O2 0.380163 0.151548 0.762249
O O3 0.336688 0.182190 0.594681
O O4 0.361138 0.076699 0.629880
O O5 0.500000 0.136252 0.893218
O O6 0.331316 0.147066 0.936952
O O7 0.386133 0.055295 0.848208
O O8 0.633888 0.250000 0.343015
O O9 0.750000 0.192670 0.250000
O O10 0.722404 0.166602 0.425332
O O11 0.610966 0.140200 0.291829
O O12 0.716621 0.250000 0.972967
O O13 0.500000 0.019733 0.081213
O O14 0.356244 0.056165 0.162132
O O15 0.348759 0.000000 0.000000
O O16 0.852031 0.466754 0.164415
O O17 0.000000 0.513006 0.098371
O O18 0.854317 0.500000 0.000000
O O19 0.500000 0.941231 0.743170
#
# Coordination Sequence:
#
# PCOD8299302 Si02
#       7
#    16  16  16  16  16  16  16
#     4  10  20  38  62  91 129 166 202 255 324 389
#     4  10  21  40  65  92 128 168 207 262 325 383
#     4  10  24  45  61  82 124 167 211 269 315 360
#     4  11  25  43  63  90 125 168 219 270 317 374
#     4   9  18  34  59  92 127 159 197 255 318 377
#     4   9  16  29  52  84 122 157 191 239 301 368
#     4  10  19  36  64  93 119 158 207 255 317 383
#
# _framework density 21.795912999999999
#
# number of rings (size 3 to 8) (size 9 to 14) (size 15 to 20)
#    0.000    2.143    1.429    1.286    2.000    3.714 
#    2.571    3.571    0.000    2.571    0.000    0.000 
#    0.000    0.000    0.000    0.000    0.000    0.000 
#
# Total GULP energy -694016.607205 kJ/mol
# GULP energy per Si atom -12393.153700 kJ/mol
# Density = 2.174630 g / cm^3
# Si number density = 21.795913 Si / 1000 Ang^3
#
#
#
# Elastic Constant Matrix: (Units=GPa)
#
#
# Indices 1 2 3 4 5 6 
#
# 1 58.9499 19.5248 35.7558 -0.0001 0.0000 0.0002
# 2 19.5248 97.4295 50.3435 0.0013 0.0001 -0.0013
# 3 35.7558 50.3435 172.9706 0.0017 0.0000 -0.0020
# 4 -0.0001 0.0013 0.0017 33.1356 0.0001 -0.0016
# 5 0.0000 0.0001 0.0000 0.0001 21.6103 0.0011
# 6 0.0002 -0.0013 -0.0020 -0.0016 0.0011 -154.5416
#
#
#
# Elastic Compliance Matrix: (Units=1/GPa)
#
#
# Indices 1 2 3 4 5 6 
#
# 1 0.019781 -0.002179 -0.003455 0.000000 0.000000 0.000000
# 2 -0.002179 0.012321 -0.003136 0.000000 0.000000 0.000000
# 3 -0.003455 -0.003136 0.007408 0.000000 0.000000 0.000000
# 4 0.000000 0.000000 0.000000 0.030179 0.000000 0.000000
# 5 0.000000 0.000000 0.000000 0.000000 0.046274 0.000000
# 6 0.000000 0.000000 0.000000 0.000000 0.000000 -0.006471
#
#
# Mechanical properties :
#
#
# Convention : Reuss Voigt Hill
#
# Bulk Modulus (GPa) = 45.51456 60.06648 52.79052
# Shear Modulus (GPa) = 37.21507 -5.04409 16.08549
#
# Velocity S-wave (km/s) = 4.13659 -1.52291 2.71957
# Velocity P-wave (km/s) = 6.61383 4.95238 5.84246
#
# Compressibility (1/GPa) = 0.02197099
#
# Stress axis : x y z
#
# Youngs Moduli (GPa) = 50.55428 81.16444 134.98718
#
# Poissons Ratio (x) = 0.17685 0.46636
# Poissons Ratio (y) = 0.11015 0.42326
# Poissons Ratio (z) = 0.17466 0.25450
#
# Static dielectric constant tensor:
#      x y z
#    x 3.484860 0.000000 0.000000 
#    y 0.000000 4.132650 0.000000 
#    z 0.000000 0.000000 4.277290 
# 
# 
# High freq. dielectric constant tensor:
#      x y z
#    x 1.825820 0.000000 0.000000 
#    y 0.000000 1.848380 0.000000 
#    z 0.000000 0.000000 1.875480 
# 
# From -- ./inp_files/32750.got.cif
#   From: 2010.03.12/outbox.cif.g09.slc.cpg/sg74_17_cif.got.tgz:32750.got - 2010.04.16 15:46:19.
