data_PCOD8299584
_publ_section_title
;
Structure prediction by ZEFSAII (Michael W. Deem and Ramdas Pophale) SiO2 
 PCOD8299584
Probable space group: I M M A
;
_chemical_formula_sum "Si O2"
_cell_formula_units_Z 96
_cell_length_a 9.139452
_cell_length_b 22.978102
_cell_length_c 24.788854
_cell_angle_alpha 90.000000
_cell_angle_beta 90.000000
_cell_angle_gamma 90.000000
_cell_volume 5205.839314
_symmetry_space_group_name_H-M "I M M A"
_symmetry_group_IT_number 74
_symmetry_cell_setting 'orthorhombic'
loop_
_space_group_symop_operation_xyz
x,y,z
-x,1/2-y,z
x,-y,-z
-x,1/2+y,-z
-x,-y,-z
x,1/2+y,-z
-x,y,z
x,1/2-y,z
1/2+x,1/2+y,1/2+z
1/2-x,-y,1/2+z
1/2+x,1/2-y,1/2-z
1/2-x,y,1/2-z
1/2-x,1/2-y,1/2-z
1/2+x,y,1/2-z
1/2-x,1/2+y,1/2+z
1/2+x,-y,1/2+z
loop_
_atom_site_type_symbol
_atom_site_label
_atom_site_fract_x
_atom_site_fract_y
_atom_site_fract_z
Si Si1 0.327847 0.898127 0.405369
Si Si2 0.326895 0.875132 0.984094
Si Si3 0.163851 0.319513 0.301682
Si Si4 0.339245 0.683844 0.598697
Si Si5 0.828562 0.316811 0.805606
Si Si6 0.159538 0.478378 0.060511
O O1 0.500000 0.888355 0.416942
O O2 0.234900 0.875908 0.455832
O O3 0.278013 0.861612 0.352649
O O4 0.293568 0.967611 0.400306
O O5 0.500000 0.872677 0.986769
O O6 0.256280 0.818721 0.956142
O O7 0.278021 0.926882 0.942497
O O8 0.157807 0.250000 0.303004
O O9 0.250000 0.342745 0.250000
O O10 0.249238 0.346148 0.352864
O O11 0.000000 0.345067 0.301146
O O12 0.500000 0.654709 0.591609
O O13 0.362198 0.750000 0.614644
O O14 0.788714 0.250000 0.821976
O O15 0.750000 0.334518 0.750000
O O16 0.000000 0.323079 0.795463
O O17 0.000000 0.455184 0.079467
O O18 0.144693 0.500000 0.000000
#
# Coordination Sequence:
#
# PCOD8299584 Si02
#       6
#    16  16  16  16  16  16
#     4   9  18  33  52  73  98 132 171 206 245 298
#     4  11  21  31  47  73 103 130 161 207 259 308
#     4   9  16  27  44  65  88 115 151 192 230 271
#     4  10  20  33  48  66  92 128 165 199 241 294
#     4   9  18  33  53  77 105 136 171 211 255 305
#     4   8  15  30  50  69  92 124 163 201 237 286
#
# _framework density 18.440829999999998
#
# number of rings (size 3 to 8) (size 9 to 14) (size 15 to 20)
#    0.000    2.667    0.000    3.500    0.000    7.333 
#    0.000    1.667    0.000    1.000    0.000    4.667 
#    0.000    0.000    0.000    0.000    0.000    0.000 
#
# Total GULP energy -594661.193486 kJ/mol
# GULP energy per Si atom -12388.774864 kJ/mol
# Density = 1.839886 g / cm^3
# Si number density = 18.440830 Si / 1000 Ang^3
#
#
#
# Elastic Constant Matrix: (Units=GPa)
#
#
# Indices 1 2 3 4 5 6 
#
# 1 133.6115 20.0807 66.9506 0.0000 0.0000 0.0000
# 2 20.0807 60.0655 44.6218 0.0000 0.0000 0.0000
# 3 66.9506 44.6218 120.9932 0.0000 0.0000 0.0000
# 4 0.0000 0.0000 0.0000 29.0205 0.0000 0.0000
# 5 0.0000 0.0000 0.0000 0.0000 27.5537 0.0000
# 6 0.0000 0.0000 0.0000 0.0000 0.0000 17.9647
#
#
#
# Elastic Compliance Matrix: (Units=1/GPa)
#
#
# Indices 1 2 3 4 5 6 
#
# 1 0.010408 0.001100 -0.006165 0.000000 0.000000 0.000000
# 2 0.001100 0.023047 -0.009109 0.000000 0.000000 0.000000
# 3 -0.006165 -0.009109 0.015036 0.000000 0.000000 0.000000
# 4 0.000000 0.000000 0.000000 0.034458 0.000000 0.000000
# 5 0.000000 0.000000 0.000000 0.000000 0.036293 0.000000
# 6 0.000000 0.000000 0.000000 0.000000 0.000000 0.055665
#
#
# Mechanical properties :
#
#
# Convention : Reuss Voigt Hill
#
# Bulk Modulus (GPa) = 49.64170 64.21959 56.93065
# Shear Modulus (GPa) = 23.81307 27.10891 25.46099
#
# Velocity S-wave (km/s) = 3.59740 3.83828 3.71979
# Velocity P-wave (km/s) = 6.65078 7.38536 7.02767
#
# Compressibility (1/GPa) = 0.02014435
#
# Stress axis : x y z
#
# Youngs Moduli (GPa) = 96.07746 43.38903 66.50885
#
# Poissons Ratio (x) = -0.04774 0.41004
# Poissons Ratio (y) = -0.10572 0.60580
# Poissons Ratio (z) = 0.59233 0.39521
#
# Static dielectric constant tensor:
#      x y z
#    x 3.502800 0.000000 0.000000 
#    y 0.000000 3.484380 0.000000 
#    z 0.000000 0.000000 3.320290 
# 
# 
# High freq. dielectric constant tensor:
#      x y z
#    x 1.719210 0.000000 0.000000 
#    y 0.000000 1.689890 0.000000 
#    z 0.000000 0.000000 1.700670 
# 
# From -- ./inp_files/57493.got.cif
#   From: 2010.03.12/outbox.cif.g09.slc.cpg/sg74_29_cif.got.tgz:57493.got - 2010.04.16 15:46:19.
