data_PCOD8299802
_publ_section_title
;
Structure prediction by ZEFSAII (Michael W. Deem and Ramdas Pophale) SiO2 
 PCOD8299802
Probable space group: I M M A
;
_chemical_formula_sum "Si O2"
_cell_formula_units_Z 104
_cell_length_a 9.065001
_cell_length_b 21.565649
_cell_length_c 27.319765
_cell_angle_alpha 90.000000
_cell_angle_beta 90.000000
_cell_angle_gamma 90.000000
_cell_volume 5340.812704
_symmetry_space_group_name_H-M "I M M A"
_symmetry_group_IT_number 74
_symmetry_cell_setting 'orthorhombic'
loop_
_space_group_symop_operation_xyz
x,y,z
-x,1/2-y,z
x,-y,-z
-x,1/2+y,-z
-x,-y,-z
x,1/2+y,-z
-x,y,z
x,1/2-y,z
1/2+x,1/2+y,1/2+z
1/2-x,-y,1/2+z
1/2+x,1/2-y,1/2-z
1/2-x,y,1/2-z
1/2-x,1/2-y,1/2-z
1/2+x,y,1/2-z
1/2-x,1/2+y,1/2+z
1/2+x,-y,1/2+z
loop_
_atom_site_type_symbol
_atom_site_label
_atom_site_fract_x
_atom_site_fract_y
_atom_site_fract_z
Si Si1 0.673830 0.177791 0.974971
Si Si2 0.672891 0.427433 0.363607
Si Si3 0.326467 0.319604 0.298857
Si Si4 0.673256 0.541054 0.301488
Si Si5 0.675991 0.562830 0.527732
Si Si6 0.330137 0.250000 0.800185
Si Si7 0.828226 0.136471 0.633895
O O1 0.500000 0.171987 0.984355
O O2 0.723036 0.250000 0.984613
O O3 0.714720 0.158646 0.919959
O O4 0.757962 0.127628 0.008146
O O5 0.500000 0.430862 0.371300
O O6 0.724081 0.359492 0.345825
O O7 0.717531 0.472373 0.318911
O O8 0.739314 0.443639 0.416815
O O9 0.500000 0.324764 0.290269
O O10 0.274667 0.250000 0.310167
O O11 0.250000 0.345080 0.250000
O O12 0.500000 0.550915 0.294026
O O13 0.750000 0.557705 0.250000
O O14 0.728494 0.580225 0.347971
O O15 0.729975 0.500000 0.500000
O O16 0.500000 0.568350 0.524272
O O17 0.500000 0.250000 0.788323
O O18 0.250000 0.250000 0.750000
O O19 0.282811 0.309260 0.830149
O O20 0.000000 0.118538 0.637253
#
# Coordination Sequence:
#
# PCOD8299802 Si02
#       7
#    16  16  16  16  16   8  16
#     4  10  21  39  61  85 115 151 191 240 294 348
#     4   9  19  35  54  77 108 144 180 222 272 328
#     4   9  17  31  52  76 102 135 173 212 259 318
#     4  11  22  36  55  81 113 148 186 229 278 332
#     4  10  21  38  59  84 114 148 190 240 288 340
#     4  10  20  34  52  74 102 138 176 218 265 314
#     4  10  20  37  57  77 107 146 185 225 276 328
#
# _framework density 19.472691999999999
#
# number of rings (size 3 to 8) (size 9 to 14) (size 15 to 20)
#    0.000    2.154    0.769    2.308    0.000    4.923 
#    0.000    4.615    0.000    1.846    0.000    0.000 
#    0.000    0.000    0.000    0.000    0.000    0.000 
#
# Total GULP energy -644478.067406 kJ/mol
# GULP energy per Si atom -12393.808989 kJ/mol
# Density = 1.942837 g / cm^3
# Si number density = 19.472692 Si / 1000 Ang^3
#
#
#
# Elastic Constant Matrix: (Units=GPa)
#
#
# Indices 1 2 3 4 5 6 
#
# 1 36.0323 33.3128 24.9546 0.0000 0.0000 0.0000
# 2 33.3128 118.5912 50.0067 0.0000 0.0000 0.0000
# 3 24.9546 50.0067 107.3789 0.0000 0.0000 0.0000
# 4 0.0000 0.0000 0.0000 33.4965 0.0000 0.0000
# 5 0.0000 0.0000 0.0000 0.0000 28.6339 0.0000
# 6 0.0000 0.0000 0.0000 0.0000 0.0000 35.8688
#
#
#
# Elastic Compliance Matrix: (Units=1/GPa)
#
#
# Indices 1 2 3 4 5 6 
#
# 1 0.039532 -0.008998 -0.004997 0.000000 0.000000 0.000000
# 2 -0.008998 0.012541 -0.003749 0.000000 0.000000 0.000000
# 3 -0.004997 -0.003749 0.012220 0.000000 0.000000 0.000000
# 4 0.000000 0.000000 0.000000 0.029854 0.000000 0.000000
# 5 0.000000 0.000000 0.000000 0.000000 0.034924 0.000000
# 6 0.000000 0.000000 0.000000 0.000000 0.000000 0.027879
#
#
# Mechanical properties :
#
#
# Convention : Reuss Voigt Hill
#
# Bulk Modulus (GPa) = 34.71580 53.17228 43.94404
# Shear Modulus (GPa) = 24.74766 29.84839 27.29802
#
# Velocity S-wave (km/s) = 3.56882 3.91939 3.74821
# Velocity P-wave (km/s) = 5.90327 6.91719 6.43025
#
# Compressibility (1/GPa) = 0.02880533
#
# Stress axis : x y z
#
# Youngs Moduli (GPa) = 25.29589 79.73999 81.83227
#
# Poissons Ratio (x) = 0.71747 0.40891
# Poissons Ratio (y) = 0.22760 0.30681
# Poissons Ratio (z) = 0.12640 0.29896
#
# Static dielectric constant tensor:
#      x y z
#    x 3.079600 0.000000 0.000000 
#    y 0.000000 3.881090 0.000000 
#    z 0.000000 0.000000 3.747100 
# 
# 
# High freq. dielectric constant tensor:
#      x y z
#    x 1.733270 0.000000 0.000000 
#    y 0.000000 1.773470 0.000000 
#    z 0.000000 0.000000 1.766080 
# 
# From -- ./inp_files/64420.got.cif
#   From: 2010.03.12/outbox.cif.g09.slc.cpg/sg74_33_cif.got.tgz:64420.got - 2010.04.16 15:46:19.
