data_PCOD8299793
_publ_section_title
;
Structure prediction by ZEFSAII (Michael W. Deem and Ramdas Pophale) SiO2 
 PCOD8299793
Probable space group: I M M A
;
_chemical_formula_sum "Si O2"
_cell_formula_units_Z 88
_cell_length_a 17.669656
_cell_length_b 9.287952
_cell_length_c 28.473996
_cell_angle_alpha 90.000000
_cell_angle_beta 90.000000
_cell_angle_gamma 90.000000
_cell_volume 4673.007484
_symmetry_space_group_name_H-M "I M M A"
_symmetry_group_IT_number 74
_symmetry_cell_setting 'orthorhombic'
loop_
_space_group_symop_operation_xyz
x,y,z
-x,1/2-y,z
x,-y,-z
-x,1/2+y,-z
-x,-y,-z
x,1/2+y,-z
-x,y,z
x,1/2-y,z
1/2+x,1/2+y,1/2+z
1/2-x,-y,1/2+z
1/2+x,1/2-y,1/2-z
1/2-x,y,1/2-z
1/2-x,1/2-y,1/2-z
1/2+x,y,1/2-z
1/2-x,1/2+y,1/2+z
1/2+x,-y,1/2+z
loop_
_atom_site_type_symbol
_atom_site_label
_atom_site_fract_x
_atom_site_fract_y
_atom_site_fract_z
Si Si1 0.000000 0.583299 0.048150
Si Si2 0.089883 0.409524 0.293082
Si Si3 0.583554 0.579277 0.895610
Si Si4 0.772066 0.578758 0.548459
Si Si5 0.413747 0.582834 0.294853
Si Si6 0.149030 0.917872 0.105398
O O1 0.073227 0.540893 0.077844
O O2 0.000000 0.750000 0.035694
O O3 0.000000 0.500000 0.000000
O O4 0.124638 0.250000 0.287702
O O5 0.110591 0.477713 0.344194
O O6 0.122363 0.504905 0.250519
O O7 0.000000 0.403526 0.289768
O O8 0.500000 0.517901 0.909077
O O9 0.578585 0.750000 0.891004
O O10 0.643260 0.534546 0.935494
O O11 0.753426 0.500000 0.500000
O O12 0.762584 0.750000 0.542537
O O13 0.715264 0.521121 0.587764
O O14 0.500000 0.532872 0.304712
O O15 0.412154 0.750000 0.283565
O O16 0.363010 0.546131 0.339942
O O17 0.169769 0.750000 0.097875
#
# Coordination Sequence:
#
# PCOD8299793 Si02
#       6
#     8  16  16  16  16  16
#     4  10  20  34  52  72  96 134 180 220 257 302
#     4   8  14  27  50  78 104 132 169 212 254 301
#     4   8  16  34  58  80 104 136 173 212 258 314
#     4  11  23  38  56  78 104 136 173 217 269 317
#     4   9  16  29  50  76 106 140 174 211 256 303
#     4  10  20  36  54  74 105 142 178 215 259 308
#
# _framework density 18.831555999999999
#
# number of rings (size 3 to 8) (size 9 to 14) (size 15 to 20)
#    0.000    2.727    0.909    2.182    0.000    3.273 
#    0.000    2.727    0.000    9.273    0.000    0.000 
#    0.000    0.000    0.000    0.000    0.000    0.000 
#
# Total GULP energy -545429.277413 kJ/mol
# GULP energy per Si atom -12396.119941 kJ/mol
# Density = 1.878869 g / cm^3
# Si number density = 18.831556 Si / 1000 Ang^3
#
#
#
# Elastic Constant Matrix: (Units=GPa)
#
#
# Indices 1 2 3 4 5 6 
#
# 1 72.3661 26.4440 17.3160 0.0000 0.0000 0.0000
# 2 26.4440 51.3756 28.0968 0.0000 0.0000 0.0000
# 3 17.3160 28.0968 67.8442 0.0000 0.0000 0.0000
# 4 0.0000 0.0000 0.0000 28.6076 0.0000 0.0000
# 5 0.0000 0.0000 0.0000 0.0000 25.4588 0.0000
# 6 0.0000 0.0000 0.0000 0.0000 0.0000 20.3024
#
#
#
# Elastic Compliance Matrix: (Units=1/GPa)
#
#
# Indices 1 2 3 4 5 6 
#
# 1 0.017065 -0.008276 -0.000928 0.000000 0.000000 0.000000
# 2 -0.008276 0.029178 -0.009971 0.000000 0.000000 0.000000
# 3 -0.000928 -0.009971 0.019106 0.000000 0.000000 0.000000
# 4 0.000000 0.000000 0.000000 0.034956 0.000000 0.000000
# 5 0.000000 0.000000 0.000000 0.000000 0.039279 0.000000
# 6 0.000000 0.000000 0.000000 0.000000 0.000000 0.049255
#
#
# Mechanical properties :
#
#
# Convention : Reuss Voigt Hill
#
# Bulk Modulus (GPa) = 37.04018 37.25552 37.14785
# Shear Modulus (GPa) = 21.16952 22.85569 22.01260
#
# Velocity S-wave (km/s) = 3.35647 3.48759 3.42266
# Velocity P-wave (km/s) = 5.89348 6.00368 5.94884
#
# Compressibility (1/GPa) = 0.02699771
#
# Stress axis : x y z
#
# Youngs Moduli (GPa) = 58.59964 34.27297 52.33964
#
# Poissons Ratio (x) = 0.28365 0.04858
# Poissons Ratio (y) = 0.48498 0.52189
# Poissons Ratio (z) = 0.05439 0.34174
#
# Static dielectric constant tensor:
#      x y z
#    x 3.386000 0.000000 0.000000 
#    y 0.000000 3.293070 0.000000 
#    z 0.000000 0.000000 2.490510 
# 
# 
# High freq. dielectric constant tensor:
#      x y z
#    x 1.710870 0.000000 0.000000 
#    y 0.000000 1.708260 0.000000 
#    z 0.000000 0.000000 1.744030 
# 
# From -- ./inp_files/70203.got.cif
#   From: 2010.03.12/outbox.cif.g09.slc.cpg/sg74_36_cif.got.tgz:70203.got - 2010.04.16 15:46:19.
