data_PCOD8299488
_publ_section_title
;
Structure prediction by ZEFSAII (Michael W. Deem and Ramdas Pophale) SiO2 
 PCOD8299488
Probable space group: I M M A
;
_chemical_formula_sum "Si O2"
_cell_formula_units_Z 96
_cell_length_a 18.473776
_cell_length_b 16.780305
_cell_length_c 16.206511
_cell_angle_alpha 90.000000
_cell_angle_beta 90.000000
_cell_angle_gamma 90.000000
_cell_volume 5023.947033
_symmetry_space_group_name_H-M "I M M A"
_symmetry_group_IT_number 74
_symmetry_cell_setting 'orthorhombic'
loop_
_space_group_symop_operation_xyz
x,y,z
-x,1/2-y,z
x,-y,-z
-x,1/2+y,-z
-x,-y,-z
x,1/2+y,-z
-x,y,z
x,1/2-y,z
1/2+x,1/2+y,1/2+z
1/2-x,-y,1/2+z
1/2+x,1/2-y,1/2-z
1/2-x,y,1/2-z
1/2-x,1/2-y,1/2-z
1/2+x,y,1/2-z
1/2-x,1/2+y,1/2+z
1/2+x,-y,1/2+z
loop_
_atom_site_type_symbol
_atom_site_label
_atom_site_fract_x
_atom_site_fract_y
_atom_site_fract_z
Si Si1 0.140377 0.416034 0.546966
Si Si2 0.421680 0.341677 0.099941
Si Si3 0.079660 0.656745 0.112571
Si Si4 0.229463 0.344616 0.340654
Si Si5 0.799635 0.909220 0.997865
Si Si6 0.914450 0.340472 0.704910
O O1 0.125165 0.500000 0.500000
O O2 0.093091 0.350691 0.497689
O O3 0.225173 0.395465 0.546711
O O4 0.116661 0.407228 0.641851
O O5 0.500000 0.381197 0.123735
O O6 0.426493 0.250000 0.123791
O O7 0.351703 0.380312 0.145141
O O8 0.069681 0.750000 0.118300
O O9 0.107701 0.628908 0.203165
O O10 0.000000 0.619232 0.092464
O O11 0.136185 0.638755 0.040435
O O12 0.229881 0.250000 0.352220
O O13 0.250000 0.372213 0.250000
O O14 0.287839 0.381336 0.403470
O O15 0.824173 0.000000 0.000000
O O16 0.884728 0.250000 0.687830
O O17 0.000000 0.339336 0.697830
#
# Coordination Sequence:
#
# PCOD8299488 Si02
#       6
#    16  16  16  16  16  16
#     4  10  20  32  47  74 109 143 175 211 262 320
#     4   9  17  30  49  72  99 132 171 214 258 310
#     4   9  19  37  59  81 106 139 182 229 271 316
#     4   9  18  35  57  76 101 141 181 221 270 317
#     4  10  21  37  52  79 108 141 177 219 269 326
#     4   9  18  33  53  78 108 141 177 220 269 317
#
# _framework density 19.108481000000001
#
# number of rings (size 3 to 8) (size 9 to 14) (size 15 to 20)
#    0.000    2.667    0.000    2.500    0.000    5.667 
#    9.000    2.500    0.000    3.000    0.000    0.000 
#    0.000    0.000    0.000    0.000    0.000    0.000 
#
# Total GULP energy -594709.986215 kJ/mol
# GULP energy per Si atom -12389.791379 kJ/mol
# Density = 1.906499 g / cm^3
# Si number density = 19.108481 Si / 1000 Ang^3
#
#
#
# Elastic Constant Matrix: (Units=GPa)
#
#
# Indices 1 2 3 4 5 6 
#
# 1 111.1507 24.1181 77.5040 0.0000 0.0000 0.0000
# 2 24.1181 37.0552 33.3051 0.0000 0.0000 0.0000
# 3 77.5040 33.3051 156.0504 0.0000 0.0000 0.0000
# 4 0.0000 0.0000 0.0000 17.7666 0.0000 0.0000
# 5 0.0000 0.0000 0.0000 0.0000 -0.0141 0.0000
# 6 0.0000 0.0000 0.0000 0.0000 0.0000 19.8661
#
#
#
# Elastic Compliance Matrix: (Units=1/GPa)
#
#
# Indices 1 2 3 4 5 6 
#
# 1 0.014136 -0.003577 -0.006258 0.000000 0.000000 0.000000
# 2 -0.003577 0.034297 -0.005544 0.000000 0.000000 0.000000
# 3 -0.006258 -0.005544 0.010699 0.000000 0.000000 0.000000
# 4 0.000000 0.000000 0.000000 0.056285 0.000000 0.000000
# 5 0.000000 0.000000 0.000000 0.000000-70.830075 0.000000
# 6 0.000000 0.000000 0.000000 0.000000 0.000000 0.050337
#
#
# Mechanical properties :
#
#
# Convention : Reuss Voigt Hill
#
# Bulk Modulus (GPa) = 35.23951 63.79007 49.51479
# Shear Modulus (GPa) = -0.07080 18.81233 9.37077
#
# Velocity S-wave (km/s) = -0.19269 3.14108 2.21690
# Velocity P-wave (km/s) = 4.29329 6.82721 5.70277
#
# Compressibility (1/GPa) = 0.02837724
#
# Stress axis : x y z
#
# Youngs Moduli (GPa) = 70.74061 29.15696 93.46506
#
# Poissons Ratio (x) = 0.10428 0.58486
# Poissons Ratio (y) = 0.25301 0.51813
# Poissons Ratio (z) = 0.44266 0.16163
#
# Static dielectric constant tensor:
#      x y z
#    x 3.640000 0.000000 0.000000 
#    y 0.000000 3.279560 0.000000 
#    z 0.000000 0.000000 3.595770 
# 
# 
# High freq. dielectric constant tensor:
#      x y z
#    x 1.743910 0.000000 0.000000 
#    y 0.000000 1.722480 0.000000 
#    z 0.000000 0.000000 1.733030 
# 
# From -- ./inp_files/32367.got.cif
#   From: 2010.03.12/outbox.cif.g09.slc.cpg/sg74_17_cif.got.tgz:32367.got - 2010.04.16 15:46:19.
