data_PCOD8299129
_publ_section_title
;
Structure prediction by ZEFSAII (Michael W. Deem and Ramdas Pophale) SiO2 
 PCOD8299129
Probable space group: I M M A
;
_chemical_formula_sum "Si O2"
_cell_formula_units_Z 104
_cell_length_a 9.986187
_cell_length_b 26.504586
_cell_length_c 22.437241
_cell_angle_alpha 90.000000
_cell_angle_beta 90.000000
_cell_angle_gamma 90.000000
_cell_volume 5938.683387
_symmetry_space_group_name_H-M "I M M A"
_symmetry_group_IT_number 74
_symmetry_cell_setting 'orthorhombic'
loop_
_space_group_symop_operation_xyz
x,y,z
-x,1/2-y,z
x,-y,-z
-x,1/2+y,-z
-x,-y,-z
x,1/2+y,-z
-x,y,z
x,1/2-y,z
1/2+x,1/2+y,1/2+z
1/2-x,-y,1/2+z
1/2+x,1/2-y,1/2-z
1/2-x,y,1/2-z
1/2-x,1/2-y,1/2-z
1/2+x,y,1/2-z
1/2-x,1/2+y,1/2+z
1/2+x,-y,1/2+z
loop_
_atom_site_type_symbol
_atom_site_label
_atom_site_fract_x
_atom_site_fract_y
_atom_site_fract_z
Si Si1 0.500000 0.808908 0.337135
Si Si2 0.154405 0.250000 0.193601
Si Si3 0.659123 0.450678 0.576678
Si Si4 0.146746 0.694319 0.494027
Si Si5 0.500000 0.310755 0.799418
Si Si6 0.268940 0.644630 0.122675
Si Si7 0.343539 0.560517 0.558939
Si Si8 0.655912 0.331624 0.404205
O O1 0.500000 0.750000 0.338472
O O2 0.500000 0.827094 0.269010
O O3 0.628964 0.827257 0.372120
O O4 0.250000 0.250000 0.250000
O O5 0.185067 0.198868 0.156430
O O6 0.000000 0.250000 0.214494
O O7 0.500000 0.445679 0.587745
O O8 0.738878 0.415582 0.623944
O O9 0.698368 0.432058 0.509883
O O10 0.713980 0.508031 0.585763
O O11 0.149118 0.750000 0.465275
O O12 0.168932 0.655245 0.441473
O O13 0.259318 0.693350 0.544003
O O14 0.000000 0.683246 0.522549
O O15 0.500000 0.250000 0.809388
O O16 0.368090 0.336710 0.826065
O O17 0.500000 0.552409 0.559823
O O18 0.302012 0.608964 0.599353
O O19 0.500000 0.326621 0.421601
#
# Coordination Sequence:
#
# PCOD8299129 Si02
#       8
#     8   8  16  16   8  16  16  16
#     4  11  24  38  56  77  98 142 194 236 273 313
#     4  10  22  38  58  86 114 152 189 222 271 327
#     4   9  16  29  51  82 108 140 179 218 275 330
#     4  11  22  33  48  77 120 150 169 212 289 335
#     4  11  24  42  54  69 110 152 184 226 283 337
#     4  12  21  35  55  79 106 141 188 233 267 330
#     4   8  15  28  50  80 116 139 168 222 276 325
#     4  10  19  34  57  86 110 140 185 232 260 318
#
# _framework density 17.512298000000001
#
# number of rings (size 3 to 8) (size 9 to 14) (size 15 to 20)
#    0.000    1.846    3.846    2.769    1.077    1.846 
#    0.000    0.000    1.692    3.692    0.000    0.000 
#    0.000    0.000    0.000    0.000    0.000    0.000 
#
# Total GULP energy -644426.103555 kJ/mol
# GULP energy per Si atom -12392.809684 kJ/mol
# Density = 1.747244 g / cm^3
# Si number density = 17.512298 Si / 1000 Ang^3
#
#
#
# Elastic Constant Matrix: (Units=GPa)
#
#
# Indices 1 2 3 4 5 6 
#
# 1 68.1293 33.3946 23.0619 0.0000 0.0000 0.0000
# 2 33.3946 118.9074 43.2295 0.0000 0.0000 0.0000
# 3 23.0619 43.2295 54.7844 0.0000 0.0000 0.0000
# 4 0.0000 0.0000 0.0000 13.3654 0.0000 0.0000
# 5 0.0000 0.0000 0.0000 0.0000 25.5341 0.0000
# 6 0.0000 0.0000 0.0000 0.0000 0.0000 31.9042
#
#
#
# Elastic Compliance Matrix: (Units=1/GPa)
#
#
# Indices 1 2 3 4 5 6 
#
# 1 0.017954 -0.003218 -0.005019 0.000000 0.000000 0.000000
# 2 -0.003218 0.012370 -0.008406 0.000000 0.000000 0.000000
# 3 -0.005019 -0.008406 0.026999 0.000000 0.000000 0.000000
# 4 0.000000 0.000000 0.000000 0.074820 0.000000 0.000000
# 5 0.000000 0.000000 0.000000 0.000000 0.039163 0.000000
# 6 0.000000 0.000000 0.000000 0.000000 0.000000 0.031344
#
#
# Mechanical properties :
#
#
# Convention : Reuss Voigt Hill
#
# Bulk Modulus (GPa) = 41.60163 49.02145 45.31154
# Shear Modulus (GPa) = 20.49612 23.63641 22.06626
#
# Velocity S-wave (km/s) = 3.42480 3.67782 3.55356
# Velocity P-wave (km/s) = 6.28062 6.78885 6.53968
#
# Compressibility (1/GPa) = 0.02403752
#
# Stress axis : x y z
#
# Youngs Moduli (GPa) = 55.69772 80.84272 37.03794
#
# Poissons Ratio (x) = 0.26012 0.18589
# Poissons Ratio (y) = 0.17922 0.31135
# Poissons Ratio (z) = 0.27954 0.67958
#
# Static dielectric constant tensor:
#      x y z
#    x 3.253320 0.000000 0.000000 
#    y 0.000000 3.726990 0.000000 
#    z 0.000000 0.000000 3.117850 
# 
# 
# High freq. dielectric constant tensor:
#      x y z
#    x 1.667830 0.000000 0.000000 
#    y 0.000000 1.689180 0.000000 
#    z 0.000000 0.000000 1.640180 
# 
# From -- ./inp_files/57669.got.cif
#   From: 2010.03.12/outbox.cif.g09.slc.cpg/sg74_29_cif.got.tgz:57669.got - 2010.04.16 15:46:19.
