data_PCOD8299213
_publ_section_title
;
Structure prediction by ZEFSAII (Michael W. Deem and Ramdas Pophale) SiO2 
 PCOD8299213
Probable space group: I M M A
;
_chemical_formula_sum "Si O2"
_cell_formula_units_Z 88
_cell_length_a 14.168166
_cell_length_b 18.125316
_cell_length_c 16.610631
_cell_angle_alpha 90.000000
_cell_angle_beta 90.000000
_cell_angle_gamma 90.000000
_cell_volume 4265.651333
_symmetry_space_group_name_H-M "I M M A"
_symmetry_group_IT_number 74
_symmetry_cell_setting 'orthorhombic'
loop_
_space_group_symop_operation_xyz
x,y,z
-x,1/2-y,z
x,-y,-z
-x,1/2+y,-z
-x,-y,-z
x,1/2+y,-z
-x,y,z
x,1/2-y,z
1/2+x,1/2+y,1/2+z
1/2-x,-y,1/2+z
1/2+x,1/2-y,1/2-z
1/2-x,y,1/2-z
1/2-x,1/2-y,1/2-z
1/2+x,y,1/2-z
1/2-x,1/2+y,1/2+z
1/2+x,-y,1/2+z
loop_
_atom_site_type_symbol
_atom_site_label
_atom_site_fract_x
_atom_site_fract_y
_atom_site_fract_z
Si Si1 0.391807 0.335737 0.143871
Si Si2 0.750000 0.931876 0.750000
Si Si3 0.101828 0.453566 0.802953
Si Si4 0.215448 0.834363 0.486376
Si Si5 0.661151 0.832922 0.191508
Si Si6 0.103290 0.915417 0.021676
O O1 0.500000 0.361450 0.158757
O O2 0.379838 0.250000 0.166901
O O3 0.317950 0.382122 0.195812
O O4 0.368615 0.348477 0.049641
O O5 0.816634 0.985169 0.802220
O O6 0.095515 0.396629 0.728069
O O7 0.114975 0.404552 0.882676
O O8 0.000000 0.494524 0.805826
O O9 0.243409 0.750000 0.479554
O O10 0.184032 0.861881 0.398315
O O11 0.310682 0.872746 0.520024
O O12 0.615716 0.750000 0.188519
O O13 0.750000 0.831142 0.250000
O O14 0.000000 0.885124 0.993616
O O15 0.112192 0.000000 0.000000
#
# Coordination Sequence:
#
# PCOD8299213 Si02
#       6
#    16   8  16  16  16  16
#     4  10  23  42  64  90 116 148 193 242 299 363
#     4  12  21  40  63  84 116 152 192 248 297 356
#     4  11  22  35  56  86 117 156 203 247 292 347
#     4  10  20  36  59  84 117 154 192 245 298 347
#     4  10  19  35  57  85 120 163 205 242 289 347
#     4  10  20  34  52  78 114 155 197 241 291 347
#
# _framework density 20.629909000000001
#
# number of rings (size 3 to 8) (size 9 to 14) (size 15 to 20)
#    0.000    1.636    2.727    1.909    0.000    1.455 
#    0.000    4.545    0.000    8.182    0.000    0.000 
#    0.000    0.000    0.000    0.000    0.000    0.000 
#
# Total GULP energy -545289.480257 kJ/mol
# GULP energy per Si atom -12392.942733 kJ/mol
# Density = 2.058295 g / cm^3
# Si number density = 20.629909 Si / 1000 Ang^3
#
#
#
# Elastic Constant Matrix: (Units=GPa)
#
#
# Indices 1 2 3 4 5 6 
#
# 1 142.2491 46.6590 28.2934 0.0000 0.0000 0.0000
# 2 46.6590 63.0168 23.1009 0.0000 0.0000 0.0000
# 3 28.2934 23.1009 71.4952 0.0000 0.0000 0.0000
# 4 0.0000 0.0000 0.0000 25.1114 0.0000 0.0000
# 5 0.0000 0.0000 0.0000 0.0000 24.4937 0.0000
# 6 0.0000 0.0000 0.0000 0.0000 0.0000 33.1139
#
#
#
# Elastic Compliance Matrix: (Units=1/GPa)
#
#
# Indices 1 2 3 4 5 6 
#
# 1 0.009459 -0.006388 -0.001679 0.000000 0.000000 0.000000
# 2 -0.006388 0.022315 -0.004682 0.000000 0.000000 0.000000
# 3 -0.001679 -0.004682 0.016164 0.000000 0.000000 0.000000
# 4 0.000000 0.000000 0.000000 0.039823 0.000000 0.000000
# 5 0.000000 0.000000 0.000000 0.000000 0.040827 0.000000
# 6 0.000000 0.000000 0.000000 0.000000 0.000000 0.030199
#
#
# Mechanical properties :
#
#
# Convention : Reuss Voigt Hill
#
# Bulk Modulus (GPa) = 44.56451 52.54083 48.55267
# Shear Modulus (GPa) = 26.07336 28.45765 27.26551
#
# Velocity S-wave (km/s) = 3.55894 3.71811 3.63939
# Velocity P-wave (km/s) = 6.20781 6.62993 6.42234
#
# Compressibility (1/GPa) = 0.02243938
#
# Stress axis : x y z
#
# Youngs Moduli (GPa) = 105.71546 44.81241 61.86444
#
# Poissons Ratio (x) = 0.28628 0.10389
# Poissons Ratio (y) = 0.67534 0.28966
# Poissons Ratio (z) = 0.17753 0.20982
#
# Static dielectric constant tensor:
#      x y z
#    x 3.860830 0.000000 0.000000 
#    y 0.000000 3.751520 0.000000 
#    z 0.000000 0.000000 3.833260 
# 
# 
# High freq. dielectric constant tensor:
#      x y z
#    x 1.813930 0.000000 0.000000 
#    y 0.000000 1.794880 0.000000 
#    z 0.000000 0.000000 1.803260 
# 
# From -- ./inp_files/42814.got.cif
#   From: 2010.03.12/outbox.cif.g09.slc.cpg/sg74_22_cif.got.tgz:42814.got - 2010.04.16 15:46:19.
