data_PCOD8299954
_publ_section_title
;
Structure prediction by ZEFSAII (Michael W. Deem and Ramdas Pophale) SiO2 
 PCOD8299954
Probable space group: I M M A
;
_chemical_formula_sum "Si O2"
_cell_formula_units_Z 88
_cell_length_a 8.891841
_cell_length_b 30.045306
_cell_length_c 17.957035
_cell_angle_alpha 90.000000
_cell_angle_beta 90.000000
_cell_angle_gamma 90.000000
_cell_volume 4797.367060
_symmetry_space_group_name_H-M "I M M A"
_symmetry_group_IT_number 74
_symmetry_cell_setting 'orthorhombic'
loop_
_space_group_symop_operation_xyz
x,y,z
-x,1/2-y,z
x,-y,-z
-x,1/2+y,-z
-x,-y,-z
x,1/2+y,-z
-x,y,z
x,1/2-y,z
1/2+x,1/2+y,1/2+z
1/2-x,-y,1/2+z
1/2+x,1/2-y,1/2-z
1/2-x,y,1/2-z
1/2-x,1/2-y,1/2-z
1/2+x,y,1/2-z
1/2-x,1/2+y,1/2+z
1/2+x,-y,1/2+z
loop_
_atom_site_type_symbol
_atom_site_label
_atom_site_fract_x
_atom_site_fract_y
_atom_site_fract_z
Si Si1 0.330518 0.828882 0.898433
Si Si2 0.176627 0.361291 0.955036
Si Si3 0.677668 0.199060 0.830668
Si Si4 0.169701 0.579325 0.673657
Si Si5 0.828234 0.250000 0.172448
Si Si6 0.825814 0.452389 0.025684
O O1 0.500000 0.809941 0.904174
O O2 0.323947 0.867734 0.837470
O O3 0.212512 0.792572 0.874642
O O4 0.277464 0.842844 0.979153
O O5 0.241063 0.338385 0.880858
O O6 0.000000 0.349483 0.963388
O O7 0.200265 0.415068 0.960732
O O8 0.500000 0.189152 0.827079
O O9 0.705811 0.250000 0.859669
O O10 0.750000 0.193617 0.750000
O O11 0.250000 0.565631 0.750000
O O12 0.244400 0.557144 0.602650
O O13 0.000000 0.562028 0.679079
O O14 0.750000 0.250000 0.250000
O O15 0.000000 0.250000 0.191330
O O16 0.000000 0.455211 0.045656
O O17 0.762800 0.500000 0.000000
#
# Coordination Sequence:
#
# PCOD8299954 Si02
#       6
#    16  16  16  16   8  16
#     4  10  21  36  53  75 105 141 180 221 264 312
#     4  10  20  35  57  83 110 142 181 224 272 330
#     4  10  21  37  57  81 111 147 186 232 282 335
#     4  10  20  34  55  80 106 139 178 221 267 320
#     4  12  24  36  50  72 103 140 179 220 264 308
#     4   9  19  37  59  82 110 143 180 226 278 330
#
# _framework density 18.343395000000001
#
# number of rings (size 3 to 8) (size 9 to 14) (size 15 to 20)
#    0.000    2.000    0.000    3.545    1.273    5.818 
#    0.000    0.909    0.000    0.000    0.000    0.000 
#    0.000    0.000    0.000    0.000    0.000    0.000 
#
# Total GULP energy -545406.772951 kJ/mol
# GULP energy per Si atom -12395.608476 kJ/mol
# Density = 1.830165 g / cm^3
# Si number density = 18.343395 Si / 1000 Ang^3
#
#
#
# Elastic Constant Matrix: (Units=GPa)
#
#
# Indices 1 2 3 4 5 6 
#
# 1 115.3412 46.3963 43.5821 -0.0002 0.0000 0.0000
# 2 46.3963 109.2721 50.3083 -0.0002 0.0000 0.0000
# 3 43.5821 50.3083 92.7541 -0.0001 0.0001 0.0001
# 4 -0.0002 -0.0002 -0.0001 75.4691 0.0003 0.0002
# 5 0.0000 0.0000 0.0001 0.0003 34.8538 0.0000
# 6 0.0000 0.0000 0.0001 0.0002 0.0000 20.8836
#
#
#
# Elastic Compliance Matrix: (Units=1/GPa)
#
#
# Indices 1 2 3 4 5 6 
#
# 1 0.011294 -0.003135 -0.003606 0.000000 0.000000 0.000000
# 2 -0.003135 0.013067 -0.005615 0.000000 0.000000 0.000000
# 3 -0.003606 -0.005615 0.015521 0.000000 0.000000 0.000000
# 4 0.000000 0.000000 0.000000 0.013250 0.000000 0.000000
# 5 0.000000 0.000000 0.000000 0.000000 0.028691 0.000000
# 6 0.000000 0.000000 0.000000 0.000000 0.000000 0.047884
#
#
# Mechanical properties :
#
#
# Convention : Reuss Voigt Hill
#
# Bulk Modulus (GPa) = 65.91703 66.43786 66.17744
# Shear Modulus (GPa) = 31.35263 38.04667 34.69965
#
# Velocity S-wave (km/s) = 4.13874 4.55921 4.35405
# Velocity P-wave (km/s) = 7.67150 8.00080 7.83788
#
# Compressibility (1/GPa) = 0.01517059
#
# Stress axis : x y z
#
# Youngs Moduli (GPa) = 88.54611 76.52600 64.42947
#
# Poissons Ratio (x) = 0.23990 0.23234
# Poissons Ratio (y) = 0.27759 0.36174
# Poissons Ratio (z) = 0.31931 0.42966
#
# Static dielectric constant tensor:
#      x y z
#    x 3.499730 0.000000 0.000000 
#    y 0.000000 3.580630 0.000000 
#    z 0.000000 0.000000 2.911270 
# 
# 
# High freq. dielectric constant tensor:
#      x y z
#    x 1.729290 0.000000 0.000000 
#    y 0.000000 1.702570 0.000000 
#    z 0.000000 0.000000 1.707810 
# 
# From -- ./inp_files/40073.got.cif
#   From: 2010.03.12/outbox.cif.g09.slc.cpg/sg74_21_cif.got.tgz:40073.got - 2010.04.16 15:46:19.
