data_PCOD8299270
_publ_section_title
;
Structure prediction by ZEFSAII (Michael W. Deem and Ramdas Pophale) SiO2 
 PCOD8299270
Probable space group: I M M A
;
_chemical_formula_sum "Si O2"
_cell_formula_units_Z 96
_cell_length_a 17.259103
_cell_length_b 29.720581
_cell_length_c 9.402969
_cell_angle_alpha 90.000000
_cell_angle_beta 90.000000
_cell_angle_gamma 90.000000
_cell_volume 4823.258296
_symmetry_space_group_name_H-M "I M M A"
_symmetry_group_IT_number 74
_symmetry_cell_setting 'orthorhombic'
loop_
_space_group_symop_operation_xyz
x,y,z
-x,1/2-y,z
x,-y,-z
-x,1/2+y,-z
-x,-y,-z
x,1/2+y,-z
-x,y,z
x,1/2-y,z
1/2+x,1/2+y,1/2+z
1/2-x,-y,1/2+z
1/2+x,1/2-y,1/2-z
1/2-x,y,1/2-z
1/2-x,1/2-y,1/2-z
1/2+x,y,1/2-z
1/2-x,1/2+y,1/2+z
1/2+x,-y,1/2+z
loop_
_atom_site_type_symbol
_atom_site_label
_atom_site_fract_x
_atom_site_fract_y
_atom_site_fract_z
Si Si1 0.091988 0.878975 0.993364
Si Si2 0.407877 0.299543 0.306798
Si Si3 0.091340 0.528998 0.868091
Si Si4 0.179832 0.975665 0.355418
Si Si5 0.407349 0.613393 0.183947
Si Si6 0.092051 0.699970 0.488208
O O1 0.121999 0.884483 0.153521
O O2 0.000000 0.876449 0.998513
O O3 0.127634 0.834516 0.920010
O O4 0.119748 0.920295 0.895889
O O5 0.500000 0.303247 0.305677
O O6 0.381428 0.250000 0.356117
O O7 0.377117 0.309426 0.147803
O O8 0.123695 0.511381 0.719992
O O9 0.000000 0.525571 0.857883
O O10 0.122477 0.500000 0.000000
O O11 0.250000 0.964665 0.250000
O O12 0.208208 0.000000 0.500000
O O13 0.133724 0.929437 0.389470
O O14 0.500000 0.607503 0.171057
O O15 0.377703 0.659762 0.111983
O O16 0.120299 0.750000 0.437217
O O17 0.000000 0.699758 0.487386
#
# Coordination Sequence:
#
# PCOD8299270 Si02
#       6
#    16  16  16  16  16  16
#     4   9  17  28  49  77 106 141 174 216 270 325
#     4   8  14  25  42  70 110 148 177 212 265 327
#     4  10  19  36  59  82 112 144 177 225 283 335
#     4  12  27  42  57  78 110 148 192 236 288 340
#     4  10  20  35  57  85 113 144 186 232 278 331
#     4   8  15  28  47  76 114 147 178 224 276 324
#
# _framework density 19.903559000000001
#
# number of rings (size 3 to 8) (size 9 to 14) (size 15 to 20)
#    0.000    2.500    1.667    2.000    2.333    2.000 
#    0.000    3.333    0.000    0.500    0.000    0.000 
#    0.000    4.000    0.000    0.000    0.000    0.000 
#
# Total GULP energy -594944.814130 kJ/mol
# GULP energy per Si atom -12394.683628 kJ/mol
# Density = 1.985826 g / cm^3
# Si number density = 19.903559 Si / 1000 Ang^3
#
#
#
# Elastic Constant Matrix: (Units=GPa)
#
#
# Indices 1 2 3 4 5 6 
#
# 1 26.3452 29.4850 19.5202 -0.0019 0.0004 0.0004
# 2 29.4850 159.5495 59.5252 -0.0106 -0.0047 0.0027
# 3 19.5202 59.5252 83.4271 -0.0147 -0.0046 0.0041
# 4 -0.0019 -0.0106 -0.0147 44.2669 -0.0015 0.0018
# 5 0.0004 -0.0047 -0.0046 -0.0015 10.9577 0.0002
# 6 0.0004 0.0027 0.0041 0.0018 0.0002 5.0305
#
#
#
# Elastic Compliance Matrix: (Units=1/GPa)
#
#
# Indices 1 2 3 4 5 6 
#
# 1 0.050734 -0.006742 -0.007061 -0.000002 -0.000008 0.000005
# 2 -0.006742 0.009437 -0.005156 0.000000 0.000002 0.000000
# 3 -0.007061 -0.005156 0.017317 0.000004 0.000005 -0.000011
# 4 -0.000002 0.000000 0.000004 0.022590 0.000003 -0.000008
# 5 -0.000008 0.000002 0.000005 0.000003 0.091260 -0.000003
# 6 0.000005 0.000000 -0.000011 -0.000008 -0.000003 0.198786
#
#
# Mechanical properties :
#
#
# Convention : Reuss Voigt Hill
#
# Bulk Modulus (GPa) = 25.27026 54.04253 39.65640
# Shear Modulus (GPa) = 11.33190 22.77044 17.05117
#
# Velocity S-wave (km/s) = 2.38867 3.38603 2.93010
# Velocity P-wave (km/s) = 4.50906 6.51906 5.60490
#
# Compressibility (1/GPa) = 0.03957220
#
# Stress axis : x y z
#
# Youngs Moduli (GPa) = 19.71061 105.96462 57.74551
#
# Poissons Ratio (x) = 0.71437 0.40772
# Poissons Ratio (y) = 0.13288 0.29774
# Poissons Ratio (z) = 0.13917 0.54635
#
# Static dielectric constant tensor:
#      x y z
#    x 3.050600 0.000000 0.000010 
#    y 0.000000 4.025680 0.000000 
#    z 0.000010 0.000000 3.787230 
# 
# 
# High freq. dielectric constant tensor:
#      x y z
#    x 1.718030 0.000000 0.000000 
#    y 0.000000 1.793150 0.000000 
#    z 0.000000 0.000000 1.773090 
# 
# From -- ./inp_files/12662.got.cif
#   From: 2010.03.12/outbox.cif.g09.slc.cpg/sg74_7_cif.got.tgz:12662.got - 2010.04.16 15:46:19.
