data_PCOD8299876
_publ_section_title
;
Structure prediction by ZEFSAII (Michael W. Deem and Ramdas Pophale) SiO2 
 PCOD8299876
Probable space group: I M M A
;
_chemical_formula_sum "Si O2"
_cell_formula_units_Z 96
_cell_length_a 20.210192
_cell_length_b 9.029459
_cell_length_c 27.987273
_cell_angle_alpha 90.000000
_cell_angle_beta 90.000000
_cell_angle_gamma 90.000000
_cell_volume 5107.316288
_symmetry_space_group_name_H-M "I M M A"
_symmetry_group_IT_number 74
_symmetry_cell_setting 'orthorhombic'
loop_
_space_group_symop_operation_xyz
x,y,z
-x,1/2-y,z
x,-y,-z
-x,1/2+y,-z
-x,-y,-z
x,1/2+y,-z
-x,y,z
x,1/2-y,z
1/2+x,1/2+y,1/2+z
1/2-x,-y,1/2+z
1/2+x,1/2-y,1/2-z
1/2-x,y,1/2-z
1/2-x,1/2-y,1/2-z
1/2+x,y,1/2-z
1/2-x,1/2+y,1/2+z
1/2+x,-y,1/2+z
loop_
_atom_site_type_symbol
_atom_site_label
_atom_site_fract_x
_atom_site_fract_y
_atom_site_fract_z
Si Si1 0.076758 0.420937 0.108079
Si Si2 0.814173 0.425902 0.722176
Si Si3 0.576115 0.078159 0.282735
Si Si4 0.574538 0.924030 0.048987
Si Si5 0.187463 0.925719 0.050801
Si Si6 0.690974 0.074419 0.884890
O O1 0.095217 0.250000 0.098975
O O2 0.092770 0.465177 0.162685
O O3 0.000000 0.448416 0.096915
O O4 0.117652 0.524595 0.072615
O O5 0.817006 0.250000 0.722167
O O6 0.750000 0.485057 0.750000
O O7 0.880341 0.482574 0.747001
O O8 0.808939 0.490562 0.668583
O O9 0.500000 0.041578 0.271490
O O10 0.590958 0.250000 0.274300
O O11 0.500000 0.968623 0.063925
O O12 0.581397 0.750000 0.041107
O O13 0.623818 0.981562 0.089891
O O14 0.595859 0.000000 0.000000
O O15 0.187866 0.750000 0.044466
O O16 0.245286 0.982454 0.086118
O O17 0.199674 0.000000 0.000000
O O18 0.692599 0.250000 0.882779
#
# Coordination Sequence:
#
# PCOD8299876 Si02
#       6
#    16  16  16  16  16  16
#     4   9  19  37  58  78 104 138 174 213 258 310
#     4  10  20  34  53  78 107 138 175 217 259 309
#     4   9  19  36  56  79 108 140 175 217 264 314
#     4   9  17  31  51  72  96 128 165 204 247 296
#     4  11  22  36  55  78 106 138 174 218 263 310
#     4   9  19  34  51  74 104 137 172 210 253 303
#
# _framework density 18.796565000000001
#
# number of rings (size 3 to 8) (size 9 to 14) (size 15 to 20)
#    0.000    2.500    0.000    3.000    0.000    4.000 
#    0.000    6.667    0.000    2.000    0.000    0.000 
#    0.000    0.000    0.000    0.000    0.000    0.000 
#
# Total GULP energy -595269.531119 kJ/mol
# GULP energy per Si atom -12401.448565 kJ/mol
# Density = 1.875378 g / cm^3
# Si number density = 18.796565 Si / 1000 Ang^3
#
#
#
# Elastic Constant Matrix: (Units=GPa)
#
#
# Indices 1 2 3 4 5 6 
#
# 1 114.7545 32.2362 80.2499 0.0000 0.0000 0.0000
# 2 32.2362 40.0479 38.1408 0.0000 0.0000 0.0000
# 3 80.2499 38.1408 151.8628 0.0000 0.0000 0.0000
# 4 0.0000 0.0000 0.0000 29.7995 0.0000 0.0000
# 5 0.0000 0.0000 0.0000 0.0000 40.5326 0.0000
# 6 0.0000 0.0000 0.0000 0.0000 0.0000 26.6829
#
#
#
# Elastic Compliance Matrix: (Units=1/GPa)
#
#
# Indices 1 2 3 4 5 6 
#
# 1 0.014802 -0.005869 -0.006348 0.000000 0.000000 0.000000
# 2 -0.005869 0.035148 -0.005726 0.000000 0.000000 0.000000
# 3 -0.006348 -0.005726 0.011377 0.000000 0.000000 0.000000
# 4 0.000000 0.000000 0.000000 0.033558 0.000000 0.000000
# 5 0.000000 0.000000 0.000000 0.000000 0.024672 0.000000
# 6 0.000000 0.000000 0.000000 0.000000 0.000000 0.037477
#
#
# Mechanical properties :
#
#
# Convention : Reuss Voigt Hill
#
# Bulk Modulus (GPa) = 39.30638 67.54656 53.42647
# Shear Modulus (GPa) = 24.82613 29.80554 27.31583
#
# Velocity S-wave (km/s) = 3.63820 3.98639 3.81627
# Velocity P-wave (km/s) = 6.21333 7.56320 6.92125
#
# Compressibility (1/GPa) = 0.02544116
#
# Stress axis : x y z
#
# Youngs Moduli (GPa) = 67.55720 28.45129 87.89292
#
# Poissons Ratio (x) = 0.16699 0.55794
# Poissons Ratio (y) = 0.39651 0.50327
# Poissons Ratio (z) = 0.42885 0.16291
#
# Static dielectric constant tensor:
#      x y z
#    x 3.564170 0.000000 0.000000 
#    y 0.000000 3.168180 0.000000 
#    z 0.000000 0.000000 3.638290 
# 
# 
# High freq. dielectric constant tensor:
#      x y z
#    x 1.742010 0.000000 0.000000 
#    y 0.000000 1.706980 0.000000 
#    z 0.000000 0.000000 1.735800 
# 
# From -- ./inp_files/60786.got.cif
#   From: 2010.03.12/outbox.cif.g09.slc.cpg/sg74_31_cif.got.tgz:60786.got - 2010.04.16 15:46:19.
