data_PCOD8299753
_publ_section_title
;
Structure prediction by ZEFSAII (Michael W. Deem and Ramdas Pophale) SiO2 
 PCOD8299753
Probable space group: I M M A
;
_chemical_formula_sum "Si O2"
_cell_formula_units_Z 104
_cell_length_a 26.979806
_cell_length_b 8.976597
_cell_length_c 22.503490
_cell_angle_alpha 90.000000
_cell_angle_beta 90.000000
_cell_angle_gamma 90.000000
_cell_volume 5450.049258
_symmetry_space_group_name_H-M "I M M A"
_symmetry_group_IT_number 74
_symmetry_cell_setting 'orthorhombic'
loop_
_space_group_symop_operation_xyz
x,y,z
-x,1/2-y,z
x,-y,-z
-x,1/2+y,-z
-x,-y,-z
x,1/2+y,-z
-x,y,z
x,1/2-y,z
1/2+x,1/2+y,1/2+z
1/2-x,-y,1/2+z
1/2+x,1/2-y,1/2-z
1/2-x,y,1/2-z
1/2-x,1/2-y,1/2-z
1/2+x,y,1/2-z
1/2-x,1/2+y,1/2+z
1/2+x,-y,1/2+z
loop_
_atom_site_type_symbol
_atom_site_label
_atom_site_fract_x
_atom_site_fract_y
_atom_site_fract_z
Si Si1 0.187151 0.073369 0.305675
Si Si2 0.500000 0.071925 0.064277
Si Si3 0.943097 0.913226 0.779859
Si Si4 0.942422 0.922947 0.105037
Si Si5 0.852648 0.426345 0.058188
Si Si6 0.415437 0.073301 0.151842
Si Si7 0.203997 0.073497 0.174130
O O1 0.189431 0.250000 0.308021
O O2 0.142243 0.018563 0.349246
O O3 0.177521 0.025681 0.236414
O O4 0.239719 0.007900 0.327529
O O5 0.500000 0.250000 0.058765
O O6 0.450398 0.012878 0.098673
O O7 0.500000 0.000000 0.000000
O O8 0.915807 0.750000 0.786041
O O9 0.936100 0.983562 0.714867
O O10 0.000000 0.884271 0.791538
O O11 0.924135 0.028175 0.829195
O O12 0.930761 0.750000 0.096824
O O13 0.000000 0.958452 0.093180
O O14 0.909745 0.018786 0.059364
O O15 0.850171 0.250000 0.053038
O O16 0.824861 0.488710 0.116892
O O17 0.827324 0.500000 0.000000
O O18 0.419217 0.250000 0.149876
O O19 0.206895 0.250000 0.170318
#
# Coordination Sequence:
#
# PCOD8299753 Si02
#       7
#    16   8  16  16  16  16  16
#     4   8  13  24  47  77 103 124 154 206 259 302
#     4  10  20  34  48  68 100 140 181 218 255 306
#     4   9  15  26  47  75 102 128 161 204 250 295
#     4  10  21  35  50  73 104 133 163 201 245 295
#     4  11  22  36  53  72  97 133 173 209 248 295
#     4   9  15  26  47  73 100 132 171 210 252 302
#     4   8  15  28  47  75 104 125 156 204 257 303
#
# _framework density 19.082397
#
# number of rings (size 3 to 8) (size 9 to 14) (size 15 to 20)
#    0.000    2.769    0.769    2.769    0.000    3.692 
#    0.000    1.538    0.000    0.000    0.000   21.538 
#    0.000    0.000    0.000    0.000    0.000    0.000 
#
# Total GULP energy -644211.999251 kJ/mol
# GULP energy per Si atom -12388.692293 kJ/mol
# Density = 1.903896 g / cm^3
# Si number density = 19.082397 Si / 1000 Ang^3
#
#
#
# Elastic Constant Matrix: (Units=GPa)
#
#
# Indices 1 2 3 4 5 6 
#
# 1 109.4633 21.1699 68.7039 0.0000 0.0000 0.0000
# 2 21.1699 35.5830 21.5223 0.0000 0.0000 0.0000
# 3 68.7039 21.5223 122.2872 0.0000 0.0000 0.0000
# 4 0.0000 0.0000 0.0000 27.3874 0.0000 0.0000
# 5 0.0000 0.0000 0.0000 0.0000 25.0921 0.0000
# 6 0.0000 0.0000 0.0000 0.0000 0.0000 7.2198
#
#
#
# Elastic Compliance Matrix: (Units=1/GPa)
#
#
# Indices 1 2 3 4 5 6 
#
# 1 0.014647 -0.004182 -0.007493 0.000000 0.000000 0.000000
# 2 -0.004182 0.032645 -0.003396 0.000000 0.000000 0.000000
# 3 -0.007493 -0.003396 0.012985 0.000000 0.000000 0.000000
# 4 0.000000 0.000000 0.000000 0.036513 0.000000 0.000000
# 5 0.000000 0.000000 0.000000 0.000000 0.039853 0.000000
# 6 0.000000 0.000000 0.000000 0.000000 0.000000 0.138509
#
#
# Mechanical properties :
#
#
# Convention : Reuss Voigt Hill
#
# Bulk Modulus (GPa) = 33.18364 54.45840 43.82102
# Shear Modulus (GPa) = 15.85590 22.33569 19.09579
#
# Velocity S-wave (km/s) = 2.88569 3.42495 3.16682
# Velocity P-wave (km/s) = 5.34138 6.65138 6.03205
#
# Compressibility (1/GPa) = 0.03013533
#
# Stress axis : x y z
#
# Youngs Moduli (GPa) = 68.27176 30.63220 77.01191
#
# Poissons Ratio (x) = 0.12811 0.57707
# Poissons Ratio (y) = 0.28552 0.26152
# Poissons Ratio (z) = 0.51157 0.10402
#
# Static dielectric constant tensor:
#      x y z
#    x 3.949310 0.000000 0.000000 
#    y 0.000000 3.038450 0.000000 
#    z 0.000000 0.000000 3.574840 
# 
# 
# High freq. dielectric constant tensor:
#      x y z
#    x 1.749960 0.000000 0.000000 
#    y 0.000000 1.682940 0.000000 
#    z 0.000000 0.000000 1.731530 
# 
# From -- ./inp_files/55671.got.cif
#   From: 2010.03.12/outbox.cif.g09.slc.cpg/sg74_28_cif.got.tgz:55671.got - 2010.04.16 15:46:19.
