data_PCOD8299803
_publ_section_title
;
Structure prediction by ZEFSAII (Michael W. Deem and Ramdas Pophale) SiO2 
 PCOD8299803
Probable space group: I M M A
;
_chemical_formula_sum "Si O2"
_cell_formula_units_Z 80
_cell_length_a 8.952253
_cell_length_b 26.978306
_cell_length_c 18.465384
_cell_angle_alpha 90.000000
_cell_angle_beta 90.000000
_cell_angle_gamma 90.000000
_cell_volume 4459.697146
_symmetry_space_group_name_H-M "I M M A"
_symmetry_group_IT_number 74
_symmetry_cell_setting 'orthorhombic'
loop_
_space_group_symop_operation_xyz
x,y,z
-x,1/2-y,z
x,-y,-z
-x,1/2+y,-z
-x,-y,-z
x,1/2+y,-z
-x,y,z
x,1/2-y,z
1/2+x,1/2+y,1/2+z
1/2-x,-y,1/2+z
1/2+x,1/2-y,1/2-z
1/2-x,y,1/2-z
1/2-x,1/2-y,1/2-z
1/2+x,y,1/2-z
1/2-x,1/2+y,1/2+z
1/2+x,-y,1/2+z
loop_
_atom_site_type_symbol
_atom_site_label
_atom_site_fract_x
_atom_site_fract_y
_atom_site_fract_z
Si Si1 0.672057 0.099025 0.676909
Si Si2 0.323264 0.352419 0.038032
Si Si3 0.174059 0.694512 0.094376
Si Si4 0.673802 0.554173 0.473527
Si Si5 0.326166 0.692581 0.674740
O O1 0.500000 0.100877 0.695869
O O2 0.750000 0.080960 0.750000
O O3 0.727625 0.154229 0.653614
O O4 0.706267 0.060205 0.612353
O O5 0.500000 0.348749 0.042555
O O6 0.253141 0.340586 0.115092
O O7 0.264375 0.312892 0.979545
O O8 0.274658 0.407764 0.017613
O O9 0.203528 0.750000 0.124132
O O10 0.000000 0.685769 0.076114
O O11 0.720649 0.500000 0.500000
O O12 0.500000 0.565334 0.489427
O O13 0.500000 0.679153 0.678780
O O14 0.301016 0.750000 0.655681
O O15 0.250000 0.678576 0.750000
#
# Coordination Sequence:
#
# PCOD8299803 Si02
#       5
#    16  16  16  16  16
#     4   9  18  32  51  76 103 131 164 204 252 301
#     4  11  21  32  50  77 106 133 166 212 261 310
#     4   9  18  33  51  71  99 138 179 211 241 288
#     4   9  19  38  60  76  95 131 175 214 256 307
#     4  10  20  34  52  74 103 139 176 214 257 306
#
# _framework density 17.938437
#
# number of rings (size 3 to 8) (size 9 to 14) (size 15 to 20)
#    0.000    2.400    0.000    4.200    0.000    8.000 
#    0.000    1.000    0.000    2.400    0.000    0.000 
#    0.000    0.000    0.000    0.000    0.000    0.000 
#
# Total GULP energy -496020.583532 kJ/mol
# GULP energy per Si atom -12400.514588 kJ/mol
# Density = 1.789761 g / cm^3
# Si number density = 17.938437 Si / 1000 Ang^3
#
#
#
# Elastic Constant Matrix: (Units=GPa)
#
#
# Indices 1 2 3 4 5 6 
#
# 1 88.5314 23.8374 54.6335 0.0001 0.0000 0.0000
# 2 23.8374 89.1207 45.0327 0.0000 0.0000 0.0000
# 3 54.6335 45.0327 128.3749 0.0003 0.0000 -0.0001
# 4 0.0001 0.0000 0.0003 15.5662 0.0000 0.0000
# 5 0.0000 0.0000 0.0000 0.0000 35.2506 0.0000
# 6 0.0000 0.0000 -0.0001 0.0000 0.0000 16.6383
#
#
#
# Elastic Compliance Matrix: (Units=1/GPa)
#
#
# Indices 1 2 3 4 5 6 
#
# 1 0.015389 -0.000981 -0.006205 0.000000 0.000000 0.000000
# 2 -0.000981 0.013701 -0.004389 0.000000 0.000000 0.000000
# 3 -0.006205 -0.004389 0.011970 0.000000 0.000000 0.000000
# 4 0.000000 0.000000 0.000000 0.064242 0.000000 0.000000
# 5 0.000000 0.000000 0.000000 0.000000 0.028368 0.000000
# 6 0.000000 0.000000 0.000000 0.000000 0.000000 0.060102
#
#
# Mechanical properties :
#
#
# Convention : Reuss Voigt Hill
#
# Bulk Modulus (GPa) = 55.83345 61.44824 58.64085
# Shear Modulus (GPa) = 22.43251 25.65924 24.04588
#
# Velocity S-wave (km/s) = 3.54012 3.78617 3.66521
# Velocity P-wave (km/s) = 6.92116 7.31047 7.11848
#
# Compressibility (1/GPa) = 0.01791041
#
# Stress axis : x y z
#
# Youngs Moduli (GPa) = 64.98280 72.98925 83.54253
#
# Poissons Ratio (x) = 0.07158 0.51839
# Poissons Ratio (y) = 0.06372 0.36664
# Poissons Ratio (z) = 0.40322 0.32033
#
# Static dielectric constant tensor:
#      x y z
#    x 3.279810 0.000000 0.000000 
#    y 0.000000 3.268070 0.000000 
#    z 0.000000 0.000000 3.451950 
# 
# 
# High freq. dielectric constant tensor:
#      x y z
#    x 1.694020 0.000000 0.000000 
#    y 0.000000 1.681880 0.000000 
#    z 0.000000 0.000000 1.693470 
# 
# From -- ./inp_files/39679.got.cif
#   From: 2010.03.12/outbox.cif.g09.slc.cpg/sg74_20_cif.got.tgz:39679.got - 2010.04.16 15:46:19.
