data_PCOD8299433
_publ_section_title
;
Structure prediction by ZEFSAII (Michael W. Deem and Ramdas Pophale) SiO2 
 PCOD8299433
Probable space group: I M M A
;
_chemical_formula_sum "Si O2"
_cell_formula_units_Z 128
_cell_length_a 18.413744
_cell_length_b 22.555252
_cell_length_c 18.138520
_cell_angle_alpha 90.000000
_cell_angle_beta 90.000000
_cell_angle_gamma 90.000000
_cell_volume 7533.410497
_symmetry_space_group_name_H-M "I M M A"
_symmetry_group_IT_number 74
_symmetry_cell_setting 'orthorhombic'
loop_
_space_group_symop_operation_xyz
x,y,z
-x,1/2-y,z
x,-y,-z
-x,1/2+y,-z
-x,-y,-z
x,1/2+y,-z
-x,y,z
x,1/2-y,z
1/2+x,1/2+y,1/2+z
1/2-x,-y,1/2+z
1/2+x,1/2-y,1/2-z
1/2-x,y,1/2-z
1/2-x,1/2-y,1/2-z
1/2+x,y,1/2-z
1/2-x,1/2+y,1/2+z
1/2+x,-y,1/2+z
loop_
_atom_site_type_symbol
_atom_site_label
_atom_site_fract_x
_atom_site_fract_y
_atom_site_fract_z
Si Si1 0.687645 0.878150 0.842950
Si Si2 0.825651 0.996020 0.267524
Si Si3 0.417213 0.493977 0.620897
Si Si4 0.580157 0.041721 0.890826
Si Si5 0.419277 0.088262 0.042507
Si Si6 0.920182 0.682926 0.765202
Si Si7 0.416355 0.596323 0.502154
Si Si8 0.831550 0.818136 0.905250
O O1 0.696181 0.944655 0.812627
O O2 0.638547 0.871309 0.915997
O O3 0.646306 0.844146 0.778950
O O4 0.764677 0.850318 0.864063
O O5 0.750000 0.963580 0.250000
O O6 0.869575 0.007229 0.192751
O O7 0.868998 0.951019 0.320065
O O8 0.500000 0.487961 0.647293
O O9 0.407652 0.549311 0.567444
O O10 0.394418 0.434451 0.575831
O O11 0.500000 0.062521 0.867489
O O12 0.577195 0.974323 0.916928
O O13 0.608221 0.081979 0.958378
O O14 0.500000 0.116829 0.044864
O O15 0.926984 0.750000 0.739015
O O16 0.900778 0.679046 0.851276
O O17 0.000000 0.651917 0.753117
O O18 0.500000 0.618680 0.497750
O O19 0.359095 0.649215 0.519863
O O20 0.810263 0.750000 0.923448
#
# Coordination Sequence:
#
# PCOD8299433 Si02
#       8
#    16  16  16  16  16  16  16  16
#     4  11  20  30  44  65  93 125 158 194 234 277
#     4  11  20  27  41  66  94 125 156 185 228 288
#     4   9  18  32  49  69  94 124 159 203 254 299
#     4   8  15  28  43  61  87 117 150 189 229 272
#     4   8  15  28  45  63  84 116 156 191 226 271
#     4  10  20  32  45  61  83 115 157 200 233 265
#     4   9  18  33  51  69  91 122 162 207 251 295
#     4  11  22  34  48  67  96 133 169 204 243 287
#
# _framework density 16.990977000000001
#
# number of rings (size 3 to 8) (size 9 to 14) (size 15 to 20)
#    0.000    2.375    0.000    5.625    0.000    5.250 
#    0.000    2.500    0.000    0.000    0.000    0.000 
#    0.000    5.500    0.000   11.625    0.000    0.500 
#
# Total GULP energy -793071.903984 kJ/mol
# GULP energy per Si atom -12391.748500 kJ/mol
# Density = 1.695230 g / cm^3
# Si number density = 16.990977 Si / 1000 Ang^3
#
#
#
# Elastic Constant Matrix: (Units=GPa)
#
#
# Indices 1 2 3 4 5 6 
#
# 1 86.4437 20.6301 39.1760 0.0000 0.0000 0.0000
# 2 20.6301 45.6734 22.4608 0.0000 0.0000 0.0000
# 3 39.1760 22.4608 77.1847 0.0000 0.0000 0.0000
# 4 0.0000 0.0000 0.0000 21.9508 0.0000 0.0000
# 5 0.0000 0.0000 0.0000 0.0000 14.4131 0.0000
# 6 0.0000 0.0000 0.0000 0.0000 0.0000 19.5474
#
#
#
# Elastic Compliance Matrix: (Units=1/GPa)
#
#
# Indices 1 2 3 4 5 6 
#
# 1 0.015532 -0.003663 -0.006818 0.000000 0.000000 0.000000
# 2 -0.003663 0.026415 -0.005828 0.000000 0.000000 0.000000
# 3 -0.006818 -0.005828 0.018112 0.000000 0.000000 0.000000
# 4 0.000000 0.000000 0.000000 0.045557 0.000000 0.000000
# 5 0.000000 0.000000 0.000000 0.000000 0.069381 0.000000
# 6 0.000000 0.000000 0.000000 0.000000 0.000000 0.051158
#
#
# Mechanical properties :
#
#
# Convention : Reuss Voigt Hill
#
# Bulk Modulus (GPa) = 36.43930 41.53728 38.98829
# Shear Modulus (GPa) = 18.66240 19.65126 19.15683
#
# Velocity S-wave (km/s) = 3.31776 3.40453 3.36143
# Velocity P-wave (km/s) = 6.01411 6.32093 6.16943
#
# Compressibility (1/GPa) = 0.02744290
#
# Stress axis : x y z
#
# Youngs Moduli (GPa) = 64.38277 37.85736 55.21175
#
# Poissons Ratio (x) = 0.13867 0.37641
# Poissons Ratio (y) = 0.23583 0.32175
# Poissons Ratio (z) = 0.43893 0.22062
#
# Static dielectric constant tensor:
#      x y z
#    x 3.490310 0.000000 0.000000 
#    y 0.000000 2.902820 0.000000 
#    z 0.000000 0.000000 3.286800 
# 
# 
# High freq. dielectric constant tensor:
#      x y z
#    x 1.669080 0.000000 0.000000 
#    y 0.000000 1.601910 0.000000 
#    z 0.000000 0.000000 1.646920 
# 
# From -- ./inp_files/44608.got.cif
#   From: 2010.03.12/outbox.cif.g09.slc.cpg/sg74_23_cif.got.tgz:44608.got - 2010.04.16 15:46:19.
