data_PCOD8299009
_publ_section_title
;
Structure prediction by ZEFSAII (Michael W. Deem and Ramdas Pophale) SiO2 
 PCOD8299009
Probable space group: I M M A
;
_chemical_formula_sum "Si O2"
_cell_formula_units_Z 96
_cell_length_a 22.129255
_cell_length_b 22.813076
_cell_length_c 9.878007
_cell_angle_alpha 90.000000
_cell_angle_beta 90.000000
_cell_angle_gamma 90.000000
_cell_volume 4986.777257
_symmetry_space_group_name_H-M "I M M A"
_symmetry_group_IT_number 74
_symmetry_cell_setting 'orthorhombic'
loop_
_space_group_symop_operation_xyz
x,y,z
-x,1/2-y,z
x,-y,-z
-x,1/2+y,-z
-x,-y,-z
x,1/2+y,-z
-x,y,z
x,1/2-y,z
1/2+x,1/2+y,1/2+z
1/2-x,-y,1/2+z
1/2+x,1/2-y,1/2-z
1/2-x,y,1/2-z
1/2-x,1/2-y,1/2-z
1/2+x,y,1/2-z
1/2-x,1/2+y,1/2+z
1/2+x,-y,1/2+z
loop_
_atom_site_type_symbol
_atom_site_label
_atom_site_fract_x
_atom_site_fract_y
_atom_site_fract_z
Si Si1 0.930413 0.603822 0.767469
Si Si2 0.933694 0.021174 0.849891
Si Si3 0.237482 0.183118 0.096321
Si Si4 0.124712 0.129984 0.956590
Si Si5 0.871550 0.182549 0.455423
Si Si6 0.433953 0.316553 0.779995
O O1 0.911375 0.534746 0.760326
O O2 0.888394 0.642120 0.671187
O O3 0.000000 0.612186 0.725866
O O4 0.922187 0.627023 0.920183
O O5 0.883393 0.072839 0.856372
O O6 0.000000 0.042654 0.795817
O O7 0.944078 0.000000 0.000000
O O8 0.211819 0.250000 0.098395
O O9 0.250000 0.161863 0.250000
O O10 0.300129 0.179723 0.016061
O O11 0.191541 0.139821 0.017512
O O12 0.106242 0.182049 0.855982
O O13 0.890281 0.250000 0.423091
O O14 0.902430 0.154626 0.588561
O O15 0.500000 0.345544 0.756422
O O16 0.441660 0.250000 0.821109
#
# Coordination Sequence:
#
# PCOD8299009 Si02
#       6
#    16  16  16  16  16  16
#     4  10  19  33  57  85 110 145 192 240 291 346
#     4   8  16  31  52  81 109 137 182 234 283 337
#     4  10  20  35  55  82 111 143 192 242 279 339
#     4  11  19  33  57  79 108 149 189 237 289 341
#     4  10  21  37  55  78 115 157 192 235 293 351
#     4  10  21  35  52  81 117 146 181 237 298 353
#
# _framework density 19.250910000000001
#
# number of rings (size 3 to 8) (size 9 to 14) (size 15 to 20)
#    0.000    2.167    1.667    3.500    0.000    2.333 
#    0.000    3.333    0.000   15.000    0.000    0.000 
#    0.000    0.000    0.000    0.000    0.000    0.000 
#
# Total GULP energy -594676.585027 kJ/mol
# GULP energy per Si atom -12389.095521 kJ/mol
# Density = 1.920709 g / cm^3
# Si number density = 19.250910 Si / 1000 Ang^3
#
#
#
# Elastic Constant Matrix: (Units=GPa)
#
#
# Indices 1 2 3 4 5 6 
#
# 1 103.7281 50.7378 42.1076 0.0000 0.0000 0.0000
# 2 50.7378 93.0942 36.4078 0.0000 0.0000 0.0000
# 3 42.1076 36.4078 93.0189 0.0000 0.0000 0.0000
# 4 0.0000 0.0000 0.0000 17.2612 0.0000 0.0000
# 5 0.0000 0.0000 0.0000 0.0000 28.4837 0.0000
# 6 0.0000 0.0000 0.0000 0.0000 0.0000 21.7892
#
#
#
# Elastic Compliance Matrix: (Units=1/GPa)
#
#
# Indices 1 2 3 4 5 6 
#
# 1 0.014330 -0.006226 -0.004050 0.000000 0.000000 0.000000
# 2 -0.006226 0.015388 -0.003205 0.000000 0.000000 0.000000
# 3 -0.004050 -0.003205 0.013838 0.000000 0.000000 0.000000
# 4 0.000000 0.000000 0.000000 0.057933 0.000000 0.000000
# 5 0.000000 0.000000 0.000000 0.000000 0.035108 0.000000
# 6 0.000000 0.000000 0.000000 0.000000 0.000000 0.045894
#
#
# Mechanical properties :
#
#
# Convention : Reuss Voigt Hill
#
# Bulk Modulus (GPa) = 60.25873 60.92749 60.59311
# Shear Modulus (GPa) = 23.25734 24.21267 23.73501
#
# Velocity S-wave (km/s) = 3.47957 3.55031 3.51512
# Velocity P-wave (km/s) = 6.89296 6.96593 6.92954
#
# Compressibility (1/GPa) = 0.01659511
#
# Stress axis : x y z
#
# Youngs Moduli (GPa) = 69.78283 64.98361 72.26417
#
# Poissons Ratio (x) = 0.40461 0.29267
# Poissons Ratio (y) = 0.43449 0.23158
# Poissons Ratio (z) = 0.28262 0.20825
#
# Static dielectric constant tensor:
#      x y z
#    x 3.506600 0.000000 0.000000 
#    y 0.000000 3.719710 0.000000 
#    z 0.000000 0.000000 3.334610 
# 
# 
# High freq. dielectric constant tensor:
#      x y z
#    x 1.737680 0.000000 0.000000 
#    y 0.000000 1.737640 0.000000 
#    z 0.000000 0.000000 1.737970 
# 
# From -- ./inp_files/12618.got.cif
#   From: 2010.03.12/outbox.cif.g09.slc.cpg/sg74_7_cif.got.tgz:12618.got - 2010.04.16 15:46:19.
