data_PCOD8299268
_publ_section_title
;
Structure prediction by ZEFSAII (Michael W. Deem and Ramdas Pophale) SiO2 
 PCOD8299268
Probable space group: I M M A
;
_chemical_formula_sum "Si O2"
_cell_formula_units_Z 72
_cell_length_a 26.784114
_cell_length_b 9.016543
_cell_length_c 14.503632
_cell_angle_alpha 90.000000
_cell_angle_beta 90.000000
_cell_angle_gamma 90.000000
_cell_volume 3502.628805
_symmetry_space_group_name_H-M "I M M A"
_symmetry_group_IT_number 74
_symmetry_cell_setting 'orthorhombic'
loop_
_space_group_symop_operation_xyz
x,y,z
-x,1/2-y,z
x,-y,-z
-x,1/2+y,-z
-x,-y,-z
x,1/2+y,-z
-x,y,z
x,1/2-y,z
1/2+x,1/2+y,1/2+z
1/2-x,-y,1/2+z
1/2+x,1/2-y,1/2-z
1/2-x,y,1/2-z
1/2-x,1/2-y,1/2-z
1/2+x,y,1/2-z
1/2-x,1/2+y,1/2+z
1/2+x,-y,1/2+z
loop_
_atom_site_type_symbol
_atom_site_label
_atom_site_fract_x
_atom_site_fract_y
_atom_site_fract_z
Si Si1 0.000000 0.575632 0.400242
Si Si2 0.332571 0.585043 0.086243
Si Si3 0.873013 0.073569 0.095753
Si Si4 0.273123 0.419593 0.654648
Si Si5 0.590389 0.923402 0.230963
O O1 0.000000 0.500000 0.500000
O O2 0.047636 0.525877 0.339863
O O3 0.000000 0.750000 0.417584
O O4 0.351831 0.750000 0.070627
O O5 0.272783 0.573332 0.083503
O O6 0.356334 0.534363 0.183759
O O7 0.355848 0.500000 0.000000
O O8 0.875197 0.250000 0.087114
O O9 0.816526 0.024817 0.118436
O O10 0.911272 0.017093 0.174488
O O11 0.890101 0.000000 0.000000
O O12 0.293340 0.250000 0.665201
O O13 0.250000 0.477911 0.750000
O O14 0.585462 0.750000 0.255993
#
# Coordination Sequence:
#
# PCOD8299268 Si02
#       5
#     8  16  16  16  16
#     4  10  22  40  69  98 127 160 193 242 304 362
#     4  10  20  33  54  81 116 156 195 239 291 347
#     4  12  25  40  61  88 119 161 205 253 301 357
#     4  10  19  36  58  82 118 163 200 245 298 348
#     4  10  21  41  62  87 120 158 199 245 301 359
#
# _framework density 20.555989
#
# number of rings (size 3 to 8) (size 9 to 14) (size 15 to 20)
#    0.000    1.556    2.222    3.333    0.000    4.889 
#    0.000    0.556    0.000    0.000    0.000    0.000 
#    0.000    0.000    0.000    0.000    0.000    0.000 
#
# Total GULP energy -446329.650633 kJ/mol
# GULP energy per Si atom -12398.045851 kJ/mol
# Density = 2.050920 g / cm^3
# Si number density = 20.555989 Si / 1000 Ang^3
#
#
#
# Elastic Constant Matrix: (Units=GPa)
#
#
# Indices 1 2 3 4 5 6 
#
# 1 82.5287 34.4718 39.7747 0.0000 0.0000 0.0000
# 2 34.4718 110.4484 78.7453 0.0000 0.0000 0.0000
# 3 39.7747 78.7453 171.0763 0.0000 0.0000 0.0000
# 4 0.0000 0.0000 0.0000 40.3546 0.0000 0.0000
# 5 0.0000 0.0000 0.0000 0.0000 30.4296 0.0000
# 6 0.0000 0.0000 0.0000 0.0000 0.0000 21.5666
#
#
#
# Elastic Compliance Matrix: (Units=1/GPa)
#
#
# Indices 1 2 3 4 5 6 
#
# 1 0.014335 -0.003123 -0.001895 0.000000 0.000000 0.000000
# 2 -0.003123 0.014157 -0.005790 0.000000 0.000000 0.000000
# 3 -0.001895 -0.005790 0.008951 0.000000 0.000000 0.000000
# 4 0.000000 0.000000 0.000000 0.024780 0.000000 0.000000
# 5 0.000000 0.000000 0.000000 0.000000 0.032863 0.000000
# 6 0.000000 0.000000 0.000000 0.000000 0.000000 0.046368
#
#
# Mechanical properties :
#
#
# Convention : Reuss Voigt Hill
#
# Bulk Modulus (GPa) = 63.18655 74.44855 68.81755
# Shear Modulus (GPa) = 29.70069 32.54093 31.12081
#
# Velocity S-wave (km/s) = 3.80527 3.98306 3.89518
# Velocity P-wave (km/s) = 7.07900 7.57952 7.33353
#
# Compressibility (1/GPa) = 0.01582615
#
# Stress axis : x y z
#
# Youngs Moduli (GPa) = 69.76018 70.63713 111.71585
#
# Poissons Ratio (x) = 0.22057 0.21176
# Poissons Ratio (y) = 0.21783 0.64687
# Poissons Ratio (z) = 0.13223 0.40901
#
# Static dielectric constant tensor:
#      x y z
#    x 3.649400 0.000000 0.000000 
#    y 0.000000 3.522320 0.000000 
#    z 0.000000 0.000000 3.847020 
# 
# 
# High freq. dielectric constant tensor:
#      x y z
#    x 1.789200 0.000000 0.000000 
#    y 0.000000 1.783890 0.000000 
#    z 0.000000 0.000000 1.818900 
# 
# From -- ./inp_files/29156.got.cif
#   From: 2010.03.12/outbox.cif.g09.slc.cpg/sg74_15_cif.got.tgz:29156.got - 2010.04.16 15:46:19.
