data_PCOD8299838
_publ_section_title
;
Structure prediction by ZEFSAII (Michael W. Deem and Ramdas Pophale) SiO2 
 PCOD8299838
Probable space group: I M M A
;
_chemical_formula_sum "Si O2"
_cell_formula_units_Z 104
_cell_length_a 17.123758
_cell_length_b 25.870545
_cell_length_c 12.916324
_cell_angle_alpha 90.000000
_cell_angle_beta 90.000000
_cell_angle_gamma 90.000000
_cell_volume 5721.943827
_symmetry_space_group_name_H-M "I M M A"
_symmetry_group_IT_number 74
_symmetry_cell_setting 'orthorhombic'
loop_
_space_group_symop_operation_xyz
x,y,z
-x,1/2-y,z
x,-y,-z
-x,1/2+y,-z
-x,-y,-z
x,1/2+y,-z
-x,y,z
x,1/2-y,z
1/2+x,1/2+y,1/2+z
1/2-x,-y,1/2+z
1/2+x,1/2-y,1/2-z
1/2-x,y,1/2-z
1/2-x,1/2-y,1/2-z
1/2+x,y,1/2-z
1/2-x,1/2+y,1/2+z
1/2+x,-y,1/2+z
loop_
_atom_site_type_symbol
_atom_site_label
_atom_site_fract_x
_atom_site_fract_y
_atom_site_fract_z
Si Si1 0.589549 0.588003 0.406076
Si Si2 0.659228 0.808433 0.366141
Si Si3 0.301795 0.553830 0.839715
Si Si4 0.160231 0.692283 0.372266
Si Si5 0.588927 0.534997 0.196808
Si Si6 0.806896 0.000000 0.000000
Si Si7 0.409715 0.102980 0.998144
O O1 0.500000 0.578758 0.436054
O O2 0.611003 0.648075 0.428780
O O3 0.606531 0.577457 0.284689
O O4 0.640419 0.549600 0.474690
O O5 0.642548 0.750000 0.407976
O O6 0.749417 0.823542 0.380506
O O7 0.633626 0.811037 0.246581
O O8 0.250000 0.581898 0.750000
O O9 0.362054 0.516199 0.781490
O O10 0.246844 0.516480 0.905470
O O11 0.350411 0.595701 0.905930
O O12 0.148415 0.750000 0.414009
O O13 0.106060 0.657508 0.444469
O O14 0.500000 0.517146 0.201486
O O15 0.608659 0.557984 0.084201
O O16 0.500000 0.100785 0.034803
#
# Coordination Sequence:
#
# PCOD8299838 Si02
#       7
#    16  16  16  16  16   8  16
#     4  11  22  35  51  77 114 150 183 223 267 322
#     4   9  18  32  53  80 112 149 181 216 266 327
#     4  12  23  36  54  77 102 141 187 231 270 328
#     4   9  18  32  53  82 112 140 176 220 271 332
#     4  10  20  34  52  78 111 142 175 221 275 324
#     4  12  23  36  55  76 104 150 192 224 265 328
#     4  11  21  35  55  81 111 144 180 228 282 333
#
# _framework density 18.175642
#
# number of rings (size 3 to 8) (size 9 to 14) (size 15 to 20)
#    0.000    1.538    4.615    2.538    0.000    1.846 
#    0.000    1.538    0.000    0.462    0.000    0.000 
#    0.000    2.462    0.000    0.000    0.000    0.000 
#
# Total GULP energy -644717.121806 kJ/mol
# GULP energy per Si atom -12398.406189 kJ/mol
# Density = 1.813427 g / cm^3
# Si number density = 18.175642 Si / 1000 Ang^3
#
#
#
# Elastic Constant Matrix: (Units=GPa)
#
#
# Indices 1 2 3 4 5 6 
#
# 1 72.8973 39.7592 30.4990 0.0002 0.0000 0.0000
# 2 39.7592 95.4316 19.0351 0.0002 0.0001 0.0000
# 3 30.4990 19.0351 51.2258 0.0017 0.0004 0.0001
# 4 0.0002 0.0002 0.0017 26.0760 0.0002 0.0001
# 5 0.0000 0.0001 0.0004 0.0002 26.7083 0.0000
# 6 0.0000 0.0000 0.0001 0.0001 0.0000 29.2008
#
#
#
# Elastic Compliance Matrix: (Units=1/GPa)
#
#
# Indices 1 2 3 4 5 6 
#
# 1 0.021933 -0.007056 -0.010436 0.000001 0.000000 0.000000
# 2 -0.007056 0.013588 -0.000848 0.000000 0.000000 0.000000
# 3 -0.010436 -0.000848 0.026050 -0.000002 0.000000 0.000000
# 4 0.000001 0.000000 -0.000002 0.038349 0.000000 0.000000
# 5 0.000000 0.000000 0.000000 0.000000 0.037442 0.000000
# 6 0.000000 0.000000 0.000000 0.000000 0.000000 0.034246
#
#
# Mechanical properties :
#
#
# Convention : Reuss Voigt Hill
#
# Bulk Modulus (GPa) = 40.17742 44.23794 42.20768
# Shear Modulus (GPa) = 23.08562 25.08109 24.08336
#
# Velocity S-wave (km/s) = 3.56777 3.71877 3.64405
# Velocity P-wave (km/s) = 6.25500 6.54454 6.40141
#
# Compressibility (1/GPa) = 0.02488960
#
# Stress axis : x y z
#
# Youngs Moduli (GPa) = 45.59363 73.59658 38.38738
#
# Poissons Ratio (x) = 0.51930 0.40063
# Poissons Ratio (y) = 0.32171 0.03255
# Poissons Ratio (z) = 0.47584 0.06241
#
# Static dielectric constant tensor:
#      x y z
#    x 3.453330 0.000000 0.000000 
#    y 0.000000 3.228210 0.000000 
#    z 0.000000 0.000000 3.151920 
# 
# 
# High freq. dielectric constant tensor:
#      x y z
#    x 1.717270 0.000000 0.000000 
#    y 0.000000 1.692820 0.000000 
#    z 0.000000 0.000000 1.666040 
# 
# From -- ./inp_files/22778.got.cif
#   From: 2010.03.12/outbox.cif.g09.slc.cpg/sg74_12_cif.got.tgz:22778.got - 2010.04.16 15:46:19.
