data_PCOD8299600
_publ_section_title
;
Structure prediction by ZEFSAII (Michael W. Deem and Ramdas Pophale) SiO2 
 PCOD8299600
Probable space group: I M M A
;
_chemical_formula_sum "Si O2"
_cell_formula_units_Z 112
_cell_length_a 17.443462
_cell_length_b 23.916643
_cell_length_c 15.284495
_cell_angle_alpha 90.000000
_cell_angle_beta 90.000000
_cell_angle_gamma 90.000000
_cell_volume 6376.524000
_symmetry_space_group_name_H-M "I M M A"
_symmetry_group_IT_number 74
_symmetry_cell_setting 'orthorhombic'
loop_
_space_group_symop_operation_xyz
x,y,z
-x,1/2-y,z
x,-y,-z
-x,1/2+y,-z
-x,-y,-z
x,1/2+y,-z
-x,y,z
x,1/2-y,z
1/2+x,1/2+y,1/2+z
1/2-x,-y,1/2+z
1/2+x,1/2-y,1/2-z
1/2-x,y,1/2-z
1/2-x,1/2-y,1/2-z
1/2+x,y,1/2-z
1/2-x,1/2+y,1/2+z
1/2+x,-y,1/2+z
loop_
_atom_site_type_symbol
_atom_site_label
_atom_site_fract_x
_atom_site_fract_y
_atom_site_fract_z
Si Si1 0.585996 0.183749 0.565939
Si Si2 0.590200 0.885709 0.104527
Si Si3 0.915693 0.991902 0.602012
Si Si4 0.337569 0.683732 0.255647
Si Si5 0.586026 0.186476 0.237219
Si Si6 0.813460 0.183541 0.098849
Si Si7 0.154665 0.621240 0.586065
O O1 0.500000 0.158654 0.560086
O O2 0.581426 0.250000 0.567940
O O3 0.627009 0.161492 0.653546
O O4 0.634988 0.164343 0.482797
O O5 0.500000 0.882287 0.087192
O O6 0.612648 0.948064 0.139373
O O7 0.614338 0.841082 0.176267
O O8 0.632400 0.870461 0.014556
O O9 0.000000 0.975572 0.641456
O O10 0.927421 0.000000 0.500000
O O11 0.852281 0.943650 0.617440
O O12 0.343711 0.750000 0.248135
O O13 0.250000 0.663521 0.250000
O O14 0.500000 0.178975 0.272890
O O15 0.604584 0.250000 0.214429
O O16 0.642724 0.166306 0.313210
O O17 0.595612 0.153755 0.147293
O O18 0.794343 0.250000 0.094921
O O19 0.738642 0.145599 0.099688
#
# Coordination Sequence:
#
# PCOD8299600 Si02
#       7
#    16  16  16  16  16  16  16
#     4   9  17  31  50  69  94 135 178 204 231 284
#     4  10  20  34  53  76 101 129 162 201 245 294
#     4   8  16  32  51  70  95 129 166 200 237 289
#     4  10  20  33  49  74 108 137 162 199 245 291
#     4  10  20  33  49  71 100 133 167 201 241 294
#     4  10  20  33  49  71 100 132 166 206 247 286
#     4  11  19  31  51  74 100 127 158 201 255 301
#
# _framework density 17.564426999999998
#
# number of rings (size 3 to 8) (size 9 to 14) (size 15 to 20)
#    0.000    2.286    0.000    4.714    0.000    6.000 
#    0.000    1.429    0.000    0.000    0.000    0.000 
#    0.000   16.000    0.000    0.000    0.000    0.000 
#
# Total GULP energy -694200.145780 kJ/mol
# GULP energy per Si atom -12396.431175 kJ/mol
# Density = 1.752445 g / cm^3
# Si number density = 17.564427 Si / 1000 Ang^3
#
#
#
# Elastic Constant Matrix: (Units=GPa)
#
#
# Indices 1 2 3 4 5 6 
#
# 1 100.0240 46.3306 32.0048 0.0000 0.0000 0.0000
# 2 46.3306 60.9406 37.3103 0.0000 0.0000 0.0000
# 3 32.0048 37.3103 88.1873 0.0000 0.0000 0.0000
# 4 0.0000 0.0000 0.0000 10.5433 0.0000 0.0000
# 5 0.0000 0.0000 0.0000 0.0000 32.2148 0.0000
# 6 0.0000 0.0000 0.0000 0.0000 0.0000 -6.5684
#
#
#
# Elastic Compliance Matrix: (Units=1/GPa)
#
#
# Indices 1 2 3 4 5 6 
#
# 1 0.015480 -0.011241 -0.000862 0.000000 0.000000 0.000000
# 2 -0.011241 0.030309 -0.008743 0.000000 0.000000 0.000000
# 3 -0.000862 -0.008743 0.015352 0.000000 0.000000 0.000000
# 4 0.000000 0.000000 0.000000 0.094847 0.000000 0.000000
# 5 0.000000 0.000000 0.000000 0.000000 0.031042 0.000000
# 6 0.000000 0.000000 0.000000 0.000000 0.000000 -0.152245
#
#
# Mechanical properties :
#
#
# Convention : Reuss Voigt Hill
#
# Bulk Modulus (GPa) = 51.42158 53.38260 52.40209
# Shear Modulus (GPa) = 60.26989 16.13837 38.20413
#
# Velocity S-wave (km/s) = 5.86414 3.03448 4.66884
# Velocity P-wave (km/s) = 8.67124 6.53726 7.67874
#
# Compressibility (1/GPa) = 0.01944709
#
# Stress axis : x y z
#
# Youngs Moduli (GPa) = 64.59807 32.99390 65.14005
#
# Poissons Ratio (x) = 0.37089 0.05616
# Poissons Ratio (y) = 0.72616 0.56954
# Poissons Ratio (z) = 0.05570 0.28848
#
# Static dielectric constant tensor:
#      x y z
#    x 3.390610 0.000000 0.000000 
#    y 0.000000 3.482450 0.000000 
#    z 0.000000 0.000000 3.279780 
# 
# 
# High freq. dielectric constant tensor:
#      x y z
#    x 1.686190 0.000000 0.000000 
#    y 0.000000 1.653730 0.000000 
#    z 0.000000 0.000000 1.676240 
# 
# From -- ./inp_files/32768.got.cif
#   From: 2010.03.12/outbox.cif.g09.slc.cpg/sg74_17_cif.got.tgz:32768.got - 2010.04.16 15:46:19.
