data_PCOD8299226
_publ_section_title
;
Structure prediction by ZEFSAII (Michael W. Deem and Ramdas Pophale) SiO2 
 PCOD8299226
Probable space group: I M M A
;
_chemical_formula_sum "Si O2"
_cell_formula_units_Z 72
_cell_length_a 8.886711
_cell_length_b 17.570018
_cell_length_c 23.217808
_cell_angle_alpha 90.000000
_cell_angle_beta 90.000000
_cell_angle_gamma 90.000000
_cell_volume 3625.220931
_symmetry_space_group_name_H-M "I M M A"
_symmetry_group_IT_number 74
_symmetry_cell_setting 'orthorhombic'
loop_
_space_group_symop_operation_xyz
x,y,z
-x,1/2-y,z
x,-y,-z
-x,1/2+y,-z
-x,-y,-z
x,1/2+y,-z
-x,y,z
x,1/2-y,z
1/2+x,1/2+y,1/2+z
1/2-x,-y,1/2+z
1/2+x,1/2-y,1/2-z
1/2-x,y,1/2-z
1/2-x,1/2-y,1/2-z
1/2+x,y,1/2-z
1/2-x,1/2+y,1/2+z
1/2+x,-y,1/2+z
loop_
_atom_site_type_symbol
_atom_site_label
_atom_site_fract_x
_atom_site_fract_y
_atom_site_fract_z
Si Si1 0.822855 0.970373 0.189839
Si Si2 0.321976 0.166181 0.000848
Si Si3 0.822272 0.899726 0.618662
Si Si4 0.823434 0.750000 0.688033
Si Si5 0.174620 0.839024 0.373011
O O1 0.750000 0.994773 0.250000
O O2 0.773487 0.885269 0.172645
O O3 0.000000 0.974332 0.196516
O O4 0.767584 0.028076 0.141166
O O5 0.500000 0.175297 0.002357
O O6 0.251454 0.250000 0.011402
O O7 0.271783 0.109802 0.051886
O O8 0.274755 0.136027 0.937656
O O9 0.772452 0.824602 0.653280
O O10 0.000000 0.914598 0.624396
O O11 0.750000 0.750000 0.750000
O O12 0.000000 0.750000 0.696635
O O13 0.205405 0.750000 0.363430
O O14 0.000000 0.858439 0.362702
#
# Coordination Sequence:
#
# PCOD8299226 Si02
#       5
#    16  16  16   8  16
#     4  12  26  42  58  80 114 153 195 241 289 342
#     4   8  14  30  59  91 119 148 188 232 276 334
#     4  10  19  35  59  86 117 153 192 235 281 331
#     4  10  20  32  52  80 112 152 195 236 277 324
#     4   9  19  38  65  92 115 145 187 235 287 344
#
# _framework density 19.860858
#
# number of rings (size 3 to 8) (size 9 to 14) (size 15 to 20)
#    0.000    2.222    1.111    4.000    0.000    4.444 
#    0.000    5.556    0.000    1.333    0.000    0.000 
#    0.000    0.000    0.000    0.000    0.000    0.000 
#
# Total GULP energy -446369.520916 kJ/mol
# GULP energy per Si atom -12399.153359 kJ/mol
# Density = 1.981565 g / cm^3
# Si number density = 19.860858 Si / 1000 Ang^3
#
#
#
# Elastic Constant Matrix: (Units=GPa)
#
#
# Indices 1 2 3 4 5 6 
#
# 1 72.1820 33.0912 23.6014 0.0000 0.0000 0.0000
# 2 33.0912 81.1511 21.6626 0.0000 0.0000 0.0000
# 3 23.6014 21.6626 64.1941 0.0000 0.0000 0.0000
# 4 0.0000 0.0000 0.0000 29.6701 0.0000 0.0000
# 5 0.0000 0.0000 0.0000 0.0000 26.0367 0.0000
# 6 0.0000 0.0000 0.0000 0.0000 0.0000 22.6571
#
#
#
# Elastic Compliance Matrix: (Units=1/GPa)
#
#
# Indices 1 2 3 4 5 6 
#
# 1 0.018197 -0.006192 -0.004601 0.000000 0.000000 0.000000
# 2 -0.006192 0.015650 -0.003005 0.000000 0.000000 0.000000
# 3 -0.004601 -0.003005 0.018283 0.000000 0.000000 0.000000
# 4 0.000000 0.000000 0.000000 0.033704 0.000000 0.000000
# 5 0.000000 0.000000 0.000000 0.000000 0.038407 0.000000
# 6 0.000000 0.000000 0.000000 0.000000 0.000000 0.044136
#
#
# Mechanical properties :
#
#
# Convention : Reuss Voigt Hill
#
# Bulk Modulus (GPa) = 40.75780 41.58195 41.16988
# Shear Modulus (GPa) = 24.49180 24.95091 24.72136
#
# Velocity S-wave (km/s) = 3.51546 3.54826 3.53190
# Velocity P-wave (km/s) = 6.08639 6.14564 6.11609
#
# Compressibility (1/GPa) = 0.02453518
#
# Stress axis : x y z
#
# Youngs Moduli (GPa) = 54.95463 63.89908 54.69534
#
# Poissons Ratio (x) = 0.39567 0.25163
# Poissons Ratio (y) = 0.34028 0.16433
# Poissons Ratio (z) = 0.25283 0.19199
#
# Static dielectric constant tensor:
#      x y z
#    x 3.217310 0.000000 0.000000 
#    y 0.000000 3.582520 0.000000 
#    z 0.000000 0.000000 3.869960 
# 
# 
# High freq. dielectric constant tensor:
#      x y z
#    x 1.734250 0.000000 0.000000 
#    y 0.000000 1.775040 0.000000 
#    z 0.000000 0.000000 1.788820 
# 
# From -- ./inp_files/56651.got.cif
#   From: 2010.03.12/outbox.cif.g09.slc.cpg/sg74_29_cif.got.tgz:56651.got - 2010.04.16 15:46:19.
