data_PCOD8299385
_publ_section_title
;
Structure prediction by ZEFSAII (Michael W. Deem and Ramdas Pophale) SiO2 
 PCOD8299385
Probable space group: I M M A
;
_chemical_formula_sum "Si O2"
_cell_formula_units_Z 88
_cell_length_a 29.518195
_cell_length_b 9.354677
_cell_length_c 19.653899
_cell_angle_alpha 90.000000
_cell_angle_beta 90.000000
_cell_angle_gamma 90.000000
_cell_volume 5427.093627
_symmetry_space_group_name_H-M "I M M A"
_symmetry_group_IT_number 74
_symmetry_cell_setting 'orthorhombic'
loop_
_space_group_symop_operation_xyz
x,y,z
-x,1/2-y,z
x,-y,-z
-x,1/2+y,-z
-x,-y,-z
x,1/2+y,-z
-x,y,z
x,1/2-y,z
1/2+x,1/2+y,1/2+z
1/2-x,-y,1/2+z
1/2+x,1/2-y,1/2-z
1/2-x,y,1/2-z
1/2-x,1/2-y,1/2-z
1/2+x,y,1/2-z
1/2-x,1/2+y,1/2+z
1/2+x,-y,1/2+z
loop_
_atom_site_type_symbol
_atom_site_label
_atom_site_fract_x
_atom_site_fract_y
_atom_site_fract_z
Si Si1 0.722347 0.408073 0.888145
Si Si2 0.551677 0.916497 0.066973
Si Si3 0.371913 0.082379 0.830824
Si Si4 0.750000 0.502453 0.250000
Si Si5 0.342432 0.592291 0.708005
Si Si6 0.304896 0.579943 0.565122
O O1 0.724529 0.250000 0.922594
O O2 0.670352 0.462513 0.879655
O O3 0.742733 0.391829 0.812838
O O4 0.752979 0.522255 0.928542
O O5 0.500000 0.954060 0.086156
O O6 0.558131 0.750000 0.051253
O O7 0.582467 0.964318 0.130503
O O8 0.567394 0.000000 0.000000
O O9 0.369664 0.250000 0.816811
O O10 0.372450 0.010217 0.755924
O O11 0.707713 0.397598 0.260718
O O12 0.364306 0.750000 0.709345
O O13 0.336811 0.538961 0.629645
O O14 0.326820 0.500000 0.500000
O O15 0.302955 0.750000 0.554774
#
# Coordination Sequence:
#
# PCOD8299385 Si02
#       6
#    16  16  16   8  16  16
#     4   9  16  26  40  58  81 108 141 178 214 250
#     4   9  18  33  50  67  89 116 144 174 211 256
#     4   9  18  30  45  66  88 112 143 179 218 259
#     4   8  14  24  40  58  78 106 140 172 210 252
#     4   9  17  28  43  62  83 110 144 181 216 253
#     4  10  20  31  42  58  83 116 152 184 218 256
#
# _framework density 16.214941
#
# number of rings (size 3 to 8) (size 9 to 14) (size 15 to 20)
#    0.000    2.909    0.000    1.091    0.000   10.909 
#    0.000    1.818    0.000    0.000    0.000    0.000 
#    0.000    0.727    0.000    1.636    0.000    2.545 
#
# Total GULP energy -545180.530429 kJ/mol
# GULP energy per Si atom -12390.466601 kJ/mol
# Density = 1.617804 g / cm^3
# Si number density = 16.214941 Si / 1000 Ang^3
#
#
#
# Elastic Constant Matrix: (Units=GPa)
#
#
# Indices 1 2 3 4 5 6 
#
# 1 62.3153 28.6409 47.5034 0.0000 0.0000 0.0000
# 2 28.6409 70.1900 51.7721 0.0000 0.0000 0.0000
# 3 47.5034 51.7721 122.3237 0.0000 0.0000 0.0000
# 4 0.0000 0.0000 0.0000 27.3192 0.0000 0.0000
# 5 0.0000 0.0000 0.0000 0.0000 24.2357 0.0000
# 6 0.0000 0.0000 0.0000 0.0000 0.0000 15.6596
#
#
#
# Elastic Compliance Matrix: (Units=1/GPa)
#
#
# Indices 1 2 3 4 5 6 
#
# 1 0.023608 -0.004174 -0.007401 0.000000 0.000000 0.000000
# 2 -0.004174 0.021451 -0.007458 0.000000 0.000000 0.000000
# 3 -0.007401 -0.007458 0.014206 0.000000 0.000000 0.000000
# 4 0.000000 0.000000 0.000000 0.036604 0.000000 0.000000
# 5 0.000000 0.000000 0.000000 0.000000 0.041261 0.000000
# 6 0.000000 0.000000 0.000000 0.000000 0.000000 0.063858
#
#
# Mechanical properties :
#
#
# Convention : Reuss Voigt Hill
#
# Bulk Modulus (GPa) = 47.17368 56.74021 51.95695
# Shear Modulus (GPa) = 20.31511 21.90375 21.10943
#
# Velocity S-wave (km/s) = 3.54342 3.67936 3.61203
# Velocity P-wave (km/s) = 6.77473 7.28826 7.03618
#
# Compressibility (1/GPa) = 0.02119826
#
# Stress axis : x y z
#
# Youngs Moduli (GPa) = 42.35861 46.61717 70.39348
#
# Poissons Ratio (x) = 0.19458 0.52101
# Poissons Ratio (y) = 0.17680 0.52500
# Poissons Ratio (z) = 0.31351 0.34768
#
# Static dielectric constant tensor:
#      x y z
#    x 2.838460 0.000000 0.000000 
#    y 0.000000 2.968950 0.000000 
#    z 0.000000 0.000000 3.172450 
# 
# 
# High freq. dielectric constant tensor:
#      x y z
#    x 1.574260 0.000000 0.000000 
#    y 0.000000 1.624760 0.000000 
#    z 0.000000 0.000000 1.622170 
# 
# From -- ./inp_files/55542.got.cif
#   From: 2010.03.12/outbox.cif.g09.slc.cpg/sg74_28_cif.got.tgz:55542.got - 2010.04.16 15:46:19.
