data_PCOD8299932
_publ_section_title
;
Structure prediction by ZEFSAII (Michael W. Deem and Ramdas Pophale) SiO2 
 PCOD8299932
Probable space group: I M M A
;
_chemical_formula_sum "Si O2"
_cell_formula_units_Z 96
_cell_length_a 9.329230
_cell_length_b 28.574417
_cell_length_c 19.086210
_cell_angle_alpha 90.000000
_cell_angle_beta 90.000000
_cell_angle_gamma 90.000000
_cell_volume 5087.950488
_symmetry_space_group_name_H-M "I M M A"
_symmetry_group_IT_number 74
_symmetry_cell_setting 'orthorhombic'
loop_
_space_group_symop_operation_xyz
x,y,z
-x,1/2-y,z
x,-y,-z
-x,1/2+y,-z
-x,-y,-z
x,1/2+y,-z
-x,y,z
x,1/2-y,z
1/2+x,1/2+y,1/2+z
1/2-x,-y,1/2+z
1/2+x,1/2-y,1/2-z
1/2-x,y,1/2-z
1/2-x,1/2-y,1/2-z
1/2+x,y,1/2-z
1/2-x,1/2+y,1/2+z
1/2+x,-y,1/2+z
loop_
_atom_site_type_symbol
_atom_site_label
_atom_site_fract_x
_atom_site_fract_y
_atom_site_fract_z
Si Si1 0.338034 0.855859 0.413895
Si Si2 0.168146 0.195909 0.321442
Si Si3 0.669863 0.022514 0.428488
Si Si4 0.657634 0.695200 0.186958
Si Si5 0.333091 0.945085 0.321919
Si Si6 0.334144 0.871891 0.576464
O O1 0.500000 0.841680 0.395176
O O2 0.233773 0.815187 0.386581
O O3 0.295506 0.903914 0.375925
O O4 0.316489 0.859403 0.495802
O O5 0.192716 0.250000 0.342683
O O6 0.250000 0.184026 0.250000
O O7 0.233989 0.163265 0.381121
O O8 0.000000 0.184967 0.312041
O O9 0.500000 0.023608 0.437974
O O10 0.723940 0.075221 0.414261
O O11 0.735331 0.000000 0.500000
O O12 0.716150 0.992504 0.360932
O O13 0.500000 0.672214 0.188778
O O14 0.644805 0.750000 0.197458
O O15 0.750000 0.672427 0.250000
O O16 0.500000 0.946518 0.304027
O O17 0.250000 0.938838 0.250000
O O18 0.500000 0.866769 0.600405
#
# Coordination Sequence:
#
# PCOD8299932 Si02
#       6
#    16  16  16  16  16  16
#     4  10  20  34  54  80 109 144 184 224 269 327
#     4  10  22  41  63  86 116 153 191 237 294 351
#     4   9  16  33  58  80 108 149 191 230 276 333
#     4  10  21  36  53  73 101 139 181 226 276 326
#     4  10  20  34  54  80 109 144 186 227 272 328
#     4  10  20  35  60  89 114 148 191 232 279 336
#
# _framework density 18.868110000000001
#
# number of rings (size 3 to 8) (size 9 to 14) (size 15 to 20)
#    0.000    2.167    1.667    1.500    0.000    6.000 
#    0.000    5.833    0.000    1.000    0.000    0.000 
#    0.000    0.000    0.000    0.000    0.000    0.000 
#
# Total GULP energy -595185.821249 kJ/mol
# GULP energy per Si atom -12399.704609 kJ/mol
# Density = 1.882516 g / cm^3
# Si number density = 18.868110 Si / 1000 Ang^3
#
#
#
# Elastic Constant Matrix: (Units=GPa)
#
#
# Indices 1 2 3 4 5 6 
#
# 1 105.5692 52.5919 66.6806 0.0000 0.0000 0.0000
# 2 52.5919 79.2373 55.5423 0.0003 -0.0001 0.0000
# 3 66.6806 55.5423 110.1164 0.0017 -0.0001 0.0003
# 4 0.0000 0.0003 0.0017 34.2279 -0.0001 0.0001
# 5 0.0000 -0.0001 -0.0001 -0.0001 28.7536 0.0001
# 6 0.0000 0.0000 0.0003 0.0001 0.0001 20.3318
#
#
#
# Elastic Compliance Matrix: (Units=1/GPa)
#
#
# Indices 1 2 3 4 5 6 
#
# 1 0.017190 -0.006362 -0.007200 0.000000 0.000000 0.000000
# 2 -0.006362 0.021878 -0.007182 0.000000 0.000000 0.000000
# 3 -0.007200 -0.007182 0.017064 -0.000001 0.000000 0.000000
# 4 0.000000 0.000000 -0.000001 0.029216 0.000000 0.000000
# 5 0.000000 0.000000 0.000000 0.000000 0.034778 0.000000
# 6 0.000000 0.000000 0.000000 0.000000 0.000000 0.049184
#
#
# Mechanical properties :
#
#
# Convention : Reuss Voigt Hill
#
# Bulk Modulus (GPa) = 68.29664 71.61695 69.95680
# Shear Modulus (GPa) = 23.18249 24.66986 23.92617
#
# Velocity S-wave (km/s) = 3.50903 3.61985 3.56487
# Velocity P-wave (km/s) = 7.25900 7.45051 7.35538
#
# Compressibility (1/GPa) = 0.01464201
#
# Stress axis : x y z
#
# Youngs Moduli (GPa) = 58.17405 45.70860 58.60284
#
# Poissons Ratio (x) = 0.29081 0.42194
# Poissons Ratio (y) = 0.37012 0.42091
# Poissons Ratio (z) = 0.41886 0.32829
#
# Static dielectric constant tensor:
#      x y z
#    x 3.418580 0.000000 0.000000 
#    y 0.000000 3.551470 0.000000 
#    z 0.000000 0.000000 3.461430 
# 
# 
# High freq. dielectric constant tensor:
#      x y z
#    x 1.715680 0.000000 0.000000 
#    y 0.000000 1.736450 0.000000 
#    z 0.000000 0.000000 1.735600 
# 
# From -- ./inp_files/49171.got.cif
#   From: 2010.03.12/outbox.cif.g09.slc.cpg/sg74_25_cif.got.tgz:49171.got - 2010.04.16 15:46:19.
