data_PCOD8299012
_publ_section_title
;
Structure prediction by ZEFSAII (Michael W. Deem and Ramdas Pophale) SiO2 
 PCOD8299012
Probable space group: I M M A
;
_chemical_formula_sum "Si O2"
_cell_formula_units_Z 96
_cell_length_a 24.377968
_cell_length_b 8.840854
_cell_length_c 22.517752
_cell_angle_alpha 90.000000
_cell_angle_beta 90.000000
_cell_angle_gamma 90.000000
_cell_volume 4853.072205
_symmetry_space_group_name_H-M "I M M A"
_symmetry_group_IT_number 74
_symmetry_cell_setting 'orthorhombic'
loop_
_space_group_symop_operation_xyz
x,y,z
-x,1/2-y,z
x,-y,-z
-x,1/2+y,-z
-x,-y,-z
x,1/2+y,-z
-x,y,z
x,1/2-y,z
1/2+x,1/2+y,1/2+z
1/2-x,-y,1/2+z
1/2+x,1/2-y,1/2-z
1/2-x,y,1/2-z
1/2-x,1/2-y,1/2-z
1/2+x,y,1/2-z
1/2-x,1/2+y,1/2+z
1/2+x,-y,1/2+z
loop_
_atom_site_type_symbol
_atom_site_label
_atom_site_fract_x
_atom_site_fract_y
_atom_site_fract_z
Si Si1 0.500000 0.928953 0.285005
Si Si2 0.885052 0.428378 0.835178
Si Si3 0.196172 0.926805 0.604876
Si Si4 0.090214 0.428501 0.559714
Si Si5 0.183868 0.071139 0.063409
Si Si6 0.500000 0.929346 0.151524
Si Si7 0.810766 0.581173 0.273776
O O1 0.500000 0.750000 0.277664
O O2 0.447135 0.981221 0.322319
O O3 0.500000 0.999097 0.218092
O O4 0.880028 0.250000 0.846976
O O5 0.863441 0.516054 0.892374
O O6 0.850096 0.477065 0.778025
O O7 0.188967 0.750000 0.593429
O O8 0.256726 0.983604 0.586736
O O9 0.152692 0.016458 0.565376
O O10 0.184877 0.962597 0.673408
O O11 0.064812 0.500000 0.500000
O O12 0.088504 0.250000 0.553290
O O13 0.054250 0.483711 0.616094
O O14 0.181513 0.250000 0.058415
O O15 0.171364 0.000000 0.000000
O O16 0.500000 0.750000 0.155242
O O17 0.828738 0.750000 0.295356
O O18 0.750000 0.586977 0.250000
#
# Coordination Sequence:
#
# PCOD8299012 Si02
#       7
#     8  16  16  16  16   8  16
#     4   9  18  35  61  89 114 146 186 233 288 343
#     4  10  20  37  61  88 118 150 190 234 283 343
#     4  11  23  37  56  85 120 157 194 240 292 344
#     4  11  22  37  58  83 116 157 201 246 288 342
#     4  11  24  40  59  83 114 151 191 237 290 344
#     4   9  19  37  60  85 115 152 195 241 288 339
#     4  10  19  33  57  87 117 153 192 234 284 341
#
# _framework density 19.781285
#
# number of rings (size 3 to 8) (size 9 to 14) (size 15 to 20)
#    0.000    1.667    1.667    3.250    0.000    7.000 
#    0.000    2.083    0.000    2.000    0.000    0.000 
#    0.000    0.000    0.000    0.000    0.000    0.000 
#
# Total GULP energy -595348.881688 kJ/mol
# GULP energy per Si atom -12403.101702 kJ/mol
# Density = 1.973626 g / cm^3
# Si number density = 19.781285 Si / 1000 Ang^3
#
#
#
# Elastic Constant Matrix: (Units=GPa)
#
#
# Indices 1 2 3 4 5 6 
#
# 1 149.7648 34.2707 73.0729 0.0000 0.0000 0.0000
# 2 34.2707 59.3623 42.9155 0.0000 0.0000 0.0000
# 3 73.0729 42.9155 142.6688 0.0000 0.0000 0.0000
# 4 0.0000 0.0000 0.0000 36.3987 0.0000 0.0000
# 5 0.0000 0.0000 0.0000 0.0000 21.5617 0.0000
# 6 0.0000 0.0000 0.0000 0.0000 0.0000 23.2221
#
#
#
# Elastic Compliance Matrix: (Units=1/GPa)
#
#
# Indices 1 2 3 4 5 6 
#
# 1 0.009167 -0.002425 -0.003966 0.000000 0.000000 0.000000
# 2 -0.002425 0.022169 -0.005426 0.000000 0.000000 0.000000
# 3 -0.003966 -0.005426 0.010673 0.000000 0.000000 0.000000
# 4 0.000000 0.000000 0.000000 0.027474 0.000000 0.000000
# 5 0.000000 0.000000 0.000000 0.000000 0.046378 0.000000
# 6 0.000000 0.000000 0.000000 0.000000 0.000000 0.043062
#
#
# Mechanical properties :
#
#
# Convention : Reuss Voigt Hill
#
# Bulk Modulus (GPa) = 54.42494 72.47936 63.45215
# Shear Modulus (GPa) = 26.49961 29.67229 28.08595
#
# Velocity S-wave (km/s) = 3.66407 3.87721 3.77214
# Velocity P-wave (km/s) = 6.74341 7.53416 7.14973
#
# Compressibility (1/GPa) = 0.01837393
#
# Stress axis : x y z
#
# Youngs Moduli (GPa) = 109.08646 45.10855 93.69744
#
# Poissons Ratio (x) = 0.10940 0.37157
# Poissons Ratio (y) = 0.26457 0.50843
# Poissons Ratio (z) = 0.43260 0.24477
#
# Static dielectric constant tensor:
#      x y z
#    x 3.747020 0.000000 0.000000 
#    y 0.000000 3.393790 0.000000 
#    z 0.000000 0.000000 3.678930 
# 
# 
# High freq. dielectric constant tensor:
#      x y z
#    x 1.776740 0.000000 0.000000 
#    y 0.000000 1.749260 0.000000 
#    z 0.000000 0.000000 1.777260 
# 
# From -- ./inp_files/61964.got.cif
#   From: 2010.03.12/outbox.cif.g09.slc.cpg/sg74_31_cif.got.tgz:61964.got - 2010.04.16 15:46:19.
