data_PCOD8299272
_publ_section_title
;
Structure prediction by ZEFSAII (Michael W. Deem and Ramdas Pophale) SiO2 
 PCOD8299272
Probable space group: I M M A
;
_chemical_formula_sum "Si O2"
_cell_formula_units_Z 48
_cell_length_a 15.852250
_cell_length_b 16.351415
_cell_length_c 8.751351
_cell_angle_alpha 90.000000
_cell_angle_beta 90.000000
_cell_angle_gamma 90.000000
_cell_volume 2268.408975
_symmetry_space_group_name_H-M "I M M A"
_symmetry_group_IT_number 74
_symmetry_cell_setting 'orthorhombic'
loop_
_space_group_symop_operation_xyz
x,y,z
-x,1/2-y,z
x,-y,-z
-x,1/2+y,-z
-x,-y,-z
x,1/2+y,-z
-x,y,z
x,1/2-y,z
1/2+x,1/2+y,1/2+z
1/2-x,-y,1/2+z
1/2+x,1/2-y,1/2-z
1/2-x,y,1/2-z
1/2-x,1/2-y,1/2-z
1/2+x,y,1/2-z
1/2-x,1/2+y,1/2+z
1/2+x,-y,1/2+z
loop_
_atom_site_type_symbol
_atom_site_label
_atom_site_fract_x
_atom_site_fract_y
_atom_site_fract_z
Si Si1 0.000000 0.408403 0.071985
Si Si2 0.837800 0.411568 0.927002
Si Si3 0.152509 0.588942 0.427971
Si Si4 0.500000 0.342003 0.104397
O O1 0.000000 0.406348 0.255706
O O2 0.000000 0.500000 0.000000
O O3 0.085722 0.363562 0.012423
O O4 0.863705 0.419547 0.751365
O O5 0.745771 0.370457 0.952525
O O6 0.829050 0.500000 0.000000
O O7 0.144422 0.500000 0.500000
O O8 0.082916 0.647219 0.501418
O O9 0.500000 0.250000 0.169523
#
# Coordination Sequence:
#
# PCOD8299272 Si02
#       4
#     8  16  16   8
#     4  10  19  36  59  83 114 151 193 238 282 342
#     4   9  18  33  60  93 115 141 194 247 285 334
#     4  10  19  36  62  87 115 153 193 239 288 344
#     4  12  26  40  55  85 122 157 195 242 295 346
#
# _framework density 21.160205999999999
#
# number of rings (size 3 to 8) (size 9 to 14) (size 15 to 20)
#    0.000    2.000    0.000    5.500    0.000    4.000 
#    0.000   10.000    0.000    0.000    0.000    0.000 
#    0.000    0.000    0.000    0.000    0.000    0.000 
#
# Total GULP energy -297361.906431 kJ/mol
# GULP energy per Si atom -12390.079435 kJ/mol
# Density = 2.111204 g / cm^3
# Si number density = 21.160206 Si / 1000 Ang^3
#
#
#
# Elastic Constant Matrix: (Units=GPa)
#
#
# Indices 1 2 3 4 5 6 
#
# 1 203.2691 20.4601 84.1189 0.0000 0.0000 0.0000
# 2 20.4601 48.0431 19.8013 0.0000 0.0000 0.0000
# 3 84.1189 19.8013 160.3648 0.0000 0.0000 0.0000
# 4 0.0000 0.0000 0.0000 12.0032 0.0000 0.0000
# 5 0.0000 0.0000 0.0000 0.0000 43.1129 0.0000
# 6 0.0000 0.0000 0.0000 0.0000 0.0000 7.6254
#
#
#
# Elastic Compliance Matrix: (Units=1/GPa)
#
#
# Indices 1 2 3 4 5 6 
#
# 1 0.006373 -0.001408 -0.003169 0.000000 0.000000 0.000000
# 2 -0.001408 0.022242 -0.002008 0.000000 0.000000 0.000000
# 3 -0.003169 -0.002008 0.008146 0.000000 0.000000 0.000000
# 4 0.000000 0.000000 0.000000 0.083311 0.000000 0.000000
# 5 0.000000 0.000000 0.000000 0.000000 0.023195 0.000000
# 6 0.000000 0.000000 0.000000 0.000000 0.000000 0.131141
#
#
# Mechanical properties :
#
#
# Convention : Reuss Voigt Hill
#
# Bulk Modulus (GPa) = 42.38882 73.38194 57.88538
# Shear Modulus (GPa) = 16.92390 31.70141 24.31266
#
# Velocity S-wave (km/s) = 2.83114 3.87481 3.39334
# Velocity P-wave (km/s) = 5.54644 7.40090 6.53974
#
# Compressibility (1/GPa) = 0.02359113
#
# Stress axis : x y z
#
# Youngs Moduli (GPa) = 156.91942 44.96052 122.76015
#
# Poissons Ratio (x) = 0.06330 0.38902
# Poissons Ratio (y) = 0.22092 0.24649
# Poissons Ratio (z) = 0.49727 0.09027
#
# Static dielectric constant tensor:
#      x y z
#    x 5.530110 0.000000 0.000000 
#    y 0.000000 3.111580 0.000000 
#    z 0.000000 0.000000 3.896540 
# 
# 
# High freq. dielectric constant tensor:
#      x y z
#    x 1.871540 0.000000 0.000000 
#    y 0.000000 1.752650 0.000000 
#    z 0.000000 0.000000 1.843220 
# 
# From -- ./inp_files/8236.got.cif
#   From: 2010.03.12/outbox.cif.g09.slc.cpg/sg74_5_cif.got.tgz:8236.got - 2010.04.16 15:46:19.
