data_PCOD8299541
_publ_section_title
;
Structure prediction by ZEFSAII (Michael W. Deem and Ramdas Pophale) SiO2 
 PCOD8299541
Probable space group: I M M A
;
_chemical_formula_sum "Si O2"
_cell_formula_units_Z 68
_cell_length_a 13.355630
_cell_length_b 12.110463
_cell_length_c 21.689160
_cell_angle_alpha 90.000000
_cell_angle_beta 90.000000
_cell_angle_gamma 90.000000
_cell_volume 3508.066834
_symmetry_space_group_name_H-M "I M M A"
_symmetry_group_IT_number 74
_symmetry_cell_setting 'orthorhombic'
loop_
_space_group_symop_operation_xyz
x,y,z
-x,1/2-y,z
x,-y,-z
-x,1/2+y,-z
-x,-y,-z
x,1/2+y,-z
-x,y,z
x,1/2-y,z
1/2+x,1/2+y,1/2+z
1/2-x,-y,1/2+z
1/2+x,1/2-y,1/2-z
1/2-x,y,1/2-z
1/2-x,1/2-y,1/2-z
1/2+x,y,1/2-z
1/2-x,1/2+y,1/2+z
1/2+x,-y,1/2+z
loop_
_atom_site_type_symbol
_atom_site_label
_atom_site_fract_x
_atom_site_fract_y
_atom_site_fract_z
Si Si1 0.207781 0.511254 0.633754
Si Si2 0.388497 0.374871 0.768421
Si Si3 0.500000 0.475079 0.071418
Si Si4 0.000000 0.250000 0.364766
Si Si5 0.610570 0.875903 0.377086
Si Si6 0.791215 0.250000 0.319108
O O1 0.192343 0.456693 0.701219
O O2 0.105275 0.480105 0.598180
O O3 0.300956 0.454714 0.597202
O O4 0.238214 0.639979 0.642432
O O5 0.500000 0.401172 0.793987
O O6 0.357352 0.250000 0.785931
O O7 0.389525 0.390595 0.695876
O O8 0.500000 0.346967 0.086369
O O9 0.500000 0.500000 0.000000
O O10 0.089106 0.250000 0.315495
O O11 0.500000 0.910598 0.402290
O O12 0.632980 0.750000 0.396355
O O13 0.750000 0.250000 0.250000
#
# Coordination Sequence:
#
# PCOD8299541 Si02
#       6
#    16  16   8   4  16   8
#     4  11  19  34  51  72 107 140 183 230 259 321
#     4   9  16  27  45  74 108 138 165 207 262 320
#     4  10  22  40  56  76 102 144 186 238 288 306
#     4   8  20  40  56  72 124 144 172 248 276 322
#     4   9  18  31  49  76 114 145 163 202 270 326
#     4  10  20  32  50  78 104 152 184 208 276 336
#
# _framework density 19.383894000000002
#
# number of rings (size 3 to 8) (size 9 to 14) (size 15 to 20)
#    0.000    2.353    1.176    4.235    0.000    1.882 
#    6.353    0.000    0.000    0.706    0.000    0.000 
#    0.000    0.000    0.000    0.000    0.000    0.000 
#
# Total GULP energy -421208.061307 kJ/mol
# GULP energy per Si atom -12388.472391 kJ/mol
# Density = 1.933978 g / cm^3
# Si number density = 19.383894 Si / 1000 Ang^3
#
#
#
# Elastic Constant Matrix: (Units=GPa)
#
#
# Indices 1 2 3 4 5 6 
#
# 1 170.3020 69.6524 25.1951 0.0000 0.0000 0.0000
# 2 69.6524 101.0526 11.4679 0.0000 0.0000 0.0000
# 3 25.1951 11.4679 48.9643 0.0000 0.0000 0.0000
# 4 0.0000 0.0000 0.0000 9.5198 0.0000 0.0000
# 5 0.0000 0.0000 0.0000 0.0000 13.5675 0.0000
# 6 0.0000 0.0000 0.0000 0.0000 0.0000 48.6867
#
#
#
# Elastic Compliance Matrix: (Units=1/GPa)
#
#
# Indices 1 2 3 4 5 6 
#
# 1 0.008619 -0.005586 -0.003127 0.000000 0.000000 0.000000
# 2 -0.005586 0.013786 -0.000355 0.000000 0.000000 0.000000
# 3 -0.003127 -0.000355 0.022115 0.000000 0.000000 0.000000
# 4 0.000000 0.000000 0.000000 0.105044 0.000000 0.000000
# 5 0.000000 0.000000 0.000000 0.000000 0.073706 0.000000
# 6 0.000000 0.000000 0.000000 0.000000 0.000000 0.020540
#
#
# Mechanical properties :
#
#
# Convention : Reuss Voigt Hill
#
# Bulk Modulus (GPa) = 37.89919 59.21663 48.55791
# Shear Modulus (GPa) = 18.46790 28.62169 23.54480
#
# Velocity S-wave (km/s) = 3.09000 3.84679 3.48897
# Velocity P-wave (km/s) = 5.68552 7.09550 6.42928
#
# Compressibility (1/GPa) = 0.02638579
#
# Stress axis : x y z
#
# Youngs Moduli (GPa) = 116.02034 72.53534 45.21818
#
# Poissons Ratio (x) = 0.40519 0.14139
# Poissons Ratio (y) = 0.64810 0.01603
# Poissons Ratio (z) = 0.36277 0.02572
#
# Static dielectric constant tensor:
#      x y z
#    x 4.388090 0.000000 0.000000 
#    y 0.000000 3.807020 0.000000 
#    z 0.000000 0.000000 2.824510 
# 
# 
# High freq. dielectric constant tensor:
#      x y z
#    x 1.779830 0.000000 0.000000 
#    y 0.000000 1.751970 0.000000 
#    z 0.000000 0.000000 1.687000 
# 
# From -- ./inp_files/51546.got.cif
#   From: 2010.03.12/outbox.cif.g09.slc.cpg/sg74_26_cif.got.tgz:51546.got - 2010.04.16 15:46:19.
