data_PCOD8299017
_publ_section_title
;
Structure prediction by ZEFSAII (Michael W. Deem and Ramdas Pophale) SiO2 
 PCOD8299017
Probable space group: I M M A
;
_chemical_formula_sum "Si O2"
_cell_formula_units_Z 80
_cell_length_a 10.426585
_cell_length_b 20.698219
_cell_length_c 19.311958
_cell_angle_alpha 90.000000
_cell_angle_beta 90.000000
_cell_angle_gamma 90.000000
_cell_volume 4167.747254
_symmetry_space_group_name_H-M "I M M A"
_symmetry_group_IT_number 74
_symmetry_cell_setting 'orthorhombic'
loop_
_space_group_symop_operation_xyz
x,y,z
-x,1/2-y,z
x,-y,-z
-x,1/2+y,-z
-x,-y,-z
x,1/2+y,-z
-x,y,z
x,1/2-y,z
1/2+x,1/2+y,1/2+z
1/2-x,-y,1/2+z
1/2+x,1/2-y,1/2-z
1/2-x,y,1/2-z
1/2-x,1/2-y,1/2-z
1/2+x,y,1/2-z
1/2-x,1/2+y,1/2+z
1/2+x,-y,1/2+z
loop_
_atom_site_type_symbol
_atom_site_label
_atom_site_fract_x
_atom_site_fract_y
_atom_site_fract_z
Si Si1 0.758405 0.326670 0.828050
Si Si2 0.000000 0.892861 0.106201
Si Si3 0.748162 0.324955 0.379677
Si Si4 0.500000 0.172857 0.893874
Si Si5 0.500000 0.877212 0.556995
Si Si6 0.250000 0.917854 0.750000
Si Si7 0.000000 0.326239 0.455756
Si Si8 0.000000 0.973511 0.814115
O O1 0.769367 0.250000 0.830960
O O2 0.750000 0.352004 0.750000
O O3 0.874795 0.353066 0.873210
O O4 0.626721 0.354108 0.858312
O O5 0.000000 0.955594 0.154187
O O6 0.000000 0.904427 0.022344
O O7 0.756628 0.250000 0.357404
O O8 0.625824 0.333804 0.429752
O O9 0.752680 0.369551 0.313574
O O10 0.872773 0.350017 0.418974
O O11 0.500000 0.250000 0.892281
O O12 0.500000 0.141987 0.969353
O O13 0.500000 0.931706 0.615809
O O14 0.375934 0.961983 0.735804
O O15 0.000000 0.250000 0.462757
#
# Coordination Sequence:
#
# PCOD8299017 Si02
#       8
#    16   8  16   8   8   8   8   8
#     4  10  21  36  55  83 113 143 183 236 290 342
#     4  12  23  37  61  81 113 157 202 235 288 341
#     4  10  19  33  58  88 118 148 186 232 299 366
#     4   9  17  32  51  74 112 145 168 212 278 342
#     4  10  22  38  55  85 119 152 190 244 285 344
#     4  10  21  40  58  82 115 152 192 250 292 334
#     4   9  17  28  47  78 110 143 176 210 264 347
#     4  10  24  41  60  80 113 154 205 244 283 331
#
# _framework density 19.195022999999999
#
# number of rings (size 3 to 8) (size 9 to 14) (size 15 to 20)
#    0.000    2.000    0.000    3.600    1.400    4.800 
#    0.000    3.000    0.000    0.000    0.000    9.800 
#    0.000    0.000    0.000    0.000    0.000    0.000 
#
# Total GULP energy -495642.602663 kJ/mol
# GULP energy per Si atom -12391.065067 kJ/mol
# Density = 1.915133 g / cm^3
# Si number density = 19.195023 Si / 1000 Ang^3
#
#
#
# Elastic Constant Matrix: (Units=GPa)
#
#
# Indices 1 2 3 4 5 6 
#
# 1 195.0481 32.4840 71.7408 0.0000 0.0000 0.0000
# 2 32.4840 52.6590 27.3399 0.0000 0.0000 0.0000
# 3 71.7408 27.3399 114.7894 0.0000 0.0000 0.0000
# 4 0.0000 0.0000 0.0000 -34.2825 0.0000 0.0000
# 5 0.0000 0.0000 0.0000 0.0000 138.8362 0.0000
# 6 0.0000 0.0000 0.0000 0.0000 0.0000 35.5548
#
#
#
# Elastic Compliance Matrix: (Units=1/GPa)
#
#
# Indices 1 2 3 4 5 6 
#
# 1 0.006893 -0.002300 -0.003760 0.000000 0.000000 0.000000
# 2 -0.002300 0.022437 -0.003907 0.000000 0.000000 0.000000
# 3 -0.003760 -0.003907 0.011992 0.000000 0.000000 0.000000
# 4 0.000000 0.000000 0.000000 -0.029169 0.000000 0.000000
# 5 0.000000 0.000000 0.000000 0.000000 0.007203 0.000000
# 6 0.000000 0.000000 0.000000 0.000000 0.000000 0.028126
#
#
# Mechanical properties :
#
#
# Convention : Reuss Voigt Hill
#
# Bulk Modulus (GPa) = 46.75325 69.51398 58.13362
# Shear Modulus (GPa) = 67.07449 43.41717 55.24583
#
# Velocity S-wave (km/s) = 5.91773 4.76110 5.37064
# Velocity P-wave (km/s) = 8.43223 8.15581 8.29518
#
# Compressibility (1/GPa) = 0.02138889
#
# Stress axis : x y z
#
# Youngs Moduli (GPa) = 145.07436 44.56912 83.38827
#
# Poissons Ratio (x) = 0.10250 0.31356
# Poissons Ratio (y) = 0.33365 0.32576
# Poissons Ratio (z) = 0.54551 0.17411
#
# Static dielectric constant tensor:
#      x y z
#    x 3.795760 0.000000 0.000000 
#    y 0.000000 3.187080 0.000000 
#    z 0.000000 0.000000 3.480250 
# 
# 
# High freq. dielectric constant tensor:
#      x y z
#    x 1.768750 0.000000 0.000000 
#    y 0.000000 1.715400 0.000000 
#    z 0.000000 0.000000 1.761060 
# 
# From -- ./inp_files/48688.got.cif
#   From: 2010.03.12/outbox.cif.g09.slc.cpg/sg74_25_cif.got.tgz:48688.got - 2010.04.16 15:46:19.
