data_PCOD8299686
_publ_section_title
;
Structure prediction by ZEFSAII (Michael W. Deem and Ramdas Pophale) SiO2 
 PCOD8299686
Probable space group: I M M A
;
_chemical_formula_sum "Si O2"
_cell_formula_units_Z 72
_cell_length_a 8.943793
_cell_length_b 15.940942
_cell_length_c 27.258315
_cell_angle_alpha 90.000000
_cell_angle_beta 90.000000
_cell_angle_gamma 90.000000
_cell_volume 3886.285719
_symmetry_space_group_name_H-M "I M M A"
_symmetry_group_IT_number 74
_symmetry_cell_setting 'orthorhombic'
loop_
_space_group_symop_operation_xyz
x,y,z
-x,1/2-y,z
x,-y,-z
-x,1/2+y,-z
-x,-y,-z
x,1/2+y,-z
-x,y,z
x,1/2-y,z
1/2+x,1/2+y,1/2+z
1/2-x,-y,1/2+z
1/2+x,1/2-y,1/2-z
1/2-x,y,1/2-z
1/2-x,1/2-y,1/2-z
1/2+x,y,1/2-z
1/2-x,1/2+y,1/2+z
1/2+x,-y,1/2+z
loop_
_atom_site_type_symbol
_atom_site_label
_atom_site_fract_x
_atom_site_fract_y
_atom_site_fract_z
Si Si1 0.672459 0.656927 0.383361
Si Si2 0.328055 0.598623 0.861146
Si Si3 0.176143 0.997624 0.944101
Si Si4 0.331138 0.429501 0.800734
Si Si5 0.178948 0.250000 0.195715
O O1 0.500000 0.645175 0.370236
O O2 0.705933 0.750000 0.404187
O O3 0.721870 0.588908 0.423530
O O4 0.761360 0.644520 0.333014
O O5 0.500000 0.628020 0.866941
O O6 0.260697 0.576469 0.914728
O O7 0.314572 0.517306 0.827887
O O8 0.230867 0.669609 0.834972
O O9 0.000000 0.980004 0.940006
O O10 0.230914 0.000000 0.000000
O O11 0.500000 0.404867 0.790278
O O12 0.250000 0.438291 0.750000
O O13 0.250000 0.250000 0.250000
O O14 0.000000 0.250000 0.201060
#
# Coordination Sequence:
#
# PCOD8299686 Si02
#       5
#    16  16  16  16   8
#     4   9  18  33  52  74 103 138 175 218 262 311
#     4  10  21  37  56  80 111 145 186 230 275 330
#     4   9  18  35  57  81 109 143 184 229 278 329
#     4  10  20  33  52  76 103 139 176 216 262 316
#     4  12  24  38  58  84 116 152 188 232 285 340
#
# _framework density 18.526688
#
# number of rings (size 3 to 8) (size 9 to 14) (size 15 to 20)
#    0.000    2.222    0.000    3.000    0.000    5.778 
#    2.000    0.000    0.000    0.000    0.000    0.000 
#    0.000    0.000    0.000    0.000    0.000    0.000 
#
# Total GULP energy -446404.872317 kJ/mol
# GULP energy per Si atom -12400.135342 kJ/mol
# Density = 1.848452 g / cm^3
# Si number density = 18.526688 Si / 1000 Ang^3
#
#
#
# Elastic Constant Matrix: (Units=GPa)
#
#
# Indices 1 2 3 4 5 6 
#
# 1 105.6238 41.9691 59.1382 0.0000 0.0000 0.0000
# 2 41.9691 68.5356 25.0822 0.0000 0.0000 0.0000
# 3 59.1382 25.0822 135.3213 0.0000 0.0000 0.0000
# 4 0.0000 0.0000 0.0000 19.5741 0.0000 0.0000
# 5 0.0000 0.0000 0.0000 0.0000 28.3908 0.0000
# 6 0.0000 0.0000 0.0000 0.0000 0.0000 25.2568
#
#
#
# Elastic Compliance Matrix: (Units=1/GPa)
#
#
# Indices 1 2 3 4 5 6 
#
# 1 0.015449 -0.007498 -0.005362 0.000000 0.000000 0.000000
# 2 -0.007498 0.019292 -0.000299 0.000000 0.000000 0.000000
# 3 -0.005362 -0.000299 0.009788 0.000000 0.000000 0.000000
# 4 0.000000 0.000000 0.000000 0.051088 0.000000 0.000000
# 5 0.000000 0.000000 0.000000 0.000000 0.035223 0.000000
# 6 0.000000 0.000000 0.000000 0.000000 0.000000 0.039593
#
#
# Mechanical properties :
#
#
# Convention : Reuss Voigt Hill
#
# Bulk Modulus (GPa) = 54.90990 62.42884 58.66937
# Shear Modulus (GPa) = 24.65220 26.86374 25.75797
#
# Velocity S-wave (km/s) = 3.65174 3.81202 3.73274
# Velocity P-wave (km/s) = 6.89078 7.29008 7.09324
#
# Compressibility (1/GPa) = 0.01821165
#
# Stress axis : x y z
#
# Youngs Moduli (GPa) = 64.72939 51.83484 102.16170
#
# Poissons Ratio (x) = 0.38867 0.54776
# Poissons Ratio (y) = 0.48536 0.03054
# Poissons Ratio (z) = 0.34706 0.01550
#
# Static dielectric constant tensor:
#      x y z
#    x 3.567350 0.000000 0.000000 
#    y 0.000000 3.491760 0.000000 
#    z 0.000000 0.000000 3.219250 
# 
# 
# High freq. dielectric constant tensor:
#      x y z
#    x 1.724630 0.000000 0.000000 
#    y 0.000000 1.717490 0.000000 
#    z 0.000000 0.000000 1.717260 
# 
# From -- ./inp_files/63594.got.cif
#   From: 2010.03.12/outbox.cif.g09.slc.cpg/sg74_32_cif.got.tgz:63594.got - 2010.04.16 15:46:19.
