data_PCOD8299446
_publ_section_title
;
Structure prediction by ZEFSAII (Michael W. Deem and Ramdas Pophale) SiO2 
 PCOD8299446
Probable space group: I M M A
;
_chemical_formula_sum "Si O2"
_cell_formula_units_Z 96
_cell_length_a 30.183229
_cell_length_b 8.984547
_cell_length_c 20.873327
_cell_angle_alpha 90.000000
_cell_angle_beta 90.000000
_cell_angle_gamma 90.000000
_cell_volume 5660.483912
_symmetry_space_group_name_H-M "I M M A"
_symmetry_group_IT_number 74
_symmetry_cell_setting 'orthorhombic'
loop_
_space_group_symop_operation_xyz
x,y,z
-x,1/2-y,z
x,-y,-z
-x,1/2+y,-z
-x,-y,-z
x,1/2+y,-z
-x,y,z
x,1/2-y,z
1/2+x,1/2+y,1/2+z
1/2-x,-y,1/2+z
1/2+x,1/2-y,1/2-z
1/2-x,y,1/2-z
1/2-x,1/2-y,1/2-z
1/2+x,y,1/2-z
1/2-x,1/2+y,1/2+z
1/2+x,-y,1/2+z
loop_
_atom_site_type_symbol
_atom_site_label
_atom_site_fract_x
_atom_site_fract_y
_atom_site_fract_z
Si Si1 0.750146 0.423892 0.937248
Si Si2 0.212858 0.073973 0.699083
Si Si3 0.366605 0.075510 0.262492
Si Si4 0.549482 0.421799 0.694203
Si Si5 0.835707 0.916369 0.903863
Si Si6 0.566077 0.919633 0.562441
O O1 0.745914 0.250000 0.946362
O O2 0.726732 0.476867 0.872046
O O3 0.801816 0.466762 0.933930
O O4 0.728179 0.500000 0.000000
O O5 0.206639 0.250000 0.704715
O O6 0.250000 0.019343 0.750000
O O7 0.165843 0.995140 0.710079
O O8 0.372169 0.250000 0.250350
O O9 0.345124 0.039016 0.330789
O O10 0.415395 0.001739 0.258695
O O11 0.500000 0.437357 0.723710
O O12 0.563193 0.250000 0.686689
O O13 0.548946 0.496301 0.624699
O O14 0.815320 0.750000 0.907603
O O15 0.880954 0.924464 0.943023
O O16 0.549087 0.750000 0.565552
O O17 0.545981 0.000000 0.500000
#
# Coordination Sequence:
#
# PCOD8299446 Si02
#       6
#    16  16  16  16  16  16
#     4  11  22  33  48  70 100 136 171 211 254 296
#     4  10  20  35  53  75 102 136 175 212 253 302
#     4  10  20  33  53  77  99 128 165 211 257 301
#     4  10  21  36  53  71  93 124 161 206 258 308
#     4   9  18  31  46  67  94 126 166 208 252 296
#     4  10  20  32  46  66  91 125 166 210 258 306
#
# _framework density 16.959679999999999
#
# number of rings (size 3 to 8) (size 9 to 14) (size 15 to 20)
#    0.000    2.000    1.667    3.500    0.000    8.000 
#    0.000    0.000    0.000    0.000    0.000    0.000 
#    0.000    0.667    0.000    2.167    0.000    2.667 
#
# Total GULP energy -595211.786530 kJ/mol
# GULP energy per Si atom -12400.245553 kJ/mol
# Density = 1.692108 g / cm^3
# Si number density = 16.959680 Si / 1000 Ang^3
#
#
#
# Elastic Constant Matrix: (Units=GPa)
#
#
# Indices 1 2 3 4 5 6 
#
# 1 99.7061 44.5045 43.4169 0.0000 0.0000 0.0000
# 2 44.5045 87.2241 39.8258 0.0000 0.0000 0.0000
# 3 43.4169 39.8258 88.5294 0.0000 0.0000 0.0000
# 4 0.0000 0.0000 0.0000 25.9730 0.0000 0.0000
# 5 0.0000 0.0000 0.0000 0.0000 5.2874 0.0000
# 6 0.0000 0.0000 0.0000 0.0000 0.0000 18.7036
#
#
#
# Elastic Compliance Matrix: (Units=1/GPa)
#
#
# Indices 1 2 3 4 5 6 
#
# 1 0.014406 -0.005191 -0.004730 0.000000 0.000000 0.000000
# 2 -0.005191 0.016299 -0.004786 0.000000 0.000000 0.000000
# 3 -0.004730 -0.004786 0.015769 0.000000 0.000000 0.000000
# 4 0.000000 0.000000 0.000000 0.038502 0.000000 0.000000
# 5 0.000000 0.000000 0.000000 0.000000 0.189128 0.000000
# 6 0.000000 0.000000 0.000000 0.000000 0.000000 0.053466
#
#
# Mechanical properties :
#
#
# Convention : Reuss Voigt Hill
#
# Bulk Modulus (GPa) = 58.62011 58.99490 58.80751
# Shear Modulus (GPa) = 13.78666 19.84030 16.81348
#
# Velocity S-wave (km/s) = 2.85425 3.42402 3.15203
# Velocity P-wave (km/s) = 6.74550 7.10583 6.92801
#
# Compressibility (1/GPa) = 0.01705899
#
# Stress axis : x y z
#
# Youngs Moduli (GPa) = 69.41521 61.35475 63.41727
#
# Poissons Ratio (x) = 0.31848 0.29996
# Poissons Ratio (y) = 0.36032 0.30354
# Poissons Ratio (z) = 0.32833 0.29367
#
# Static dielectric constant tensor:
#      x y z
#    x 3.128030 0.000000 0.000000 
#    y 0.000000 3.262700 0.000000 
#    z 0.000000 0.000000 3.053580 
# 
# 
# High freq. dielectric constant tensor:
#      x y z
#    x 1.640220 0.000000 0.000000 
#    y 0.000000 1.667780 0.000000 
#    z 0.000000 0.000000 1.620190 
# 
# From -- ./inp_files/49084.got.cif
#   From: 2010.03.12/outbox.cif.g09.slc.cpg/sg74_25_cif.got.tgz:49084.got - 2010.04.16 15:46:19.
