data_PCOD8299632
_publ_section_title
;
Structure prediction by ZEFSAII (Michael W. Deem and Ramdas Pophale) SiO2 
 PCOD8299632
Probable space group: I M M A
;
_chemical_formula_sum "Si O2"
_cell_formula_units_Z 80
_cell_length_a 9.069132
_cell_length_b 18.292248
_cell_length_c 26.785213
_cell_angle_alpha 90.000000
_cell_angle_beta 90.000000
_cell_angle_gamma 90.000000
_cell_volume 4443.527867
_symmetry_space_group_name_H-M "I M M A"
_symmetry_group_IT_number 74
_symmetry_cell_setting 'orthorhombic'
loop_
_space_group_symop_operation_xyz
x,y,z
-x,1/2-y,z
x,-y,-z
-x,1/2+y,-z
-x,-y,-z
x,1/2+y,-z
-x,y,z
x,1/2-y,z
1/2+x,1/2+y,1/2+z
1/2-x,-y,1/2+z
1/2+x,1/2-y,1/2-z
1/2-x,y,1/2-z
1/2-x,1/2-y,1/2-z
1/2+x,y,1/2-z
1/2-x,1/2+y,1/2+z
1/2+x,-y,1/2+z
loop_
_atom_site_type_symbol
_atom_site_label
_atom_site_fract_x
_atom_site_fract_y
_atom_site_fract_z
Si Si1 0.173162 0.334029 0.596451
Si Si2 0.330754 0.165740 0.301277
Si Si3 0.828604 0.045857 0.357968
Si Si4 0.171191 0.966031 0.054048
Si Si5 0.669054 0.401929 0.800647
O O1 0.208248 0.250000 0.584276
O O2 0.262655 0.383861 0.557108
O O3 0.225314 0.352710 0.652926
O O4 0.000000 0.352145 0.591269
O O5 0.500000 0.142108 0.295312
O O6 0.315390 0.250000 0.316287
O O7 0.250000 0.148060 0.250000
O O8 0.254231 0.120432 0.344935
O O9 0.000000 0.062037 0.366528
O O10 0.760388 0.017643 0.409006
O O11 0.804299 0.986923 0.313893
O O12 0.000000 0.963653 0.069067
O O13 0.194730 0.000000 0.000000
O O14 0.500000 0.384973 0.790536
O O15 0.750000 0.379875 0.750000
#
# Coordination Sequence:
#
# PCOD8299632 Si02
#       5
#    16  16  16  16  16
#     4   9  19  36  55  76 105 138 172 211 252 298
#     4  10  20  33  50  74 106 142 177 215 261 312
#     4  10  20  34  53  75 101 135 175 218 260 307
#     4  10  21  37  57  80 104 131 167 214 266 317
#     4   9  18  30  46  72 103 135 169 204 243 289
#
# _framework density 18.003713000000001
#
# number of rings (size 3 to 8) (size 9 to 14) (size 15 to 20)
#    0.000    2.400    0.000    3.600    0.000    9.200 
#    0.000    1.000    0.000    1.200    0.000    0.000 
#    0.000    0.000    0.000    0.000    0.000    0.000 
#
# Total GULP energy -496058.338227 kJ/mol
# GULP energy per Si atom -12401.458456 kJ/mol
# Density = 1.796274 g / cm^3
# Si number density = 18.003713 Si / 1000 Ang^3
#
#
#
# Elastic Constant Matrix: (Units=GPa)
#
#
# Indices 1 2 3 4 5 6 
#
# 1 122.4505 65.5796 54.6624 0.0000 0.0000 0.0000
# 2 65.5796 107.6741 48.3458 0.0000 0.0000 0.0000
# 3 54.6624 48.3458 76.9207 0.0000 0.0000 0.0000
# 4 0.0000 0.0000 0.0000 18.4815 0.0000 0.0000
# 5 0.0000 0.0000 0.0000 0.0000 32.5295 0.0000
# 6 0.0000 0.0000 0.0000 0.0000 0.0000 30.5197
#
#
#
# Elastic Compliance Matrix: (Units=1/GPa)
#
#
# Indices 1 2 3 4 5 6 
#
# 1 0.014086 -0.005691 -0.006433 0.000000 0.000000 0.000000
# 2 -0.005691 0.015238 -0.005533 0.000000 0.000000 0.000000
# 3 -0.006433 -0.005533 0.021050 0.000000 0.000000 0.000000
# 4 0.000000 0.000000 0.000000 0.054108 0.000000 0.000000
# 5 0.000000 0.000000 0.000000 0.000000 0.030741 0.000000
# 6 0.000000 0.000000 0.000000 0.000000 0.000000 0.032766
#
#
# Mechanical properties :
#
#
# Convention : Reuss Voigt Hill
#
# Bulk Modulus (GPa) = 66.40437 71.58010 68.99224
# Shear Modulus (GPa) = 24.00121 25.53665 24.76893
#
# Velocity S-wave (km/s) = 3.65516 3.77026 3.71316
# Velocity P-wave (km/s) = 7.40117 7.66799 7.53576
#
# Compressibility (1/GPa) = 0.01505925
#
# Stress axis : x y z
#
# Youngs Moduli (GPa) = 70.99165 65.62732 47.50631
#
# Poissons Ratio (x) = 0.37346 0.30563
# Poissons Ratio (y) = 0.40399 0.26286
# Poissons Ratio (z) = 0.45672 0.36312
#
# Static dielectric constant tensor:
#      x y z
#    x 3.447880 0.000000 0.000000 
#    y 0.000000 3.394930 0.000000 
#    z 0.000000 0.000000 3.104900 
# 
# 
# High freq. dielectric constant tensor:
#      x y z
#    x 1.707000 0.000000 0.000000 
#    y 0.000000 1.697170 0.000000 
#    z 0.000000 0.000000 1.679610 
# 
# From -- ./inp_files/63894.got.cif
#   From: 2010.03.12/outbox.cif.g09.slc.cpg/sg74_32_cif.got.tgz:63894.got - 2010.04.16 15:46:19.
