data_PCOD8299321
_publ_section_title
;
Structure prediction by ZEFSAII (Michael W. Deem and Ramdas Pophale) SiO2 
 PCOD8299321
Probable space group: I M M A
;
_chemical_formula_sum "Si O2"
_cell_formula_units_Z 104
_cell_length_a 24.047624
_cell_length_b 9.046908
_cell_length_c 25.295129
_cell_angle_alpha 90.000000
_cell_angle_beta 90.000000
_cell_angle_gamma 90.000000
_cell_volume 5503.123323
_symmetry_space_group_name_H-M "I M M A"
_symmetry_group_IT_number 74
_symmetry_cell_setting 'orthorhombic'
loop_
_space_group_symop_operation_xyz
x,y,z
-x,1/2-y,z
x,-y,-z
-x,1/2+y,-z
-x,-y,-z
x,1/2+y,-z
-x,y,z
x,1/2-y,z
1/2+x,1/2+y,1/2+z
1/2-x,-y,1/2+z
1/2+x,1/2-y,1/2-z
1/2-x,y,1/2-z
1/2-x,1/2-y,1/2-z
1/2+x,y,1/2-z
1/2-x,1/2+y,1/2+z
1/2+x,-y,1/2+z
loop_
_atom_site_type_symbol
_atom_site_label
_atom_site_fract_x
_atom_site_fract_y
_atom_site_fract_z
Si Si1 0.380406 0.577814 0.443639
Si Si2 0.564665 0.075364 0.733343
Si Si3 0.500000 0.585500 0.447159
Si Si4 0.935530 0.423617 0.553883
Si Si5 0.150411 0.923246 0.844362
Si Si6 0.245591 0.912458 0.311273
Si Si7 0.122126 0.924703 0.339860
O O1 0.375180 0.500000 0.500000
O O2 0.364270 0.750000 0.448940
O O3 0.442288 0.555751 0.416889
O O4 0.342188 0.492711 0.402665
O O5 0.500000 0.034811 0.725577
O O6 0.574764 0.250000 0.727323
O O7 0.584320 0.018164 0.791085
O O8 0.600767 0.995649 0.688770
O O9 0.500000 0.750000 0.468419
O O10 0.500000 0.500000 0.500000
O O11 0.914010 0.500000 0.500000
O O12 0.926138 0.250000 0.547154
O O13 0.900939 0.486990 0.604188
O O14 0.000000 0.461761 0.563950
O O15 0.139715 0.750000 0.847288
O O16 0.210401 0.958814 0.821099
O O17 0.257736 0.750000 0.338044
O O18 0.250000 0.882517 0.250000
O O19 0.185742 0.973645 0.330411
O O20 0.117203 0.750000 0.341158
#
# Coordination Sequence:
#
# PCOD8299321 Si02
#       7
#    16  16   8  16  16  16  16
#     4  10  20  37  58  81 108 142 184 227 277 328
#     4  10  20  36  59  85 112 144 186 235 286 341
#     4   8  16  30  52  78 102 132 172 216 261 316
#     4   9  17  31  53  83 118 152 185 223 274 337
#     4  12  25  38  54  81 117 152 188 229 282 342
#     4  10  19  37  62  82 105 143 194 243 286 336
#     4   9  17  33  59  86 109 141 188 238 286 335
#
# _framework density 18.898357000000001
#
# number of rings (size 3 to 8) (size 9 to 14) (size 15 to 20)
#    0.000    2.154    1.538    2.308    1.077    3.077 
#    0.000    2.308    0.000    3.692    0.000    0.000 
#    0.000    0.000    0.000    0.000    0.000    0.000 
#
# Total GULP energy -644328.600905 kJ/mol
# GULP energy per Si atom -12390.934633 kJ/mol
# Density = 1.885534 g / cm^3
# Si number density = 18.898357 Si / 1000 Ang^3
#
#
#
# Elastic Constant Matrix: (Units=GPa)
#
#
# Indices 1 2 3 4 5 6 
#
# 1 109.3809 41.5636 57.2351 0.0000 0.0000 0.0000
# 2 41.5636 79.2540 48.5183 0.0000 0.0000 0.0000
# 3 57.2351 48.5183 131.9576 0.0000 0.0000 0.0000
# 4 0.0000 0.0000 0.0000 10.8360 0.0000 0.0000
# 5 0.0000 0.0000 0.0000 0.0000 29.1073 0.0000
# 6 0.0000 0.0000 0.0000 0.0000 0.0000 32.2752
#
#
#
# Elastic Compliance Matrix: (Units=1/GPa)
#
#
# Indices 1 2 3 4 5 6 
#
# 1 0.012870 -0.004300 -0.004001 0.000000 0.000000 0.000000
# 2 -0.004300 0.017719 -0.004650 0.000000 0.000000 0.000000
# 3 -0.004001 -0.004650 0.011023 0.000000 0.000000 0.000000
# 4 0.000000 0.000000 0.000000 0.092285 0.000000 0.000000
# 5 0.000000 0.000000 0.000000 0.000000 0.034356 0.000000
# 6 0.000000 0.000000 0.000000 0.000000 0.000000 0.030984
#
#
# Mechanical properties :
#
#
# Convention : Reuss Voigt Hill
#
# Bulk Modulus (GPa) = 63.65214 68.35847 66.00530
# Shear Modulus (GPa) = 21.70367 25.99542 23.84954
#
# Velocity S-wave (km/s) = 3.39254 3.71285 3.55630
# Velocity P-wave (km/s) = 7.00716 7.39125 7.20176
#
# Compressibility (1/GPa) = 0.01571039
#
# Stress axis : x y z
#
# Youngs Moduli (GPa) = 77.70009 56.43529 90.71629
#
# Poissons Ratio (x) = 0.24267 0.36297
# Poissons Ratio (y) = 0.33411 0.42183
# Poissons Ratio (z) = 0.31089 0.26242
#
# Static dielectric constant tensor:
#      x y z
#    x 3.564760 0.000000 0.000000 
#    y 0.000000 3.252750 0.000000 
#    z 0.000000 0.000000 3.542760 
# 
# 
# High freq. dielectric constant tensor:
#      x y z
#    x 1.730840 0.000000 0.000000 
#    y 0.000000 1.711590 0.000000 
#    z 0.000000 0.000000 1.736270 
# 
# From -- ./inp_files/68655.got.cif
#   From: 2010.03.12/outbox.cif.g09.slc.cpg/sg74_35_cif.got.tgz:68655.got - 2010.04.16 15:46:19.
