data_PCOD8299739
_publ_section_title
;
Structure prediction by ZEFSAII (Michael W. Deem and Ramdas Pophale) SiO2 
 PCOD8299739
Probable space group: I M M A
;
_chemical_formula_sum "Si O2"
_cell_formula_units_Z 104
_cell_length_a 14.585069
_cell_length_b 30.946129
_cell_length_c 11.077354
_cell_angle_alpha 90.000000
_cell_angle_beta 90.000000
_cell_angle_gamma 90.000000
_cell_volume 4999.779532
_symmetry_space_group_name_H-M "I M M A"
_symmetry_group_IT_number 74
_symmetry_cell_setting 'orthorhombic'
loop_
_space_group_symop_operation_xyz
x,y,z
-x,1/2-y,z
x,-y,-z
-x,1/2+y,-z
-x,-y,-z
x,1/2+y,-z
-x,y,z
x,1/2-y,z
1/2+x,1/2+y,1/2+z
1/2-x,-y,1/2+z
1/2+x,1/2-y,1/2-z
1/2-x,y,1/2-z
1/2-x,1/2-y,1/2-z
1/2+x,y,1/2-z
1/2-x,1/2+y,1/2+z
1/2+x,-y,1/2+z
loop_
_atom_site_type_symbol
_atom_site_label
_atom_site_fract_x
_atom_site_fract_y
_atom_site_fract_z
Si Si1 0.324989 0.883454 0.849332
Si Si2 0.895145 0.662046 0.053880
Si Si3 0.102388 0.298963 0.694038
Si Si4 0.602025 0.456908 0.282984
Si Si5 0.193860 0.074671 0.982082
Si Si6 0.282768 0.299565 0.041195
Si Si7 0.250000 0.979372 0.250000
O O1 0.250000 0.893321 0.750000
O O2 0.408436 0.911407 0.793173
O O3 0.289008 0.902545 0.976464
O O4 0.338019 0.831458 0.866093
O O5 0.872128 0.671887 0.192618
O O6 0.883120 0.611009 0.040504
O O7 0.825077 0.687822 0.965319
O O8 0.000000 0.675159 0.020841
O O9 0.108535 0.250000 0.740402
O O10 0.174920 0.307457 0.589848
O O11 0.000000 0.309286 0.645126
O O12 0.500000 0.475275 0.300043
O O13 0.650979 0.455204 0.413824
O O14 0.664087 0.490795 0.207194
O O15 0.216242 0.049236 0.861251
O O16 0.294700 0.250000 0.085006
#
# Coordination Sequence:
#
# PCOD8299739 Si02
#       7
#    16  16  16  16  16  16   8
#     4   9  20  40  60  84 120 163 203 255 308 365
#     4  10  20  33  54  85 123 164 206 252 309 373
#     4   9  18  32  50  78 116 157 202 250 305 370
#     4  11  23  43  69  91 122 169 212 256 319 380
#     4  10  22  39  63  90 127 163 200 256 314 379
#     4  10  20  33  57  86 119 165 209 256 313 369
#     4  12  24  40  68  96 128 160 204 270 322 384
#
# _framework density 20.800917999999999
#
# number of rings (size 3 to 8) (size 9 to 14) (size 15 to 20)
#    0.000    2.000    2.308    1.846    4.308    4.923 
#    0.000    1.538    0.000    0.000    0.000    2.154 
#    0.000    0.000    0.000    0.000    0.000    0.000 
#
# Total GULP energy -644412.175645 kJ/mol
# GULP energy per Si atom -12392.541839 kJ/mol
# Density = 2.075357 g / cm^3
# Si number density = 20.800918 Si / 1000 Ang^3
#
#
#
# Elastic Constant Matrix: (Units=GPa)
#
#
# Indices 1 2 3 4 5 6 
#
# 1 84.8151 24.7183 18.9309 -0.0006 0.0013 0.0011
# 2 24.7183 94.5980 29.7912 -0.0003 0.0005 0.0011
# 3 18.9309 29.7912 62.4908 0.0104 -0.0040 -0.0021
# 4 -0.0006 -0.0003 0.0104 38.7645 -0.0002 0.0001
# 5 0.0013 0.0005 -0.0040 -0.0002 16.2200 0.0008
# 6 0.0011 0.0011 -0.0021 0.0001 0.0008 24.5712
#
#
#
# Elastic Compliance Matrix: (Units=1/GPa)
#
#
# Indices 1 2 3 4 5 6 
#
# 1 0.013155 -0.002568 -0.002761 0.000001 -0.000002 -0.000001
# 2 -0.002568 0.012940 -0.005391 0.000001 -0.000002 -0.000001
# 3 -0.002761 -0.005391 0.019409 -0.000005 0.000005 0.000002
# 4 0.000001 0.000001 -0.000005 0.025797 0.000000 0.000000
# 5 -0.000002 -0.000002 0.000005 0.000000 0.061652 -0.000002
# 6 -0.000001 -0.000001 0.000002 0.000000 -0.000002 0.040698
#
#
# Mechanical properties :
#
#
# Convention : Reuss Voigt Hill
#
# Bulk Modulus (GPa) = 41.55575 43.19830 42.37702
# Shear Modulus (GPa) = 24.61704 27.14203 25.87954
#
# Velocity S-wave (km/s) = 3.44388 3.61619 3.53108
# Velocity P-wave (km/s) = 5.98623 6.18452 6.08618
#
# Compressibility (1/GPa) = 0.02406406
#
# Stress axis : x y z
#
# Youngs Moduli (GPa) = 76.01677 77.28132 51.52321
#
# Poissons Ratio (x) = 0.19845 0.14225
# Poissons Ratio (y) = 0.19520 0.27775
# Poissons Ratio (z) = 0.20988 0.41661
#
# Static dielectric constant tensor:
#      x y z
#    x 3.750020 0.000000 -0.000010 
#    y 0.000000 3.922940 -0.000010 
#    z -0.000010 -0.000010 3.665640 
# 
# 
# High freq. dielectric constant tensor:
#      x y z
#    x 1.799860 0.000000 0.000000 
#    y 0.000000 1.818460 0.000000 
#    z 0.000000 0.000000 1.798200 
# 
# From -- ./inp_files/21187.got.cif
#   From: 2010.03.12/outbox.cif.g09.slc.cpg/sg74_11_cif.got.tgz:21187.got - 2010.04.16 15:46:19.
