data_PCOD8299164
_publ_section_title
;
Structure prediction by ZEFSAII (Michael W. Deem and Ramdas Pophale) SiO2 
 PCOD8299164
Probable space group: I M M A
;
_chemical_formula_sum "Si O2"
_cell_formula_units_Z 104
_cell_length_a 27.462027
_cell_length_b 9.182572
_cell_length_c 20.718972
_cell_angle_alpha 90.000000
_cell_angle_beta 90.000000
_cell_angle_gamma 90.000000
_cell_volume 5224.745440
_symmetry_space_group_name_H-M "I M M A"
_symmetry_group_IT_number 74
_symmetry_cell_setting 'orthorhombic'
loop_
_space_group_symop_operation_xyz
x,y,z
-x,1/2-y,z
x,-y,-z
-x,1/2+y,-z
-x,-y,-z
x,1/2+y,-z
-x,y,z
x,1/2-y,z
1/2+x,1/2+y,1/2+z
1/2-x,-y,1/2+z
1/2+x,1/2-y,1/2-z
1/2-x,y,1/2-z
1/2-x,1/2-y,1/2-z
1/2+x,y,1/2-z
1/2-x,1/2+y,1/2+z
1/2+x,-y,1/2+z
loop_
_atom_site_type_symbol
_atom_site_label
_atom_site_fract_x
_atom_site_fract_y
_atom_site_fract_z
Si Si1 0.875927 0.920789 0.659780
Si Si2 0.876906 0.419437 0.793479
Si Si3 0.442480 0.083028 0.935958
Si Si4 0.303624 0.908576 0.403080
Si Si5 0.119443 0.500000 0.000000
Si Si6 0.710079 0.581377 0.936551
Si Si7 0.055373 0.912523 0.885480
O O1 0.888022 0.750000 0.663072
O O2 0.826002 0.951488 0.621999
O O3 0.869581 0.985315 0.730267
O O4 0.920292 0.003400 0.625760
O O5 0.885071 0.250000 0.776498
O O6 0.827855 0.444400 0.834394
O O7 0.923429 0.475045 0.833431
O O8 0.500000 0.074218 0.928325
O O9 0.424603 0.250000 0.940109
O O10 0.424597 0.000000 0.000000
O O11 0.278120 0.750000 0.400910
O O12 0.345765 0.897950 0.457057
O O13 0.264121 0.030623 0.418137
O O14 0.085143 0.408272 0.047624
O O15 0.713148 0.750000 0.953522
O O16 0.690494 0.500000 0.000000
O O17 0.057755 0.750000 0.856019
O O18 0.000000 0.959657 0.899871
#
# Coordination Sequence:
#
# PCOD8299164 Si02
#       7
#    16  16  16  16   8  16  16
#     4  11  24  41  61  87 118 157 198 242 296 353
#     4  10  23  41  60  84 115 155 199 247 298 354
#     4  10  21  38  62  91 120 152 191 238 292 350
#     4  10  21  37  59  86 116 153 198 242 295 353
#     4  10  19  34  60  90 120 156 201 246 296 350
#     4  11  24  39  60  89 120 152 193 242 294 351
#     4  10  21  37  59  88 122 160 202 249 299 354
#
# _framework density 19.905276000000001
#
# number of rings (size 3 to 8) (size 9 to 14) (size 15 to 20)
#    0.000    1.692    0.769    3.000    0.000    9.846 
#    0.000    3.077    0.000    0.000    0.000    0.000 
#    0.000    0.000    0.000    0.000    0.000    0.000 
#
# Total GULP energy -644911.675788 kJ/mol
# GULP energy per Si atom -12402.147611 kJ/mol
# Density = 1.985997 g / cm^3
# Si number density = 19.905276 Si / 1000 Ang^3
#
#
#
# Elastic Constant Matrix: (Units=GPa)
#
#
# Indices 1 2 3 4 5 6 
#
# 1 82.2905 50.7480 44.6391 0.0000 0.0000 0.0000
# 2 50.7480 139.0493 65.9519 0.0000 0.0000 0.0000
# 3 44.6391 65.9519 140.8665 0.0000 0.0000 0.0000
# 4 0.0000 0.0000 0.0000 34.9604 0.0000 0.0000
# 5 0.0000 0.0000 0.0000 0.0000 24.3661 0.0000
# 6 0.0000 0.0000 0.0000 0.0000 0.0000 24.7243
#
#
#
# Elastic Compliance Matrix: (Units=1/GPa)
#
#
# Indices 1 2 3 4 5 6 
#
# 1 0.016692 -0.004606 -0.003133 0.000000 0.000000 0.000000
# 2 -0.004606 0.010516 -0.003464 0.000000 0.000000 0.000000
# 3 -0.003133 -0.003464 0.009713 0.000000 0.000000 0.000000
# 4 0.000000 0.000000 0.000000 0.028604 0.000000 0.000000
# 5 0.000000 0.000000 0.000000 0.000000 0.041041 0.000000
# 6 0.000000 0.000000 0.000000 0.000000 0.000000 0.040446
#
#
# Mechanical properties :
#
#
# Convention : Reuss Voigt Hill
#
# Bulk Modulus (GPa) = 68.89138 76.09825 72.49481
# Shear Modulus (GPa) = 28.69350 30.20132 29.44741
#
# Velocity S-wave (km/s) = 3.80083 3.89942 3.85044
# Velocity P-wave (km/s) = 7.34483 7.65422 7.50112
#
# Compressibility (1/GPa) = 0.01451560
#
# Stress axis : x y z
#
# Youngs Moduli (GPa) = 59.90851 95.09725 102.95055
#
# Poissons Ratio (x) = 0.43802 0.32255
# Poissons Ratio (y) = 0.27594 0.35659
# Poissons Ratio (z) = 0.18770 0.32938
#
# Static dielectric constant tensor:
#      x y z
#    x 3.580880 0.000000 0.000000 
#    y 0.000000 3.706130 0.000000 
#    z 0.000000 0.000000 3.668090 
# 
# 
# High freq. dielectric constant tensor:
#      x y z
#    x 1.777340 0.000000 0.000000 
#    y 0.000000 1.787450 0.000000 
#    z 0.000000 0.000000 1.778210 
# 
# From -- ./inp_files/55262.got.cif
#   From: 2010.03.12/outbox.cif.g09.slc.cpg/sg74_28_cif.got.tgz:55262.got - 2010.04.16 15:46:19.
