data_PCOD8299065
_publ_section_title
;
Structure prediction by ZEFSAII (Michael W. Deem and Ramdas Pophale) SiO2 
 PCOD8299065
Probable space group: I M M A
;
_chemical_formula_sum "Si O2"
_cell_formula_units_Z 80
_cell_length_a 16.746090
_cell_length_b 10.237029
_cell_length_c 23.157500
_cell_angle_alpha 90.000000
_cell_angle_beta 90.000000
_cell_angle_gamma 90.000000
_cell_volume 3969.895064
_symmetry_space_group_name_H-M "I M M A"
_symmetry_group_IT_number 74
_symmetry_cell_setting 'orthorhombic'
loop_
_space_group_symop_operation_xyz
x,y,z
-x,1/2-y,z
x,-y,-z
-x,1/2+y,-z
-x,-y,-z
x,1/2+y,-z
-x,y,z
x,1/2-y,z
1/2+x,1/2+y,1/2+z
1/2-x,-y,1/2+z
1/2+x,1/2-y,1/2-z
1/2-x,y,1/2-z
1/2-x,1/2-y,1/2-z
1/2+x,y,1/2-z
1/2-x,1/2+y,1/2+z
1/2+x,-y,1/2+z
loop_
_atom_site_type_symbol
_atom_site_label
_atom_site_fract_x
_atom_site_fract_y
_atom_site_fract_z
Si Si1 0.905096 0.250000 0.243724
Si Si2 0.095336 0.750000 0.628075
Si Si3 0.094698 0.497761 0.173463
Si Si4 0.158005 0.250000 0.764343
Si Si5 0.595346 0.995768 0.065112
Si Si6 0.094030 0.250000 0.635771
Si Si7 0.094862 0.399658 0.048339
O O1 0.869582 0.250000 0.307782
O O2 0.874090 0.379114 0.212487
O O3 0.000000 0.250000 0.243424
O O4 0.128829 0.624367 0.595525
O O5 0.000000 0.750000 0.628972
O O6 0.137200 0.626522 0.196404
O O7 0.121759 0.463188 0.108743
O O8 0.000000 0.518069 0.177780
O O9 0.250000 0.250000 0.750000
O O10 0.111472 0.250000 0.703700
O O11 0.500000 0.992117 0.064317
O O12 0.629759 0.875170 0.102266
O O13 0.628787 0.000000 0.000000
O O14 0.000000 0.250000 0.628532
O O15 0.127944 0.250000 0.041071
O O16 0.000000 0.392169 0.045201
O O17 0.128323 0.500000 0.000000
#
# Coordination Sequence:
#
# PCOD8299065 Si02
#       7
#     8   8  16   8  16   8  16
#     4   9  16  29  52  80 106 131 174 229 272 328
#     4   9  15  22  36  62  96 130 157 193 249 302
#     4  10  19  35  58  83 111 146 187 231 285 343
#     4  12  26  39  52  76 112 154 197 242 285 330
#     4   9  16  26  44  74 106 129 156 204 265 324
#     4  10  19  34  55  78 104 135 176 222 272 330
#     4   9  17  29  50  86 123 146 173 224 285 343
#
# _framework density 20.151665000000001
#
# number of rings (size 3 to 8) (size 9 to 14) (size 15 to 20)
#    0.000    2.400    1.000    2.700    1.400    5.600 
#    0.000    0.500    0.000    1.200    0.000    0.000 
#    0.000    0.000    0.000    0.000    0.000    0.000 
#
# Total GULP energy -495863.918019 kJ/mol
# GULP energy per Si atom -12396.597950 kJ/mol
# Density = 2.010580 g / cm^3
# Si number density = 20.151665 Si / 1000 Ang^3
#
#
#
# Elastic Constant Matrix: (Units=GPa)
#
#
# Indices 1 2 3 4 5 6 
#
# 1 19.4842 24.1264 11.5719 0.0000 0.0000 0.0000
# 2 24.1264 232.5084 122.1030 0.0000 0.0000 0.0000
# 3 11.5719 122.1030 206.9678 0.0000 0.0000 0.0000
# 4 0.0000 0.0000 0.0000 48.7622 0.0000 0.0000
# 5 0.0000 0.0000 0.0000 0.0000 3.9356 0.0000
# 6 0.0000 0.0000 0.0000 0.0000 0.0000 -10.2676
#
#
#
# Elastic Compliance Matrix: (Units=1/GPa)
#
#
# Indices 1 2 3 4 5 6 
#
# 1 0.058920 -0.006352 0.000453 0.000000 0.000000 0.000000
# 2 -0.006352 0.006916 -0.003725 0.000000 0.000000 0.000000
# 3 0.000453 -0.003725 0.007004 0.000000 0.000000 0.000000
# 4 0.000000 0.000000 0.000000 0.020508 0.000000 0.000000
# 5 0.000000 0.000000 0.000000 0.000000 0.254090 0.000000
# 6 0.000000 0.000000 0.000000 0.000000 0.000000 -0.097394
#
#
# Mechanical properties :
#
#
# Convention : Reuss Voigt Hill
#
# Bulk Modulus (GPa) = 18.65942 86.06253 52.36097
# Shear Modulus (GPa) = 17.41212 28.56333 22.98773
#
# Velocity S-wave (km/s) = 2.94267 3.76895 3.38114
# Velocity P-wave (km/s) = 4.56348 7.85748 6.42516
#
# Compressibility (1/GPa) = 0.05359225
#
# Stress axis : x y z
#
# Youngs Moduli (GPa) = 16.97222 144.58504 142.77375
#
# Poissons Ratio (x) = 0.91837 -0.06468
# Poissons Ratio (y) = 0.10780 0.53187
# Poissons Ratio (z) = -0.00769 0.53861
#
# Static dielectric constant tensor:
#      x y z
#    x 2.905090 0.000000 0.000000 
#    y 0.000000 3.797120 0.000000 
#    z 0.000000 0.000000 4.112830 
# 
# 
# High freq. dielectric constant tensor:
#      x y z
#    x 1.709340 0.000000 0.000000 
#    y 0.000000 1.808380 0.000000 
#    z 0.000000 0.000000 1.806560 
# 
# From -- ./inp_files/61375.got.cif
#   From: 2010.03.12/outbox.cif.g09.slc.cpg/sg74_31_cif.got.tgz:61375.got - 2010.04.16 15:46:19.
