data_PCOD8299105
_publ_section_title
;
Structure prediction by ZEFSAII (Michael W. Deem and Ramdas Pophale) SiO2 
 PCOD8299105
Probable space group: I M M A
;
_chemical_formula_sum "Si O2"
_cell_formula_units_Z 80
_cell_length_a 25.162691
_cell_length_b 18.445248
_cell_length_c 9.123914
_cell_angle_alpha 90.000000
_cell_angle_beta 90.000000
_cell_angle_gamma 90.000000
_cell_volume 4234.701145
_symmetry_space_group_name_H-M "I M M A"
_symmetry_group_IT_number 74
_symmetry_cell_setting 'orthorhombic'
loop_
_space_group_symop_operation_xyz
x,y,z
-x,1/2-y,z
x,-y,-z
-x,1/2+y,-z
-x,-y,-z
x,1/2+y,-z
-x,y,z
x,1/2-y,z
1/2+x,1/2+y,1/2+z
1/2-x,-y,1/2+z
1/2+x,1/2-y,1/2-z
1/2-x,y,1/2-z
1/2-x,1/2-y,1/2-z
1/2+x,y,1/2-z
1/2-x,1/2+y,1/2+z
1/2+x,-y,1/2+z
loop_
_atom_site_type_symbol
_atom_site_label
_atom_site_fract_x
_atom_site_fract_y
_atom_site_fract_z
Si Si1 0.561569 0.670138 0.210570
Si Si2 0.869957 0.668441 0.004012
Si Si3 0.559750 0.057093 0.371367
Si Si4 0.113888 0.029505 0.651609
Si Si5 0.704847 0.944998 0.369987
O O1 0.500000 0.648165 0.218886
O O2 0.568805 0.750000 0.139100
O O3 0.584681 0.669734 0.373172
O O4 0.594858 0.611600 0.117997
O O5 0.855635 0.750000 0.952233
O O6 0.815280 0.630588 0.058665
O O7 0.897673 0.622897 0.874027
O O8 0.500000 0.087077 0.387084
O O9 0.573441 0.000000 0.500000
O O10 0.564512 0.017313 0.213584
O O11 0.157239 0.019639 0.778661
O O12 0.137048 0.000000 0.500000
O O13 0.750000 0.927852 0.250000
O O14 0.723201 0.000000 0.500000
#
# Coordination Sequence:
#
# PCOD8299105 Si02
#       5
#    16  16  16  16  16
#     4   9  17  30  50  77 109 146 187 228 275 333
#     4  10  19  34  56  83 117 149 187 235 287 346
#     4  11  19  33  56  83 116 150 190 236 284 342
#     4  11  21  35  54  82 114 152 191 237 286 341
#     4  11  21  39  62  87 108 143 193 249 298 346
#
# _framework density 18.891532999999999
#
# number of rings (size 3 to 8) (size 9 to 14) (size 15 to 20)
#    0.000    1.600    6.000    1.800    0.000    3.200 
#    0.000    1.000    0.000    0.600    0.000    0.000 
#    0.000    0.000    0.000    0.000    0.000    0.000 
#
# Total GULP energy -495771.533463 kJ/mol
# GULP energy per Si atom -12394.288337 kJ/mol
# Density = 1.884853 g / cm^3
# Si number density = 18.891533 Si / 1000 Ang^3
#
#
#
# Elastic Constant Matrix: (Units=GPa)
#
#
# Indices 1 2 3 4 5 6 
#
# 1 84.0009 43.5922 19.5349 0.0000 0.0000 0.0000
# 2 43.5922 133.2815 37.1122 0.0000 0.0000 0.0000
# 3 19.5349 37.1122 62.9082 0.0000 0.0000 0.0000
# 4 0.0000 0.0000 0.0000 19.1617 0.0000 0.0000
# 5 0.0000 0.0000 0.0000 0.0000 20.9896 0.0000
# 6 0.0000 0.0000 0.0000 0.0000 0.0000 17.4932
#
#
#
# Elastic Compliance Matrix: (Units=1/GPa)
#
#
# Indices 1 2 3 4 5 6 
#
# 1 0.014555 -0.004190 -0.002048 0.000000 0.000000 0.000000
# 2 -0.004190 0.010184 -0.004707 0.000000 0.000000 0.000000
# 3 -0.002048 -0.004707 0.019309 0.000000 0.000000 0.000000
# 4 0.000000 0.000000 0.000000 0.052188 0.000000 0.000000
# 5 0.000000 0.000000 0.000000 0.000000 0.047643 0.000000
# 6 0.000000 0.000000 0.000000 0.000000 0.000000 0.057165
#
#
# Mechanical properties :
#
#
# Convention : Reuss Voigt Hill
#
# Bulk Modulus (GPa) = 45.12970 53.40769 49.26869
# Shear Modulus (GPa) = 21.70895 23.52564 22.61730
#
# Velocity S-wave (km/s) = 3.39357 3.53271 3.46384
# Velocity P-wave (km/s) = 6.26864 6.70613 6.49107
#
# Compressibility (1/GPa) = 0.02215836
#
# Stress axis : x y z
#
# Youngs Moduli (GPa) = 68.70264 98.19263 51.78988
#
# Poissons Ratio (x) = 0.41147 0.10606
# Poissons Ratio (y) = 0.28789 0.24376
# Poissons Ratio (z) = 0.14069 0.46217
#
# Static dielectric constant tensor:
#      x y z
#    x 3.396130 0.000000 0.000000 
#    y 0.000000 3.810270 0.000000 
#    z 0.000000 0.000000 3.177780 
# 
# 
# High freq. dielectric constant tensor:
#      x y z
#    x 1.726120 0.000000 0.000000 
#    y 0.000000 1.733320 0.000000 
#    z 0.000000 0.000000 1.699180 
# 
# From -- ./inp_files/10951.got.cif
#   From: 2010.03.12/outbox.cif.g09.slc.cpg/sg74_6_cif.got.tgz:10951.got - 2010.04.16 15:46:19.
