data_PCOD8299450
_publ_section_title
;
Structure prediction by ZEFSAII (Michael W. Deem and Ramdas Pophale) SiO2 
 PCOD8299450
Probable space group: I M M A
;
_chemical_formula_sum "Si O2"
_cell_formula_units_Z 104
_cell_length_a 31.495846
_cell_length_b 8.950549
_cell_length_c 20.497299
_cell_angle_alpha 90.000000
_cell_angle_beta 90.000000
_cell_angle_gamma 90.000000
_cell_volume 5778.293389
_symmetry_space_group_name_H-M "I M M A"
_symmetry_group_IT_number 74
_symmetry_cell_setting 'orthorhombic'
loop_
_space_group_symop_operation_xyz
x,y,z
-x,1/2-y,z
x,-y,-z
-x,1/2+y,-z
-x,-y,-z
x,1/2+y,-z
-x,y,z
x,1/2-y,z
1/2+x,1/2+y,1/2+z
1/2-x,-y,1/2+z
1/2+x,1/2-y,1/2-z
1/2-x,y,1/2-z
1/2-x,1/2-y,1/2-z
1/2+x,y,1/2-z
1/2-x,1/2+y,1/2+z
1/2+x,-y,1/2+z
loop_
_atom_site_type_symbol
_atom_site_label
_atom_site_fract_x
_atom_site_fract_y
_atom_site_fract_z
Si Si1 0.452114 0.420249 0.199909
Si Si2 0.000000 0.574148 0.932227
Si Si3 0.285579 0.576890 0.567183
Si Si4 0.341316 0.075375 0.674271
Si Si5 0.424590 0.919831 0.654081
Si Si6 0.685847 0.576907 0.933935
Si Si7 0.134286 0.426636 0.680345
O O1 0.500000 0.476112 0.180627
O O2 0.446125 0.250000 0.175749
O O3 0.447853 0.429978 0.277094
O O4 0.414459 0.520208 0.169529
O O5 0.041999 0.518505 0.896994
O O6 0.000000 0.750000 0.936130
O O7 0.000000 0.500000 0.000000
O O8 0.302097 0.500000 0.500000
O O9 0.297915 0.750000 0.562814
O O10 0.305011 0.508263 0.633406
O O11 0.235699 0.551696 0.574406
O O12 0.332401 0.250000 0.668534
O O13 0.344872 0.024377 0.750244
O O14 0.386076 0.032690 0.643068
O O15 0.409210 0.750000 0.641010
O O16 0.673590 0.750000 0.936432
O O17 0.663340 0.500443 0.873518
O O18 0.669400 0.500000 0.000000
O O19 0.134801 0.250000 0.673106
#
# Coordination Sequence:
#
# PCOD8299450 Si02
#       7
#    16   8  16  16  16  16  16
#     4   9  16  30  54  78 101 134 176 220 264 313
#     4  10  20  32  46  66  92 128 173 218 265 314
#     4  10  21  37  57  79 104 140 183 225 271 323
#     4  10  21  35  52  78 110 142 179 223 270 316
#     4   9  17  32  50  68  95 132 174 219 267 313
#     4  10  21  38  60  83 108 140 178 219 266 324
#     4  10  21  35  53  82 115 145 179 220 268 319
#
# _framework density 17.998393
#
# number of rings (size 3 to 8) (size 9 to 14) (size 15 to 20)
#    0.000    2.308    0.769    1.846    0.000    5.846 
#    0.000    4.615    0.000    0.462    0.000    0.000 
#    0.000    0.000    0.000    0.000    0.000    0.000 
#
# Total GULP energy -644612.397720 kJ/mol
# GULP energy per Si atom -12396.392264 kJ/mol
# Density = 1.795743 g / cm^3
# Si number density = 17.998393 Si / 1000 Ang^3
#
#
#
# Elastic Constant Matrix: (Units=GPa)
#
#
# Indices 1 2 3 4 5 6 
#
# 1 71.2460 49.7183 54.1801 0.0000 0.0000 0.0000
# 2 49.7183 90.8147 55.0129 0.0000 0.0000 0.0000
# 3 54.1801 55.0129 105.0177 0.0000 0.0000 0.0000
# 4 0.0000 0.0000 0.0000 32.7838 0.0000 0.0000
# 5 0.0000 0.0000 0.0000 0.0000 22.2831 0.0000
# 6 0.0000 0.0000 0.0000 0.0000 0.0000 29.5180
#
#
#
# Elastic Compliance Matrix: (Units=1/GPa)
#
#
# Indices 1 2 3 4 5 6 
#
# 1 0.027816 -0.009573 -0.009336 0.000000 0.000000 0.000000
# 2 -0.009573 0.019424 -0.005237 0.000000 0.000000 0.000000
# 3 -0.009336 -0.005237 0.017082 0.000000 0.000000 0.000000
# 4 0.000000 0.000000 0.000000 0.030503 0.000000 0.000000
# 5 0.000000 0.000000 0.000000 0.000000 0.044877 0.000000
# 6 0.000000 0.000000 0.000000 0.000000 0.000000 0.033878
#
#
# Mechanical properties :
#
#
# Convention : Reuss Voigt Hill
#
# Bulk Modulus (GPa) = 62.37748 64.98899 63.68323
# Shear Modulus (GPa) = 22.00566 24.12813 23.06690
#
# Velocity S-wave (km/s) = 3.50043 3.66535 3.58384
# Velocity P-wave (km/s) = 7.14632 7.35525 7.25153
#
# Compressibility (1/GPa) = 0.01603143
#
# Stress axis : x y z
#
# Youngs Moduli (GPa) = 35.95075 51.48139 58.54163
#
# Poissons Ratio (x) = 0.49283 0.54654
# Poissons Ratio (y) = 0.34415 0.30656
# Poissons Ratio (z) = 0.33563 0.26959
#
# Static dielectric constant tensor:
#      x y z
#    x 3.376150 0.000000 0.000000 
#    y 0.000000 3.498530 0.000000 
#    z 0.000000 0.000000 3.264620 
# 
# 
# High freq. dielectric constant tensor:
#      x y z
#    x 1.698730 0.000000 0.000000 
#    y 0.000000 1.701830 0.000000 
#    z 0.000000 0.000000 1.683590 
# 
# From -- ./inp_files/55252.got.cif
#   From: 2010.03.12/outbox.cif.g09.slc.cpg/sg74_28_cif.got.tgz:55252.got - 2010.04.16 15:46:19.
