data_PCOD8299124
_publ_section_title
;
Structure prediction by ZEFSAII (Michael W. Deem and Ramdas Pophale) SiO2 
 PCOD8299124
Probable space group: I M M A
;
_chemical_formula_sum "Si O2"
_cell_formula_units_Z 88
_cell_length_a 8.778883
_cell_length_b 18.142335
_cell_length_c 28.331742
_cell_angle_alpha 90.000000
_cell_angle_beta 90.000000
_cell_angle_gamma 90.000000
_cell_volume 4512.380578
_symmetry_space_group_name_H-M "I M M A"
_symmetry_group_IT_number 74
_symmetry_cell_setting 'orthorhombic'
loop_
_space_group_symop_operation_xyz
x,y,z
-x,1/2-y,z
x,-y,-z
-x,1/2+y,-z
-x,-y,-z
x,1/2+y,-z
-x,y,z
x,1/2-y,z
1/2+x,1/2+y,1/2+z
1/2-x,-y,1/2+z
1/2+x,1/2-y,1/2-z
1/2-x,y,1/2-z
1/2-x,1/2-y,1/2-z
1/2+x,y,1/2-z
1/2-x,1/2+y,1/2+z
1/2+x,-y,1/2+z
loop_
_atom_site_type_symbol
_atom_site_label
_atom_site_fract_x
_atom_site_fract_y
_atom_site_fract_z
Si Si1 0.680308 0.750000 0.198625
Si Si2 0.819498 0.607608 0.359978
Si Si3 0.321619 0.955822 0.635496
Si Si4 0.681053 0.668875 0.041678
Si Si5 0.820955 0.165410 0.299611
Si Si6 0.172004 0.564498 0.537645
O O1 0.500000 0.750000 0.201931
O O2 0.750000 0.750000 0.250000
O O3 0.736060 0.676627 0.171457
O O4 0.741972 0.532056 0.342272
O O5 0.763567 0.620732 0.413762
O O6 0.000000 0.597702 0.356809
O O7 0.500000 0.952918 0.644113
O O8 0.245517 0.885573 0.659667
O O9 0.285577 0.951649 0.580057
O O10 0.500000 0.672728 0.044437
O O11 0.752970 0.750000 0.045593
O O12 0.731120 0.635642 0.991333
O O13 0.778201 0.250000 0.311518
O O14 0.750000 0.141033 0.250000
O O15 0.000000 0.154097 0.296489
O O16 0.172138 0.500000 0.500000
O O17 0.000000 0.575326 0.557559
#
# Coordination Sequence:
#
# PCOD8299124 Si02
#       6
#     8  16  16  16  16  16
#     4  10  22  38  62  88 118 154 198 256 309 358
#     4  10  19  37  61  84 111 154 206 252 302 358
#     4  12  25  38  58  90 129 165 201 246 298 361
#     4   9  16  30  56  84 107 141 199 253 297 351
#     4  10  22  43  70  95 120 153 196 246 304 365
#     4  10  19  34  57  83 113 153 201 251 298 349
#
# _framework density 19.501901
#
# number of rings (size 3 to 8) (size 9 to 14) (size 15 to 20)
#    0.000    1.818    2.727    2.182    0.000    3.636 
#    0.000    3.636    0.000    1.091    0.000    0.000 
#    0.000    0.000    0.000    0.000    0.000    0.000 
#
# Total GULP energy -545587.348501 kJ/mol
# GULP energy per Si atom -12399.712466 kJ/mol
# Density = 1.945751 g / cm^3
# Si number density = 19.501901 Si / 1000 Ang^3
#
#
#
# Elastic Constant Matrix: (Units=GPa)
#
#
# Indices 1 2 3 4 5 6 
#
# 1 62.5643 40.2055 31.0678 0.0000 0.0000 0.0000
# 2 40.2055 127.2197 51.5324 0.0000 0.0000 0.0000
# 3 31.0678 51.5324 96.9986 0.0000 0.0000 0.0000
# 4 0.0000 0.0000 0.0000 28.8382 0.0000 0.0000
# 5 0.0000 0.0000 0.0000 0.0000 29.9976 0.0000
# 6 0.0000 0.0000 0.0000 0.0000 0.0000 15.8689
#
#
#
# Elastic Compliance Matrix: (Units=1/GPa)
#
#
# Indices 1 2 3 4 5 6 
#
# 1 0.021282 -0.005052 -0.004133 0.000000 0.000000 0.000000
# 2 -0.005052 0.011215 -0.004340 0.000000 0.000000 0.000000
# 3 -0.004133 -0.004340 0.013939 0.000000 0.000000 0.000000
# 4 0.000000 0.000000 0.000000 0.034676 0.000000 0.000000
# 5 0.000000 0.000000 0.000000 0.000000 0.033336 0.000000
# 6 0.000000 0.000000 0.000000 0.000000 0.000000 0.063016
#
#
# Mechanical properties :
#
#
# Convention : Reuss Voigt Hill
#
# Bulk Modulus (GPa) = 51.58140 59.15490 55.36815
# Shear Modulus (GPa) = 23.69937 25.87274 24.78605
#
# Velocity S-wave (km/s) = 3.48980 3.64631 3.56891
# Velocity P-wave (km/s) = 6.53798 6.93730 6.74060
#
# Compressibility (1/GPa) = 0.01938683
#
# Stress axis : x y z
#
# Youngs Moduli (GPa) = 46.98772 89.16616 71.74201
#
# Poissons Ratio (x) = 0.45046 0.29648
# Poissons Ratio (y) = 0.23738 0.31137
# Poissons Ratio (z) = 0.19418 0.38699
#
# Static dielectric constant tensor:
#      x y z
#    x 3.293420 0.000000 0.000000 
#    y 0.000000 4.036570 0.000000 
#    z 0.000000 0.000000 3.674190 
# 
# 
# High freq. dielectric constant tensor:
#      x y z
#    x 1.729500 0.000000 0.000000 
#    y 0.000000 1.776550 0.000000 
#    z 0.000000 0.000000 1.756450 
# 
# From -- ./inp_files/70301.got.cif
#   From: 2010.03.12/outbox.cif.g09.slc.cpg/sg74_36_cif.got.tgz:70301.got - 2010.04.16 15:46:19.
