data_PCOD8299858
_publ_section_title
;
Structure prediction by ZEFSAII (Michael W. Deem and Ramdas Pophale) SiO2 
 PCOD8299858
Probable space group: I M M A
;
_chemical_formula_sum "Si O2"
_cell_formula_units_Z 104
_cell_length_a 20.503116
_cell_length_b 9.680747
_cell_length_c 29.403329
_cell_angle_alpha 90.000000
_cell_angle_beta 90.000000
_cell_angle_gamma 90.000000
_cell_volume 5836.133832
_symmetry_space_group_name_H-M "I M M A"
_symmetry_group_IT_number 74
_symmetry_cell_setting 'orthorhombic'
loop_
_space_group_symop_operation_xyz
x,y,z
-x,1/2-y,z
x,-y,-z
-x,1/2+y,-z
-x,-y,-z
x,1/2+y,-z
-x,y,z
x,1/2-y,z
1/2+x,1/2+y,1/2+z
1/2-x,-y,1/2+z
1/2+x,1/2-y,1/2-z
1/2-x,y,1/2-z
1/2-x,1/2-y,1/2-z
1/2+x,y,1/2-z
1/2-x,1/2+y,1/2+z
1/2+x,-y,1/2+z
loop_
_atom_site_type_symbol
_atom_site_label
_atom_site_fract_x
_atom_site_fract_y
_atom_site_fract_z
Si Si1 0.784790 0.089054 0.135964
Si Si2 0.075339 0.408303 0.459105
Si Si3 0.642494 0.410305 0.454195
Si Si4 0.000000 0.595463 0.957678
Si Si5 0.312212 0.910841 0.279940
Si Si6 0.074088 0.407579 0.711734
Si Si7 0.866546 0.090673 0.364366
O O1 0.801354 0.250000 0.143702
O O2 0.808094 0.042955 0.085588
O O3 0.708909 0.057979 0.142104
O O4 0.820024 0.998457 0.174179
O O5 0.102722 0.500000 0.500000
O O6 0.086789 0.250000 0.472457
O O7 0.115934 0.451656 0.415318
O O8 0.000000 0.440110 0.449236
O O9 0.653715 0.500000 0.500000
O O10 0.654315 0.250000 0.467220
O O11 0.569167 0.431168 0.432261
O O12 0.000000 0.750000 0.976689
O O13 0.000000 0.500000 0.000000
O O14 0.305287 0.750000 0.292671
O O15 0.250000 0.958870 0.250000
O O16 0.378248 0.943955 0.253021
O O17 0.084862 0.250000 0.696193
O O18 0.089319 0.502314 0.668966
O O19 0.000000 0.433497 0.727955
O O20 0.883232 0.250000 0.355138
#
# Coordination Sequence:
#
# PCOD8299858 Si02
#       7
#    16  16  16   8  16  16  16
#     4  10  21  35  53  79 108 138 174 214 258 309
#     4   9  18  32  48  68  97 132 168 208 253 300
#     4   9  18  33  52  76 105 137 175 217 260 308
#     4   8  14  28  50  70  96 134 172 212 256 302
#     4  10  20  37  58  78 104 139 176 213 259 314
#     4  10  21  37  57  80 105 133 171 219 263 307
#     4  10  20  34  53  76 104 137 174 214 258 309
#
# _framework density 17.820015000000001
#
# number of rings (size 3 to 8) (size 9 to 14) (size 15 to 20)
#    0.000    2.462    1.538    0.462    0.000    3.692 
#    1.385    1.538    0.000    0.000    0.000    0.000 
#    0.000    0.000    0.000    0.000    0.000    0.000 
#
# Total GULP energy -644636.709751 kJ/mol
# GULP energy per Si atom -12396.859803 kJ/mol
# Density = 1.777946 g / cm^3
# Si number density = 17.820015 Si / 1000 Ang^3
#
#
#
# Elastic Constant Matrix: (Units=GPa)
#
#
# Indices 1 2 3 4 5 6 
#
# 1 89.5491 39.4557 54.3952 0.0000 0.0000 0.0000
# 2 39.4557 66.9738 67.1522 0.0000 0.0000 0.0000
# 3 54.3952 67.1522 116.3826 0.0000 0.0000 0.0000
# 4 0.0000 0.0000 0.0000 37.6634 0.0000 0.0000
# 5 0.0000 0.0000 0.0000 0.0000 31.0461 0.0000
# 6 0.0000 0.0000 0.0000 0.0000 0.0000 11.6720
#
#
#
# Elastic Compliance Matrix: (Units=1/GPa)
#
#
# Indices 1 2 3 4 5 6 
#
# 1 0.016176 -0.004625 -0.004892 0.000000 0.000000 0.000000
# 2 -0.004625 0.036749 -0.019042 0.000000 0.000000 0.000000
# 3 -0.004892 -0.019042 0.021866 0.000000 0.000000 0.000000
# 4 0.000000 0.000000 0.000000 0.026551 0.000000 0.000000
# 5 0.000000 0.000000 0.000000 0.000000 0.032210 0.000000
# 6 0.000000 0.000000 0.000000 0.000000 0.000000 0.085675
#
#
# Mechanical properties :
#
#
# Convention : Reuss Voigt Hill
#
# Bulk Modulus (GPa) = 56.58355 66.10132 61.34243
# Shear Modulus (GPa) = 17.71560 23.53645 20.62603
#
# Velocity S-wave (km/s) = 3.15642 3.63821 3.40584
# Velocity P-wave (km/s) = 6.71608 7.40426 7.06855
#
# Compressibility (1/GPa) = 0.01767298
#
# Stress axis : x y z
#
# Youngs Moduli (GPa) = 61.81858 27.21175 45.73258
#
# Poissons Ratio (x) = 0.12585 0.22373
# Poissons Ratio (y) = 0.28589 0.87086
# Poissons Ratio (z) = 0.30243 0.51818
#
# Static dielectric constant tensor:
#      x y z
#    x 3.904170 0.000000 0.000000 
#    y 0.000000 3.311230 0.000000 
#    z 0.000000 0.000000 3.077870 
# 
# 
# High freq. dielectric constant tensor:
#      x y z
#    x 1.697890 0.000000 0.000000 
#    y 0.000000 1.689000 0.000000 
#    z 0.000000 0.000000 1.675590 
# 
# From -- ./inp_files/73349.got.cif
#   From: 2010.03.12/outbox.cif.g09.slc.cpg/sg74_37_cif.got.tgz:73349.got - 2010.04.16 15:46:19.
