data_PCOD8299821
_publ_section_title
;
Structure prediction by ZEFSAII (Michael W. Deem and Ramdas Pophale) SiO2 
 PCOD8299821
Probable space group: I M M A
;
_chemical_formula_sum "Si O2"
_cell_formula_units_Z 104
_cell_length_a 9.072530
_cell_length_b 21.039496
_cell_length_c 27.422366
_cell_angle_alpha 90.000000
_cell_angle_beta 90.000000
_cell_angle_gamma 90.000000
_cell_volume 5234.421222
_symmetry_space_group_name_H-M "I M M A"
_symmetry_group_IT_number 74
_symmetry_cell_setting 'orthorhombic'
loop_
_space_group_symop_operation_xyz
x,y,z
-x,1/2-y,z
x,-y,-z
-x,1/2+y,-z
-x,-y,-z
x,1/2+y,-z
-x,y,z
x,1/2-y,z
1/2+x,1/2+y,1/2+z
1/2-x,-y,1/2+z
1/2+x,1/2-y,1/2-z
1/2-x,y,1/2-z
1/2-x,1/2-y,1/2-z
1/2+x,y,1/2-z
1/2-x,1/2+y,1/2+z
1/2+x,-y,1/2+z
loop_
_atom_site_type_symbol
_atom_site_label
_atom_site_fract_x
_atom_site_fract_y
_atom_site_fract_z
Si Si1 0.170867 0.322233 0.355409
Si Si2 0.829329 0.651208 0.128017
Si Si3 0.328687 0.907740 0.947509
Si Si4 0.331303 0.819851 0.481700
Si Si5 0.829975 0.078931 0.202505
Si Si6 0.322801 0.250000 0.803281
Si Si7 0.670647 0.508708 0.389155
O O1 0.221240 0.250000 0.361390
O O2 0.208274 0.357146 0.405644
O O3 0.263269 0.352643 0.311485
O O4 0.000000 0.328639 0.342134
O O5 0.810723 0.684777 0.076179
O O6 0.730694 0.687080 0.168022
O O7 0.771066 0.579257 0.121538
O O8 0.000000 0.652732 0.145325
O O9 0.500000 0.920043 0.954838
O O10 0.255781 0.975650 0.934305
O O11 0.265433 0.877188 0.996887
O O12 0.500000 0.834916 0.495227
O O13 0.285156 0.750000 0.502265
O O14 0.750000 0.051438 0.250000
O O15 0.798591 0.029703 0.159799
O O16 0.000000 0.087652 0.214133
O O17 0.500000 0.250000 0.799232
O O18 0.250000 0.250000 0.750000
O O19 0.500000 0.510066 0.403926
#
# Coordination Sequence:
#
# PCOD8299821 Si02
#       7
#    16  16  16  16  16   8  16
#     4   9  18  33  51  72 102 142 186 231 279 327
#     4  10  21  42  66  89 119 153 194 241 293 350
#     4  10  20  34  54  82 118 156 194 239 287 342
#     4  10  20  35  58  85 116 156 198 240 289 350
#     4  10  20  34  52  76 103 136 179 227 283 338
#     4  12  26  44  68  96 126 158 196 246 303 366
#     4   9  20  38  60  83 112 151 194 241 289 348
#
# _framework density 19.868480999999999
#
# number of rings (size 3 to 8) (size 9 to 14) (size 15 to 20)
#    0.000    2.154    0.769    2.077    0.000    5.231 
#    0.000    4.615    0.000    0.000    0.000    0.000 
#    0.000    0.000    0.000    0.000    0.000    0.000 
#
# Total GULP energy -644854.037944 kJ/mol
# GULP energy per Si atom -12401.039191 kJ/mol
# Density = 1.982326 g / cm^3
# Si number density = 19.868481 Si / 1000 Ang^3
#
#
#
# Elastic Constant Matrix: (Units=GPa)
#
#
# Indices 1 2 3 4 5 6 
#
# 1 93.6722 53.5520 49.0105 0.0000 0.0000 0.0000
# 2 53.5520 146.6274 37.0794 0.0000 0.0000 0.0000
# 3 49.0105 37.0794 75.8671 0.0000 0.0000 0.0000
# 4 0.0000 0.0000 0.0000 17.4669 0.0000 0.0000
# 5 0.0000 0.0000 0.0000 0.0000 31.9483 0.0000
# 6 0.0000 0.0000 0.0000 0.0000 0.0000 29.4730
#
#
#
# Elastic Compliance Matrix: (Units=1/GPa)
#
#
# Indices 1 2 3 4 5 6 
#
# 1 0.018118 -0.004173 -0.009665 0.000000 0.000000 0.000000
# 2 -0.004173 0.008743 -0.001577 0.000000 0.000000 0.000000
# 3 -0.009665 -0.001577 0.020195 0.000000 0.000000 0.000000
# 4 0.000000 0.000000 0.000000 0.057251 0.000000 0.000000
# 5 0.000000 0.000000 0.000000 0.000000 0.031301 0.000000
# 6 0.000000 0.000000 0.000000 0.000000 0.000000 0.033929
#
#
# Mechanical properties :
#
#
# Convention : Reuss Voigt Hill
#
# Bulk Modulus (GPa) = 61.62905 66.16118 63.89511
# Shear Modulus (GPa) = 24.29826 27.54596 25.92211
#
# Velocity S-wave (km/s) = 3.50087 3.72750 3.61596
# Velocity P-wave (km/s) = 6.88675 7.20399 7.04716
#
# Compressibility (1/GPa) = 0.01622611
#
# Stress axis : x y z
#
# Youngs Moduli (GPa) = 55.19381 114.37746 49.51660
#
# Poissons Ratio (x) = 0.47731 0.47856
# Poissons Ratio (y) = 0.23033 0.07810
# Poissons Ratio (z) = 0.53343 0.18040
#
# Static dielectric constant tensor:
#      x y z
#    x 3.540950 0.000000 0.000000 
#    y 0.000000 3.746230 0.000000 
#    z 0.000000 0.000000 3.527360 
# 
# 
# High freq. dielectric constant tensor:
#      x y z
#    x 1.767680 0.000000 0.000000 
#    y 0.000000 1.783680 0.000000 
#    z 0.000000 0.000000 1.769920 
# 
# From -- ./inp_files/64441.got.cif
#   From: 2010.03.12/outbox.cif.g09.slc.cpg/sg74_33_cif.got.tgz:64441.got - 2010.04.16 15:46:19.
