data_PCOD8299574
_publ_section_title
;
Structure prediction by ZEFSAII (Michael W. Deem and Ramdas Pophale) SiO2 
 PCOD8299574
Probable space group: I M M A
;
_chemical_formula_sum "Si O2"
_cell_formula_units_Z 88
_cell_length_a 21.254500
_cell_length_b 26.843703
_cell_length_c 8.756270
_cell_angle_alpha 90.000000
_cell_angle_beta 90.000000
_cell_angle_gamma 90.000000
_cell_volume 4995.885343
_symmetry_space_group_name_H-M "I M M A"
_symmetry_group_IT_number 74
_symmetry_cell_setting 'orthorhombic'
loop_
_space_group_symop_operation_xyz
x,y,z
-x,1/2-y,z
x,-y,-z
-x,1/2+y,-z
-x,-y,-z
x,1/2+y,-z
-x,y,z
x,1/2-y,z
1/2+x,1/2+y,1/2+z
1/2-x,-y,1/2+z
1/2+x,1/2-y,1/2-z
1/2-x,y,1/2-z
1/2-x,1/2-y,1/2-z
1/2+x,y,1/2-z
1/2-x,1/2+y,1/2+z
1/2+x,-y,1/2+z
loop_
_atom_site_type_symbol
_atom_site_label
_atom_site_fract_x
_atom_site_fract_y
_atom_site_fract_z
Si Si1 0.000000 0.081832 0.464773
Si Si2 0.000000 0.489119 0.754534
Si Si3 0.191834 0.079630 0.157536
Si Si4 0.895632 0.000000 0.000000
Si Si5 0.879599 0.355249 0.401351
Si Si6 0.273571 0.750000 0.513138
Si Si7 0.146309 0.250000 0.294394
Si Si8 0.758898 0.352862 0.584984
O O1 0.000000 0.044255 0.320269
O O2 0.941444 0.118617 0.462964
O O3 0.000000 0.051827 0.622751
O O4 0.061425 0.480973 0.859835
O O5 0.250000 0.053313 0.250000
O O6 0.150030 0.041978 0.062872
O O7 0.147839 0.110315 0.269367
O O8 0.221898 0.117906 0.042281
O O9 0.893357 0.299621 0.336876
O O10 0.832412 0.351312 0.544101
O O11 0.212562 0.750000 0.620078
O O12 0.337273 0.750000 0.614404
O O13 0.272274 0.798257 0.405989
O O14 0.750000 0.378420 0.750000
#
# Coordination Sequence:
#
# PCOD8299574 Si02
#       8
#     8   8  16   8  16   8   8  16
#     4  11  22  41  58  81 111 146 200 247 267 335
#     4  10  24  40  64  77 103 157 198 239 277 330
#     4  10  21  37  55  84 118 146 182 234 290 346
#     4  11  22  42  60  84 110 149 196 236 288 345
#     4  10  20  37  58  83 114 151 191 231 280 341
#     4   9  15  30  54  81 117 143 186 219 272 345
#     4   9  16  31  58  83 111 154 180 227 278 344
#     4  10  20  32  55  88 115 147 180 230 294 341
#
# _framework density 17.614495000000002
#
# number of rings (size 3 to 8) (size 9 to 14) (size 15 to 20)
#    0.000    2.000    3.636    0.273    2.545    1.091 
#    3.273    0.000    0.000    0.000    0.000    0.000 
#    0.000    0.000    0.000    0.000    0.000    0.000 
#
# Total GULP energy -545448.322865 kJ/mol
# GULP energy per Si atom -12396.552792 kJ/mol
# Density = 1.757440 g / cm^3
# Si number density = 17.614495 Si / 1000 Ang^3
#
#
#
# Elastic Constant Matrix: (Units=GPa)
#
#
# Indices 1 2 3 4 5 6 
#
# 1 108.1714 58.9115 41.3257 0.0000 0.0000 0.0000
# 2 58.9115 99.4212 22.4999 0.0000 0.0000 0.0000
# 3 41.3257 22.4999 77.9059 0.0000 0.0000 0.0000
# 4 0.0000 0.0000 0.0000 20.6012 0.0000 0.0000
# 5 0.0000 0.0000 0.0000 0.0000 24.1766 0.0000
# 6 0.0000 0.0000 0.0000 0.0000 0.0000 3.6473
#
#
#
# Elastic Compliance Matrix: (Units=1/GPa)
#
#
# Indices 1 2 3 4 5 6 
#
# 1 0.016000 -0.008088 -0.006151 0.000000 0.000000 0.000000
# 2 -0.008088 0.014851 0.000002 0.000000 0.000000 0.000000
# 3 -0.006151 0.000002 0.016098 0.000000 0.000000 0.000000
# 4 0.000000 0.000000 0.000000 0.048541 0.000000 0.000000
# 5 0.000000 0.000000 0.000000 0.000000 0.041362 0.000000
# 6 0.000000 0.000000 0.000000 0.000000 0.000000 0.274178
#
#
# Mechanical properties :
#
#
# Convention : Reuss Voigt Hill
#
# Bulk Modulus (GPa) = 54.13377 58.99697 56.56537
# Shear Modulus (GPa) = 11.21924 20.53578 15.87751
#
# Velocity S-wave (km/s) = 2.52649 3.41815 3.00557
# Velocity P-wave (km/s) = 6.26978 7.01031 6.65036
#
# Compressibility (1/GPa) = 0.01847276
#
# Stress axis : x y z
#
# Youngs Moduli (GPa) = 62.50164 67.33732 62.11790
#
# Poissons Ratio (x) = 0.54465 0.38209
# Poissons Ratio (y) = 0.50554 -0.00010
# Poissons Ratio (z) = 0.38445 -0.00010
#
# Static dielectric constant tensor:
#      x y z
#    x 3.446560 0.000000 0.000000 
#    y 0.000000 3.397520 0.000000 
#    z 0.000000 0.000000 3.568810 
# 
# 
# High freq. dielectric constant tensor:
#      x y z
#    x 1.667510 0.000000 0.000000 
#    y 0.000000 1.681680 0.000000 
#    z 0.000000 0.000000 1.687280 
# 
# From -- ./inp_files/11288.got.cif
#   From: 2010.03.12/outbox.cif.g09.slc.cpg/sg74_6_cif.got.tgz:11288.got - 2010.04.16 15:46:19.
