data_PCOD8299245
_publ_section_title
;
Structure prediction by ZEFSAII (Michael W. Deem and Ramdas Pophale) SiO2 
 PCOD8299245
Probable space group: I M M A
;
_chemical_formula_sum "Si O2"
_cell_formula_units_Z 72
_cell_length_a 14.140229
_cell_length_b 15.922964
_cell_length_c 17.319300
_cell_angle_alpha 90.000000
_cell_angle_beta 90.000000
_cell_angle_gamma 90.000000
_cell_volume 3899.515861
_symmetry_space_group_name_H-M "I M M A"
_symmetry_group_IT_number 74
_symmetry_cell_setting 'orthorhombic'
loop_
_space_group_symop_operation_xyz
x,y,z
-x,1/2-y,z
x,-y,-z
-x,1/2+y,-z
-x,-y,-z
x,1/2+y,-z
-x,y,z
x,1/2-y,z
1/2+x,1/2+y,1/2+z
1/2-x,-y,1/2+z
1/2+x,1/2-y,1/2-z
1/2-x,y,1/2-z
1/2-x,1/2-y,1/2-z
1/2+x,y,1/2-z
1/2-x,1/2+y,1/2+z
1/2+x,-y,1/2+z
loop_
_atom_site_type_symbol
_atom_site_label
_atom_site_fract_x
_atom_site_fract_y
_atom_site_fract_z
Si Si1 0.169041 0.577325 0.049295
Si Si2 0.693529 0.043655 0.321767
Si Si3 0.500000 0.845539 0.365989
Si Si4 0.694563 0.152347 0.071998
Si Si5 0.000000 0.001871 0.243110
Si Si6 0.500000 0.447931 0.080281
O O1 0.216976 0.532673 0.121471
O O2 0.089238 0.641056 0.077806
O O3 0.123556 0.500000 0.000000
O O4 0.252629 0.626578 0.006598
O O5 0.750000 0.011924 0.250000
O O6 0.734762 0.130019 0.357210
O O7 0.585588 0.053956 0.295156
O O8 0.500000 0.750000 0.335422
O O9 0.500000 0.906466 0.290903
O O10 0.674027 0.250000 0.072678
O O11 0.593985 0.107606 0.080311
O O12 0.000000 0.000154 0.337452
O O13 0.500000 0.500000 0.000000
#
# Coordination Sequence:
#
# PCOD8299245 Si02
#       6
#    16  16   8  16   8   8
#     4   9  19  35  59  86 116 153 191 230 280 359
#     4  10  19  37  60  84 111 156 195 231 279 345
#     4  10  19  35  61  89 121 146 180 246 301 332
#     4  11  23  38  58  89 119 147 191 243 293 336
#     4  10  22  38  61  87 114 146 204 231 282 349
#     4  12  23  41  63  80 110 166 199 234 274 350
#
# _framework density 18.463830999999999
#
# number of rings (size 3 to 8) (size 9 to 14) (size 15 to 20)
#    0.000    1.778    2.222    3.333    0.000    3.111 
#    0.000    2.778    0.000    3.333    0.000    0.000 
#    0.000    0.000    0.000    0.000    0.000    0.000 
#
# Total GULP energy -446061.935300 kJ/mol
# GULP energy per Si atom -12390.609314 kJ/mol
# Density = 1.842181 g / cm^3
# Si number density = 18.463831 Si / 1000 Ang^3
#
#
#
# Elastic Constant Matrix: (Units=GPa)
#
#
# Indices 1 2 3 4 5 6 
#
# 1 137.3032 60.1613 64.1370 0.0000 0.0000 0.0000
# 2 60.1613 117.1306 54.8481 0.0000 0.0000 0.0000
# 3 64.1370 54.8481 150.1907 0.0000 0.0000 0.0000
# 4 0.0000 0.0000 0.0000 12.5440 0.0000 0.0000
# 5 0.0000 0.0000 0.0000 0.0000 30.2034 0.0000
# 6 0.0000 0.0000 0.0000 0.0000 0.0000 26.2311
#
#
#
# Elastic Compliance Matrix: (Units=1/GPa)
#
#
# Indices 1 2 3 4 5 6 
#
# 1 0.010415 -0.003941 -0.003009 0.000000 0.000000 0.000000
# 2 -0.003941 0.011790 -0.002623 0.000000 0.000000 0.000000
# 3 -0.003009 -0.002623 0.008901 0.000000 0.000000 0.000000
# 4 0.000000 0.000000 0.000000 0.079720 0.000000 0.000000
# 5 0.000000 0.000000 0.000000 0.000000 0.033109 0.000000
# 6 0.000000 0.000000 0.000000 0.000000 0.000000 0.038123
#
#
# Mechanical properties :
#
#
# Convention : Reuss Voigt Hill
#
# Bulk Modulus (GPa) = 83.59985 84.76858 84.18422
# Shear Modulus (GPa) = 24.36793 28.82755 26.59774
#
# Velocity S-wave (km/s) = 3.63680 3.95561 3.79955
# Velocity P-wave (km/s) = 7.93795 8.17758 8.05865
#
# Compressibility (1/GPa) = 0.01196174
#
# Stress axis : x y z
#
# Youngs Moduli (GPa) = 96.01367 84.82045 112.35038
#
# Poissons Ratio (x) = 0.33425 0.33801
# Poissons Ratio (y) = 0.37836 0.29465
# Poissons Ratio (z) = 0.28886 0.22245
#
# Static dielectric constant tensor:
#      x y z
#    x 3.378790 0.000000 0.000000 
#    y 0.000000 3.180260 0.000000 
#    z 0.000000 0.000000 3.909280 
# 
# 
# High freq. dielectric constant tensor:
#      x y z
#    x 1.730470 0.000000 0.000000 
#    y 0.000000 1.691940 0.000000 
#    z 0.000000 0.000000 1.730760 
# 
# From -- ./inp_files/42531.got.cif
#   From: 2010.03.12/outbox.cif.g09.slc.cpg/sg74_22_cif.got.tgz:42531.got - 2010.04.16 15:46:19.
