data_PCOD8299637
_publ_section_title
;
Structure prediction by ZEFSAII (Michael W. Deem and Ramdas Pophale) SiO2 
 PCOD8299637
Probable space group: I M M A
;
_chemical_formula_sum "Si O2"
_cell_formula_units_Z 96
_cell_length_a 8.935156
_cell_length_b 25.057223
_cell_length_c 23.480983
_cell_angle_alpha 90.000000
_cell_angle_beta 90.000000
_cell_angle_gamma 90.000000
_cell_volume 5257.161896
_symmetry_space_group_name_H-M "I M M A"
_symmetry_group_IT_number 74
_symmetry_cell_setting 'orthorhombic'
loop_
_space_group_symop_operation_xyz
x,y,z
-x,1/2-y,z
x,-y,-z
-x,1/2+y,-z
-x,-y,-z
x,1/2+y,-z
-x,y,z
x,1/2-y,z
1/2+x,1/2+y,1/2+z
1/2-x,-y,1/2+z
1/2+x,1/2-y,1/2-z
1/2-x,y,1/2-z
1/2-x,1/2-y,1/2-z
1/2+x,y,1/2-z
1/2-x,1/2+y,1/2+z
1/2+x,-y,1/2+z
loop_
_atom_site_type_symbol
_atom_site_label
_atom_site_fract_x
_atom_site_fract_y
_atom_site_fract_z
Si Si1 0.326634 0.187882 0.005133
Si Si2 0.173161 0.940256 0.806925
Si Si3 0.823104 0.250000 0.688985
Si Si4 0.677484 0.250000 0.188465
Si Si5 0.674727 0.342360 0.382260
Si Si6 0.323260 0.060839 0.691170
Si Si7 0.674758 0.647586 0.119088
O O1 0.500000 0.181521 0.022021
O O2 0.285447 0.250000 0.998808
O O3 0.289958 0.157706 0.946827
O O4 0.223596 0.160306 0.052336
O O5 0.250000 0.917806 0.750000
O O6 0.209465 0.901923 0.859958
O O7 0.000000 0.940837 0.792561
O O8 0.228001 0.000060 0.821523
O O9 0.750000 0.250000 0.750000
O O10 0.768237 0.301795 0.654896
O O11 0.000000 0.250000 0.695173
O O12 0.500000 0.250000 0.194561
O O13 0.750000 0.250000 0.250000
O O14 0.728032 0.301807 0.154370
O O15 0.500000 0.327906 0.376364
O O16 0.500000 0.066782 0.696598
O O17 0.250000 0.081294 0.750000
O O18 0.265199 0.095717 0.638645
O O19 0.500000 0.637754 0.129195
#
# Coordination Sequence:
#
# PCOD8299637 Si02
#       7
#    16  16   8   8  16  16  16
#     4  10  20  37  58  79 108 149 187 226 276 325
#     4   9  20  37  57  81 111 144 181 225 277 327
#     4  10  20  33  50  75 107 138 170 216 271 322
#     4  12  24  37  54  81 115 146 178 224 279 332
#     4  11  22  37  57  83 111 143 185 230 274 330
#     4  10  20  36  57  82 111 145 182 226 277 330
#     4  10  20  36  56  79 109 145 184 226 273 326
#
# _framework density 18.260802999999999
#
# number of rings (size 3 to 8) (size 9 to 14) (size 15 to 20)
#    0.000    1.833    1.667    2.750    0.000    6.000 
#    0.000    0.833    0.000    5.000    0.000    0.000 
#    0.000    0.000    0.000    0.000    0.000    0.000 
#
# Total GULP energy -595377.426533 kJ/mol
# GULP energy per Si atom -12403.696386 kJ/mol
# Density = 1.821924 g / cm^3
# Si number density = 18.260803 Si / 1000 Ang^3
#
#
#
# Elastic Constant Matrix: (Units=GPa)
#
#
# Indices 1 2 3 4 5 6 
#
# 1 77.2907 47.9636 54.4277 0.0000 0.0000 0.0000
# 2 47.9636 106.7737 63.3345 0.0000 0.0000 0.0000
# 3 54.4277 63.3345 127.0819 0.0000 0.0000 0.0000
# 4 0.0000 0.0000 0.0000 29.7269 0.0000 0.0000
# 5 0.0000 0.0000 0.0000 0.0000 36.7871 0.0000
# 6 0.0000 0.0000 0.0000 0.0000 0.0000 26.5722
#
#
#
# Elastic Compliance Matrix: (Units=1/GPa)
#
#
# Indices 1 2 3 4 5 6 
#
# 1 0.020744 -0.005748 -0.006020 0.000000 0.000000 0.000000
# 2 -0.005748 0.014889 -0.004959 0.000000 0.000000 0.000000
# 3 -0.006020 -0.004959 0.012918 0.000000 0.000000 0.000000
# 4 0.000000 0.000000 0.000000 0.033640 0.000000 0.000000
# 5 0.000000 0.000000 0.000000 0.000000 0.027183 0.000000
# 6 0.000000 0.000000 0.000000 0.000000 0.000000 0.037633
#
#
# Mechanical properties :
#
#
# Convention : Reuss Voigt Hill
#
# Bulk Modulus (GPa) = 66.22939 71.39976 68.81457
# Shear Modulus (GPa) = 26.95520 28.31194 27.63357
#
# Velocity S-wave (km/s) = 3.84620 3.94181 3.89430
# Velocity P-wave (km/s) = 7.48811 7.73964 7.61491
#
# Compressibility (1/GPa) = 0.01509904
#
# Stress axis : x y z
#
# Youngs Moduli (GPa) = 48.20632 67.16509 77.40857
#
# Poissons Ratio (x) = 0.38604 0.46600
# Poissons Ratio (y) = 0.27707 0.38383
# Poissons Ratio (z) = 0.29020 0.33304
#
# Static dielectric constant tensor:
#      x y z
#    x 3.352540 0.000000 0.000000 
#    y 0.000000 3.465980 0.000000 
#    z 0.000000 0.000000 3.423900 
# 
# 
# High freq. dielectric constant tensor:
#      x y z
#    x 1.709270 0.000000 0.000000 
#    y 0.000000 1.709280 0.000000 
#    z 0.000000 0.000000 1.708520 
# 
# From -- ./inp_files/57339.got.cif
#   From: 2010.03.12/outbox.cif.g09.slc.cpg/sg74_29_cif.got.tgz:57339.got - 2010.04.16 15:46:19.
