data_PCOD8299463
_publ_section_title
;
Structure prediction by ZEFSAII (Michael W. Deem and Ramdas Pophale) SiO2 
 PCOD8299463
Probable space group: I M M A
;
_chemical_formula_sum "Si O2"
_cell_formula_units_Z 72
_cell_length_a 14.123192
_cell_length_b 25.022306
_cell_length_c 10.508002
_cell_angle_alpha 90.000000
_cell_angle_beta 90.000000
_cell_angle_gamma 90.000000
_cell_volume 3713.473601
_symmetry_space_group_name_H-M "I M M A"
_symmetry_group_IT_number 74
_symmetry_cell_setting 'orthorhombic'
loop_
_space_group_symop_operation_xyz
x,y,z
-x,1/2-y,z
x,-y,-z
-x,1/2+y,-z
-x,-y,-z
x,1/2+y,-z
-x,y,z
x,1/2-y,z
1/2+x,1/2+y,1/2+z
1/2-x,-y,1/2+z
1/2+x,1/2-y,1/2-z
1/2-x,y,1/2-z
1/2-x,1/2-y,1/2-z
1/2+x,y,1/2-z
1/2-x,1/2+y,1/2+z
1/2+x,-y,1/2+z
loop_
_atom_site_type_symbol
_atom_site_label
_atom_site_fract_x
_atom_site_fract_y
_atom_site_fract_z
Si Si1 0.893109 0.189738 0.517457
Si Si2 0.250000 0.968587 0.250000
Si Si3 0.264293 0.111617 0.528876
Si Si4 0.605585 0.309806 0.681132
Si Si5 0.894305 0.038019 0.120208
O O1 0.865910 0.250000 0.472604
O O2 0.821779 0.144620 0.462561
O O3 0.885469 0.186065 0.668544
O O4 0.000000 0.176574 0.472403
O O5 0.227170 0.935071 0.377630
O O6 0.157088 0.005488 0.232835
O O7 0.322267 0.150965 0.617455
O O8 0.330463 0.089285 0.416385
O O9 0.500000 0.325703 0.638186
O O10 0.629890 0.250000 0.635924
O O11 0.000000 0.055756 0.164518
O O12 0.904102 0.000000 0.000000
#
# Coordination Sequence:
#
# PCOD8299463 Si02
#       5
#    16   8  16  16  16
#     4   9  17  27  41  67 102 132 154 182 232 296
#     4  10  20  32  47  68  93 130 164 202 240 276
#     4  11  17  29  49  70  94 131 166 194 233 287
#     4   9  16  25  41  69 100 127 155 189 235 293
#     4   9  20  35  50  69  93 124 167 209 243 277
#
# _framework density 19.388853000000001
#
# number of rings (size 3 to 8) (size 9 to 14) (size 15 to 20)
#    0.000    2.444    2.222    2.667    0.000    3.556 
#    0.000    1.111    0.000    4.000    0.000    3.111 
#    0.000    3.556    0.000    0.000    0.000    0.000 
#
# Total GULP energy -446239.589276 kJ/mol
# GULP energy per Si atom -12395.544147 kJ/mol
# Density = 1.934472 g / cm^3
# Si number density = 19.388853 Si / 1000 Ang^3
#
#
#
# Elastic Constant Matrix: (Units=GPa)
#
#
# Indices 1 2 3 4 5 6 
#
# 1 157.7068 88.8336 29.4745 0.0001 0.0000 0.0000
# 2 88.8336 95.4645 17.8628 0.0005 0.0000 -0.0001
# 3 29.4745 17.8628 18.5103 0.0011 -0.0001 -0.0002
# 4 0.0001 0.0005 0.0011 12.4919 -0.0001 -0.0001
# 5 0.0000 0.0000 -0.0001 -0.0001 18.6954 0.0000
# 6 0.0000 -0.0001 -0.0002 -0.0001 0.0000 41.2290
#
#
#
# Elastic Compliance Matrix: (Units=1/GPa)
#
#
# Indices 1 2 3 4 5 6 
#
# 1 0.015588 -0.012034 -0.013208 0.000002 0.000000 0.000000
# 2 -0.012034 0.022073 -0.002140 -0.000001 0.000000 0.000000
# 3 -0.013208 -0.002140 0.077121 -0.000007 0.000000 0.000000
# 4 0.000002 -0.000001 -0.000007 0.080052 0.000000 0.000000
# 5 0.000000 0.000000 0.000000 0.000000 0.053489 0.000000
# 6 0.000000 0.000000 0.000000 0.000000 0.000000 0.024255
#
#
# Mechanical properties :
#
#
# Convention : Reuss Voigt Hill
#
# Bulk Modulus (GPa) = 16.66147 60.44704 38.55425
# Shear Modulus (GPa) = 14.39488 23.51733 18.95611
#
# Velocity S-wave (km/s) = 2.72771 3.48649 3.13018
# Velocity P-wave (km/s) = 4.30494 6.88850 5.74386
#
# Compressibility (1/GPa) = 0.06001873
#
# Stress axis : x y z
#
# Youngs Moduli (GPa) = 64.15305 45.30388 12.96671
#
# Poissons Ratio (x) = 0.54517 0.17127
# Poissons Ratio (y) = 0.77199 0.02774
# Poissons Ratio (z) = 0.84735 0.09693
#
# Static dielectric constant tensor:
#      x y z
#    x 4.145930 0.000000 0.000000 
#    y 0.000000 3.884360 0.000000 
#    z 0.000000 0.000000 2.917810 
# 
# 
# High freq. dielectric constant tensor:
#      x y z
#    x 1.769730 0.000000 0.000000 
#    y 0.000000 1.760360 0.000000 
#    z 0.000000 0.000000 1.684190 
# 
# From -- ./inp_files/20383.got.cif
#   From: 2010.03.12/outbox.cif.g09.slc.cpg/sg74_11_cif.got.tgz:20383.got - 2010.04.16 15:46:19.
