data_PCOD8299618
_publ_section_title
;
Structure prediction by ZEFSAII (Michael W. Deem and Ramdas Pophale) SiO2 
 PCOD8299618
Probable space group: I M M A
;
_chemical_formula_sum "Si O2"
_cell_formula_units_Z 112
_cell_length_a 14.902726
_cell_length_b 27.349586
_cell_length_c 14.033386
_cell_angle_alpha 90.000000
_cell_angle_beta 90.000000
_cell_angle_gamma 90.000000
_cell_volume 5719.774988
_symmetry_space_group_name_H-M "I M M A"
_symmetry_group_IT_number 74
_symmetry_cell_setting 'orthorhombic'
loop_
_space_group_symop_operation_xyz
x,y,z
-x,1/2-y,z
x,-y,-z
-x,1/2+y,-z
-x,-y,-z
x,1/2+y,-z
-x,y,z
x,1/2-y,z
1/2+x,1/2+y,1/2+z
1/2-x,-y,1/2+z
1/2+x,1/2-y,1/2-z
1/2-x,y,1/2-z
1/2-x,1/2-y,1/2-z
1/2+x,y,1/2-z
1/2-x,1/2+y,1/2+z
1/2+x,-y,1/2+z
loop_
_atom_site_type_symbol
_atom_site_label
_atom_site_fract_x
_atom_site_fract_y
_atom_site_fract_z
Si Si1 0.773231 0.694825 0.990342
Si Si2 0.900662 0.440119 0.085621
Si Si3 0.602716 0.161538 0.325933
Si Si4 0.900472 0.043142 0.573542
Si Si5 0.781154 0.594899 0.078573
Si Si6 0.344613 0.521748 0.277078
Si Si7 0.599557 0.306781 0.120835
O O1 0.780137 0.750000 0.033579
O O2 0.836896 0.692829 0.898203
O O3 0.670859 0.682096 0.961830
O O4 0.801305 0.653147 0.067214
O O5 0.885534 0.395816 0.157856
O O6 0.893843 0.490320 0.143154
O O7 0.000000 0.437510 0.039699
O O8 0.828151 0.437329 0.002744
O O9 0.500000 0.179097 0.339509
O O10 0.634374 0.168540 0.217760
O O11 0.825451 0.085267 0.567987
O O12 0.904866 0.024268 0.682716
O O13 0.000000 0.063735 0.548463
O O14 0.875521 0.000000 0.500000
O O15 0.821036 0.575809 0.178998
O O16 0.250000 0.496299 0.250000
O O17 0.500000 0.326126 0.091136
O O18 0.595175 0.250000 0.142726
#
# Coordination Sequence:
#
# PCOD8299618 Si02
#       7
#    16  16  16  16  16  16  16
#     4  10  20  33  50  72  99 136 182 229 275 320
#     4  10  20  33  52  80 111 144 179 212 254 313
#     4   9  18  30  45  70 104 141 180 221 266 316
#     4  10  21  37  58  83 109 140 175 211 261 323
#     4  10  21  36  54  79 110 142 178 221 265 310
#     4  10  20  35  54  76 108 142 173 213 260 314
#     4   9  17  29  46  70 102 141 183 224 267 316
#
# _framework density 19.581189999999999
#
# number of rings (size 3 to 8) (size 9 to 14) (size 15 to 20)
#    0.000    2.286    0.000    3.429    0.000    7.714 
#    0.000    2.857    0.000    3.857    0.000    0.000 
#    0.000    0.000    0.000    0.000    0.000    0.000 
#
# Total GULP energy -694122.834711 kJ/mol
# GULP energy per Si atom -12395.050620 kJ/mol
# Density = 1.953662 g / cm^3
# Si number density = 19.581190 Si / 1000 Ang^3
#
#
#
# Elastic Constant Matrix: (Units=GPa)
#
#
# Indices 1 2 3 4 5 6 
#
# 1 78.1348 22.2557 18.5815 0.0001 0.0000 0.0000
# 2 22.2557 94.1070 41.6165 0.0000 0.0000 0.0000
# 3 18.5815 41.6165 77.1022 0.0005 0.0001 -0.0001
# 4 0.0001 0.0000 0.0005 23.2126 0.0000 0.0000
# 5 0.0000 0.0000 0.0001 0.0000 19.7548 0.0000
# 6 0.0000 0.0000 -0.0001 0.0000 0.0000 21.6837
#
#
#
# Elastic Compliance Matrix: (Units=1/GPa)
#
#
# Indices 1 2 3 4 5 6 
#
# 1 0.013972 -0.002384 -0.002080 0.000000 0.000000 0.000000
# 2 -0.002384 0.014365 -0.007179 0.000000 0.000000 0.000000
# 3 -0.002080 -0.007179 0.017346 0.000000 0.000000 0.000000
# 4 0.000000 0.000000 0.000000 0.043080 0.000000 0.000000
# 5 0.000000 0.000000 0.000000 0.000000 0.050621 0.000000
# 6 0.000000 0.000000 0.000000 0.000000 0.000000 0.046118
#
#
# Mechanical properties :
#
#
# Convention : Reuss Voigt Hill
#
# Bulk Modulus (GPa) = 44.65096 46.02794 45.33945
# Shear Modulus (GPa) = 23.12098 24.05623 23.58860
#
# Velocity S-wave (km/s) = 3.43997 3.50885 3.47458
# Velocity P-wave (km/s) = 6.21533 6.32244 6.26912
#
# Compressibility (1/GPa) = 0.02239594
#
# Stress axis : x y z
#
# Youngs Moduli (GPa) = 71.57025 69.61470 57.65020
#
# Poissons Ratio (x) = 0.16599 0.11993
# Poissons Ratio (y) = 0.17065 0.41386
# Poissons Ratio (z) = 0.14889 0.49975
#
# Static dielectric constant tensor:
#      x y z
#    x 3.840450 0.000000 0.000000 
#    y 0.000000 3.417810 0.000000 
#    z 0.000000 0.000000 3.389610 
# 
# 
# High freq. dielectric constant tensor:
#      x y z
#    x 1.778530 0.000000 0.000000 
#    y 0.000000 1.745470 0.000000 
#    z 0.000000 0.000000 1.736380 
# 
# From -- ./inp_files/33166.got.cif
#   From: 2010.03.12/outbox.cif.g09.slc.cpg/sg74_17_cif.got.tgz:33166.got - 2010.04.16 15:46:19.
