data_PCOD8299316
_publ_section_title
;
Structure prediction by ZEFSAII (Michael W. Deem and Ramdas Pophale) SiO2 
 PCOD8299316
Probable space group: I M M A
;
_chemical_formula_sum "Si O2"
_cell_formula_units_Z 80
_cell_length_a 15.909079
_cell_length_b 25.979278
_cell_length_c 9.547477
_cell_angle_alpha 90.000000
_cell_angle_beta 90.000000
_cell_angle_gamma 90.000000
_cell_volume 3946.033215
_symmetry_space_group_name_H-M "I M M A"
_symmetry_group_IT_number 74
_symmetry_cell_setting 'orthorhombic'
loop_
_space_group_symop_operation_xyz
x,y,z
-x,1/2-y,z
x,-y,-z
-x,1/2+y,-z
-x,-y,-z
x,1/2+y,-z
-x,y,z
x,1/2-y,z
1/2+x,1/2+y,1/2+z
1/2-x,-y,1/2+z
1/2+x,1/2-y,1/2-z
1/2-x,y,1/2-z
1/2-x,1/2-y,1/2-z
1/2+x,y,1/2-z
1/2-x,1/2+y,1/2+z
1/2+x,-y,1/2+z
loop_
_atom_site_type_symbol
_atom_site_label
_atom_site_fract_x
_atom_site_fract_y
_atom_site_fract_z
Si Si1 0.195945 0.642876 0.527759
Si Si2 0.869111 0.854692 0.812589
Si Si3 0.500000 0.971110 0.271622
Si Si4 0.090111 0.750000 0.930063
Si Si5 0.262562 0.250000 0.911722
Si Si6 0.819074 0.961814 0.370181
Si Si7 0.000000 0.074254 0.055335
O O1 0.124850 0.633181 0.646010
O O2 0.278376 0.643723 0.620414
O O3 0.186057 0.698853 0.455798
O O4 0.193327 0.597641 0.413808
O O5 0.908702 0.798753 0.828626
O O6 0.916920 0.897438 0.898337
O O7 0.584587 0.969166 0.178942
O O8 0.500000 0.925305 0.385623
O O9 0.500000 0.020170 0.369435
O O10 0.000000 0.750000 0.012038
O O11 0.167412 0.750000 0.034476
O O12 0.250000 0.250000 0.750000
O O13 0.750000 0.974816 0.250000
O O14 0.801171 0.000000 0.500000
#
# Coordination Sequence:
#
# PCOD8299316 Si02
#       7
#    16  16   8   8   8  16   8
#     4  10  22  39  64  94 127 166 215 266 330 396
#     4  10  20  37  65  93 124 163 212 265 325 393
#     4  11  27  44  62  95 132 170 225 277 331 394
#     4  10  19  37  59  97 120 159 213 263 311 393
#     4  10  21  39  65  87 129 171 211 265 331 400
#     4  12  27  44  70  97 135 176 225 275 338 404
#     4  11  22  39  66  87 126 169 215 266 335 386
#
# _framework density 20.273523999999998
#
# number of rings (size 3 to 8) (size 9 to 14) (size 15 to 20)
#    0.000    1.400    1.000    3.900    8.400    4.800 
#    0.000    0.000    2.200    0.000    0.000    0.000 
#    0.000    0.000    0.000    0.000    0.000    0.000 
#
# Total GULP energy -495744.303218 kJ/mol
# GULP energy per Si atom -12393.607580 kJ/mol
# Density = 2.022738 g / cm^3
# Si number density = 20.273524 Si / 1000 Ang^3
#
#
#
# Elastic Constant Matrix: (Units=GPa)
#
#
# Indices 1 2 3 4 5 6 
#
# 1 88.3424 28.8586 40.5715 0.0000 -0.0002 0.0000
# 2 28.8586 123.0998 55.4314 0.0006 0.0000 -0.0001
# 3 40.5715 55.4314 139.8158 0.0032 0.0034 0.0002
# 4 0.0000 0.0006 0.0032 33.8917 0.0004 -0.0001
# 5 -0.0002 0.0000 0.0034 0.0004 22.0763 -0.0002
# 6 0.0000 -0.0001 0.0002 -0.0001 -0.0002 31.6511
#
#
#
# Elastic Compliance Matrix: (Units=1/GPa)
#
#
# Indices 1 2 3 4 5 6 
#
# 1 0.013341 -0.001685 -0.003203 0.000000 0.000001 0.000000
# 2 -0.001685 0.010102 -0.003516 0.000000 0.000001 0.000000
# 3 -0.003203 -0.003516 0.009476 -0.000001 -0.000001 0.000000
# 4 0.000000 0.000000 -0.000001 0.029506 -0.000001 0.000000
# 5 0.000001 0.000001 -0.000001 -0.000001 0.045297 0.000000
# 6 0.000000 0.000000 0.000000 0.000000 0.000000 0.031594
#
#
# Mechanical properties :
#
#
# Convention : Reuss Voigt Hill
#
# Bulk Modulus (GPa) = 62.07349 66.77568 64.42458
# Shear Modulus (GPa) = 30.96074 32.61694 31.78884
#
# Velocity S-wave (km/s) = 3.91212 4.01539 3.96409
# Velocity P-wave (km/s) = 7.14778 7.38287 7.26627
#
# Compressibility (1/GPa) = 0.01610994
#
# Stress axis : x y z
#
# Youngs Moduli (GPa) = 74.95592 98.99258 105.53313
#
# Poissons Ratio (x) = 0.16682 0.33804
# Poissons Ratio (y) = 0.12632 0.37105
# Poissons Ratio (z) = 0.24010 0.34805
#
# Static dielectric constant tensor:
#      x y z
#    x 3.474450 0.000000 0.000000 
#    y 0.000000 4.258550 -0.000010 
#    z 0.000000 -0.000010 3.941590 
# 
# 
# High freq. dielectric constant tensor:
#      x y z
#    x 1.790130 0.000000 0.000000 
#    y 0.000000 1.807300 0.000000 
#    z 0.000000 0.000000 1.796610 
# 
# From -- ./inp_files/11066.got.cif
#   From: 2010.03.12/outbox.cif.g09.slc.cpg/sg74_6_cif.got.tgz:11066.got - 2010.04.16 15:46:19.
