data_PCOD8299335
_publ_section_title
;
Structure prediction by ZEFSAII (Michael W. Deem and Ramdas Pophale) SiO2 
 PCOD8299335
Probable space group: I M M A
;
_chemical_formula_sum "Si O2"
_cell_formula_units_Z 96
_cell_length_a 14.322226
_cell_length_b 23.048443
_cell_length_c 13.961497
_cell_angle_alpha 90.000000
_cell_angle_beta 90.000000
_cell_angle_gamma 90.000000
_cell_volume 4608.760101
_symmetry_space_group_name_H-M "I M M A"
_symmetry_group_IT_number 74
_symmetry_cell_setting 'orthorhombic'
loop_
_space_group_symop_operation_xyz
x,y,z
-x,1/2-y,z
x,-y,-z
-x,1/2+y,-z
-x,-y,-z
x,1/2+y,-z
-x,y,z
x,1/2-y,z
1/2+x,1/2+y,1/2+z
1/2-x,-y,1/2+z
1/2+x,1/2-y,1/2-z
1/2-x,y,1/2-z
1/2-x,1/2-y,1/2-z
1/2+x,y,1/2-z
1/2-x,1/2+y,1/2+z
1/2+x,-y,1/2+z
loop_
_atom_site_type_symbol
_atom_site_label
_atom_site_fract_x
_atom_site_fract_y
_atom_site_fract_z
Si Si1 0.000000 0.872461 0.176708
Si Si2 0.189922 0.684223 0.160562
Si Si3 0.500000 0.996987 0.614496
Si Si4 0.344844 0.185706 0.987629
Si Si5 0.000000 0.620520 0.385148
Si Si6 0.500000 0.009655 0.114226
Si Si7 0.391496 0.685956 0.802768
Si Si8 0.357301 0.436999 0.254228
O O1 0.904376 0.848928 0.132387
O O2 0.000000 0.846296 0.284658
O O3 0.000000 0.940679 0.162088
O O4 0.165259 0.750000 0.188641
O O5 0.250000 0.657180 0.250000
O O6 0.245337 0.679452 0.061719
O O7 0.592427 0.963936 0.652700
O O8 0.500000 0.000000 0.500000
O O9 0.387484 0.250000 0.966363
O O10 0.410084 0.135235 0.947329
O O11 0.331591 0.177569 0.100655
O O12 0.000000 0.555066 0.346455
O O13 0.591120 0.043244 0.155363
O O14 0.500000 0.000000 0.000000
O O15 0.500000 0.681942 0.830701
O O16 0.369881 0.750000 0.757092
O O17 0.362868 0.633231 0.733247
O O18 0.250000 0.457705 0.250000
#
# Coordination Sequence:
#
# PCOD8299335 Si02
#       8
#     8  16   8  16   8   8  16  16
#     4  12  23  37  59  79 115 168 220 261 313 378
#     4  10  21  34  53  84 124 166 212 258 310 382
#     4  11  27  49  65  87 126 172 225 271 319 383
#     4  10  20  33  56  95 131 163 202 257 329 391
#     4  12  19  31  56  85 117 158 205 264 312 376
#     4  11  23  41  62  93 130 164 218 275 318 376
#     4  10  19  37  68  99 129 159 201 260 322 388
#     4  11  24  44  68  97 131 168 215 268 330 388
#
# _framework density 20.829896999999999
#
# number of rings (size 3 to 8) (size 9 to 14) (size 15 to 20)
#    0.000    1.333    5.833    1.500    0.000    5.000 
#    0.000    0.000    0.000    2.000    0.000    0.000 
#    0.000    0.000    0.000    0.000    0.000    0.000 
#
# Total GULP energy -594943.566334 kJ/mol
# GULP energy per Si atom -12394.657632 kJ/mol
# Density = 2.078249 g / cm^3
# Si number density = 20.829897 Si / 1000 Ang^3
#
#
#
# Elastic Constant Matrix: (Units=GPa)
#
#
# Indices 1 2 3 4 5 6 
#
# 1 147.0611 54.0032 40.7297 0.0001 0.0000 0.0000
# 2 54.0032 130.3996 29.0797 -0.0001 0.0000 0.0000
# 3 40.7297 29.0797 101.2942 0.0000 0.0000 0.0000
# 4 0.0001 -0.0001 0.0000 25.0448 0.0000 0.0000
# 5 0.0000 0.0000 0.0000 0.0000 20.9475 0.0000
# 6 0.0000 0.0000 0.0000 0.0000 0.0000 13.7866
#
#
#
# Elastic Compliance Matrix: (Units=1/GPa)
#
#
# Indices 1 2 3 4 5 6 
#
# 1 0.008619 -0.002988 -0.002608 0.000000 0.000000 0.000000
# 2 -0.002988 0.009229 -0.001448 0.000000 0.000000 0.000000
# 3 -0.002608 -0.001448 0.011337 0.000000 0.000000 0.000000
# 4 0.000000 0.000000 0.000000 0.039929 0.000000 0.000000
# 5 0.000000 0.000000 0.000000 0.000000 0.047738 0.000000
# 6 0.000000 0.000000 0.000000 0.000000 0.000000 0.072534
#
#
# Mechanical properties :
#
#
# Convention : Reuss Voigt Hill
#
# Bulk Modulus (GPa) = 66.23833 69.59778 67.91805
# Shear Modulus (GPa) = 23.98003 28.95192 26.46598
#
# Velocity S-wave (km/s) = 3.39666 3.73221 3.56838
# Velocity P-wave (km/s) = 6.87399 7.21509 7.04660
#
# Compressibility (1/GPa) = 0.01509700
#
# Stress axis : x y z
#
# Youngs Moduli (GPa) = 116.01664 108.35284 88.20981
#
# Poissons Ratio (x) = 0.32376 0.23005
# Poissons Ratio (y) = 0.34666 0.12773
# Poissons Ratio (z) = 0.30257 0.15690
#
# Static dielectric constant tensor:
#      x y z
#    x 3.700980 0.000000 0.000000 
#    y 0.000000 4.027460 0.000000 
#    z 0.000000 0.000000 3.529730 
# 
# 
# High freq. dielectric constant tensor:
#      x y z
#    x 1.808650 0.000000 0.000000 
#    y 0.000000 1.823720 0.000000 
#    z 0.000000 0.000000 1.795330 
# 
# From -- ./inp_files/32495.got.cif
#   From: 2010.03.12/outbox.cif.g09.slc.cpg/sg74_17_cif.got.tgz:32495.got - 2010.04.16 15:46:19.
