data_PCOD8299393
_publ_section_title
;
Structure prediction by ZEFSAII (Michael W. Deem and Ramdas Pophale) SiO2 
 PCOD8299393
Probable space group: I M M A
;
_chemical_formula_sum "Si O2"
_cell_formula_units_Z 104
_cell_length_a 17.115678
_cell_length_b 14.108226
_cell_length_c 24.024737
_cell_angle_alpha 90.000000
_cell_angle_beta 90.000000
_cell_angle_gamma 90.000000
_cell_volume 5801.297770
_symmetry_space_group_name_H-M "I M M A"
_symmetry_group_IT_number 74
_symmetry_cell_setting 'orthorhombic'
loop_
_space_group_symop_operation_xyz
x,y,z
-x,1/2-y,z
x,-y,-z
-x,1/2+y,-z
-x,-y,-z
x,1/2+y,-z
-x,y,z
x,1/2-y,z
1/2+x,1/2+y,1/2+z
1/2-x,-y,1/2+z
1/2+x,1/2-y,1/2-z
1/2-x,y,1/2-z
1/2-x,1/2-y,1/2-z
1/2+x,y,1/2-z
1/2-x,1/2+y,1/2+z
1/2+x,-y,1/2+z
loop_
_atom_site_type_symbol
_atom_site_label
_atom_site_fract_x
_atom_site_fract_y
_atom_site_fract_z
Si Si1 0.811604 0.860686 0.473208
Si Si2 0.592668 0.144149 0.296115
Si Si3 0.317476 0.000000 0.500000
Si Si4 0.592605 0.641468 0.579595
Si Si5 0.911193 0.361641 0.420084
Si Si6 0.090783 0.354262 0.635130
Si Si7 0.408231 0.960786 0.809439
O O1 0.788619 0.750000 0.475986
O O2 0.856858 0.893519 0.528821
O O3 0.866236 0.882706 0.421165
O O4 0.734581 0.924367 0.466098
O O5 0.500000 0.136500 0.297180
O O6 0.618785 0.250000 0.280198
O O7 0.622773 0.118130 0.357819
O O8 0.629379 0.075635 0.248554
O O9 0.370472 0.938204 0.540903
O O10 0.500000 0.632822 0.575062
O O11 0.617613 0.750000 0.563816
O O12 0.909790 0.250000 0.412962
O O13 0.875466 0.406285 0.363654
O O14 0.000000 0.397122 0.430850
O O15 0.115437 0.250000 0.656306
O O16 0.111257 0.427702 0.684320
O O17 0.000000 0.358506 0.619865
O O18 0.500000 0.940601 0.806932
#
# Coordination Sequence:
#
# PCOD8299393 Si02
#       7
#    16  16   8  16  16  16  16
#     4  10  20  31  44  65  96 132 166 200 237 274
#     4   8  14  27  48  73  97 116 138 178 235 291
#     4  12  21  32  51  74  96 122 152 190 233 280
#     4   9  19  36  57  78  97 117 143 180 232 294
#     4   9  16  26  42  66  96 129 165 203 237 268
#     4   9  17  29  44  63  92 133 175 206 229 258
#     4   9  15  23  41  69  95 120 155 197 236 272
#
# _framework density 17.927023999999999
#
# number of rings (size 3 to 8) (size 9 to 14) (size 15 to 20)
#    0.000    2.769    0.000    3.462    0.000    3.692 
#    0.000    3.077    0.000    5.538    0.000   19.385 
#    0.000    0.000    0.000    0.000    0.000    0.000 
#
# Total GULP energy -644480.165976 kJ/mol
# GULP energy per Si atom -12393.849346 kJ/mol
# Density = 1.788622 g / cm^3
# Si number density = 17.927024 Si / 1000 Ang^3
#
#
#
# Elastic Constant Matrix: (Units=GPa)
#
#
# Indices 1 2 3 4 5 6 
#
# 1 36.9236 34.4448 32.5453 0.0000 0.0000 0.0000
# 2 34.4448 105.0110 87.6047 0.0000 0.0000 0.0000
# 3 32.5453 87.6047 128.9724 0.0000 0.0000 0.0000
# 4 0.0000 0.0000 0.0000 35.9360 0.0000 0.0000
# 5 0.0000 0.0000 0.0000 0.0000 0.0774 0.0000
# 6 0.0000 0.0000 0.0000 0.0000 0.0000 24.4793
#
#
#
# Elastic Compliance Matrix: (Units=1/GPa)
#
#
# Indices 1 2 3 4 5 6 
#
# 1 0.039424 -0.010689 -0.002687 0.000000 0.000000 0.000000
# 2 -0.010689 0.024874 -0.014198 0.000000 0.000000 0.000000
# 3 -0.002687 -0.014198 0.018076 0.000000 0.000000 0.000000
# 4 0.000000 0.000000 0.000000 0.027827 0.000000 0.000000
# 5 0.000000 0.000000 0.000000 0.000000 12.916553 0.000000
# 6 0.000000 0.000000 0.000000 0.000000 0.000000 0.040851
#
#
# Mechanical properties :
#
#
# Convention : Reuss Voigt Hill
#
# Bulk Modulus (GPa) = 36.73338 64.45517 50.59428
# Shear Modulus (GPa) = 0.38075 19.85268 10.11672
#
# Velocity S-wave (km/s) = 0.46136 3.33140 2.37814
# Velocity P-wave (km/s) = 4.56276 7.12951 5.98534
#
# Compressibility (1/GPa) = 0.02722320
#
# Stress axis : x y z
#
# Youngs Moduli (GPa) = 25.36552 40.20302 55.32237
#
# Poissons Ratio (x) = 0.42975 0.14868
# Poissons Ratio (y) = 0.27114 0.78547
# Poissons Ratio (z) = 0.06817 0.57081
#
# Static dielectric constant tensor:
#      x y z
#    x 2.960600 0.000000 0.000000 
#    y 0.000000 3.542330 0.000000 
#    z 0.000000 0.000000 3.406190 
# 
# 
# High freq. dielectric constant tensor:
#      x y z
#    x 1.653760 0.000000 0.000000 
#    y 0.000000 1.704570 0.000000 
#    z 0.000000 0.000000 1.682900 
# 
# From -- ./inp_files/53065.got.cif
#   From: 2010.03.12/outbox.cif.g09.slc.cpg/sg74_27_cif.got.tgz:53065.got - 2010.04.16 15:46:19.
