data_PCOD8299956
_publ_section_title
;
Structure prediction by ZEFSAII (Michael W. Deem and Ramdas Pophale) SiO2 
 PCOD8299956
Probable space group: I M M A
;
_chemical_formula_sum "Si O2"
_cell_formula_units_Z 96
_cell_length_a 9.324522
_cell_length_b 18.730571
_cell_length_c 29.882864
_cell_angle_alpha 90.000000
_cell_angle_beta 90.000000
_cell_angle_gamma 90.000000
_cell_volume 5219.150414
_symmetry_space_group_name_H-M "I M M A"
_symmetry_group_IT_number 74
_symmetry_cell_setting 'orthorhombic'
loop_
_space_group_symop_operation_xyz
x,y,z
-x,1/2-y,z
x,-y,-z
-x,1/2+y,-z
-x,-y,-z
x,1/2+y,-z
-x,y,z
x,1/2-y,z
1/2+x,1/2+y,1/2+z
1/2-x,-y,1/2+z
1/2+x,1/2-y,1/2-z
1/2-x,y,1/2-z
1/2-x,1/2-y,1/2-z
1/2+x,y,1/2-z
1/2-x,1/2+y,1/2+z
1/2+x,-y,1/2+z
loop_
_atom_site_type_symbol
_atom_site_label
_atom_site_fract_x
_atom_site_fract_y
_atom_site_fract_z
Si Si1 0.836681 0.330377 0.710074
Si Si2 0.165826 0.331845 0.947867
Si Si3 0.334974 0.931915 0.526024
Si Si4 0.670137 0.437181 0.373706
Si Si5 0.667442 0.167710 0.294356
Si Si6 0.166774 0.920851 0.376245
O O1 0.780309 0.250000 0.704063
O O2 0.750000 0.368928 0.750000
O O3 0.809371 0.366149 0.663248
O O4 0.000000 0.333522 0.724818
O O5 0.218739 0.250000 0.944439
O O6 0.262326 0.385008 0.919285
O O7 0.000000 0.338620 0.932925
O O8 0.185323 0.358401 0.998855
O O9 0.500000 0.952178 0.532186
O O10 0.273975 0.918361 0.576008
O O11 0.262602 0.000000 0.500000
O O12 0.500000 0.449465 0.371860
O O13 0.716062 0.376277 0.338315
O O14 0.752051 0.508722 0.360246
O O15 0.500000 0.157166 0.284841
O O16 0.705636 0.250000 0.304234
O O17 0.750000 0.140437 0.250000
O O18 0.000000 0.936553 0.386031
#
# Coordination Sequence:
#
# PCOD8299956 Si02
#       6
#    16  16  16  16  16  16
#     4   9  19  35  52  70  95 130 170 213 260 306
#     4  10  20  34  55  81 105 137 182 224 267 321
#     4   9  16  31  54  77 105 137 172 222 275 315
#     4  10  20  35  57  81 108 142 182 224 268 323
#     4   9  19  36  58  83 111 145 183 227 281 335
#     4  11  22  35  52  76 109 143 175 215 267 323
#
# _framework density 18.393799000000001
#
# number of rings (size 3 to 8) (size 9 to 14) (size 15 to 20)
#    0.000    2.333    1.667    1.000    0.000    4.333 
#    0.000   10.000    0.000    0.000    0.000    2.333 
#    0.000    0.000    0.000    0.000    0.000    0.000 
#
# Total GULP energy -595022.660288 kJ/mol
# GULP energy per Si atom -12396.305423 kJ/mol
# Density = 1.835193 g / cm^3
# Si number density = 18.393799 Si / 1000 Ang^3
#
#
#
# Elastic Constant Matrix: (Units=GPa)
#
#
# Indices 1 2 3 4 5 6 
#
# 1 47.7633 35.8993 46.1087 0.0000 0.0000 0.0000
# 2 35.8993 98.0889 51.9615 0.0000 0.0000 0.0000
# 3 46.1087 51.9615 133.0017 0.0000 0.0000 0.0000
# 4 0.0000 0.0000 0.0000 80.3207 0.0000 0.0000
# 5 0.0000 0.0000 0.0000 0.0000 22.3439 0.0000
# 6 0.0000 0.0000 0.0000 0.0000 0.0000 16.9133
#
#
#
# Elastic Compliance Matrix: (Units=1/GPa)
#
#
# Indices 1 2 3 4 5 6 
#
# 1 0.036145 -0.008311 -0.009284 0.000000 0.000000 0.000000
# 2 -0.008311 0.014766 -0.002888 0.000000 0.000000 0.000000
# 3 -0.009284 -0.002888 0.011865 0.000000 0.000000 0.000000
# 4 0.000000 0.000000 0.000000 0.012450 0.000000 0.000000
# 5 0.000000 0.000000 0.000000 0.000000 0.044755 0.000000
# 6 0.000000 0.000000 0.000000 0.000000 0.000000 0.059125
#
#
# Mechanical properties :
#
#
# Convention : Reuss Voigt Hill
#
# Bulk Modulus (GPa) = 45.84593 60.75477 53.30035
# Shear Modulus (GPa) = 21.99323 33.57452 27.78388
#
# Velocity S-wave (km/s) = 3.46162 4.27701 3.89073
# Velocity P-wave (km/s) = 6.39968 7.58236 7.01598
#
# Compressibility (1/GPa) = 0.02181219
#
# Stress axis : x y z
#
# Youngs Moduli (GPa) = 27.66612 67.72229 84.27836
#
# Poissons Ratio (x) = 0.56282 0.78244
# Poissons Ratio (y) = 0.22992 0.24338
# Poissons Ratio (z) = 0.25685 0.19557
#
# Static dielectric constant tensor:
#      x y z
#    x 3.226570 0.000000 0.000000 
#    y 0.000000 3.538950 0.000000 
#    z 0.000000 0.000000 3.561870 
# 
# 
# High freq. dielectric constant tensor:
#      x y z
#    x 1.689580 0.000000 0.000000 
#    y 0.000000 1.710180 0.000000 
#    z 0.000000 0.000000 1.723780 
# 
# From -- ./inp_files/60806.got.cif
#   From: 2010.03.12/outbox.cif.g09.slc.cpg/sg74_31_cif.got.tgz:60806.got - 2010.04.16 15:46:19.
