data_PCOD8299833
_publ_section_title
;
Structure prediction by ZEFSAII (Michael W. Deem and Ramdas Pophale) SiO2 
 PCOD8299833
Probable space group: I M M A
;
_chemical_formula_sum "Si O2"
_cell_formula_units_Z 128
_cell_length_a 17.187522
_cell_length_b 25.038610
_cell_length_c 16.356773
_cell_angle_alpha 90.000000
_cell_angle_beta 90.000000
_cell_angle_gamma 90.000000
_cell_volume 7039.164416
_symmetry_space_group_name_H-M "I M M A"
_symmetry_group_IT_number 74
_symmetry_cell_setting 'orthorhombic'
loop_
_space_group_symop_operation_xyz
x,y,z
-x,1/2-y,z
x,-y,-z
-x,1/2+y,-z
-x,-y,-z
x,1/2+y,-z
-x,y,z
x,1/2-y,z
1/2+x,1/2+y,1/2+z
1/2-x,-y,1/2+z
1/2+x,1/2-y,1/2-z
1/2-x,y,1/2-z
1/2-x,1/2-y,1/2-z
1/2+x,y,1/2-z
1/2-x,1/2+y,1/2+z
1/2+x,-y,1/2+z
loop_
_atom_site_type_symbol
_atom_site_label
_atom_site_fract_x
_atom_site_fract_y
_atom_site_fract_z
Si Si1 0.311418 0.190989 0.177774
Si Si2 0.587068 0.812487 0.427981
Si Si3 0.907615 0.690326 0.256165
Si Si4 0.092031 0.406215 0.631152
Si Si5 0.318240 0.060460 0.023226
Si Si6 0.588053 0.975874 0.829992
Si Si7 0.588518 0.383253 0.280877
Si Si8 0.694199 0.362565 0.435504
O O1 0.345902 0.250000 0.162154
O O2 0.250000 0.192192 0.250000
O O3 0.381170 0.152280 0.204884
O O4 0.267681 0.172574 0.095091
O O5 0.500000 0.836836 0.440963
O O6 0.582326 0.750000 0.443147
O O7 0.617642 0.824532 0.336243
O O8 0.648491 0.835755 0.490997
O O9 0.876085 0.750000 0.280202
O O10 0.875437 0.644284 0.316795
O O11 0.000000 0.691702 0.259402
O O12 0.132829 0.405681 0.542990
O O13 0.114026 0.462039 0.677210
O O14 0.000000 0.400909 0.618590
O O15 0.361861 0.060842 0.109546
O O16 0.231188 0.082868 0.031430
O O17 0.308655 0.000000 0.000000
O O18 0.500000 0.974607 0.863404
O O19 0.595126 0.946208 0.742562
O O20 0.500000 0.366549 0.297581
O O21 0.635393 0.373995 0.362799
#
# Coordination Sequence:
#
# PCOD8299833 Si02
#       8
#    16  16  16  16  16  16  16  16
#     4   9  18  32  51  75 102 134 170 211 261 311
#     4   9  18  34  57  80 103 139 185 223 256 310
#     4   8  15  31  55  81 107 134 169 218 270 312
#     4   9  17  32  57  82 103 135 181 227 265 313
#     4  10  20  34  52  77 107 142 180 215 266 321
#     4   9  17  32  54  79 103 134 181 225 260 312
#     4  10  20  34  54  76 103 141 179 219 263 309
#     4  11  20  34  52  75 111 142 174 215 267 320
#
# _framework density 18.183976000000001
#
# number of rings (size 3 to 8) (size 9 to 14) (size 15 to 20)
#    0.000    2.625    1.250    1.875    0.000    2.250 
#    2.250    1.875    0.000    2.250    0.000    0.000 
#    0.000    0.000    0.000    0.000    0.000    0.000 
#
# Total GULP energy -793197.134773 kJ/mol
# GULP energy per Si atom -12393.705231 kJ/mol
# Density = 1.814259 g / cm^3
# Si number density = 18.183976 Si / 1000 Ang^3
#
#
#
# Elastic Constant Matrix: (Units=GPa)
#
#
# Indices 1 2 3 4 5 6 
#
# 1 74.3019 40.2766 40.4827 0.0000 0.0000 0.0000
# 2 40.2766 84.4015 63.7293 -0.0001 0.0000 0.0000
# 3 40.4827 63.7293 99.4443 -0.0002 0.0000 0.0000
# 4 0.0000 -0.0001 -0.0002 26.0048 0.0000 0.0000
# 5 0.0000 0.0000 0.0000 0.0000 8.3080 0.0000
# 6 0.0000 0.0000 0.0000 0.0000 0.0000 25.5412
#
#
#
# Elastic Compliance Matrix: (Units=1/GPa)
#
#
# Indices 1 2 3 4 5 6 
#
# 1 0.018830 -0.006196 -0.003695 0.000000 0.000000 0.000000
# 2 -0.006196 0.024995 -0.013496 0.000000 0.000000 0.000000
# 3 -0.003695 -0.013496 0.020209 0.000000 0.000000 0.000000
# 4 0.000000 0.000000 0.000000 0.038454 0.000000 0.000000
# 5 0.000000 0.000000 0.000000 0.000000 0.120366 0.000000
# 6 0.000000 0.000000 0.000000 0.000000 0.000000 0.039152
#
#
# Mechanical properties :
#
#
# Convention : Reuss Voigt Hill
#
# Bulk Modulus (GPa) = 57.93449 60.79165 59.36307
# Shear Modulus (GPa) = 15.89644 19.54806 17.72225
#
# Velocity S-wave (km/s) = 2.95990 3.28230 3.12526
# Velocity P-wave (km/s) = 6.60384 6.91872 6.76311
#
# Compressibility (1/GPa) = 0.01726087
#
# Stress axis : x y z
#
# Youngs Moduli (GPa) = 53.10563 40.00737 49.48263
#
# Poissons Ratio (x) = 0.24788 0.18284
# Poissons Ratio (y) = 0.32904 0.66782
# Poissons Ratio (z) = 0.19622 0.53994
#
# Static dielectric constant tensor:
#      x y z
#    x 3.298260 0.000000 0.000000 
#    y 0.000000 3.554720 0.000000 
#    z 0.000000 0.000000 3.379540 
# 
# 
# High freq. dielectric constant tensor:
#      x y z
#    x 1.687880 0.000000 0.000000 
#    y 0.000000 1.706420 0.000000 
#    z 0.000000 0.000000 1.696430 
# 
# From -- ./inp_files/44609.got.cif
#   From: 2010.03.12/outbox.cif.g09.slc.cpg/sg74_23_cif.got.tgz:44609.got - 2010.04.16 15:46:19.
