data_PCOD8299411
_publ_section_title
;
Structure prediction by ZEFSAII (Michael W. Deem and Ramdas Pophale) SiO2 
 PCOD8299411
Probable space group: I M M A
;
_chemical_formula_sum "Si O2"
_cell_formula_units_Z 80
_cell_length_a 29.778268
_cell_length_b 9.199065
_cell_length_c 16.492944
_cell_angle_alpha 90.000000
_cell_angle_beta 90.000000
_cell_angle_gamma 90.000000
_cell_volume 4517.948812
_symmetry_space_group_name_H-M "I M M A"
_symmetry_group_IT_number 74
_symmetry_cell_setting 'orthorhombic'
loop_
_space_group_symop_operation_xyz
x,y,z
-x,1/2-y,z
x,-y,-z
-x,1/2+y,-z
-x,-y,-z
x,1/2+y,-z
-x,y,z
x,1/2-y,z
1/2+x,1/2+y,1/2+z
1/2-x,-y,1/2+z
1/2+x,1/2-y,1/2-z
1/2-x,y,1/2-z
1/2-x,1/2-y,1/2-z
1/2+x,y,1/2-z
1/2-x,1/2+y,1/2+z
1/2+x,-y,1/2+z
loop_
_atom_site_type_symbol
_atom_site_label
_atom_site_fract_x
_atom_site_fract_y
_atom_site_fract_z
Si Si1 0.804764 0.580681 0.076742
Si Si2 0.000000 0.921802 0.585918
Si Si3 0.283279 0.912620 0.877096
Si Si4 0.145331 0.500000 0.500000
Si Si5 0.583086 0.910620 0.138393
Si Si6 0.336877 0.416833 0.750802
O O1 0.798896 0.750000 0.056828
O O2 0.755646 0.514371 0.089266
O O3 0.836234 0.554520 0.154674
O O4 0.827650 0.500000 0.000000
O O5 0.000000 0.750000 0.573447
O O6 0.000000 0.000000 0.500000
O O7 0.955792 0.969237 0.634891
O O8 0.265470 0.750000 0.860636
O O9 0.300276 0.980104 0.792588
O O10 0.323555 0.901625 0.942311
O O11 0.113511 0.403487 0.557386
O O12 0.561832 0.750000 0.148676
O O13 0.613380 0.951511 0.216247
O O14 0.323846 0.250000 0.770884
#
# Coordination Sequence:
#
# PCOD8299411 Si02
#       6
#    16   8  16   8  16  16
#     4  11  22  36  53  74 102 137 179 226 272 315
#     4  12  24  36  54  82 113 140 171 210 255 308
#     4  11  21  32  50  75 104 140 182 224 265 311
#     4  10  20  31  50  74 110 142 184 219 258 296
#     4  10  20  36  56  76 105 141 177 212 258 313
#     4   9  21  38  54  74 103 138 176 221 269 316
#
# _framework density 17.707151
#
# number of rings (size 3 to 8) (size 9 to 14) (size 15 to 20)
#    0.000    1.600    2.000    3.300    0.000    8.800 
#    0.000    0.000    0.000    0.000    0.000    0.700 
#    0.000    0.000    0.000    0.000    0.000    0.000 
#
# Total GULP energy -496008.391617 kJ/mol
# GULP energy per Si atom -12400.209790 kJ/mol
# Density = 1.766685 g / cm^3
# Si number density = 17.707151 Si / 1000 Ang^3
#
#
#
# Elastic Constant Matrix: (Units=GPa)
#
#
# Indices 1 2 3 4 5 6 
#
# 1 78.5152 41.9639 46.7695 0.0000 0.0000 0.0000
# 2 41.9639 127.9553 56.6764 0.0000 0.0000 0.0000
# 3 46.7695 56.6764 126.4608 0.0000 0.0000 0.0000
# 4 0.0000 0.0000 0.0000 25.1211 0.0000 0.0000
# 5 0.0000 0.0000 0.0000 0.0000 16.9232 0.0000
# 6 0.0000 0.0000 0.0000 0.0000 0.0000 23.9483
#
#
#
# Elastic Compliance Matrix: (Units=1/GPa)
#
#
# Indices 1 2 3 4 5 6 
#
# 1 0.017569 -0.003598 -0.004885 0.000000 0.000000 0.000000
# 2 -0.003598 0.010488 -0.003370 0.000000 0.000000 0.000000
# 3 -0.004885 -0.003370 0.011224 0.000000 0.000000 0.000000
# 4 0.000000 0.000000 0.000000 0.039807 0.000000 0.000000
# 5 0.000000 0.000000 0.000000 0.000000 0.059091 0.000000
# 6 0.000000 0.000000 0.000000 0.000000 0.000000 0.041757
#
#
# Mechanical properties :
#
#
# Convention : Reuss Voigt Hill
#
# Bulk Modulus (GPa) = 64.20228 69.30565 66.75397
# Shear Modulus (GPa) = 23.94245 25.69995 24.82120
#
# Velocity S-wave (km/s) = 3.68113 3.81384 3.74807
# Velocity P-wave (km/s) = 7.37592 7.65629 7.51741
#
# Compressibility (1/GPa) = 0.01557577
#
# Stress axis : x y z
#
# Youngs Moduli (GPa) = 56.91688 95.34863 89.09114
#
# Poissons Ratio (x) = 0.34308 0.43522
# Poissons Ratio (y) = 0.20480 0.30020
# Poissons Ratio (z) = 0.27805 0.32129
#
# Static dielectric constant tensor:
#      x y z
#    x 3.162770 0.000000 0.000000 
#    y 0.000000 3.291480 0.000000 
#    z 0.000000 0.000000 3.452950 
# 
# 
# High freq. dielectric constant tensor:
#      x y z
#    x 1.654910 0.000000 0.000000 
#    y 0.000000 1.692950 0.000000 
#    z 0.000000 0.000000 1.676800 
# 
# From -- ./inp_files/46517.got.cif
#   From: 2010.03.12/outbox.cif.g09.slc.cpg/sg74_24_cif.got.tgz:46517.got - 2010.04.16 15:46:19.
