data_PCOD8299182
_publ_section_title
;
Structure prediction by ZEFSAII (Michael W. Deem and Ramdas Pophale) SiO2 
 PCOD8299182
Probable space group: I M M A
;
_chemical_formula_sum "Si O2"
_cell_formula_units_Z 72
_cell_length_a 9.199002
_cell_length_b 29.511723
_cell_length_c 14.122962
_cell_angle_alpha 90.000000
_cell_angle_beta 90.000000
_cell_angle_gamma 90.000000
_cell_volume 3834.079111
_symmetry_space_group_name_H-M "I M M A"
_symmetry_group_IT_number 74
_symmetry_cell_setting 'orthorhombic'
loop_
_space_group_symop_operation_xyz
x,y,z
-x,1/2-y,z
x,-y,-z
-x,1/2+y,-z
-x,-y,-z
x,1/2+y,-z
-x,y,z
x,1/2-y,z
1/2+x,1/2+y,1/2+z
1/2-x,-y,1/2+z
1/2+x,1/2-y,1/2-z
1/2-x,y,1/2-z
1/2-x,1/2-y,1/2-z
1/2+x,y,1/2-z
1/2-x,1/2+y,1/2+z
1/2+x,-y,1/2+z
loop_
_atom_site_type_symbol
_atom_site_label
_atom_site_fract_x
_atom_site_fract_y
_atom_site_fract_z
Si Si1 0.830582 0.065368 0.535740
Si Si2 0.170240 0.250000 0.651767
Si Si3 0.172390 0.481561 0.347831
Si Si4 0.169716 0.333534 0.522920
Si Si5 0.831136 0.697231 0.843562
O O1 0.771564 0.031238 0.616398
O O2 0.795410 0.116974 0.566090
O O3 0.000000 0.056052 0.530623
O O4 0.774648 0.053794 0.429374
O O5 0.250000 0.250000 0.750000
O O6 0.219235 0.294966 0.596004
O O7 0.000000 0.250000 0.670806
O O8 0.250000 0.468808 0.250000
O O9 0.000000 0.479827 0.330356
O O10 0.264556 0.330436 0.429334
O O11 0.000000 0.327849 0.496996
O O12 0.801833 0.750000 0.861829
O O13 0.750000 0.680464 0.750000
O O14 0.000000 0.686098 0.832985
#
# Coordination Sequence:
#
# PCOD8299182 Si02
#       5
#    16   8  16  16  16
#     4   8  17  33  53  74 102 136 170 205 255 311
#     4  10  22  36  53  74 101 136 175 214 258 302
#     4   9  17  33  54  76 101 134 168 207 255 307
#     4  10  19  35  55  76 102 137 177 218 257 302
#     4  10  20  33  51  75 103 136 171 211 257 307
#
# _framework density 18.778955
#
# number of rings (size 3 to 8) (size 9 to 14) (size 15 to 20)
#    0.000    2.667    1.111    2.000    0.000    3.556 
#    0.000    6.667    0.000    0.000    0.000    0.000 
#    0.000    0.000    0.000    0.000    0.000    0.000 
#
# Total GULP energy -446273.169071 kJ/mol
# GULP energy per Si atom -12396.476919 kJ/mol
# Density = 1.873621 g / cm^3
# Si number density = 18.778955 Si / 1000 Ang^3
#
#
#
# Elastic Constant Matrix: (Units=GPa)
#
#
# Indices 1 2 3 4 5 6 
#
# 1 43.2466 18.7107 24.2064 -0.0001 0.0000 0.0000
# 2 18.7107 115.3321 34.3458 -0.0001 0.0000 0.0000
# 3 24.2064 34.3458 96.2255 -0.0002 0.0000 0.0000
# 4 -0.0001 -0.0001 -0.0002 15.3925 0.0000 0.0000
# 5 0.0000 0.0000 0.0000 0.0000 37.0026 0.0000
# 6 0.0000 0.0000 0.0000 0.0000 0.0000 12.2885
#
#
#
# Elastic Compliance Matrix: (Units=1/GPa)
#
#
# Indices 1 2 3 4 5 6 
#
# 1 0.027645 -0.002701 -0.005990 0.000000 0.000000 0.000000
# 2 -0.002701 0.009966 -0.002878 0.000000 0.000000 0.000000
# 3 -0.005990 -0.002878 0.012926 0.000000 0.000000 0.000000
# 4 0.000000 0.000000 0.000000 0.064967 0.000000 0.000000
# 5 0.000000 0.000000 0.000000 0.000000 0.027025 0.000000
# 6 0.000000 0.000000 0.000000 0.000000 0.000000 0.081377
#
#
# Mechanical properties :
#
#
# Convention : Reuss Voigt Hill
#
# Bulk Modulus (GPa) = 36.49763 45.48111 40.98937
# Shear Modulus (GPa) = 19.51784 24.77281 22.14532
#
# Velocity S-wave (km/s) = 3.22739 3.63599 3.43776
# Velocity P-wave (km/s) = 5.77630 6.47294 6.13452
#
# Compressibility (1/GPa) = 0.02739904
#
# Stress axis : x y z
#
# Youngs Moduli (GPa) = 36.17332 100.34360 77.36186
#
# Poissons Ratio (x) = 0.27103 0.46341
# Poissons Ratio (y) = 0.09770 0.22262
# Poissons Ratio (z) = 0.21669 0.28875
#
# Static dielectric constant tensor:
#      x y z
#    x 3.145910 0.000000 0.000000 
#    y 0.000000 3.662250 0.000000 
#    z 0.000000 0.000000 3.421200 
# 
# 
# High freq. dielectric constant tensor:
#      x y z
#    x 1.702010 0.000000 0.000000 
#    y 0.000000 1.733360 0.000000 
#    z 0.000000 0.000000 1.725800 
# 
# From -- ./inp_files/29367.got.cif
#   From: 2010.03.12/outbox.cif.g09.slc.cpg/sg74_15_cif.got.tgz:29367.got - 2010.04.16 15:46:19.
