data_PCOD8299576
_publ_section_title
;
Structure prediction by ZEFSAII (Michael W. Deem and Ramdas Pophale) SiO2 
 PCOD8299576
Probable space group: I M M A
;
_chemical_formula_sum "Si O2"
_cell_formula_units_Z 96
_cell_length_a 24.238683
_cell_length_b 15.602190
_cell_length_c 13.079498
_cell_angle_alpha 90.000000
_cell_angle_beta 90.000000
_cell_angle_gamma 90.000000
_cell_volume 4946.359266
_symmetry_space_group_name_H-M "I M M A"
_symmetry_group_IT_number 74
_symmetry_cell_setting 'orthorhombic'
loop_
_space_group_symop_operation_xyz
x,y,z
-x,1/2-y,z
x,-y,-z
-x,1/2+y,-z
-x,-y,-z
x,1/2+y,-z
-x,y,z
x,1/2-y,z
1/2+x,1/2+y,1/2+z
1/2-x,-y,1/2+z
1/2+x,1/2-y,1/2-z
1/2-x,y,1/2-z
1/2-x,1/2-y,1/2-z
1/2+x,y,1/2-z
1/2-x,1/2+y,1/2+z
1/2+x,-y,1/2+z
loop_
_atom_site_type_symbol
_atom_site_label
_atom_site_fract_x
_atom_site_fract_y
_atom_site_fract_z
Si Si1 0.059116 0.446821 0.397232
Si Si2 0.321875 0.917702 0.925056
Si Si3 0.332725 0.066365 0.589308
Si Si4 0.750000 0.505779 0.750000
Si Si5 0.807833 0.250000 0.543771
Si Si6 0.438713 0.923110 0.286548
Si Si7 0.609812 0.250000 0.787229
Si Si8 0.193254 0.750000 0.111209
O O1 0.056531 0.500000 0.500000
O O2 0.114737 0.390604 0.397961
O O3 0.065709 0.508637 0.301932
O O4 0.000000 0.395696 0.387221
O O5 0.287354 0.934961 0.822709
O O6 0.296653 0.834772 0.977806
O O7 0.319415 0.000000 0.000000
O O8 0.395672 0.052329 0.624856
O O9 0.326214 0.164241 0.549738
O O10 0.317594 0.000000 0.500000
O O11 0.290733 0.053944 0.683976
O O12 0.868119 0.250000 0.596048
O O13 0.758937 0.250000 0.626955
O O14 0.500000 0.921364 0.335179
O O15 0.426984 0.832162 0.234294
O O16 0.665014 0.250000 0.720979
#
# Coordination Sequence:
#
# PCOD8299576 Si02
#       8
#    16  16  16   8   8  16   8   8
#     4   9  17  33  56  80 111 150 191 239 295 353
#     4  11  23  38  57  86 119 155 203 247 301 364
#     4  11  24  40  61  91 120 161 204 248 307 358
#     4  12  22  38  60  84 122 162 196 256 294 366
#     4  12  23  36  57  88 121 164 196 240 300 364
#     4  10  20  36  59  87 119 154 197 248 302 357
#     4  10  20  32  55  89 121 148 193 249 304 348
#     4  10  23  35  58  87 120 157 192 249 296 364
#
# _framework density 19.408213
#
# number of rings (size 3 to 8) (size 9 to 14) (size 15 to 20)
#    0.000    1.500    1.667    5.000    7.000    0.667 
#    0.000    2.083    0.000    0.000    0.000    0.000 
#    0.000    0.000    0.000    0.000    0.000    0.000 
#
# Total GULP energy -594894.456852 kJ/mol
# GULP energy per Si atom -12393.634518 kJ/mol
# Density = 1.936404 g / cm^3
# Si number density = 19.408213 Si / 1000 Ang^3
#
#
#
# Elastic Constant Matrix: (Units=GPa)
#
#
# Indices 1 2 3 4 5 6 
#
# 1 146.2639 22.5462 40.2042 0.0000 0.0000 0.0000
# 2 22.5462 97.8449 38.2489 0.0000 0.0000 0.0000
# 3 40.2042 38.2489 73.0222 0.0000 0.0000 0.0000
# 4 0.0000 0.0000 0.0000 -66.8978 0.0000 0.0000
# 5 0.0000 0.0000 0.0000 0.0000 32.0492 0.0000
# 6 0.0000 0.0000 0.0000 0.0000 0.0000 21.5185
#
#
#
# Elastic Compliance Matrix: (Units=1/GPa)
#
#
# Indices 1 2 3 4 5 6 
#
# 1 0.008058 -0.000154 -0.004356 0.000000 0.000000 0.000000
# 2 -0.000154 0.012855 -0.006648 0.000000 0.000000 0.000000
# 3 -0.004356 -0.006648 0.019575 0.000000 0.000000 0.000000
# 4 0.000000 0.000000 0.000000 -0.014948 0.000000 0.000000
# 5 0.000000 0.000000 0.000000 0.000000 0.031202 0.000000
# 6 0.000000 0.000000 0.000000 0.000000 0.000000 0.046472
#
#
# Mechanical properties :
#
#
# Convention : Reuss Voigt Hill
#
# Bulk Modulus (GPa) = 55.03225 57.68106 56.35666
# Shear Modulus (GPa) = 37.99763 11.74277 24.87020
#
# Velocity S-wave (km/s) = 4.42952 2.46243 3.58359
# Velocity P-wave (km/s) = 7.38766 6.15379 6.79878
#
# Compressibility (1/GPa) = 0.01817116
#
# Stress axis : x y z
#
# Youngs Moduli (GPa) = 124.09995 77.79240 51.08518
#
# Poissons Ratio (x) = 0.01198 0.22252
# Poissons Ratio (y) = 0.01911 0.33964
# Poissons Ratio (z) = 0.54056 0.51720
#
# Static dielectric constant tensor:
#      x y z
#    x 4.215170 0.000000 0.000000 
#    y 0.000000 3.803190 0.000000 
#    z 0.000000 0.000000 3.291360 
# 
# 
# High freq. dielectric constant tensor:
#      x y z
#    x 1.783880 0.000000 0.000000 
#    y 0.000000 1.733140 0.000000 
#    z 0.000000 0.000000 1.733460 
# 
# From -- ./inp_files/37345.got.cif
#   From: 2010.03.12/outbox.cif.g09.slc.cpg/sg74_19_cif.got.tgz:37345.got - 2010.04.16 15:46:19.
