data_PCOD8299563
_publ_section_title
;
Structure prediction by ZEFSAII (Michael W. Deem and Ramdas Pophale) SiO2 
 PCOD8299563
Probable space group: I M M A
;
_chemical_formula_sum "Si O2"
_cell_formula_units_Z 104
_cell_length_a 20.820973
_cell_length_b 9.333341
_cell_length_c 27.880052
_cell_angle_alpha 90.000000
_cell_angle_beta 90.000000
_cell_angle_gamma 90.000000
_cell_volume 5417.909343
_symmetry_space_group_name_H-M "I M M A"
_symmetry_group_IT_number 74
_symmetry_cell_setting 'orthorhombic'
loop_
_space_group_symop_operation_xyz
x,y,z
-x,1/2-y,z
x,-y,-z
-x,1/2+y,-z
-x,-y,-z
x,1/2+y,-z
-x,y,z
x,1/2-y,z
1/2+x,1/2+y,1/2+z
1/2-x,-y,1/2+z
1/2+x,1/2-y,1/2-z
1/2-x,y,1/2-z
1/2-x,1/2-y,1/2-z
1/2+x,y,1/2-z
1/2-x,1/2+y,1/2+z
1/2+x,-y,1/2+z
loop_
_atom_site_type_symbol
_atom_site_label
_atom_site_fract_x
_atom_site_fract_y
_atom_site_fract_z
Si Si1 0.927064 0.584393 0.188690
Si Si2 0.870892 0.418297 0.381506
Si Si3 0.500000 0.916272 0.548562
Si Si4 0.427124 0.093221 0.958564
Si Si5 0.252412 0.582240 0.950293
Si Si6 0.425674 0.915359 0.200948
Si Si7 0.373619 0.917586 0.605524
O O1 0.922506 0.750000 0.174548
O O2 0.907533 0.561386 0.243764
O O3 0.876113 0.497129 0.156666
O O4 0.000000 0.528939 0.180399
O O5 0.884919 0.250000 0.379834
O O6 0.926464 0.503472 0.409684
O O7 0.805235 0.454042 0.409597
O O8 0.875609 0.483915 0.328147
O O9 0.500000 0.750000 0.536185
O O10 0.437731 0.961507 0.577971
O O11 0.500000 0.000000 0.500000
O O12 0.500000 0.118871 0.973967
O O13 0.393445 0.250000 0.954105
O O14 0.391403 0.000000 0.000000
O O15 0.251592 0.750000 0.962227
O O16 0.185691 0.530305 0.926881
O O17 0.264725 0.500000 0.000000
O O18 0.500000 0.959322 0.191931
O O19 0.415682 0.750000 0.185995
O O20 0.368264 0.750000 0.616268
#
# Coordination Sequence:
#
# PCOD8299563 Si02
#       7
#    16  16   8  16  16  16  16
#     4   9  18  34  57  85 113 141 176 220 273 329
#     4  11  22  35  52  76 105 142 185 225 270 322
#     4  10  20  32  52  82 110 138 174 218 267 322
#     4  10  20  33  50  73 101 133 171 221 277 327
#     4  10  23  40  56  77 109 146 185 227 269 320
#     4   9  19  36  57  82 112 143 179 227 277 323
#     4  10  20  36  56  81 111 142 179 222 271 325
#
# _framework density 19.195595999999998
#
# number of rings (size 3 to 8) (size 9 to 14) (size 15 to 20)
#    0.000    2.154    0.769    3.231    0.000    7.385 
#    0.000    2.308    0.000    4.615    0.000    0.000 
#    0.000    0.000    0.000    0.000    0.000    0.000 
#
# Total GULP energy -644662.447487 kJ/mol
# GULP energy per Si atom -12397.354759 kJ/mol
# Density = 1.915191 g / cm^3
# Si number density = 19.195596 Si / 1000 Ang^3
#
#
#
# Elastic Constant Matrix: (Units=GPa)
#
#
# Indices 1 2 3 4 5 6 
#
# 1 83.8755 41.8823 47.6147 0.0000 0.0000 0.0000
# 2 41.8823 102.7961 68.6727 0.0000 0.0000 0.0000
# 3 47.6147 68.6727 120.5264 0.0000 0.0000 0.0000
# 4 0.0000 0.0000 0.0000 43.8243 0.0000 0.0000
# 5 0.0000 0.0000 0.0000 0.0000 26.9317 0.0000
# 6 0.0000 0.0000 0.0000 0.0000 0.0000 20.1807
#
#
#
# Elastic Compliance Matrix: (Units=1/GPa)
#
#
# Indices 1 2 3 4 5 6 
#
# 1 0.016221 -0.003759 -0.004267 0.000000 0.000000 0.000000
# 2 -0.003759 0.016577 -0.007960 0.000000 0.000000 0.000000
# 3 -0.004267 -0.007960 0.014518 0.000000 0.000000 0.000000
# 4 0.000000 0.000000 0.000000 0.022818 0.000000 0.000000
# 5 0.000000 0.000000 0.000000 0.000000 0.037131 0.000000
# 6 0.000000 0.000000 0.000000 0.000000 0.000000 0.049552
#
#
# Mechanical properties :
#
#
# Convention : Reuss Voigt Hill
#
# Bulk Modulus (GPa) = 65.16703 69.28193 67.22448
# Shear Modulus (GPa) = 25.78573 28.12255 26.95414
#
# Velocity S-wave (km/s) = 3.66910 3.83175 3.75131
# Velocity P-wave (km/s) = 7.20919 7.46642 7.33893
#
# Compressibility (1/GPa) = 0.01534518
#
# Stress axis : x y z
#
# Youngs Moduli (GPa) = 61.64660 60.32324 68.87905
#
# Poissons Ratio (x) = 0.22674 0.29389
# Poissons Ratio (y) = 0.23171 0.54831
# Poissons Ratio (z) = 0.26303 0.48020
#
# Static dielectric constant tensor:
#      x y z
#    x 3.392090 0.000000 0.000000 
#    y 0.000000 3.613490 0.000000 
#    z 0.000000 0.000000 3.504330 
# 
# 
# High freq. dielectric constant tensor:
#      x y z
#    x 1.727020 0.000000 0.000000 
#    y 0.000000 1.748170 0.000000 
#    z 0.000000 0.000000 1.751720 
# 
# From -- ./inp_files/64439.got.cif
#   From: 2010.03.12/outbox.cif.g09.slc.cpg/sg74_33_cif.got.tgz:64439.got - 2010.04.16 15:46:19.
