data_PCOD8299856
_publ_section_title
;
Structure prediction by ZEFSAII (Michael W. Deem and Ramdas Pophale) SiO2 
 PCOD8299856
Probable space group: I M M A
;
_chemical_formula_sum "Si O2"
_cell_formula_units_Z 112
_cell_length_a 9.413181
_cell_length_b 18.028493
_cell_length_c 35.955504
_cell_angle_alpha 90.000000
_cell_angle_beta 90.000000
_cell_angle_gamma 90.000000
_cell_volume 6101.845625
_symmetry_space_group_name_H-M "I M M A"
_symmetry_group_IT_number 74
_symmetry_cell_setting 'orthorhombic'
loop_
_space_group_symop_operation_xyz
x,y,z
-x,1/2-y,z
x,-y,-z
-x,1/2+y,-z
-x,-y,-z
x,1/2+y,-z
-x,y,z
x,1/2-y,z
1/2+x,1/2+y,1/2+z
1/2-x,-y,1/2+z
1/2+x,1/2-y,1/2-z
1/2-x,y,1/2-z
1/2-x,1/2-y,1/2-z
1/2+x,y,1/2-z
1/2-x,1/2+y,1/2+z
1/2+x,-y,1/2+z
loop_
_atom_site_type_symbol
_atom_site_label
_atom_site_fract_x
_atom_site_fract_y
_atom_site_fract_z
Si Si1 0.665367 0.835426 0.213789
Si Si2 0.332588 0.914486 0.996897
Si Si3 0.164464 0.924009 0.858213
Si Si4 0.664238 0.664427 0.567636
Si Si5 0.665289 0.335089 0.285529
Si Si6 0.168841 0.333025 0.570755
Si Si7 0.668382 0.574870 0.141229
O O1 0.500000 0.846221 0.222146
O O2 0.700299 0.750000 0.204267
O O3 0.750000 0.862564 0.250000
O O4 0.715262 0.885141 0.179233
O O5 0.500000 0.903982 0.991728
O O6 0.257800 0.879947 0.961471
O O7 0.275991 0.874135 0.033912
O O8 0.290136 0.000000 0.000000
O O9 0.194432 0.867987 0.891744
O O10 0.211928 0.882849 0.820803
O O11 0.000000 0.947568 0.856810
O O12 0.259808 0.995866 0.862696
O O13 0.500000 0.655600 0.556640
O O14 0.710707 0.750000 0.567739
O O15 0.500000 0.343823 0.276869
O O16 0.705658 0.250000 0.293769
O O17 0.750000 0.365753 0.250000
O O18 0.231598 0.250000 0.571088
O O19 0.224489 0.375460 0.607109
O O20 0.000000 0.330915 0.571122
O O21 0.500000 0.564342 0.139403
#
# Coordination Sequence:
#
# PCOD8299856 Si02
#       7
#    16  16  16  16  16  16  16
#     4   9  18  33  53  76 102 134 172 212 254 302
#     4  10  20  34  54  81 110 137 168 210 260 310
#     4  10  21  36  53  74 103 137 169 205 255 309
#     4  10  21  37  56  77 103 138 178 215 253 303
#     4   9  18  34  55  76  99 130 168 207 247 295
#     4   9  17  31  52  75 100 133 171 209 251 299
#     4  10  20  34  53  76 101 131 171 215 254 298
#
# _framework density 18.355103
#
# number of rings (size 3 to 8) (size 9 to 14) (size 15 to 20)
#    0.000    2.429    0.000    2.143    0.000    8.000 
#    0.000    3.571    0.000    4.714    0.000    0.000 
#    0.000    0.000    0.000    0.000    0.000    0.000 
#
# Total GULP energy -694562.664051 kJ/mol
# GULP energy per Si atom -12402.904715 kJ/mol
# Density = 1.831333 g / cm^3
# Si number density = 18.355103 Si / 1000 Ang^3
#
#
#
# Elastic Constant Matrix: (Units=GPa)
#
#
# Indices 1 2 3 4 5 6 
#
# 1 35.9566 44.3689 45.6955 0.0000 0.0000 0.0000
# 2 44.3689 141.5675 77.5054 0.0000 0.0000 0.0000
# 3 45.6955 77.5054 150.6390 0.0000 0.0000 0.0000
# 4 0.0000 0.0000 0.0000 27.9295 0.0000 0.0000
# 5 0.0000 0.0000 0.0000 0.0000 30.5632 0.0000
# 6 0.0000 0.0000 0.0000 0.0000 0.0000 24.7048
#
#
#
# Elastic Compliance Matrix: (Units=1/GPa)
#
#
# Indices 1 2 3 4 5 6 
#
# 1 0.056127 -0.011512 -0.011102 0.000000 0.000000 0.000000
# 2 -0.011512 0.012195 -0.002782 0.000000 0.000000 0.000000
# 3 -0.011102 -0.002782 0.011438 0.000000 0.000000 0.000000
# 4 0.000000 0.000000 0.000000 0.035804 0.000000 0.000000
# 5 0.000000 0.000000 0.000000 0.000000 0.032719 0.000000
# 6 0.000000 0.000000 0.000000 0.000000 0.000000 0.040478
#
#
# Mechanical properties :
#
#
# Convention : Reuss Voigt Hill
#
# Bulk Modulus (GPa) = 34.52409 73.70028 54.11218
# Shear Modulus (GPa) = 20.06336 27.34572 23.70454
#
# Velocity S-wave (km/s) = 3.30974 3.86400 3.59756
# Velocity P-wave (km/s) = 5.78409 7.75545 6.84115
#
# Compressibility (1/GPa) = 0.02896528
#
# Stress axis : x y z
#
# Youngs Moduli (GPa) = 17.81685 81.99985 87.42951
#
# Poissons Ratio (x) = 0.94401 0.97068
# Poissons Ratio (y) = 0.20511 0.24326
# Poissons Ratio (z) = 0.19781 0.22815
#
# Static dielectric constant tensor:
#      x y z
#    x 3.153880 0.000000 0.000000 
#    y 0.000000 3.438100 0.000000 
#    z 0.000000 0.000000 3.561900 
# 
# 
# High freq. dielectric constant tensor:
#      x y z
#    x 1.687020 0.000000 0.000000 
#    y 0.000000 1.720800 0.000000 
#    z 0.000000 0.000000 1.728080 
# 
# From -- ./inp_files/71888.got.cif
#   From: 2010.03.12/outbox.cif.g09.slc.cpg/sg74_36_cif.got.tgz:71888.got - 2010.04.16 15:46:19.
