data_PCOD8299831
_publ_section_title
;
Structure prediction by ZEFSAII (Michael W. Deem and Ramdas Pophale) SiO2 
 PCOD8299831
Probable space group: I M M A
;
_chemical_formula_sum "Si O2"
_cell_formula_units_Z 72
_cell_length_a 17.584204
_cell_length_b 9.263260
_cell_length_c 22.924719
_cell_angle_alpha 90.000000
_cell_angle_beta 90.000000
_cell_angle_gamma 90.000000
_cell_volume 3734.139931
_symmetry_space_group_name_H-M "I M M A"
_symmetry_group_IT_number 74
_symmetry_cell_setting 'orthorhombic'
loop_
_space_group_symop_operation_xyz
x,y,z
-x,1/2-y,z
x,-y,-z
-x,1/2+y,-z
-x,-y,-z
x,1/2+y,-z
-x,y,z
x,1/2-y,z
1/2+x,1/2+y,1/2+z
1/2-x,-y,1/2+z
1/2+x,1/2-y,1/2-z
1/2-x,y,1/2-z
1/2-x,1/2-y,1/2-z
1/2+x,y,1/2-z
1/2-x,1/2+y,1/2+z
1/2+x,-y,1/2+z
loop_
_atom_site_type_symbol
_atom_site_label
_atom_site_fract_x
_atom_site_fract_y
_atom_site_fract_z
Si Si1 0.588817 0.915757 0.874740
Si Si2 0.086261 0.081284 0.242182
Si Si3 0.000000 0.920260 0.060916
Si Si4 0.213333 0.080552 0.558864
Si Si5 0.856758 0.417614 0.863116
O O1 0.500000 0.941360 0.885585
O O2 0.610402 0.750000 0.888239
O O3 0.610480 0.954598 0.808250
O O4 0.633390 0.020954 0.917904
O O5 0.092826 0.250000 0.230165
O O6 0.000000 0.028402 0.231391
O O7 0.142473 0.999411 0.198526
O O8 0.925730 0.970666 0.096215
O O9 0.000000 0.750000 0.049215
O O10 0.000000 0.000000 0.000000
O O11 0.206007 0.250000 0.546338
O O12 0.277717 0.045591 0.606101
O O13 0.236845 0.000000 0.500000
O O14 0.865492 0.250000 0.849439
#
# Coordination Sequence:
#
# PCOD8299831 Si02
#       5
#    16  16   8  16  16
#     4   9  20  40  63  86 113 146 186 233 284 340
#     4   9  18  34  58  87 115 146 188 232 277 333
#     4  10  20  34  52  76 108 150 193 230 271 320
#     4  11  24  40  58  83 114 149 191 236 284 337
#     4  10  21  36  55  81 115 152 188 231 281 332
#
# _framework density 19.281549999999999
#
# number of rings (size 3 to 8) (size 9 to 14) (size 15 to 20)
#    0.000    2.222    1.111    2.667    0.000    5.333 
#    0.000    6.667    0.000    0.000    0.000    0.000 
#    0.000    0.000    0.000    0.000    0.000    0.000 
#
# Total GULP energy -446537.612502 kJ/mol
# GULP energy per Si atom -12403.822570 kJ/mol
# Density = 1.923766 g / cm^3
# Si number density = 19.281550 Si / 1000 Ang^3
#
#
#
# Elastic Constant Matrix: (Units=GPa)
#
#
# Indices 1 2 3 4 5 6 
#
# 1 72.8356 35.0874 22.1166 0.0000 0.0000 0.0000
# 2 35.0874 69.3741 39.5063 0.0000 0.0000 0.0000
# 3 22.1166 39.5063 60.9885 0.0000 0.0000 0.0000
# 4 0.0000 0.0000 0.0000 40.2641 0.0000 0.0000
# 5 0.0000 0.0000 0.0000 0.0000 23.6988 0.0000
# 6 0.0000 0.0000 0.0000 0.0000 0.0000 27.8726
#
#
#
# Elastic Compliance Matrix: (Units=1/GPa)
#
#
# Indices 1 2 3 4 5 6 
#
# 1 0.018191 -0.008626 -0.001009 0.000000 0.000000 0.000000
# 2 -0.008626 0.026930 -0.014316 0.000000 0.000000 0.000000
# 3 -0.001009 -0.014316 0.026036 0.000000 0.000000 0.000000
# 4 0.000000 0.000000 0.000000 0.024836 0.000000 0.000000
# 5 0.000000 0.000000 0.000000 0.000000 0.042196 0.000000
# 6 0.000000 0.000000 0.000000 0.000000 0.000000 0.035878
#
#
# Mechanical properties :
#
#
# Convention : Reuss Voigt Hill
#
# Bulk Modulus (GPa) = 43.00226 44.06875 43.53550
# Shear Modulus (GPa) = 21.76545 25.46629 23.61587
#
# Velocity S-wave (km/s) = 3.36344 3.63817 3.50350
# Velocity P-wave (km/s) = 6.11836 6.36815 6.24451
#
# Compressibility (1/GPa) = 0.02325459
#
# Stress axis : x y z
#
# Youngs Moduli (GPa) = 54.97096 37.13330 38.40814
#
# Poissons Ratio (x) = 0.32031 0.03876
# Poissons Ratio (y) = 0.47418 0.54986
# Poissons Ratio (z) = 0.05548 0.53161
#
# Static dielectric constant tensor:
#      x y z
#    x 3.465130 0.000000 0.000000 
#    y 0.000000 3.396040 0.000000 
#    z 0.000000 0.000000 3.499360 
# 
# 
# High freq. dielectric constant tensor:
#      x y z
#    x 1.748310 0.000000 0.000000 
#    y 0.000000 1.744890 0.000000 
#    z 0.000000 0.000000 1.757030 
# 
# From -- ./inp_files/56668.got.cif
#   From: 2010.03.12/outbox.cif.g09.slc.cpg/sg74_29_cif.got.tgz:56668.got - 2010.04.16 15:46:19.
