data_PCOD8299493
_publ_section_title
;
Structure prediction by ZEFSAII (Michael W. Deem and Ramdas Pophale) SiO2 
 PCOD8299493
Probable space group: I M M A
;
_chemical_formula_sum "Si O2"
_cell_formula_units_Z 104
_cell_length_a 29.646212
_cell_length_b 9.649540
_cell_length_c 19.812097
_cell_angle_alpha 90.000000
_cell_angle_beta 90.000000
_cell_angle_gamma 90.000000
_cell_volume 5667.692326
_symmetry_space_group_name_H-M "I M M A"
_symmetry_group_IT_number 74
_symmetry_cell_setting 'orthorhombic'
loop_
_space_group_symop_operation_xyz
x,y,z
-x,1/2-y,z
x,-y,-z
-x,1/2+y,-z
-x,-y,-z
x,1/2+y,-z
-x,y,z
x,1/2-y,z
1/2+x,1/2+y,1/2+z
1/2-x,-y,1/2+z
1/2+x,1/2-y,1/2-z
1/2-x,y,1/2-z
1/2-x,1/2-y,1/2-z
1/2+x,y,1/2-z
1/2-x,1/2+y,1/2+z
1/2+x,-y,1/2+z
loop_
_atom_site_type_symbol
_atom_site_label
_atom_site_fract_x
_atom_site_fract_y
_atom_site_fract_z
Si Si1 0.552349 0.587855 0.566280
Si Si2 0.709278 0.910230 0.704793
Si Si3 0.500000 0.083113 0.069204
Si Si4 0.391667 0.084304 0.303131
Si Si5 0.078987 0.089549 0.337173
Si Si6 0.847736 0.591196 0.559898
Si Si7 0.745098 0.907092 0.558750
O O1 0.565392 0.500000 0.500000
O O2 0.500000 0.562882 0.586052
O O3 0.560931 0.750000 0.551116
O O4 0.584236 0.534252 0.627780
O O5 0.707311 0.750000 0.726345
O O6 0.750000 0.979069 0.750000
O O7 0.659009 0.975369 0.710817
O O8 0.718483 0.931972 0.626528
O O9 0.500000 0.250000 0.056100
O O10 0.457964 0.026657 0.112818
O O11 0.500000 0.000000 0.000000
O O12 0.389090 0.250000 0.304546
O O13 0.421251 0.029845 0.239220
O O14 0.067610 0.250000 0.331525
O O15 0.127936 0.061858 0.369445
O O16 0.869242 0.500000 0.500000
O O17 0.853462 0.750000 0.537786
O O18 0.796390 0.548193 0.572388
O O19 0.741859 0.750000 0.533896
O O20 0.723236 0.000000 0.500000
#
# Coordination Sequence:
#
# PCOD8299493 Si02
#       7
#    16  16   8  16  16  16  16
#     4   9  18  32  51  73  97 125 156 195 242 292
#     4   9  16  27  44  67  95 123 153 195 239 277
#     4  10  20  32  48  70  95 122 150 184 225 264
#     4   9  17  28  46  71  94 120 157 196 235 277
#     4   9  17  28  44  67  92 117 149 190 227 262
#     4   9  16  27  43  63  88 119 152 186 223 267
#     4   9  17  28  44  66  90 117 150 186 227 270
#
# _framework density 18.349620000000002
#
# number of rings (size 3 to 8) (size 9 to 14) (size 15 to 20)
#    0.000    2.923    0.000    1.385    1.077    4.308 
#    0.000    0.000    0.000    2.308    0.000    0.000 
#    0.000    0.000    0.000    0.000    0.000    0.000 
#
# Total GULP energy -644283.195763 kJ/mol
# GULP energy per Si atom -12390.061457 kJ/mol
# Density = 1.830786 g / cm^3
# Si number density = 18.349620 Si / 1000 Ang^3
#
#
#
# Elastic Constant Matrix: (Units=GPa)
#
#
# Indices 1 2 3 4 5 6 
#
# 1 99.5401 17.0433 63.8544 0.0000 0.0000 0.0000
# 2 17.0433 26.4056 31.4589 0.0000 0.0000 0.0000
# 3 63.8544 31.4589 126.8106 0.0000 0.0000 0.0000
# 4 0.0000 0.0000 0.0000 26.3947 0.0000 0.0000
# 5 0.0000 0.0000 0.0000 0.0000 -40.1583 0.0000
# 6 0.0000 0.0000 0.0000 0.0000 0.0000 10.7895
#
#
#
# Elastic Compliance Matrix: (Units=1/GPa)
#
#
# Indices 1 2 3 4 5 6 
#
# 1 0.014857 -0.000960 -0.007243 0.000000 0.000000 0.000000
# 2 -0.000960 0.053822 -0.012868 0.000000 0.000000 0.000000
# 3 -0.007243 -0.012868 0.014725 0.000000 0.000000 0.000000
# 4 0.000000 0.000000 0.000000 0.037886 0.000000 0.000000
# 5 0.000000 0.000000 0.000000 0.000000 -0.024901 0.000000
# 6 0.000000 0.000000 0.000000 0.000000 0.000000 0.092682
#
#
# Mechanical properties :
#
#
# Convention : Reuss Voigt Hill
#
# Bulk Modulus (GPa) = 24.23617 53.05214 38.64415
# Shear Modulus (GPa) = 20.41085 8.76515 14.58800
#
# Velocity S-wave (km/s) = 3.33878 2.18795 2.82264
# Velocity P-wave (km/s) = 5.30094 5.94621 5.63282
#
# Compressibility (1/GPa) = 0.04126065
#
# Stress axis : x y z
#
# Youngs Moduli (GPa) = 67.30905 18.57986 67.91088
#
# Poissons Ratio (x) = 0.01784 0.49186
# Poissons Ratio (y) = 0.06464 0.87390
# Poissons Ratio (z) = 0.48751 0.23909
#
# Static dielectric constant tensor:
#      x y z
#    x 3.565580 0.000000 0.000000 
#    y 0.000000 2.967250 0.000000 
#    z 0.000000 0.000000 3.584240 
# 
# 
# High freq. dielectric constant tensor:
#      x y z
#    x 1.718350 0.000000 0.000000 
#    y 0.000000 1.643570 0.000000 
#    z 0.000000 0.000000 1.724130 
# 
# From -- ./inp_files/41717.got.cif
#   From: 2010.03.12/outbox.cif.g09.slc.cpg/sg74_21_cif.got.tgz:41717.got - 2010.04.16 15:46:19.
