data_PCOD8299659
_publ_section_title
;
Structure prediction by ZEFSAII (Michael W. Deem and Ramdas Pophale) SiO2 
 PCOD8299659
Probable space group: I M M A
;
_chemical_formula_sum "Si O2"
_cell_formula_units_Z 80
_cell_length_a 9.469816
_cell_length_b 12.609213
_cell_length_c 35.619299
_cell_angle_alpha 90.000000
_cell_angle_beta 90.000000
_cell_angle_gamma 90.000000
_cell_volume 4253.191036
_symmetry_space_group_name_H-M "I M M A"
_symmetry_group_IT_number 74
_symmetry_cell_setting 'orthorhombic'
loop_
_space_group_symop_operation_xyz
x,y,z
-x,1/2-y,z
x,-y,-z
-x,1/2+y,-z
-x,-y,-z
x,1/2+y,-z
-x,y,z
x,1/2-y,z
1/2+x,1/2+y,1/2+z
1/2-x,-y,1/2+z
1/2+x,1/2-y,1/2-z
1/2-x,y,1/2-z
1/2-x,1/2-y,1/2-z
1/2+x,y,1/2-z
1/2-x,1/2+y,1/2+z
1/2+x,-y,1/2+z
loop_
_atom_site_type_symbol
_atom_site_label
_atom_site_fract_x
_atom_site_fract_y
_atom_site_fract_z
Si Si1 0.335183 0.750000 0.076591
Si Si2 0.336896 0.250000 0.653105
Si Si3 0.832313 0.865079 0.821406
Si Si4 0.834639 0.077673 0.785772
Si Si5 0.337442 0.371363 0.406007
Si Si6 0.834551 0.473379 0.541959
O O1 0.500000 0.750000 0.086223
O O2 0.254712 0.750000 0.115884
O O3 0.293010 0.852719 0.052157
O O4 0.500000 0.250000 0.641025
O O5 0.300163 0.352988 0.677732
O O6 0.777254 0.750000 0.806754
O O7 0.779294 0.884262 0.863708
O O8 0.000000 0.865068 0.822740
O O9 0.779351 0.958448 0.794220
O O10 0.750000 0.121733 0.750000
O O11 0.000000 0.082979 0.776201
O O12 0.500000 0.407516 0.408905
O O13 0.320676 0.250000 0.419376
O O14 0.243977 0.446325 0.431164
O O15 0.784773 0.500000 0.500000
O O16 0.000000 0.492950 0.546819
#
# Coordination Sequence:
#
# PCOD8299659 Si02
#       6
#     8   8  16  16  16  16
#     4  10  22  39  57  82 109 140 184 226 265 315
#     4  10  21  37  57  78 102 138 180 218 266 321
#     4   8  15  30  51  73 100 135 172 211 259 313
#     4  10  20  33  51  76 105 137 174 214 262 316
#     4   9  18  34  57  82 106 137 181 228 269 314
#     4  10  22  37  55  78 109 145 177 214 267 328
#
# _framework density 18.809407
#
# number of rings (size 3 to 8) (size 9 to 14) (size 15 to 20)
#    0.000    2.600    0.000    2.700    1.400    4.400 
#    0.000    1.000    0.000    1.200    0.000    0.000 
#    0.000    0.000    0.000    0.000    0.000    0.000 
#
# Total GULP energy -495933.179845 kJ/mol
# GULP energy per Si atom -12398.329496 kJ/mol
# Density = 1.876660 g / cm^3
# Si number density = 18.809407 Si / 1000 Ang^3
#
#
#
# Elastic Constant Matrix: (Units=GPa)
#
#
# Indices 1 2 3 4 5 6 
#
# 1 37.2636 37.4137 42.9511 0.0000 0.0000 0.0000
# 2 37.4137 120.3805 61.2300 0.0000 0.0000 0.0000
# 3 42.9511 61.2300 111.4863 0.0000 0.0000 0.0000
# 4 0.0000 0.0000 0.0000 5.3415 0.0000 0.0000
# 5 0.0000 0.0000 0.0000 0.0000 30.6552 0.0000
# 6 0.0000 0.0000 0.0000 0.0000 0.0000 17.3880
#
#
#
# Elastic Compliance Matrix: (Units=1/GPa)
#
#
# Indices 1 2 3 4 5 6 
#
# 1 0.054015 -0.008608 -0.016082 0.000000 0.000000 0.000000
# 2 -0.008608 0.012899 -0.003768 0.000000 0.000000 0.000000
# 3 -0.016082 -0.003768 0.017235 0.000000 0.000000 0.000000
# 4 0.000000 0.000000 0.000000 0.187214 0.000000 0.000000
# 5 0.000000 0.000000 0.000000 0.000000 0.032621 0.000000
# 6 0.000000 0.000000 0.000000 0.000000 0.000000 0.057511
#
#
# Mechanical properties :
#
#
# Convention : Reuss Voigt Hill
#
# Bulk Modulus (GPa) = 36.72028 61.36890 49.04459
# Shear Modulus (GPa) = 11.69621 19.17930 15.43776
#
# Velocity S-wave (km/s) = 2.49635 3.19668 2.86798
# Velocity P-wave (km/s) = 5.27956 6.80607 6.09083
#
# Compressibility (1/GPa) = 0.02723291
#
# Stress axis : x y z
#
# Youngs Moduli (GPa) = 18.51333 77.52686 58.02106
#
# Poissons Ratio (x) = 0.66731 0.93312
# Poissons Ratio (y) = 0.15935 0.21863
# Poissons Ratio (z) = 0.29774 0.29213
#
# Static dielectric constant tensor:
#      x y z
#    x 3.140600 0.000000 0.000000 
#    y 0.000000 3.929280 0.000000 
#    z 0.000000 0.000000 3.444670 
# 
# 
# High freq. dielectric constant tensor:
#      x y z
#    x 1.700880 0.000000 0.000000 
#    y 0.000000 1.751130 0.000000 
#    z 0.000000 0.000000 1.729190 
# 
# From -- ./inp_files/71553.got.cif
#   From: 2010.03.12/outbox.cif.g09.slc.cpg/sg74_36_cif.got.tgz:71553.got - 2010.04.16 15:46:19.
