data_PCOD8299030
_publ_section_title
;
Structure prediction by ZEFSAII (Michael W. Deem and Ramdas Pophale) SiO2 
 PCOD8299030
Probable space group: I M M A
;
_chemical_formula_sum "Si O2"
_cell_formula_units_Z 104
_cell_length_a 9.274206
_cell_length_b 21.705600
_cell_length_c 27.466235
_cell_angle_alpha 90.000000
_cell_angle_beta 90.000000
_cell_angle_gamma 90.000000
_cell_volume 5529.013689
_symmetry_space_group_name_H-M "I M M A"
_symmetry_group_IT_number 74
_symmetry_cell_setting 'orthorhombic'
loop_
_space_group_symop_operation_xyz
x,y,z
-x,1/2-y,z
x,-y,-z
-x,1/2+y,-z
-x,-y,-z
x,1/2+y,-z
-x,y,z
x,1/2-y,z
1/2+x,1/2+y,1/2+z
1/2-x,-y,1/2+z
1/2+x,1/2-y,1/2-z
1/2-x,y,1/2-z
1/2-x,1/2-y,1/2-z
1/2+x,y,1/2-z
1/2-x,1/2+y,1/2+z
1/2+x,-y,1/2+z
loop_
_atom_site_type_symbol
_atom_site_label
_atom_site_fract_x
_atom_site_fract_y
_atom_site_fract_z
Si Si1 0.662520 0.654005 0.141475
Si Si2 0.663799 0.534150 0.201782
Si Si3 0.827532 0.062204 0.473056
Si Si4 0.831913 0.180479 0.297408
Si Si5 0.669843 0.072936 0.135787
Si Si6 0.169014 0.180628 0.530862
Si Si7 0.669619 0.250000 0.699709
O O1 0.500000 0.680409 0.149983
O O2 0.671259 0.584493 0.159346
O O3 0.704268 0.659101 0.085307
O O4 0.783370 0.690044 0.170731
O O5 0.500000 0.523026 0.218671
O O6 0.750000 0.553388 0.250000
O O7 0.732483 0.473988 0.176215
O O8 0.765751 0.061812 0.417935
O O9 0.766962 0.125856 0.497021
O O10 0.000000 0.063192 0.474678
O O11 0.771396 0.000000 0.500000
O O12 0.783883 0.250000 0.309174
O O13 0.750000 0.154968 0.250000
O O14 0.791509 0.141215 0.345245
O O15 0.000000 0.175472 0.285552
O O16 0.500000 0.061873 0.132419
O O17 0.233828 0.250000 0.520680
O O18 0.000000 0.184740 0.521967
O O19 0.500000 0.250000 0.708483
O O20 0.750000 0.250000 0.750000
#
# Coordination Sequence:
#
# PCOD8299030 Si02
#       7
#    16  16  16  16  16  16   8
#     4  10  19  34  52  72 101 132 165 205 249 295
#     4  10  20  32  49  71  98 133 167 206 252 296
#     4   9  16  26  42  67  98 128 159 198 246 299
#     4   9  17  29  46  68  97 132 164 199 243 292
#     4   9  17  29  44  67 100 132 163 202 251 299
#     4   9  16  27  46  70  97 129 162 198 245 295
#     4  12  24  36  52  74 100 132 168 206 249 292
#
# _framework density 18.809866
#
# number of rings (size 3 to 8) (size 9 to 14) (size 15 to 20)
#    0.000    2.462    0.769    2.538    0.000    6.154 
#    0.000    3.077    0.000    0.000    0.000    2.154 
#    0.000    5.538    0.000    0.000    0.000    0.000 
#
# Total GULP energy -644494.477141 kJ/mol
# GULP energy per Si atom -12394.124560 kJ/mol
# Density = 1.876705 g / cm^3
# Si number density = 18.809866 Si / 1000 Ang^3
#
#
#
# Elastic Constant Matrix: (Units=GPa)
#
#
# Indices 1 2 3 4 5 6 
#
# 1 41.6076 16.3480 22.7377 0.0000 0.0000 0.0000
# 2 16.3480 127.1859 62.6949 0.0000 0.0000 0.0000
# 3 22.7377 62.6949 121.7009 0.0000 0.0000 0.0000
# 4 0.0000 0.0000 0.0000 36.9871 0.0000 0.0000
# 5 0.0000 0.0000 0.0000 0.0000 17.4282 0.0000
# 6 0.0000 0.0000 0.0000 0.0000 0.0000 13.2336
#
#
#
# Elastic Compliance Matrix: (Units=1/GPa)
#
#
# Indices 1 2 3 4 5 6 
#
# 1 0.026930 -0.001315 -0.004354 0.000000 0.000000 0.000000
# 2 -0.001315 0.010603 -0.005216 0.000000 0.000000 0.000000
# 3 -0.004354 -0.005216 0.011718 0.000000 0.000000 0.000000
# 4 0.000000 0.000000 0.000000 0.027036 0.000000 0.000000
# 5 0.000000 0.000000 0.000000 0.000000 0.057378 0.000000
# 6 0.000000 0.000000 0.000000 0.000000 0.000000 0.075565
#
#
# Mechanical properties :
#
#
# Convention : Reuss Voigt Hill
#
# Bulk Modulus (GPa) = 36.39075 54.89507 45.64291
# Shear Modulus (GPa) = 20.81932 26.11070 23.46501
#
# Velocity S-wave (km/s) = 3.33051 3.72982 3.53581
# Velocity P-wave (km/s) = 5.84623 6.91348 6.40213
#
# Compressibility (1/GPa) = 0.02747951
#
# Stress axis : x y z
#
# Youngs Moduli (GPa) = 37.13309 94.31338 85.34193
#
# Poissons Ratio (x) = 0.12405 0.37156
# Poissons Ratio (y) = 0.04884 0.44518
# Poissons Ratio (z) = 0.16167 0.49198
#
# Static dielectric constant tensor:
#      x y z
#    x 2.972000 0.000000 0.000000 
#    y 0.000000 3.759560 0.000000 
#    z 0.000000 0.000000 3.703930 
# 
# 
# High freq. dielectric constant tensor:
#      x y z
#    x 1.662540 0.000000 0.000000 
#    y 0.000000 1.749390 0.000000 
#    z 0.000000 0.000000 1.736110 
# 
# From -- ./inp_files/64804.got.cif
#   From: 2010.03.12/outbox.cif.g09.slc.cpg/sg74_33_cif.got.tgz:64804.got - 2010.04.16 15:46:19.
