data_PCOD8299139
_publ_section_title
;
Structure prediction by ZEFSAII (Michael W. Deem and Ramdas Pophale) SiO2 
 PCOD8299139
Probable space group: I M M A
;
_chemical_formula_sum "Si O2"
_cell_formula_units_Z 120
_cell_length_a 23.822990
_cell_length_b 13.347243
_cell_length_c 20.706580
_cell_angle_alpha 90.000000
_cell_angle_beta 90.000000
_cell_angle_gamma 90.000000
_cell_volume 6584.096847
_symmetry_space_group_name_H-M "I M M A"
_symmetry_group_IT_number 74
_symmetry_cell_setting 'orthorhombic'
loop_
_space_group_symop_operation_xyz
x,y,z
-x,1/2-y,z
x,-y,-z
-x,1/2+y,-z
-x,-y,-z
x,1/2+y,-z
-x,y,z
x,1/2-y,z
1/2+x,1/2+y,1/2+z
1/2-x,-y,1/2+z
1/2+x,1/2-y,1/2-z
1/2-x,y,1/2-z
1/2-x,1/2-y,1/2-z
1/2+x,y,1/2-z
1/2-x,1/2+y,1/2+z
1/2+x,-y,1/2+z
loop_
_atom_site_type_symbol
_atom_site_label
_atom_site_fract_x
_atom_site_fract_y
_atom_site_fract_z
Si Si1 0.386639 0.500000 0.500000
Si Si2 0.561381 0.367869 0.046046
Si Si3 0.881601 0.536776 0.664593
Si Si4 0.066497 0.459377 0.196938
Si Si5 0.655102 0.865543 0.607212
Si Si6 0.267421 0.861061 0.822693
Si Si7 0.065859 0.636633 0.403423
Si Si8 0.065102 0.361852 0.891081
O O1 0.347106 0.569261 0.542947
O O2 0.423251 0.574694 0.455885
O O3 0.500000 0.410906 0.064374
O O4 0.558004 0.250000 0.036209
O O5 0.601752 0.393298 0.104597
O O6 0.578764 0.409375 0.974855
O O7 0.915293 0.561902 0.729714
O O8 0.815598 0.555232 0.672260
O O9 0.895860 0.422460 0.647516
O O10 0.100927 0.381872 0.152755
O O11 0.082451 0.572045 0.172100
O O12 0.000000 0.438609 0.189185
O O13 0.656720 0.750000 0.587965
O O14 0.712967 0.900075 0.639807
O O15 0.287087 0.750000 0.847259
O O16 0.250000 0.849328 0.750000
O O17 0.085877 0.750000 0.397402
O O18 0.000000 0.626014 0.386743
O O19 0.094111 0.250000 0.890194
O O20 0.000000 0.342497 0.888781
#
# Coordination Sequence:
#
# PCOD8299139 Si02
#       8
#     8  16  16  16  16  16  16  16
#     4  10  19  34  58  84 104 132 185 228 264 312
#     4   9  18  32  50  78 114 145 175 219 276 329
#     4  12  20  32  57  80 105 141 190 231 266 312
#     4  10  21  33  51  84 113 136 177 226 271 329
#     4  10  21  39  58  79 111 144 177 221 275 332
#     4  10  21  39  59  77 104 145 183 218 273 333
#     4   9  19  35  53  78 116 154 182 215 268 330
#     4   9  18  33  52  77 112 146 171 208 268 331
#
# _framework density 18.225735
#
# number of rings (size 3 to 8) (size 9 to 14) (size 15 to 20)
#    0.000    2.133    1.333    3.400    0.000    2.933 
#    2.400    1.333    0.000    3.600    0.000    0.000 
#    0.000    0.000    0.000    0.000    0.000    0.000 
#
# Total GULP energy -743590.708346 kJ/mol
# GULP energy per Si atom -12393.178472 kJ/mol
# Density = 1.818425 g / cm^3
# Si number density = 18.225735 Si / 1000 Ang^3
#
#
#
# Elastic Constant Matrix: (Units=GPa)
#
#
# Indices 1 2 3 4 5 6 
#
# 1 95.3960 38.6102 40.8561 0.0000 0.0000 0.0000
# 2 38.6102 74.6904 22.8549 0.0000 0.0000 0.0000
# 3 40.8561 22.8549 92.8016 0.0000 0.0000 0.0000
# 4 0.0000 0.0000 0.0000 20.4638 0.0000 0.0000
# 5 0.0000 0.0000 0.0000 0.0000 26.4938 0.0000
# 6 0.0000 0.0000 0.0000 0.0000 0.0000 29.5472
#
#
#
# Elastic Compliance Matrix: (Units=1/GPa)
#
#
# Indices 1 2 3 4 5 6 
#
# 1 0.015242 -0.006301 -0.005159 0.000000 0.000000 0.000000
# 2 -0.006301 0.017084 -0.001434 0.000000 0.000000 0.000000
# 3 -0.005159 -0.001434 0.013400 0.000000 0.000000 0.000000
# 4 0.000000 0.000000 0.000000 0.048867 0.000000 0.000000
# 5 0.000000 0.000000 0.000000 0.000000 0.037745 0.000000
# 6 0.000000 0.000000 0.000000 0.000000 0.000000 0.033844
#
#
# Mechanical properties :
#
#
# Convention : Reuss Voigt Hill
#
# Bulk Modulus (GPa) = 50.14938 51.94783 51.04861
# Shear Modulus (GPa) = 25.17439 26.00541 25.58990
#
# Velocity S-wave (km/s) = 3.72056 3.78147 3.75113
# Velocity P-wave (km/s) = 6.78470 6.90147 6.84333
#
# Compressibility (1/GPa) = 0.01994042
#
# Stress axis : x y z
#
# Youngs Moduli (GPa) = 65.60785 58.53319 74.62774
#
# Poissons Ratio (x) = 0.36880 0.38498
# Poissons Ratio (y) = 0.41337 0.10699
# Poissons Ratio (z) = 0.33845 0.08391
#
# Static dielectric constant tensor:
#      x y z
#    x 3.066530 0.000000 0.000000 
#    y 0.000000 3.580230 0.000000 
#    z 0.000000 0.000000 3.460850 
# 
# 
# High freq. dielectric constant tensor:
#      x y z
#    x 1.679500 0.000000 0.000000 
#    y 0.000000 1.714690 0.000000 
#    z 0.000000 0.000000 1.712280 
# 
# From -- ./inp_files/54068.got.cif
#   From: 2010.03.12/outbox.cif.g09.slc.cpg/sg74_28_cif.got.tgz:54068.got - 2010.04.16 15:46:19.
