data_PCOD8299004
_publ_section_title
;
Structure prediction by ZEFSAII (Michael W. Deem and Ramdas Pophale) SiO2 
 PCOD8299004
Probable space group: I M M A
;
_chemical_formula_sum "Si O2"
_cell_formula_units_Z 64
_cell_length_a 17.740779
_cell_length_b 20.372228
_cell_length_c 9.761664
_cell_angle_alpha 90.000000
_cell_angle_beta 90.000000
_cell_angle_gamma 90.000000
_cell_volume 3528.052742
_symmetry_space_group_name_H-M "I M M A"
_symmetry_group_IT_number 74
_symmetry_cell_setting 'orthorhombic'
loop_
_space_group_symop_operation_xyz
x,y,z
-x,1/2-y,z
x,-y,-z
-x,1/2+y,-z
-x,-y,-z
x,1/2+y,-z
-x,y,z
x,1/2-y,z
1/2+x,1/2+y,1/2+z
1/2-x,-y,1/2+z
1/2+x,1/2-y,1/2-z
1/2-x,y,1/2-z
1/2-x,1/2-y,1/2-z
1/2+x,y,1/2-z
1/2-x,1/2+y,1/2+z
1/2+x,-y,1/2+z
loop_
_atom_site_type_symbol
_atom_site_label
_atom_site_fract_x
_atom_site_fract_y
_atom_site_fract_z
Si Si1 0.336004 0.677817 0.591049
Si Si2 0.589274 0.750000 0.365690
Si Si3 0.227482 0.443737 0.396671
Si Si4 0.412176 0.132935 0.136811
Si Si5 0.411574 0.750000 0.058851
O O1 0.300625 0.750000 0.625776
O O2 0.382193 0.684842 0.447746
O O3 0.269954 0.624989 0.574645
O O4 0.394094 0.657806 0.710356
O O5 0.500000 0.750000 0.361392
O O6 0.624146 0.750000 0.211894
O O7 0.252056 0.500000 0.500000
O O8 0.250000 0.472038 0.250000
O O9 0.137656 0.430963 0.399556
O O10 0.500000 0.114582 0.127572
O O11 0.386959 0.186311 0.025117
O O12 0.500000 0.750000 0.075375
#
# Coordination Sequence:
#
# PCOD8299004 Si02
#       5
#    16   8  16  16   8
#     4   9  19  34  57  82 106 143 182 230 272 332
#     4   9  17  30  51  82 113 139 170 224 278 321
#     4  10  23  39  56  77 111 149 187 228 273 328
#     4  10  19  33  57  82 107 141 182 225 274 330
#     4   9  17  28  47  82 114 131 162 222 282 323
#
# _framework density 18.140319000000002
#
# number of rings (size 3 to 8) (size 9 to 14) (size 15 to 20)
#    0.750    1.750    1.250    0.750    1.750    4.000 
#    0.000    1.250    0.000   18.750    0.000    0.000 
#    0.000    0.000    0.000    0.000    0.000    0.000 
#
# Total GULP energy -396521.773971 kJ/mol
# GULP energy per Si atom -12391.305437 kJ/mol
# Density = 1.809903 g / cm^3
# Si number density = 18.140319 Si / 1000 Ang^3
#
#
#
# Elastic Constant Matrix: (Units=GPa)
#
#
# Indices 1 2 3 4 5 6 
#
# 1 91.8736 39.3079 44.3078 0.0000 0.0000 0.0000
# 2 39.3079 87.0173 40.1238 0.0000 0.0000 0.0000
# 3 44.3078 40.1238 133.8525 0.0000 0.0000 0.0000
# 4 0.0000 0.0000 0.0000 27.2589 0.0000 0.0000
# 5 0.0000 0.0000 0.0000 0.0000 20.2725 0.0000
# 6 0.0000 0.0000 0.0000 0.0000 0.0000 5.2340
#
#
#
# Elastic Compliance Matrix: (Units=1/GPa)
#
#
# Indices 1 2 3 4 5 6 
#
# 1 0.014668 -0.005091 -0.003329 0.000000 0.000000 0.000000
# 2 -0.005091 0.015102 -0.002842 0.000000 0.000000 0.000000
# 3 -0.003329 -0.002842 0.009425 0.000000 0.000000 0.000000
# 4 0.000000 0.000000 0.000000 0.036685 0.000000 0.000000
# 5 0.000000 0.000000 0.000000 0.000000 0.049328 0.000000
# 6 0.000000 0.000000 0.000000 0.000000 0.000000 0.191057
#
#
# Mechanical properties :
#
#
# Convention : Reuss Voigt Hill
#
# Bulk Modulus (GPa) = 59.98454 62.24693 61.11573
# Shear Modulus (GPa) = 14.52023 23.15335 18.83679
#
# Velocity S-wave (km/s) = 2.83227 3.57648 3.22591
# Velocity P-wave (km/s) = 6.62076 7.17241 6.90210
#
# Compressibility (1/GPa) = 0.01667096
#
# Stress axis : x y z
#
# Youngs Moduli (GPa) = 68.17411 66.21644 106.10202
#
# Poissons Ratio (x) = 0.33710 0.35326
# Poissons Ratio (y) = 0.34706 0.30152
# Poissons Ratio (z) = 0.22698 0.18818
#
# Static dielectric constant tensor:
#      x y z
#    x 3.216950 0.000000 0.000000 
#    y 0.000000 3.063780 0.000000 
#    z 0.000000 0.000000 3.708890 
# 
# 
# High freq. dielectric constant tensor:
#      x y z
#    x 1.701190 0.000000 0.000000 
#    y 0.000000 1.673530 0.000000 
#    z 0.000000 0.000000 1.711690 
# 
# From -- ./inp_files/12077.got.cif
#   From: 2010.03.12/outbox.cif.g09.slc.cpg/sg74_7_cif.got.tgz:12077.got - 2010.04.16 15:46:19.
