data_PCOD8299293
_publ_section_title
;
Structure prediction by ZEFSAII (Michael W. Deem and Ramdas Pophale) SiO2 
 PCOD8299293
Probable space group: I M M A
;
_chemical_formula_sum "Si O2"
_cell_formula_units_Z 72
_cell_length_a 8.704186
_cell_length_b 22.673676
_cell_length_c 19.107138
_cell_angle_alpha 90.000000
_cell_angle_beta 90.000000
_cell_angle_gamma 90.000000
_cell_volume 3770.906287
_symmetry_space_group_name_H-M "I M M A"
_symmetry_group_IT_number 74
_symmetry_cell_setting 'orthorhombic'
loop_
_space_group_symop_operation_xyz
x,y,z
-x,1/2-y,z
x,-y,-z
-x,1/2+y,-z
-x,-y,-z
x,1/2+y,-z
-x,y,z
x,1/2-y,z
1/2+x,1/2+y,1/2+z
1/2-x,-y,1/2+z
1/2+x,1/2-y,1/2-z
1/2-x,y,1/2-z
1/2-x,1/2-y,1/2-z
1/2+x,y,1/2-z
1/2-x,1/2+y,1/2+z
1/2+x,-y,1/2+z
loop_
_atom_site_type_symbol
_atom_site_label
_atom_site_fract_x
_atom_site_fract_y
_atom_site_fract_z
Si Si1 0.817664 0.642747 0.076856
Si Si2 0.681816 0.418301 0.326513
Si Si3 0.182487 0.184597 0.074687
Si Si4 0.319187 0.982738 0.078098
Si Si5 0.180906 0.250000 0.826377
O O1 0.730505 0.583226 0.096784
O O2 0.764835 0.691863 0.132381
O O3 0.000000 0.632292 0.077794
O O4 0.759342 0.663371 0.000869
O O5 0.500000 0.417917 0.321998
O O6 0.750000 0.418205 0.250000
O O7 0.744320 0.360251 0.366632
O O8 0.733848 0.476068 0.367128
O O9 0.247857 0.250000 0.090695
O O10 0.000000 0.186115 0.073993
O O11 0.500000 0.990333 0.087311
O O12 0.265561 0.000000 0.000000
O O13 0.250000 0.250000 0.750000
O O14 0.000000 0.250000 0.820494
#
# Coordination Sequence:
#
# PCOD8299293 Si02
#       5
#    16  16  16  16   8
#     4  10  19  36  62  88 113 152 202 241 285 347
#     4  11  23  39  61  87 120 157 195 242 296 351
#     4   9  17  33  60  89 114 148 197 242 285 347
#     4  11  23  38  59  88 121 154 196 247 294 345
#     4  10  22  38  60  88 121 154 190 241 292 349
#
# _framework density 19.093553
#
# number of rings (size 3 to 8) (size 9 to 14) (size 15 to 20)
#    0.000    1.778    3.333    1.333    0.000    3.111 
#    0.000    2.222    0.000    4.667    0.000    0.000 
#    0.000    0.000    0.000    0.000    0.000    0.000 
#
# Total GULP energy -446502.573530 kJ/mol
# GULP energy per Si atom -12402.849265 kJ/mol
# Density = 1.905009 g / cm^3
# Si number density = 19.093553 Si / 1000 Ang^3
#
#
#
# Elastic Constant Matrix: (Units=GPa)
#
#
# Indices 1 2 3 4 5 6 
#
# 1 42.1690 32.1781 37.3634 0.0000 0.0000 0.0000
# 2 32.1781 181.2900 89.4069 0.0000 0.0000 0.0000
# 3 37.3634 89.4069 177.6882 -0.0001 0.0000 0.0000
# 4 0.0000 0.0000 -0.0001 40.3343 0.0000 0.0000
# 5 0.0000 0.0000 0.0000 0.0000 16.6436 0.0000
# 6 0.0000 0.0000 0.0000 0.0000 0.0000 17.2302
#
#
#
# Elastic Compliance Matrix: (Units=1/GPa)
#
#
# Indices 1 2 3 4 5 6 
#
# 1 0.030304 -0.002974 -0.004876 0.000000 0.000000 0.000000
# 2 -0.002974 0.007628 -0.003213 0.000000 0.000000 0.000000
# 3 -0.004876 -0.003213 0.008270 0.000000 0.000000 0.000000
# 4 0.000000 0.000000 0.000000 0.024793 0.000000 0.000000
# 5 0.000000 0.000000 0.000000 0.000000 0.060083 0.000000
# 6 0.000000 0.000000 0.000000 0.000000 0.000000 0.058038
#
#
# Mechanical properties :
#
#
# Convention : Reuss Voigt Hill
#
# Bulk Modulus (GPa) = 41.53476 79.89378 60.71427
# Shear Modulus (GPa) = 22.80332 30.98821 26.89576
#
# Velocity S-wave (km/s) = 3.45961 4.03298 3.75724
# Velocity P-wave (km/s) = 6.14484 7.97626 7.11968
#
# Compressibility (1/GPa) = 0.02407622
#
# Stress axis : x y z
#
# Youngs Moduli (GPa) = 32.99936 131.08741 120.92311
#
# Poissons Ratio (x) = 0.38989 0.58957
# Poissons Ratio (y) = 0.09815 0.38853
# Poissons Ratio (z) = 0.16089 0.42118
#
# Static dielectric constant tensor:
#      x y z
#    x 3.232070 0.000000 0.000000 
#    y 0.000000 4.193950 0.000000 
#    z 0.000000 0.000000 3.493670 
# 
# 
# High freq. dielectric constant tensor:
#      x y z
#    x 1.720560 0.000000 0.000000 
#    y 0.000000 1.761970 0.000000 
#    z 0.000000 0.000000 1.744800 
# 
# From -- ./inp_files/39478.got.cif
#   From: 2010.03.12/outbox.cif.g09.slc.cpg/sg74_20_cif.got.tgz:39478.got - 2010.04.16 15:46:19.
