data_PCOD8299631
_publ_section_title
;
Structure prediction by ZEFSAII (Michael W. Deem and Ramdas Pophale) SiO2 
 PCOD8299631
Probable space group: I M M A
;
_chemical_formula_sum "Si O2"
_cell_formula_units_Z 104
_cell_length_a 18.808504
_cell_length_b 9.150593
_cell_length_c 30.233671
_cell_angle_alpha 90.000000
_cell_angle_beta 90.000000
_cell_angle_gamma 90.000000
_cell_volume 5203.485825
_symmetry_space_group_name_H-M "I M M A"
_symmetry_group_IT_number 74
_symmetry_cell_setting 'orthorhombic'
loop_
_space_group_symop_operation_xyz
x,y,z
-x,1/2-y,z
x,-y,-z
-x,1/2+y,-z
-x,-y,-z
x,1/2+y,-z
-x,y,z
x,1/2-y,z
1/2+x,1/2+y,1/2+z
1/2-x,-y,1/2+z
1/2+x,1/2-y,1/2-z
1/2-x,y,1/2-z
1/2-x,1/2-y,1/2-z
1/2+x,y,1/2-z
1/2-x,1/2+y,1/2+z
1/2+x,-y,1/2+z
loop_
_atom_site_type_symbol
_atom_site_label
_atom_site_fract_x
_atom_site_fract_y
_atom_site_fract_z
Si Si1 0.577057 0.412136 0.432206
Si Si2 0.826484 0.914678 0.228898
Si Si3 0.917953 0.084795 0.689819
Si Si4 0.687194 0.000000 0.500000
Si Si5 0.418531 0.577738 0.899763
Si Si6 0.787626 0.084028 0.577070
Si Si7 0.682884 0.075343 0.361298
O O1 0.500000 0.490350 0.442641
O O2 0.558532 0.250000 0.417942
O O3 0.632403 0.399505 0.472865
O O4 0.616285 0.485585 0.390273
O O5 0.846706 0.750000 0.213481
O O6 0.750000 0.916069 0.250000
O O7 0.879652 0.973981 0.266318
O O8 0.830227 0.025925 0.188410
O O9 0.892247 0.250000 0.678189
O O10 0.000000 0.083096 0.701261
O O11 0.900489 0.977817 0.649424
O O12 0.738046 0.086977 0.533543
O O13 0.500000 0.537629 0.912754
O O14 0.405945 0.750000 0.902385
O O15 0.363489 0.495751 0.932831
O O16 0.801819 0.250000 0.591388
O O17 0.753242 0.998218 0.618335
O O18 0.691555 0.250000 0.364079
#
# Coordination Sequence:
#
# PCOD8299631 Si02
#       7
#    16  16  16   8  16  16  16
#     4   9  18  34  55  79 109 143 179 221 269 321
#     4  10  20  33  50  74 105 142 185 230 274 321
#     4   9  18  33  53  77 107 144 184 226 274 327
#     4  10  21  36  57  84 110 140 182 224 265 318
#     4  10  21  37  58  84 112 142 179 224 272 325
#     4  11  22  37  59  83 110 144 180 222 273 329
#     4  10  21  35  53  79 111 147 187 230 277 327
#
# _framework density 19.986602000000001
#
# number of rings (size 3 to 8) (size 9 to 14) (size 15 to 20)
#    0.000    2.154    0.000    3.000    0.000    5.538 
#    0.000    0.385    0.000    8.769    0.000    0.000 
#    0.000    0.000    0.000    0.000    0.000    0.000 
#
# Total GULP energy -644424.365161 kJ/mol
# GULP energy per Si atom -12392.776253 kJ/mol
# Density = 1.994111 g / cm^3
# Si number density = 19.986602 Si / 1000 Ang^3
#
#
#
# Elastic Constant Matrix: (Units=GPa)
#
#
# Indices 1 2 3 4 5 6 
#
# 1 140.3141 49.1722 49.9490 0.0000 0.0000 0.0000
# 2 49.1722 94.5996 24.9068 0.0000 0.0000 0.0000
# 3 49.9490 24.9068 79.8711 0.0000 0.0000 0.0000
# 4 0.0000 0.0000 0.0000 23.8727 0.0000 0.0000
# 5 0.0000 0.0000 0.0000 0.0000 27.7508 0.0000
# 6 0.0000 0.0000 0.0000 0.0000 0.0000 25.1509
#
#
#
# Elastic Compliance Matrix: (Units=1/GPa)
#
#
# Indices 1 2 3 4 5 6 
#
# 1 0.010408 -0.004027 -0.005253 0.000000 0.000000 0.000000
# 2 -0.004027 0.013074 -0.001559 0.000000 0.000000 0.000000
# 3 -0.005253 -0.001559 0.016291 0.000000 0.000000 0.000000
# 4 0.000000 0.000000 0.000000 0.041889 0.000000 0.000000
# 5 0.000000 0.000000 0.000000 0.000000 0.036035 0.000000
# 6 0.000000 0.000000 0.000000 0.000000 0.000000 0.039760
#
#
# Mechanical properties :
#
#
# Convention : Reuss Voigt Hill
#
# Bulk Modulus (GPa) = 55.26020 62.53788 58.89904
# Shear Modulus (GPa) = 27.00253 28.07199 27.53726
#
# Velocity S-wave (km/s) = 3.67963 3.75179 3.71588
# Velocity P-wave (km/s) = 6.76473 7.07995 6.92413
#
# Compressibility (1/GPa) = 0.01809621
#
# Stress axis : x y z
#
# Youngs Moduli (GPa) = 96.07875 76.48489 61.38197
#
# Poissons Ratio (x) = 0.30800 0.32245
# Poissons Ratio (y) = 0.38691 0.09568
# Poissons Ratio (z) = 0.50472 0.11922
#
# Static dielectric constant tensor:
#      x y z
#    x 4.129130 0.000000 0.000000 
#    y 0.000000 3.455190 0.000000 
#    z 0.000000 0.000000 3.585160 
# 
# 
# High freq. dielectric constant tensor:
#      x y z
#    x 1.798930 0.000000 0.000000 
#    y 0.000000 1.763760 0.000000 
#    z 0.000000 0.000000 1.766170 
# 
# From -- ./inp_files/73375.got.cif
#   From: 2010.03.12/outbox.cif.g09.slc.cpg/sg74_37_cif.got.tgz:73375.got - 2010.04.16 15:46:19.
