data_PCOD8299888
_publ_section_title
;
Structure prediction by ZEFSAII (Michael W. Deem and Ramdas Pophale) SiO2 
 PCOD8299888
Probable space group: I M M A
;
_chemical_formula_sum "Si O2"
_cell_formula_units_Z 96
_cell_length_a 8.910493
_cell_length_b 23.186949
_cell_length_c 25.429947
_cell_angle_alpha 90.000000
_cell_angle_beta 90.000000
_cell_angle_gamma 90.000000
_cell_volume 5254.008792
_symmetry_space_group_name_H-M "I M M A"
_symmetry_group_IT_number 74
_symmetry_cell_setting 'orthorhombic'
loop_
_space_group_symop_operation_xyz
x,y,z
-x,1/2-y,z
x,-y,-z
-x,1/2+y,-z
-x,-y,-z
x,1/2+y,-z
-x,y,z
x,1/2-y,z
1/2+x,1/2+y,1/2+z
1/2-x,-y,1/2+z
1/2+x,1/2-y,1/2-z
1/2-x,y,1/2-z
1/2-x,1/2-y,1/2-z
1/2+x,y,1/2-z
1/2-x,1/2+y,1/2+z
1/2+x,-y,1/2+z
loop_
_atom_site_type_symbol
_atom_site_label
_atom_site_fract_x
_atom_site_fract_y
_atom_site_fract_z
Si Si1 0.677603 0.250000 0.952219
Si Si2 0.676804 0.368592 0.902525
Si Si3 0.676496 0.443999 0.303980
Si Si4 0.822916 0.424312 0.804264
Si Si5 0.171527 0.932497 0.006426
Si Si6 0.676923 0.633433 0.599084
Si Si7 0.821716 0.750000 0.571231
O O1 0.500000 0.250000 0.956160
O O2 0.734763 0.306044 0.921291
O O3 0.742362 0.250000 0.011550
O O4 0.500000 0.369977 0.892767
O O5 0.760945 0.382708 0.848976
O O6 0.718822 0.414499 0.946971
O O7 0.500000 0.439568 0.297057
O O8 0.750000 0.422064 0.250000
O O9 0.724289 0.509738 0.316613
O O10 0.733313 0.404052 0.351458
O O11 0.750000 0.403611 0.750000
O O12 0.000000 0.417442 0.800462
O O13 0.222427 0.900811 0.953355
O O14 0.000000 0.916781 0.021039
O O15 0.190312 0.000000 0.000000
O O16 0.500000 0.644091 0.601679
O O17 0.761455 0.694101 0.601471
O O18 0.000000 0.750000 0.572611
#
# Coordination Sequence:
#
# PCOD8299888 Si02
#       7
#     8  16  16  16  16  16   8
#     4   9  20  37  54  75 110 147 182 228 276 317
#     4  11  21  36  56  80 110 145 184 227 275 326
#     4   9  19  36  58  82 112 144 179 224 274 326
#     4  10  20  37  59  85 114 146 182 224 274 328
#     4  10  20  34  53  79 111 143 176 221 277 333
#     4  10  20  35  55  80 109 143 182 224 271 327
#     4  11  21  37  56  77 108 147 186 230 274 318
#
# _framework density 18.271761999999999
#
# number of rings (size 3 to 8) (size 9 to 14) (size 15 to 20)
#    0.000    2.000    1.667    2.250    0.000    4.333 
#    0.000    4.167    0.000    0.000    0.000    0.000 
#    0.000    0.000    0.000    0.000    0.000    0.000 
#
# Total GULP energy -595390.839265 kJ/mol
# GULP energy per Si atom -12403.975818 kJ/mol
# Density = 1.823017 g / cm^3
# Si number density = 18.271762 Si / 1000 Ang^3
#
#
#
# Elastic Constant Matrix: (Units=GPa)
#
#
# Indices 1 2 3 4 5 6 
#
# 1 48.9346 23.4749 34.8871 0.0000 0.0000 0.0000
# 2 23.4749 81.8849 42.0015 0.0000 0.0000 -0.0001
# 3 34.8871 42.0015 125.3077 0.0000 0.0000 0.0000
# 4 0.0000 0.0000 0.0000 20.5581 0.0000 0.0000
# 5 0.0000 0.0000 0.0000 0.0000 35.2210 0.0000
# 6 0.0000 -0.0001 0.0000 0.0000 0.0000 -345.9595
#
#
#
# Elastic Compliance Matrix: (Units=1/GPa)
#
#
# Indices 1 2 3 4 5 6 
#
# 1 0.026900 -0.004674 -0.005923 0.000000 0.000000 0.000000
# 2 -0.004674 0.015560 -0.003914 0.000000 0.000000 0.000000
# 3 -0.005923 -0.003914 0.010941 0.000000 0.000000 0.000000
# 4 0.000000 0.000000 0.000000 0.048643 0.000000 0.000000
# 5 0.000000 0.000000 0.000000 0.000000 0.028392 0.000000
# 6 0.000000 0.000000 0.000000 0.000000 0.000000 -0.002891
#
#
# Mechanical properties :
#
#
# Convention : Reuss Voigt Hill
#
# Bulk Modulus (GPa) = 41.01760 50.76160 45.88960
# Shear Modulus (GPa) = 30.35942 -47.65183 -8.64620
#
# Velocity S-wave (km/s) = 4.08063 -5.11235 -2.17768
# Velocity P-wave (km/s) = 6.68576 2.64696 4.34126
#
# Compressibility (1/GPa) = 0.02437978
#
# Stress axis : x y z
#
# Youngs Moduli (GPa) = 37.17469 64.26776 91.39691
#
# Poissons Ratio (x) = 0.30038 0.54131
# Poissons Ratio (y) = 0.17375 0.35775
# Poissons Ratio (z) = 0.22017 0.25156
#
# Static dielectric constant tensor:
#      x y z
#    x 3.269820 0.000000 0.000000 
#    y 0.000000 3.464700 0.000000 
#    z 0.000000 0.000000 3.504680 
# 
# 
# High freq. dielectric constant tensor:
#      x y z
#    x 1.702170 0.000000 0.000000 
#    y 0.000000 1.708030 0.000000 
#    z 0.000000 0.000000 1.711950 
# 
# From -- ./inp_files/57321.got.cif
#   From: 2010.03.12/outbox.cif.g09.slc.cpg/sg74_29_cif.got.tgz:57321.got - 2010.04.16 15:46:19.
