data_PCOD8299400
_publ_section_title
;
Structure prediction by ZEFSAII (Michael W. Deem and Ramdas Pophale) SiO2 
 PCOD8299400
Probable space group: I M M A
;
_chemical_formula_sum "Si O2"
_cell_formula_units_Z 88
_cell_length_a 9.104513
_cell_length_b 19.469134
_cell_length_c 27.881612
_cell_angle_alpha 90.000000
_cell_angle_beta 90.000000
_cell_angle_gamma 90.000000
_cell_volume 4942.210441
_symmetry_space_group_name_H-M "I M M A"
_symmetry_group_IT_number 74
_symmetry_cell_setting 'orthorhombic'
loop_
_space_group_symop_operation_xyz
x,y,z
-x,1/2-y,z
x,-y,-z
-x,1/2+y,-z
-x,-y,-z
x,1/2+y,-z
-x,y,z
x,1/2-y,z
1/2+x,1/2+y,1/2+z
1/2-x,-y,1/2+z
1/2+x,1/2-y,1/2-z
1/2-x,y,1/2-z
1/2-x,1/2-y,1/2-z
1/2+x,y,1/2-z
1/2-x,1/2+y,1/2+z
1/2+x,-y,1/2+z
loop_
_atom_site_type_symbol
_atom_site_label
_atom_site_fract_x
_atom_site_fract_y
_atom_site_fract_z
Si Si1 0.333004 0.968003 0.387478
Si Si2 0.672531 0.878187 0.299233
Si Si3 0.661034 0.750000 0.556041
Si Si4 0.820850 0.750000 0.349782
Si Si5 0.341165 0.599073 0.029682
Si Si6 0.672431 0.602564 0.563551
Si Si7 0.780680 0.250000 0.542138
O O1 0.500000 0.955749 0.403907
O O2 0.310267 0.945359 0.332710
O O3 0.234451 0.920561 0.420724
O O4 0.293187 0.049076 0.393566
O O5 0.500000 0.858730 0.292534
O O6 0.750000 0.899055 0.250000
O O7 0.764402 0.815599 0.320995
O O8 0.500000 0.750000 0.578288
O O9 0.738026 0.679188 0.574890
O O10 0.648772 0.750000 0.497321
O O11 0.738965 0.750000 0.401486
O O12 0.000000 0.750000 0.354521
O O13 0.500000 0.563359 0.026433
O O14 0.369830 0.680944 0.030665
O O15 0.246528 0.572932 0.984602
O O16 0.500000 0.609520 0.553031
#
# Coordination Sequence:
#
# PCOD8299400 Si02
#       7
#    16  16   8   8  16  16   8
#     4  10  21  35  51  70  97 129 163 203 251 300
#     4  11  24  40  56  75  97 129 170 216 260 302
#     4   8  16  30  51  74 100 132 168 202 236 286
#     4  12  22  37  56  74 100 135 173 215 254 292
#     4  11  20  31  47  71 101 133 170 206 241 285
#     4   9  18  33  50  72 100 131 163 199 242 292
#     4  10  20  31  46  70 102 139 172 207 243 278
#
# _framework density 17.805797999999999
#
# number of rings (size 3 to 8) (size 9 to 14) (size 15 to 20)
#    0.000    1.818    1.818    3.000    0.000    5.091 
#    0.000    0.000    0.000    0.000    0.000    0.636 
#    0.000    0.000    0.000    0.000    0.000    0.000 
#
# Total GULP energy -545101.210339 kJ/mol
# GULP energy per Si atom -12388.663871 kJ/mol
# Density = 1.776527 g / cm^3
# Si number density = 17.805798 Si / 1000 Ang^3
#
#
#
# Elastic Constant Matrix: (Units=GPa)
#
#
# Indices 1 2 3 4 5 6 
#
# 1 68.9950 40.8741 28.1706 0.0000 0.0000 0.0000
# 2 40.8741 120.2886 59.8120 0.0000 0.0000 0.0000
# 3 28.1706 59.8120 88.1666 0.0000 0.0000 0.0000
# 4 0.0000 0.0000 0.0000 25.3405 0.0000 0.0000
# 5 0.0000 0.0000 0.0000 0.0000 19.8635 0.0000
# 6 0.0000 0.0000 0.0000 0.0000 0.0000 2.4173
#
#
#
# Elastic Compliance Matrix: (Units=1/GPa)
#
#
# Indices 1 2 3 4 5 6 
#
# 1 0.018501 -0.005051 -0.002485 0.000000 0.000000 0.000000
# 2 -0.005051 0.013924 -0.007832 0.000000 0.000000 0.000000
# 3 -0.002485 -0.007832 0.017449 0.000000 0.000000 0.000000
# 4 0.000000 0.000000 0.000000 0.039462 0.000000 0.000000
# 5 0.000000 0.000000 0.000000 0.000000 0.050343 0.000000
# 6 0.000000 0.000000 0.000000 0.000000 0.000000 0.413682
#
#
# Mechanical properties :
#
#
# Convention : Reuss Voigt Hill
#
# Bulk Modulus (GPa) = 52.25100 59.46262 55.85681
# Shear Modulus (GPa) = 8.46772 19.43051 13.94912
#
# Velocity S-wave (km/s) = 2.18310 3.30699 2.80197
# Velocity P-wave (km/s) = 5.98023 6.93175 6.47350
#
# Compressibility (1/GPa) = 0.01913839
#
# Stress axis : x y z
#
# Youngs Moduli (GPa) = 54.05217 71.81757 57.30865
#
# Poissons Ratio (x) = 0.36276 0.14239
# Poissons Ratio (y) = 0.27302 0.44885
# Poissons Ratio (z) = 0.13430 0.56249
#
# Static dielectric constant tensor:
#      x y z
#    x 3.270220 0.000000 0.000000 
#    y 0.000000 3.616240 0.000000 
#    z 0.000000 0.000000 3.136780 
# 
# 
# High freq. dielectric constant tensor:
#      x y z
#    x 1.684990 0.000000 0.000000 
#    y 0.000000 1.699310 0.000000 
#    z 0.000000 0.000000 1.651030 
# 
# From -- ./inp_files/57086.got.cif
#   From: 2010.03.12/outbox.cif.g09.slc.cpg/sg74_29_cif.got.tgz:57086.got - 2010.04.16 15:46:19.
