data_PCOD8299597
_publ_section_title
;
Structure prediction by ZEFSAII (Michael W. Deem and Ramdas Pophale) SiO2 
 PCOD8299597
Probable space group: I M M A
;
_chemical_formula_sum "Si O2"
_cell_formula_units_Z 88
_cell_length_a 17.186969
_cell_length_b 13.777540
_cell_length_c 20.958468
_cell_angle_alpha 90.000000
_cell_angle_beta 90.000000
_cell_angle_gamma 90.000000
_cell_volume 4962.842676
_symmetry_space_group_name_H-M "I M M A"
_symmetry_group_IT_number 74
_symmetry_cell_setting 'orthorhombic'
loop_
_space_group_symop_operation_xyz
x,y,z
-x,1/2-y,z
x,-y,-z
-x,1/2+y,-z
-x,-y,-z
x,1/2+y,-z
-x,y,z
x,1/2-y,z
1/2+x,1/2+y,1/2+z
1/2-x,-y,1/2+z
1/2+x,1/2-y,1/2-z
1/2-x,y,1/2-z
1/2-x,1/2-y,1/2-z
1/2+x,y,1/2-z
1/2-x,1/2+y,1/2+z
1/2+x,-y,1/2+z
loop_
_atom_site_type_symbol
_atom_site_label
_atom_site_fract_x
_atom_site_fract_y
_atom_site_fract_z
Si Si1 0.295901 0.360506 0.601369
Si Si2 0.645291 0.000000 0.500000
Si Si3 0.411388 0.861746 0.287364
Si Si4 0.690078 0.452534 0.808325
Si Si5 0.256078 0.854695 0.675343
Si Si6 0.913449 0.638717 0.895354
O O1 0.304767 0.250000 0.578689
O O2 0.298492 0.430211 0.540566
O O3 0.364532 0.393103 0.649664
O O4 0.213760 0.374066 0.638023
O O5 0.591994 0.068337 0.456220
O O6 0.500000 0.879796 0.304975
O O7 0.392631 0.750000 0.270971
O O8 0.392109 0.925074 0.223684
O O9 0.750000 0.448271 0.750000
O O10 0.695341 0.559196 0.842365
O O11 0.233775 0.750000 0.643363
O O12 0.250000 0.840518 0.750000
O O13 0.344488 0.884826 0.655328
O O14 0.905554 0.750000 0.918738
O O15 0.000000 0.622898 0.864572
#
# Coordination Sequence:
#
# PCOD8299597 Si02
#       6
#    16   8  16  16  16  16
#     4  10  20  33  49  70 101 135 168 204 242 290
#     4  12  21  34  46  70  99 138 176 202 235 282
#     4   9  18  32  52  77 102 126 156 202 258 308
#     4   9  16  31  50  73  95 125 160 200 254 299
#     4   9  17  32  50  69  93 125 167 208 248 290
#     4  10  21  35  50  70  99 134 170 207 244 288
#
# _framework density 17.731771999999999
#
# number of rings (size 3 to 8) (size 9 to 14) (size 15 to 20)
#    0.000    2.364    1.818    1.364    0.000    3.636 
#    0.000    1.818    0.000    0.545    0.000    0.636 
#    0.000    0.000    0.000    0.182    0.000    0.182 
#
# Total GULP energy -545093.844422 kJ/mol
# GULP energy per Si atom -12388.496464 kJ/mol
# Density = 1.769141 g / cm^3
# Si number density = 17.731772 Si / 1000 Ang^3
#
#
#
# Elastic Constant Matrix: (Units=GPa)
#
#
# Indices 1 2 3 4 5 6 
#
# 1 36.4047 26.2412 41.2417 0.0000 0.0000 0.0000
# 2 26.2412 103.4801 45.9678 0.0000 0.0000 0.0000
# 3 41.2417 45.9678 73.2161 0.0000 0.0000 0.0000
# 4 0.0000 0.0000 0.0000 32.5362 0.0000 0.0000
# 5 0.0000 0.0000 0.0000 0.0000 19.2157 0.0000
# 6 0.0000 0.0000 0.0000 0.0000 0.0000 18.1377
#
#
#
# Elastic Compliance Matrix: (Units=1/GPa)
#
#
# Indices 1 2 3 4 5 6 
#
# 1 0.075918 -0.000354 -0.042541 0.000000 0.000000 0.000000
# 2 -0.000354 0.013403 -0.008215 0.000000 0.000000 0.000000
# 3 -0.042541 -0.008215 0.042779 0.000000 0.000000 0.000000
# 4 0.000000 0.000000 0.000000 0.030735 0.000000 0.000000
# 5 0.000000 0.000000 0.000000 0.000000 0.052041 0.000000
# 6 0.000000 0.000000 0.000000 0.000000 0.000000 0.055134
#
#
# Mechanical properties :
#
#
# Convention : Reuss Voigt Hill
#
# Bulk Modulus (GPa) = 33.46902 48.88914 41.17908
# Shear Modulus (GPa) = 13.08246 20.62125 16.85186
#
# Velocity S-wave (km/s) = 2.71919 3.41391 3.08616
# Velocity P-wave (km/s) = 5.36422 6.57047 5.99774
#
# Compressibility (1/GPa) = 0.02987838
#
# Stress axis : x y z
#
# Youngs Moduli (GPa) = 13.17209 74.61062 23.37587
#
# Poissons Ratio (x) = 0.02642 0.99444
# Poissons Ratio (y) = 0.00466 0.19204
# Poissons Ratio (z) = 0.56036 0.61295
#
# Static dielectric constant tensor:
#      x y z
#    x 3.079010 0.000000 0.000000 
#    y 0.000000 4.014690 0.000000 
#    z 0.000000 0.000000 3.129900 
# 
# 
# High freq. dielectric constant tensor:
#      x y z
#    x 1.640040 0.000000 0.000000 
#    y 0.000000 1.717730 0.000000 
#    z 0.000000 0.000000 1.655460 
# 
# From -- ./inp_files/43940.got.cif
#   From: 2010.03.12/outbox.cif.g09.slc.cpg/sg74_22_cif.got.tgz:43940.got - 2010.04.16 15:46:19.
