data_PCOD8299531
_publ_section_title
;
Structure prediction by ZEFSAII (Michael W. Deem and Ramdas Pophale) SiO2 
 PCOD8299531
Probable space group: I M M A
;
_chemical_formula_sum "Si O2"
_cell_formula_units_Z 96
_cell_length_a 26.401140
_cell_length_b 13.984063
_cell_length_c 14.710614
_cell_angle_alpha 90.000000
_cell_angle_beta 90.000000
_cell_angle_gamma 90.000000
_cell_volume 5431.088152
_symmetry_space_group_name_H-M "I M M A"
_symmetry_group_IT_number 74
_symmetry_cell_setting 'orthorhombic'
loop_
_space_group_symop_operation_xyz
x,y,z
-x,1/2-y,z
x,-y,-z
-x,1/2+y,-z
-x,-y,-z
x,1/2+y,-z
-x,y,z
x,1/2-y,z
1/2+x,1/2+y,1/2+z
1/2-x,-y,1/2+z
1/2+x,1/2-y,1/2-z
1/2-x,y,1/2-z
1/2-x,1/2-y,1/2-z
1/2+x,y,1/2-z
1/2-x,1/2+y,1/2+z
1/2+x,-y,1/2+z
loop_
_atom_site_type_symbol
_atom_site_label
_atom_site_fract_x
_atom_site_fract_y
_atom_site_fract_z
Si Si1 0.268562 0.957816 0.342016
Si Si2 0.864425 0.452724 0.213761
Si Si3 0.440578 0.948131 0.407153
Si Si4 0.279416 0.750000 0.379100
Si Si5 0.227499 0.250000 0.427838
Si Si6 0.160723 0.750000 0.857947
Si Si7 0.611533 0.750000 0.443401
Si Si8 0.176860 0.548458 0.587736
O O1 0.250000 0.009625 0.250000
O O2 0.262827 0.844751 0.327453
O O3 0.325827 0.993009 0.356104
O O4 0.231083 0.994249 0.419244
O O5 0.917973 0.494834 0.180277
O O6 0.858665 0.340050 0.199439
O O7 0.855169 0.476165 0.320820
O O8 0.500000 0.948377 0.390523
O O9 0.422016 0.840312 0.417110
O O10 0.425031 0.000000 0.500000
O O11 0.252491 0.750000 0.475037
O O12 0.339701 0.750000 0.380494
O O13 0.277245 0.250000 0.361626
O O14 0.189429 0.339156 0.415802
O O15 0.131562 0.750000 0.953401
O O16 0.147976 0.500000 0.500000
#
# Coordination Sequence:
#
# PCOD8299531 Si02
#       8
#    16  16  16   8   8   8   8  16
#     4  10  20  32  50  73 108 149 185 220 265 323
#     4  11  22  37  56  80 111 150 191 231 278 333
#     4  11  23  40  60  82 110 141 179 229 289 343
#     4  11  19  30  51  76 111 146 183 222 268 320
#     4  11  21  31  52  78 112 156 190 230 267 320
#     4  11  21  33  56  82 112 151 189 225 275 335
#     4  11  21  34  57  84 112 145 178 224 282 337
#     4  11  22  36  52  78 114 154 195 230 269 320
#
# _framework density 17.676016000000001
#
# number of rings (size 3 to 8) (size 9 to 14) (size 15 to 20)
#    0.000    1.167    6.667    1.000    0.000    1.333 
#    0.000    1.250    0.000    0.500    0.000    0.000 
#    0.000    0.000    0.000    0.000    0.000    0.000 
#
# Total GULP energy -594750.950227 kJ/mol
# GULP energy per Si atom -12390.644796 kJ/mol
# Density = 1.763578 g / cm^3
# Si number density = 17.676016 Si / 1000 Ang^3
#
#
#
# Elastic Constant Matrix: (Units=GPa)
#
#
# Indices 1 2 3 4 5 6 
#
# 1 62.1496 27.4452 45.1686 0.0000 0.0000 0.0000
# 2 27.4452 135.4051 38.0889 0.0000 0.0000 0.0000
# 3 45.1686 38.0889 99.9910 0.0000 0.0000 0.0000
# 4 0.0000 0.0000 0.0000 26.1115 0.0000 0.0000
# 5 0.0000 0.0000 0.0000 0.0000 10.4658 0.0000
# 6 0.0000 0.0000 0.0000 0.0000 0.0000 140.2674
#
#
#
# Elastic Compliance Matrix: (Units=1/GPa)
#
#
# Indices 1 2 3 4 5 6 
#
# 1 0.024463 -0.002072 -0.010261 0.000000 0.000000 0.000000
# 2 -0.002072 0.008447 -0.002282 0.000000 0.000000 0.000000
# 3 -0.010261 -0.002282 0.015505 0.000000 0.000000 0.000000
# 4 0.000000 0.000000 0.000000 0.038297 0.000000 0.000000
# 5 0.000000 0.000000 0.000000 0.000000 0.095549 0.000000
# 6 0.000000 0.000000 0.000000 0.000000 0.000000 0.007129
#
#
# Mechanical properties :
#
#
# Convention : Reuss Voigt Hill
#
# Bulk Modulus (GPa) = 52.12307 57.66124 54.89215
# Shear Modulus (GPa) = 22.22069 47.82516 35.02293
#
# Velocity S-wave (km/s) = 3.54942 5.20723 4.45610
# Velocity P-wave (km/s) = 6.80808 8.29733 7.58932
#
# Compressibility (1/GPa) = 0.01918536
#
# Stress axis : x y z
#
# Youngs Moduli (GPa) = 40.87853 118.38460 64.49390
#
# Poissons Ratio (x) = 0.24528 0.66179
# Poissons Ratio (y) = 0.08470 0.14716
# Poissons Ratio (z) = 0.41946 0.27012
#
# Static dielectric constant tensor:
#      x y z
#    x 3.050980 0.000000 0.000000 
#    y 0.000000 3.526910 0.000000 
#    z 0.000000 0.000000 3.227110 
# 
# 
# High freq. dielectric constant tensor:
#      x y z
#    x 1.643240 0.000000 0.000000 
#    y 0.000000 1.704200 0.000000 
#    z 0.000000 0.000000 1.682080 
# 
# From -- ./inp_files/36452.got.cif
#   From: 2010.03.12/outbox.cif.g09.slc.cpg/sg74_19_cif.got.tgz:36452.got - 2010.04.16 15:46:19.
