data_PCOD8299847
_publ_section_title
;
Structure prediction by ZEFSAII (Michael W. Deem and Ramdas Pophale) SiO2 
 PCOD8299847
Probable space group: I M M A
;
_chemical_formula_sum "Si O2"
_cell_formula_units_Z 88
_cell_length_a 17.290130
_cell_length_b 14.785813
_cell_length_c 18.365784
_cell_angle_alpha 90.000000
_cell_angle_beta 90.000000
_cell_angle_gamma 90.000000
_cell_volume 4695.187499
_symmetry_space_group_name_H-M "I M M A"
_symmetry_group_IT_number 74
_symmetry_cell_setting 'orthorhombic'
loop_
_space_group_symop_operation_xyz
x,y,z
-x,1/2-y,z
x,-y,-z
-x,1/2+y,-z
-x,-y,-z
x,1/2+y,-z
-x,y,z
x,1/2-y,z
1/2+x,1/2+y,1/2+z
1/2-x,-y,1/2+z
1/2+x,1/2-y,1/2-z
1/2-x,y,1/2-z
1/2-x,1/2-y,1/2-z
1/2+x,y,1/2-z
1/2-x,1/2+y,1/2+z
1/2+x,-y,1/2+z
loop_
_atom_site_type_symbol
_atom_site_label
_atom_site_fract_x
_atom_site_fract_y
_atom_site_fract_z
Si Si1 0.647384 0.000000 0.000000
Si Si2 0.585999 0.857251 0.427292
Si Si3 0.091657 0.149306 0.764450
Si Si4 0.213324 0.646537 0.677201
Si Si5 0.412064 0.997668 0.845576
Si Si6 0.226544 0.145658 0.024909
O O1 0.592619 0.018114 0.931182
O O2 0.700171 0.910943 0.000833
O O3 0.500000 0.897242 0.444442
O O4 0.580433 0.750000 0.430499
O O5 0.614028 0.885372 0.345878
O O6 0.647833 0.892215 0.487432
O O7 0.126669 0.250000 0.749857
O O8 0.000000 0.156075 0.759159
O O9 0.123277 0.079522 0.703473
O O10 0.188531 0.750000 0.686520
O O11 0.250000 0.606830 0.750000
O O12 0.134448 0.593917 0.665204
O O13 0.276653 0.634911 0.612605
O O14 0.500000 0.980322 0.822125
O O15 0.239989 0.250000 0.002485
#
# Coordination Sequence:
#
# PCOD8299847 Si02
#       6
#     8  16  16  16  16  16
#     4  10  21  34  49  70  98 130 168 210 249 290
#     4   8  14  28  51  76 102 130 158 193 243 306
#     4   8  15  28  47  74 105 130 152 187 241 302
#     4   9  19  36  54  71  96 131 169 210 253 292
#     4  10  20  34  53  74  97 129 169 210 249 291
#     4   9  18  33  51  72 100 132 164 200 247 299
#
# _framework density 18.742595000000001
#
# number of rings (size 3 to 8) (size 9 to 14) (size 15 to 20)
#    0.000    3.091    0.000    1.364    0.000    4.000 
#    0.000    1.364    0.000   10.364    0.000    0.000 
#    0.000    0.000    0.000    0.000    0.000    0.000 
#
# Total GULP energy -545253.767983 kJ/mol
# GULP energy per Si atom -12392.131091 kJ/mol
# Density = 1.869994 g / cm^3
# Si number density = 18.742595 Si / 1000 Ang^3
#
#
#
# Elastic Constant Matrix: (Units=GPa)
#
#
# Indices 1 2 3 4 5 6 
#
# 1 70.8048 28.8287 50.5834 0.0000 0.0000 0.0000
# 2 28.8287 57.7635 43.9916 0.0000 0.0000 0.0000
# 3 50.5834 43.9916 133.7725 0.0000 0.0000 0.0000
# 4 0.0000 0.0000 0.0000 25.2632 0.0000 0.0000
# 5 0.0000 0.0000 0.0000 0.0000 23.8111 0.0000
# 6 0.0000 0.0000 0.0000 0.0000 0.0000 15.7729
#
#
#
# Elastic Compliance Matrix: (Units=1/GPa)
#
#
# Indices 1 2 3 4 5 6 
#
# 1 0.020728 -0.005838 -0.005918 0.000000 0.000000 0.000000
# 2 -0.005838 0.024741 -0.005929 0.000000 0.000000 0.000000
# 3 -0.005918 -0.005929 0.011663 0.000000 0.000000 0.000000
# 4 0.000000 0.000000 0.000000 0.039583 0.000000 0.000000
# 5 0.000000 0.000000 0.000000 0.000000 0.041997 0.000000
# 6 0.000000 0.000000 0.000000 0.000000 0.000000 0.063400
#
#
# Mechanical properties :
#
#
# Convention : Reuss Voigt Hill
#
# Bulk Modulus (GPa) = 45.95071 56.57202 51.26136
# Shear Modulus (GPa) = 20.43022 22.23192 21.33107
#
# Velocity S-wave (km/s) = 3.30516 3.44782 3.37724
# Velocity P-wave (km/s) = 6.25583 6.78963 6.52819
#
# Compressibility (1/GPa) = 0.02176245
#
# Stress axis : x y z
#
# Youngs Moduli (GPa) = 48.24331 40.41935 85.74253
#
# Poissons Ratio (x) = 0.23597 0.50744
# Poissons Ratio (y) = 0.28164 0.50833
# Poissons Ratio (z) = 0.28551 0.23963
#
# Static dielectric constant tensor:
#      x y z
#    x 3.256090 0.000000 0.000000 
#    y 0.000000 3.417520 0.000000 
#    z 0.000000 0.000000 3.817530 
# 
# 
# High freq. dielectric constant tensor:
#      x y z
#    x 1.702270 0.000000 0.000000 
#    y 0.000000 1.718800 0.000000 
#    z 0.000000 0.000000 1.737300 
# 
# From -- ./inp_files/42777.got.cif
#   From: 2010.03.12/outbox.cif.g09.slc.cpg/sg74_22_cif.got.tgz:42777.got - 2010.04.16 15:46:19.
