data_PCOD8299690
_publ_section_title
;
Structure prediction by ZEFSAII (Michael W. Deem and Ramdas Pophale) SiO2 
 PCOD8299690
Probable space group: I M M A
;
_chemical_formula_sum "Si O2"
_cell_formula_units_Z 80
_cell_length_a 9.234771
_cell_length_b 14.037353
_cell_length_c 33.435992
_cell_angle_alpha 90.000000
_cell_angle_beta 90.000000
_cell_angle_gamma 90.000000
_cell_volume 4334.365835
_symmetry_space_group_name_H-M "I M M A"
_symmetry_group_IT_number 74
_symmetry_cell_setting 'orthorhombic'
loop_
_space_group_symop_operation_xyz
x,y,z
-x,1/2-y,z
x,-y,-z
-x,1/2+y,-z
-x,-y,-z
x,1/2+y,-z
-x,y,z
x,1/2-y,z
1/2+x,1/2+y,1/2+z
1/2-x,-y,1/2+z
1/2+x,1/2-y,1/2-z
1/2-x,y,1/2-z
1/2-x,1/2-y,1/2-z
1/2+x,y,1/2-z
1/2-x,1/2+y,1/2+z
1/2+x,-y,1/2+z
loop_
_atom_site_type_symbol
_atom_site_label
_atom_site_fract_x
_atom_site_fract_y
_atom_site_fract_z
Si Si1 0.333278 0.540564 0.639572
Si Si2 0.166270 0.643374 0.095876
Si Si3 0.166059 0.138037 0.057558
Si Si4 0.669246 0.359755 0.209486
Si Si5 0.336557 0.863401 0.018651
O O1 0.500000 0.566089 0.649876
O O2 0.312399 0.426773 0.633635
O O3 0.283333 0.591924 0.598992
O O4 0.229510 0.573474 0.674788
O O5 0.216569 0.750000 0.108370
O O6 0.255443 0.601790 0.058491
O O7 0.000000 0.643785 0.081998
O O8 0.190575 0.250000 0.061687
O O9 0.000000 0.112561 0.048492
O O10 0.260939 0.094932 0.021216
O O11 0.500000 0.379372 0.215235
O O12 0.700201 0.250000 0.198312
O O13 0.750000 0.388221 0.250000
O O14 0.500000 0.901276 0.019887
O O15 0.328446 0.750000 0.017225
#
# Coordination Sequence:
#
# PCOD8299690 Si02
#       5
#    16  16  16  16  16
#     4  10  20  33  52  77 102 131 169 211 252 297
#     4   9  18  33  51  70  96 133 175 216 257 299
#     4   9  17  29  45  66  95 130 165 204 252 305
#     4  10  21  37  58  83 110 137 161 190 235 294
#     4   9  17  29  45  65  92 129 171 214 258 301
#
# _framework density 18.457141
#
# number of rings (size 3 to 8) (size 9 to 14) (size 15 to 20)
#    0.000    2.600    0.000    1.800    0.000    6.800 
#    0.000    6.000    0.000    0.600    0.000    0.000 
#    0.000    0.000    0.000    0.000    0.000    0.000 
#
# Total GULP energy -496046.640641 kJ/mol
# GULP energy per Si atom -12401.166016 kJ/mol
# Density = 1.841513 g / cm^3
# Si number density = 18.457141 Si / 1000 Ang^3
#
#
#
# Elastic Constant Matrix: (Units=GPa)
#
#
# Indices 1 2 3 4 5 6 
#
# 1 106.5827 38.2696 74.1084 0.0000 0.0000 0.0000
# 2 38.2696 57.1865 57.1660 0.0000 0.0000 0.0000
# 3 74.1084 57.1660 122.9267 0.0000 0.0000 0.0000
# 4 0.0000 0.0000 0.0000 26.2644 0.0000 0.0000
# 5 0.0000 0.0000 0.0000 0.0000 37.6294 0.0000
# 6 0.0000 0.0000 0.0000 0.0000 0.0000 17.6532
#
#
#
# Elastic Compliance Matrix: (Units=1/GPa)
#
#
# Indices 1 2 3 4 5 6 
#
# 1 0.016278 -0.002025 -0.008872 0.000000 0.000000 0.000000
# 2 -0.002025 0.032929 -0.014093 0.000000 0.000000 0.000000
# 3 -0.008872 -0.014093 0.020037 0.000000 0.000000 0.000000
# 4 0.000000 0.000000 0.000000 0.038074 0.000000 0.000000
# 5 0.000000 0.000000 0.000000 0.000000 0.026575 0.000000
# 6 0.000000 0.000000 0.000000 0.000000 0.000000 0.056647
#
#
# Mechanical properties :
#
#
# Convention : Reuss Voigt Hill
#
# Bulk Modulus (GPa) = 51.90552 69.53155 60.71854
# Shear Modulus (GPa) = 20.24762 24.11953 22.18357
#
# Velocity S-wave (km/s) = 3.31570 3.61887 3.47060
# Velocity P-wave (km/s) = 6.54536 7.43070 7.00204
#
# Compressibility (1/GPa) = 0.01926577
#
# Stress axis : x y z
#
# Youngs Moduli (GPa) = 61.43176 30.36791 49.90665
#
# Poissons Ratio (x) = 0.06148 0.44277
# Poissons Ratio (y) = 0.12438 0.70333
# Poissons Ratio (z) = 0.54503 0.42797
#
# Static dielectric constant tensor:
#      x y z
#    x 3.417400 0.000000 0.000000 
#    y 0.000000 3.439460 0.000000 
#    z 0.000000 0.000000 3.258660 
# 
# 
# High freq. dielectric constant tensor:
#      x y z
#    x 1.715190 0.000000 0.000000 
#    y 0.000000 1.716120 0.000000 
#    z 0.000000 0.000000 1.693950 
# 
# From -- ./inp_files/63912.got.cif
#   From: 2010.03.12/outbox.cif.g09.slc.cpg/sg74_32_cif.got.tgz:63912.got - 2010.04.16 15:46:19.
