data_PCOD8299227
_publ_section_title
;
Structure prediction by ZEFSAII (Michael W. Deem and Ramdas Pophale) SiO2 
 PCOD8299227
Probable space group: I M M A
;
_chemical_formula_sum "Si O2"
_cell_formula_units_Z 104
_cell_length_a 21.254143
_cell_length_b 8.740632
_cell_length_c 28.586481
_cell_angle_alpha 90.000000
_cell_angle_beta 90.000000
_cell_angle_gamma 90.000000
_cell_volume 5310.643286
_symmetry_space_group_name_H-M "I M M A"
_symmetry_group_IT_number 74
_symmetry_cell_setting 'orthorhombic'
loop_
_space_group_symop_operation_xyz
x,y,z
-x,1/2-y,z
x,-y,-z
-x,1/2+y,-z
-x,-y,-z
x,1/2+y,-z
-x,y,z
x,1/2-y,z
1/2+x,1/2+y,1/2+z
1/2-x,-y,1/2+z
1/2+x,1/2-y,1/2-z
1/2-x,y,1/2-z
1/2-x,1/2-y,1/2-z
1/2+x,y,1/2-z
1/2-x,1/2+y,1/2+z
1/2+x,-y,1/2+z
loop_
_atom_site_type_symbol
_atom_site_label
_atom_site_fract_x
_atom_site_fract_y
_atom_site_fract_z
Si Si1 0.572686 0.581223 0.955614
Si Si2 0.252788 0.430145 0.448489
Si Si3 0.646196 0.928353 0.116068
Si Si4 0.429046 0.568270 0.203403
Si Si5 0.000000 0.571498 0.050009
Si Si6 0.372554 0.930288 0.400743
Si Si7 0.070108 0.431503 0.807170
O O1 0.500000 0.602711 0.965171
O O2 0.603452 0.750000 0.948076
O O3 0.582954 0.467141 0.912505
O O4 0.605663 0.500000 0.000000
O O5 0.240906 0.500000 0.500000
O O6 0.250718 0.250000 0.454427
O O7 0.202047 0.480625 0.409338
O O8 0.319755 0.477970 0.428096
O O9 0.663202 0.750000 0.115751
O O10 0.626491 0.987340 0.168079
O O11 0.500000 0.505356 0.191853
O O12 0.432224 0.750000 0.200405
O O13 0.408713 0.513328 0.255432
O O14 0.061522 0.519008 0.077470
O O15 0.000000 0.750000 0.043764
O O16 0.000000 0.500000 0.000000
O O17 0.358627 0.750000 0.405662
O O18 0.378297 0.981717 0.346023
O O19 0.065322 0.250000 0.808461
O O20 0.000000 0.496339 0.818325
#
# Coordination Sequence:
#
# PCOD8299227 Si02
#       7
#    16  16  16  16   8  16  16
#     4  10  20  33  50  74 104 138 177 224 279 336
#     4  12  26  43  59  77 106 147 191 234 280 335
#     4  11  21  35  55  79 108 144 187 234 280 328
#     4   8  15  28  52  87 119 145 180 228 278 323
#     4  10  20  32  52  84 116 144 174 218 273 328
#     4  10  19  35  59  87 115 145 182 223 274 329
#     4   8  13  27  54  87 119 147 177 221 273 325
#
# _framework density 19.583314999999999
#
# number of rings (size 3 to 8) (size 9 to 14) (size 15 to 20)
#    0.000    2.154    0.769    4.615    0.000    3.385 
#    0.000    0.769    0.000    6.462    0.000    4.308 
#    0.000    0.000    0.000    0.000    0.000    0.000 
#
# Total GULP energy -644189.762790 kJ/mol
# GULP energy per Si atom -12388.264669 kJ/mol
# Density = 1.953874 g / cm^3
# Si number density = 19.583315 Si / 1000 Ang^3
#
#
#
# Elastic Constant Matrix: (Units=GPa)
#
#
# Indices 1 2 3 4 5 6 
#
# 1 103.5928 38.8206 66.1849 0.0000 0.0000 0.0000
# 2 38.8206 63.3593 37.6030 0.0000 0.0000 0.0000
# 3 66.1849 37.6030 152.6022 0.0000 0.0000 0.0000
# 4 0.0000 0.0000 0.0000 20.0798 0.0000 0.0000
# 5 0.0000 0.0000 0.0000 0.0000 25.6569 0.0000
# 6 0.0000 0.0000 0.0000 0.0000 0.0000 24.8654
#
#
#
# Elastic Compliance Matrix: (Units=1/GPa)
#
#
# Indices 1 2 3 4 5 6 
#
# 1 0.015263 -0.006352 -0.005054 0.000000 0.000000 0.000000
# 2 -0.006352 0.021130 -0.002452 0.000000 0.000000 0.000000
# 3 -0.005054 -0.002452 0.009349 0.000000 0.000000 0.000000
# 4 0.000000 0.000000 0.000000 0.049801 0.000000 0.000000
# 5 0.000000 0.000000 0.000000 0.000000 0.038976 0.000000
# 6 0.000000 0.000000 0.000000 0.000000 0.000000 0.040217
#
#
# Mechanical properties :
#
#
# Convention : Reuss Voigt Hill
#
# Bulk Modulus (GPa) = 55.47599 67.19681 61.33640
# Shear Modulus (GPa) = 23.98539 25.91682 24.95110
#
# Velocity S-wave (km/s) = 3.50349 3.64182 3.57333
# Velocity P-wave (km/s) = 6.68997 7.21607 6.95799
#
# Compressibility (1/GPa) = 0.01802582
#
# Stress axis : x y z
#
# Youngs Moduli (GPa) = 65.51930 47.32631 106.96005
#
# Poissons Ratio (x) = 0.30061 0.54062
# Poissons Ratio (y) = 0.41616 0.26225
# Poissons Ratio (z) = 0.33116 0.11604
#
# Static dielectric constant tensor:
#      x y z
#    x 3.533410 0.000000 0.000000 
#    y 0.000000 3.388610 0.000000 
#    z 0.000000 0.000000 4.054500 
# 
# 
# High freq. dielectric constant tensor:
#      x y z
#    x 1.751660 0.000000 0.000000 
#    y 0.000000 1.730590 0.000000 
#    z 0.000000 0.000000 1.777420 
# 
# From -- ./inp_files/73359.got.cif
#   From: 2010.03.12/outbox.cif.g09.slc.cpg/sg74_37_cif.got.tgz:73359.got - 2010.04.16 15:46:19.
