data_PCOD8299414
_publ_section_title
;
Structure prediction by ZEFSAII (Michael W. Deem and Ramdas Pophale) SiO2 
 PCOD8299414
Probable space group: I M M A
;
_chemical_formula_sum "Si O2"
_cell_formula_units_Z 88
_cell_length_a 21.774830
_cell_length_b 14.432956
_cell_length_c 16.075482
_cell_angle_alpha 90.000000
_cell_angle_beta 90.000000
_cell_angle_gamma 90.000000
_cell_volume 5052.124731
_symmetry_space_group_name_H-M "I M M A"
_symmetry_group_IT_number 74
_symmetry_cell_setting 'orthorhombic'
loop_
_space_group_symop_operation_xyz
x,y,z
-x,1/2-y,z
x,-y,-z
-x,1/2+y,-z
-x,-y,-z
x,1/2+y,-z
-x,y,z
x,1/2-y,z
1/2+x,1/2+y,1/2+z
1/2-x,-y,1/2+z
1/2+x,1/2-y,1/2-z
1/2-x,y,1/2-z
1/2-x,1/2-y,1/2-z
1/2+x,y,1/2-z
1/2-x,1/2+y,1/2+z
1/2+x,-y,1/2+z
loop_
_atom_site_type_symbol
_atom_site_label
_atom_site_fract_x
_atom_site_fract_y
_atom_site_fract_z
Si Si1 0.796643 0.641071 0.129463
Si Si2 0.572207 0.355489 0.394517
Si Si3 0.852484 0.500000 0.000000
Si Si4 0.572863 0.149773 0.208177
Si Si5 0.339166 0.356183 0.808935
Si Si6 0.927308 0.513445 0.404826
O O1 0.806955 0.750000 0.104203
O O2 0.725813 0.622766 0.149245
O O3 0.837302 0.616307 0.211134
O O4 0.811977 0.567582 0.057500
O O5 0.500000 0.370980 0.402578
O O6 0.588910 0.250000 0.421524
O O7 0.604789 0.430972 0.449797
O O8 0.595539 0.373792 0.300769
O O9 0.500000 0.151566 0.208380
O O10 0.598562 0.250000 0.180905
O O11 0.597704 0.077296 0.141884
O O12 0.355554 0.250000 0.815233
O O13 0.393617 0.402496 0.860551
O O14 0.907964 0.500000 0.500000
O O15 0.000000 0.529153 0.395562
#
# Coordination Sequence:
#
# PCOD8299414 Si02
#       6
#    16  16   8  16  16  16
#     4   9  20  36  54  75  98 136 176 211 257 308
#     4   9  18  31  47  71 104 137 164 194 245 307
#     4  12  19  28  54  80  99 124 164 224 250 294
#     4   8  15  30  48  65  95 136 163 185 233 301
#     4   9  19  38  55  68 100 140 174 208 256 318
#     4  10  20  31  50  80 106 128 169 220 263 311
#
# _framework density 17.418413999999999
#
# number of rings (size 3 to 8) (size 9 to 14) (size 15 to 20)
#    0.000    2.727    0.000    4.091    1.273    1.091 
#    0.000    2.727    0.000    2.182    0.000    6.364 
#    0.000    0.000    0.000    0.000    0.000    0.000 
#
# Total GULP energy -545259.272157 kJ/mol
# GULP energy per Si atom -12392.256185 kJ/mol
# Density = 1.737877 g / cm^3
# Si number density = 17.418414 Si / 1000 Ang^3
#
#
#
# Elastic Constant Matrix: (Units=GPa)
#
#
# Indices 1 2 3 4 5 6 
#
# 1 43.4878 45.6908 41.4947 0.0000 0.0000 0.0000
# 2 45.6908 128.6081 90.2461 0.0000 0.0000 0.0000
# 3 41.4947 90.2461 124.5027 0.0000 0.0000 0.0000
# 4 0.0000 0.0000 0.0000 7.6831 0.0000 0.0000
# 5 0.0000 0.0000 0.0000 0.0000 28.6265 0.0000
# 6 0.0000 0.0000 0.0000 0.0000 0.0000 27.3744
#
#
#
# Elastic Compliance Matrix: (Units=1/GPa)
#
#
# Indices 1 2 3 4 5 6 
#
# 1 0.038759 -0.009576 -0.005976 0.000000 0.000000 0.000000
# 2 -0.009576 0.018191 -0.009994 0.000000 0.000000 0.000000
# 3 -0.005976 -0.009994 0.017268 0.000000 0.000000 0.000000
# 4 0.000000 0.000000 0.000000 0.130157 0.000000 0.000000
# 5 0.000000 0.000000 0.000000 0.000000 0.034933 0.000000
# 6 0.000000 0.000000 0.000000 0.000000 0.000000 0.036530
#
#
# Mechanical properties :
#
#
# Convention : Reuss Voigt Hill
#
# Bulk Modulus (GPa) = 43.24450 72.38464 57.81457
# Shear Modulus (GPa) = 14.94154 20.68127 17.81140
#
# Velocity S-wave (km/s) = 2.93200 3.44949 3.20122
# Velocity P-wave (km/s) = 6.02851 7.58366 6.85036
#
# Compressibility (1/GPa) = 0.02312433
#
# Stress axis : x y z
#
# Youngs Moduli (GPa) = 25.80070 54.97357 57.91112
#
# Poissons Ratio (x) = 0.52644 0.34609
# Poissons Ratio (y) = 0.24707 0.57876
# Poissons Ratio (z) = 0.15419 0.54940
#
# Static dielectric constant tensor:
#      x y z
#    x 2.910140 0.000000 0.000000 
#    y 0.000000 3.598880 0.000000 
#    z 0.000000 0.000000 4.059240 
# 
# 
# High freq. dielectric constant tensor:
#      x y z
#    x 1.645510 0.000000 0.000000 
#    y 0.000000 1.684900 0.000000 
#    z 0.000000 0.000000 1.679780 
# 
# From -- ./inp_files/36368.got.cif
#   From: 2010.03.12/outbox.cif.g09.slc.cpg/sg74_19_cif.got.tgz:36368.got - 2010.04.16 15:46:19.
