data_PCOD8299525
_publ_section_title
;
Structure prediction by ZEFSAII (Michael W. Deem and Ramdas Pophale) SiO2 
 PCOD8299525
Probable space group: I M M A
;
_chemical_formula_sum "Si O2"
_cell_formula_units_Z 96
_cell_length_a 14.728385
_cell_length_b 14.639938
_cell_length_c 22.674330
_cell_angle_alpha 90.000000
_cell_angle_beta 90.000000
_cell_angle_gamma 90.000000
_cell_volume 4889.098968
_symmetry_space_group_name_H-M "I M M A"
_symmetry_group_IT_number 74
_symmetry_cell_setting 'orthorhombic'
loop_
_space_group_symop_operation_xyz
x,y,z
-x,1/2-y,z
x,-y,-z
-x,1/2+y,-z
-x,-y,-z
x,1/2+y,-z
-x,y,z
x,1/2-y,z
1/2+x,1/2+y,1/2+z
1/2-x,-y,1/2+z
1/2+x,1/2-y,1/2-z
1/2-x,y,1/2-z
1/2-x,1/2-y,1/2-z
1/2+x,y,1/2-z
1/2-x,1/2+y,1/2+z
1/2+x,-y,1/2+z
loop_
_atom_site_type_symbol
_atom_site_label
_atom_site_fract_x
_atom_site_fract_y
_atom_site_fract_z
Si Si1 0.791950 0.015635 0.639223
Si Si2 0.290053 0.350615 0.970645
Si Si3 0.597251 0.602487 0.477368
Si Si4 0.896944 0.147028 0.724043
Si Si5 0.901827 0.556489 0.154468
Si Si6 0.605759 0.645362 0.912388
O O1 0.799758 0.072915 0.578936
O O2 0.833053 0.074955 0.691766
O O3 0.686654 0.990762 0.654224
O O4 0.844519 0.920261 0.634264
O O5 0.313254 0.250000 0.945017
O O6 0.188004 0.346577 0.999211
O O7 0.359841 0.375971 0.021963
O O8 0.604074 0.500000 0.500000
O O9 0.500000 0.644304 0.500005
O O10 0.597743 0.610874 0.406693
O O11 0.862971 0.250000 0.711536
O O12 0.891300 0.130482 0.793926
O O13 0.000000 0.134637 0.701155
O O14 0.000000 0.503883 0.161391
O O15 0.500000 0.623328 0.910308
O O16 0.626337 0.750000 0.894650
#
# Coordination Sequence:
#
# PCOD8299525 Si02
#       6
#    16  16  16  16  16  16
#     4  11  20  34  57  79 104 144 189 226 263 318
#     4  10  20  32  49  78 111 142 178 220 271 327
#     4   9  17  31  51  74 103 142 185 223 258 304
#     4  10  21  35  52  80 117 151 183 220 263 317
#     4   9  19  33  50  75 109 145 176 213 264 314
#     4  10  22  39  57  78 105 136 174 225 280 327
#
# _framework density 19.63552
#
# number of rings (size 3 to 8) (size 9 to 14) (size 15 to 20)
#    0.000    2.167    0.000    4.000    0.000    6.333 
#    0.000    5.000    0.000    3.500    0.000    2.333 
#    0.000    0.000    0.000    0.000    0.000    0.000 
#
# Total GULP energy -594750.631729 kJ/mol
# GULP energy per Si atom -12390.638161 kJ/mol
# Density = 1.959083 g / cm^3
# Si number density = 19.635520 Si / 1000 Ang^3
#
#
#
# Elastic Constant Matrix: (Units=GPa)
#
#
# Indices 1 2 3 4 5 6 
#
# 1 159.6610 58.5371 37.8920 0.0000 0.0000 0.0000
# 2 58.5371 93.0711 44.1320 0.0000 0.0000 0.0000
# 3 37.8920 44.1320 60.4666 0.0000 0.0000 0.0000
# 4 0.0000 0.0000 0.0000 20.0074 0.0000 0.0000
# 5 0.0000 0.0000 0.0000 0.0000 28.8777 0.0000
# 6 0.0000 0.0000 0.0000 0.0000 0.0000 -1.5747
#
#
#
# Elastic Compliance Matrix: (Units=1/GPa)
#
#
# Indices 1 2 3 4 5 6 
#
# 1 0.008316 -0.004220 -0.002132 0.000000 0.000000 0.000000
# 2 -0.004220 0.018572 -0.010911 0.000000 0.000000 0.000000
# 3 -0.002132 -0.010911 0.025837 0.000000 0.000000 0.000000
# 4 0.000000 0.000000 0.000000 0.049982 0.000000 0.000000
# 5 0.000000 0.000000 0.000000 0.000000 0.034629 0.000000
# 6 0.000000 0.000000 0.000000 0.000000 0.000000 -0.635028
#
#
# Mechanical properties :
#
#
# Convention : Reuss Voigt Hill
#
# Bulk Modulus (GPa) = 54.94093 66.03565 60.48829
# Shear Modulus (GPa) = -10.93849 20.97125 5.01638
#
# Velocity S-wave (km/s) = -2.36281 3.27161 1.60009
# Velocity P-wave (km/s) = 4.53843 6.92640 5.85544
#
# Compressibility (1/GPa) = 0.01820137
#
# Stress axis : x y z
#
# Youngs Moduli (GPa) = 120.24621 53.84451 38.70413
#
# Poissons Ratio (x) = 0.22721 0.08250
# Poissons Ratio (y) = 0.50741 0.42228
# Poissons Ratio (z) = 0.25632 0.58747
#
# Static dielectric constant tensor:
#      x y z
#    x 4.295760 0.000000 0.000000 
#    y 0.000000 3.347560 0.000000 
#    z 0.000000 0.000000 3.420430 
# 
# 
# High freq. dielectric constant tensor:
#      x y z
#    x 1.796140 0.000000 0.000000 
#    y 0.000000 1.729510 0.000000 
#    z 0.000000 0.000000 1.744430 
# 
# From -- ./inp_files/51885.got.cif
#   From: 2010.03.12/outbox.cif.g09.slc.cpg/sg74_26_cif.got.tgz:51885.got - 2010.04.16 15:46:19.
