data_PCOD8299758
_publ_section_title
;
Structure prediction by ZEFSAII (Michael W. Deem and Ramdas Pophale) SiO2 
 PCOD8299758
Probable space group: I M M A
;
_chemical_formula_sum "Si O2"
_cell_formula_units_Z 72
_cell_length_a 16.991230
_cell_length_b 9.300620
_cell_length_c 25.041846
_cell_angle_alpha 90.000000
_cell_angle_beta 90.000000
_cell_angle_gamma 90.000000
_cell_volume 3957.337219
_symmetry_space_group_name_H-M "I M M A"
_symmetry_group_IT_number 74
_symmetry_cell_setting 'orthorhombic'
loop_
_space_group_symop_operation_xyz
x,y,z
-x,1/2-y,z
x,-y,-z
-x,1/2+y,-z
-x,-y,-z
x,1/2+y,-z
-x,y,z
x,1/2-y,z
1/2+x,1/2+y,1/2+z
1/2-x,-y,1/2+z
1/2+x,1/2-y,1/2-z
1/2-x,y,1/2-z
1/2-x,1/2-y,1/2-z
1/2+x,y,1/2-z
1/2-x,1/2+y,1/2+z
1/2+x,-y,1/2+z
loop_
_atom_site_type_symbol
_atom_site_label
_atom_site_fract_x
_atom_site_fract_y
_atom_site_fract_z
Si Si1 0.869908 0.420919 0.641075
Si Si2 0.193524 0.078766 0.851096
Si Si3 0.500000 0.078623 0.942979
Si Si4 0.590558 0.417350 0.551433
Si Si5 0.913240 0.579304 0.243071
O O1 0.871107 0.250000 0.642014
O O2 0.780903 0.481034 0.637498
O O3 0.903618 0.481359 0.696981
O O4 0.923065 0.471698 0.590932
O O5 0.195191 0.250000 0.848504
O O6 0.138997 0.023501 0.898711
O O7 0.155108 0.018397 0.796048
O O8 0.500000 0.250000 0.952265
O O9 0.500000 0.000000 0.000000
O O10 0.622391 0.500000 0.500000
O O11 0.500000 0.453002 0.562740
O O12 0.604803 0.250000 0.541755
O O13 0.905892 0.750000 0.244308
O O14 0.000000 0.534538 0.221847
#
# Coordination Sequence:
#
# PCOD8299758 Si02
#       5
#    16  16   8  16  16
#     4   9  16  27  41  61  90 119 147 184 228 271
#     4   9  16  24  39  63  89 117 149 183 224 273
#     4  10  20  34  50  68  92 124 159 192 228 268
#     4   9  17  29  43  61  87 117 147 181 219 261
#     4   9  14  22  38  61  91 121 145 177 228 280
#
# _framework density 18.194053
#
# number of rings (size 3 to 8) (size 9 to 14) (size 15 to 20)
#    0.000    2.889    1.111    1.333    0.000    6.222 
#    0.000    0.000    0.000    0.000    0.000    1.556 
#    0.000    3.556    0.000    0.000    0.000    0.000 
#
# Total GULP energy -446135.098727 kJ/mol
# GULP energy per Si atom -12392.641631 kJ/mol
# Density = 1.815264 g / cm^3
# Si number density = 18.194053 Si / 1000 Ang^3
#
#
#
# Elastic Constant Matrix: (Units=GPa)
#
#
# Indices 1 2 3 4 5 6 
#
# 1 144.8913 14.9362 92.1653 0.0000 0.0000 0.0000
# 2 14.9362 8.8528 21.4450 0.0000 0.0000 0.0000
# 3 92.1653 21.4450 169.9337 0.0000 0.0000 0.0000
# 4 0.0000 0.0000 0.0000 21.4202 0.0000 0.0000
# 5 0.0000 0.0000 0.0000 0.0000 25.0049 0.0000
# 6 0.0000 0.0000 0.0000 0.0000 0.0000 8.0319
#
#
#
# Elastic Compliance Matrix: (Units=1/GPa)
#
#
# Indices 1 2 3 4 5 6 
#
# 1 0.010738 -0.005774 -0.005095 0.000000 0.000000 0.000000
# 2 -0.005774 0.165799 -0.017791 0.000000 0.000000 0.000000
# 3 -0.005095 -0.017791 0.010893 0.000000 0.000000 0.000000
# 4 0.000000 0.000000 0.000000 0.046685 0.000000 0.000000
# 5 0.000000 0.000000 0.000000 0.000000 0.039992 0.000000
# 6 0.000000 0.000000 0.000000 0.000000 0.000000 0.124504
#
#
# Mechanical properties :
#
#
# Convention : Reuss Voigt Hill
#
# Bulk Modulus (GPa) = 7.68590 64.53010 36.10800
# Shear Modulus (GPa) = 10.01397 23.90015 16.95706
#
# Velocity S-wave (km/s) = 2.34860 3.62833 3.05620
# Velocity P-wave (km/s) = 3.40414 7.28682 5.68708
#
# Compressibility (1/GPa) = 0.13010832
#
# Stress axis : x y z
#
# Youngs Moduli (GPa) = 93.12712 6.03140 91.79974
#
# Poissons Ratio (x) = 0.03483 0.46773
# Poissons Ratio (y) = 0.53775 1.63325
# Poissons Ratio (z) = 0.47450 0.10731
#
# Static dielectric constant tensor:
#      x y z
#    x 3.698130 0.000000 0.000000 
#    y 0.000000 2.602470 0.000000 
#    z 0.000000 0.000000 3.612280 
# 
# 
# High freq. dielectric constant tensor:
#      x y z
#    x 1.720570 0.000000 0.000000 
#    y 0.000000 1.613840 0.000000 
#    z 0.000000 0.000000 1.717040 
# 
# From -- ./inp_files/43736.got.cif
#   From: 2010.03.12/outbox.cif.g09.slc.cpg/sg74_22_cif.got.tgz:43736.got - 2010.04.16 15:46:19.
