data_PCOD8299916
_publ_section_title
;
Structure prediction by ZEFSAII (Michael W. Deem and Ramdas Pophale) SiO2 
 PCOD8299916
Probable space group: I M M A
;
_chemical_formula_sum "Si O2"
_cell_formula_units_Z 80
_cell_length_a 18.060727
_cell_length_b 8.713689
_cell_length_c 27.678865
_cell_angle_alpha 90.000000
_cell_angle_beta 90.000000
_cell_angle_gamma 90.000000
_cell_volume 4355.976829
_symmetry_space_group_name_H-M "I M M A"
_symmetry_group_IT_number 74
_symmetry_cell_setting 'orthorhombic'
loop_
_space_group_symop_operation_xyz
x,y,z
-x,1/2-y,z
x,-y,-z
-x,1/2+y,-z
-x,-y,-z
x,1/2+y,-z
-x,y,z
x,1/2-y,z
1/2+x,1/2+y,1/2+z
1/2-x,-y,1/2+z
1/2+x,1/2-y,1/2-z
1/2-x,y,1/2-z
1/2-x,1/2-y,1/2-z
1/2+x,y,1/2-z
1/2-x,1/2+y,1/2+z
1/2+x,-y,1/2+z
loop_
_atom_site_type_symbol
_atom_site_label
_atom_site_fract_x
_atom_site_fract_y
_atom_site_fract_z
Si Si1 0.794544 0.430152 0.855480
Si Si2 0.342876 0.930166 0.807428
Si Si3 0.270307 0.432096 0.050448
Si Si4 0.080545 0.930928 0.595332
Si Si5 0.585466 0.430656 0.293030
O O1 0.790362 0.250000 0.863225
O O2 0.734200 0.482692 0.815927
O O3 0.782746 0.510985 0.906994
O O4 0.875027 0.479409 0.836427
O O5 0.324813 0.750000 0.807939
O O6 0.400478 0.974182 0.849535
O O7 0.378772 0.983683 0.757504
O O8 0.267099 0.250000 0.048981
O O9 0.354388 0.492775 0.060403
O O10 0.242069 0.500000 0.000000
O O11 0.075932 0.750000 0.590027
O O12 0.000000 0.003525 0.582017
O O13 0.500000 0.478439 0.293163
O O14 0.595580 0.250000 0.300587
#
# Coordination Sequence:
#
# PCOD8299916 Si02
#       5
#    16  16  16  16  16
#     4  11  22  35  52  75 105 139 174 212 254 303
#     4   9  17  31  52  76 104 140 179 213 247 293
#     4  10  20  35  55  76  99 130 171 217 263 311
#     4   8  14  26  46  73 104 136 169 206 247 292
#     4  10  20  34  54  79 106 137 173 213 258 307
#
# _framework density 18.365570000000002
#
# number of rings (size 3 to 8) (size 9 to 14) (size 15 to 20)
#    0.000    2.400    0.000    4.800    0.000    6.400 
#    0.000    0.000    0.000   19.800    0.000    0.000 
#    0.000    0.000    0.000    0.000    0.000    0.000 
#
# Total GULP energy -495969.888010 kJ/mol
# GULP energy per Si atom -12399.247200 kJ/mol
# Density = 1.832377 g / cm^3
# Si number density = 18.365570 Si / 1000 Ang^3
#
#
#
# Elastic Constant Matrix: (Units=GPa)
#
#
# Indices 1 2 3 4 5 6 
#
# 1 92.8544 34.2711 62.2437 0.0000 0.0000 0.0000
# 2 34.2711 70.1716 43.7669 0.0000 0.0000 0.0000
# 3 62.2437 43.7669 131.1624 0.0000 0.0000 0.0000
# 4 0.0000 0.0000 0.0000 25.9048 0.0000 0.0000
# 5 0.0000 0.0000 0.0000 0.0000 170.6697 0.0000
# 6 0.0000 0.0000 0.0000 0.0000 0.0000 12.6467
#
#
#
# Elastic Compliance Matrix: (Units=1/GPa)
#
#
# Indices 1 2 3 4 5 6 
#
# 1 0.016657 -0.004047 -0.006554 0.000000 0.000000 0.000000
# 2 -0.004047 0.018980 -0.004413 0.000000 0.000000 0.000000
# 3 -0.006554 -0.004413 0.012207 0.000000 0.000000 0.000000
# 4 0.000000 0.000000 0.000000 0.038603 0.000000 0.000000
# 5 0.000000 0.000000 0.000000 0.000000 0.005859 0.000000
# 6 0.000000 0.000000 0.000000 0.000000 0.000000 0.079072
#
#
# Mechanical properties :
#
#
# Convention : Reuss Voigt Hill
#
# Bulk Modulus (GPa) = 56.13086 63.86129 59.99607
# Shear Modulus (GPa) = 24.11461 52.10469 38.10965
#
# Velocity S-wave (km/s) = 3.62751 5.33221 4.56022
# Velocity P-wave (km/s) = 6.94079 8.52981 7.77600
#
# Compressibility (1/GPa) = 0.01781551
#
# Stress axis : x y z
#
# Youngs Moduli (GPa) = 60.03596 52.68826 81.92153
#
# Poissons Ratio (x) = 0.21324 0.53692
# Poissons Ratio (y) = 0.24297 0.36149
# Poissons Ratio (z) = 0.39348 0.23249
#
# Static dielectric constant tensor:
#      x y z
#    x 3.513440 0.000000 0.000000 
#    y 0.000000 3.110880 0.000000 
#    z 0.000000 0.000000 3.395020 
# 
# 
# High freq. dielectric constant tensor:
#      x y z
#    x 1.703070 0.000000 0.000000 
#    y 0.000000 1.689980 0.000000 
#    z 0.000000 0.000000 1.707820 
# 
# From -- ./inp_files/63938.got.cif
#   From: 2010.03.12/outbox.cif.g09.slc.cpg/sg74_32_cif.got.tgz:63938.got - 2010.04.16 15:46:19.
