data_PCOD8299001
_publ_section_title
;
Structure prediction by ZEFSAII (Michael W. Deem and Ramdas Pophale) SiO2 
 PCOD8299001
Probable space group: I M M A
;
_chemical_formula_sum "Si O2"
_cell_formula_units_Z 112
_cell_length_a 27.414380
_cell_length_b 15.190885
_cell_length_c 12.604801
_cell_angle_alpha 90.000000
_cell_angle_beta 90.000000
_cell_angle_gamma 90.000000
_cell_volume 5249.252914
_symmetry_space_group_name_H-M "I M M A"
_symmetry_group_IT_number 74
_symmetry_cell_setting 'orthorhombic'
loop_
_space_group_symop_operation_xyz
x,y,z
-x,1/2-y,z
x,-y,-z
-x,1/2+y,-z
-x,-y,-z
x,1/2+y,-z
-x,y,z
x,1/2-y,z
1/2+x,1/2+y,1/2+z
1/2-x,-y,1/2+z
1/2+x,1/2-y,1/2-z
1/2-x,y,1/2-z
1/2-x,1/2-y,1/2-z
1/2+x,y,1/2-z
1/2-x,1/2+y,1/2+z
1/2+x,-y,1/2+z
loop_
_atom_site_type_symbol
_atom_site_label
_atom_site_fract_x
_atom_site_fract_y
_atom_site_fract_z
Si Si1 0.789043 0.102293 0.489067
Si Si2 0.429682 0.345589 0.136497
Si Si3 0.053797 0.481365 0.744238
Si Si4 0.323482 0.652026 0.768549
Si Si5 0.644398 0.999179 0.375675
Si Si6 0.285003 0.348560 0.657029
Si Si7 0.106887 0.849034 0.412160
O O1 0.786044 0.128070 0.363913
O O2 0.743485 0.149213 0.545299
O O3 0.838790 0.127398 0.549557
O O4 0.780272 0.000000 0.500000
O O5 0.452545 0.250000 0.168306
O O6 0.458609 0.426591 0.186183
O O7 0.374636 0.349552 0.173595
O O8 0.430624 0.355127 0.009743
O O9 0.086773 0.501442 0.847439
O O10 0.086587 0.416865 0.673687
O O11 0.000000 0.441848 0.773641
O O12 0.311503 0.750000 0.723891
O O13 0.325050 0.581222 0.673475
O O14 0.667182 0.908344 0.335132
O O15 0.650175 0.000000 0.500000
O O16 0.303508 0.250000 0.678753
O O17 0.250000 0.382207 0.750000
O O18 0.107271 0.750000 0.365269
#
# Coordination Sequence:
#
# PCOD8299001 Si02
#       7
#    16  16  16  16  16  16  16
#     4  11  19  34  63  95 130 164 195 233 289 366
#     4   8  16  32  56  88 121 149 181 230 297 370
#     4  11  23  38  57  81 112 154 204 255 304 354
#     4   9  18  36  62  89 118 155 198 244 299 363
#     4  11  25  43  61  83 113 153 204 262 315 362
#     4  11  23  39  62  93 127 161 194 231 287 362
#     4  10  19  33  56  88 126 162 191 226 282 357
#
# _framework density 21.336369000000001
#
# number of rings (size 3 to 8) (size 9 to 14) (size 15 to 20)
#    0.000    1.857    0.000    7.286    0.000    4.286 
#    0.000    1.429    0.000    4.714    0.000    4.000 
#    0.000    0.000    0.000    0.000    0.000    0.000 
#
# Total GULP energy -694121.722552 kJ/mol
# GULP energy per Si atom -12395.030760 kJ/mol
# Density = 2.128781 g / cm^3
# Si number density = 21.336369 Si / 1000 Ang^3
#
#
#
# Elastic Constant Matrix: (Units=GPa)
#
#
# Indices 1 2 3 4 5 6 
#
# 1 73.4549 17.2258 14.5751 0.0000 0.0000 0.0000
# 2 17.2258 119.9835 40.0958 0.0000 0.0000 0.0000
# 3 14.5751 40.0958 97.2757 0.0000 0.0000 0.0000
# 4 0.0000 0.0000 0.0000 -47.9317 0.0000 0.0000
# 5 0.0000 0.0000 0.0000 0.0000 6.5084 0.0000
# 6 0.0000 0.0000 0.0000 0.0000 0.0000 -8.9953
#
#
#
# Elastic Compliance Matrix: (Units=1/GPa)
#
#
# Indices 1 2 3 4 5 6 
#
# 1 0.014275 -0.001548 -0.001501 0.000000 0.000000 0.000000
# 2 -0.001548 0.009834 -0.003821 0.000000 0.000000 0.000000
# 3 -0.001501 -0.003821 0.012080 0.000000 0.000000 0.000000
# 4 0.000000 0.000000 0.000000 -0.020863 0.000000 0.000000
# 5 0.000000 0.000000 0.000000 0.000000 0.153648 0.000000
# 6 0.000000 0.000000 0.000000 0.000000 0.000000 -0.111170
#
#
# Mechanical properties :
#
#
# Convention : Reuss Voigt Hill
#
# Bulk Modulus (GPa) = 44.54692 48.27862 46.41277
# Shear Modulus (GPa) = 63.27004 4.50412 33.88708
#
# Velocity S-wave (km/s) = 5.45142 1.45451 3.98958
# Velocity P-wave (km/s) = 7.78124 5.04948 6.55915
#
# Compressibility (1/GPa) = 0.02244824
#
# Stress axis : x y z
#
# Youngs Moduli (GPa) = 70.05466 101.69084 82.78102
#
# Poissons Ratio (x) = 0.15740 0.12424
# Poissons Ratio (y) = 0.10843 0.31634
# Poissons Ratio (z) = 0.10514 0.38860
#
# Static dielectric constant tensor:
#      x y z
#    x 3.683260 0.000000 0.000000 
#    y 0.000000 4.303230 0.000000 
#    z 0.000000 0.000000 3.772980 
# 
# 
# High freq. dielectric constant tensor:
#      x y z
#    x 1.827310 0.000000 0.000000 
#    y 0.000000 1.851230 0.000000 
#    z 0.000000 0.000000 1.817540 
# 
# From -- ./inp_files/27220.got.cif
#   From: 2010.03.12/outbox.cif.g09.slc.cpg/sg74_14_cif.got.tgz:27220.got - 2010.04.16 15:46:19.
