data_PCOD8299486
_publ_section_title
;
Structure prediction by ZEFSAII (Michael W. Deem and Ramdas Pophale) SiO2 
 PCOD8299486
Probable space group: I M M A
;
_chemical_formula_sum "Si O2"
_cell_formula_units_Z 80
_cell_length_a 7.622436
_cell_length_b 28.683472
_cell_length_c 20.613597
_cell_angle_alpha 90.000000
_cell_angle_beta 90.000000
_cell_angle_gamma 90.000000
_cell_volume 4506.914169
_symmetry_space_group_name_H-M "I M M A"
_symmetry_group_IT_number 74
_symmetry_cell_setting 'orthorhombic'
loop_
_space_group_symop_operation_xyz
x,y,z
-x,1/2-y,z
x,-y,-z
-x,1/2+y,-z
-x,-y,-z
x,1/2+y,-z
-x,y,z
x,1/2-y,z
1/2+x,1/2+y,1/2+z
1/2-x,-y,1/2+z
1/2+x,1/2-y,1/2-z
1/2-x,y,1/2-z
1/2-x,1/2-y,1/2-z
1/2+x,y,1/2-z
1/2-x,1/2+y,1/2+z
1/2+x,-y,1/2+z
loop_
_atom_site_type_symbol
_atom_site_label
_atom_site_fract_x
_atom_site_fract_y
_atom_site_fract_z
Si Si1 0.208611 0.971017 0.560486
Si Si2 0.000000 0.698089 0.978818
Si Si3 0.299682 0.129327 0.868007
Si Si4 0.699495 0.129788 0.021269
Si Si5 0.000000 0.301969 0.867204
Si Si6 0.295146 0.969649 0.178109
O O1 0.266817 0.917207 0.556266
O O2 0.000000 0.973334 0.558160
O O3 0.286514 0.000000 0.500000
O O4 0.285279 0.993504 0.626798
O O5 0.000000 0.750000 0.948576
O O6 0.175026 0.671502 0.955088
O O7 0.000000 0.701035 0.055785
O O8 0.500000 0.140916 0.847497
O O9 0.286713 0.121309 0.944653
O O10 0.175697 0.171376 0.843963
O O11 0.224334 0.082580 0.834163
O O12 0.500000 0.142592 0.040818
O O13 0.000000 0.250000 0.837065
O O14 0.500000 0.967747 0.165991
O O15 0.250000 0.986995 0.250000
#
# Coordination Sequence:
#
# PCOD8299486 Si02
#       6
#    16   8  16  16   8  16
#     4   9  15  29  51  71  96 129 168 203 237 291
#     4   9  18  30  42  70 106 126 156 204 251 297
#     4   9  17  30  48  68  91 125 167 200 241 295
#     4   9  16  29  49  70  94 129 166 200 242 287
#     4   9  18  30  47  69  93 121 159 214 260 287
#     4  10  20  32  47  71  99 131 162 199 247 295
#
# _framework density 17.750505
#
# number of rings (size 3 to 8) (size 9 to 14) (size 15 to 20)
#    0.000    2.800    2.000    0.000    1.400    0.800 
#    1.800    4.500    0.000    0.600    0.000    0.000 
#    0.000    0.800    0.400    0.000    0.000    0.000 
#
# Total GULP energy -495855.498480 kJ/mol
# GULP energy per Si atom -12396.387462 kJ/mol
# Density = 1.771010 g / cm^3
# Si number density = 17.750505 Si / 1000 Ang^3
#
#
#
# Elastic Constant Matrix: (Units=GPa)
#
#
# Indices 1 2 3 4 5 6 
#
# 1 79.2019 57.5419 14.8356 0.0000 0.0000 0.0000
# 2 57.5419 150.4337 49.3842 0.0001 0.0000 0.0001
# 3 14.8356 49.3842 70.1400 0.0001 0.0000 0.0001
# 4 0.0000 0.0001 0.0001 13.0343 0.0000 0.0000
# 5 0.0000 0.0000 0.0000 0.0000 12.2222 0.0000
# 6 0.0000 0.0001 0.0001 0.0000 0.0000 17.8159
#
#
#
# Elastic Compliance Matrix: (Units=1/GPa)
#
#
# Indices 1 2 3 4 5 6 
#
# 1 0.017579 -0.007158 0.001322 0.000000 0.000000 0.000000
# 2 -0.007158 0.011560 -0.006625 0.000000 0.000000 0.000000
# 3 0.001322 -0.006625 0.018643 0.000000 0.000000 0.000000
# 4 0.000000 0.000000 0.000000 0.076721 0.000000 0.000000
# 5 0.000000 0.000000 0.000000 0.000000 0.081818 0.000000
# 6 0.000000 0.000000 0.000000 0.000000 0.000000 0.056130
#
#
# Mechanical properties :
#
#
# Convention : Reuss Voigt Hill
#
# Bulk Modulus (GPa) = 43.74809 60.36655 52.05732
# Shear Modulus (GPa) = 16.94954 20.48207 18.71581
#
# Velocity S-wave (km/s) = 3.09346 3.40058 3.25065
# Velocity P-wave (km/s) = 6.12037 7.03568 6.59392
#
# Compressibility (1/GPa) = 0.02285814
#
# Stress axis : x y z
#
# Youngs Moduli (GPa) = 56.88699 86.50268 53.64086
#
# Poissons Ratio (x) = 0.61917 -0.07089
# Poissons Ratio (y) = 0.40719 0.35539
# Poissons Ratio (z) = -0.07518 0.57312
#
# Static dielectric constant tensor:
#      x y z
#    x 3.285320 0.000000 0.000000 
#    y 0.000000 3.496370 0.000000 
#    z 0.000000 0.000000 3.341480 
# 
# 
# High freq. dielectric constant tensor:
#      x y z
#    x 1.685800 0.000000 0.000000 
#    y 0.000000 1.680140 0.000000 
#    z 0.000000 0.000000 1.636610 
# 
# From -- ./inp_files/46534.got.cif
#   From: 2010.03.12/outbox.cif.g09.slc.cpg/sg74_24_cif.got.tgz:46534.got - 2010.04.16 15:46:19.
