data_PCOD8299103
_publ_section_title
;
Structure prediction by ZEFSAII (Michael W. Deem and Ramdas Pophale) SiO2 
 PCOD8299103
Probable space group: I M M A
;
_chemical_formula_sum "Si O2"
_cell_formula_units_Z 80
_cell_length_a 17.199532
_cell_length_b 18.147241
_cell_length_c 12.086024
_cell_angle_alpha 90.000000
_cell_angle_beta 90.000000
_cell_angle_gamma 90.000000
_cell_volume 3772.338787
_symmetry_space_group_name_H-M "I M M A"
_symmetry_group_IT_number 74
_symmetry_cell_setting 'orthorhombic'
loop_
_space_group_symop_operation_xyz
x,y,z
-x,1/2-y,z
x,-y,-z
-x,1/2+y,-z
-x,-y,-z
x,1/2+y,-z
-x,y,z
x,1/2-y,z
1/2+x,1/2+y,1/2+z
1/2-x,-y,1/2+z
1/2+x,1/2-y,1/2-z
1/2-x,y,1/2-z
1/2-x,1/2-y,1/2-z
1/2+x,y,1/2-z
1/2-x,1/2+y,1/2+z
1/2+x,-y,1/2+z
loop_
_atom_site_type_symbol
_atom_site_label
_atom_site_fract_x
_atom_site_fract_y
_atom_site_fract_z
Si Si1 0.813514 0.334238 0.845724
Si Si2 0.090833 0.048298 0.727285
Si Si3 0.412322 0.250000 0.226919
Si Si4 0.323223 0.611329 0.036180
Si Si5 0.914018 0.750000 0.463657
Si Si6 0.338441 0.598886 0.779642
O O1 0.841553 0.250000 0.870388
O O2 0.750000 0.335988 0.750000
O O3 0.885328 0.387568 0.814231
O O4 0.769219 0.370777 0.952192
O O5 0.144859 0.047117 0.616088
O O6 0.000000 0.056352 0.699469
O O7 0.109298 0.966299 0.774590
O O8 0.500000 0.250000 0.273761
O O9 0.367866 0.322974 0.269601
O O10 0.413056 0.250000 0.095293
O O11 0.369942 0.680720 0.086428
O O12 0.347656 0.597211 0.911627
O O13 0.000000 0.750000 0.414602
O O14 0.250000 0.585575 0.750000
#
# Coordination Sequence:
#
# PCOD8299103 Si02
#       6
#    16  16   8  16   8  16
#     4   9  18  35  56  81 113 150 192 236 284 347
#     4  11  23  35  54  85 118 151 190 239 295 348
#     4   9  19  35  55  76 107 144 178 233 290 333
#     4  10  19  34  56  82 114 150 187 231 285 345
#     4   9  16  27  48  82 112 138 174 217 279 341
#     4  11  22  37  57  85 115 149 195 237 286 350
#
# _framework density 21.207003
#
# number of rings (size 3 to 8) (size 9 to 14) (size 15 to 20)
#    0.000    2.000    1.000    3.900    1.400    3.600 
#    0.000    0.000    0.000    3.600    0.000    0.000 
#    0.000    0.000    0.000    0.000    0.000    0.000 
#
# Total GULP energy -495792.291914 kJ/mol
# GULP energy per Si atom -12394.807298 kJ/mol
# Density = 2.115873 g / cm^3
# Si number density = 21.207003 Si / 1000 Ang^3
#
#
#
# Elastic Constant Matrix: (Units=GPa)
#
#
# Indices 1 2 3 4 5 6 
#
# 1 117.5472 53.8595 19.4723 0.0000 0.0000 0.0000
# 2 53.8595 164.5986 14.9897 0.0000 0.0000 0.0000
# 3 19.4723 14.9897 8.1021 0.0000 0.0000 0.0000
# 4 0.0000 0.0000 0.0000 11.2422 0.0000 0.0000
# 5 0.0000 0.0000 0.0000 0.0000 19.0286 0.0000
# 6 0.0000 0.0000 0.0000 0.0000 0.0000 38.8811
#
#
#
# Elastic Compliance Matrix: (Units=1/GPa)
#
#
# Indices 1 2 3 4 5 6 
#
# 1 0.014615 -0.001904 -0.031601 0.000000 0.000000 0.000000
# 2 -0.001904 0.007555 -0.009400 0.000000 0.000000 0.000000
# 3 -0.031601 -0.009400 0.216767 0.000000 0.000000 0.000000
# 4 0.000000 0.000000 0.000000 0.088951 0.000000 0.000000
# 5 0.000000 0.000000 0.000000 0.000000 0.052552 0.000000
# 6 0.000000 0.000000 0.000000 0.000000 0.000000 0.025719
#
#
# Mechanical properties :
#
#
# Convention : Reuss Voigt Hill
#
# Bulk Modulus (GPa) = 6.53064 51.87677 29.20370
# Shear Modulus (GPa) = 9.20791 27.29214 18.25002
#
# Velocity S-wave (km/s) = 2.08599 3.59129 2.93672
# Velocity P-wave (km/s) = 2.98127 6.45846 5.02989
#
# Compressibility (1/GPa) = 0.15312446
#
# Stress axis : x y z
#
# Youngs Moduli (GPa) = 68.42429 132.37056 4.61325
#
# Poissons Ratio (x) = 0.25207 0.14579
# Poissons Ratio (y) = 0.13030 0.04336
# Poissons Ratio (z) = 2.16231 1.24429
#
# Static dielectric constant tensor:
#      x y z
#    x 3.751630 0.000000 0.000000 
#    y 0.000000 4.418170 0.000000 
#    z 0.000000 0.000000 3.422220 
# 
# 
# High freq. dielectric constant tensor:
#      x y z
#    x 1.817070 0.000000 0.000000 
#    y 0.000000 1.858190 0.000000 
#    z 0.000000 0.000000 1.778470 
# 
# From -- ./inp_files/34030.got.cif
#   From: 2010.03.12/outbox.cif.g09.slc.cpg/sg74_18_cif.got.tgz:34030.got - 2010.04.16 15:46:19.
