data_PCOD8299963
_publ_section_title
;
Structure prediction by ZEFSAII (Michael W. Deem and Ramdas Pophale) SiO2 
 PCOD8299963
Probable space group: I M M A
;
_chemical_formula_sum "Si O2"
_cell_formula_units_Z 88
_cell_length_a 8.953832
_cell_length_b 30.173511
_cell_length_c 17.880350
_cell_angle_alpha 90.000000
_cell_angle_beta 90.000000
_cell_angle_gamma 90.000000
_cell_volume 4830.708203
_symmetry_space_group_name_H-M "I M M A"
_symmetry_group_IT_number 74
_symmetry_cell_setting 'orthorhombic'
loop_
_space_group_symop_operation_xyz
x,y,z
-x,1/2-y,z
x,-y,-z
-x,1/2+y,-z
-x,-y,-z
x,1/2+y,-z
-x,y,z
x,1/2-y,z
1/2+x,1/2+y,1/2+z
1/2-x,-y,1/2+z
1/2+x,1/2-y,1/2-z
1/2-x,y,1/2-z
1/2-x,1/2-y,1/2-z
1/2+x,y,1/2-z
1/2-x,1/2+y,1/2+z
1/2+x,-y,1/2+z
loop_
_atom_site_type_symbol
_atom_site_label
_atom_site_fract_x
_atom_site_fract_y
_atom_site_fract_z
Si Si1 0.177296 0.132648 0.540616
Si Si2 0.672619 0.750000 0.828488
Si Si3 0.823714 0.550773 0.985103
Si Si4 0.832526 0.579668 0.824436
Si Si5 0.825108 0.300203 0.672013
Si Si6 0.169098 0.169888 0.104179
O O1 0.232500 0.081231 0.545332
O O2 0.222279 0.162378 0.612143
O O3 0.275245 0.151116 0.473568
O O4 0.000000 0.135062 0.525651
O O5 0.500000 0.750000 0.812514
O O6 0.750000 0.750000 0.750000
O O7 0.716001 0.707735 0.875898
O O8 0.763887 0.559564 0.900727
O O9 0.000000 0.561947 0.991376
O O10 0.787829 0.500000 0.000000
O O11 0.750000 0.563274 0.750000
O O12 0.825970 0.632892 0.830998
O O13 0.000000 0.562166 0.815852
O O14 0.777747 0.250000 0.646438
O O15 0.750000 0.313067 0.750000
O O16 0.000000 0.301772 0.685142
O O17 0.000000 0.187954 0.095818
#
# Coordination Sequence:
#
# PCOD8299963 Si02
#       6
#    16   8  16  16  16  16
#     4  10  20  34  55  82 109 138 175 225 277 323
#     4  12  24  36  50  72 105 142 179 222 266 304
#     4   9  19  37  57  76 104 142 180 221 272 331
#     4   9  18  32  52  75  99 129 170 214 258 313
#     4   9  19  35  54  78 109 144 182 224 273 328
#     4  10  21  36  52  74 103 140 183 218 257 317
#
# _framework density 18.216791000000001
#
# number of rings (size 3 to 8) (size 9 to 14) (size 15 to 20)
#    0.000    2.364    0.000    3.545    1.273    6.909 
#    0.000    0.909    0.000    4.364    0.000    0.000 
#    0.000    0.000    0.000    0.000    0.000    0.000 
#
# Total GULP energy -545387.795734 kJ/mol
# GULP energy per Si atom -12395.177176 kJ/mol
# Density = 1.817533 g / cm^3
# Si number density = 18.216791 Si / 1000 Ang^3
#
#
#
# Elastic Constant Matrix: (Units=GPa)
#
#
# Indices 1 2 3 4 5 6 
#
# 1 81.0151 36.1607 36.7538 0.0000 0.0000 0.0000
# 2 36.1607 113.3790 53.2683 -0.0001 0.0000 0.0000
# 3 36.7538 53.2683 99.1409 -0.0003 0.0001 0.0000
# 4 0.0000 -0.0001 -0.0003 19.8622 0.0000 0.0000
# 5 0.0000 0.0000 0.0001 0.0000 32.6114 -0.0001
# 6 0.0000 0.0000 0.0000 0.0000 -0.0001 26.6140
#
#
#
# Elastic Compliance Matrix: (Units=1/GPa)
#
#
# Indices 1 2 3 4 5 6 
#
# 1 0.015574 -0.003016 -0.004153 0.000000 0.000000 0.000000
# 2 -0.003016 0.012382 -0.005535 0.000000 0.000000 0.000000
# 3 -0.004153 -0.005535 0.014600 0.000000 0.000000 0.000000
# 4 0.000000 0.000000 0.000000 0.050347 0.000000 0.000000
# 5 0.000000 0.000000 0.000000 0.000000 0.030664 0.000000
# 6 0.000000 0.000000 0.000000 0.000000 0.000000 0.037574
#
#
# Mechanical properties :
#
#
# Convention : Reuss Voigt Hill
#
# Bulk Modulus (GPa) = 58.31445 60.65563 59.48504
# Shear Modulus (GPa) = 26.00575 26.97433 26.49004
#
# Velocity S-wave (km/s) = 3.78242 3.85221 3.81748
# Velocity P-wave (km/s) = 7.15237 7.29074 7.22189
#
# Compressibility (1/GPa) = 0.01714841
#
# Stress axis : x y z
#
# Youngs Moduli (GPa) = 64.21141 80.76051 68.49193
#
# Poissons Ratio (x) = 0.24355 0.28446
# Poissons Ratio (y) = 0.19364 0.37910
# Poissons Ratio (z) = 0.26668 0.44701
#
# Static dielectric constant tensor:
#      x y z
#    x 3.249770 0.000000 0.000000 
#    y 0.000000 3.557040 0.000000 
#    z 0.000000 0.000000 3.342250 
# 
# 
# High freq. dielectric constant tensor:
#      x y z
#    x 1.707550 0.000000 0.000000 
#    y 0.000000 1.701340 0.000000 
#    z 0.000000 0.000000 1.697610 
# 
# From -- ./inp_files/40134.got.cif
#   From: 2010.03.12/outbox.cif.g09.slc.cpg/sg74_21_cif.got.tgz:40134.got - 2010.04.16 15:46:19.
