data_PCOD8299426
_publ_section_title
;
Structure prediction by ZEFSAII (Michael W. Deem and Ramdas Pophale) SiO2 
 PCOD8299426
Probable space group: I M M A
;
_chemical_formula_sum "Si O2"
_cell_formula_units_Z 104
_cell_length_a 31.406838
_cell_length_b 9.869191
_cell_length_c 20.180859
_cell_angle_alpha 90.000000
_cell_angle_beta 90.000000
_cell_angle_gamma 90.000000
_cell_volume 6255.260729
_symmetry_space_group_name_H-M "I M M A"
_symmetry_group_IT_number 74
_symmetry_cell_setting 'orthorhombic'
loop_
_space_group_symop_operation_xyz
x,y,z
-x,1/2-y,z
x,-y,-z
-x,1/2+y,-z
-x,-y,-z
x,1/2+y,-z
-x,y,z
x,1/2-y,z
1/2+x,1/2+y,1/2+z
1/2-x,-y,1/2+z
1/2+x,1/2-y,1/2-z
1/2-x,y,1/2-z
1/2-x,1/2-y,1/2-z
1/2+x,y,1/2-z
1/2-x,1/2+y,1/2+z
1/2+x,-y,1/2+z
loop_
_atom_site_type_symbol
_atom_site_label
_atom_site_fract_x
_atom_site_fract_y
_atom_site_fract_z
Si Si1 0.284751 0.093633 0.061061
Si Si2 0.126212 0.907256 0.819261
Si Si3 0.500000 0.898284 0.057576
Si Si4 0.351446 0.593961 0.828631
Si Si5 0.075265 0.900947 0.344401
Si Si6 0.686457 0.405741 0.440496
Si Si7 0.548324 0.406382 0.697775
O O1 0.292248 0.250000 0.040466
O O2 0.308416 0.060209 0.130662
O O3 0.235520 0.063452 0.075809
O O4 0.301015 0.000000 0.000000
O O5 0.112600 0.750000 0.820620
O O6 0.150023 0.943452 0.749783
O O7 0.160070 0.942913 0.875439
O O8 0.083879 0.995770 0.834501
O O9 0.500000 0.750000 0.026244
O O10 0.458341 0.922599 0.099218
O O11 0.500000 0.000000 0.000000
O O12 0.363671 0.750000 0.837363
O O13 0.388052 0.505995 0.861778
O O14 0.094847 0.750000 0.344194
O O15 0.051191 0.929399 0.275991
O O16 0.670009 0.500000 0.500000
O O17 0.679710 0.250000 0.461525
O O18 0.500000 0.445003 0.675148
O O19 0.557924 0.250000 0.678569
#
# Coordination Sequence:
#
# PCOD8299426 Si02
#       7
#    16  16   8  16  16  16  16
#     4   9  18  32  49  68  93 128 165 197 233 281
#     4   9  18  31  48  74 101 123 154 196 241 283
#     4  10  20  32  44  60  84 118 159 198 235 278
#     4   9  18  31  47  70  97 122 155 198 240 281
#     4   9  17  31  47  62  86 120 155 192 235 279
#     4   9  18  33  52  72  96 127 159 192 233 283
#     4   9  16  29  50  71  92 121 155 189 229 282
#
# _framework density 16.626006
#
# number of rings (size 3 to 8) (size 9 to 14) (size 15 to 20)
#    0.000    2.923    0.769    0.000    0.000    3.385 
#    0.000    6.154    0.000    0.462    0.000    8.615 
#    0.000    0.000    0.000    0.000    0.000    0.000 
#
# Total GULP energy -644539.624398 kJ/mol
# GULP energy per Si atom -12394.992777 kJ/mol
# Density = 1.658816 g / cm^3
# Si number density = 16.626006 Si / 1000 Ang^3
#
#
#
# Elastic Constant Matrix: (Units=GPa)
#
#
# Indices 1 2 3 4 5 6 
#
# 1 98.7843 62.8202 57.7051 0.0000 0.0000 0.0000
# 2 62.8202 80.5557 58.2522 0.0000 0.0000 0.0000
# 3 57.7051 58.2522 86.0136 0.0000 0.0000 0.0000
# 4 0.0000 0.0000 0.0000 27.2210 0.0000 0.0000
# 5 0.0000 0.0000 0.0000 0.0000 11.7964 0.0000
# 6 0.0000 0.0000 0.0000 0.0000 0.0000 30.0551
#
#
#
# Elastic Compliance Matrix: (Units=1/GPa)
#
#
# Indices 1 2 3 4 5 6 
#
# 1 0.021570 -0.012458 -0.006034 0.000000 0.000000 0.000000
# 2 -0.012458 0.031523 -0.012991 0.000000 0.000000 0.000000
# 3 -0.006034 -0.012991 0.024472 0.000000 0.000000 0.000000
# 4 0.000000 0.000000 0.000000 0.036736 0.000000 0.000000
# 5 0.000000 0.000000 0.000000 0.000000 0.084772 0.000000
# 6 0.000000 0.000000 0.000000 0.000000 0.000000 0.033272
#
#
# Mechanical properties :
#
#
# Convention : Reuss Voigt Hill
#
# Bulk Modulus (GPa) = 68.49470 69.21207 68.85339
# Shear Modulus (GPa) = 16.65677 19.58624 18.12151
#
# Velocity S-wave (km/s) = 3.16864 3.43599 3.30502
# Velocity P-wave (km/s) = 7.39417 7.58028 7.48780
#
# Compressibility (1/GPa) = 0.01459967
#
# Stress axis : x y z
#
# Youngs Moduli (GPa) = 46.36021 31.72288 40.86240
#
# Poissons Ratio (x) = 0.39520 0.24657
# Poissons Ratio (y) = 0.57754 0.53085
# Poissons Ratio (z) = 0.27974 0.41211
#
# Static dielectric constant tensor:
#      x y z
#    x 3.176550 0.000000 0.000000 
#    y 0.000000 3.178870 0.000000 
#    z 0.000000 0.000000 2.958420 
# 
# 
# High freq. dielectric constant tensor:
#      x y z
#    x 1.635980 0.000000 0.000000 
#    y 0.000000 1.644880 0.000000 
#    z 0.000000 0.000000 1.623310 
# 
# From -- ./inp_files/46695.got.cif
#   From: 2010.03.12/outbox.cif.g09.slc.cpg/sg74_24_cif.got.tgz:46695.got - 2010.04.16 15:46:19.
