data_PCOD8299128
_publ_section_title
;
Structure prediction by ZEFSAII (Michael W. Deem and Ramdas Pophale) SiO2 
 PCOD8299128
Probable space group: I M M A
;
_chemical_formula_sum "Si O2"
_cell_formula_units_Z 112
_cell_length_a 23.741097
_cell_length_b 14.346923
_cell_length_c 14.862125
_cell_angle_alpha 90.000000
_cell_angle_beta 90.000000
_cell_angle_gamma 90.000000
_cell_volume 5062.213522
_symmetry_space_group_name_H-M "I M M A"
_symmetry_group_IT_number 74
_symmetry_cell_setting 'orthorhombic'
loop_
_space_group_symop_operation_xyz
x,y,z
-x,1/2-y,z
x,-y,-z
-x,1/2+y,-z
-x,-y,-z
x,1/2+y,-z
-x,y,z
x,1/2-y,z
1/2+x,1/2+y,1/2+z
1/2-x,-y,1/2+z
1/2+x,1/2-y,1/2-z
1/2-x,y,1/2-z
1/2-x,1/2-y,1/2-z
1/2+x,y,1/2-z
1/2-x,1/2+y,1/2+z
1/2+x,-y,1/2+z
loop_
_atom_site_type_symbol
_atom_site_label
_atom_site_fract_x
_atom_site_fract_y
_atom_site_fract_z
Si Si1 0.281650 0.146941 0.028413
Si Si2 0.620910 0.492592 0.718723
Si Si3 0.935740 0.644425 0.084313
Si Si4 0.436372 0.895055 0.026590
Si Si5 0.338563 0.090577 0.449702
Si Si6 0.380921 0.352940 0.146384
Si Si7 0.664037 0.856293 0.147435
O O1 0.307026 0.250000 0.015510
O O2 0.215525 0.157204 0.048987
O O3 0.319754 0.107309 0.110502
O O4 0.294496 0.100661 0.930368
O O5 0.576161 0.429536 0.663762
O O6 0.650742 0.565473 0.652898
O O7 0.593431 0.564821 0.790331
O O8 0.666325 0.422229 0.764186
O O9 0.927822 0.750000 0.120678
O O10 0.000000 0.628687 0.050988
O O11 0.894036 0.630785 0.999182
O O12 0.500000 0.879177 0.057086
O O13 0.422504 0.836490 0.937387
O O14 0.399959 0.861138 0.111310
O O15 0.422100 0.000000 0.000000
O O16 0.316263 0.000000 0.500000
O O17 0.375703 0.250000 0.194128
O O18 0.679819 0.750000 0.175678
#
# Coordination Sequence:
#
# PCOD8299128 Si02
#       7
#    16  16  16  16  16  16  16
#     4   9  20  39  62  88 125 169 214 256 305 380
#     4  11  23  39  61  97 127 159 205 267 315 385
#     4  10  23  46  71  92 123 167 217 273 330 383
#     4  10  19  34  57  85 122 169 213 252 300 371
#     4  10  23  39  63  91 119 164 210 263 319 384
#     4  10  22  38  58  89 129 172 209 259 315 371
#     4  10  21  38  62  92 127 168 208 257 315 370
#
# _framework density 22.12471
#
# number of rings (size 3 to 8) (size 9 to 14) (size 15 to 20)
#    0.000    2.000    1.429    2.143    2.000    6.571 
#    2.571    1.429    0.000    4.286    0.000    0.000 
#    0.000    0.000    0.000    0.000    0.000    0.000 
#
# Total GULP energy -693797.982224 kJ/mol
# GULP energy per Si atom -12389.249683 kJ/mol
# Density = 2.207435 g / cm^3
# Si number density = 22.124710 Si / 1000 Ang^3
#
#
#
# Elastic Constant Matrix: (Units=GPa)
#
#
# Indices 1 2 3 4 5 6 
#
# 1 120.4745 25.3462 33.9655 0.0000 0.0000 0.0000
# 2 25.3462 108.9939 35.3276 0.0000 0.0000 0.0000
# 3 33.9655 35.3276 98.9237 0.0000 0.0000 0.0000
# 4 0.0000 0.0000 0.0000 31.2088 0.0000 0.0000
# 5 0.0000 0.0000 0.0000 0.0000 16.9101 0.0000
# 6 0.0000 0.0000 0.0000 0.0000 0.0000 20.7073
#
#
#
# Elastic Compliance Matrix: (Units=1/GPa)
#
#
# Indices 1 2 3 4 5 6 
#
# 1 0.009346 -0.001282 -0.002751 0.000000 0.000000 0.000000
# 2 -0.001282 0.010552 -0.003328 0.000000 0.000000 0.000000
# 3 -0.002751 -0.003328 0.012242 0.000000 0.000000 0.000000
# 4 0.000000 0.000000 0.000000 0.032042 0.000000 0.000000
# 5 0.000000 0.000000 0.000000 0.000000 0.059136 0.000000
# 6 0.000000 0.000000 0.000000 0.000000 0.000000 0.048292
#
#
# Mechanical properties :
#
#
# Convention : Reuss Voigt Hill
#
# Bulk Modulus (GPa) = 57.41361 57.51896 57.46629
# Shear Modulus (GPa) = 26.02299 29.34876 27.68587
#
# Velocity S-wave (km/s) = 3.43329 3.64609 3.54129
# Velocity P-wave (km/s) = 6.45933 6.61659 6.53844
#
# Compressibility (1/GPa) = 0.01741747
#
# Stress axis : x y z
#
# Youngs Moduli (GPa) = 107.00003 94.77247 81.68622
#
# Poissons Ratio (x) = 0.12146 0.22473
# Poissons Ratio (y) = 0.13713 0.27186
# Poissons Ratio (z) = 0.29438 0.31542
#
# Static dielectric constant tensor:
#      x y z
#    x 3.631530 0.000000 0.000000 
#    y 0.000000 4.144000 0.000000 
#    z 0.000000 0.000000 3.912400 
# 
# 
# High freq. dielectric constant tensor:
#      x y z
#    x 1.845910 0.000000 0.000000 
#    y 0.000000 1.889250 0.000000 
#    z 0.000000 0.000000 1.853220 
# 
# From -- ./inp_files/36553.got.cif
#   From: 2010.03.12/outbox.cif.g09.slc.cpg/sg74_19_cif.got.tgz:36553.got - 2010.04.16 15:46:19.
