data_PCOD8299727
_publ_section_title
;
Structure prediction by ZEFSAII (Michael W. Deem and Ramdas Pophale) SiO2 
 PCOD8299727
Probable space group: I M M A
;
_chemical_formula_sum "Si O2"
_cell_formula_units_Z 96
_cell_length_a 14.536648
_cell_length_b 14.107600
_cell_length_c 23.607708
_cell_angle_alpha 90.000000
_cell_angle_beta 90.000000
_cell_angle_gamma 90.000000
_cell_volume 4841.403017
_symmetry_space_group_name_H-M "I M M A"
_symmetry_group_IT_number 74
_symmetry_cell_setting 'orthorhombic'
loop_
_space_group_symop_operation_xyz
x,y,z
-x,1/2-y,z
x,-y,-z
-x,1/2+y,-z
-x,-y,-z
x,1/2+y,-z
-x,y,z
x,1/2-y,z
1/2+x,1/2+y,1/2+z
1/2-x,-y,1/2+z
1/2+x,1/2-y,1/2-z
1/2-x,y,1/2-z
1/2-x,1/2-y,1/2-z
1/2+x,y,1/2-z
1/2-x,1/2+y,1/2+z
1/2+x,-y,1/2+z
loop_
_atom_site_type_symbol
_atom_site_label
_atom_site_fract_x
_atom_site_fract_y
_atom_site_fract_z
Si Si1 0.356556 0.855600 0.238442
Si Si2 0.605589 0.477905 0.869261
Si Si3 0.894173 0.025741 0.065137
Si Si4 0.899415 0.892859 0.481816
Si Si5 0.602417 0.853717 0.363132
Si Si6 0.778071 0.145149 0.415924
O O1 0.387931 0.750000 0.218946
O O2 0.250000 0.858069 0.250000
O O3 0.404417 0.883165 0.297408
O O4 0.383172 0.933341 0.192420
O O5 0.500000 0.508807 0.878836
O O6 0.633181 0.397356 0.915896
O O7 0.666828 0.572681 0.875595
O O8 0.828410 0.114505 0.077662
O O9 0.000000 0.049563 0.082849
O O10 0.850660 0.937036 0.100470
O O11 0.888378 0.000000 0.000000
O O12 0.824068 0.844135 0.521678
O O13 0.000000 0.842594 0.487206
O O14 0.909540 0.000000 0.500000
O O15 0.500000 0.844122 0.387713
O O16 0.652330 0.750000 0.369630
O O17 0.778993 0.250000 0.388167
#
# Coordination Sequence:
#
# PCOD8299727 Si02
#       6
#    16  16  16  16  16  16
#     4  10  20  33  53  82 113 143 175 216 272 337
#     4  10  20  35  56  82 113 147 185 229 276 330
#     4  10  21  37  57  81 110 145 185 228 277 335
#     4   8  16  32  52  75 105 140 179 225 275 322
#     4   9  18  34  56  80 105 133 168 215 271 328
#     4  11  22  35  53  77 109 149 191 234 277 324
#
# _framework density 19.828962000000001
#
# number of rings (size 3 to 8) (size 9 to 14) (size 15 to 20)
#    0.000    2.333    0.000    4.500    0.000    4.000 
#    0.000    5.000    0.000    4.500    0.000    4.667 
#    0.000    0.000    0.000    0.000    0.000    0.000 
#
# Total GULP energy -594780.156109 kJ/mol
# GULP energy per Si atom -12391.253252 kJ/mol
# Density = 1.978383 g / cm^3
# Si number density = 19.828962 Si / 1000 Ang^3
#
#
#
# Elastic Constant Matrix: (Units=GPa)
#
#
# Indices 1 2 3 4 5 6 
#
# 1 93.5734 45.6472 17.8610 0.0000 0.0000 0.0000
# 2 45.6472 125.5737 57.1359 0.0000 0.0000 0.0000
# 3 17.8610 57.1359 98.6006 0.0000 0.0000 0.0000
# 4 0.0000 0.0000 0.0000 19.9902 0.0000 0.0000
# 5 0.0000 0.0000 0.0000 0.0000 37.5976 0.0000
# 6 0.0000 0.0000 0.0000 0.0000 0.0000 23.3361
#
#
#
# Elastic Compliance Matrix: (Units=1/GPa)
#
#
# Indices 1 2 3 4 5 6 
#
# 1 0.013010 -0.004966 0.000521 0.000000 0.000000 0.000000
# 2 -0.004966 0.012711 -0.006466 0.000000 0.000000 0.000000
# 3 0.000521 -0.006466 0.013794 0.000000 0.000000 0.000000
# 4 0.000000 0.000000 0.000000 0.050025 0.000000 0.000000
# 5 0.000000 0.000000 0.000000 0.000000 0.026597 0.000000
# 6 0.000000 0.000000 0.000000 0.000000 0.000000 0.042852
#
#
# Mechanical properties :
#
#
# Convention : Reuss Voigt Hill
#
# Bulk Modulus (GPa) = 56.51978 62.11509 59.31743
# Shear Modulus (GPa) = 26.77967 29.32502 28.05234
#
# Velocity S-wave (km/s) = 3.67895 3.84982 3.76535
# Velocity P-wave (km/s) = 6.82728 7.15226 6.99166
#
# Compressibility (1/GPa) = 0.01769292
#
# Stress axis : x y z
#
# Youngs Moduli (GPa) = 76.86374 78.67374 72.49390
#
# Poissons Ratio (x) = 0.39073 -0.03778
# Poissons Ratio (y) = 0.38174 0.46873
# Poissons Ratio (z) = -0.04006 0.50869
#
# Static dielectric constant tensor:
#      x y z
#    x 3.788850 0.000000 0.000000 
#    y 0.000000 3.718860 0.000000 
#    z 0.000000 0.000000 2.073080 
# 
# 
# High freq. dielectric constant tensor:
#      x y z
#    x 1.782630 0.000000 0.000000 
#    y 0.000000 1.750890 0.000000 
#    z 0.000000 0.000000 1.757560 
# 
# From -- ./inp_files/51919.got.cif
#   From: 2010.03.12/outbox.cif.g09.slc.cpg/sg74_26_cif.got.tgz:51919.got - 2010.04.16 15:46:19.
