data_PCOD8299261
_publ_section_title
;
Structure prediction by ZEFSAII (Michael W. Deem and Ramdas Pophale) SiO2 
 PCOD8299261
Probable space group: I M M A
;
_chemical_formula_sum "Si O2"
_cell_formula_units_Z 120
_cell_length_a 20.390672
_cell_length_b 19.236542
_cell_length_c 16.017120
_cell_angle_alpha 90.000000
_cell_angle_beta 90.000000
_cell_angle_gamma 90.000000
_cell_volume 6282.651545
_symmetry_space_group_name_H-M "I M M A"
_symmetry_group_IT_number 74
_symmetry_cell_setting 'orthorhombic'
loop_
_space_group_symop_operation_xyz
x,y,z
-x,1/2-y,z
x,-y,-z
-x,1/2+y,-z
-x,-y,-z
x,1/2+y,-z
-x,y,z
x,1/2-y,z
1/2+x,1/2+y,1/2+z
1/2-x,-y,1/2+z
1/2+x,1/2-y,1/2-z
1/2-x,y,1/2-z
1/2-x,1/2-y,1/2-z
1/2+x,y,1/2-z
1/2-x,1/2+y,1/2+z
1/2+x,-y,1/2+z
loop_
_atom_site_type_symbol
_atom_site_label
_atom_site_fract_x
_atom_site_fract_y
_atom_site_fract_z
Si Si1 0.250000 0.361902 0.250000
Si Si2 0.711846 0.099353 0.554974
Si Si3 0.313658 0.547297 0.616211
Si Si4 0.573384 0.961491 0.746029
Si Si5 0.680847 0.668612 0.285296
Si Si6 0.576228 0.102424 0.832800
Si Si7 0.149368 0.831685 0.478473
Si Si8 0.121301 0.825744 0.670400
O O1 0.263140 0.410837 0.328303
O O2 0.188178 0.316036 0.276499
O O3 0.672167 0.092207 0.467743
O O4 0.667801 0.141456 0.620940
O O5 0.779240 0.140193 0.543462
O O6 0.724531 0.022901 0.592525
O O7 0.380857 0.532085 0.665045
O O8 0.500000 0.971156 0.712324
O O9 0.578082 0.886407 0.789796
O O10 0.590283 0.020893 0.814273
O O11 0.685805 0.750000 0.287332
O O12 0.750000 0.637551 0.250000
O O13 0.619389 0.647837 0.229675
O O14 0.500000 0.120410 0.819348
O O15 0.596149 0.123630 0.926756
O O16 0.145696 0.750000 0.454915
O O17 0.135005 0.844717 0.574973
O O18 0.085842 0.750000 0.675985
#
# Coordination Sequence:
#
# PCOD8299261 Si02
#       8
#     8  16  16  16  16  16  16  16
#     4  10  19  36  56  90 117 152 186 240 301 352
#     4  11  21  36  57  92 123 154 196 246 306 358
#     4  10  22  35  60  90 119 153 198 253 303 352
#     4  10  23  43  62  84 117 159 208 255 299 357
#     4  11  22  37  61  90 123 163 206 254 307 365
#     4  11  24  41  62  88 124 166 208 253 304 366
#     4  11  23  38  58  91 131 162 194 244 306 370
#     4  10  22  38  60  88 120 157 195 244 304 365
#
# _framework density 19.100216
#
# number of rings (size 3 to 8) (size 9 to 14) (size 15 to 20)
#    0.000    1.467    4.000    1.000    4.667    2.400 
#    0.000    5.333    0.000    0.000    0.000    0.000 
#    0.000    0.000    0.000    0.000    0.000    0.000 
#
# Total GULP energy -743855.158917 kJ/mol
# GULP energy per Si atom -12397.585982 kJ/mol
# Density = 1.905674 g / cm^3
# Si number density = 19.100216 Si / 1000 Ang^3
#
#
#
# Elastic Constant Matrix: (Units=GPa)
#
#
# Indices 1 2 3 4 5 6 
#
# 1 60.4817 18.3226 34.1420 0.0000 0.0000 0.0000
# 2 18.3226 89.3796 51.7478 0.0000 0.0000 0.0000
# 3 34.1420 51.7478 115.9607 0.0000 0.0000 0.0000
# 4 0.0000 0.0000 0.0000 34.2816 0.0000 0.0000
# 5 0.0000 0.0000 0.0000 0.0000 20.8523 0.0000
# 6 0.0000 0.0000 0.0000 0.0000 0.0000 20.6154
#
#
#
# Elastic Compliance Matrix: (Units=1/GPa)
#
#
# Indices 1 2 3 4 5 6 
#
# 1 0.019886 -0.000926 -0.005442 0.000000 0.000000 0.000000
# 2 -0.000926 0.015129 -0.006479 0.000000 0.000000 0.000000
# 3 -0.005442 -0.006479 0.013117 0.000000 0.000000 0.000000
# 4 0.000000 0.000000 0.000000 0.029170 0.000000 0.000000
# 5 0.000000 0.000000 0.000000 0.000000 0.047956 0.000000
# 6 0.000000 0.000000 0.000000 0.000000 0.000000 0.048507
#
#
# Mechanical properties :
#
#
# Convention : Reuss Voigt Hill
#
# Bulk Modulus (GPa) = 44.56482 52.69409 48.62946
# Shear Modulus (GPa) = 24.16170 25.92385 25.04277
#
# Velocity S-wave (km/s) = 3.56054 3.68809 3.62487
# Velocity P-wave (km/s) = 6.34712 6.76640 6.56011
#
# Compressibility (1/GPa) = 0.02243922
#
# Stress axis : x y z
#
# Youngs Moduli (GPa) = 50.28568 66.09805 76.23699
#
# Poissons Ratio (x) = 0.06121 0.41487
# Poissons Ratio (y) = 0.04656 0.49392
# Poissons Ratio (z) = 0.27365 0.42823
#
# Static dielectric constant tensor:
#      x y z
#    x 3.989120 0.000000 0.000000 
#    y 0.000000 3.635500 0.000000 
#    z 0.000000 0.000000 3.806200 
# 
# 
# High freq. dielectric constant tensor:
#      x y z
#    x 1.720230 0.000000 0.000000 
#    y 0.000000 1.756660 0.000000 
#    z 0.000000 0.000000 1.752980 
# 
# From -- ./inp_files/35739.got.cif
#   From: 2010.03.12/outbox.cif.g09.slc.cpg/sg74_18_cif.got.tgz:35739.got - 2010.04.16 15:46:19.
