data_PCOD8299323
_publ_section_title
;
Structure prediction by ZEFSAII (Michael W. Deem and Ramdas Pophale) SiO2 
 PCOD8299323
Probable space group: I M M A
;
_chemical_formula_sum "Si O2"
_cell_formula_units_Z 88
_cell_length_a 18.464846
_cell_length_b 14.354530
_cell_length_c 16.751073
_cell_angle_alpha 90.000000
_cell_angle_beta 90.000000
_cell_angle_gamma 90.000000
_cell_volume 4439.942016
_symmetry_space_group_name_H-M "I M M A"
_symmetry_group_IT_number 74
_symmetry_cell_setting 'orthorhombic'
loop_
_space_group_symop_operation_xyz
x,y,z
-x,1/2-y,z
x,-y,-z
-x,1/2+y,-z
-x,-y,-z
x,1/2+y,-z
-x,y,z
x,1/2-y,z
1/2+x,1/2+y,1/2+z
1/2-x,-y,1/2+z
1/2+x,1/2-y,1/2-z
1/2-x,y,1/2-z
1/2-x,1/2-y,1/2-z
1/2+x,y,1/2-z
1/2-x,1/2+y,1/2+z
1/2+x,-y,1/2+z
loop_
_atom_site_type_symbol
_atom_site_label
_atom_site_fract_x
_atom_site_fract_y
_atom_site_fract_z
Si Si1 0.728836 0.000000 0.500000
Si Si2 0.583762 0.649492 0.890878
Si Si3 0.613568 0.005988 0.632798
Si Si4 0.087682 0.033212 0.694284
Si Si5 0.000000 0.354377 0.935377
Si Si6 0.653834 0.643851 0.053142
Si Si7 0.000000 0.853340 0.877575
O O1 0.682462 0.978544 0.579710
O O2 0.775691 0.910878 0.476494
O O3 0.500000 0.653313 0.871949
O O4 0.619408 0.750000 0.867853
O O5 0.616521 0.565574 0.839673
O O6 0.593605 0.630524 0.984873
O O7 0.569929 0.910849 0.649879
O O8 0.628447 0.047309 0.721045
O O9 0.570504 0.086579 0.586528
O O10 0.117782 0.111733 0.635565
O O11 0.000000 0.040384 0.703005
O O12 0.000000 0.250000 0.896138
O O13 0.000000 0.342372 0.028715
O O14 0.678275 0.750000 0.064507
O O15 0.000000 0.750000 0.837662
#
# Coordination Sequence:
#
# PCOD8299323 Si02
#       7
#     8  16  16  16   8  16   8
#     4  12  24  43  63  80 130 176 214 244 300 386
#     4   9  18  36  63  91 120 154 201 261 312 360
#     4  11  22  39  62  93 127 163 205 259 320 375
#     4  11  21  38  65  96 123 155 204 271 324 363
#     4  10  19  37  62  91 121 156 212 266 313 368
#     4  11  24  42  62  89 124 169 215 252 306 379
#     4  10  19  37  64  93 121 156 210 265 314 368
#
# _framework density 19.820077999999999
#
# number of rings (size 3 to 8) (size 9 to 14) (size 15 to 20)
#    0.000    1.455    5.455    1.091    0.000    6.182 
#    0.000    0.909    0.000    2.182    0.000    0.000 
#    0.000    0.000    0.000    0.000    0.000    0.000 
#
# Total GULP energy -545363.729839 kJ/mol
# GULP energy per Si atom -12394.630224 kJ/mol
# Density = 1.977497 g / cm^3
# Si number density = 19.820078 Si / 1000 Ang^3
#
#
#
# Elastic Constant Matrix: (Units=GPa)
#
#
# Indices 1 2 3 4 5 6 
#
# 1 57.8021 38.3831 29.4113 0.0000 0.0000 0.0000
# 2 38.3831 121.4970 23.6445 0.0000 0.0000 0.0000
# 3 29.4113 23.6445 109.9595 0.0000 0.0000 0.0000
# 4 0.0000 0.0000 0.0000 19.7142 0.0000 0.0000
# 5 0.0000 0.0000 0.0000 0.0000 21.4810 0.0000
# 6 0.0000 0.0000 0.0000 0.0000 0.0000 17.4107
#
#
#
# Elastic Compliance Matrix: (Units=1/GPa)
#
#
# Indices 1 2 3 4 5 6 
#
# 1 0.024327 -0.006699 -0.005066 0.000000 0.000000 0.000000
# 2 -0.006699 0.010435 -0.000452 0.000000 0.000000 0.000000
# 3 -0.005066 -0.000452 0.010547 0.000000 0.000000 0.000000
# 4 0.000000 0.000000 0.000000 0.050725 0.000000 0.000000
# 5 0.000000 0.000000 0.000000 0.000000 0.046553 0.000000
# 6 0.000000 0.000000 0.000000 0.000000 0.000000 0.057436
#
#
# Mechanical properties :
#
#
# Convention : Reuss Voigt Hill
#
# Bulk Modulus (GPa) = 47.90789 52.45960 50.18375
# Shear Modulus (GPa) = 21.60621 24.90917 23.25769
#
# Velocity S-wave (km/s) = 3.30527 3.54893 3.42927
# Velocity P-wave (km/s) = 6.22819 6.58169 6.40738
#
# Compressibility (1/GPa) = 0.02087339
#
# Stress axis : x y z
#
# Youngs Moduli (GPa) = 41.10669 95.83084 94.81789
#
# Poissons Ratio (x) = 0.64201 0.48037
# Poissons Ratio (y) = 0.27539 0.04285
# Poissons Ratio (z) = 0.20826 0.04331
#
# Static dielectric constant tensor:
#      x y z
#    x 3.356600 0.000000 0.000000 
#    y 0.000000 4.130220 0.000000 
#    z 0.000000 0.000000 3.724070 
# 
# 
# High freq. dielectric constant tensor:
#      x y z
#    x 1.739270 0.000000 0.000000 
#    y 0.000000 1.783480 0.000000 
#    z 0.000000 0.000000 1.782390 
# 
# From -- ./inp_files/43998.got.cif
#   From: 2010.03.12/outbox.cif.g09.slc.cpg/sg74_22_cif.got.tgz:43998.got - 2010.04.16 15:46:19.
