data_PCOD8299092
_publ_section_title
;
Structure prediction by ZEFSAII (Michael W. Deem and Ramdas Pophale) SiO2 
 PCOD8299092
Probable space group: I M M A
;
_chemical_formula_sum "Si O2"
_cell_formula_units_Z 80
_cell_length_a 15.661673
_cell_length_b 26.881250
_cell_length_c 9.360179
_cell_angle_alpha 90.000000
_cell_angle_beta 90.000000
_cell_angle_gamma 90.000000
_cell_volume 3940.685411
_symmetry_space_group_name_H-M "I M M A"
_symmetry_group_IT_number 74
_symmetry_cell_setting 'orthorhombic'
loop_
_space_group_symop_operation_xyz
x,y,z
-x,1/2-y,z
x,-y,-z
-x,1/2+y,-z
-x,-y,-z
x,1/2+y,-z
-x,y,z
x,1/2-y,z
1/2+x,1/2+y,1/2+z
1/2-x,-y,1/2+z
1/2+x,1/2-y,1/2-z
1/2-x,y,1/2-z
1/2-x,1/2-y,1/2-z
1/2+x,y,1/2-z
1/2-x,1/2+y,1/2+z
1/2+x,-y,1/2+z
loop_
_atom_site_type_symbol
_atom_site_label
_atom_site_fract_x
_atom_site_fract_y
_atom_site_fract_z
Si Si1 0.094976 0.120812 0.135236
Si Si2 0.820249 0.020867 0.146545
Si Si3 0.098684 0.461455 0.617169
Si Si4 0.238121 0.304945 0.081720
Si Si5 0.903625 0.358746 0.468709
O O1 0.162016 0.155846 0.049901
O O2 0.100750 0.125857 0.304680
O O3 0.000000 0.134564 0.080461
O O4 0.111380 0.062778 0.103637
O O5 0.750000 0.046640 0.250000
O O6 0.642517 0.973343 0.268396
O O7 0.780040 0.000000 0.000000
O O8 0.133739 0.500000 0.500000
O O9 0.118247 0.405531 0.568462
O O10 0.000000 0.470584 0.640725
O O11 0.212025 0.250000 0.025497
O O12 0.250000 0.302952 0.250000
O O13 0.327842 0.319118 0.004081
O O14 0.000000 0.338170 0.502866
#
# Coordination Sequence:
#
# PCOD8299092 Si02
#       5
#    16  16  16  16  16
#     4  10  20  34  53  77 111 154 199 244 293 348
#     4  12  25  36  55  83 117 156 193 244 299 357
#     4  10  19  34  56  80 112 155 196 230 281 353
#     4   9  18  31  50  78 115 154 198 251 298 344
#     4   9  17  31  55  81 112 154 196 239 289 350
#
# _framework density 20.301037000000001
#
# number of rings (size 3 to 8) (size 9 to 14) (size 15 to 20)
#    0.000    2.000    2.000    3.000    2.800    2.400 
#    0.000    4.000    0.000    0.000    0.000    2.800 
#    0.000    3.200    0.000    0.000    0.000    0.000 
#
# Total GULP energy -495721.645152 kJ/mol
# GULP energy per Si atom -12393.041129 kJ/mol
# Density = 2.025483 g / cm^3
# Si number density = 20.301037 Si / 1000 Ang^3
#
#
#
# Elastic Constant Matrix: (Units=GPa)
#
#
# Indices 1 2 3 4 5 6 
#
# 1 148.9680 70.6546 28.4352 -0.0002 0.0001 0.0000
# 2 70.6546 108.2990 28.8794 -0.0011 -0.0006 -0.0001
# 3 28.4352 28.8794 64.6555 -0.0061 -0.0037 -0.0005
# 4 -0.0002 -0.0011 -0.0061 9.7285 -0.0010 -0.0002
# 5 0.0001 -0.0006 -0.0037 -0.0010 18.7903 -0.0002
# 6 0.0000 -0.0001 -0.0005 -0.0002 -0.0002 26.6626
#
#
#
# Elastic Compliance Matrix: (Units=1/GPa)
#
#
# Indices 1 2 3 4 5 6 
#
# 1 0.009876 -0.005999 -0.001664 -0.000002 -0.000001 0.000000
# 2 -0.005999 0.014127 -0.003671 -0.000001 0.000000 0.000000
# 3 -0.001664 -0.003671 0.017838 0.000011 0.000003 0.000000
# 4 -0.000002 -0.000001 0.000011 0.102791 0.000006 0.000001
# 5 -0.000001 0.000000 0.000003 0.000006 0.053219 0.000000
# 6 0.000000 0.000000 0.000000 0.000001 0.000000 0.037506
#
#
# Mechanical properties :
#
#
# Convention : Reuss Voigt Hill
#
# Bulk Modulus (GPa) = 52.15982 64.20674 58.18328
# Shear Modulus (GPa) = 18.90961 23.96651 21.43806
#
# Velocity S-wave (km/s) = 3.05529 3.43965 3.25315
# Velocity P-wave (km/s) = 6.18024 6.88991 6.54470
#
# Compressibility (1/GPa) = 0.01917185
#
# Stress axis : x y z
#
# Youngs Moduli (GPa) = 101.25659 70.78760 56.05966
#
# Poissons Ratio (x) = 0.42469 0.09326
# Poissons Ratio (y) = 0.60748 0.20582
# Poissons Ratio (z) = 0.16845 0.25989
#
# Static dielectric constant tensor:
#      x y z
#    x 4.066420 0.000000 0.000000 
#    y 0.000000 3.691550 0.000000 
#    z 0.000000 0.000000 3.247160 
# 
# 
# High freq. dielectric constant tensor:
#      x y z
#    x 1.813140 0.000000 0.000000 
#    y 0.000000 1.772840 0.000000 
#    z 0.000000 0.000000 1.741380 
# 
# From -- ./inp_files/20529.got.cif
#   From: 2010.03.12/outbox.cif.g09.slc.cpg/sg74_11_cif.got.tgz:20529.got - 2010.04.16 15:46:19.
