data_PCOD8299561
_publ_section_title
;
Structure prediction by ZEFSAII (Michael W. Deem and Ramdas Pophale) SiO2 
 PCOD8299561
Probable space group: I M M A
;
_chemical_formula_sum "Si O2"
_cell_formula_units_Z 72
_cell_length_a 9.054923
_cell_length_b 21.254123
_cell_length_c 19.322741
_cell_angle_alpha 90.000000
_cell_angle_beta 90.000000
_cell_angle_gamma 90.000000
_cell_volume 3718.747437
_symmetry_space_group_name_H-M "I M M A"
_symmetry_group_IT_number 74
_symmetry_cell_setting 'orthorhombic'
loop_
_space_group_symop_operation_xyz
x,y,z
-x,1/2-y,z
x,-y,-z
-x,1/2+y,-z
-x,-y,-z
x,1/2+y,-z
-x,y,z
x,1/2-y,z
1/2+x,1/2+y,1/2+z
1/2-x,-y,1/2+z
1/2+x,1/2-y,1/2-z
1/2-x,y,1/2-z
1/2-x,1/2-y,1/2-z
1/2+x,y,1/2-z
1/2-x,1/2+y,1/2+z
1/2+x,-y,1/2+z
loop_
_atom_site_type_symbol
_atom_site_label
_atom_site_fract_x
_atom_site_fract_y
_atom_site_fract_z
Si Si1 0.826915 0.633271 0.582669
Si Si2 0.326951 0.750000 0.823443
Si Si3 0.828885 0.977809 0.680767
Si Si4 0.174341 0.878640 0.321261
Si Si5 0.830070 0.677256 0.049779
O O1 0.777325 0.688676 0.634087
O O2 0.784938 0.566714 0.617042
O O3 0.736366 0.635895 0.511934
O O4 0.000000 0.638460 0.565031
O O5 0.500000 0.750000 0.809887
O O6 0.250000 0.750000 0.750000
O O7 0.750000 0.954178 0.750000
O O8 0.000000 0.971896 0.697292
O O9 0.784807 0.049001 0.661566
O O10 0.250000 0.857558 0.250000
O O11 0.239173 0.835130 0.380858
O O12 0.000000 0.868080 0.315341
O O13 0.812595 0.750000 0.029798
O O14 0.000000 0.658479 0.061454
#
# Coordination Sequence:
#
# PCOD8299561 Si02
#       5
#    16   8  16  16  16
#     4  10  20  36  56  81 114 152 190 228 277 332
#     4  10  20  32  52  80 111 150 191 228 270 320
#     4   9  19  35  57  85 116 149 187 231 277 331
#     4  10  21  39  62  86 113 146 184 230 283 338
#     4  11  24  40  58  82 112 147 189 237 285 334
#
# _framework density 19.361359
#
# number of rings (size 3 to 8) (size 9 to 14) (size 15 to 20)
#    0.000    2.000    1.111    2.000    0.000    5.333 
#    0.000    4.444    0.000    0.000    0.000    0.000 
#    0.000    0.000    0.000    0.000    0.000    0.000 
#
# Total GULP energy -446578.987755 kJ/mol
# GULP energy per Si atom -12404.971882 kJ/mol
# Density = 1.931729 g / cm^3
# Si number density = 19.361359 Si / 1000 Ang^3
#
#
#
# Elastic Constant Matrix: (Units=GPa)
#
#
# Indices 1 2 3 4 5 6 
#
# 1 82.3942 23.9687 57.1608 0.0000 0.0000 0.0000
# 2 23.9687 39.5727 24.1835 0.0000 0.0000 0.0000
# 3 57.1608 24.1835 130.0255 0.0000 0.0000 0.0000
# 4 0.0000 0.0000 0.0000 32.1581 0.0000 0.0000
# 5 0.0000 0.0000 0.0000 0.0000 43.9450 0.0000
# 6 0.0000 0.0000 0.0000 0.0000 0.0000 21.3086
#
#
#
# Elastic Compliance Matrix: (Units=1/GPa)
#
#
# Indices 1 2 3 4 5 6 
#
# 1 0.019159 -0.007285 -0.007068 0.000000 0.000000 0.000000
# 2 -0.007285 0.031281 -0.002615 0.000000 0.000000 0.000000
# 3 -0.007068 -0.002615 0.011284 0.000000 0.000000 0.000000
# 4 0.000000 0.000000 0.000000 0.031096 0.000000 0.000000
# 5 0.000000 0.000000 0.000000 0.000000 0.022756 0.000000
# 6 0.000000 0.000000 0.000000 0.000000 0.000000 0.046930
#
#
# Mechanical properties :
#
#
# Convention : Reuss Voigt Hill
#
# Bulk Modulus (GPa) = 35.98693 51.40205 43.69449
# Shear Modulus (GPa) = 24.30666 29.26096 26.78381
#
# Velocity S-wave (km/s) = 3.54704 3.89177 3.72340
# Velocity P-wave (km/s) = 5.95001 6.84112 6.41107
#
# Compressibility (1/GPa) = 0.02778786
#
# Stress axis : x y z
#
# Youngs Moduli (GPa) = 52.19406 31.96849 88.61938
#
# Poissons Ratio (x) = 0.23290 0.62633
# Poissons Ratio (y) = 0.38025 0.23176
# Poissons Ratio (z) = 0.36889 0.08360
#
# Static dielectric constant tensor:
#      x y z
#    x 3.526470 0.000000 0.000000 
#    y 0.000000 3.624800 0.000000 
#    z 0.000000 0.000000 3.501260 
# 
# 
# High freq. dielectric constant tensor:
#      x y z
#    x 1.754140 0.000000 0.000000 
#    y 0.000000 1.754430 0.000000 
#    z 0.000000 0.000000 1.758100 
# 
# From -- ./inp_files/39456.got.cif
#   From: 2010.03.12/outbox.cif.g09.slc.cpg/sg74_20_cif.got.tgz:39456.got - 2010.04.16 15:46:19.
