data_PCOD8299427
_publ_section_title
;
Structure prediction by ZEFSAII (Michael W. Deem and Ramdas Pophale) SiO2 
 PCOD8299427
Probable space group: I M M A
;
_chemical_formula_sum "Si O2"
_cell_formula_units_Z 88
_cell_length_a 8.943649
_cell_length_b 27.302787
_cell_length_c 19.084529
_cell_angle_alpha 90.000000
_cell_angle_beta 90.000000
_cell_angle_gamma 90.000000
_cell_volume 4660.185174
_symmetry_space_group_name_H-M "I M M A"
_symmetry_group_IT_number 74
_symmetry_cell_setting 'orthorhombic'
loop_
_space_group_symop_operation_xyz
x,y,z
-x,1/2-y,z
x,-y,-z
-x,1/2+y,-z
-x,-y,-z
x,1/2+y,-z
-x,y,z
x,1/2-y,z
1/2+x,1/2+y,1/2+z
1/2-x,-y,1/2+z
1/2+x,1/2-y,1/2-z
1/2-x,y,1/2-z
1/2-x,1/2-y,1/2-z
1/2+x,y,1/2-z
1/2-x,1/2+y,1/2+z
1/2+x,-y,1/2+z
loop_
_atom_site_type_symbol
_atom_site_label
_atom_site_fract_x
_atom_site_fract_y
_atom_site_fract_z
Si Si1 0.830521 0.674956 0.933195
Si Si2 0.328810 0.250000 0.321470
Si Si3 0.826573 0.000812 0.324304
Si Si4 0.324489 0.303142 0.927646
Si Si5 0.171333 0.436300 0.055718
Si Si6 0.673695 0.589241 0.086786
O O1 0.781910 0.701524 0.862797
O O2 0.816744 0.618294 0.915676
O O3 0.000000 0.688809 0.956415
O O4 0.716570 0.693780 0.991272
O O5 0.500000 0.250000 0.304045
O O6 0.250000 0.250000 0.250000
O O7 0.750000 0.012200 0.250000
O O8 0.804360 0.943414 0.343720
O O9 0.000000 0.014442 0.317121
O O10 0.759049 0.031144 0.388558
O O11 0.500000 0.301349 0.917867
O O12 0.261267 0.250000 0.897661
O O13 0.264776 0.355209 0.895085
O O14 0.000000 0.454383 0.050694
O O15 0.240481 0.437359 0.977427
O O16 0.500000 0.592271 0.064670
#
# Coordination Sequence:
#
# PCOD8299427 Si02
#       6
#    16   8  16  16  16  16
#     4   9  18  32  48  68  97 129 162 204 251 298
#     4  10  20  32  44  60  90 130 167 200 241 292
#     4  11  23  38  55  74 103 141 177 217 264 315
#     4   9  16  28  51  79 102 125 160 205 251 301
#     4  10  20  34  55  81 105 133 173 218 261 308
#     4   9  19  35  54  79 108 138 172 213 263 311
#
# _framework density 18.883371
#
# number of rings (size 3 to 8) (size 9 to 14) (size 15 to 20)
#    0.000    2.364    0.909    1.636    0.000    5.818 
#    0.000    1.818    0.000    0.545    0.000    0.000 
#    0.000    0.000    0.000    0.000    0.000    0.182 
#
# Total GULP energy -545077.229562 kJ/mol
# GULP energy per Si atom -12388.118854 kJ/mol
# Density = 1.884039 g / cm^3
# Si number density = 18.883371 Si / 1000 Ang^3
#
#
#
# Elastic Constant Matrix: (Units=GPa)
#
#
# Indices 1 2 3 4 5 6 
#
# 1 59.4266 26.2131 19.5425 0.0001 0.0000 0.0000
# 2 26.2131 99.5655 27.0049 0.0001 0.0000 0.0000
# 3 19.5425 27.0049 44.7354 0.0006 0.0000 0.0000
# 4 0.0001 0.0001 0.0006 28.1592 0.0000 0.0000
# 5 0.0000 0.0000 0.0000 0.0000 23.6249 0.0000
# 6 0.0000 0.0000 0.0000 0.0000 0.0000 21.2322
#
#
#
# Elastic Compliance Matrix: (Units=1/GPa)
#
#
# Indices 1 2 3 4 5 6 
#
# 1 0.020664 -0.003578 -0.006867 0.000000 0.000000 0.000000
# 2 -0.003578 0.012629 -0.006061 0.000000 0.000000 0.000000
# 3 -0.006867 -0.006061 0.029012 -0.000001 0.000000 0.000000
# 4 0.000000 0.000000 -0.000001 0.035512 0.000000 0.000000
# 5 0.000000 0.000000 0.000000 0.000000 0.042328 0.000000
# 6 0.000000 0.000000 0.000000 0.000000 0.000000 0.047098
#
#
# Mechanical properties :
#
#
# Convention : Reuss Voigt Hill
#
# Bulk Modulus (GPa) = 34.13681 38.80539 36.47110
# Shear Modulus (GPa) = 21.73714 23.33439 22.53577
#
# Velocity S-wave (km/s) = 3.39651 3.51908 3.45834
# Velocity P-wave (km/s) = 5.78780 6.09152 5.94160
#
# Compressibility (1/GPa) = 0.02929389
#
# Stress axis : x y z
#
# Youngs Moduli (GPa) = 48.39354 79.17986 34.46811
#
# Poissons Ratio (x) = 0.28328 0.23670
# Poissons Ratio (y) = 0.17314 0.20891
# Poissons Ratio (z) = 0.33233 0.47991
#
# Static dielectric constant tensor:
#      x y z
#    x 3.615500 0.000000 0.000000 
#    y 0.000000 4.207660 0.000000 
#    z 0.000000 0.000000 3.086060 
# 
# 
# High freq. dielectric constant tensor:
#      x y z
#    x 1.730490 0.000000 0.000000 
#    y 0.000000 1.761410 0.000000 
#    z 0.000000 0.000000 1.693120 
# 
# From -- ./inp_files/40084.got.cif
#   From: 2010.03.12/outbox.cif.g09.slc.cpg/sg74_21_cif.got.tgz:40084.got - 2010.04.16 15:46:19.
