data_PCOD8299596
_publ_section_title
;
Structure prediction by ZEFSAII (Michael W. Deem and Ramdas Pophale) SiO2 
 PCOD8299596
Probable space group: I M M A
;
_chemical_formula_sum "Si O2"
_cell_formula_units_Z 80
_cell_length_a 16.738711
_cell_length_b 13.573333
_cell_length_c 20.832586
_cell_angle_alpha 90.000000
_cell_angle_beta 90.000000
_cell_angle_gamma 90.000000
_cell_volume 4733.165589
_symmetry_space_group_name_H-M "I M M A"
_symmetry_group_IT_number 74
_symmetry_cell_setting 'orthorhombic'
loop_
_space_group_symop_operation_xyz
x,y,z
-x,1/2-y,z
x,-y,-z
-x,1/2+y,-z
-x,-y,-z
x,1/2+y,-z
-x,y,z
x,1/2-y,z
1/2+x,1/2+y,1/2+z
1/2-x,-y,1/2+z
1/2+x,1/2-y,1/2-z
1/2-x,y,1/2-z
1/2-x,1/2-y,1/2-z
1/2+x,y,1/2-z
1/2-x,1/2+y,1/2+z
1/2+x,-y,1/2+z
loop_
_atom_site_type_symbol
_atom_site_label
_atom_site_fract_x
_atom_site_fract_y
_atom_site_fract_z
Si Si1 0.722838 0.941532 0.404197
Si Si2 0.824902 0.009800 0.709926
Si Si3 0.910704 0.637491 0.622651
Si Si4 0.262409 0.638788 0.960561
Si Si5 0.592282 0.864498 0.316394
O O1 0.789585 0.927243 0.349333
O O2 0.754342 0.878229 0.463846
O O3 0.638000 0.901647 0.379920
O O4 0.710496 0.057489 0.422100
O O5 0.750000 0.965932 0.750000
O O6 0.878864 0.080858 0.752586
O O7 0.878838 0.921091 0.684391
O O8 0.911087 0.750000 0.644892
O O9 0.854803 0.622628 0.560113
O O10 0.000000 0.601869 0.604285
O O11 0.233822 0.750000 0.943295
O O12 0.500000 0.887316 0.328543
O O13 0.609078 0.750000 0.305770
#
# Coordination Sequence:
#
# PCOD8299596 Si02
#       5
#    16  16  16  16  16
#     4   9  18  32  50  71  92 123 158 188 231 277
#     4   9  18  31  48  70  95 123 156 191 226 274
#     4   9  17  30  48  70  97 126 154 190 235 276
#     4   9  17  31  50  71  95 122 156 193 229 276
#     4  10  20  33  49  69  94 123 154 192 235 275
#
# _framework density 16.902007000000001
#
# number of rings (size 3 to 8) (size 9 to 14) (size 15 to 20)
#    0.000    2.800    0.000    1.200    0.000    4.800 
#    0.000   14.000    0.000    5.400    0.000    0.000 
#    0.000    0.000    0.000    0.000    0.000    0.000 
#
# Total GULP energy -495873.783653 kJ/mol
# GULP energy per Si atom -12396.844591 kJ/mol
# Density = 1.686354 g / cm^3
# Si number density = 16.902007 Si / 1000 Ang^3
#
#
#
# Elastic Constant Matrix: (Units=GPa)
#
#
# Indices 1 2 3 4 5 6 
#
# 1 119.6686 64.0702 67.3866 0.0000 0.0000 0.0000
# 2 64.0702 99.1818 51.0504 0.0000 0.0000 0.0000
# 3 67.3866 51.0504 118.7983 0.0000 0.0000 0.0000
# 4 0.0000 0.0000 0.0000 22.8723 0.0000 0.0000
# 5 0.0000 0.0000 0.0000 0.0000 20.9163 0.0000
# 6 0.0000 0.0000 0.0000 0.0000 0.0000 26.2980
#
#
#
# Elastic Compliance Matrix: (Units=1/GPa)
#
#
# Indices 1 2 3 4 5 6 
#
# 1 0.015271 -0.006942 -0.005679 0.000000 0.000000 0.000000
# 2 -0.006942 0.016101 -0.002982 0.000000 0.000000 0.000000
# 3 -0.005679 -0.002982 0.012920 0.000000 0.000000 0.000000
# 4 0.000000 0.000000 0.000000 0.043721 0.000000 0.000000
# 5 0.000000 0.000000 0.000000 0.000000 0.047810 0.000000
# 6 0.000000 0.000000 0.000000 0.000000 0.000000 0.038026
#
#
# Mechanical properties :
#
#
# Convention : Reuss Voigt Hill
#
# Bulk Modulus (GPa) = 76.40742 78.07369 77.24055
# Shear Modulus (GPa) = 23.87583 24.36008 24.11795
#
# Velocity S-wave (km/s) = 3.76254 3.80050 3.78157
# Velocity P-wave (km/s) = 8.01123 8.09634 8.05390
#
# Compressibility (1/GPa) = 0.01308773
#
# Stress axis : x y z
#
# Youngs Moduli (GPa) = 65.48348 62.10633 77.39719
#
# Poissons Ratio (x) = 0.43112 0.43956
# Poissons Ratio (y) = 0.45457 0.23077
# Poissons Ratio (z) = 0.37190 0.18518
#
# Static dielectric constant tensor:
#      x y z
#    x 3.193460 0.000000 0.000000 
#    y 0.000000 3.236270 0.000000 
#    z 0.000000 0.000000 3.218870 
# 
# 
# High freq. dielectric constant tensor:
#      x y z
#    x 1.641700 0.000000 0.000000 
#    y 0.000000 1.654460 0.000000 
#    z 0.000000 0.000000 1.652550 
# 
# From -- ./inp_files/51644.got.cif
#   From: 2010.03.12/outbox.cif.g09.slc.cpg/sg74_26_cif.got.tgz:51644.got - 2010.04.16 15:46:19.
