data_PCOD8299559
_publ_section_title
;
Structure prediction by ZEFSAII (Michael W. Deem and Ramdas Pophale) SiO2 
 PCOD8299559
Probable space group: I M M A
;
_chemical_formula_sum "Si O2"
_cell_formula_units_Z 96
_cell_length_a 14.715923
_cell_length_b 28.565542
_cell_length_c 10.223890
_cell_angle_alpha 90.000000
_cell_angle_beta 90.000000
_cell_angle_gamma 90.000000
_cell_volume 4297.799428
_symmetry_space_group_name_H-M "I M M A"
_symmetry_group_IT_number 74
_symmetry_cell_setting 'orthorhombic'
loop_
_space_group_symop_operation_xyz
x,y,z
-x,1/2-y,z
x,-y,-z
-x,1/2+y,-z
-x,-y,-z
x,1/2+y,-z
-x,y,z
x,1/2-y,z
1/2+x,1/2+y,1/2+z
1/2-x,-y,1/2+z
1/2+x,1/2-y,1/2-z
1/2-x,y,1/2-z
1/2-x,1/2-y,1/2-z
1/2+x,y,1/2-z
1/2-x,1/2+y,1/2+z
1/2+x,-y,1/2+z
loop_
_atom_site_type_symbol
_atom_site_label
_atom_site_fract_x
_atom_site_fract_y
_atom_site_fract_z
Si Si1 0.391878 0.196983 0.993786
Si Si2 0.348999 0.014777 0.866373
Si Si3 0.392171 0.301854 0.285384
Si Si4 0.107885 0.618748 0.292235
Si Si5 0.147836 0.973505 0.885281
Si Si6 0.608034 0.123715 0.491931
O O1 0.500000 0.196280 0.989348
O O2 0.358237 0.250000 0.961859
O O3 0.354220 0.160397 0.885521
O O4 0.358953 0.181694 0.140407
O O5 0.350270 0.070282 0.842318
O O6 0.245469 0.998160 0.875424
O O7 0.400767 0.985444 0.752269
O O8 0.399847 0.000000 0.000000
O O9 0.500000 0.302088 0.286118
O O10 0.354453 0.250000 0.312066
O O11 0.356021 0.332754 0.406199
O O12 0.000000 0.615452 0.299317
O O13 0.139700 0.628722 0.142651
O O14 0.155379 0.919302 0.918038
O O15 0.092168 0.000000 0.000000
O O16 0.500000 0.117641 0.483865
#
# Coordination Sequence:
#
# PCOD8299559 Si02
#       6
#    16  16  16  16  16  16
#     4   8  15  29  48  72 107 144 173 209 259 313
#     4  10  22  36  53  74 100 140 183 220 262 314
#     4   8  15  29  48  73 106 141 176 212 256 312
#     4  10  20  33  50  79 112 138 174 221 266 312
#     4  10  20  38  54  71 103 139 181 218 261 318
#     4  10  20  32  52  80 108 140 175 219 267 311
#
# _framework density 22.337012999999999
#
# number of rings (size 3 to 8) (size 9 to 14) (size 15 to 20)
#    0.000    2.667    1.667    1.000    2.333    2.000 
#    0.000    3.333    0.000    0.000    0.000    9.333 
#    0.000    0.000    0.000    0.000    0.000    0.333 
#
# Total GULP energy -594673.644153 kJ/mol
# GULP energy per Si atom -12389.034253 kJ/mol
# Density = 2.228617 g / cm^3
# Si number density = 22.337013 Si / 1000 Ang^3
#
#
#
# Elastic Constant Matrix: (Units=GPa)
#
#
# Indices 1 2 3 4 5 6 
#
# 1 18.3692 13.1040 7.7810 0.0000 0.0004 0.0003
# 2 13.1040 196.1179 137.4225 0.0004 -0.0013 0.0002
# 3 7.7810 137.4225 268.3731 -0.0020 -0.0031 0.0021
# 4 0.0000 0.0004 -0.0020 56.3258 -0.0014 0.0008
# 5 0.0004 -0.0013 -0.0031 -0.0014 -37.0280 -0.0038
# 6 0.0003 0.0002 0.0021 0.0008 -0.0038 57.6076
#
#
#
# Elastic Compliance Matrix: (Units=1/GPa)
#
#
# Indices 1 2 3 4 5 6 
#
# 1 0.057201 -0.004148 0.000466 0.000000 0.000001 0.000000
# 2 -0.004148 0.008253 -0.004106 0.000000 0.000000 0.000000
# 3 0.000466 -0.004106 0.005815 0.000000 0.000000 0.000000
# 4 0.000000 0.000000 0.000000 0.017754 -0.000001 0.000000
# 5 0.000001 0.000000 0.000000 -0.000001 -0.027007 -0.000002
# 6 0.000000 0.000000 0.000000 0.000000 -0.000002 0.017359
#
#
# Mechanical properties :
#
#
# Convention : Reuss Voigt Hill
#
# Bulk Modulus (GPa) = 17.95581 88.83058 53.39319
# Shear Modulus (GPa) = 44.04659 37.01792 40.53226
#
# Velocity S-wave (km/s) = 4.44544 4.07534 4.26441
# Velocity P-wave (km/s) = 5.86560 7.87396 6.94278
#
# Compressibility (1/GPa) = 0.05569228
#
# Stress axis : x y z
#
# Youngs Moduli (GPa) = 17.48224 121.16576 171.96707
#
# Poissons Ratio (x) = 0.50264 -0.08009
# Poissons Ratio (y) = 0.07252 0.70607
# Poissons Ratio (z) = -0.00814 0.49748
#
# Static dielectric constant tensor:
#      x y z
#    x 0.000000 0.000000 0.000000 
#    y 0.000000 0.000000 0.000000 
#    z 0.000000 0.000000 0.000000 
# 
# 
# High freq. dielectric constant tensor:
#      x y z
#    x 1.840220 0.000000 0.000000 
#    y 0.000000 1.876010 0.000000 
#    z 0.000000 0.000000 1.907150 
# 
# From -- ./inp_files/24083.got.cif
#   From: 2010.03.12/outbox.cif.g09.slc.cpg/sg74_13_cif.got.tgz:24083.got - 2010.04.16 15:46:19.
