data_PCOD8299377
_publ_section_title
;
Structure prediction by ZEFSAII (Michael W. Deem and Ramdas Pophale) SiO2 
 PCOD8299377
Probable space group: I M M A
;
_chemical_formula_sum "Si O2"
_cell_formula_units_Z 96
_cell_length_a 25.828135
_cell_length_b 14.105758
_cell_length_c 15.844183
_cell_angle_alpha 90.000000
_cell_angle_beta 90.000000
_cell_angle_gamma 90.000000
_cell_volume 5772.438656
_symmetry_space_group_name_H-M "I M M A"
_symmetry_group_IT_number 74
_symmetry_cell_setting 'orthorhombic'
loop_
_space_group_symop_operation_xyz
x,y,z
-x,1/2-y,z
x,-y,-z
-x,1/2+y,-z
-x,-y,-z
x,1/2+y,-z
-x,y,z
x,1/2-y,z
1/2+x,1/2+y,1/2+z
1/2-x,-y,1/2+z
1/2+x,1/2-y,1/2-z
1/2-x,y,1/2-z
1/2-x,1/2-y,1/2-z
1/2+x,y,1/2-z
1/2-x,1/2+y,1/2+z
1/2+x,-y,1/2+z
loop_
_atom_site_type_symbol
_atom_site_label
_atom_site_fract_x
_atom_site_fract_y
_atom_site_fract_z
Si Si1 0.098849 0.139880 0.511085
Si Si2 0.849886 0.493275 0.737976
Si Si3 0.299989 0.140337 0.888082
Si Si4 0.792420 0.000812 0.908350
Si Si5 0.440840 0.011954 0.131249
Si Si6 0.779815 0.853440 0.664209
O O1 0.083899 0.250000 0.513939
O O2 0.159597 0.123234 0.534398
O O3 0.087208 0.097400 0.419101
O O4 0.062596 0.085110 0.577910
O O5 0.824532 0.398972 0.698754
O O6 0.836876 0.495923 0.837084
O O7 0.911605 0.496263 0.721074
O O8 0.829152 0.583000 0.684981
O O9 0.288905 0.250000 0.873977
O O10 0.245313 0.090827 0.904227
O O11 0.758136 0.905637 0.901227
O O12 0.819961 0.000000 0.000000
O O13 0.500000 0.037786 0.150321
O O14 0.796387 0.750000 0.626731
O O15 0.750000 0.837130 0.750000
#
# Coordination Sequence:
#
# PCOD8299377 Si02
#       6
#    16  16  16  16  16  16
#     4   9  18  31  49  73  99 122 148 188 235 287
#     4   9  19  33  46  64  93 124 158 196 232 274
#     4   9  18  31  48  70  97 126 150 180 229 289
#     4  10  20  30  45  68  94 123 158 195 229 275
#     4  10  20  32  48  68  94 126 161 198 234 276
#     4   8  15  29  47  65  87 118 151 184 228 281
#
# _framework density 16.630754
#
# number of rings (size 3 to 8) (size 9 to 14) (size 15 to 20)
#    0.000    2.833    0.000    2.500    7.000    4.000 
#    0.000    0.000    0.000    0.500    0.000    0.000 
#    0.000    0.000    0.000   12.333    0.000    0.000 
#
# Total GULP energy -594880.545989 kJ/mol
# GULP energy per Si atom -12393.344708 kJ/mol
# Density = 1.659290 g / cm^3
# Si number density = 16.630754 Si / 1000 Ang^3
#
#
#
# Elastic Constant Matrix: (Units=GPa)
#
#
# Indices 1 2 3 4 5 6 
#
# 1 79.1965 23.5767 52.5553 0.0000 0.0000 0.0000
# 2 23.5767 123.5785 26.7828 0.0000 0.0000 0.0000
# 3 52.5553 26.7828 112.1894 0.0000 0.0000 0.0000
# 4 0.0000 0.0000 0.0000 12.5349 0.0000 0.0000
# 5 0.0000 0.0000 0.0000 0.0000 16.7055 0.0000
# 6 0.0000 0.0000 0.0000 0.0000 0.0000 13.0786
#
#
#
# Elastic Compliance Matrix: (Units=1/GPa)
#
#
# Indices 1 2 3 4 5 6 
#
# 1 0.018678 -0.001758 -0.008330 0.000000 0.000000 0.000000
# 2 -0.001758 0.008699 -0.001253 0.000000 0.000000 0.000000
# 3 -0.008330 -0.001253 0.013115 0.000000 0.000000 0.000000
# 4 0.000000 0.000000 0.000000 0.079778 0.000000 0.000000
# 5 0.000000 0.000000 0.000000 0.000000 0.059860 0.000000
# 6 0.000000 0.000000 0.000000 0.000000 0.000000 0.076461
#
#
# Mechanical properties :
#
#
# Convention : Reuss Voigt Hill
#
# Bulk Modulus (GPa) = 56.15009 57.86600 57.00805
# Shear Modulus (GPa) = 17.53094 22.60043 20.06569
#
# Velocity S-wave (km/s) = 3.25026 3.69040 3.47730
# Velocity P-wave (km/s) = 6.92255 7.28209 7.10459
#
# Compressibility (1/GPa) = 0.01780941
#
# Stress axis : x y z
#
# Youngs Moduli (GPa) = 53.53869 114.95545 76.24921
#
# Poissons Ratio (x) = 0.20210 0.63516
# Poissons Ratio (y) = 0.09413 0.09555
# Poissons Ratio (z) = 0.44598 0.14405
#
# Static dielectric constant tensor:
#      x y z
#    x 1.731670 0.000000 0.000000 
#    y 0.000000 3.506850 0.000000 
#    z 0.000000 0.000000 2.983470 
# 
# 
# High freq. dielectric constant tensor:
#      x y z
#    x 1.605960 0.000000 0.000000 
#    y 0.000000 1.651210 0.000000 
#    z 0.000000 0.000000 1.619860 
# 
# From -- ./inp_files/37876.got.cif
#   From: 2010.03.12/outbox.cif.g09.slc.cpg/sg74_19_cif.got.tgz:37876.got - 2010.04.16 15:46:19.
