data_PCOD8299615
_publ_section_title
;
Structure prediction by ZEFSAII (Michael W. Deem and Ramdas Pophale) SiO2 
 PCOD8299615
Probable space group: I M M A
;
_chemical_formula_sum "Si O2"
_cell_formula_units_Z 80
_cell_length_a 15.684846
_cell_length_b 8.880385
_cell_length_c 30.059179
_cell_angle_alpha 90.000000
_cell_angle_beta 90.000000
_cell_angle_gamma 90.000000
_cell_volume 4186.867028
_symmetry_space_group_name_H-M "I M M A"
_symmetry_group_IT_number 74
_symmetry_cell_setting 'orthorhombic'
loop_
_space_group_symop_operation_xyz
x,y,z
-x,1/2-y,z
x,-y,-z
-x,1/2+y,-z
-x,-y,-z
x,1/2+y,-z
-x,y,z
x,1/2-y,z
1/2+x,1/2+y,1/2+z
1/2-x,-y,1/2+z
1/2+x,1/2-y,1/2-z
1/2-x,y,1/2-z
1/2-x,1/2-y,1/2-z
1/2+x,y,1/2-z
1/2-x,1/2+y,1/2+z
1/2+x,-y,1/2+z
loop_
_atom_site_type_symbol
_atom_site_label
_atom_site_fract_x
_atom_site_fract_y
_atom_site_fract_z
Si Si1 0.097502 0.072198 0.365597
Si Si2 0.261973 0.571601 0.383548
Si Si3 0.903368 0.414551 0.723828
Si Si4 0.312547 0.424751 0.291647
Si Si5 0.596364 0.927424 0.453307
O O1 0.106228 0.250000 0.368817
O O2 0.000000 0.022450 0.377485
O O3 0.168486 0.995203 0.397796
O O4 0.127915 0.023131 0.316192
O O5 0.255301 0.750000 0.383262
O O6 0.286983 0.512545 0.335325
O O7 0.335066 0.514676 0.417318
O O8 0.856309 0.250000 0.723050
O O9 0.897603 0.499017 0.771564
O O10 0.000000 0.381355 0.713969
O O11 0.324536 0.250000 0.302671
O O12 0.250000 0.456458 0.250000
O O13 0.500000 0.975147 0.438870
O O14 0.602215 0.750000 0.458870
O O15 0.621356 0.000000 0.500000
#
# Coordination Sequence:
#
# PCOD8299615 Si02
#       5
#    16  16  16  16  16
#     4  10  20  34  52  76 108 146 188 231 274 327
#     4  11  22  35  57  85 113 147 189 236 285 341
#     4  10  20  33  50  71  98 138 186 233 280 330
#     4  11  22  34  49  73 108 148 189 233 279 330
#     4   9  20  40  64  90 118 147 182 229 287 349
#
# _framework density 19.107365999999999
#
# number of rings (size 3 to 8) (size 9 to 14) (size 15 to 20)
#    0.000    1.800    2.000    2.400    0.000    5.600 
#    0.000    2.000    0.000    0.600    0.000    0.000 
#    0.000    0.000    0.000    0.000    0.000    0.000 
#
# Total GULP energy -495630.283120 kJ/mol
# GULP energy per Si atom -12390.757078 kJ/mol
# Density = 1.906388 g / cm^3
# Si number density = 19.107366 Si / 1000 Ang^3
#
#
#
# Elastic Constant Matrix: (Units=GPa)
#
#
# Indices 1 2 3 4 5 6 
#
# 1 132.6525 47.4581 76.9029 0.0000 0.0000 0.0000
# 2 47.4581 81.1317 33.7331 0.0000 0.0000 0.0000
# 3 76.9029 33.7331 81.2405 0.0000 0.0000 0.0000
# 4 0.0000 0.0000 0.0000 28.1409 0.0000 0.0000
# 5 0.0000 0.0000 0.0000 0.0000 27.2322 0.0000
# 6 0.0000 0.0000 0.0000 0.0000 0.0000 29.5163
#
#
#
# Elastic Compliance Matrix: (Units=1/GPa)
#
#
# Indices 1 2 3 4 5 6 
#
# 1 0.017773 -0.004111 -0.015117 0.000000 0.000000 0.000000
# 2 -0.004111 0.015848 -0.002689 0.000000 0.000000 0.000000
# 3 -0.015117 -0.002689 0.027736 0.000000 0.000000 0.000000
# 4 0.000000 0.000000 0.000000 0.035536 0.000000 0.000000
# 5 0.000000 0.000000 0.000000 0.000000 0.036721 0.000000
# 6 0.000000 0.000000 0.000000 0.000000 0.000000 0.033880
#
#
# Mechanical properties :
#
#
# Convention : Reuss Voigt Hill
#
# Bulk Modulus (GPa) = 57.06894 67.91253 62.49073
# Shear Modulus (GPa) = 23.02347 26.10658 24.56502
#
# Velocity S-wave (km/s) = 3.47501 3.70037 3.58946
# Velocity P-wave (km/s) = 6.78478 7.34008 7.06789
#
# Compressibility (1/GPa) = 0.01752267
#
# Stress axis : x y z
#
# Youngs Moduli (GPa) = 56.26440 63.09752 36.05439
#
# Poissons Ratio (x) = 0.25939 0.54504
# Poissons Ratio (y) = 0.23130 0.09696
# Poissons Ratio (z) = 0.85056 0.16968
#
# Static dielectric constant tensor:
#      x y z
#    x 3.984510 0.000000 0.000000 
#    y 0.000000 3.663560 0.000000 
#    z 0.000000 0.000000 3.324990 
# 
# 
# High freq. dielectric constant tensor:
#      x y z
#    x 1.757080 0.000000 0.000000 
#    y 0.000000 1.755770 0.000000 
#    z 0.000000 0.000000 1.699500 
# 
# From -- ./inp_files/63902.got.cif
#   From: 2010.03.12/outbox.cif.g09.slc.cpg/sg74_32_cif.got.tgz:63902.got - 2010.04.16 15:46:19.
