data_PCOD8299161
_publ_section_title
;
Structure prediction by ZEFSAII (Michael W. Deem and Ramdas Pophale) SiO2 
 PCOD8299161
Probable space group: I M M A
;
_chemical_formula_sum "Si O2"
_cell_formula_units_Z 96
_cell_length_a 18.250443
_cell_length_b 15.605454
_cell_length_c 15.971561
_cell_angle_alpha 90.000000
_cell_angle_beta 90.000000
_cell_angle_gamma 90.000000
_cell_volume 4548.803569
_symmetry_space_group_name_H-M "I M M A"
_symmetry_group_IT_number 74
_symmetry_cell_setting 'orthorhombic'
loop_
_space_group_symop_operation_xyz
x,y,z
-x,1/2-y,z
x,-y,-z
-x,1/2+y,-z
-x,-y,-z
x,1/2+y,-z
-x,y,z
x,1/2-y,z
1/2+x,1/2+y,1/2+z
1/2-x,-y,1/2+z
1/2+x,1/2-y,1/2-z
1/2-x,y,1/2-z
1/2-x,1/2-y,1/2-z
1/2+x,y,1/2-z
1/2-x,1/2+y,1/2+z
1/2+x,-y,1/2+z
loop_
_atom_site_type_symbol
_atom_site_label
_atom_site_fract_x
_atom_site_fract_y
_atom_site_fract_z
Si Si1 0.189402 0.018012 0.904490
Si Si2 0.317393 0.154609 0.869065
Si Si3 0.416680 0.424781 0.734796
Si Si4 0.919396 0.890894 0.697771
Si Si5 0.805619 0.658895 0.824029
Si Si6 0.586985 0.597675 0.985611
O O1 0.254263 0.084744 0.885881
O O2 0.117069 0.050574 0.855866
O O3 0.215261 0.923344 0.877638
O O4 0.168532 0.000000 0.000000
O O5 0.282594 0.250000 0.863078
O O6 0.361580 0.139747 0.782158
O O7 0.374417 0.155825 0.945401
O O8 0.500000 0.388222 0.722321
O O9 0.420237 0.506596 0.794670
O O10 0.883332 0.848332 0.778182
O O11 0.884429 0.871516 0.606260
O O12 0.000000 0.852347 0.697605
O O13 0.804773 0.750000 0.875227
O O14 0.750000 0.664016 0.750000
O O15 0.500000 0.608273 0.993866
O O16 0.611188 0.500000 0.000000
#
# Coordination Sequence:
#
# PCOD8299161 Si02
#       6
#    16  16  16  16  16  16
#     4  11  25  43  65  91 127 169 213 271 327 383
#     4  12  25  39  61  94 133 174 218 263 317 380
#     4  10  21  41  66  90 121 167 219 267 317 377
#     4   9  18  35  61  90 123 162 199 242 308 380
#     4  10  22  39  61  88 120 158 205 254 312 378
#     4  10  19  34  59  92 131 171 206 246 304 377
#
# _framework density 21.10445
#
# number of rings (size 3 to 8) (size 9 to 14) (size 15 to 20)
#    0.000    1.667    1.667    3.500    2.333    4.667 
#    0.000    1.667    0.000    0.000    0.000    2.333 
#    0.000    0.000    0.000    0.000    0.000    0.000 
#
# Total GULP energy -594793.139231 kJ/mol
# GULP energy per Si atom -12391.523734 kJ/mol
# Density = 2.105642 g / cm^3
# Si number density = 21.104450 Si / 1000 Ang^3
#
#
#
# Elastic Constant Matrix: (Units=GPa)
#
#
# Indices 1 2 3 4 5 6 
#
# 1 77.7930 27.1219 42.1356 0.0000 0.0000 0.0000
# 2 27.1219 135.6872 46.0106 0.0000 0.0000 0.0000
# 3 42.1356 46.0106 114.4333 0.0000 0.0000 0.0000
# 4 0.0000 0.0000 0.0000 16.5400 0.0000 0.0000
# 5 0.0000 0.0000 0.0000 0.0000 23.7961 0.0000
# 6 0.0000 0.0000 0.0000 0.0000 0.0000 13.9156
#
#
#
# Elastic Compliance Matrix: (Units=1/GPa)
#
#
# Indices 1 2 3 4 5 6 
#
# 1 0.016288 -0.001415 -0.005429 0.000000 0.000000 0.000000
# 2 -0.001415 0.008656 -0.002959 0.000000 0.000000 0.000000
# 3 -0.005429 -0.002959 0.011927 0.000000 0.000000 0.000000
# 4 0.000000 0.000000 0.000000 0.060460 0.000000 0.000000
# 5 0.000000 0.000000 0.000000 0.000000 0.042024 0.000000
# 6 0.000000 0.000000 0.000000 0.000000 0.000000 0.071862
#
#
# Mechanical properties :
#
#
# Convention : Reuss Voigt Hill
#
# Bulk Modulus (GPa) = 57.91734 62.04996 59.98365
# Shear Modulus (GPa) = 21.13465 25.02670 23.08068
#
# Velocity S-wave (km/s) = 3.16797 3.44735 3.31061
# Velocity P-wave (km/s) = 6.39407 6.73133 6.56487
#
# Compressibility (1/GPa) = 0.01726599
#
# Stress axis : x y z
#
# Youngs Moduli (GPa) = 61.39384 115.52344 83.83996
#
# Poissons Ratio (x) = 0.16346 0.45513
# Poissons Ratio (y) = 0.08687 0.24812
# Poissons Ratio (z) = 0.33328 0.34188
#
# Static dielectric constant tensor:
#      x y z
#    x 3.622680 0.000000 0.000000 
#    y 0.000000 3.178070 0.000000 
#    z 0.000000 0.000000 3.704860 
# 
# 
# High freq. dielectric constant tensor:
#      x y z
#    x 1.824330 0.000000 0.000000 
#    y 0.000000 1.821110 0.000000 
#    z 0.000000 0.000000 1.817400 
# 
# From -- ./inp_files/35289.got.cif
#   From: 2010.03.12/outbox.cif.g09.slc.cpg/sg74_18_cif.got.tgz:35289.got - 2010.04.16 15:46:19.
