data_PCOD8299481
_publ_section_title
;
Structure prediction by ZEFSAII (Michael W. Deem and Ramdas Pophale) SiO2 
 PCOD8299481
Probable space group: I M M A
;
_chemical_formula_sum "Si O2"
_cell_formula_units_Z 96
_cell_length_a 8.997871
_cell_length_b 22.551753
_cell_length_c 27.617111
_cell_angle_alpha 90.000000
_cell_angle_beta 90.000000
_cell_angle_gamma 90.000000
_cell_volume 5604.002421
_symmetry_space_group_name_H-M "I M M A"
_symmetry_group_IT_number 74
_symmetry_cell_setting 'orthorhombic'
loop_
_space_group_symop_operation_xyz
x,y,z
-x,1/2-y,z
x,-y,-z
-x,1/2+y,-z
-x,-y,-z
x,1/2+y,-z
-x,y,z
x,1/2-y,z
1/2+x,1/2+y,1/2+z
1/2-x,-y,1/2+z
1/2+x,1/2-y,1/2-z
1/2-x,y,1/2-z
1/2-x,1/2-y,1/2-z
1/2+x,y,1/2-z
1/2-x,1/2+y,1/2+z
1/2+x,-y,1/2+z
loop_
_atom_site_type_symbol
_atom_site_label
_atom_site_fract_x
_atom_site_fract_y
_atom_site_fract_z
Si Si1 0.324957 0.984106 0.199248
Si Si2 0.826341 0.367305 0.643563
Si Si3 0.826270 0.630619 0.965593
Si Si4 0.822360 0.250000 0.987495
Si Si5 0.175619 0.750000 0.124568
Si Si6 0.832335 0.070382 0.938758
Si Si7 0.670331 0.048939 0.384672
O O1 0.500000 0.989946 0.204286
O O2 0.250000 0.997847 0.250000
O O3 0.278196 0.918173 0.181916
O O4 0.270532 0.034143 0.161553
O O5 0.737934 0.306822 0.653656
O O6 0.784206 0.390023 0.590486
O O7 0.000000 0.354250 0.646356
O O8 0.767618 0.607545 0.913007
O O9 0.000000 0.640048 0.959217
O O10 0.756855 0.692891 0.983825
O O11 0.793707 0.579393 0.005016
O O12 0.768581 0.250000 0.931480
O O13 0.000000 0.250000 0.987206
O O14 0.000000 0.750000 0.128258
O O15 0.000000 0.094190 0.927815
O O16 0.818917 0.002118 0.925055
O O17 0.500000 0.056767 0.367306
#
# Coordination Sequence:
#
# PCOD8299481 Si02
#       7
#    16  16  16   8   8  16  16
#     4  10  21  37  55  73  95 121 155 202 255 304
#     4  10  20  32  47  70  98 127 160 203 249 288
#     4   9  15  25  42  69 101 131 166 202 232 271
#     4   9  16  25  43  70  99 132 171 206 227 258
#     4  11  19  31  50  70  95 134 177 206 230 274
#     4   9  15  26  44  67  95 129 167 199 231 278
#     4   9  17  28  47  72  97 126 160 199 244 290
#
# _framework density 17.130611999999999
#
# number of rings (size 3 to 8) (size 9 to 14) (size 15 to 20)
#    0.000    2.500    1.667    1.750    0.000    4.000 
#    0.000    1.250    0.000    4.000    0.000    0.583 
#    0.000    0.000    0.000    0.000    0.000    0.000 
#
# Total GULP energy -594883.243292 kJ/mol
# GULP energy per Si atom -12393.400902 kJ/mol
# Density = 1.709162 g / cm^3
# Si number density = 17.130612 Si / 1000 Ang^3
#
#
#
# Elastic Constant Matrix: (Units=GPa)
#
#
# Indices 1 2 3 4 5 6 
#
# 1 43.4155 15.5302 28.9980 0.0000 0.0000 0.0000
# 2 15.5302 51.4504 39.9267 0.0000 0.0000 0.0000
# 3 28.9980 39.9267 105.2960 0.0000 0.0000 0.0000
# 4 0.0000 0.0000 0.0000 16.5248 0.0000 0.0000
# 5 0.0000 0.0000 0.0000 0.0000 20.5790 0.0000
# 6 0.0000 0.0000 0.0000 0.0000 0.0000 16.9586
#
#
#
# Elastic Compliance Matrix: (Units=1/GPa)
#
#
# Indices 1 2 3 4 5 6 
#
# 1 0.028683 -0.003582 -0.006541 0.000000 0.000000 0.000000
# 2 -0.003582 0.027987 -0.009626 0.000000 0.000000 0.000000
# 3 -0.006541 -0.009626 0.014948 0.000000 0.000000 0.000000
# 4 0.000000 0.000000 0.000000 0.060515 0.000000 0.000000
# 5 0.000000 0.000000 0.000000 0.000000 0.048593 0.000000
# 6 0.000000 0.000000 0.000000 0.000000 0.000000 0.058967
#
#
# Mechanical properties :
#
#
# Convention : Reuss Voigt Hill
#
# Bulk Modulus (GPa) = 31.13204 41.00795 36.07000
# Shear Modulus (GPa) = 17.24735 18.52629 17.88682
#
# Velocity S-wave (km/s) = 3.17648 3.29214 3.23483
# Velocity P-wave (km/s) = 5.62727 6.20011 5.92062
#
# Compressibility (1/GPa) = 0.03212125
#
# Stress axis : x y z
#
# Youngs Moduli (GPa) = 34.86331 35.73048 66.89676
#
# Poissons Ratio (x) = 0.12799 0.43757
# Poissons Ratio (y) = 0.12488 0.64394
# Poissons Ratio (z) = 0.22804 0.34394
#
# Static dielectric constant tensor:
#      x y z
#    x 2.983300 0.000000 0.000000 
#    y 0.000000 3.404570 0.000000 
#    z 0.000000 0.000000 3.059590 
# 
# 
# High freq. dielectric constant tensor:
#      x y z
#    x 1.636390 0.000000 0.000000 
#    y 0.000000 1.649790 0.000000 
#    z 0.000000 0.000000 1.639800 
# 
# From -- ./inp_files/64734.got.cif
#   From: 2010.03.12/outbox.cif.g09.slc.cpg/sg74_33_cif.got.tgz:64734.got - 2010.04.16 15:46:19.
