data_PCOD8299917
_publ_section_title
;
Structure prediction by ZEFSAII (Michael W. Deem and Ramdas Pophale) SiO2 
 PCOD8299917
Probable space group: I M M A
;
_chemical_formula_sum "Si O2"
_cell_formula_units_Z 80
_cell_length_a 26.028767
_cell_length_b 8.728364
_cell_length_c 17.901209
_cell_angle_alpha 90.000000
_cell_angle_beta 90.000000
_cell_angle_gamma 90.000000
_cell_volume 4066.949767
_symmetry_space_group_name_H-M "I M M A"
_symmetry_group_IT_number 74
_symmetry_cell_setting 'orthorhombic'
loop_
_space_group_symop_operation_xyz
x,y,z
-x,1/2-y,z
x,-y,-z
-x,1/2+y,-z
-x,-y,-z
x,1/2+y,-z
-x,y,z
x,1/2-y,z
1/2+x,1/2+y,1/2+z
1/2-x,-y,1/2+z
1/2+x,1/2-y,1/2-z
1/2-x,y,1/2-z
1/2-x,1/2-y,1/2-z
1/2+x,y,1/2-z
1/2-x,1/2+y,1/2+z
1/2+x,-y,1/2+z
loop_
_atom_site_type_symbol
_atom_site_label
_atom_site_fract_x
_atom_site_fract_y
_atom_site_fract_z
Si Si1 0.341648 0.069446 0.692193
Si Si2 0.655241 0.071024 0.144124
Si Si3 0.944132 0.070642 0.191496
Si Si4 0.736408 0.571159 0.578348
Si Si5 0.944517 0.071938 0.646882
O O1 0.338154 0.250000 0.694877
O O2 0.335970 0.004117 0.775256
O O3 0.396237 0.019115 0.654328
O O4 0.295083 0.006048 0.644232
O O5 0.646433 0.250000 0.155582
O O6 0.703610 0.036702 0.091712
O O7 0.604875 0.996154 0.102904
O O8 0.933156 0.250000 0.184848
O O9 0.000000 0.029997 0.154624
O O10 0.946348 0.023643 0.277438
O O11 0.719389 0.500000 0.500000
O O12 0.724276 0.750000 0.577896
O O13 0.935246 0.250000 0.664999
O O14 0.000000 0.049884 0.605115
#
# Coordination Sequence:
#
# PCOD8299917 Si02
#       5
#    16  16  16  16  16
#     4  11  21  33  54  81 108 139 174 213 256 305
#     4  10  20  34  54  79 106 137 173 215 259 305
#     4   9  16  27  46  73 105 138 170 208 254 301
#     4  11  24  40  56  75 102 136 175 218 264 313
#     4   9  16  26  44  73 106 136 167 207 254 303
#
# _framework density 19.670763000000001
#
# number of rings (size 3 to 8) (size 9 to 14) (size 15 to 20)
#    0.000    2.000    0.000    7.200    0.000    8.000 
#    0.000    0.000    0.000    1.200    0.000    0.000 
#    0.000    0.000    0.000    0.000    0.000    0.000 
#
# Total GULP energy -495679.437401 kJ/mol
# GULP energy per Si atom -12391.985935 kJ/mol
# Density = 1.962599 g / cm^3
# Si number density = 19.670763 Si / 1000 Ang^3
#
#
#
# Elastic Constant Matrix: (Units=GPa)
#
#
# Indices 1 2 3 4 5 6 
#
# 1 87.8562 36.8608 -1.0732 0.0000 0.0000 0.0000
# 2 36.8608 91.6769 18.1576 0.0000 0.0000 0.0000
# 3 -1.0732 18.1576 25.6881 0.0000 0.0000 0.0000
# 4 0.0000 0.0000 0.0000 19.2786 0.0000 0.0000
# 5 0.0000 0.0000 0.0000 0.0000 3.3677 0.0000
# 6 0.0000 0.0000 0.0000 0.0000 0.0000 36.2004
#
#
#
# Elastic Compliance Matrix: (Units=1/GPa)
#
#
# Indices 1 2 3 4 5 6 
#
# 1 0.014314 -0.006830 0.005426 0.000000 0.000000 0.000000
# 2 -0.006830 0.015942 -0.011554 0.000000 0.000000 0.000000
# 3 0.005426 -0.011554 0.047322 0.000000 0.000000 0.000000
# 4 0.000000 0.000000 0.000000 0.051871 0.000000 0.000000
# 5 0.000000 0.000000 0.000000 0.000000 0.296936 0.000000
# 6 0.000000 0.000000 0.000000 0.000000 0.000000 0.027624
#
#
# Mechanical properties :
#
#
# Convention : Reuss Voigt Hill
#
# Bulk Modulus (GPa) = 19.35663 34.79020 27.07341
# Shear Modulus (GPa) = 10.05738 21.85440 15.95589
#
# Velocity S-wave (km/s) = 2.26362 3.33680 2.85116
# Velocity P-wave (km/s) = 4.08578 5.70704 4.96306
#
# Compressibility (1/GPa) = 0.05166189
#
# Stress axis : x y z
#
# Youngs Moduli (GPa) = 69.86134 62.72559 21.13171
#
# Poissons Ratio (x) = 0.42841 -0.11465
# Poissons Ratio (y) = 0.47715 0.24416
# Poissons Ratio (z) = -0.37905 0.72475
#
# Static dielectric constant tensor:
#      x y z
#    x 4.671930 0.000000 0.000000 
#    y 0.000000 3.710650 0.000000 
#    z 0.000000 0.000000 2.932480 
# 
# 
# High freq. dielectric constant tensor:
#      x y z
#    x 1.800780 0.000000 0.000000 
#    y 0.000000 1.785420 0.000000 
#    z 0.000000 0.000000 1.695330 
# 
# From -- ./inp_files/46478.got.cif
#   From: 2010.03.12/outbox.cif.g09.slc.cpg/sg74_24_cif.got.tgz:46478.got - 2010.04.16 15:46:19.
