data_PCOD8299020
_publ_section_title
;
Structure prediction by ZEFSAII (Michael W. Deem and Ramdas Pophale) SiO2 
 PCOD8299020
Probable space group: I M M A
;
_chemical_formula_sum "Si O2"
_cell_formula_units_Z 72
_cell_length_a 18.239104
_cell_length_b 14.136317
_cell_length_c 13.580745
_cell_angle_alpha 90.000000
_cell_angle_beta 90.000000
_cell_angle_gamma 90.000000
_cell_volume 3501.574492
_symmetry_space_group_name_H-M "I M M A"
_symmetry_group_IT_number 74
_symmetry_cell_setting 'orthorhombic'
loop_
_space_group_symop_operation_xyz
x,y,z
-x,1/2-y,z
x,-y,-z
-x,1/2+y,-z
-x,-y,-z
x,1/2+y,-z
-x,y,z
x,1/2-y,z
1/2+x,1/2+y,1/2+z
1/2-x,-y,1/2+z
1/2+x,1/2-y,1/2-z
1/2-x,y,1/2-z
1/2-x,1/2-y,1/2-z
1/2+x,y,1/2-z
1/2-x,1/2+y,1/2+z
1/2+x,-y,1/2+z
loop_
_atom_site_type_symbol
_atom_site_label
_atom_site_fract_x
_atom_site_fract_y
_atom_site_fract_z
Si Si1 0.283428 0.553103 0.648790
Si Si2 0.652154 0.147850 0.659719
Si Si3 0.419628 0.605560 0.535346
Si Si4 0.415180 0.143420 0.866342
Si Si5 0.826417 0.000000 0.500000
O O1 0.250000 0.592819 0.750000
O O2 0.290837 0.438287 0.651742
O O3 0.359447 0.608189 0.623959
O O4 0.224376 0.571501 0.563364
O O5 0.692238 0.250000 0.677081
O O6 0.605832 0.163400 0.559746
O O7 0.598561 0.124885 0.750696
O O8 0.426973 0.500000 0.500000
O O9 0.500000 0.642167 0.572466
O O10 0.500000 0.128978 0.887531
O O11 0.390726 0.250000 0.895749
O O12 0.374284 0.065364 0.929987
#
# Coordination Sequence:
#
# PCOD8299020 Si02
#       5
#    16  16  16  16   8
#     4  11  21  37  53  84 117 151 195 236 280 351
#     4  10  19  33  59  89 118 143 179 245 306 344
#     4   9  18  34  54  78 109 149 187 230 285 342
#     4  10  22  38  59  91 122 150 194 244 291 352
#     4  12  21  38  59  84 120 164 192 234 299 350
#
# _framework density 20.562179
#
# number of rings (size 3 to 8) (size 9 to 14) (size 15 to 20)
#    0.000    1.778    5.556    1.000    0.000    3.556 
#    0.000    0.000    0.000    2.667    0.000    0.000 
#    0.000    0.000    0.000    0.000    0.000    0.000 
#
# Total GULP energy -446095.342004 kJ/mol
# GULP energy per Si atom -12391.537278 kJ/mol
# Density = 2.051538 g / cm^3
# Si number density = 20.562179 Si / 1000 Ang^3
#
#
#
# Elastic Constant Matrix: (Units=GPa)
#
#
# Indices 1 2 3 4 5 6 
#
# 1 123.3393 20.5518 73.4246 0.0000 0.0000 0.0000
# 2 20.5518 60.3827 20.1952 0.0000 0.0000 0.0000
# 3 73.4246 20.1952 144.6227 0.0000 0.0000 0.0000
# 4 0.0000 0.0000 0.0000 11.9743 0.0000 0.0000
# 5 0.0000 0.0000 0.0000 0.0000 38.3308 0.0000
# 6 0.0000 0.0000 0.0000 0.0000 0.0000 27.2219
#
#
#
# Elastic Compliance Matrix: (Units=1/GPa)
#
#
# Indices 1 2 3 4 5 6 
#
# 1 0.011874 -0.002124 -0.005732 0.000000 0.000000 0.000000
# 2 -0.002124 0.017752 -0.001400 0.000000 0.000000 0.000000
# 3 -0.005732 -0.001400 0.010020 0.000000 0.000000 0.000000
# 4 0.000000 0.000000 0.000000 0.083512 0.000000 0.000000
# 5 0.000000 0.000000 0.000000 0.000000 0.026089 0.000000
# 6 0.000000 0.000000 0.000000 0.000000 0.000000 0.036735
#
#
# Mechanical properties :
#
#
# Convention : Reuss Voigt Hill
#
# Bulk Modulus (GPa) = 47.31849 61.85422 54.58635
# Shear Modulus (GPa) = 23.63623 29.78361 26.70992
#
# Velocity S-wave (km/s) = 3.39411 3.81000 3.60805
# Velocity P-wave (km/s) = 6.19857 7.03574 6.63038
#
# Compressibility (1/GPa) = 0.02113339
#
# Stress axis : x y z
#
# Youngs Moduli (GPa) = 84.21921 56.33024 99.80004
#
# Poissons Ratio (x) = 0.11967 0.57202
# Poissons Ratio (y) = 0.17891 0.13976
# Poissons Ratio (z) = 0.48271 0.07889
#
# Static dielectric constant tensor:
#      x y z
#    x 4.106750 0.000000 0.000000 
#    y 0.000000 1.634510 0.000000 
#    z 0.000000 0.000000 3.820340 
# 
# 
# High freq. dielectric constant tensor:
#      x y z
#    x 1.807140 0.000000 0.000000 
#    y 0.000000 1.780590 0.000000 
#    z 0.000000 0.000000 1.799350 
# 
# From -- ./inp_files/33834.got.cif
#   From: 2010.03.12/outbox.cif.g09.slc.cpg/sg74_17_cif.got.tgz:33834.got - 2010.04.16 15:46:19.
