data_PCOD8299998
_publ_section_title
;
Structure prediction by ZEFSAII (Michael W. Deem and Ramdas Pophale) SiO2 
 PCOD8299998
Probable space group: I M M A
;
_chemical_formula_sum "Si O2"
_cell_formula_units_Z 80
_cell_length_a 14.399422
_cell_length_b 9.088002
_cell_length_c 30.820905
_cell_angle_alpha 90.000000
_cell_angle_beta 90.000000
_cell_angle_gamma 90.000000
_cell_volume 4033.284528
_symmetry_space_group_name_H-M "I M M A"
_symmetry_group_IT_number 74
_symmetry_cell_setting 'orthorhombic'
loop_
_space_group_symop_operation_xyz
x,y,z
-x,1/2-y,z
x,-y,-z
-x,1/2+y,-z
-x,-y,-z
x,1/2+y,-z
-x,y,z
x,1/2-y,z
1/2+x,1/2+y,1/2+z
1/2-x,-y,1/2+z
1/2+x,1/2-y,1/2-z
1/2-x,y,1/2-z
1/2-x,1/2-y,1/2-z
1/2+x,y,1/2-z
1/2-x,1/2+y,1/2+z
1/2+x,-y,1/2+z
loop_
_atom_site_type_symbol
_atom_site_label
_atom_site_fract_x
_atom_site_fract_y
_atom_site_fract_z
Si Si1 0.259898 0.422419 0.797958
Si Si2 0.396939 0.084743 0.441527
Si Si3 0.602790 0.911556 0.660707
Si Si4 0.394631 0.925332 0.128247
Si Si5 0.787298 0.576184 0.457742
O O1 0.273428 0.250000 0.793389
O O2 0.250000 0.494441 0.750000
O O3 0.164512 0.456213 0.821978
O O4 0.344583 0.485053 0.827709
O O5 0.500000 0.042882 0.459211
O O6 0.369444 0.250000 0.456837
O O7 0.400010 0.078744 0.390326
O O8 0.321399 0.968088 0.458001
O O9 0.500000 0.934174 0.679957
O O10 0.640919 0.750000 0.674849
O O11 0.500000 0.985962 0.127349
O O12 0.393676 0.750000 0.128170
O O13 0.339319 0.982128 0.085632
O O14 0.834388 0.500000 0.500000
O O15 0.796890 0.750000 0.461882
#
# Coordination Sequence:
#
# PCOD8299998 Si02
#       5
#    16  16  16  16  16
#     4  10  20  34  56  86 114 144 185 228 272 328
#     4   9  18  34  56  81 110 145 182 222 273 330
#     4   9  18  33  54  79 110 146 179 218 271 327
#     4   9  19  37  57  78 110 149 186 229 282 331
#     4  11  22  36  57  82 109 146 189 235 284 333
#
# _framework density 19.834952000000001
#
# number of rings (size 3 to 8) (size 9 to 14) (size 15 to 20)
#    0.000    2.400    2.000    1.800    0.000    2.800 
#    0.000    4.000    0.000    4.800    0.000    0.000 
#    0.000    0.000    0.000    0.000    0.000    0.000 
#
# Total GULP energy -495701.543189 kJ/mol
# GULP energy per Si atom -12392.538580 kJ/mol
# Density = 1.978981 g / cm^3
# Si number density = 19.834952 Si / 1000 Ang^3
#
#
#
# Elastic Constant Matrix: (Units=GPa)
#
#
# Indices 1 2 3 4 5 6 
#
# 1 117.5105 22.2552 63.7566 0.0000 0.0000 0.0000
# 2 22.2552 32.9263 29.5673 0.0000 0.0000 0.0000
# 3 63.7566 29.5673 132.9205 0.0000 0.0000 0.0000
# 4 0.0000 0.0000 0.0000 24.1382 0.0000 0.0000
# 5 0.0000 0.0000 0.0000 0.0000 6.4441 0.0000
# 6 0.0000 0.0000 0.0000 0.0000 0.0000 22.1305
#
#
#
# Elastic Compliance Matrix: (Units=1/GPa)
#
#
# Indices 1 2 3 4 5 6 
#
# 1 0.011841 -0.003628 -0.004872 0.000000 0.000000 0.000000
# 2 -0.003628 0.039063 -0.006949 0.000000 0.000000 0.000000
# 3 -0.004872 -0.006949 0.011406 0.000000 0.000000 0.000000
# 4 0.000000 0.000000 0.000000 0.041428 0.000000 0.000000
# 5 0.000000 0.000000 0.000000 0.000000 0.155181 0.000000
# 6 0.000000 0.000000 0.000000 0.000000 0.000000 0.045187
#
#
# Mechanical properties :
#
#
# Convention : Reuss Voigt Hill
#
# Bulk Modulus (GPa) = 31.83597 57.16840 44.50218
# Shear Modulus (GPa) = 14.47285 21.72777 18.10031
#
# Velocity S-wave (km/s) = 2.70416 3.31332 3.02411
# Velocity P-wave (km/s) = 5.08284 6.59712 5.88886
#
# Compressibility (1/GPa) = 0.03141101
#
# Stress axis : x y z
#
# Youngs Moduli (GPa) = 84.45559 25.59955 87.67126
#
# Poissons Ratio (x) = 0.09287 0.42718
# Poissons Ratio (y) = 0.30638 0.60925
# Poissons Ratio (z) = 0.41151 0.17790
#
# Static dielectric constant tensor:
#      x y z
#    x 3.956480 0.000000 0.000000 
#    y 0.000000 3.341880 0.000000 
#    z 0.000000 0.000000 3.911490 
# 
# 
# High freq. dielectric constant tensor:
#      x y z
#    x 1.767510 0.000000 0.000000 
#    y 0.000000 1.741290 0.000000 
#    z 0.000000 0.000000 1.782960 
# 
# From -- ./inp_files/71511.got.cif
#   From: 2010.03.12/outbox.cif.g09.slc.cpg/sg74_36_cif.got.tgz:71511.got - 2010.04.16 15:46:19.
