data_PCOD8299191
_publ_section_title
;
Structure prediction by ZEFSAII (Michael W. Deem and Ramdas Pophale) SiO2 
 PCOD8299191
Probable space group: I M M A
;
_chemical_formula_sum "Si O2"
_cell_formula_units_Z 64
_cell_length_a 24.275734
_cell_length_b 7.633149
_cell_length_c 18.327116
_cell_angle_alpha 90.000000
_cell_angle_beta 90.000000
_cell_angle_gamma 90.000000
_cell_volume 3396.019996
_symmetry_space_group_name_H-M "I M M A"
_symmetry_group_IT_number 74
_symmetry_cell_setting 'orthorhombic'
loop_
_space_group_symop_operation_xyz
x,y,z
-x,1/2-y,z
x,-y,-z
-x,1/2+y,-z
-x,-y,-z
x,1/2+y,-z
-x,y,z
x,1/2-y,z
1/2+x,1/2+y,1/2+z
1/2-x,-y,1/2+z
1/2+x,1/2-y,1/2-z
1/2-x,y,1/2-z
1/2-x,1/2-y,1/2-z
1/2+x,y,1/2-z
1/2-x,1/2+y,1/2+z
1/2+x,-y,1/2+z
loop_
_atom_site_type_symbol
_atom_site_label
_atom_site_fract_x
_atom_site_fract_y
_atom_site_fract_z
Si Si1 0.391084 0.445268 0.334300
Si Si2 0.812094 0.750000 0.162892
Si Si3 0.000000 0.455125 0.915617
Si Si4 0.310297 0.250000 0.835771
Si Si5 0.392414 0.546364 0.834977
Si Si6 0.000000 0.045895 0.415911
O O1 0.366880 0.250000 0.343491
O O2 0.344996 0.578544 0.364237
O O3 0.446539 0.460046 0.379970
O O4 0.405090 0.483463 0.250090
O O5 0.750723 0.750000 0.128739
O O6 0.806467 0.750000 0.249182
O O7 0.000000 0.250000 0.900884
O O8 0.000000 0.500000 0.000000
O O9 0.341249 0.427204 0.861216
O O10 0.379170 0.750000 0.852616
O O11 0.445205 0.471177 0.878150
O O12 0.000000 0.250000 0.401766
O O13 0.000000 0.000000 0.500000
#
# Coordination Sequence:
#
# PCOD8299191 Si02
#       6
#    16   8   8   8  16   8
#     4  10  19  35  56  79 110 142 173 218 270 317
#     4   9  18  33  51  85 107 136 179 222 258 315
#     4  12  23  36  54  82 110 141 176 220 267 326
#     4   9  18  31  55  79 109 138 179 218 264 309
#     4   9  19  34  53  79 110 141 176 220 268 319
#     4  10  21  34  50  79 107 139 177 220 266 323
#
# _framework density 18.845590000000001
#
# number of rings (size 3 to 8) (size 9 to 14) (size 15 to 20)
#    0.000    2.250    1.250    1.875    1.750    3.000 
#    0.000    5.000    0.000    1.500    0.000    0.000 
#    0.000    0.000    0.000    0.000    0.000    0.000 
#
# Total GULP energy -396786.606519 kJ/mol
# GULP energy per Si atom -12399.581454 kJ/mol
# Density = 1.880270 g / cm^3
# Si number density = 18.845590 Si / 1000 Ang^3
#
#
#
# Elastic Constant Matrix: (Units=GPa)
#
#
# Indices 1 2 3 4 5 6 
#
# 1 185.5926 74.6397 48.9243 0.0000 0.0000 0.0000
# 2 74.6397 125.6804 29.3877 0.0000 0.0000 0.0000
# 3 48.9243 29.3877 62.2478 0.0000 0.0000 0.0000
# 4 0.0000 0.0000 0.0000 20.2408 0.0000 0.0000
# 5 0.0000 0.0000 0.0000 0.0000 0.3995 0.0000
# 6 0.0000 0.0000 0.0000 0.0000 0.0000 22.1369
#
#
#
# Elastic Compliance Matrix: (Units=1/GPa)
#
#
# Indices 1 2 3 4 5 6 
#
# 1 0.008105 -0.003736 -0.004606 0.000000 0.000000 0.000000
# 2 -0.003736 0.010667 -0.002099 0.000000 0.000000 0.000000
# 3 -0.004606 -0.002099 0.020676 0.000000 0.000000 0.000000
# 4 0.000000 0.000000 0.000000 0.049405 0.000000 0.000000
# 5 0.000000 0.000000 0.000000 0.000000 2.502910 0.000000
# 6 0.000000 0.000000 0.000000 0.000000 0.000000 0.045173
#
#
# Mechanical properties :
#
#
# Convention : Reuss Voigt Hill
#
# Bulk Modulus (GPa) = 53.86702 75.49157 64.67930
# Shear Modulus (GPa) = 1.87687 23.26006 12.56846
#
# Velocity S-wave (km/s) = 0.99904 3.51699 2.58528
# Velocity P-wave (km/s) = 5.47505 7.52577 6.58078
#
# Compressibility (1/GPa) = 0.01856423
#
# Stress axis : x y z
#
# Youngs Moduli (GPa) = 123.37924 93.75131 48.36484
#
# Poissons Ratio (x) = 0.35029 0.22278
# Poissons Ratio (y) = 0.46100 0.10152
# Poissons Ratio (z) = 0.56832 0.19679
#
# Static dielectric constant tensor:
#      x y z
#    x 3.682720 0.000000 0.000000 
#    y 0.000000 3.713010 0.000000 
#    z 0.000000 0.000000 3.091310 
# 
# 
# High freq. dielectric constant tensor:
#      x y z
#    x 1.729730 0.000000 0.000000 
#    y 0.000000 1.748580 0.000000 
#    z 0.000000 0.000000 1.695600 
# 
# From -- ./inp_files/28908.got.cif
#   From: 2010.03.12/outbox.cif.g09.slc.cpg/sg74_15_cif.got.tgz:28908.got - 2010.04.16 15:46:19.
