data_PCOD8299944
_publ_section_title
;
Structure prediction by ZEFSAII (Michael W. Deem and Ramdas Pophale) SiO2 
 PCOD8299944
Probable space group: I M M A
;
_chemical_formula_sum "Si O2"
_cell_formula_units_Z 80
_cell_length_a 7.797946
_cell_length_b 17.758356
_cell_length_c 30.637180
_cell_angle_alpha 90.000000
_cell_angle_beta 90.000000
_cell_angle_gamma 90.000000
_cell_volume 4242.596893
_symmetry_space_group_name_H-M "I M M A"
_symmetry_group_IT_number 74
_symmetry_cell_setting 'orthorhombic'
loop_
_space_group_symop_operation_xyz
x,y,z
-x,1/2-y,z
x,-y,-z
-x,1/2+y,-z
-x,-y,-z
x,1/2+y,-z
-x,y,z
x,1/2-y,z
1/2+x,1/2+y,1/2+z
1/2-x,-y,1/2+z
1/2+x,1/2-y,1/2-z
1/2-x,y,1/2-z
1/2-x,1/2-y,1/2-z
1/2+x,y,1/2-z
1/2-x,1/2+y,1/2+z
1/2+x,-y,1/2+z
loop_
_atom_site_type_symbol
_atom_site_label
_atom_site_fract_x
_atom_site_fract_y
_atom_site_fract_z
Si Si1 0.809931 0.084291 0.431423
Si Si2 0.694378 0.666055 0.650804
Si Si3 0.500000 0.161146 0.586117
Si Si4 0.000000 0.411713 0.007408
Si Si5 0.198746 0.968831 0.702260
Si Si6 0.301518 0.435136 0.880055
O O1 0.810596 0.137236 0.388925
O O2 0.670899 0.111455 0.466319
O O3 0.000000 0.089444 0.452462
O O4 0.770899 0.998841 0.416717
O O5 0.500000 0.665947 0.633979
O O6 0.752581 0.750000 0.664702
O O7 0.709377 0.610648 0.692268
O O8 0.500000 0.250000 0.589214
O O9 0.500000 0.135971 0.536235
O O10 0.672783 0.132702 0.609867
O O11 0.000000 0.500000 0.000000
O O12 0.250000 0.998195 0.750000
O O13 0.000000 0.952610 0.698594
O O14 0.251393 0.032355 0.667308
O O15 0.500000 0.407629 0.880471
#
# Coordination Sequence:
#
# PCOD8299944 Si02
#       6
#    16  16   8   8  16  16
#     4  10  20  36  61  86 113 158 209 244 288 344
#     4  10  20  34  54  81 122 167 200 241 293 342
#     4  12  26  40  62  90 118 158 192 240 312 359
#     4  12  22  38  60  88 120 152 196 256 284 344
#     4  10  21  35  58  90 114 149 201 246 292 350
#     4   9  20  39  61  87 116 151 197 242 289 352
#
# _framework density 18.856375
#
# number of rings (size 3 to 8) (size 9 to 14) (size 15 to 20)
#    0.000    1.800    3.000    2.400    5.600    4.400 
#    0.000    0.000    0.000    0.600    0.000    0.000 
#    0.000    0.000    0.000    0.000    0.000    0.000 
#
# Total GULP energy -496041.352616 kJ/mol
# GULP energy per Si atom -12401.033815 kJ/mol
# Density = 1.881346 g / cm^3
# Si number density = 18.856375 Si / 1000 Ang^3
#
#
#
# Elastic Constant Matrix: (Units=GPa)
#
#
# Indices 1 2 3 4 5 6 
#
# 1 118.6120 57.1185 51.1018 0.0000 0.0000 0.0000
# 2 57.1185 118.2638 50.9100 0.0000 0.0000 0.0000
# 3 51.1018 50.9100 111.4743 0.0000 0.0000 0.0000
# 4 0.0000 0.0000 0.0000 9.0846 0.0000 0.0000
# 5 0.0000 0.0000 0.0000 0.0000 25.2618 0.0000
# 6 0.0000 0.0000 0.0000 0.0000 0.0000 23.1980
#
#
#
# Elastic Compliance Matrix: (Units=1/GPa)
#
#
# Indices 1 2 3 4 5 6 
#
# 1 0.012023 -0.004274 -0.003559 0.000000 0.000000 0.000000
# 2 -0.004274 0.012045 -0.003541 0.000000 0.000000 0.000000
# 3 -0.003559 -0.003541 0.012220 0.000000 0.000000 0.000000
# 4 0.000000 0.000000 0.000000 0.110076 0.000000 0.000000
# 5 0.000000 0.000000 0.000000 0.000000 0.039585 0.000000
# 6 0.000000 0.000000 0.000000 0.000000 0.000000 0.043107
#
#
# Mechanical properties :
#
#
# Convention : Reuss Voigt Hill
#
# Bulk Modulus (GPa) = 73.87222 74.06787 73.97005
# Shear Modulus (GPa) = 19.50702 24.12354 21.81528
#
# Velocity S-wave (km/s) = 3.21986 3.58065 3.40504
# Velocity P-wave (km/s) = 7.28592 7.51399 7.40084
#
# Compressibility (1/GPa) = 0.01353689
#
# Stress axis : x y z
#
# Youngs Moduli (GPa) = 83.17593 83.02508 81.83589
#
# Poissons Ratio (x) = 0.35489 0.29128
# Poissons Ratio (y) = 0.35553 0.28980
# Poissons Ratio (z) = 0.29605 0.29401
#
# Static dielectric constant tensor:
#      x y z
#    x 3.706700 0.000000 0.000000 
#    y 0.000000 3.189290 0.000000 
#    z 0.000000 0.000000 3.868880 
# 
# 
# High freq. dielectric constant tensor:
#      x y z
#    x 1.751810 0.000000 0.000000 
#    y 0.000000 1.697860 0.000000 
#    z 0.000000 0.000000 1.723500 
# 
# From -- ./inp_files/63988.got.cif
#   From: 2010.03.12/outbox.cif.g09.slc.cpg/sg74_32_cif.got.tgz:63988.got - 2010.04.16 15:46:19.
