data_PCOD8299285
_publ_section_title
;
Structure prediction by ZEFSAII (Michael W. Deem and Ramdas Pophale) SiO2 
 PCOD8299285
Probable space group: I M M A
;
_chemical_formula_sum "Si O2"
_cell_formula_units_Z 88
_cell_length_a 7.571280
_cell_length_b 18.254306
_cell_length_c 32.012587
_cell_angle_alpha 90.000000
_cell_angle_beta 90.000000
_cell_angle_gamma 90.000000
_cell_volume 4424.410412
_symmetry_space_group_name_H-M "I M M A"
_symmetry_group_IT_number 74
_symmetry_cell_setting 'orthorhombic'
loop_
_space_group_symop_operation_xyz
x,y,z
-x,1/2-y,z
x,-y,-z
-x,1/2+y,-z
-x,-y,-z
x,1/2+y,-z
-x,y,z
x,1/2-y,z
1/2+x,1/2+y,1/2+z
1/2-x,-y,1/2+z
1/2+x,1/2-y,1/2-z
1/2-x,y,1/2-z
1/2-x,1/2-y,1/2-z
1/2+x,y,1/2-z
1/2-x,1/2+y,1/2+z
1/2+x,-y,1/2+z
loop_
_atom_site_type_symbol
_atom_site_label
_atom_site_fract_x
_atom_site_fract_y
_atom_site_fract_z
Si Si1 0.000000 0.108065 0.985691
Si Si2 0.500000 0.963031 0.570172
Si Si3 0.293757 0.384816 0.849247
Si Si4 0.707181 0.250000 0.797985
Si Si5 0.790694 0.545532 0.639773
Si Si6 0.303862 0.665719 0.063364
Si Si7 0.706610 0.668444 0.796503
O O1 0.823353 0.153574 0.975758
O O2 0.000000 0.036045 0.957225
O O3 0.000000 0.100182 0.035451
O O4 0.322331 0.953729 0.597416
O O5 0.500000 0.369024 0.850918
O O6 0.208451 0.324147 0.818283
O O7 0.253477 0.468616 0.835695
O O8 0.221369 0.375542 0.896359
O O9 0.500000 0.250000 0.804993
O O10 0.750000 0.250000 0.750000
O O11 0.719832 0.610543 0.669759
O O12 0.000000 0.552681 0.629019
O O13 0.500000 0.636139 0.051966
O O14 0.313606 0.750000 0.075710
O O15 0.500000 0.673042 0.802459
O O16 0.789632 0.750000 0.803638
O O17 0.750000 0.640281 0.750000
#
# Coordination Sequence:
#
# PCOD8299285 Si02
#       7
#     8   8  16   8  16  16  16
#     4  11  23  38  56  90 123 146 201 262 290 360
#     4  11  24  38  58  88 122 155 194 249 310 354
#     4   9  17  33  56  76 108 151 194 238 282 342
#     4  10  20  36  50  78 120 154 196 242 294 350
#     4  10  21  39  60  85 118 159 198 239 298 362
#     4  10  19  36  61  85 111 154 200 245 294 341
#     4   9  19  36  59  87 115 148 195 246 296 357
#
# _framework density 19.889655000000001
#
# number of rings (size 3 to 8) (size 9 to 14) (size 15 to 20)
#    0.000    2.182    2.727    0.273    1.273    1.455 
#    3.273    3.636    0.000    2.182    0.000    0.000 
#    0.000    0.000    0.000    0.000    0.000    0.000 
#
# Total GULP energy -545292.780240 kJ/mol
# GULP energy per Si atom -12393.017733 kJ/mol
# Density = 1.984439 g / cm^3
# Si number density = 19.889655 Si / 1000 Ang^3
#
#
#
# Elastic Constant Matrix: (Units=GPa)
#
#
# Indices 1 2 3 4 5 6 
#
# 1 71.0732 27.9841 38.5203 0.0000 0.0000 0.0000
# 2 27.9841 121.9294 70.6998 0.0000 0.0000 0.0000
# 3 38.5203 70.6998 128.6250 0.0000 0.0000 0.0000
# 4 0.0000 0.0000 0.0000 48.2253 0.0000 0.0000
# 5 0.0000 0.0000 0.0000 0.0000 24.2519 0.0000
# 6 0.0000 0.0000 0.0000 0.0000 0.0000 14.7782
#
#
#
# Elastic Compliance Matrix: (Units=1/GPa)
#
#
# Indices 1 2 3 4 5 6 
#
# 1 0.016955 -0.001390 -0.004314 0.000000 0.000000 0.000000
# 2 -0.001390 0.012152 -0.006263 0.000000 0.000000 0.000000
# 3 -0.004314 -0.006263 0.012509 0.000000 0.000000 0.000000
# 4 0.000000 0.000000 0.000000 0.020736 0.000000 0.000000
# 5 0.000000 0.000000 0.000000 0.000000 0.041234 0.000000
# 6 0.000000 0.000000 0.000000 0.000000 0.000000 0.067667
#
#
# Mechanical properties :
#
#
# Convention : Reuss Voigt Hill
#
# Bulk Modulus (GPa) = 56.55334 66.22623 61.38978
# Shear Modulus (GPa) = 24.86553 29.74597 27.30575
#
# Velocity S-wave (km/s) = 3.53962 3.87143 3.70923
# Velocity P-wave (km/s) = 6.72313 7.30432 7.01974
#
# Compressibility (1/GPa) = 0.01768242
#
# Stress axis : x y z
#
# Youngs Moduli (GPa) = 58.97873 82.28951 79.94246
#
# Poissons Ratio (x) = 0.11440 0.34484
# Poissons Ratio (y) = 0.08199 0.50070
# Poissons Ratio (z) = 0.25441 0.51540
#
# Static dielectric constant tensor:
#      x y z
#    x 3.254850 0.000000 0.000000 
#    y 0.000000 4.033540 0.000000 
#    z 0.000000 0.000000 3.462060 
# 
# 
# High freq. dielectric constant tensor:
#      x y z
#    x 1.770510 0.000000 0.000000 
#    y 0.000000 1.781520 0.000000 
#    z 0.000000 0.000000 1.752510 
# 
# From -- ./inp_files/70347.got.cif
#   From: 2010.03.12/outbox.cif.g09.slc.cpg/sg74_36_cif.got.tgz:70347.got - 2010.04.16 15:46:19.
