data_PCOD8299731
_publ_section_title
;
Structure prediction by ZEFSAII (Michael W. Deem and Ramdas Pophale) SiO2 
 PCOD8299731
Probable space group: I M M A
;
_chemical_formula_sum "Si O2"
_cell_formula_units_Z 96
_cell_length_a 24.796415
_cell_length_b 21.330636
_cell_length_c 9.333380
_cell_angle_alpha 90.000000
_cell_angle_beta 90.000000
_cell_angle_gamma 90.000000
_cell_volume 4936.642173
_symmetry_space_group_name_H-M "I M M A"
_symmetry_group_IT_number 74
_symmetry_cell_setting 'orthorhombic'
loop_
_space_group_symop_operation_xyz
x,y,z
-x,1/2-y,z
x,-y,-z
-x,1/2+y,-z
-x,-y,-z
x,1/2+y,-z
-x,y,z
x,1/2-y,z
1/2+x,1/2+y,1/2+z
1/2-x,-y,1/2+z
1/2+x,1/2-y,1/2-z
1/2-x,y,1/2-z
1/2-x,1/2-y,1/2-z
1/2+x,y,1/2-z
1/2-x,1/2+y,1/2+z
1/2+x,-y,1/2+z
loop_
_atom_site_type_symbol
_atom_site_label
_atom_site_fract_x
_atom_site_fract_y
_atom_site_fract_z
Si Si1 0.358145 0.633068 0.781860
Si Si2 0.337563 0.319307 0.507128
Si Si3 0.361084 0.617330 0.231375
Si Si4 0.191453 0.507707 0.826460
Si Si5 0.281394 0.176094 0.972580
Si Si6 0.063568 0.823897 0.494772
O O1 0.357743 0.683737 0.655098
O O2 0.346894 0.566832 0.706425
O O3 0.311912 0.644329 0.896553
O O4 0.415851 0.643768 0.858354
O O5 0.334505 0.250000 0.569810
O O6 0.376988 0.358451 0.610223
O O7 0.278584 0.351844 0.518612
O O8 0.343388 0.545559 0.245259
O O9 0.309229 0.656811 0.175815
O O10 0.412087 0.632661 0.131256
O O11 0.250000 0.512627 0.750000
O O12 0.197254 0.500000 0.000000
O O13 0.281603 0.250000 0.993792
O O14 0.081734 0.750000 0.483464
O O15 0.000000 0.829318 0.488395
#
# Coordination Sequence:
#
# PCOD8299731 Si02
#       6
#    16  16  16  16  16  16
#     4  11  22  37  58  86 123 161 206 252 304 363
#     4  11  19  31  54  85 120 156 194 247 313 372
#     4  11  22  37  58  86 123 161 206 252 304 363
#     4  12  26  40  60  91 133 177 211 244 288 365
#     4  10  20  33  53  85 122 161 198 242 303 379
#     4  10  23  45  70  93 117 153 209 272 327 378
#
# _framework density 19.446418000000001
#
# number of rings (size 3 to 8) (size 9 to 14) (size 15 to 20)
#    0.000    1.167    1.667    7.000    4.667    2.667 
#    0.000    2.500    0.000    4.000    0.000    0.000 
#    0.000    0.000    0.000    0.000    0.000    0.000 
#
# Total GULP energy -594844.494171 kJ/mol
# GULP energy per Si atom -12392.593629 kJ/mol
# Density = 1.940216 g / cm^3
# Si number density = 19.446418 Si / 1000 Ang^3
#
#
#
# Elastic Constant Matrix: (Units=GPa)
#
#
# Indices 1 2 3 4 5 6 
#
# 1 95.4841 34.1499 40.8605 0.0000 0.0000 0.0000
# 2 34.1499 90.7877 26.5997 0.0000 0.0000 0.0000
# 3 40.8605 26.5997 110.5813 0.0000 0.0000 0.0000
# 4 0.0000 0.0000 0.0000 34.5005 0.0000 0.0000
# 5 0.0000 0.0000 0.0000 0.0000 17.4259 0.0000
# 6 0.0000 0.0000 0.0000 0.0000 0.0000 22.7858
#
#
#
# Elastic Compliance Matrix: (Units=1/GPa)
#
#
# Indices 1 2 3 4 5 6 
#
# 1 0.013628 -0.003928 -0.004091 0.000000 0.000000 0.000000
# 2 -0.003928 0.012982 -0.001671 0.000000 0.000000 0.000000
# 3 -0.004091 -0.001671 0.010957 0.000000 0.000000 0.000000
# 4 0.000000 0.000000 0.000000 0.028985 0.000000 0.000000
# 5 0.000000 0.000000 0.000000 0.000000 0.057386 0.000000
# 6 0.000000 0.000000 0.000000 0.000000 0.000000 0.043887
#
#
# Mechanical properties :
#
#
# Convention : Reuss Voigt Hill
#
# Bulk Modulus (GPa) = 54.98487 55.56370 55.27428
# Shear Modulus (GPa) = 25.87092 27.95864 26.91478
#
# Velocity S-wave (km/s) = 3.65138 3.79585 3.72432
# Velocity P-wave (km/s) = 6.79067 6.91708 6.85417
#
# Compressibility (1/GPa) = 0.01818682
#
# Stress axis : x y z
#
# Youngs Moduli (GPa) = 73.37653 77.03084 91.26754
#
# Poissons Ratio (x) = 0.30255 0.37337
# Poissons Ratio (y) = 0.28820 0.15254
# Poissons Ratio (z) = 0.30018 0.12875
#
# Static dielectric constant tensor:
#      x y z
#    x 3.262990 0.000000 0.000000 
#    y 0.000000 3.650300 0.000000 
#    z 0.000000 0.000000 3.824710 
# 
# 
# High freq. dielectric constant tensor:
#      x y z
#    x 1.713700 0.000000 0.000000 
#    y 0.000000 1.765960 0.000000 
#    z 0.000000 0.000000 1.779370 
# 
# From -- ./inp_files/15104.got.cif
#   From: 2010.03.12/outbox.cif.g09.slc.cpg/sg74_8_cif.got.tgz:15104.got - 2010.04.16 15:46:19.
