data_PCOD8299043
_publ_section_title
;
Structure prediction by ZEFSAII (Michael W. Deem and Ramdas Pophale) SiO2 
 PCOD8299043
Probable space group: I M M A
;
_chemical_formula_sum "Si O2"
_cell_formula_units_Z 104
_cell_length_a 22.107102
_cell_length_b 14.137641
_cell_length_c 17.621747
_cell_angle_alpha 90.000000
_cell_angle_beta 90.000000
_cell_angle_gamma 90.000000
_cell_volume 5507.540837
_symmetry_space_group_name_H-M "I M M A"
_symmetry_group_IT_number 74
_symmetry_cell_setting 'orthorhombic'
loop_
_space_group_symop_operation_xyz
x,y,z
-x,1/2-y,z
x,-y,-z
-x,1/2+y,-z
-x,-y,-z
x,1/2+y,-z
-x,y,z
x,1/2-y,z
1/2+x,1/2+y,1/2+z
1/2-x,-y,1/2+z
1/2+x,1/2-y,1/2-z
1/2-x,y,1/2-z
1/2-x,1/2-y,1/2-z
1/2+x,y,1/2-z
1/2-x,1/2+y,1/2+z
1/2+x,-y,1/2+z
loop_
_atom_site_type_symbol
_atom_site_label
_atom_site_fract_x
_atom_site_fract_y
_atom_site_fract_z
Si Si1 0.930479 0.980225 0.764320
Si Si2 0.632128 0.359345 0.815239
Si Si3 0.430468 0.138347 0.119329
Si Si4 0.709742 0.138458 0.512425
Si Si5 0.750000 0.552485 0.250000
Si Si6 0.828378 0.520373 0.878161
Si Si7 0.847951 0.638757 0.483602
O O1 0.909891 0.906899 0.698956
O O2 0.000000 0.968138 0.785413
O O3 0.917251 0.085431 0.733958
O O4 0.894106 0.963047 0.841724
O O5 0.618179 0.250000 0.803957
O O6 0.700127 0.380104 0.787767
O O7 0.624145 0.390603 0.902773
O O8 0.500000 0.112117 0.100818
O O9 0.421856 0.250000 0.127055
O O10 0.388478 0.095717 0.051750
O O11 0.702158 0.250000 0.528642
O O12 0.673775 0.079337 0.576329
O O13 0.779089 0.103250 0.511889
O O14 0.683065 0.111416 0.430566
O O15 0.778739 0.482755 0.188122
O O16 0.847998 0.750000 0.492041
#
# Coordination Sequence:
#
# PCOD8299043 Si02
#       7
#    16  16  16  16   8  16  16
#     4  10  23  39  55  80 110 144 188 235 280 326
#     4  10  20  33  53  79 111 149 184 220 266 324
#     4   9  19  36  56  78 110 151 188 224 272 330
#     4  10  21  38  57  84 115 144 182 229 280 330
#     4  10  19  34  53  82 112 146 183 216 271 328
#     4  10  22  36  59  82 109 148 184 228 276 332
#     4   9  18  32  53  81 112 146 181 221 266 325
#
# _framework density 18.883199999999999
#
# number of rings (size 3 to 8) (size 9 to 14) (size 15 to 20)
#    0.000    2.308    1.538    0.231    4.308    4.615 
#    0.000    5.000    0.000    0.923    0.000    0.000 
#    0.000    0.000    0.000    0.000    0.000    0.000 
#
# Total GULP energy -644794.758710 kJ/mol
# GULP energy per Si atom -12399.899206 kJ/mol
# Density = 1.884022 g / cm^3
# Si number density = 18.883200 Si / 1000 Ang^3
#
#
#
# Elastic Constant Matrix: (Units=GPa)
#
#
# Indices 1 2 3 4 5 6 
#
# 1 50.0663 -7.0383 33.0582 0.0000 0.0000 0.0000
# 2 -7.0383 29.9659 -0.9879 0.0000 0.0000 0.0000
# 3 33.0582 -0.9879 94.0016 0.0000 0.0000 0.0000
# 4 0.0000 0.0000 0.0000 30.6661 0.0000 0.0000
# 5 0.0000 0.0000 0.0000 0.0000 32.2917 0.0000
# 6 0.0000 0.0000 0.0000 0.0000 0.0000 16.1620
#
#
#
# Elastic Compliance Matrix: (Units=1/GPa)
#
#
# Indices 1 2 3 4 5 6 
#
# 1 0.027067 0.006046 -0.009455 0.000000 0.000000 0.000000
# 2 0.006046 0.034733 -0.001761 0.000000 0.000000 0.000000
# 3 -0.009455 -0.001761 0.013945 0.000000 0.000000 0.000000
# 4 0.000000 0.000000 0.000000 0.032609 0.000000 0.000000
# 5 0.000000 0.000000 0.000000 0.000000 0.030968 0.000000
# 6 0.000000 0.000000 0.000000 0.000000 0.000000 0.061873
#
#
# Mechanical properties :
#
#
# Convention : Reuss Voigt Hill
#
# Bulk Modulus (GPa) = 15.28977 24.89975 20.09476
# Shear Modulus (GPa) = 21.42822 25.75742 23.59282
#
# Velocity S-wave (km/s) = 3.37230 3.69730 3.53853
# Velocity P-wave (km/s) = 4.82471 5.60727 5.23065
#
# Compressibility (1/GPa) = 0.06540320
#
# Stress axis : x y z
#
# Youngs Moduli (GPa) = 36.94602 28.79092 71.71156
#
# Poissons Ratio (x) = -0.17406 0.67804
# Poissons Ratio (y) = -0.22336 0.12629
# Poissons Ratio (z) = 0.34933 0.05070
#
# Static dielectric constant tensor:
#      x y z
#    x 3.440140 0.000000 0.000000 
#    y 0.000000 3.306310 0.000000 
#    z 0.000000 0.000000 3.672760 
# 
# 
# High freq. dielectric constant tensor:
#      x y z
#    x 1.718440 0.000000 0.000000 
#    y 0.000000 1.730010 0.000000 
#    z 0.000000 0.000000 1.740460 
# 
# From -- ./inp_files/45304.got.cif
#   From: 2010.03.12/outbox.cif.g09.slc.cpg/sg74_23_cif.got.tgz:45304.got - 2010.04.16 15:46:19.
