data_PCOD8299066
_publ_section_title
;
Structure prediction by ZEFSAII (Michael W. Deem and Ramdas Pophale) SiO2 
 PCOD8299066
Probable space group: I M M A
;
_chemical_formula_sum "Si O2"
_cell_formula_units_Z 104
_cell_length_a 9.426277
_cell_length_b 21.695996
_cell_length_c 26.838454
_cell_angle_alpha 90.000000
_cell_angle_beta 90.000000
_cell_angle_gamma 90.000000
_cell_volume 5488.798467
_symmetry_space_group_name_H-M "I M M A"
_symmetry_group_IT_number 74
_symmetry_cell_setting 'orthorhombic'
loop_
_space_group_symop_operation_xyz
x,y,z
-x,1/2-y,z
x,-y,-z
-x,1/2+y,-z
-x,-y,-z
x,1/2+y,-z
-x,y,z
x,1/2-y,z
1/2+x,1/2+y,1/2+z
1/2-x,-y,1/2+z
1/2+x,1/2-y,1/2-z
1/2-x,y,1/2-z
1/2-x,1/2-y,1/2-z
1/2+x,y,1/2-z
1/2-x,1/2+y,1/2+z
1/2+x,-y,1/2+z
loop_
_atom_site_type_symbol
_atom_site_label
_atom_site_fract_x
_atom_site_fract_y
_atom_site_fract_z
Si Si1 0.836797 0.179393 0.124511
Si Si2 0.834769 0.321005 0.474247
Si Si3 0.341034 0.557471 0.036710
Si Si4 0.661319 0.081205 0.299274
Si Si5 0.337489 0.033339 0.630432
Si Si6 0.844646 0.750000 0.297015
Si Si7 0.663329 0.881421 0.199181
O O1 0.816379 0.250000 0.138320
O O2 0.747120 0.161628 0.076114
O O3 0.785242 0.143772 0.174282
O O4 0.000000 0.162380 0.112680
O O5 0.795434 0.250000 0.492146
O O6 0.796534 0.375442 0.513521
O O7 0.000000 0.324041 0.461544
O O8 0.500000 0.565192 0.060002
O O9 0.220351 0.535250 0.074672
O O10 0.346467 0.500000 0.000000
O O11 0.500000 0.085962 0.280744
O O12 0.750000 0.064422 0.250000
O O13 0.676713 0.032433 0.343737
O O14 0.500000 0.056620 0.631486
O O15 0.230780 0.076373 0.658938
O O16 0.750000 0.750000 0.250000
O O17 0.822523 0.813500 0.326842
O O18 0.000000 0.750000 0.273289
O O19 0.500000 0.899508 0.209950
O O20 0.750000 0.886551 0.250000
#
# Coordination Sequence:
#
# PCOD8299066 Si02
#       7
#    16  16  16  16  16   8  16
#     4   9  18  34  56  81 109 141 177 218 265 320
#     4   9  18  34  56  82 110 140 176 220 271 326
#     4  10  21  37  57  80 106 139 180 226 275 328
#     4  10  22  37  53  77 109 144 181 222 269 318
#     4  11  23  37  53  77 107 141 180 222 270 321
#     4   8  16  30  50  74  98 130 168 208 254 302
#     4  10  19  34  55  78 105 137 175 217 263 314
#
# _framework density 18.947679999999998
#
# number of rings (size 3 to 8) (size 9 to 14) (size 15 to 20)
#    0.000    2.308    0.000    2.308    0.000    4.923 
#    1.385    0.000    0.000    0.000    0.000    0.000 
#    0.000    0.000    0.000    0.000    0.000    0.000 
#
# Total GULP energy -644201.158985 kJ/mol
# GULP energy per Si atom -12388.483827 kJ/mol
# Density = 1.890455 g / cm^3
# Si number density = 18.947680 Si / 1000 Ang^3
#
#
#
# Elastic Constant Matrix: (Units=GPa)
#
#
# Indices 1 2 3 4 5 6 
#
# 1 96.4151 40.4454 46.6134 0.0000 0.0000 0.0000
# 2 40.4454 95.9161 37.3790 0.0000 0.0000 0.0000
# 3 46.6134 37.3790 81.3057 0.0000 0.0000 0.0000
# 4 0.0000 0.0000 0.0000 32.7783 0.0000 0.0000
# 5 0.0000 0.0000 0.0000 0.0000 33.8691 0.0000
# 6 0.0000 0.0000 0.0000 0.0000 0.0000 26.2605
#
#
#
# Elastic Compliance Matrix: (Units=1/GPa)
#
#
# Indices 1 2 3 4 5 6 
#
# 1 0.015361 -0.003710 -0.007101 0.000000 0.000000 0.000000
# 2 -0.003710 0.013597 -0.004124 0.000000 0.000000 0.000000
# 3 -0.007101 -0.004124 0.018266 0.000000 0.000000 0.000000
# 4 0.000000 0.000000 0.000000 0.030508 0.000000 0.000000
# 5 0.000000 0.000000 0.000000 0.000000 0.029525 0.000000
# 6 0.000000 0.000000 0.000000 0.000000 0.000000 0.038080
#
#
# Mechanical properties :
#
#
# Convention : Reuss Voigt Hill
#
# Bulk Modulus (GPa) = 57.62239 58.05695 57.83967
# Shear Modulus (GPa) = 27.62517 28.52818 28.07668
#
# Velocity S-wave (km/s) = 3.82248 3.88445 3.85359
# Velocity P-wave (km/s) = 7.06818 7.12922 7.09877
#
# Compressibility (1/GPa) = 0.01735436
#
# Stress axis : x y z
#
# Youngs Moduli (GPa) = 65.09838 73.54315 54.74518
#
# Poissons Ratio (x) = 0.27286 0.38875
# Poissons Ratio (y) = 0.24152 0.22578
# Poissons Ratio (z) = 0.46227 0.30330
#
# Static dielectric constant tensor:
#      x y z
#    x 4.043670 0.000000 0.000000 
#    y 0.000000 3.906380 0.000000 
#    z 0.000000 0.000000 3.018630 
# 
# 
# High freq. dielectric constant tensor:
#      x y z
#    x 1.742570 0.000000 0.000000 
#    y 0.000000 1.756820 0.000000 
#    z 0.000000 0.000000 1.712900 
# 
# From -- ./inp_files/64436.got.cif
#   From: 2010.03.12/outbox.cif.g09.slc.cpg/sg74_33_cif.got.tgz:64436.got - 2010.04.16 15:46:19.
