data_PCOD8299256
_publ_section_title
;
Structure prediction by ZEFSAII (Michael W. Deem and Ramdas Pophale) SiO2 
 PCOD8299256
Probable space group: I M M A
;
_chemical_formula_sum "Si O2"
_cell_formula_units_Z 84
_cell_length_a 13.905338
_cell_length_b 11.915275
_cell_length_c 29.707691
_cell_angle_alpha 90.000000
_cell_angle_beta 90.000000
_cell_angle_gamma 90.000000
_cell_volume 4922.146300
_symmetry_space_group_name_H-M "I M M A"
_symmetry_group_IT_number 74
_symmetry_cell_setting 'orthorhombic'
loop_
_space_group_symop_operation_xyz
x,y,z
-x,1/2-y,z
x,-y,-z
-x,1/2+y,-z
-x,-y,-z
x,1/2+y,-z
-x,y,z
x,1/2-y,z
1/2+x,1/2+y,1/2+z
1/2-x,-y,1/2+z
1/2+x,1/2-y,1/2-z
1/2-x,y,1/2-z
1/2-x,1/2-y,1/2-z
1/2+x,y,1/2-z
1/2-x,1/2+y,1/2+z
1/2+x,-y,1/2+z
loop_
_atom_site_type_symbol
_atom_site_label
_atom_site_fract_x
_atom_site_fract_y
_atom_site_fract_z
Si Si1 0.389756 0.984846 0.949130
Si Si2 0.889491 0.750000 0.597879
Si Si3 0.811822 0.622832 0.371554
Si Si4 0.784774 0.250000 0.170493
Si Si5 0.000000 0.873573 0.313816
Si Si6 0.000000 0.750000 0.812446
Si Si7 0.000000 0.482966 0.227954
Si Si8 0.705454 0.005956 0.296842
O O1 0.500000 0.025210 0.944606
O O2 0.378032 0.856814 0.934010
O O3 0.320965 0.063824 0.919656
O O4 0.353778 0.000000 0.000000
O O5 0.799022 0.750000 0.632490
O O6 0.000000 0.750000 0.619342
O O7 0.777871 0.750000 0.378949
O O8 0.911198 0.613419 0.346106
O O9 0.736355 0.558309 0.341136
O O10 0.900931 0.250000 0.156612
O O11 0.769174 0.138069 0.199839
O O12 0.000000 0.750000 0.289991
O O13 0.000000 0.976773 0.279498
O O14 0.000000 0.849085 0.775872
O O15 0.094008 0.527479 0.203209
O O16 0.750000 0.960501 0.250000
#
# Coordination Sequence:
#
# PCOD8299256 Si02
#       8
#    16   8  16   8   8   4   8  16
#     4  10  21  36  55  81 114 144 175 217 272 331
#     4  10  20  35  57  87 111 142 181 221 276 328
#     4  11  22  35  53  78 105 145 184 219 265 319
#     4  10  19  36  53  78 110 142 184 225 269 321
#     4  10  20  34  51  71 104 142 183 218 259 311
#     4   8  20  34  56  78 100 146 194 220 272 312
#     4  10  20  36  52  77 105 142 181 224 266 311
#     4  11  21  35  54  76 108 141 183 223 266 317
#
# _framework density 17.065726999999999
#
# number of rings (size 3 to 8) (size 9 to 14) (size 15 to 20)
#    0.000    1.714    4.762    0.286    1.333    1.143 
#    1.714    0.952    0.000    0.000    0.000    2.667 
#    0.000    0.000    0.000    0.000    0.000    0.000 
#
# Total GULP energy -520418.079706 kJ/mol
# GULP energy per Si atom -12390.906660 kJ/mol
# Density = 1.702688 g / cm^3
# Si number density = 17.065727 Si / 1000 Ang^3
#
#
#
# Elastic Constant Matrix: (Units=GPa)
#
#
# Indices 1 2 3 4 5 6 
#
# 1 105.4599 37.1227 53.9562 0.0000 0.0000 0.0000
# 2 37.1227 96.4310 51.2997 0.0000 0.0000 0.0000
# 3 53.9562 51.2997 124.1701 0.0000 0.0000 0.0000
# 4 0.0000 0.0000 0.0000 20.6671 0.0000 0.0000
# 5 0.0000 0.0000 0.0000 0.0000 13.8381 0.0000
# 6 0.0000 0.0000 0.0000 0.0000 0.0000 15.4389
#
#
#
# Elastic Compliance Matrix: (Units=1/GPa)
#
#
# Indices 1 2 3 4 5 6 
#
# 1 0.012644 -0.002492 -0.004464 0.000000 0.000000 0.000000
# 2 -0.002492 0.013783 -0.004611 0.000000 0.000000 0.000000
# 3 -0.004464 -0.004611 0.011898 0.000000 0.000000 0.000000
# 4 0.000000 0.000000 0.000000 0.048386 0.000000 0.000000
# 5 0.000000 0.000000 0.000000 0.000000 0.072264 0.000000
# 6 0.000000 0.000000 0.000000 0.000000 0.000000 0.064771
#
#
# Mechanical properties :
#
#
# Convention : Reuss Voigt Hill
#
# Bulk Modulus (GPa) = 65.83747 67.86867 66.85307
# Shear Modulus (GPa) = 19.84557 22.23433 21.03995
#
# Velocity S-wave (km/s) = 3.41382 3.61344 3.51504
# Velocity P-wave (km/s) = 7.36216 7.56733 7.46545
#
# Compressibility (1/GPa) = 0.01518892
#
# Stress axis : x y z
#
# Youngs Moduli (GPa) = 79.09045 72.55497 84.04454
#
# Poissons Ratio (x) = 0.18084 0.37521
# Poissons Ratio (y) = 0.19713 0.38754
# Poissons Ratio (z) = 0.35309 0.33456
#
# Static dielectric constant tensor:
#      x y z
#    x 3.365810 0.000000 0.000000 
#    y 0.000000 3.391660 0.000000 
#    z 0.000000 0.000000 3.035210 
# 
# 
# High freq. dielectric constant tensor:
#      x y z
#    x 1.650950 0.000000 0.000000 
#    y 0.000000 1.670500 0.000000 
#    z 0.000000 0.000000 1.635990 
# 
# From -- ./inp_files/58703.got.cif
#   From: 2010.03.12/outbox.cif.g09.slc.cpg/sg74_30_cif.got.tgz:58703.got - 2010.04.16 15:46:19.
