data_PCOD8299060
_publ_section_title
;
Structure prediction by ZEFSAII (Michael W. Deem and Ramdas Pophale) SiO2 
 PCOD8299060
Probable space group: I M M A
;
_chemical_formula_sum "Si O2"
_cell_formula_units_Z 112
_cell_length_a 29.894048
_cell_length_b 13.810751
_cell_length_c 13.822956
_cell_angle_alpha 90.000000
_cell_angle_beta 90.000000
_cell_angle_gamma 90.000000
_cell_volume 5706.935293
_symmetry_space_group_name_H-M "I M M A"
_symmetry_group_IT_number 74
_symmetry_cell_setting 'orthorhombic'
loop_
_space_group_symop_operation_xyz
x,y,z
-x,1/2-y,z
x,-y,-z
-x,1/2+y,-z
-x,-y,-z
x,1/2+y,-z
-x,y,z
x,1/2-y,z
1/2+x,1/2+y,1/2+z
1/2-x,-y,1/2+z
1/2+x,1/2-y,1/2-z
1/2-x,y,1/2-z
1/2-x,1/2-y,1/2-z
1/2+x,y,1/2-z
1/2-x,1/2+y,1/2+z
1/2+x,-y,1/2+z
loop_
_atom_site_type_symbol
_atom_site_label
_atom_site_fract_x
_atom_site_fract_y
_atom_site_fract_z
Si Si1 0.328781 0.138898 0.929785
Si Si2 0.347251 0.976861 0.393151
Si Si3 0.874052 0.140599 0.385597
Si Si4 0.104562 0.362236 0.736656
Si Si5 0.550300 0.500103 0.884191
Si Si6 0.800487 0.639816 0.773165
Si Si7 0.238675 0.635158 0.144052
O O1 0.326560 0.250000 0.961946
O O2 0.349460 0.127393 0.823174
O O3 0.278518 0.097065 0.926284
O O4 0.359967 0.090858 0.011853
O O5 0.388189 0.930433 0.330931
O O6 0.308154 0.897727 0.399354
O O7 0.366168 0.000000 0.500000
O O8 0.325363 0.074615 0.351969
O O9 0.891701 0.250000 0.394529
O O10 0.829425 0.132508 0.323457
O O11 0.915366 0.080029 0.342319
O O12 0.095278 0.250000 0.765001
O O13 0.064079 0.398846 0.667494
O O14 0.500000 0.525405 0.851071
O O15 0.552478 0.500000 0.000000
O O16 0.799317 0.750000 0.812717
O O17 0.750000 0.604314 0.750000
O O18 0.238580 0.750000 0.148755
O O19 0.250000 0.592632 0.250000
#
# Coordination Sequence:
#
# PCOD8299060 Si02
#       7
#    16  16  16  16  16  16  16
#     4   9  18  32  54  82 115 159 202 244 297 360
#     4  12  25  37  56  84 115 161 214 263 316 357
#     4  10  20  38  61  86 122 166 204 244 298 362
#     4  11  22  41  62  85 122 161 203 256 316 372
#     4  11  23  38  63  99 131 159 194 243 308 382
#     4  10  23  40  56  81 120 161 205 253 300 361
#     4  10  19  34  54  81 117 156 204 256 306 363
#
# _framework density 19.625243000000001
#
# number of rings (size 3 to 8) (size 9 to 14) (size 15 to 20)
#    0.000    1.571    4.286    0.857    2.000    1.714 
#    0.000    1.429    0.000    0.429    0.000    0.000 
#    0.000    0.000    0.000    0.000    0.000    0.000 
#
# Total GULP energy -694134.403491 kJ/mol
# GULP energy per Si atom -12395.257205 kJ/mol
# Density = 1.958058 g / cm^3
# Si number density = 19.625243 Si / 1000 Ang^3
#
#
#
# Elastic Constant Matrix: (Units=GPa)
#
#
# Indices 1 2 3 4 5 6 
#
# 1 106.1399 38.8866 26.3147 0.0000 0.0000 0.0000
# 2 38.8866 91.6688 40.5544 0.0000 0.0000 0.0000
# 3 26.3147 40.5544 99.2532 0.0000 0.0000 0.0000
# 4 0.0000 0.0000 0.0000 19.9967 0.0000 0.0000
# 5 0.0000 0.0000 0.0000 0.0000 18.9021 0.0000
# 6 0.0000 0.0000 0.0000 0.0000 0.0000 19.6973
#
#
#
# Elastic Compliance Matrix: (Units=1/GPa)
#
#
# Indices 1 2 3 4 5 6 
#
# 1 0.011284 -0.004227 -0.001264 0.000000 0.000000 0.000000
# 2 -0.004227 0.014900 -0.004967 0.000000 0.000000 0.000000
# 3 -0.001264 -0.004967 0.012440 0.000000 0.000000 0.000000
# 4 0.000000 0.000000 0.000000 0.050008 0.000000 0.000000
# 5 0.000000 0.000000 0.000000 0.000000 0.052904 0.000000
# 6 0.000000 0.000000 0.000000 0.000000 0.000000 0.050768
#
#
# Mechanical properties :
#
#
# Convention : Reuss Voigt Hill
#
# Bulk Modulus (GPa) = 56.47890 56.50817 56.49353
# Shear Modulus (GPa) = 22.81817 24.47297 23.64557
#
# Velocity S-wave (km/s) = 3.41353 3.53514 3.47487
# Velocity P-wave (km/s) = 6.66164 6.74678 6.70435
#
# Compressibility (1/GPa) = 0.01770573
#
# Stress axis : x y z
#
# Youngs Moduli (GPa) = 88.62295 67.11612 80.38584
#
# Poissons Ratio (x) = 0.28372 0.10164
# Poissons Ratio (y) = 0.37464 0.39929
# Poissons Ratio (z) = 0.11205 0.33337
#
# Static dielectric constant tensor:
#      x y z
#    x 3.475310 0.000000 0.000000 
#    y 0.000000 3.788830 0.000000 
#    z 0.000000 0.000000 3.460180 
# 
# 
# High freq. dielectric constant tensor:
#      x y z
#    x 1.736320 0.000000 0.000000 
#    y 0.000000 1.775670 0.000000 
#    z 0.000000 0.000000 1.742850 
# 
# From -- ./inp_files/27230.got.cif
#   From: 2010.03.12/outbox.cif.g09.slc.cpg/sg74_14_cif.got.tgz:27230.got - 2010.04.16 15:46:19.
