data_PCOD8299554
_publ_section_title
;
Structure prediction by ZEFSAII (Michael W. Deem and Ramdas Pophale) SiO2 
 PCOD8299554
Probable space group: I M M A
;
_chemical_formula_sum "Si O2"
_cell_formula_units_Z 128
_cell_length_a 17.477837
_cell_length_b 22.870723
_cell_length_c 16.697537
_cell_angle_alpha 90.000000
_cell_angle_beta 90.000000
_cell_angle_gamma 90.000000
_cell_volume 6674.519300
_symmetry_space_group_name_H-M "I M M A"
_symmetry_group_IT_number 74
_symmetry_cell_setting 'orthorhombic'
loop_
_space_group_symop_operation_xyz
x,y,z
-x,1/2-y,z
x,-y,-z
-x,1/2+y,-z
-x,-y,-z
x,1/2+y,-z
-x,y,z
x,1/2-y,z
1/2+x,1/2+y,1/2+z
1/2-x,-y,1/2+z
1/2+x,1/2-y,1/2-z
1/2-x,y,1/2-z
1/2-x,1/2-y,1/2-z
1/2+x,y,1/2-z
1/2-x,1/2+y,1/2+z
1/2+x,-y,1/2+z
loop_
_atom_site_type_symbol
_atom_site_label
_atom_site_fract_x
_atom_site_fract_y
_atom_site_fract_z
Si Si1 0.727957 0.865973 0.598421
Si Si2 0.746263 0.319209 0.925744
Si Si3 0.197933 0.081949 0.825173
Si Si4 0.083320 0.319262 0.524025
Si Si5 0.915132 0.610321 0.801028
Si Si6 0.588367 0.014160 0.768964
Si Si7 0.625275 0.183093 0.151064
Si Si8 0.704135 0.494155 0.090419
O O1 0.719391 0.840795 0.509387
O O2 0.643435 0.864002 0.634696
O O3 0.782504 0.823682 0.650899
O O4 0.765251 0.929542 0.605825
O O5 0.757113 0.250000 0.915510
O O6 0.793071 0.350993 0.854544
O O7 0.655686 0.338392 0.920933
O O8 0.250000 0.067308 0.750000
O O9 0.113257 0.066896 0.791758
O O10 0.225226 0.039276 0.896974
O O11 0.084899 0.250000 0.519168
O O12 0.094938 0.342764 0.433797
O O13 0.000000 0.341053 0.557342
O O14 0.893650 0.544131 0.780695
O O15 0.915093 0.647059 0.719859
O O16 0.000000 0.614061 0.838628
O O17 0.500000 0.022309 0.790482
O O18 0.633837 0.011467 0.852392
O O19 0.602075 0.250000 0.162868
O O20 0.674012 0.500000 0.000000
#
# Coordination Sequence:
#
# PCOD8299554 Si02
#       8
#    16  16  16  16  16  16  16  16
#     4  11  20  35  56  81 116 153 192 242 287 353
#     4  10  21  37  58  86 114 151 203 246 293 361
#     4  10  21  38  63  85 112 154 193 243 295 350
#     4   8  15  30  51  79 118 154 184 228 283 345
#     4  11  22  34  53  81 114 154 196 243 287 330
#     4  10  22  39  59  88 120 150 193 247 300 350
#     4  10  20  32  51  79 114 162 201 227 276 352
#     4  11  20  36  62  88 113 151 193 233 293 361
#
# _framework density 19.177410999999999
#
# number of rings (size 3 to 8) (size 9 to 14) (size 15 to 20)
#    0.000    1.875    3.750    1.875    0.000    2.750 
#    0.000    3.125    0.000    3.375    0.000    0.000 
#    0.000    0.000    0.000    0.000    0.000    0.000 
#
# Total GULP energy -793312.230119 kJ/mol
# GULP energy per Si atom -12395.503596 kJ/mol
# Density = 1.913376 g / cm^3
# Si number density = 19.177411 Si / 1000 Ang^3
#
#
#
# Elastic Constant Matrix: (Units=GPa)
#
#
# Indices 1 2 3 4 5 6 
#
# 1 91.1178 23.5326 42.0339 0.0000 0.0000 0.0000
# 2 23.5326 83.6382 28.2683 0.0000 0.0000 0.0000
# 3 42.0339 28.2683 68.8562 0.0001 0.0000 0.0000
# 4 0.0000 0.0000 0.0001 32.1663 0.0000 0.0000
# 5 0.0000 0.0000 0.0000 0.0000 20.1616 0.0000
# 6 0.0000 0.0000 0.0000 0.0000 0.0000 20.3209
#
#
#
# Elastic Compliance Matrix: (Units=1/GPa)
#
#
# Indices 1 2 3 4 5 6 
#
# 1 0.015406 -0.001342 -0.008854 0.000000 0.000000 0.000000
# 2 -0.001342 0.013999 -0.004928 0.000000 0.000000 0.000000
# 3 -0.008854 -0.004928 0.021951 0.000000 0.000000 0.000000
# 4 0.000000 0.000000 0.000000 0.031088 0.000000 0.000000
# 5 0.000000 0.000000 0.000000 0.000000 0.049599 0.000000
# 6 0.000000 0.000000 0.000000 0.000000 0.000000 0.049210
#
#
# Mechanical properties :
#
#
# Convention : Reuss Voigt Hill
#
# Bulk Modulus (GPa) = 47.37406 47.92019 47.64712
# Shear Modulus (GPa) = 22.87933 24.51492 23.69713
#
# Velocity S-wave (km/s) = 3.45778 3.57924 3.51904
# Velocity P-wave (km/s) = 6.37953 6.49025 6.43513
#
# Compressibility (1/GPa) = 0.02110860
#
# Stress axis : x y z
#
# Youngs Moduli (GPa) = 64.91103 71.43115 45.55626
#
# Poissons Ratio (x) = 0.09588 0.40333
# Poissons Ratio (y) = 0.08713 0.22450
# Poissons Ratio (z) = 0.57469 0.35201
#
# Static dielectric constant tensor:
#      x y z
#    x 3.599590 0.000000 0.000000 
#    y 0.000000 3.497590 0.000000 
#    z 0.000000 0.000000 3.343150 
# 
# 
# High freq. dielectric constant tensor:
#      x y z
#    x 1.734670 0.000000 0.000000 
#    y 0.000000 1.742800 0.000000 
#    z 0.000000 0.000000 1.726450 
# 
# From -- ./inp_files/44615.got.cif
#   From: 2010.03.12/outbox.cif.g09.slc.cpg/sg74_23_cif.got.tgz:44615.got - 2010.04.16 15:46:19.
