data_PCOD8299076
_publ_section_title
;
Structure prediction by ZEFSAII (Michael W. Deem and Ramdas Pophale) SiO2 
 PCOD8299076
Probable space group: I M M A
;
_chemical_formula_sum "Si O2"
_cell_formula_units_Z 80
_cell_length_a 8.546988
_cell_length_b 25.935941
_cell_length_c 19.814280
_cell_angle_alpha 90.000000
_cell_angle_beta 90.000000
_cell_angle_gamma 90.000000
_cell_volume 4392.314202
_symmetry_space_group_name_H-M "I M M A"
_symmetry_group_IT_number 74
_symmetry_cell_setting 'orthorhombic'
loop_
_space_group_symop_operation_xyz
x,y,z
-x,1/2-y,z
x,-y,-z
-x,1/2+y,-z
-x,-y,-z
x,1/2+y,-z
-x,y,z
x,1/2-y,z
1/2+x,1/2+y,1/2+z
1/2-x,-y,1/2+z
1/2+x,1/2-y,1/2-z
1/2-x,y,1/2-z
1/2-x,1/2-y,1/2-z
1/2+x,y,1/2-z
1/2-x,1/2+y,1/2+z
1/2+x,-y,1/2+z
loop_
_atom_site_type_symbol
_atom_site_label
_atom_site_fract_x
_atom_site_fract_y
_atom_site_fract_z
Si Si1 0.316253 0.750000 0.823589
Si Si2 0.685581 0.638022 0.174356
Si Si3 0.684850 0.443716 0.069215
Si Si4 0.181848 0.750000 0.322984
Si Si5 0.314882 0.138973 0.175467
Si Si6 0.683398 0.446365 0.574931
O O1 0.500000 0.750000 0.818837
O O2 0.250000 0.750000 0.750000
O O3 0.262701 0.804767 0.856096
O O4 0.500000 0.628405 0.174115
O O5 0.750000 0.632451 0.250000
O O6 0.728884 0.695150 0.142791
O O7 0.770717 0.596848 0.128117
O O8 0.500000 0.438855 0.058374
O O9 0.749892 0.404581 0.125551
O O10 0.726626 0.501103 0.093398
O O11 0.769176 0.428448 0.999788
O O12 0.250000 0.750000 0.250000
O O13 0.000000 0.750000 0.312626
O O14 0.500000 0.135158 0.180450
O O15 0.250000 0.129452 0.250000
O O16 0.500000 0.457063 0.578040
#
# Coordination Sequence:
#
# PCOD8299076 Si02
#       6
#     8  16  16   8  16  16
#     4   8  14  28  47  72 101 129 159 195 241 294
#     4  10  19  34  55  80 106 134 168 209 252 301
#     4  10  20  36  54  73  99 135 173 213 257 304
#     4   8  16  30  51  76 103 133 165 201 249 300
#     4   9  18  31  52  77 102 130 163 202 246 293
#     4  11  22  36  53  74 100 135 172 211 257 307
#
# _framework density 18.213633999999999
#
# number of rings (size 3 to 8) (size 9 to 14) (size 15 to 20)
#    0.000    2.400    0.000    4.200    0.000    3.200 
#    0.000    3.000    0.000    3.600    0.000    0.000 
#    0.000    0.000    0.000    0.000    0.000    0.000 
#
# Total GULP energy -495528.789039 kJ/mol
# GULP energy per Si atom -12388.219726 kJ/mol
# Density = 1.817218 g / cm^3
# Si number density = 18.213634 Si / 1000 Ang^3
#
#
#
# Elastic Constant Matrix: (Units=GPa)
#
#
# Indices 1 2 3 4 5 6 
#
# 1 37.6290 15.3371 16.0377 0.0000 0.0000 0.0000
# 2 15.3371 143.1809 81.0015 -0.0001 0.0000 0.0000
# 3 16.0377 81.0015 85.4883 -0.0003 -0.0001 0.0000
# 4 0.0000 -0.0001 -0.0003 -12.8196 0.0000 0.0001
# 5 0.0000 0.0000 -0.0001 0.0000 27.5260 0.0000
# 6 0.0000 0.0000 0.0000 0.0001 0.0000 19.8546
#
#
#
# Elastic Compliance Matrix: (Units=1/GPa)
#
#
# Indices 1 2 3 4 5 6 
#
# 1 0.028885 -0.000061 -0.005361 0.000000 0.000000 0.000000
# 2 -0.000061 0.015053 -0.014252 0.000000 0.000000 0.000000
# 3 -0.005361 -0.014252 0.026207 0.000000 0.000000 0.000000
# 4 0.000000 0.000000 0.000000 -0.078006 0.000000 0.000000
# 5 0.000000 0.000000 0.000000 0.000000 0.036329 0.000000
# 6 0.000000 0.000000 0.000000 0.000000 0.000000 0.050366
#
#
# Mechanical properties :
#
#
# Convention : Reuss Voigt Hill
#
# Bulk Modulus (GPa) = 32.47006 54.56121 43.51563
# Shear Modulus (GPa) = 38.92597 17.17367 28.04982
#
# Velocity S-wave (km/s) = 4.62799 3.07400 3.92860
# Velocity P-wave (km/s) = 6.81350 6.52845 6.67249
#
# Compressibility (1/GPa) = 0.03079760
#
# Stress axis : x y z
#
# Youngs Moduli (GPa) = 34.62003 66.43022 38.15776
#
# Poissons Ratio (x) = 0.00408 0.20455
# Poissons Ratio (y) = 0.00212 0.54382
# Poissons Ratio (z) = 0.18559 0.94675
#
# Static dielectric constant tensor:
#      x y z
#    x 3.518010 0.000000 0.000000 
#    y 0.000000 4.184410 0.000000 
#    z 0.000000 0.000000 3.187440 
# 
# 
# High freq. dielectric constant tensor:
#      x y z
#    x 1.711720 0.000000 0.000000 
#    y 0.000000 1.730010 0.000000 
#    z 0.000000 0.000000 1.674530 
# 
# From -- ./inp_files/48627.got.cif
#   From: 2010.03.12/outbox.cif.g09.slc.cpg/sg74_25_cif.got.tgz:48627.got - 2010.04.16 15:46:19.
