data_PCOD8299711
_publ_section_title
;
Structure prediction by ZEFSAII (Michael W. Deem and Ramdas Pophale) SiO2 
 PCOD8299711
Probable space group: I M M A
;
_chemical_formula_sum "Si O2"
_cell_formula_units_Z 80
_cell_length_a 9.890804
_cell_length_b 14.936350
_cell_length_c 27.660669
_cell_angle_alpha 90.000000
_cell_angle_beta 90.000000
_cell_angle_gamma 90.000000
_cell_volume 4086.380069
_symmetry_space_group_name_H-M "I M M A"
_symmetry_group_IT_number 74
_symmetry_cell_setting 'orthorhombic'
loop_
_space_group_symop_operation_xyz
x,y,z
-x,1/2-y,z
x,-y,-z
-x,1/2+y,-z
-x,-y,-z
x,1/2+y,-z
-x,y,z
x,1/2-y,z
1/2+x,1/2+y,1/2+z
1/2-x,-y,1/2+z
1/2+x,1/2-y,1/2-z
1/2-x,y,1/2-z
1/2-x,1/2-y,1/2-z
1/2+x,y,1/2-z
1/2-x,1/2+y,1/2+z
1/2+x,-y,1/2+z
loop_
_atom_site_type_symbol
_atom_site_label
_atom_site_fract_x
_atom_site_fract_y
_atom_site_fract_z
Si Si1 0.345017 0.029918 0.793582
Si Si2 0.843314 0.145931 0.612897
Si Si3 0.646252 0.651301 0.575724
Si Si4 0.346490 0.595394 0.475192
Si Si5 0.346348 0.352449 0.154875
O O1 0.500000 0.048991 0.779156
O O2 0.250000 0.061065 0.750000
O O3 0.304503 0.088427 0.840113
O O4 0.323128 0.923093 0.802026
O O5 0.811586 0.250000 0.623235
O O6 0.754509 0.110549 0.568589
O O7 0.000000 0.131786 0.599305
O O8 0.500000 0.599788 0.579585
O O9 0.627187 0.750000 0.596637
O O10 0.690004 0.660807 0.519733
O O11 0.759008 0.607920 0.610063
O O12 0.326050 0.500000 0.500000
O O13 0.500000 0.610474 0.456650
O O14 0.500000 0.356614 0.136625
O O15 0.310691 0.250000 0.171173
#
# Coordination Sequence:
#
# PCOD8299711 Si02
#       5
#    16  16  16  16  16
#     4  10  22  39  57  78 104 134 174 227 280 329
#     4  10  22  39  57  79 109 145 186 230 273 319
#     4   9  17  29  46  71 104 138 170 205 246 298
#     4  10  20  33  52  80 112 144 179 220 266 318
#     4   9  18  33  53  78 108 140 174 214 264 325
#
# _framework density 19.577228999999999
#
# number of rings (size 3 to 8) (size 9 to 14) (size 15 to 20)
#    0.000    2.400    0.000    1.800    0.000    4.800 
#    0.000    2.000    0.000    0.000    0.000    0.000 
#    0.000    0.000    0.000    0.000    0.000    0.000 
#
# Total GULP energy -495603.157158 kJ/mol
# GULP energy per Si atom -12390.078929 kJ/mol
# Density = 1.953267 g / cm^3
# Si number density = 19.577229 Si / 1000 Ang^3
#
#
#
# Elastic Constant Matrix: (Units=GPa)
#
#
# Indices 1 2 3 4 5 6 
#
# 1 93.8536 28.3813 75.0005 0.0000 0.0000 0.0000
# 2 28.3813 82.6006 30.7191 0.0000 0.0000 0.0000
# 3 75.0005 30.7191 109.2642 0.0000 0.0000 0.0000
# 4 0.0000 0.0000 0.0000 22.9486 0.0000 0.0000
# 5 0.0000 0.0000 0.0000 0.0000 44.2805 0.0000
# 6 0.0000 0.0000 0.0000 0.0000 0.0000 23.2474
#
#
#
# Elastic Compliance Matrix: (Units=1/GPa)
#
#
# Indices 1 2 3 4 5 6 
#
# 1 0.024008 -0.002368 -0.015814 0.000000 0.000000 0.000000
# 2 -0.002368 0.013754 -0.002241 0.000000 0.000000 0.000000
# 3 -0.015814 -0.002241 0.020637 0.000000 0.000000 0.000000
# 4 0.000000 0.000000 0.000000 0.043576 0.000000 0.000000
# 5 0.000000 0.000000 0.000000 0.000000 0.022583 0.000000
# 6 0.000000 0.000000 0.000000 0.000000 0.000000 0.043016
#
#
# Mechanical properties :
#
#
# Convention : Reuss Voigt Hill
#
# Bulk Modulus (GPa) = 56.97154 61.54668 59.25911
# Shear Modulus (GPa) = 23.33504 28.20316 25.76910
#
# Velocity S-wave (km/s) = 3.45621 3.79965 3.63199
# Velocity P-wave (km/s) = 6.71500 7.12432 6.92269
#
# Compressibility (1/GPa) = 0.01755262
#
# Stress axis : x y z
#
# Youngs Moduli (GPa) = 41.65270 72.70803 48.45659
#
# Poissons Ratio (x) = 0.17217 0.76628
# Poissons Ratio (y) = 0.09863 0.10861
# Poissons Ratio (z) = 0.65868 0.16297
#
# Static dielectric constant tensor:
#      x y z
#    x 3.757610 0.000000 0.000000 
#    y 0.000000 3.582460 0.000000 
#    z 0.000000 0.000000 3.531820 
# 
# 
# High freq. dielectric constant tensor:
#      x y z
#    x 1.762490 0.000000 0.000000 
#    y 0.000000 1.770250 0.000000 
#    z 0.000000 0.000000 1.743860 
# 
# From -- ./inp_files/63963.got.cif
#   From: 2010.03.12/outbox.cif.g09.slc.cpg/sg74_32_cif.got.tgz:63963.got - 2010.04.16 15:46:19.
