data_PCOD8299826
_publ_section_title
;
Structure prediction by ZEFSAII (Michael W. Deem and Ramdas Pophale) SiO2 
 PCOD8299826
Probable space group: I M M A
;
_chemical_formula_sum "Si O2"
_cell_formula_units_Z 64
_cell_length_a 8.716100
_cell_length_b 26.893162
_cell_length_c 14.718955
_cell_angle_alpha 90.000000
_cell_angle_beta 90.000000
_cell_angle_gamma 90.000000
_cell_volume 3450.174411
_symmetry_space_group_name_H-M "I M M A"
_symmetry_group_IT_number 74
_symmetry_cell_setting 'orthorhombic'
loop_
_space_group_symop_operation_xyz
x,y,z
-x,1/2-y,z
x,-y,-z
-x,1/2+y,-z
-x,-y,-z
x,1/2+y,-z
-x,y,z
x,1/2-y,z
1/2+x,1/2+y,1/2+z
1/2-x,-y,1/2+z
1/2+x,1/2-y,1/2-z
1/2-x,y,1/2-z
1/2-x,1/2-y,1/2-z
1/2+x,y,1/2-z
1/2-x,1/2+y,1/2+z
1/2+x,-y,1/2+z
loop_
_atom_site_type_symbol
_atom_site_label
_atom_site_fract_x
_atom_site_fract_y
_atom_site_fract_z
Si Si1 0.178614 0.807764 0.345711
Si Si2 0.319782 0.917502 0.845007
Si Si3 0.320192 0.467241 0.844615
Si Si4 0.818657 0.387501 0.973234
O O1 0.208518 0.750000 0.364977
O O2 0.250000 0.824102 0.250000
O O3 0.260658 0.837701 0.425218
O O4 0.000000 0.821114 0.343789
O O5 0.500000 0.907665 0.845405
O O6 0.250000 0.899083 0.750000
O O7 0.280467 0.975324 0.860718
O O8 0.240348 0.885598 0.923630
O O9 0.500000 0.457131 0.842715
O O10 0.250000 0.448150 0.750000
O O11 0.247226 0.436758 0.926404
O O12 0.000000 0.389381 0.971010
#
# Coordination Sequence:
#
# PCOD8299826 Si02
#       4
#    16  16  16  16
#     4  10  21  38  59  82 109 139 172 214 264 317
#     4  10  21  37  55  76 105 141 181 223 265 309
#     4  10  20  34  52  76 108 143 179 220 263 311
#     4  12  23  34  53  79 108 142 179 218 261 314
#
# _framework density 18.549786000000001
#
# number of rings (size 3 to 8) (size 9 to 14) (size 15 to 20)
#    0.000    1.500    0.000    6.000    0.000    7.500 
#    0.000    0.000    0.000    0.750    0.000    0.000 
#    0.000    0.000    0.000    0.000    0.000    0.000 
#
# Total GULP energy -397012.321331 kJ/mol
# GULP energy per Si atom -12406.635042 kJ/mol
# Density = 1.850757 g / cm^3
# Si number density = 18.549786 Si / 1000 Ang^3
#
#
#
# Elastic Constant Matrix: (Units=GPa)
#
#
# Indices 1 2 3 4 5 6 
#
# 1 128.9558 37.6413 68.1779 -0.0002 -0.0001 0.0000
# 2 37.6413 60.3521 54.8058 -0.0005 0.0000 0.0000
# 3 68.1779 54.8058 162.4236 -0.0026 0.0001 -0.0002
# 4 -0.0002 -0.0005 -0.0026 33.8158 0.0000 -0.0001
# 5 -0.0001 0.0000 0.0001 0.0000 39.0681 -0.0002
# 6 0.0000 0.0000 -0.0002 -0.0001 -0.0002 26.3204
#
#
#
# Elastic Compliance Matrix: (Units=1/GPa)
#
#
# Indices 1 2 3 4 5 6 
#
# 1 0.010502 -0.003672 -0.003169 0.000000 0.000000 0.000000
# 2 -0.003672 0.025174 -0.006953 0.000000 0.000000 0.000000
# 3 -0.003169 -0.006953 0.009833 0.000001 0.000000 0.000000
# 4 0.000000 0.000000 0.000001 0.029572 0.000000 0.000000
# 5 0.000000 0.000000 0.000000 0.000000 0.025596 0.000000
# 6 0.000000 0.000000 0.000000 0.000000 0.000000 0.037993
#
#
# Mechanical properties :
#
#
# Convention : Reuss Voigt Hill
#
# Bulk Modulus (GPa) = 55.80225 74.77572 65.28898
# Shear Modulus (GPa) = 29.03062 32.58130 30.80596
#
# Velocity S-wave (km/s) = 3.96031 4.19552 4.07961
# Velocity P-wave (km/s) = 7.14562 7.99176 7.58050
#
# Compressibility (1/GPa) = 0.01792042
#
# Stress axis : x y z
#
# Youngs Moduli (GPa) = 95.22014 39.72418 101.69757
#
# Poissons Ratio (x) = 0.14587 0.32230
# Poissons Ratio (y) = 0.34966 0.70708
# Poissons Ratio (z) = 0.30177 0.27620
#
# Static dielectric constant tensor:
#      x y z
#    x 3.562180 0.000000 0.000000 
#    y 0.000000 3.231400 0.000000 
#    z 0.000000 0.000000 3.513620 
# 
# 
# High freq. dielectric constant tensor:
#      x y z
#    x 1.740560 0.000000 0.000000 
#    y 0.000000 1.697180 0.000000 
#    z 0.000000 0.000000 1.725810 
# 
# From -- ./inp_files/17560.got.cif
#   From: 2010.03.12/outbox.cif.g09.slc.cpg/sg74_9_cif.got.tgz:17560.got - 2010.04.16 15:46:19.
