data_PCOD8299613
_publ_section_title
;
Structure prediction by ZEFSAII (Michael W. Deem and Ramdas Pophale) SiO2 
 PCOD8299613
Probable space group: I M M A
;
_chemical_formula_sum "Si O2"
_cell_formula_units_Z 80
_cell_length_a 30.709988
_cell_length_b 8.988694
_cell_length_c 18.402159
_cell_angle_alpha 90.000000
_cell_angle_beta 90.000000
_cell_angle_gamma 90.000000
_cell_volume 5079.781378
_symmetry_space_group_name_H-M "I M M A"
_symmetry_group_IT_number 74
_symmetry_cell_setting 'orthorhombic'
loop_
_space_group_symop_operation_xyz
x,y,z
-x,1/2-y,z
x,-y,-z
-x,1/2+y,-z
-x,-y,-z
x,1/2+y,-z
-x,y,z
x,1/2-y,z
1/2+x,1/2+y,1/2+z
1/2-x,-y,1/2+z
1/2+x,1/2-y,1/2-z
1/2-x,y,1/2-z
1/2-x,1/2-y,1/2-z
1/2+x,y,1/2-z
1/2-x,1/2+y,1/2+z
1/2+x,-y,1/2+z
loop_
_atom_site_type_symbol
_atom_site_label
_atom_site_fract_x
_atom_site_fract_y
_atom_site_fract_z
Si Si1 0.550752 0.422441 0.574149
Si Si2 0.709156 0.918569 0.659226
Si Si3 0.782132 0.422784 0.573467
Si Si4 0.613565 0.918050 0.681071
Si Si5 0.170056 0.922655 0.282802
O O1 0.565966 0.500000 0.500000
O O2 0.500000 0.449723 0.588340
O O3 0.562393 0.250000 0.567766
O O4 0.575745 0.492526 0.641723
O O5 0.726458 0.750000 0.668050
O O6 0.658284 0.919321 0.633287
O O7 0.737081 0.004509 0.599478
O O8 0.710192 0.002453 0.737701
O O9 0.798337 0.500000 0.500000
O O10 0.773227 0.250000 0.559364
O O11 0.820436 0.447503 0.632247
O O12 0.597657 0.750000 0.695674
O O13 0.624703 0.997601 0.758866
O O14 0.167613 0.750000 0.262440
#
# Coordination Sequence:
#
# PCOD8299613 Si02
#       5
#    16  16  16  16  16
#     4  10  20  33  50  71  96 125 153 186 227 269
#     4   9  19  32  48  67  89 120 155 192 231 272
#     4  11  22  32  46  66  91 122 155 193 235 273
#     4   9  19  32  49  69  89 121 155 189 229 270
#     4   9  18  33  49  66  88 118 155 192 230 272
#
# _framework density 15.748709
#
# number of rings (size 3 to 8) (size 9 to 14) (size 15 to 20)
#    1.200    1.200    0.000    3.000    0.000    7.600 
#    0.000    0.000    0.000    0.000    0.000    0.000 
#    0.000    0.800    0.000    2.600    0.000    3.200 
#
# Total GULP energy -495715.091056 kJ/mol
# GULP energy per Si atom -12392.877276 kJ/mol
# Density = 1.571286 g / cm^3
# Si number density = 15.748709 Si / 1000 Ang^3
#
#
#
# Elastic Constant Matrix: (Units=GPa)
#
#
# Indices 1 2 3 4 5 6 
#
# 1 39.4987 41.4271 35.9136 0.0000 0.0000 0.0000
# 2 41.4271 145.6877 64.8046 0.0000 0.0000 0.0000
# 3 35.9136 64.8046 99.8483 0.0000 0.0000 0.0000
# 4 0.0000 0.0000 0.0000 28.8658 0.0000 0.0000
# 5 0.0000 0.0000 0.0000 0.0000 22.1720 0.0000
# 6 0.0000 0.0000 0.0000 0.0000 0.0000 20.1794
#
#
#
# Elastic Compliance Matrix: (Units=1/GPa)
#
#
# Indices 1 2 3 4 5 6 
#
# 1 0.042710 -0.007467 -0.010516 0.000000 0.000000 0.000000
# 2 -0.007467 0.010956 -0.004425 0.000000 0.000000 0.000000
# 3 -0.010516 -0.004425 0.016669 0.000000 0.000000 0.000000
# 4 0.000000 0.000000 0.000000 0.034643 0.000000 0.000000
# 5 0.000000 0.000000 0.000000 0.000000 0.045102 0.000000
# 6 0.000000 0.000000 0.000000 0.000000 0.000000 0.049556
#
#
# Mechanical properties :
#
#
# Convention : Reuss Voigt Hill
#
# Bulk Modulus (GPa) = 39.18506 63.25838 51.22172
# Shear Modulus (GPa) = 19.76616 23.76939 21.76778
#
# Velocity S-wave (km/s) = 3.54658 3.88917 3.72182
# Velocity P-wave (km/s) = 6.45805 7.77317 7.14593
#
# Compressibility (1/GPa) = 0.02551993
#
# Stress axis : x y z
#
# Youngs Moduli (GPa) = 23.41348 91.27807 59.99110
#
# Poissons Ratio (x) = 0.68161 0.63084
# Poissons Ratio (y) = 0.17484 0.26544
# Poissons Ratio (z) = 0.24621 0.40387
#
# Static dielectric constant tensor:
#      x y z
#    x 2.699080 0.000000 0.000000 
#    y 0.000000 3.192620 0.000000 
#    z 0.000000 0.000000 2.783850 
# 
# 
# High freq. dielectric constant tensor:
#      x y z
#    x 1.571010 0.000000 0.000000 
#    y 0.000000 1.630630 0.000000 
#    z 0.000000 0.000000 1.580720 
# 
# From -- ./inp_files/55493.got.cif
#   From: 2010.03.12/outbox.cif.g09.slc.cpg/sg74_28_cif.got.tgz:55493.got - 2010.04.16 15:46:19.
