data_PCOD8299796
_publ_section_title
;
Structure prediction by ZEFSAII (Michael W. Deem and Ramdas Pophale) SiO2 
 PCOD8299796
Probable space group: I M M A
;
_chemical_formula_sum "Si O2"
_cell_formula_units_Z 96
_cell_length_a 24.993798
_cell_length_b 8.857590
_cell_length_c 25.283163
_cell_angle_alpha 90.000000
_cell_angle_beta 90.000000
_cell_angle_gamma 90.000000
_cell_volume 5597.308369
_symmetry_space_group_name_H-M "I M M A"
_symmetry_group_IT_number 74
_symmetry_cell_setting 'orthorhombic'
loop_
_space_group_symop_operation_xyz
x,y,z
-x,1/2-y,z
x,-y,-z
-x,1/2+y,-z
-x,-y,-z
x,1/2+y,-z
-x,y,z
x,1/2-y,z
1/2+x,1/2+y,1/2+z
1/2-x,-y,1/2+z
1/2+x,1/2-y,1/2-z
1/2-x,y,1/2-z
1/2-x,1/2-y,1/2-z
1/2+x,y,1/2-z
1/2-x,1/2+y,1/2+z
1/2+x,-y,1/2+z
loop_
_atom_site_type_symbol
_atom_site_label
_atom_site_fract_x
_atom_site_fract_y
_atom_site_fract_z
Si Si1 0.063290 0.423318 0.639417
Si Si2 0.561500 0.427832 0.647614
Si Si3 0.638569 0.071216 0.057925
Si Si4 0.743006 0.926436 0.056899
Si Si5 0.638979 0.425745 0.556689
Si Si6 0.436430 0.419852 0.245498
O O1 0.080888 0.250000 0.633833
O O2 0.088423 0.521743 0.592808
O O3 0.084623 0.484427 0.695687
O O4 0.000000 0.442476 0.634774
O O5 0.500000 0.472143 0.637003
O O6 0.568392 0.250000 0.655159
O O7 0.595870 0.489494 0.598258
O O8 0.584418 0.505604 0.700407
O O9 0.640225 0.250000 0.053260
O O10 0.693478 0.009866 0.086150
O O11 0.632038 0.000000 0.000000
O O12 0.729729 0.750000 0.052925
O O13 0.801756 0.955183 0.081901
O O14 0.746038 0.000000 0.000000
O O15 0.629921 0.500000 0.500000
O O16 0.629990 0.250000 0.547292
O O17 0.500000 0.421564 0.245798
O O18 0.414087 0.250000 0.241156
#
# Coordination Sequence:
#
# PCOD8299796 Si02
#       6
#    16  16  16  16  16  16
#     4  10  20  34  52  73  97 126 157 189 230 279
#     4   9  17  30  47  68  96 129 162 195 235 284
#     4  11  21  33  50  72  98 126 157 193 234 278
#     4   9  16  29  47  66  90 121 160 199 234 276
#     4   9  18  30  46  69  96 127 161 198 239 282
#     4   9  17  30  48  70  94 122 159 198 233 273
#
# _framework density 17.151101000000001
#
# number of rings (size 3 to 8) (size 9 to 14) (size 15 to 20)
#    0.000    2.500    0.000    4.000    0.000    5.000 
#    0.000    0.000    0.000    1.000    0.000    7.000 
#    0.000    0.000    0.000    0.000    0.000    0.000 
#
# Total GULP energy -594969.267466 kJ/mol
# GULP energy per Si atom -12395.193072 kJ/mol
# Density = 1.711206 g / cm^3
# Si number density = 17.151101 Si / 1000 Ang^3
#
#
#
# Elastic Constant Matrix: (Units=GPa)
#
#
# Indices 1 2 3 4 5 6 
#
# 1 69.5396 43.8947 51.9246 0.0000 0.0000 0.0000
# 2 43.8947 110.5420 51.5276 0.0000 0.0000 0.0000
# 3 51.9246 51.5276 107.9448 0.0000 0.0000 0.0000
# 4 0.0000 0.0000 0.0000 28.6030 0.0000 0.0000
# 5 0.0000 0.0000 0.0000 0.0000 4.3475 0.0000
# 6 0.0000 0.0000 0.0000 0.0000 0.0000 22.5432
#
#
#
# Elastic Compliance Matrix: (Units=1/GPa)
#
#
# Indices 1 2 3 4 5 6 
#
# 1 0.024805 -0.005515 -0.009299 0.000000 0.000000 0.000000
# 2 -0.005515 0.012861 -0.003487 0.000000 0.000000 0.000000
# 3 -0.009299 -0.003487 0.015402 0.000000 0.000000 0.000000
# 4 0.000000 0.000000 0.000000 0.034961 0.000000 0.000000
# 5 0.000000 0.000000 0.000000 0.000000 0.230016 0.000000
# 6 0.000000 0.000000 0.000000 0.000000 0.000000 0.044359
#
#
# Mechanical properties :
#
#
# Convention : Reuss Voigt Hill
#
# Bulk Modulus (GPa) = 60.73006 64.74670 62.73838
# Shear Modulus (GPa) = 12.36105 20.47737 16.41921
#
# Velocity S-wave (km/s) = 2.68753 3.45909 3.09743
# Velocity P-wave (km/s) = 6.71685 7.33392 7.03216
#
# Compressibility (1/GPa) = 0.01646631
#
# Stress axis : x y z
#
# Youngs Moduli (GPa) = 40.31393 77.75157 64.92820
#
# Poissons Ratio (x) = 0.42880 0.60380
# Poissons Ratio (y) = 0.22233 0.22638
# Poissons Ratio (z) = 0.37490 0.27109
#
# Static dielectric constant tensor:
#      x y z
#    x 3.656820 0.000000 0.000000 
#    y 0.000000 3.325050 0.000000 
#    z 0.000000 0.000000 3.125600 
# 
# 
# High freq. dielectric constant tensor:
#      x y z
#    x 1.648660 0.000000 0.000000 
#    y 0.000000 1.674120 0.000000 
#    z 0.000000 0.000000 1.642330 
# 
# From -- ./inp_files/57281.got.cif
#   From: 2010.03.12/outbox.cif.g09.slc.cpg/sg74_29_cif.got.tgz:57281.got - 2010.04.16 15:46:19.
