data_PCOD8299909
_publ_section_title
;
Structure prediction by ZEFSAII (Michael W. Deem and Ramdas Pophale) SiO2 
 PCOD8299909
Probable space group: I M M A
;
_chemical_formula_sum "Si O2"
_cell_formula_units_Z 96
_cell_length_a 9.294978
_cell_length_b 21.029586
_cell_length_c 24.350035
_cell_angle_alpha 90.000000
_cell_angle_beta 90.000000
_cell_angle_gamma 90.000000
_cell_volume 4759.690121
_symmetry_space_group_name_H-M "I M M A"
_symmetry_group_IT_number 74
_symmetry_cell_setting 'orthorhombic'
loop_
_space_group_symop_operation_xyz
x,y,z
-x,1/2-y,z
x,-y,-z
-x,1/2+y,-z
-x,-y,-z
x,1/2+y,-z
-x,y,z
x,1/2-y,z
1/2+x,1/2+y,1/2+z
1/2-x,-y,1/2+z
1/2+x,1/2-y,1/2-z
1/2-x,y,1/2-z
1/2-x,1/2-y,1/2-z
1/2+x,y,1/2-z
1/2-x,1/2+y,1/2+z
1/2+x,-y,1/2+z
loop_
_atom_site_type_symbol
_atom_site_label
_atom_site_fract_x
_atom_site_fract_y
_atom_site_fract_z
Si Si1 0.670636 0.074928 0.999226
Si Si2 0.336065 0.085178 0.394354
Si Si3 0.669586 0.678591 0.424814
Si Si4 0.837612 0.820315 0.798616
Si Si5 0.335866 0.655063 0.302372
Si Si6 0.164580 0.006531 0.801900
O O1 0.500000 0.082373 0.992979
O O2 0.744350 0.120517 0.953468
O O3 0.726173 0.100239 0.057188
O O4 0.716285 0.000000 0.000000
O O5 0.500000 0.075973 0.416266
O O6 0.323388 0.145949 0.356328
O O7 0.283531 0.023938 0.359348
O O8 0.500000 0.662586 0.429841
O O9 0.701631 0.750000 0.449370
O O10 0.715420 0.683056 0.360616
O O11 0.774625 0.750000 0.807840
O O12 0.750000 0.855259 0.750000
O O13 0.000000 0.819074 0.778219
O O14 0.500000 0.673132 0.291258
O O15 0.250000 0.683182 0.250000
O O16 0.310629 0.580528 0.307118
O O17 0.250000 0.978713 0.750000
O O18 0.000000 0.986432 0.792412
#
# Coordination Sequence:
#
# PCOD8299909 Si02
#       6
#    16  16  16  16  16  16
#     4  11  25  42  60  85 116 151 194 245 298 348
#     4  10  20  34  54  78 105 143 190 236 283 339
#     4  10  22  41  64  88 116 153 196 240 287 343
#     4   9  18  32  50  75 108 144 182 225 275 333
#     4   9  18  33  54  82 114 146 181 222 273 335
#     4   9  17  29  48  76 109 144 182 227 279 333
#
# _framework density 20.16938
#
# number of rings (size 3 to 8) (size 9 to 14) (size 15 to 20)
#    0.000    2.333    0.000    2.000    0.000    6.000 
#    0.000    5.000    0.000    0.000    0.000    0.000 
#    0.000    0.000    0.000    0.000    0.000    0.000 
#
# Total GULP energy -594800.183991 kJ/mol
# GULP energy per Si atom -12391.670500 kJ/mol
# Density = 2.012347 g / cm^3
# Si number density = 20.169380 Si / 1000 Ang^3
#
#
#
# Elastic Constant Matrix: (Units=GPa)
#
#
# Indices 1 2 3 4 5 6 
#
# 1 79.2140 45.4456 58.9958 0.0000 0.0000 0.0000
# 2 45.4456 98.4175 46.3018 0.0000 0.0000 0.0000
# 3 58.9958 46.3018 120.7214 0.0000 0.0000 0.0000
# 4 0.0000 0.0000 0.0000 132.6692 0.0000 0.0000
# 5 0.0000 0.0000 0.0000 0.0000 40.7730 0.0000
# 6 0.0000 0.0000 0.0000 0.0000 0.0000 15.3133
#
#
#
# Elastic Compliance Matrix: (Units=1/GPa)
#
#
# Indices 1 2 3 4 5 6 
#
# 1 0.022765 -0.006440 -0.008655 0.000000 0.000000 0.000000
# 2 -0.006440 0.014220 -0.002307 0.000000 0.000000 0.000000
# 3 -0.008655 -0.002307 0.013398 0.000000 0.000000 0.000000
# 4 0.000000 0.000000 0.000000 0.007538 0.000000 0.000000
# 5 0.000000 0.000000 0.000000 0.000000 0.024526 0.000000
# 6 0.000000 0.000000 0.000000 0.000000 0.000000 0.065303
#
#
# Mechanical properties :
#
#
# Convention : Reuss Voigt Hill
#
# Bulk Modulus (GPa) = 64.18904 66.64881 65.41893
# Shear Modulus (GPa) = 26.63193 47.59177 37.11185
#
# Velocity S-wave (km/s) = 3.63769 4.86285 4.29419
# Velocity P-wave (km/s) = 7.03831 8.04027 7.55592
#
# Compressibility (1/GPa) = 0.01557898
#
# Stress axis : x y z
#
# Youngs Moduli (GPa) = 43.92783 70.32464 74.63893
#
# Poissons Ratio (x) = 0.45289 0.64599
# Poissons Ratio (y) = 0.28290 0.17217
# Poissons Ratio (z) = 0.38019 0.16222
#
# Static dielectric constant tensor:
#      x y z
#    x 3.671500 0.000000 0.000000 
#    y 0.000000 3.748330 0.000000 
#    z 0.000000 0.000000 3.708720 
# 
# 
# High freq. dielectric constant tensor:
#      x y z
#    x 1.770880 0.000000 0.000000 
#    y 0.000000 1.802960 0.000000 
#    z 0.000000 0.000000 1.785350 
# 
# From -- ./inp_files/57258.got.cif
#   From: 2010.03.12/outbox.cif.g09.slc.cpg/sg74_29_cif.got.tgz:57258.got - 2010.04.16 15:46:19.
