data_PCOD8299537
_publ_section_title
;
Structure prediction by ZEFSAII (Michael W. Deem and Ramdas Pophale) SiO2 
 PCOD8299537
Probable space group: I M M A
;
_chemical_formula_sum "Si O2"
_cell_formula_units_Z 104
_cell_length_a 8.995410
_cell_length_b 21.623965
_cell_length_c 27.389777
_cell_angle_alpha 90.000000
_cell_angle_beta 90.000000
_cell_angle_gamma 90.000000
_cell_volume 5327.761668
_symmetry_space_group_name_H-M "I M M A"
_symmetry_group_IT_number 74
_symmetry_cell_setting 'orthorhombic'
loop_
_space_group_symop_operation_xyz
x,y,z
-x,1/2-y,z
x,-y,-z
-x,1/2+y,-z
-x,-y,-z
x,1/2+y,-z
-x,y,z
x,1/2-y,z
1/2+x,1/2+y,1/2+z
1/2-x,-y,1/2+z
1/2+x,1/2-y,1/2-z
1/2-x,y,1/2-z
1/2-x,1/2-y,1/2-z
1/2+x,y,1/2-z
1/2-x,1/2+y,1/2+z
1/2+x,-y,1/2+z
loop_
_atom_site_type_symbol
_atom_site_label
_atom_site_fract_x
_atom_site_fract_y
_atom_site_fract_z
Si Si1 0.175967 0.177746 0.970759
Si Si2 0.672261 0.356065 0.871693
Si Si3 0.827264 0.535392 0.300490
Si Si4 0.174429 0.180858 0.298525
Si Si5 0.822716 0.564083 0.526491
Si Si6 0.828945 0.750000 0.300251
Si Si7 0.175023 0.573583 0.635788
O O1 0.224630 0.250000 0.980877
O O2 0.221813 0.156959 0.916875
O O3 0.000000 0.171854 0.976577
O O4 0.253669 0.127684 0.005929
O O5 0.500000 0.348742 0.888208
O O6 0.704144 0.421625 0.847288
O O7 0.719341 0.309323 0.829957
O O8 0.750000 0.555274 0.250000
O O9 0.764120 0.470637 0.321039
O O10 0.000000 0.534260 0.287625
O O11 0.232061 0.250000 0.308460
O O12 0.250000 0.153301 0.250000
O O13 0.218710 0.142360 0.346760
O O14 0.000000 0.178221 0.289333
O O15 0.772039 0.500000 0.500000
O O16 0.761715 0.559565 0.582010
O O17 0.000000 0.570930 0.522877
O O18 0.750000 0.750000 0.250000
O O19 0.000000 0.750000 0.288214
O O20 0.000000 0.563417 0.632548
#
# Coordination Sequence:
#
# PCOD8299537 Si02
#       7
#    16  16  16  16  16   8  16
#     4  11  24  40  59  86 118 152 192 244 301 355
#     4  10  20  36  56  78 107 147 192 232 275 334
#     4  10  20  34  54  81 113 146 183 228 276 332
#     4   9  17  30  49  73 102 135 171 210 255 313
#     4  10  21  39  63  87 112 148 194 242 291 347
#     4  10  20  32  50  76 106 140 182 228 275 330
#     4   9  18  33  53  78 106 138 179 224 270 327
#
# _framework density 19.520392999999999
#
# number of rings (size 3 to 8) (size 9 to 14) (size 15 to 20)
#    0.000    2.154    0.769    2.308    0.000    5.538 
#    0.000    3.077    0.000    1.846    0.000    0.000 
#    0.000    0.000    0.000    0.000    0.000    0.000 
#
# Total GULP energy -644415.594999 kJ/mol
# GULP energy per Si atom -12392.607596 kJ/mol
# Density = 1.947596 g / cm^3
# Si number density = 19.520393 Si / 1000 Ang^3
#
#
#
# Elastic Constant Matrix: (Units=GPa)
#
#
# Indices 1 2 3 4 5 6 
#
# 1 38.5232 32.1047 30.2791 0.0000 0.0000 0.0000
# 2 32.1047 119.8470 52.8219 0.0000 0.0000 0.0000
# 3 30.2791 52.8219 115.4630 0.0000 0.0000 0.0000
# 4 0.0000 0.0000 0.0000 409.6364 0.0000 0.0000
# 5 0.0000 0.0000 0.0000 0.0000 31.2133 0.0000
# 6 0.0000 0.0000 0.0000 0.0000 0.0000 26.6628
#
#
#
# Elastic Compliance Matrix: (Units=1/GPa)
#
#
# Indices 1 2 3 4 5 6 
#
# 1 0.036899 -0.007039 -0.006456 0.000000 0.000000 0.000000
# 2 -0.007039 0.011794 -0.003550 0.000000 0.000000 0.000000
# 3 -0.006456 -0.003550 0.011978 0.000000 0.000000 0.000000
# 4 0.000000 0.000000 0.000000 0.002441 0.000000 0.000000
# 5 0.000000 0.000000 0.000000 0.000000 0.032038 0.000000
# 6 0.000000 0.000000 0.000000 0.000000 0.000000 0.037505
#
#
# Mechanical properties :
#
#
# Convention : Reuss Voigt Hill
#
# Bulk Modulus (GPa) = 37.62056 56.02717 46.82386
# Shear Modulus (GPa) = 28.47293 104.07767 66.27530
#
# Velocity S-wave (km/s) = 3.82334 7.30980 5.83314
# Velocity P-wave (km/s) = 6.22935 10.00042 8.33106
#
# Compressibility (1/GPa) = 0.02658121
#
# Stress axis : x y z
#
# Youngs Moduli (GPa) = 27.10088 84.78842 83.48811
#
# Poissons Ratio (x) = 0.59683 0.53902
# Poissons Ratio (y) = 0.19076 0.29635
# Poissons Ratio (z) = 0.17497 0.30097
#
# Static dielectric constant tensor:
#      x y z
#    x 3.282010 0.000000 0.000000 
#    y 0.000000 3.943110 0.000000 
#    z 0.000000 0.000000 3.663970 
# 
# 
# High freq. dielectric constant tensor:
#      x y z
#    x 1.728540 0.000000 0.000000 
#    y 0.000000 1.778960 0.000000 
#    z 0.000000 0.000000 1.766110 
# 
# From -- ./inp_files/64457.got.cif
#   From: 2010.03.12/outbox.cif.g09.slc.cpg/sg74_33_cif.got.tgz:64457.got - 2010.04.16 15:46:19.
