data_PCOD8299817
_publ_section_title
;
Structure prediction by ZEFSAII (Michael W. Deem and Ramdas Pophale) SiO2 
 PCOD8299817
Probable space group: I M M A
;
_chemical_formula_sum "Si O2"
_cell_formula_units_Z 96
_cell_length_a 8.854292
_cell_length_b 16.671837
_cell_length_c 28.522463
_cell_angle_alpha 90.000000
_cell_angle_beta 90.000000
_cell_angle_gamma 90.000000
_cell_volume 4210.409347
_symmetry_space_group_name_H-M "I M M A"
_symmetry_group_IT_number 74
_symmetry_cell_setting 'orthorhombic'
loop_
_space_group_symop_operation_xyz
x,y,z
-x,1/2-y,z
x,-y,-z
-x,1/2+y,-z
-x,-y,-z
x,1/2+y,-z
-x,y,z
x,1/2-y,z
1/2+x,1/2+y,1/2+z
1/2-x,-y,1/2+z
1/2+x,1/2-y,1/2-z
1/2-x,y,1/2-z
1/2-x,1/2-y,1/2-z
1/2+x,y,1/2-z
1/2-x,1/2+y,1/2+z
1/2+x,-y,1/2+z
loop_
_atom_site_type_symbol
_atom_site_label
_atom_site_fract_x
_atom_site_fract_y
_atom_site_fract_z
Si Si1 0.823920 0.927670 0.862844
Si Si2 0.823677 0.340788 0.442690
Si Si3 0.175098 0.565625 0.300547
Si Si4 0.334469 0.159065 0.207081
Si Si5 0.175572 0.159053 0.609890
Si Si6 0.321736 0.083263 0.524266
O O1 0.764216 0.912722 0.915336
O O2 0.776154 0.844370 0.837823
O O3 0.000000 0.946678 0.864695
O O4 0.738471 0.990722 0.829937
O O5 0.791447 0.250000 0.424762
O O6 0.763116 0.346306 0.495793
O O7 0.000000 0.359723 0.439792
O O8 0.250000 0.580177 0.250000
O O9 0.203682 0.641349 0.334933
O O10 0.000000 0.551578 0.290832
O O11 0.500000 0.119758 0.197862
O O12 0.360711 0.250000 0.221428
O O13 0.250000 0.113263 0.250000
O O14 0.230416 0.250000 0.600233
O O15 0.268454 0.094169 0.578415
O O16 0.000000 0.148578 0.597447
O O17 0.500000 0.094874 0.522302
O O18 0.272184 0.000000 0.500000
#
# Coordination Sequence:
#
# PCOD8299817 Si02
#       6
#    16  16  16  16  16  16
#     4  12  24  38  58  85 120 160 206 258 311 370
#     4  11  24  41  62  90 126 169 216 264 316 377
#     4  11  24  43  67  94 127 165 208 261 320 381
#     4  10  20  34  52  75 106 147 197 251 308 369
#     4  10  23  44  69  97 129 167 211 259 315 379
#     4  11  24  41  64  97 134 170 212 261 312 370
#
# _framework density 22.800633999999999
#
# number of rings (size 3 to 8) (size 9 to 14) (size 15 to 20)
#    0.000    1.167    0.000    6.000    0.000   12.333 
#    0.000    0.000    0.000    0.000    0.000    0.000 
#    0.000    0.000    0.000    0.000    0.000    0.000 
#
# Total GULP energy -594871.202278 kJ/mol
# GULP energy per Si atom -12393.150047 kJ/mol
# Density = 2.274874 g / cm^3
# Si number density = 22.800634 Si / 1000 Ang^3
#
#
#
# Elastic Constant Matrix: (Units=GPa)
#
#
# Indices 1 2 3 4 5 6 
#
# 1 142.1960 43.5116 55.7673 0.0000 0.0000 0.0000
# 2 43.5116 87.0550 39.5071 0.0000 0.0000 0.0000
# 3 55.7673 39.5071 137.8808 0.0000 0.0000 0.0000
# 4 0.0000 0.0000 0.0000 33.1564 0.0000 0.0000
# 5 0.0000 0.0000 0.0000 0.0000 45.2518 0.0000
# 6 0.0000 0.0000 0.0000 0.0000 0.0000 21.5690
#
#
#
# Elastic Compliance Matrix: (Units=1/GPa)
#
#
# Indices 1 2 3 4 5 6 
#
# 1 0.009121 -0.003316 -0.002739 0.000000 0.000000 0.000000
# 2 -0.003316 0.014409 -0.002788 0.000000 0.000000 0.000000
# 3 -0.002739 -0.002788 0.009159 0.000000 0.000000 0.000000
# 4 0.000000 0.000000 0.000000 0.030160 0.000000 0.000000
# 5 0.000000 0.000000 0.000000 0.000000 0.022099 0.000000
# 6 0.000000 0.000000 0.000000 0.000000 0.000000 0.046363
#
#
# Mechanical properties :
#
#
# Convention : Reuss Voigt Hill
#
# Bulk Modulus (GPa) = 66.64556 71.63377 69.13966
# Shear Modulus (GPa) = 32.46780 35.21849 33.84315
#
# Velocity S-wave (km/s) = 3.77767 3.93444 3.85685
# Velocity P-wave (km/s) = 6.95132 7.21979 7.08683
#
# Compressibility (1/GPa) = 0.01500475
#
# Stress axis : x y z
#
# Youngs Moduli (GPa) = 109.63116 69.39895 109.17944
#
# Poissons Ratio (x) = 0.23013 0.29906
# Poissons Ratio (y) = 0.36354 0.30434
# Poissons Ratio (z) = 0.30030 0.19345
#
# Static dielectric constant tensor:
#      x y z
#    x 4.167920 0.000000 0.000000 
#    y 0.000000 4.089000 0.000000 
#    z 0.000000 0.000000 4.432040 
# 
# 
# High freq. dielectric constant tensor:
#      x y z
#    x 1.900320 0.000000 0.000000 
#    y 0.000000 1.892750 0.000000 
#    z 0.000000 0.000000 1.915760 
# 
# From -- ./inp_files/64339.got.cif
#   From: 2010.03.12/outbox.cif.g09.slc.cpg/sg74_33_cif.got.tgz:64339.got - 2010.04.16 15:46:19.
