data_PCOD8299445
_publ_section_title
;
Structure prediction by ZEFSAII (Michael W. Deem and Ramdas Pophale) SiO2 
 PCOD8299445
Probable space group: I M M A
;
_chemical_formula_sum "Si O2"
_cell_formula_units_Z 72
_cell_length_a 33.603610
_cell_length_b 8.783478
_cell_length_c 14.602183
_cell_angle_alpha 90.000000
_cell_angle_beta 90.000000
_cell_angle_gamma 90.000000
_cell_volume 4309.930236
_symmetry_space_group_name_H-M "I M M A"
_symmetry_group_IT_number 74
_symmetry_cell_setting 'orthorhombic'
loop_
_space_group_symop_operation_xyz
x,y,z
-x,1/2-y,z
x,-y,-z
-x,1/2+y,-z
-x,-y,-z
x,1/2+y,-z
-x,y,z
x,1/2-y,z
1/2+x,1/2+y,1/2+z
1/2-x,-y,1/2+z
1/2+x,1/2-y,1/2-z
1/2-x,y,1/2-z
1/2-x,1/2-y,1/2-z
1/2+x,y,1/2-z
1/2-x,1/2+y,1/2+z
1/2+x,-y,1/2+z
loop_
_atom_site_type_symbol
_atom_site_label
_atom_site_fract_x
_atom_site_fract_y
_atom_site_fract_z
Si Si1 0.225944 0.070098 0.405606
Si Si2 0.000000 0.928206 0.402026
Si Si3 0.188974 0.426600 0.908261
Si Si4 0.160472 0.426583 0.714058
Si Si5 0.085842 0.070305 0.599812
O O1 0.228153 0.250000 0.414230
O O2 0.209109 0.000000 0.500000
O O3 0.269437 0.005799 0.383929
O O4 0.196766 0.024636 0.324093
O O5 0.042357 0.977179 0.356469
O O6 0.000000 0.750000 0.414790
O O7 0.000000 0.000000 0.500000
O O8 0.197428 0.250000 0.926812
O O9 0.158714 0.450655 0.823760
O O10 0.170024 0.500000 0.000000
O O11 0.167895 0.250000 0.690022
O O12 0.119209 0.487133 0.670841
O O13 0.088565 0.250000 0.587434
O O14 0.093266 0.000000 0.500000
#
# Coordination Sequence:
#
# PCOD8299445 Si02
#       5
#    16   8  16  16  16
#     4  11  21  32  47  66  90 119 150 183 220 264
#     4   8  14  26  44  64  89 118 144 170 203 252
#     4  10  20  34  49  63  84 115 151 190 228 264
#     4  10  20  32  46  66  91 117 147 185 225 262
#     4   9  17  29  45  67  93 119 145 173 210 256
#
# _framework density 16.705607000000001
#
# number of rings (size 3 to 8) (size 9 to 14) (size 15 to 20)
#    0.000    2.222    0.000    5.333    0.000    7.111 
#    0.000    0.000    0.000    0.000    0.000    0.778 
#    0.000    0.000    0.000    0.000    0.000    0.000 
#
# Total GULP energy -446142.857843 kJ/mol
# GULP energy per Si atom -12392.857162 kJ/mol
# Density = 1.666758 g / cm^3
# Si number density = 16.705607 Si / 1000 Ang^3
#
#
#
# Elastic Constant Matrix: (Units=GPa)
#
#
# Indices 1 2 3 4 5 6 
#
# 1 98.2767 31.5316 64.8584 0.0000 0.0000 0.0000
# 2 31.5316 77.1511 36.8954 0.0000 0.0000 0.0000
# 3 64.8584 36.8954 106.1230 0.0000 0.0000 0.0000
# 4 0.0000 0.0000 0.0000 24.1040 0.0000 0.0000
# 5 0.0000 0.0000 0.0000 0.0000 20.3948 0.0000
# 6 0.0000 0.0000 0.0000 0.0000 0.0000 13.5951
#
#
#
# Elastic Compliance Matrix: (Units=1/GPa)
#
#
# Indices 1 2 3 4 5 6 
#
# 1 0.017427 -0.002434 -0.009804 0.000000 0.000000 0.000000
# 2 -0.002434 0.015886 -0.004036 0.000000 0.000000 0.000000
# 3 -0.009804 -0.004036 0.016818 0.000000 0.000000 0.000000
# 4 0.000000 0.000000 0.000000 0.041487 0.000000 0.000000
# 5 0.000000 0.000000 0.000000 0.000000 0.049032 0.000000
# 6 0.000000 0.000000 0.000000 0.000000 0.000000 0.073556
#
#
# Mechanical properties :
#
#
# Convention : Reuss Voigt Hill
#
# Bulk Modulus (GPa) = 56.87156 60.90243 58.88699
# Shear Modulus (GPa) = 19.79299 21.50315 20.64807
#
# Velocity S-wave (km/s) = 3.44584 3.59162 3.51949
# Velocity P-wave (km/s) = 7.06747 7.33042 7.20015
#
# Compressibility (1/GPa) = 0.01758348
#
# Stress axis : x y z
#
# Youngs Moduli (GPa) = 57.38335 62.94782 59.45919
#
# Poissons Ratio (x) = 0.15319 0.58297
# Poissons Ratio (y) = 0.13964 0.23997
# Poissons Ratio (z) = 0.56261 0.25405
#
# Static dielectric constant tensor:
#      x y z
#    x 3.549210 0.000000 0.000000 
#    y 0.000000 3.372510 0.000000 
#    z 0.000000 0.000000 3.111240 
# 
# 
# High freq. dielectric constant tensor:
#      x y z
#    x 1.630210 0.000000 0.000000 
#    y 0.000000 1.650170 0.000000 
#    z 0.000000 0.000000 1.623840 
# 
# From -- ./inp_files/29431.got.cif
#   From: 2010.03.12/outbox.cif.g09.slc.cpg/sg74_15_cif.got.tgz:29431.got - 2010.04.16 15:46:19.
