data_PCOD8299031
_publ_section_title
;
Structure prediction by ZEFSAII (Michael W. Deem and Ramdas Pophale) SiO2 
 PCOD8299031
Probable space group: I M M A
;
_chemical_formula_sum "Si O2"
_cell_formula_units_Z 88
_cell_length_a 17.876692
_cell_length_b 9.371779
_cell_length_c 29.896255
_cell_angle_alpha 90.000000
_cell_angle_beta 90.000000
_cell_angle_gamma 90.000000
_cell_volume 5008.711136
_symmetry_space_group_name_H-M "I M M A"
_symmetry_group_IT_number 74
_symmetry_cell_setting 'orthorhombic'
loop_
_space_group_symop_operation_xyz
x,y,z
-x,1/2-y,z
x,-y,-z
-x,1/2+y,-z
-x,-y,-z
x,1/2+y,-z
-x,y,z
x,1/2-y,z
1/2+x,1/2+y,1/2+z
1/2-x,-y,1/2+z
1/2+x,1/2-y,1/2-z
1/2-x,y,1/2-z
1/2-x,1/2-y,1/2-z
1/2+x,y,1/2-z
1/2-x,1/2+y,1/2+z
1/2+x,-y,1/2+z
loop_
_atom_site_type_symbol
_atom_site_label
_atom_site_fract_x
_atom_site_fract_y
_atom_site_fract_z
Si Si1 0.694991 0.088007 0.209149
Si Si2 0.662987 0.582018 0.046845
Si Si3 0.735714 0.586105 0.613791
Si Si4 0.413541 0.590316 0.258669
Si Si5 0.416162 0.086135 0.347096
Si Si6 0.500000 0.087962 0.955751
O O1 0.666419 0.250000 0.209088
O O2 0.750000 0.058034 0.250000
O O3 0.734708 0.049604 0.162980
O O4 0.624448 0.985185 0.216152
O O5 0.678394 0.750000 0.039497
O O6 0.726105 0.519701 0.079044
O O7 0.579519 0.556881 0.069241
O O8 0.668502 0.500000 0.000000
O O9 0.753000 0.750000 0.600519
O O10 0.645733 0.557484 0.614329
O O11 0.500000 0.591514 0.247144
O O12 0.382059 0.750000 0.264186
O O13 0.396720 0.508167 0.304404
O O14 0.500000 0.052755 0.365580
O O15 0.409735 0.250000 0.331128
O O16 0.500000 0.250000 0.971694
O O17 0.500000 0.000000 0.000000
#
# Coordination Sequence:
#
# PCOD8299031 Si02
#       6
#    16  16  16  16  16   8
#     4  10  19  34  52  72 101 138 176 215 256 304
#     4  10  20  36  58  81 106 136 169 210 257 305
#     4  10  20  34  53  79 106 133 172 216 258 309
#     4  10  20  32  47  70 100 135 175 218 260 303
#     4   9  17  32  54  75  99 136 177 215 255 305
#     4   8  16  32  54  78 102 132 168 204 246 300
#
# _framework density 17.569391
#
# number of rings (size 3 to 8) (size 9 to 14) (size 15 to 20)
#    0.000    2.364    1.818    1.091    0.000    3.636 
#    1.636    0.000    0.000    0.545    0.000    0.000 
#    0.000    0.000    0.000    0.000    0.000    0.000 
#
# Total GULP energy -545290.368535 kJ/mol
# GULP energy per Si atom -12392.962921 kJ/mol
# Density = 1.752940 g / cm^3
# Si number density = 17.569391 Si / 1000 Ang^3
#
#
#
# Elastic Constant Matrix: (Units=GPa)
#
#
# Indices 1 2 3 4 5 6 
#
# 1 120.5954 63.1924 50.9900 0.0000 0.0000 0.0000
# 2 63.1924 98.3227 44.1274 0.0000 0.0000 0.0000
# 3 50.9900 44.1274 70.3907 0.0000 0.0000 0.0000
# 4 0.0000 0.0000 0.0000 27.3613 0.0000 0.0000
# 5 0.0000 0.0000 0.0000 0.0000 25.8243 0.0000
# 6 0.0000 0.0000 0.0000 0.0000 0.0000 26.6125
#
#
#
# Elastic Compliance Matrix: (Units=1/GPa)
#
#
# Indices 1 2 3 4 5 6 
#
# 1 0.014315 -0.006326 -0.006403 0.000000 0.000000 0.000000
# 2 -0.006326 0.016948 -0.006042 0.000000 0.000000 0.000000
# 3 -0.006403 -0.006042 0.022633 0.000000 0.000000 0.000000
# 4 0.000000 0.000000 0.000000 0.036548 0.000000 0.000000
# 5 0.000000 0.000000 0.000000 0.000000 0.038723 0.000000
# 6 0.000000 0.000000 0.000000 0.000000 0.000000 0.037576
#
#
# Mechanical properties :
#
#
# Convention : Reuss Voigt Hill
#
# Bulk Modulus (GPa) = 61.15441 67.32539 64.23990
# Shear Modulus (GPa) = 23.83935 24.69288 24.26611
#
# Velocity S-wave (km/s) = 3.68757 3.75300 3.72043
# Velocity P-wave (km/s) = 7.28106 7.56194 7.42283
#
# Compressibility (1/GPa) = 0.01635205
#
# Stress axis : x y z
#
# Youngs Moduli (GPa) = 69.85855 59.00351 44.18378
#
# Poissons Ratio (x) = 0.37327 0.28293
# Poissons Ratio (y) = 0.44194 0.26696
# Poissons Ratio (z) = 0.44734 0.35650
#
# Static dielectric constant tensor:
#      x y z
#    x 3.718720 0.000000 0.000000 
#    y 0.000000 3.357350 0.000000 
#    z 0.000000 0.000000 2.705100 
# 
# 
# High freq. dielectric constant tensor:
#      x y z
#    x 1.693340 0.000000 0.000000 
#    y 0.000000 1.687400 0.000000 
#    z 0.000000 0.000000 1.633110 
# 
# From -- ./inp_files/57022.got.cif
#   From: 2010.03.12/outbox.cif.g09.slc.cpg/sg74_29_cif.got.tgz:57022.got - 2010.04.16 15:46:19.
