data_PCOD8299913
_publ_section_title
;
Structure prediction by ZEFSAII (Michael W. Deem and Ramdas Pophale) SiO2 
 PCOD8299913
Probable space group: I M M A
;
_chemical_formula_sum "Si O2"
_cell_formula_units_Z 104
_cell_length_a 8.903057
_cell_length_b 20.923912
_cell_length_c 27.994244
_cell_angle_alpha 90.000000
_cell_angle_beta 90.000000
_cell_angle_gamma 90.000000
_cell_volume 5214.957607
_symmetry_space_group_name_H-M "I M M A"
_symmetry_group_IT_number 74
_symmetry_cell_setting 'orthorhombic'
loop_
_space_group_symop_operation_xyz
x,y,z
-x,1/2-y,z
x,-y,-z
-x,1/2+y,-z
-x,-y,-z
x,1/2+y,-z
-x,y,z
x,1/2-y,z
1/2+x,1/2+y,1/2+z
1/2-x,-y,1/2+z
1/2+x,1/2-y,1/2-z
1/2-x,y,1/2-z
1/2-x,1/2-y,1/2-z
1/2+x,y,1/2-z
1/2-x,1/2+y,1/2+z
1/2+x,-y,1/2+z
loop_
_atom_site_type_symbol
_atom_site_label
_atom_site_fract_x
_atom_site_fract_y
_atom_site_fract_z
Si Si1 0.829482 0.933711 0.700785
Si Si2 0.828867 0.322457 0.366182
Si Si3 0.819083 0.250000 0.696757
Si Si4 0.326082 0.396333 0.447455
Si Si5 0.676558 0.656287 0.376956
Si Si6 0.671285 0.820033 0.027019
Si Si7 0.673664 0.991697 0.380883
O O1 0.750000 0.944873 0.750000
O O2 0.805332 0.861435 0.682644
O O3 0.000000 0.950609 0.709720
O O4 0.770494 0.983184 0.662375
O O5 0.791210 0.250000 0.353524
O O6 0.713684 0.346825 0.405734
O O7 0.000000 0.331104 0.385262
O O8 0.750000 0.250000 0.750000
O O9 0.762227 0.313387 0.668603
O O10 0.000000 0.250000 0.699526
O O11 0.500000 0.389750 0.460632
O O12 0.233609 0.377368 0.494390
O O13 0.287279 0.468625 0.429615
O O14 0.500000 0.668538 0.369810
O O15 0.733348 0.689079 0.425013
O O16 0.714606 0.582095 0.385213
O O17 0.500000 0.836946 0.040034
O O18 0.680137 0.750000 0.001059
O O19 0.500000 0.002880 0.368644
#
# Coordination Sequence:
#
# PCOD8299913 Si02
#       7
#    16  16   8  16  16  16  16
#     4  10  20  34  54  78 107 146 189 237 292 349
#     4   9  18  33  51  74 108 148 192 241 291 343
#     4  12  26  46  70  98 128 158 196 244 301 364
#     4  10  20  35  56  84 117 155 199 243 290 345
#     4  11  23  42  67  92 119 153 194 241 295 350
#     4  11  23  38  58  86 123 162 199 242 292 349
#     4   9  21  40  60  84 116 152 193 244 296 351
#
# _framework density 19.942637000000001
#
# number of rings (size 3 to 8) (size 9 to 14) (size 15 to 20)
#    0.000    1.846    0.769    3.000    0.000    7.077 
#    0.000    3.077    0.000    0.000    0.000    0.000 
#    0.000    0.000    0.000    0.000    0.000    0.000 
#
# Total GULP energy -644717.547563 kJ/mol
# GULP energy per Si atom -12398.414376 kJ/mol
# Density = 1.989725 g / cm^3
# Si number density = 19.942637 Si / 1000 Ang^3
#
#
#
# Elastic Constant Matrix: (Units=GPa)
#
#
# Indices 1 2 3 4 5 6 
#
# 1 105.2510 55.7270 57.1570 0.0000 0.0000 0.0000
# 2 55.7270 132.1564 41.3368 0.0000 0.0000 0.0000
# 3 57.1570 41.3368 113.9746 0.0000 0.0000 0.0000
# 4 0.0000 0.0000 0.0000 25.5633 0.0000 0.0000
# 5 0.0000 0.0000 0.0000 0.0000 38.0209 0.0000
# 6 0.0000 0.0000 0.0000 0.0000 0.0000 27.5703
#
#
#
# Elastic Compliance Matrix: (Units=1/GPa)
#
#
# Indices 1 2 3 4 5 6 
#
# 1 0.015121 -0.004517 -0.005945 0.000000 0.000000 0.000000
# 2 -0.004517 0.009884 -0.001320 0.000000 0.000000 0.000000
# 3 -0.005945 -0.001320 0.012234 0.000000 0.000000 0.000000
# 4 0.000000 0.000000 0.000000 0.039119 0.000000 0.000000
# 5 0.000000 0.000000 0.000000 0.000000 0.026301 0.000000
# 6 0.000000 0.000000 0.000000 0.000000 0.000000 0.036271
#
#
# Mechanical properties :
#
#
# Convention : Reuss Voigt Hill
#
# Bulk Modulus (GPa) = 73.11896 73.31372 73.21634
# Shear Modulus (GPa) = 29.93097 31.37496 30.65297
#
# Velocity S-wave (km/s) = 3.87829 3.97074 3.92479
# Velocity P-wave (km/s) = 7.53651 7.60687 7.57177
#
# Compressibility (1/GPa) = 0.01367634
#
# Stress axis : x y z
#
# Youngs Moduli (GPa) = 66.13377 101.17214 81.74057
#
# Poissons Ratio (x) = 0.45696 0.48593
# Poissons Ratio (y) = 0.29870 0.10788
# Poissons Ratio (z) = 0.39315 0.13353
#
# Static dielectric constant tensor:
#      x y z
#    x 3.714970 0.000000 0.000000 
#    y 0.000000 3.798440 0.000000 
#    z 0.000000 0.000000 3.467180 
# 
# 
# High freq. dielectric constant tensor:
#      x y z
#    x 1.786780 0.000000 0.000000 
#    y 0.000000 1.785470 0.000000 
#    z 0.000000 0.000000 1.769440 
# 
# From -- ./inp_files/64426.got.cif
#   From: 2010.03.12/outbox.cif.g09.slc.cpg/sg74_33_cif.got.tgz:64426.got - 2010.04.16 15:46:19.
