data_PCOD8299709
_publ_section_title
;
Structure prediction by ZEFSAII (Michael W. Deem and Ramdas Pophale) SiO2 
 PCOD8299709
Probable space group: I M M A
;
_chemical_formula_sum "Si O2"
_cell_formula_units_Z 96
_cell_length_a 25.304642
_cell_length_b 18.091782
_cell_length_c 11.083607
_cell_angle_alpha 90.000000
_cell_angle_beta 90.000000
_cell_angle_gamma 90.000000
_cell_volume 5074.142525
_symmetry_space_group_name_H-M "I M M A"
_symmetry_group_IT_number 74
_symmetry_cell_setting 'orthorhombic'
loop_
_space_group_symop_operation_xyz
x,y,z
-x,1/2-y,z
x,-y,-z
-x,1/2+y,-z
-x,-y,-z
x,1/2+y,-z
-x,y,z
x,1/2-y,z
1/2+x,1/2+y,1/2+z
1/2-x,-y,1/2+z
1/2+x,1/2-y,1/2-z
1/2-x,y,1/2-z
1/2-x,1/2-y,1/2-z
1/2+x,y,1/2-z
1/2-x,1/2+y,1/2+z
1/2+x,-y,1/2+z
loop_
_atom_site_type_symbol
_atom_site_label
_atom_site_fract_x
_atom_site_fract_y
_atom_site_fract_z
Si Si1 0.610759 0.832904 0.264953
Si Si2 0.561524 0.084013 0.525217
Si Si3 0.283256 0.331596 0.584922
Si Si4 0.181702 0.592971 0.401333
Si Si5 0.645848 0.662267 0.628251
Si Si6 0.805078 0.931473 0.677357
O O1 0.585998 0.750000 0.257838
O O2 0.572068 0.889087 0.336449
O O3 0.666607 0.831459 0.329767
O O4 0.627653 0.862329 0.131679
O O5 0.500000 0.090224 0.496853
O O6 0.591110 0.139433 0.434955
O O7 0.581290 0.000000 0.500000
O O8 0.260251 0.250000 0.566667
O O9 0.237235 0.377273 0.650211
O O10 0.304269 0.361316 0.455424
O O11 0.195091 0.600374 0.542708
O O12 0.173240 0.513971 0.339313
O O13 0.644762 0.750000 0.651600
O O14 0.651842 0.617453 0.752026
O O15 0.750000 0.928556 0.750000
#
# Coordination Sequence:
#
# PCOD8299709 Si02
#       6
#    16  16  16  16  16  16
#     4  10  20  33  52  80 110 142 180 228 280 332
#     4  10  21  38  62  87 110 139 179 234 294 343
#     4   9  17  31  50  73 105 145 184 224 271 320
#     4  11  21  32  51  76 110 153 192 229 273 325
#     4  10  21  36  55  80 111 149 190 234 279 331
#     4  11  22  35  50  76 112 155 197 229 272 325
#
# _framework density 18.919452
#
# number of rings (size 3 to 8) (size 9 to 14) (size 15 to 20)
#    0.000    1.833    1.667    4.500    0.000    5.667 
#    0.000    0.000    0.000    1.000    0.000    7.000 
#    0.000    0.000    0.000    0.000    0.000    0.000 
#
# Total GULP energy -594662.133914 kJ/mol
# GULP energy per Si atom -12388.794457 kJ/mol
# Density = 1.887639 g / cm^3
# Si number density = 18.919452 Si / 1000 Ang^3
#
#
#
# Elastic Constant Matrix: (Units=GPa)
#
#
# Indices 1 2 3 4 5 6 
#
# 1 57.3311 34.2442 22.1230 0.0000 0.0000 0.0000
# 2 34.2442 92.2960 39.8393 0.0000 0.0000 0.0000
# 3 22.1230 39.8393 94.9855 0.0000 0.0000 0.0000
# 4 0.0000 0.0000 0.0000 26.9040 0.0000 0.0000
# 5 0.0000 0.0000 0.0000 0.0000 19.8273 0.0000
# 6 0.0000 0.0000 0.0000 0.0000 0.0000 20.3568
#
#
#
# Elastic Compliance Matrix: (Units=1/GPa)
#
#
# Indices 1 2 3 4 5 6 
#
# 1 0.022762 -0.007518 -0.002148 0.000000 0.000000 0.000000
# 2 -0.007518 0.015713 -0.004839 0.000000 0.000000 0.000000
# 3 -0.002148 -0.004839 0.013058 0.000000 0.000000 0.000000
# 4 0.000000 0.000000 0.000000 0.037169 0.000000 0.000000
# 5 0.000000 0.000000 0.000000 0.000000 0.050435 0.000000
# 6 0.000000 0.000000 0.000000 0.000000 0.000000 0.049124
#
#
# Mechanical properties :
#
#
# Convention : Reuss Voigt Hill
#
# Bulk Modulus (GPa) = 44.40154 48.55840 46.47997
# Shear Modulus (GPa) = 22.24395 23.31134 22.77765
#
# Velocity S-wave (km/s) = 3.43260 3.51399 3.47353
# Velocity P-wave (km/s) = 6.26338 6.49505 6.38027
#
# Compressibility (1/GPa) = 0.02252174
#
# Stress axis : x y z
#
# Youngs Moduli (GPa) = 43.93275 63.64148 76.58116
#
# Poissons Ratio (x) = 0.47846 0.16451
# Poissons Ratio (y) = 0.33029 0.37061
# Poissons Ratio (z) = 0.09438 0.30799
#
# Static dielectric constant tensor:
#      x y z
#    x 3.111650 0.000000 0.000000 
#    y 0.000000 3.812230 0.000000 
#    z 0.000000 0.000000 3.718940 
# 
# 
# High freq. dielectric constant tensor:
#      x y z
#    x 1.695010 0.000000 0.000000 
#    y 0.000000 1.747110 0.000000 
#    z 0.000000 0.000000 1.734680 
# 
# From -- ./inp_files/25188.got.cif
#   From: 2010.03.12/outbox.cif.g09.slc.cpg/sg74_13_cif.got.tgz:25188.got - 2010.04.16 15:46:19.
