data_PCOD8299320
_publ_section_title
;
Structure prediction by ZEFSAII (Michael W. Deem and Ramdas Pophale) SiO2 
 PCOD8299320
Probable space group: I M M A
;
_chemical_formula_sum "Si O2"
_cell_formula_units_Z 88
_cell_length_a 29.499265
_cell_length_b 14.101578
_cell_length_c 11.446454
_cell_angle_alpha 90.000000
_cell_angle_beta 90.000000
_cell_angle_gamma 90.000000
_cell_volume 4761.566747
_symmetry_space_group_name_H-M "I M M A"
_symmetry_group_IT_number 74
_symmetry_cell_setting 'orthorhombic'
loop_
_space_group_symop_operation_xyz
x,y,z
-x,1/2-y,z
x,-y,-z
-x,1/2+y,-z
-x,-y,-z
x,1/2+y,-z
-x,y,z
x,1/2-y,z
1/2+x,1/2+y,1/2+z
1/2-x,-y,1/2+z
1/2+x,1/2-y,1/2-z
1/2-x,y,1/2-z
1/2-x,1/2-y,1/2-z
1/2+x,y,1/2-z
1/2-x,1/2+y,1/2+z
1/2+x,-y,1/2+z
loop_
_atom_site_type_symbol
_atom_site_label
_atom_site_fract_x
_atom_site_fract_y
_atom_site_fract_z
Si Si1 0.391336 0.602031 0.749527
Si Si2 0.178481 0.898032 0.545410
Si Si3 0.553108 0.750000 0.885185
Si Si4 0.379560 0.250000 0.914548
Si Si5 0.249667 0.250000 0.112545
Si Si6 0.354607 0.750000 0.572102
Si Si7 0.551406 0.454428 0.625883
Si Si8 0.088948 0.250000 0.849385
O O1 0.348651 0.590584 0.834042
O O2 0.431212 0.658172 0.814138
O O3 0.373764 0.656777 0.635494
O O4 0.412611 0.500954 0.715122
O O5 0.148456 0.843671 0.449360
O O6 0.225014 0.843336 0.567228
O O7 0.192585 0.000000 0.500000
O O8 0.500000 0.750000 0.898287
O O9 0.573218 0.750000 0.015520
O O10 0.389692 0.250000 0.778612
O O11 0.250000 0.250000 0.250000
O O12 0.199249 0.250000 0.064711
O O13 0.369384 0.750000 0.438281
O O14 0.560168 0.500000 0.500000
O O15 0.500000 0.476137 0.666012
O O16 0.558061 0.341639 0.626626
#
# Coordination Sequence:
#
# PCOD8299320 Si02
#       8
#    16  16   8   8   8   8  16   8
#     4  10  19  37  61  86 118 154 200 244 295 350
#     4  10  20  39  63  89 117 156 197 238 310 353
#     4   9  18  33  60  91 115 155 206 247 283 342
#     4   9  21  38  59  82 124 159 189 247 291 354
#     4  11  20  40  63  91 120 146 199 259 293 363
#     4  11  21  38  61  88 112 157 203 246 293 358
#     4  11  23  37  55  85 120 156 196 240 292 354
#     4  12  23  41  58  81 121 163 194 242 304 349
#
# _framework density 18.481313
#
# number of rings (size 3 to 8) (size 9 to 14) (size 15 to 20)
#    0.000    1.636    3.636    3.000    0.000    0.727 
#    3.273    1.818    0.000    6.000    0.000    0.000 
#    0.000    0.000    0.000    0.000    0.000    0.000 
#
# Total GULP energy -545689.221516 kJ/mol
# GULP energy per Si atom -12402.027762 kJ/mol
# Density = 1.843925 g / cm^3
# Si number density = 18.481313 Si / 1000 Ang^3
#
#
#
# Elastic Constant Matrix: (Units=GPa)
#
#
# Indices 1 2 3 4 5 6 
#
# 1 135.3208 46.9587 54.9062 0.0000 0.0000 0.0000
# 2 46.9587 142.5402 44.2150 0.0000 0.0000 0.0000
# 3 54.9062 44.2150 123.5805 0.0000 0.0000 0.0000
# 4 0.0000 0.0000 0.0000 21.5416 0.0000 0.0000
# 5 0.0000 0.0000 0.0000 0.0000 21.7080 0.0000
# 6 0.0000 0.0000 0.0000 0.0000 0.0000 -276.1330
#
#
#
# Elastic Compliance Matrix: (Units=1/GPa)
#
#
# Indices 1 2 3 4 5 6 
#
# 1 0.009520 -0.002052 -0.003496 0.000000 0.000000 0.000000
# 2 -0.002052 0.008334 -0.002070 0.000000 0.000000 0.000000
# 3 -0.003496 -0.002070 0.010386 0.000000 0.000000 0.000000
# 4 0.000000 0.000000 0.000000 0.046422 0.000000 0.000000
# 5 0.000000 0.000000 0.000000 0.000000 0.046066 0.000000
# 6 0.000000 0.000000 0.000000 0.000000 0.000000 -0.003621
#
#
# Mechanical properties :
#
#
# Convention : Reuss Voigt Hill
#
# Bulk Modulus (GPa) = 76.89762 77.06682 76.98222
# Shear Modulus (GPa) = 36.58292 -29.55256 3.51518
#
# Velocity S-wave (km/s) = 4.45393 -4.00315 1.38063
# Velocity P-wave (km/s) = 8.25522 4.51923 6.65478
#
# Compressibility (1/GPa) = 0.01300430
#
# Stress axis : x y z
#
# Youngs Moduli (GPa) = 105.03877 119.99505 96.28750
#
# Poissons Ratio (x) = 0.24624 0.33658
# Poissons Ratio (y) = 0.21555 0.19931
# Poissons Ratio (z) = 0.36718 0.24838
#
# Static dielectric constant tensor:
#      x y z
#    x 3.561350 0.000000 0.000000 
#    y 0.000000 11.470560 0.000000 
#    z 0.000000 0.000000 3.346310 
# 
# 
# High freq. dielectric constant tensor:
#      x y z
#    x 1.716220 0.000000 0.000000 
#    y 0.000000 1.722480 0.000000 
#    z 0.000000 0.000000 1.716720 
# 
# From -- ./inp_files/27034.got.cif
#   From: 2010.03.12/outbox.cif.g09.slc.cpg/sg74_14_cif.got.tgz:27034.got - 2010.04.16 15:46:19.
