data_PCOD8299324
_publ_section_title
;
Structure prediction by ZEFSAII (Michael W. Deem and Ramdas Pophale) SiO2 
 PCOD8299324
Probable space group: I M M A
;
_chemical_formula_sum "Si O2"
_cell_formula_units_Z 96
_cell_length_a 8.747161
_cell_length_b 24.305046
_cell_length_c 22.241677
_cell_angle_alpha 90.000000
_cell_angle_beta 90.000000
_cell_angle_gamma 90.000000
_cell_volume 4728.583877
_symmetry_space_group_name_H-M "I M M A"
_symmetry_group_IT_number 74
_symmetry_cell_setting 'orthorhombic'
loop_
_space_group_symop_operation_xyz
x,y,z
-x,1/2-y,z
x,-y,-z
-x,1/2+y,-z
-x,-y,-z
x,1/2+y,-z
-x,y,z
x,1/2-y,z
1/2+x,1/2+y,1/2+z
1/2-x,-y,1/2+z
1/2+x,1/2-y,1/2-z
1/2-x,y,1/2-z
1/2-x,1/2-y,1/2-z
1/2+x,y,1/2-z
1/2-x,1/2+y,1/2+z
1/2+x,-y,1/2+z
loop_
_atom_site_type_symbol
_atom_site_label
_atom_site_fract_x
_atom_site_fract_y
_atom_site_fract_z
Si Si1 0.325961 0.561111 0.488066
Si Si2 0.181585 0.434359 0.185080
Si Si3 0.822150 0.336732 0.689903
Si Si4 0.673138 0.556520 0.348849
Si Si5 0.819689 0.138282 0.418711
Si Si6 0.681425 0.750000 0.539031
Si Si7 0.680580 0.250000 0.907364
O O1 0.264921 0.500000 0.500000
O O2 0.500000 0.567047 0.512701
O O3 0.316913 0.573028 0.418091
O O4 0.216681 0.603432 0.521675
O O5 0.250000 0.421815 0.250000
O O6 0.233337 0.494929 0.163019
O O7 0.249547 0.389933 0.139837
O O8 0.000000 0.428977 0.186228
O O9 0.750000 0.310722 0.750000
O O10 0.778338 0.400885 0.686498
O O11 0.768110 0.303529 0.630846
O O12 0.000000 0.329970 0.697119
O O13 0.500000 0.562272 0.325280
O O14 0.745952 0.197843 0.425652
O O15 0.000000 0.143957 0.411346
O O16 0.500000 0.750000 0.541982
O O17 0.730294 0.750000 0.469606
O O18 0.500000 0.250000 0.921112
#
# Coordination Sequence:
#
# PCOD8299324 Si02
#       7
#    16  16  16  16  16   8   8
#     4  10  19  37  62  92 127 165 207 256 310 367
#     4  11  23  42  64  91 125 165 207 255 311 374
#     4  11  23  38  58  84 121 164 212 260 308 364
#     4  10  21  37  60  89 125 164 206 254 308 367
#     4  12  25  42  65  96 130 165 207 257 310 371
#     4  12  26  45  70  95 123 164 205 254 314 374
#     4  10  23  43  63  89 121 158 205 264 315 368
#
# _framework density 20.302061999999999
#
# number of rings (size 3 to 8) (size 9 to 14) (size 15 to 20)
#    0.000    1.167    1.667    5.000    0.000    7.667 
#    0.000    0.417    0.000    0.000    0.000    0.000 
#    0.000    0.000    0.000    0.000    0.000    0.000 
#
# Total GULP energy -595417.824905 kJ/mol
# GULP energy per Si atom -12404.538019 kJ/mol
# Density = 2.025585 g / cm^3
# Si number density = 20.302062 Si / 1000 Ang^3
#
#
#
# Elastic Constant Matrix: (Units=GPa)
#
#
# Indices 1 2 3 4 5 6 
#
# 1 112.8884 61.6670 52.7529 0.0000 0.0000 0.0000
# 2 61.6670 154.9514 62.0301 0.0000 0.0000 0.0000
# 3 52.7529 62.0301 123.6585 0.0000 0.0000 0.0000
# 4 0.0000 0.0000 0.0000 17.1391 0.0000 0.0000
# 5 0.0000 0.0000 0.0000 0.0000 37.7669 0.0000
# 6 0.0000 0.0000 0.0000 0.0000 0.0000 27.3695
#
#
#
# Elastic Compliance Matrix: (Units=1/GPa)
#
#
# Indices 1 2 3 4 5 6 
#
# 1 0.012442 -0.003537 -0.003533 0.000000 0.000000 0.000000
# 2 -0.003537 0.009081 -0.003046 0.000000 0.000000 0.000000
# 3 -0.003533 -0.003046 0.011122 0.000000 0.000000 0.000000
# 4 0.000000 0.000000 0.000000 0.058346 0.000000 0.000000
# 5 0.000000 0.000000 0.000000 0.000000 0.026478 0.000000
# 6 0.000000 0.000000 0.000000 0.000000 0.000000 0.036537
#
#
# Mechanical properties :
#
#
# Convention : Reuss Voigt Hill
#
# Bulk Modulus (GPa) = 80.57142 82.71093 81.64117
# Shear Modulus (GPa) = 28.03067 30.79165 29.41116
#
# Velocity S-wave (km/s) = 3.71978 3.89868 3.81028
# Velocity P-wave (km/s) = 7.63030 7.81632 7.72387
#
# Compressibility (1/GPa) = 0.01241135
#
# Stress axis : x y z
#
# Youngs Moduli (GPa) = 80.37560 110.12317 89.91027
#
# Poissons Ratio (x) = 0.38950 0.31769
# Poissons Ratio (y) = 0.28429 0.27389
# Poissons Ratio (z) = 0.28400 0.33546
#
# Static dielectric constant tensor:
#      x y z
#    x 3.655500 0.000000 0.000000 
#    y 0.000000 3.871950 0.000000 
#    z 0.000000 0.000000 3.768950 
# 
# 
# High freq. dielectric constant tensor:
#      x y z
#    x 1.792100 0.000000 0.000000 
#    y 0.000000 1.798560 0.000000 
#    z 0.000000 0.000000 1.800790 
# 
# From -- ./inp_files/57313.got.cif
#   From: 2010.03.12/outbox.cif.g09.slc.cpg/sg74_29_cif.got.tgz:57313.got - 2010.04.16 15:46:19.
