data_PCOD8299860
_publ_section_title
;
Structure prediction by ZEFSAII (Michael W. Deem and Ramdas Pophale) SiO2 
 PCOD8299860
Probable space group: I M M A
;
_chemical_formula_sum "Si O2"
_cell_formula_units_Z 104
_cell_length_a 9.004210
_cell_length_b 21.115084
_cell_length_c 28.262142
_cell_angle_alpha 90.000000
_cell_angle_beta 90.000000
_cell_angle_gamma 90.000000
_cell_volume 5373.329870
_symmetry_space_group_name_H-M "I M M A"
_symmetry_group_IT_number 74
_symmetry_cell_setting 'orthorhombic'
loop_
_space_group_symop_operation_xyz
x,y,z
-x,1/2-y,z
x,-y,-z
-x,1/2+y,-z
-x,-y,-z
x,1/2+y,-z
-x,y,z
x,1/2-y,z
1/2+x,1/2+y,1/2+z
1/2-x,-y,1/2+z
1/2+x,1/2-y,1/2-z
1/2-x,y,1/2-z
1/2-x,1/2-y,1/2-z
1/2+x,y,1/2-z
1/2-x,1/2+y,1/2+z
1/2+x,-y,1/2+z
loop_
_atom_site_type_symbol
_atom_site_label
_atom_site_fract_x
_atom_site_fract_y
_atom_site_fract_z
Si Si1 0.827386 0.319038 0.356378
Si Si2 0.825568 0.650654 0.120862
Si Si3 0.322908 0.904829 0.941300
Si Si4 0.169313 0.819838 0.473293
Si Si5 0.326732 0.065378 0.201657
Si Si6 0.824496 0.250000 0.801486
Si Si7 0.323686 0.505459 0.383979
O O1 0.750327 0.250000 0.350839
O O2 0.762540 0.356669 0.401254
O O3 0.801604 0.359947 0.308810
O O4 0.000000 0.309545 0.365908
O O5 0.760353 0.683424 0.074714
O O6 0.773834 0.687642 0.168509
O O7 0.773689 0.578093 0.120071
O O8 0.000000 0.656908 0.116812
O O9 0.500000 0.914277 0.938520
O O10 0.243952 0.972714 0.931605
O O11 0.272011 0.874554 0.991160
O O12 0.181935 0.750000 0.497463
O O13 0.000000 0.835182 0.460490
O O14 0.500000 0.047937 0.203219
O O15 0.250000 0.046163 0.250000
O O16 0.247966 0.025992 0.161356
O O17 0.750000 0.250000 0.750000
O O18 0.000000 0.250000 0.793291
O O19 0.500000 0.497382 0.384026
#
# Coordination Sequence:
#
# PCOD8299860 Si02
#       7
#    16  16  16  16  16   8  16
#     4   8  14  27  48  72 101 138 179 221 266 314
#     4  10  22  40  60  82 112 146 179 224 282 337
#     4   9  18  33  53  80 113 149 185 226 275 322
#     4  10  20  34  57  87 116 148 189 231 272 326
#     4  10  20  34  53  76 104 140 179 226 281 332
#     4  10  22  42  64  86 112 142 180 230 287 344
#     4  10  21  37  56  79 108 144 188 232 276 334
#
# _framework density 19.354851
#
# number of rings (size 3 to 8) (size 9 to 14) (size 15 to 20)
#    0.000    2.462    0.769    2.308    0.000    5.846 
#    0.000    4.615    0.000   14.769    0.000    0.000 
#    0.000    0.000    0.000    0.000    0.000    0.000 
#
# Total GULP energy -644494.308877 kJ/mol
# GULP energy per Si atom -12394.121325 kJ/mol
# Density = 1.931080 g / cm^3
# Si number density = 19.354851 Si / 1000 Ang^3
#
#
#
# Elastic Constant Matrix: (Units=GPa)
#
#
# Indices 1 2 3 4 5 6 
#
# 1 36.0415 40.2017 29.8942 0.0000 0.0000 0.0000
# 2 40.2017 142.9987 54.1574 0.0000 0.0000 0.0000
# 3 29.8942 54.1574 122.4430 0.0000 0.0000 0.0000
# 4 0.0000 0.0000 0.0000 24.4625 0.0000 0.0000
# 5 0.0000 0.0000 0.0000 0.0000 31.7635 0.0000
# 6 0.0000 0.0000 0.0000 0.0000 0.0000 25.5203
#
#
#
# Elastic Compliance Matrix: (Units=1/GPa)
#
#
# Indices 1 2 3 4 5 6 
#
# 1 0.044192 -0.010015 -0.006360 0.000000 0.000000 0.000000
# 2 -0.010015 0.010670 -0.002274 0.000000 0.000000 0.000000
# 3 -0.006360 -0.002274 0.010726 0.000000 0.000000 0.000000
# 4 0.000000 0.000000 0.000000 0.040879 0.000000 0.000000
# 5 0.000000 0.000000 0.000000 0.000000 0.031483 0.000000
# 6 0.000000 0.000000 0.000000 0.000000 0.000000 0.039184
#
#
# Mechanical properties :
#
#
# Convention : Reuss Voigt Hill
#
# Bulk Modulus (GPa) = 35.34875 61.11000 48.22938
# Shear Modulus (GPa) = 22.33520 28.16458 25.24989
#
# Velocity S-wave (km/s) = 3.40072 3.81881 3.61581
# Velocity P-wave (km/s) = 5.80715 7.14748 6.51189
#
# Compressibility (1/GPa) = 0.02828954
#
# Stress axis : x y z
#
# Youngs Moduli (GPa) = 22.62847 93.72054 93.23460
#
# Poissons Ratio (x) = 0.93864 0.59293
# Poissons Ratio (y) = 0.22663 0.21203
# Poissons Ratio (z) = 0.14391 0.21314
#
# Static dielectric constant tensor:
#      x y z
#    x 3.328410 0.000000 0.000000 
#    y 0.000000 4.037220 0.000000 
#    z 0.000000 0.000000 3.480270 
# 
# 
# High freq. dielectric constant tensor:
#      x y z
#    x 1.731290 0.000000 0.000000 
#    y 0.000000 1.764810 0.000000 
#    z 0.000000 0.000000 1.748130 
# 
# From -- ./inp_files/64445.got.cif
#   From: 2010.03.12/outbox.cif.g09.slc.cpg/sg74_33_cif.got.tgz:64445.got - 2010.04.16 15:46:19.
