data_PCOD8299312
_publ_section_title
;
Structure prediction by ZEFSAII (Michael W. Deem and Ramdas Pophale) SiO2 
 PCOD8299312
Probable space group: I M M A
;
_chemical_formula_sum "Si O2"
_cell_formula_units_Z 72
_cell_length_a 29.328537
_cell_length_b 9.109391
_cell_length_c 14.013430
_cell_angle_alpha 90.000000
_cell_angle_beta 90.000000
_cell_angle_gamma 90.000000
_cell_volume 3743.899581
_symmetry_space_group_name_H-M "I M M A"
_symmetry_group_IT_number 74
_symmetry_cell_setting 'orthorhombic'
loop_
_space_group_symop_operation_xyz
x,y,z
-x,1/2-y,z
x,-y,-z
-x,1/2+y,-z
-x,-y,-z
x,1/2+y,-z
-x,y,z
x,1/2-y,z
1/2+x,1/2+y,1/2+z
1/2-x,-y,1/2+z
1/2+x,1/2-y,1/2-z
1/2-x,y,1/2-z
1/2-x,1/2-y,1/2-z
1/2+x,y,1/2-z
1/2-x,1/2+y,1/2+z
1/2+x,-y,1/2+z
loop_
_atom_site_type_symbol
_atom_site_label
_atom_site_fract_x
_atom_site_fract_y
_atom_site_fract_z
Si Si1 0.316812 0.423327 0.209695
Si Si2 0.270789 0.075883 0.400865
Si Si3 0.082148 0.079297 0.296033
Si Si4 0.500000 0.424784 0.898635
Si Si5 0.051247 0.582025 0.910490
O O1 0.315018 0.250000 0.218213
O O2 0.304511 0.480483 0.316435
O O3 0.280202 0.474709 0.130833
O O4 0.367071 0.472348 0.174235
O O5 0.273686 0.250000 0.415257
O O6 0.284318 0.000000 0.500000
O O7 0.071938 0.250000 0.321949
O O8 0.081021 0.055276 0.182794
O O9 0.045508 0.975438 0.345187
O O10 0.500000 0.250000 0.908070
O O11 0.500000 0.500000 0.000000
O O12 0.049770 0.750000 0.939196
O O13 0.000000 0.522531 0.891241
O O14 0.074153 0.500000 0.000000
#
# Coordination Sequence:
#
# PCOD8299312 Si02
#       5
#    16  16  16   8  16
#     4   8  17  33  55  78 107 144 180 216 266 325
#     4   9  17  33  54  80 109 142 178 217 267 322
#     4  10  19  37  59  79 106 144 186 229 270 316
#     4  12  26  42  59  80 107 142 181 228 274 320
#     4   9  17  29  47  72 101 134 171 212 260 313
#
# _framework density 19.231286000000001
#
# number of rings (size 3 to 8) (size 9 to 14) (size 15 to 20)
#    0.000    2.667    1.111    2.333    0.000    2.667 
#    0.000    6.667    0.000    0.000    0.000    0.000 
#    0.000    0.000    0.000    0.000    0.000    0.000 
#
# Total GULP energy -446197.410583 kJ/mol
# GULP energy per Si atom -12394.372516 kJ/mol
# Density = 1.918751 g / cm^3
# Si number density = 19.231286 Si / 1000 Ang^3
#
#
#
# Elastic Constant Matrix: (Units=GPa)
#
#
# Indices 1 2 3 4 5 6 
#
# 1 107.8239 34.3358 22.7279 0.0000 0.0000 0.0000
# 2 34.3358 66.8804 38.5223 0.0000 0.0000 0.0000
# 3 22.7279 38.5223 82.1907 0.0000 0.0000 0.0000
# 4 0.0000 0.0000 0.0000 34.7069 0.0000 0.0000
# 5 0.0000 0.0000 0.0000 0.0000 15.7219 0.0000
# 6 0.0000 0.0000 0.0000 0.0000 0.0000 10.5266
#
#
#
# Elastic Compliance Matrix: (Units=1/GPa)
#
#
# Indices 1 2 3 4 5 6 
#
# 1 0.011105 -0.005387 -0.000546 0.000000 0.000000 0.000000
# 2 -0.005387 0.023094 -0.009335 0.000000 0.000000 0.000000
# 3 -0.000546 -0.009335 0.016693 0.000000 0.000000 0.000000
# 4 0.000000 0.000000 0.000000 0.028813 0.000000 0.000000
# 5 0.000000 0.000000 0.000000 0.000000 0.063606 0.000000
# 6 0.000000 0.000000 0.000000 0.000000 0.000000 0.094998
#
#
# Mechanical properties :
#
#
# Convention : Reuss Voigt Hill
#
# Bulk Modulus (GPa) = 49.12235 49.78523 49.45379
# Shear Modulus (GPa) = 18.14040 22.94501 20.54270
#
# Velocity S-wave (km/s) = 3.07461 3.45789 3.27187
# Velocity P-wave (km/s) = 6.18083 6.47198 6.32808
#
# Compressibility (1/GPa) = 0.02035733
#
# Stress axis : x y z
#
# Youngs Moduli (GPa) = 90.05110 43.30124 59.90580
#
# Poissons Ratio (x) = 0.23324 0.03272
# Poissons Ratio (y) = 0.48506 0.55919
# Poissons Ratio (z) = 0.04918 0.40420
#
# Static dielectric constant tensor:
#      x y z
#    x 3.995870 0.000000 0.000000 
#    y 0.000000 3.248510 0.000000 
#    z 0.000000 0.000000 3.511520 
# 
# 
# High freq. dielectric constant tensor:
#      x y z
#    x 1.750650 0.000000 0.000000 
#    y 0.000000 1.712570 0.000000 
#    z 0.000000 0.000000 1.748370 
# 
# From -- ./inp_files/37658.got.cif
#   From: 2010.03.12/outbox.cif.g09.slc.cpg/sg74_19_cif.got.tgz:37658.got - 2010.04.16 15:46:19.
