data_PCOD8299875
_publ_section_title
;
Structure prediction by ZEFSAII (Michael W. Deem and Ramdas Pophale) SiO2 
 PCOD8299875
Probable space group: I M M A
;
_chemical_formula_sum "Si O2"
_cell_formula_units_Z 96
_cell_length_a 23.847538
_cell_length_b 9.262899
_cell_length_c 23.817772
_cell_angle_alpha 90.000000
_cell_angle_beta 90.000000
_cell_angle_gamma 90.000000
_cell_volume 5261.282382
_symmetry_space_group_name_H-M "I M M A"
_symmetry_group_IT_number 74
_symmetry_cell_setting 'orthorhombic'
loop_
_space_group_symop_operation_xyz
x,y,z
-x,1/2-y,z
x,-y,-z
-x,1/2+y,-z
-x,-y,-z
x,1/2+y,-z
-x,y,z
x,1/2-y,z
1/2+x,1/2+y,1/2+z
1/2-x,-y,1/2+z
1/2+x,1/2-y,1/2-z
1/2-x,y,1/2-z
1/2-x,1/2-y,1/2-z
1/2+x,y,1/2-z
1/2-x,1/2+y,1/2+z
1/2+x,-y,1/2+z
loop_
_atom_site_type_symbol
_atom_site_label
_atom_site_fract_x
_atom_site_fract_y
_atom_site_fract_z
Si Si1 0.652695 0.914728 0.650104
Si Si2 0.234535 0.583491 0.343341
Si Si3 0.935953 0.081005 0.056216
Si Si4 0.355853 0.084074 0.221121
Si Si5 0.064521 0.581199 0.358028
Si Si6 0.347925 0.587901 0.054525
O O1 0.670703 0.750000 0.637001
O O2 0.603530 0.965856 0.608064
O O3 0.630434 0.927838 0.713330
O O4 0.705302 0.018596 0.642918
O O5 0.239976 0.750000 0.324805
O O6 0.202286 0.497791 0.293762
O O7 0.200580 0.566455 0.400457
O O8 0.930893 0.250000 0.044304
O O9 0.000000 0.038117 0.071419
O O10 0.915841 0.000000 0.000000
O O11 0.349604 0.250000 0.201889
O O12 0.408963 0.011486 0.191643
O O13 0.075182 0.750000 0.344749
O O14 0.093445 0.539382 0.417089
O O15 0.000000 0.541088 0.363046
O O16 0.352393 0.750000 0.033497
O O17 0.332763 0.500000 0.000000
#
# Coordination Sequence:
#
# PCOD8299875 Si02
#       6
#    16  16  16  16  16  16
#     4  10  21  35  54  80 106 134 170 212 257 306
#     4  10  21  36  53  75 106 140 172 211 259 308
#     4   9  19  37  57  76 103 137 170 209 257 305
#     4  10  20  34  53  78 107 137 172 214 258 306
#     4   9  19  36  54  74 105 141 175 215 261 305
#     4   9  19  34  51  73 101 135 173 213 257 302
#
# _framework density 18.246503000000001
#
# number of rings (size 3 to 8) (size 9 to 14) (size 15 to 20)
#    0.000    2.500    0.000    2.500    0.000    9.333 
#    0.000    5.000    0.000    2.000    0.000    0.000 
#    0.000    0.000    0.000    0.000    0.000    0.000 
#
# Total GULP energy -595231.636919 kJ/mol
# GULP energy per Si atom -12400.659102 kJ/mol
# Density = 1.820497 g / cm^3
# Si number density = 18.246503 Si / 1000 Ang^3
#
#
#
# Elastic Constant Matrix: (Units=GPa)
#
#
# Indices 1 2 3 4 5 6 
#
# 1 69.2128 27.0834 30.1048 0.0000 0.0000 0.0000
# 2 27.0834 74.5287 40.5168 0.0000 0.0000 0.0000
# 3 30.1048 40.5168 99.2140 0.0000 0.0000 0.0000
# 4 0.0000 0.0000 0.0000 31.9080 0.0000 0.0000
# 5 0.0000 0.0000 0.0000 0.0000 19.7968 0.0000
# 6 0.0000 0.0000 0.0000 0.0000 0.0000 32.2182
#
#
#
# Elastic Compliance Matrix: (Units=1/GPa)
#
#
# Indices 1 2 3 4 5 6 
#
# 1 0.017760 -0.004530 -0.003539 0.000000 0.000000 0.000000
# 2 -0.004530 0.018402 -0.006140 0.000000 0.000000 0.000000
# 3 -0.003539 -0.006140 0.013661 0.000000 0.000000 0.000000
# 4 0.000000 0.000000 0.000000 0.031340 0.000000 0.000000
# 5 0.000000 0.000000 0.000000 0.000000 0.050513 0.000000
# 6 0.000000 0.000000 0.000000 0.000000 0.000000 0.031038
#
#
# Mechanical properties :
#
#
# Convention : Reuss Voigt Hill
#
# Bulk Modulus (GPa) = 46.72042 48.70727 47.71384
# Shear Modulus (GPa) = 25.21839 26.46799 25.84319
#
# Velocity S-wave (km/s) = 3.72169 3.81278 3.76751
# Velocity P-wave (km/s) = 6.64294 6.79228 6.71802
#
# Compressibility (1/GPa) = 0.02140392
#
# Stress axis : x y z
#
# Youngs Moduli (GPa) = 56.30582 54.34196 73.20272
#
# Poissons Ratio (x) = 0.24617 0.25907
# Poissons Ratio (y) = 0.25506 0.44949
# Poissons Ratio (z) = 0.19927 0.33368
#
# Static dielectric constant tensor:
#      x y z
#    x 3.389550 0.000000 0.000000 
#    y 0.000000 3.454130 0.000000 
#    z 0.000000 0.000000 3.308050 
# 
# 
# High freq. dielectric constant tensor:
#      x y z
#    x 1.707080 0.000000 0.000000 
#    y 0.000000 1.711010 0.000000 
#    z 0.000000 0.000000 1.706660 
# 
# From -- ./inp_files/57254.got.cif
#   From: 2010.03.12/outbox.cif.g09.slc.cpg/sg74_29_cif.got.tgz:57254.got - 2010.04.16 15:46:19.
