data_PCOD8299764
_publ_section_title
;
Structure prediction by ZEFSAII (Michael W. Deem and Ramdas Pophale) SiO2 
 PCOD8299764
Probable space group: I M M A
;
_chemical_formula_sum "Si O2"
_cell_formula_units_Z 96
_cell_length_a 9.070012
_cell_length_b 19.467794
_cell_length_c 30.275236
_cell_angle_alpha 90.000000
_cell_angle_beta 90.000000
_cell_angle_gamma 90.000000
_cell_volume 5345.793036
_symmetry_space_group_name_H-M "I M M A"
_symmetry_group_IT_number 74
_symmetry_cell_setting 'orthorhombic'
loop_
_space_group_symop_operation_xyz
x,y,z
-x,1/2-y,z
x,-y,-z
-x,1/2+y,-z
-x,-y,-z
x,1/2+y,-z
-x,y,z
x,1/2-y,z
1/2+x,1/2+y,1/2+z
1/2-x,-y,1/2+z
1/2+x,1/2-y,1/2-z
1/2-x,y,1/2-z
1/2-x,1/2-y,1/2-z
1/2+x,y,1/2-z
1/2-x,1/2+y,1/2+z
1/2+x,-y,1/2+z
loop_
_atom_site_type_symbol
_atom_site_label
_atom_site_fract_x
_atom_site_fract_y
_atom_site_fract_z
Si Si1 0.829295 0.822381 0.203935
Si Si2 0.826379 0.548822 0.626140
Si Si3 0.674438 0.528701 0.297521
Si Si4 0.668884 0.171613 0.414224
Si Si5 0.327474 0.673210 0.483892
Si Si6 0.826312 0.541269 0.457366
O O1 0.791747 0.750000 0.177598
O O2 0.750000 0.819430 0.250000
O O3 0.788982 0.895259 0.181066
O O4 0.000000 0.824294 0.215174
O O5 0.743522 0.527298 0.670420
O O6 0.777016 0.626039 0.615301
O O7 0.777613 0.499294 0.586225
O O8 0.000000 0.546861 0.634162
O O9 0.500000 0.516155 0.292865
O O10 0.750000 0.520947 0.250000
O O11 0.500000 0.147897 0.407794
O O12 0.688413 0.250000 0.398830
O O13 0.715893 0.163618 0.465088
O O14 0.500000 0.662392 0.476952
O O15 0.281976 0.750000 0.468311
O O16 0.242776 0.617164 0.454761
O O17 0.765564 0.500000 0.500000
O O18 0.000000 0.549696 0.460638
#
# Coordination Sequence:
#
# PCOD8299764 Si02
#       6
#    16  16  16  16  16  16
#     4   8  14  26  46  71  96 124 161 205 251 300
#     4  11  22  35  53  78 108 140 179 220 262 315
#     4  10  20  35  55  78 106 139 177 221 271 318
#     4   9  18  33  53  78 106 135 172 217 263 315
#     4   9  18  32  51  76 105 139 179 221 265 314
#     4  10  20  34  50  74 107 142 177 216 260 309
#
# _framework density 17.958047000000001
#
# number of rings (size 3 to 8) (size 9 to 14) (size 15 to 20)
#    0.000    2.500    1.667    2.000    0.000    3.000 
#    0.000    2.500    0.000    3.500    0.000    0.000 
#    0.000    0.000    0.000    0.000    0.000    0.000 
#
# Total GULP energy -594831.404349 kJ/mol
# GULP energy per Si atom -12392.320924 kJ/mol
# Density = 1.791717 g / cm^3
# Si number density = 17.958047 Si / 1000 Ang^3
#
#
#
# Elastic Constant Matrix: (Units=GPa)
#
#
# Indices 1 2 3 4 5 6 
#
# 1 56.8727 41.6336 34.8363 0.0000 0.0000 0.0000
# 2 41.6336 117.4331 40.9591 0.0000 0.0000 0.0000
# 3 34.8363 40.9591 68.0107 0.0000 0.0000 0.0000
# 4 0.0000 0.0000 0.0000 26.8310 0.0000 0.0000
# 5 0.0000 0.0000 0.0000 0.0000 22.8069 0.0000
# 6 0.0000 0.0000 0.0000 0.0000 0.0000 31.9193
#
#
#
# Elastic Compliance Matrix: (Units=1/GPa)
#
#
# Indices 1 2 3 4 5 6 
#
# 1 0.029044 -0.006466 -0.010982 0.000000 0.000000 0.000000
# 2 -0.006466 0.012220 -0.004047 0.000000 0.000000 0.000000
# 3 -0.010982 -0.004047 0.022766 0.000000 0.000000 0.000000
# 4 0.000000 0.000000 0.000000 0.037270 0.000000 0.000000
# 5 0.000000 0.000000 0.000000 0.000000 0.043846 0.000000
# 6 0.000000 0.000000 0.000000 0.000000 0.000000 0.031329
#
#
# Mechanical properties :
#
#
# Convention : Reuss Voigt Hill
#
# Bulk Modulus (GPa) = 47.53285 53.01939 50.27612
# Shear Modulus (GPa) = 22.07704 24.63729 23.35716
#
# Velocity S-wave (km/s) = 3.51004 3.70798 3.61037
# Velocity P-wave (km/s) = 6.55389 6.92245 6.74069
#
# Compressibility (1/GPa) = 0.02103808
#
# Stress axis : x y z
#
# Youngs Moduli (GPa) = 34.43058 81.83604 43.92475
#
# Poissons Ratio (x) = 0.52919 0.48240
# Poissons Ratio (y) = 0.22264 0.17776
# Poissons Ratio (z) = 0.37813 0.33119
#
# Static dielectric constant tensor:
#      x y z
#    x 3.209210 0.000000 0.000000 
#    y 0.000000 3.660610 0.000000 
#    z 0.000000 0.000000 2.942730 
# 
# 
# High freq. dielectric constant tensor:
#      x y z
#    x 1.695940 0.000000 0.000000 
#    y 0.000000 1.709490 0.000000 
#    z 0.000000 0.000000 1.653830 
# 
# From -- ./inp_files/64327.got.cif
#   From: 2010.03.12/outbox.cif.g09.slc.cpg/sg74_33_cif.got.tgz:64327.got - 2010.04.16 15:46:19.
