data_PCOD8299958
_publ_section_title
;
Structure prediction by ZEFSAII (Michael W. Deem and Ramdas Pophale) SiO2 
 PCOD8299958
Probable space group: I M M A
;
_chemical_formula_sum "Si O2"
_cell_formula_units_Z 96
_cell_length_a 20.094080
_cell_length_b 8.918340
_cell_length_c 27.713970
_cell_angle_alpha 90.000000
_cell_angle_beta 90.000000
_cell_angle_gamma 90.000000
_cell_volume 4966.505202
_symmetry_space_group_name_H-M "I M M A"
_symmetry_group_IT_number 74
_symmetry_cell_setting 'orthorhombic'
loop_
_space_group_symop_operation_xyz
x,y,z
-x,1/2-y,z
x,-y,-z
-x,1/2+y,-z
-x,-y,-z
x,1/2+y,-z
-x,y,z
x,1/2-y,z
1/2+x,1/2+y,1/2+z
1/2-x,-y,1/2+z
1/2+x,1/2-y,1/2-z
1/2-x,y,1/2-z
1/2-x,1/2-y,1/2-z
1/2+x,y,1/2-z
1/2-x,1/2+y,1/2+z
1/2+x,-y,1/2+z
loop_
_atom_site_type_symbol
_atom_site_label
_atom_site_fract_x
_atom_site_fract_y
_atom_site_fract_z
Si Si1 0.423005 0.574419 0.449988
Si Si2 0.922974 0.924264 0.396111
Si Si3 0.814342 0.077291 0.782631
Si Si4 0.316854 0.573971 0.615973
Si Si5 0.806425 0.925864 0.550081
Si Si6 0.426650 0.428327 0.788081
O O1 0.399805 0.500000 0.500000
O O2 0.500000 0.537866 0.439187
O O3 0.409948 0.750000 0.454405
O O4 0.380582 0.508810 0.406172
O O5 0.904504 0.750000 0.400899
O O6 0.908142 0.983708 0.341894
O O7 0.000000 0.951336 0.409355
O O8 0.878245 0.017107 0.432895
O O9 0.826292 0.250000 0.797793
O O10 0.750000 0.061653 0.750000
O O11 0.875437 0.010882 0.751466
O O12 0.806824 0.975996 0.829324
O O13 0.330002 0.750000 0.613401
O O14 0.249982 0.527492 0.588174
O O15 0.810536 0.750000 0.542519
O O16 0.785953 0.000000 0.500000
O O17 0.500000 0.486759 0.773706
O O18 0.425487 0.250000 0.789325
#
# Coordination Sequence:
#
# PCOD8299958 Si02
#       6
#    16  16  16  16  16  16
#     4  10  21  38  61  87 114 146 184 227 278 336
#     4   9  18  35  60  86 111 142 180 223 271 323
#     4  10  20  34  55  81 108 143 186 230 277 328
#     4  11  24  39  56  81 113 149 189 233 280 330
#     4  11  24  39  56  79 108 144 184 227 274 325
#     4   8  15  30  53  80 108 138 175 218 263 315
#
# _framework density 19.329487
#
# number of rings (size 3 to 8) (size 9 to 14) (size 15 to 20)
#    0.000    2.167    0.000    4.000    0.000    8.000 
#    0.000    2.500    0.000    1.000    0.000    0.000 
#    0.000    0.000    0.000    0.000    0.000    0.000 
#
# Total GULP energy -595340.140649 kJ/mol
# GULP energy per Si atom -12402.919597 kJ/mol
# Density = 1.928549 g / cm^3
# Si number density = 19.329487 Si / 1000 Ang^3
#
#
#
# Elastic Constant Matrix: (Units=GPa)
#
#
# Indices 1 2 3 4 5 6 
#
# 1 95.3415 40.9784 45.9960 0.0000 0.0000 0.0000
# 2 40.9784 66.7997 38.2676 0.0000 0.0000 0.0000
# 3 45.9960 38.2676 102.4064 0.0000 0.0000 0.0000
# 4 0.0000 0.0000 0.0000 34.0132 0.0000 0.0000
# 5 0.0000 0.0000 0.0000 0.0000 37.4012 0.0000
# 6 0.0000 0.0000 0.0000 0.0000 0.0000 22.2639
#
#
#
# Elastic Compliance Matrix: (Units=1/GPa)
#
#
# Indices 1 2 3 4 5 6 
#
# 1 0.015649 -0.007091 -0.004379 0.000000 0.000000 0.000000
# 2 -0.007091 0.022261 -0.005134 0.000000 0.000000 0.000000
# 3 -0.004379 -0.005134 0.013650 0.000000 0.000000 0.000000
# 4 0.000000 0.000000 0.000000 0.029400 0.000000 0.000000
# 5 0.000000 0.000000 0.000000 0.000000 0.026737 0.000000
# 6 0.000000 0.000000 0.000000 0.000000 0.000000 0.044916
#
#
# Mechanical properties :
#
#
# Convention : Reuss Voigt Hill
#
# Bulk Modulus (GPa) = 54.48769 57.22574 55.85672
# Shear Modulus (GPa) = 26.04997 28.02271 27.03634
#
# Velocity S-wave (km/s) = 3.67506 3.81167 3.74399
# Velocity P-wave (km/s) = 6.80134 7.00296 6.90289
#
# Compressibility (1/GPa) = 0.01835277
#
# Stress axis : x y z
#
# Youngs Moduli (GPa) = 63.90166 44.92111 73.25954
#
# Poissons Ratio (x) = 0.31855 0.32079
# Poissons Ratio (y) = 0.45315 0.37608
# Poissons Ratio (z) = 0.27982 0.23060
#
# Static dielectric constant tensor:
#      x y z
#    x 3.843160 0.000000 0.000000 
#    y 0.000000 3.343570 0.000000 
#    z 0.000000 0.000000 3.517600 
# 
# 
# High freq. dielectric constant tensor:
#      x y z
#    x 1.765130 0.000000 0.000000 
#    y 0.000000 1.734590 0.000000 
#    z 0.000000 0.000000 1.756390 
# 
# From -- ./inp_files/64338.got.cif
#   From: 2010.03.12/outbox.cif.g09.slc.cpg/sg74_33_cif.got.tgz:64338.got - 2010.04.16 15:46:19.
