data_PCOD8299021
_publ_section_title
;
Structure prediction by ZEFSAII (Michael W. Deem and Ramdas Pophale) SiO2 
 PCOD8299021
Probable space group: I M M A
;
_chemical_formula_sum "Si O2"
_cell_formula_units_Z 64
_cell_length_a 13.275800
_cell_length_b 17.667083
_cell_length_c 13.455221
_cell_angle_alpha 90.000000
_cell_angle_beta 90.000000
_cell_angle_gamma 90.000000
_cell_volume 3155.850241
_symmetry_space_group_name_H-M "I M M A"
_symmetry_group_IT_number 74
_symmetry_cell_setting 'orthorhombic'
loop_
_space_group_symop_operation_xyz
x,y,z
-x,1/2-y,z
x,-y,-z
-x,1/2+y,-z
-x,-y,-z
x,1/2+y,-z
-x,y,z
x,1/2-y,z
1/2+x,1/2+y,1/2+z
1/2-x,-y,1/2+z
1/2+x,1/2-y,1/2-z
1/2-x,y,1/2-z
1/2-x,1/2-y,1/2-z
1/2+x,y,1/2-z
1/2-x,1/2+y,1/2+z
1/2+x,-y,1/2+z
loop_
_atom_site_type_symbol
_atom_site_label
_atom_site_fract_x
_atom_site_fract_y
_atom_site_fract_z
Si Si1 0.282933 0.160567 0.143264
Si Si2 0.500000 0.927059 0.139363
Si Si3 0.363434 0.166379 0.725170
Si Si4 0.611633 0.839631 0.497091
Si Si5 0.000000 0.902419 0.592637
O O1 0.273060 0.250000 0.141500
O O2 0.250000 0.128029 0.250000
O O3 0.398681 0.140514 0.123542
O O4 0.202764 0.125640 0.063436
O O5 0.403703 0.891830 0.193295
O O6 0.500000 0.017263 0.147924
O O7 0.500000 0.905109 0.025179
O O8 0.415119 0.250000 0.731992
O O9 0.250000 0.177775 0.750000
O O10 0.379491 0.130637 0.615929
O O11 0.500000 0.862435 0.538745
O O12 0.623654 0.750000 0.496230
#
# Coordination Sequence:
#
# PCOD8299021 Si02
#       5
#    16   8  16  16   8
#     4  10  22  39  63  88 114 155 204 255 301 345
#     4  11  23  39  58  83 122 166 191 235 300 361
#     4  10  19  33  60  94 123 153 192 243 304 366
#     4   9  17  32  57  92 124 145 185 251 310 358
#     4  11  25  41  56  83 120 162 205 243 288 361
#
# _framework density 20.279796000000001
#
# number of rings (size 3 to 8) (size 9 to 14) (size 15 to 20)
#    0.000    2.000    1.250    2.250    1.750    5.000 
#    0.000    0.000    0.000    1.500    0.000    0.000 
#    0.000    0.000    0.000    0.000    0.000    0.000 
#
# Total GULP energy -396540.868061 kJ/mol
# GULP energy per Si atom -12391.902127 kJ/mol
# Density = 2.023364 g / cm^3
# Si number density = 20.279796 Si / 1000 Ang^3
#
#
#
# Elastic Constant Matrix: (Units=GPa)
#
#
# Indices 1 2 3 4 5 6 
#
# 1 166.0881 9.1723 54.6769 0.0000 0.0000 0.0000
# 2 9.1723 35.0556 38.2047 -0.0002 0.0000 0.0000
# 3 54.6769 38.2047 119.8003 -0.0004 0.0000 0.0000
# 4 0.0000 -0.0002 -0.0004 15.0087 0.0000 0.0000
# 5 0.0000 0.0000 0.0000 0.0000 43.7237 0.0000
# 6 0.0000 0.0000 0.0000 0.0000 0.0000 36.0421
#
#
#
# Elastic Compliance Matrix: (Units=1/GPa)
#
#
# Indices 1 2 3 4 5 6 
#
# 1 0.007239 0.002616 -0.004138 0.000000 0.000000 0.000000
# 2 0.002616 0.044667 -0.015438 0.000000 0.000000 0.000000
# 3 -0.004138 -0.015438 0.015159 0.000000 0.000000 0.000000
# 4 0.000000 0.000000 0.000000 0.066628 0.000000 0.000000
# 5 0.000000 0.000000 0.000000 0.000000 0.022871 0.000000
# 6 0.000000 0.000000 0.000000 0.000000 0.000000 0.027745
#
#
# Mechanical properties :
#
#
# Convention : Reuss Voigt Hill
#
# Bulk Modulus (GPa) = 30.17175 58.33908 44.25541
# Shear Modulus (GPa) = 21.80766 33.54757 27.67761
#
# Velocity S-wave (km/s) = 3.28279 4.07164 3.69831
# Velocity P-wave (km/s) = 5.41101 7.13680 6.33297
#
# Compressibility (1/GPa) = 0.03314359
#
# Stress axis : x y z
#
# Youngs Moduli (GPa) = 138.14745 22.38805 65.96753
#
# Poissons Ratio (x) = -0.05856 0.27296
# Poissons Ratio (y) = -0.36133 1.01841
# Poissons Ratio (z) = 0.57163 0.34563
#
# Static dielectric constant tensor:
#      x y z
#    x 3.911230 0.000000 0.000000 
#    y 0.000000 3.307670 0.000000 
#    z 0.000000 0.000000 3.981940 
# 
# 
# High freq. dielectric constant tensor:
#      x y z
#    x 1.817780 0.000000 0.000000 
#    y 0.000000 1.744050 0.000000 
#    z 0.000000 0.000000 1.802080 
# 
# From -- ./inp_files/19999.got.cif
#   From: 2010.03.12/outbox.cif.g09.slc.cpg/sg74_10_cif.got.tgz:19999.got - 2010.04.16 15:46:19.
