data_PCOD8299097
_publ_section_title
;
Structure prediction by ZEFSAII (Michael W. Deem and Ramdas Pophale) SiO2 
 PCOD8299097
Probable space group: I M M A
;
_chemical_formula_sum "Si O2"
_cell_formula_units_Z 96
_cell_length_a 8.709449
_cell_length_b 27.560301
_cell_length_c 20.463939
_cell_angle_alpha 90.000000
_cell_angle_beta 90.000000
_cell_angle_gamma 90.000000
_cell_volume 4912.062334
_symmetry_space_group_name_H-M "I M M A"
_symmetry_group_IT_number 74
_symmetry_cell_setting 'orthorhombic'
loop_
_space_group_symop_operation_xyz
x,y,z
-x,1/2-y,z
x,-y,-z
-x,1/2+y,-z
-x,-y,-z
x,1/2+y,-z
-x,y,z
x,1/2-y,z
1/2+x,1/2+y,1/2+z
1/2-x,-y,1/2+z
1/2+x,1/2-y,1/2-z
1/2-x,y,1/2-z
1/2-x,1/2-y,1/2-z
1/2+x,y,1/2-z
1/2-x,1/2+y,1/2+z
1/2+x,-y,1/2+z
loop_
_atom_site_type_symbol
_atom_site_label
_atom_site_fract_x
_atom_site_fract_y
_atom_site_fract_z
Si Si1 0.677522 0.529744 0.436768
Si Si2 0.822130 0.142356 0.937361
Si Si3 0.682628 0.304455 0.434059
Si Si4 0.318850 0.522892 0.818679
Si Si5 0.319619 0.695238 0.182033
Si Si6 0.182764 0.626785 0.818941
O O1 0.733550 0.500000 0.500000
O O2 0.500000 0.518145 0.421424
O O3 0.704719 0.585982 0.451599
O O4 0.778966 0.515688 0.374424
O O5 0.730751 0.158467 0.873812
O O6 0.000000 0.154250 0.925815
O O7 0.755866 0.171567 0.999340
O O8 0.500000 0.304625 0.434545
O O9 0.748143 0.250000 0.428671
O O10 0.742451 0.335094 0.372498
O O11 0.500000 0.528593 0.811092
O O12 0.250000 0.504359 0.750000
O O13 0.245815 0.574233 0.838572
O O14 0.500000 0.693835 0.188923
O O15 0.261693 0.750000 0.166324
O O16 0.250000 0.676606 0.250000
O O17 0.250000 0.644253 0.750000
O O18 0.000000 0.624267 0.815297
#
# Coordination Sequence:
#
# PCOD8299097 Si02
#       6
#    16  16  16  16  16  16
#     4  10  21  38  59  83 111 144 183 226 274 327
#     4  10  20  35  58  83 107 140 181 225 270 319
#     4   9  18  33  55  82 110 143 183 223 266 320
#     4  11  22  37  58  82 110 145 184 227 274 326
#     4  10  21  37  57  81 110 144 180 220 267 319
#     4  10  19  34  56  81 111 146 183 225 271 321
#
# _framework density 19.543727000000001
#
# number of rings (size 3 to 8) (size 9 to 14) (size 15 to 20)
#    0.000    2.000    0.000    5.000    0.000    6.333 
#    0.000    3.333    0.000    3.500    0.000    0.000 
#    0.000    0.000    0.000    0.000    0.000    0.000 
#
# Total GULP energy -595396.287774 kJ/mol
# GULP energy per Si atom -12404.089329 kJ/mol
# Density = 1.949924 g / cm^3
# Si number density = 19.543727 Si / 1000 Ang^3
#
#
#
# Elastic Constant Matrix: (Units=GPa)
#
#
# Indices 1 2 3 4 5 6 
#
# 1 73.6472 22.7997 32.4578 0.0000 0.0000 0.0000
# 2 22.7997 76.4928 45.7109 0.0000 0.0000 0.0000
# 3 32.4578 45.7109 122.4314 0.0000 0.0000 0.0000
# 4 0.0000 0.0000 0.0000 42.2142 0.0000 0.0000
# 5 0.0000 0.0000 0.0000 0.0000 30.3846 0.0000
# 6 0.0000 0.0000 0.0000 0.0000 0.0000 22.2121
#
#
#
# Elastic Compliance Matrix: (Units=1/GPa)
#
#
# Indices 1 2 3 4 5 6 
#
# 1 0.015842 -0.002847 -0.003137 0.000000 0.000000 0.000000
# 2 -0.002847 0.017339 -0.005719 0.000000 0.000000 0.000000
# 3 -0.003137 -0.005719 0.011135 0.000000 0.000000 0.000000
# 4 0.000000 0.000000 0.000000 0.023689 0.000000 0.000000
# 5 0.000000 0.000000 0.000000 0.000000 0.032911 0.000000
# 6 0.000000 0.000000 0.000000 0.000000 0.000000 0.045021
#
#
# Mechanical properties :
#
#
# Convention : Reuss Voigt Hill
#
# Bulk Modulus (GPa) = 47.82437 52.72314 50.27375
# Shear Modulus (GPa) = 28.35860 30.40237 29.38049
#
# Velocity S-wave (km/s) = 3.81338 3.94840 3.88147
# Velocity P-wave (km/s) = 6.62666 6.91535 6.77254
#
# Compressibility (1/GPa) = 0.02090984
#
# Stress axis : x y z
#
# Youngs Moduli (GPa) = 63.12248 57.67214 89.80979
#
# Poissons Ratio (x) = 0.16422 0.28171
# Poissons Ratio (y) = 0.17974 0.51362
# Poissons Ratio (z) = 0.19800 0.32982
#
# Static dielectric constant tensor:
#      x y z
#    x 3.386930 0.000000 0.000000 
#    y 0.000000 3.620220 0.000000 
#    z 0.000000 0.000000 3.687700 
# 
# 
# High freq. dielectric constant tensor:
#      x y z
#    x 1.744760 0.000000 0.000000 
#    y 0.000000 1.762460 0.000000 
#    z 0.000000 0.000000 1.774730 
# 
# From -- ./inp_files/49103.got.cif
#   From: 2010.03.12/outbox.cif.g09.slc.cpg/sg74_25_cif.got.tgz:49103.got - 2010.04.16 15:46:19.
