data_PCOD8299985
_publ_section_title
;
Structure prediction by ZEFSAII (Michael W. Deem and Ramdas Pophale) SiO2 
 PCOD8299985
Probable space group: I M M A
;
_chemical_formula_sum "Si O2"
_cell_formula_units_Z 112
_cell_length_a 14.131898
_cell_length_b 14.981048
_cell_length_c 23.409502
_cell_angle_alpha 90.000000
_cell_angle_beta 90.000000
_cell_angle_gamma 90.000000
_cell_volume 4956.040704
_symmetry_space_group_name_H-M "I M M A"
_symmetry_group_IT_number 74
_symmetry_cell_setting 'orthorhombic'
loop_
_space_group_symop_operation_xyz
x,y,z
-x,1/2-y,z
x,-y,-z
-x,1/2+y,-z
-x,-y,-z
x,1/2+y,-z
-x,y,z
x,1/2-y,z
1/2+x,1/2+y,1/2+z
1/2-x,-y,1/2+z
1/2+x,1/2-y,1/2-z
1/2-x,y,1/2-z
1/2-x,1/2-y,1/2-z
1/2+x,y,1/2-z
1/2-x,1/2+y,1/2+z
1/2+x,-y,1/2+z
loop_
_atom_site_type_symbol
_atom_site_label
_atom_site_fract_x
_atom_site_fract_y
_atom_site_fract_z
Si Si1 0.233467 0.849975 0.684092
Si Si2 0.106355 0.594205 0.895203
Si Si3 0.105616 0.110427 0.881275
Si Si4 0.389715 0.018140 0.835944
Si Si5 0.387937 0.652560 0.257879
Si Si6 0.893917 0.852859 0.441617
Si Si7 0.207981 0.349855 0.996944
O O1 0.189746 0.750000 0.678046
O O2 0.250000 0.872953 0.750000
O O3 0.332462 0.849283 0.649682
O O4 0.163973 0.923984 0.657195
O O5 0.101961 0.494735 0.872888
O O6 0.154341 0.587962 0.958042
O O7 0.000000 0.634719 0.899494
O O8 0.151114 0.146137 0.822495
O O9 0.000000 0.148459 0.891278
O O10 0.168943 0.142195 0.933242
O O11 0.500000 0.996564 0.827853
O O12 0.347626 0.073912 0.782178
O O13 0.371388 0.079410 0.890699
O O14 0.500000 0.642403 0.259098
O O15 0.358693 0.750000 0.233398
O O16 0.882520 0.750000 0.420366
O O17 0.820130 0.872583 0.493119
O O18 0.000000 0.868814 0.465256
O O19 0.193101 0.250000 0.020077
#
# Coordination Sequence:
#
# PCOD8299985 Si02
#       7
#    16  16  16  16  16  16  16
#     4  11  25  43  63  88 118 156 205 260 314 367
#     4  11  24  43  66  89 116 156 205 254 307 366
#     4  10  20  34  55  86 125 164 200 248 309 367
#     4  10  20  37  62  90 123 164 206 251 305 365
#     4   9  17  31  56  92 130 165 202 245 298 364
#     4   9  19  37  61  90 125 164 204 248 303 367
#     4  11  22  36  58  88 121 159 204 252 302 361
#
# _framework density 22.598683999999999
#
# number of rings (size 3 to 8) (size 9 to 14) (size 15 to 20)
#    0.000    1.857    0.000    3.857    0.000    7.429 
#    0.000    2.143    0.000    9.429    0.000    0.000 
#    0.000    0.000    0.000    0.000    0.000    0.000 
#
# Total GULP energy -694296.461206 kJ/mol
# GULP energy per Si atom -12398.151093 kJ/mol
# Density = 2.254725 g / cm^3
# Si number density = 22.598684 Si / 1000 Ang^3
#
#
#
# Elastic Constant Matrix: (Units=GPa)
#
#
# Indices 1 2 3 4 5 6 
#
# 1 121.9306 45.6124 58.2224 0.0000 0.0000 0.0000
# 2 45.6124 120.1269 26.4770 0.0000 0.0000 0.0000
# 3 58.2224 26.4770 84.2857 0.0000 0.0000 0.0000
# 4 0.0000 0.0000 0.0000 7.7273 0.0000 0.0000
# 5 0.0000 0.0000 0.0000 0.0000 29.0152 0.0000
# 6 0.0000 0.0000 0.0000 0.0000 0.0000 24.8515
#
#
#
# Elastic Compliance Matrix: (Units=1/GPa)
#
#
# Indices 1 2 3 4 5 6 
#
# 1 0.013327 -0.003257 -0.008183 0.000000 0.000000 0.000000
# 2 -0.003257 0.009740 -0.000810 0.000000 0.000000 0.000000
# 3 -0.008183 -0.000810 0.017771 0.000000 0.000000 0.000000
# 4 0.000000 0.000000 0.000000 0.129411 0.000000 0.000000
# 5 0.000000 0.000000 0.000000 0.000000 0.034465 0.000000
# 6 0.000000 0.000000 0.000000 0.000000 0.000000 0.040239
#
#
# Mechanical properties :
#
#
# Convention : Reuss Voigt Hill
#
# Bulk Modulus (GPa) = 61.20339 65.21853 63.21096
# Shear Modulus (GPa) = 18.18858 25.38756 21.78807
#
# Velocity S-wave (km/s) = 2.84007 3.35537 3.10841
# Velocity P-wave (km/s) = 6.15599 6.62823 6.39647
#
# Compressibility (1/GPa) = 0.01633897
#
# Stress axis : x y z
#
# Youngs Moduli (GPa) = 75.03525 102.67344 56.27019
#
# Poissons Ratio (x) = 0.33438 0.46046
# Poissons Ratio (y) = 0.24437 0.04557
# Poissons Ratio (z) = 0.61401 0.08315
#
# Static dielectric constant tensor:
#      x y z
#    x 4.256700 0.000000 0.000000 
#    y 0.000000 4.071080 0.000000 
#    z 0.000000 0.000000 3.886900 
# 
# 
# High freq. dielectric constant tensor:
#      x y z
#    x 1.891680 0.000000 0.000000 
#    y 0.000000 1.896960 0.000000 
#    z 0.000000 0.000000 1.879930 
# 
# From -- ./inp_files/60171.got.cif
#   From: 2010.03.12/outbox.cif.g09.slc.cpg/sg74_31_cif.got.tgz:60171.got - 2010.04.16 15:46:19.
