data_PCOD8299921
_publ_section_title
;
Structure prediction by ZEFSAII (Michael W. Deem and Ramdas Pophale) SiO2 
 PCOD8299921
Probable space group: I M M A
;
_chemical_formula_sum "Si O2"
_cell_formula_units_Z 72
_cell_length_a 8.590807
_cell_length_b 13.366576
_cell_length_c 32.428508
_cell_angle_alpha 90.000000
_cell_angle_beta 90.000000
_cell_angle_gamma 90.000000
_cell_volume 3723.755024
_symmetry_space_group_name_H-M "I M M A"
_symmetry_group_IT_number 74
_symmetry_cell_setting 'orthorhombic'
loop_
_space_group_symop_operation_xyz
x,y,z
-x,1/2-y,z
x,-y,-z
-x,1/2+y,-z
-x,-y,-z
x,1/2+y,-z
-x,y,z
x,1/2-y,z
1/2+x,1/2+y,1/2+z
1/2-x,-y,1/2+z
1/2+x,1/2-y,1/2-z
1/2-x,y,1/2-z
1/2-x,1/2-y,1/2-z
1/2+x,y,1/2-z
1/2-x,1/2+y,1/2+z
1/2+x,-y,1/2+z
loop_
_atom_site_type_symbol
_atom_site_label
_atom_site_fract_x
_atom_site_fract_y
_atom_site_fract_z
Si Si1 0.183760 0.138091 0.794633
Si Si2 0.684687 0.041815 0.434370
Si Si3 0.184081 0.750000 0.704425
Si Si4 0.314632 0.142271 0.515760
Si Si5 0.814600 0.058666 0.157525
O O1 0.239050 0.250000 0.809275
O O2 0.250000 0.112682 0.750000
O O3 0.000000 0.136590 0.791489
O O4 0.240195 0.049883 0.825235
O O5 0.500000 0.037308 0.430781
O O6 0.739535 0.121872 0.468600
O O7 0.751001 0.066524 0.389238
O O8 0.750655 0.935593 0.450839
O O9 0.250000 0.750000 0.750000
O O10 0.240548 0.649657 0.682200
O O11 0.000000 0.750000 0.706011
O O12 0.500000 0.136960 0.516064
O O13 0.250765 0.250000 0.529068
O O14 0.000000 0.069294 0.159838
#
# Coordination Sequence:
#
# PCOD8299921 Si02
#       5
#    16  16   8  16  16
#     4   9  18  32  50  73 100 131 167 207 257 314
#     4   8  15  25  39  67 101 133 170 208 256 306
#     4  12  26  42  58  78 106 140 180 226 274 326
#     4   8  13  22  38  63 101 141 170 206 253 303
#     4  10  20  34  54  79 108 141 177 220 267 319
#
# _framework density 19.335322000000001
#
# number of rings (size 3 to 8) (size 9 to 14) (size 15 to 20)
#    0.000    2.889    0.000    3.000    1.556    3.556 
#    0.000    4.444    0.000    0.000    0.000    3.111 
#    0.000    0.000    0.000    0.000    0.000    0.000 
#
# Total GULP energy -446035.983825 kJ/mol
# GULP energy per Si atom -12389.888440 kJ/mol
# Density = 1.929131 g / cm^3
# Si number density = 19.335322 Si / 1000 Ang^3
#
#
#
# Elastic Constant Matrix: (Units=GPa)
#
#
# Indices 1 2 3 4 5 6 
#
# 1 25.4437 26.9709 24.4152 0.0000 0.0000 0.0000
# 2 26.9709 145.4050 66.9643 0.0000 0.0000 0.0000
# 3 24.4152 66.9643 151.4730 0.0000 0.0000 0.0000
# 4 0.0000 0.0000 0.0000 20.4691 0.0000 0.0000
# 5 0.0000 0.0000 0.0000 0.0000 15.3942 0.0000
# 6 0.0000 0.0000 0.0000 0.0000 0.0000 15.5856
#
#
#
# Elastic Compliance Matrix: (Units=1/GPa)
#
#
# Indices 1 2 3 4 5 6 
#
# 1 0.051952 -0.007258 -0.005165 0.000000 0.000000 0.000000
# 2 -0.007258 0.009649 -0.003096 0.000000 0.000000 0.000000
# 3 -0.005165 -0.003096 0.008803 0.000000 0.000000 0.000000
# 4 0.000000 0.000000 0.000000 0.048854 0.000000 0.000000
# 5 0.000000 0.000000 0.000000 0.000000 0.064960 0.000000
# 6 0.000000 0.000000 0.000000 0.000000 0.000000 0.064162
#
#
# Mechanical properties :
#
#
# Convention : Reuss Voigt Hill
#
# Bulk Modulus (GPa) = 25.40224 62.11360 43.75792
# Shear Modulus (GPa) = 17.09162 23.88786 20.48974
#
# Velocity S-wave (km/s) = 2.97637 3.51871 3.25884
# Velocity P-wave (km/s) = 4.99780 6.97873 6.06962
#
# Compressibility (1/GPa) = 0.03936660
#
# Stress axis : x y z
#
# Youngs Moduli (GPa) = 19.24842 103.63338 113.59583
#
# Poissons Ratio (x) = 0.75214 0.58677
# Poissons Ratio (y) = 0.13970 0.35170
# Poissons Ratio (z) = 0.09943 0.32085
#
# Static dielectric constant tensor:
#      x y z
#    x 3.004260 0.000000 0.000000 
#    y 0.000000 4.006840 0.000000 
#    z 0.000000 0.000000 3.766190 
# 
# 
# High freq. dielectric constant tensor:
#      x y z
#    x 1.693050 0.000000 0.000000 
#    y 0.000000 1.770490 0.000000 
#    z 0.000000 0.000000 1.756560 
# 
# From -- ./inp_files/69976.got.cif
#   From: 2010.03.12/outbox.cif.g09.slc.cpg/sg74_35_cif.got.tgz:69976.got - 2010.04.16 15:46:19.
