data_PCOD8299331
_publ_section_title
;
Structure prediction by ZEFSAII (Michael W. Deem and Ramdas Pophale) SiO2 
 PCOD8299331
Probable space group: I M M A
;
_chemical_formula_sum "Si O2"
_cell_formula_units_Z 96
_cell_length_a 13.856732
_cell_length_b 15.738386
_cell_length_c 21.018019
_cell_angle_alpha 90.000000
_cell_angle_beta 90.000000
_cell_angle_gamma 90.000000
_cell_volume 4583.664166
_symmetry_space_group_name_H-M "I M M A"
_symmetry_group_IT_number 74
_symmetry_cell_setting 'orthorhombic'
loop_
_space_group_symop_operation_xyz
x,y,z
-x,1/2-y,z
x,-y,-z
-x,1/2+y,-z
-x,-y,-z
x,1/2+y,-z
-x,y,z
x,1/2-y,z
1/2+x,1/2+y,1/2+z
1/2-x,-y,1/2+z
1/2+x,1/2-y,1/2-z
1/2-x,y,1/2-z
1/2-x,1/2-y,1/2-z
1/2+x,y,1/2-z
1/2-x,1/2+y,1/2+z
1/2+x,-y,1/2+z
loop_
_atom_site_type_symbol
_atom_site_label
_atom_site_fract_x
_atom_site_fract_y
_atom_site_fract_z
Si Si1 0.760614 0.347664 0.351237
Si Si2 0.884617 0.250000 0.688308
Si Si3 0.728211 0.906439 0.989670
Si Si4 0.614471 0.750000 0.043782
Si Si5 0.385998 0.604896 0.280086
Si Si6 0.111074 0.651061 0.080300
Si Si7 0.387009 0.586698 0.745088
O O1 0.777761 0.250000 0.367793
O O2 0.745386 0.398750 0.415812
O O3 0.665364 0.356902 0.308121
O O4 0.854742 0.383280 0.314866
O O5 0.845786 0.250000 0.616168
O O6 0.844410 0.167000 0.725375
O O7 0.000000 0.250000 0.687224
O O8 0.651725 0.834927 0.009760
O O9 0.827174 0.900716 0.029275
O O10 0.682584 0.000000 0.000000
O O11 0.500000 0.750000 0.040124
O O12 0.500000 0.614243 0.280733
O O13 0.347603 0.631994 0.349359
O O14 0.353214 0.510211 0.263522
O O15 0.122610 0.750000 0.064884
O O16 0.000000 0.621811 0.074075
O O17 0.500000 0.599558 0.736948
#
# Coordination Sequence:
#
# PCOD8299331 Si02
#       7
#    16   8  16   8  16  16  16
#     4  11  24  44  62  88 126 157 206 266 311 370
#     4   9  18  35  61  90 127 163 200 256 304 360
#     4  12  26  45  66  93 132 171 217 267 317 382
#     4  11  26  47  66  91 129 171 221 267 317 376
#     4   9  17  34  61  96 130 160 200 252 309 374
#     4  10  19  37  65  97 134 172 205 249 322 396
#     4  10  22  39  65  94 121 159 208 259 316 371
#
# _framework density 20.943943000000001
#
# number of rings (size 3 to 8) (size 9 to 14) (size 15 to 20)
#    0.000    1.667    2.500    2.000    2.333    3.333 
#    0.000    0.833    0.000    0.000    0.000    0.000 
#    0.000    0.000    0.000    0.000    0.000    0.000 
#
# Total GULP energy -595391.673797 kJ/mol
# GULP energy per Si atom -12403.993204 kJ/mol
# Density = 2.089627 g / cm^3
# Si number density = 20.943943 Si / 1000 Ang^3
#
#
#
# Elastic Constant Matrix: (Units=GPa)
#
#
# Indices 1 2 3 4 5 6 
#
# 1 81.7503 21.9828 30.0394 0.0000 0.0000 0.0000
# 2 21.9828 135.8652 38.1076 0.0000 0.0000 0.0000
# 3 30.0394 38.1076 145.6630 0.0000 0.0000 0.0000
# 4 0.0000 0.0000 0.0000 35.1262 0.0000 0.0000
# 5 0.0000 0.0000 0.0000 0.0000 26.4284 0.0000
# 6 0.0000 0.0000 0.0000 0.0000 0.0000 7.8195
#
#
#
# Elastic Compliance Matrix: (Units=1/GPa)
#
#
# Indices 1 2 3 4 5 6 
#
# 1 0.013519 -0.001517 -0.002391 0.000000 0.000000 0.000000
# 2 -0.001517 0.008113 -0.001810 0.000000 0.000000 0.000000
# 3 -0.002391 -0.001810 0.007832 0.000000 0.000000 0.000000
# 4 0.000000 0.000000 0.000000 0.028469 0.000000 0.000000
# 5 0.000000 0.000000 0.000000 0.000000 0.037838 0.000000
# 6 0.000000 0.000000 0.000000 0.000000 0.000000 0.127885
#
#
# Mechanical properties :
#
#
# Convention : Reuss Voigt Hill
#
# Bulk Modulus (GPa) = 55.46721 60.39312 57.93017
# Shear Modulus (GPa) = 20.73822 32.08472 26.41147
#
# Velocity S-wave (km/s) = 3.15012 3.91824 3.55499
# Velocity P-wave (km/s) = 6.30652 7.02626 6.67610
#
# Compressibility (1/GPa) = 0.01802867
#
# Stress axis : x y z
#
# Youngs Moduli (GPa) = 73.97082 123.25538 127.68561
#
# Poissons Ratio (x) = 0.18694 0.30531
# Poissons Ratio (y) = 0.11219 0.23108
# Poissons Ratio (z) = 0.17688 0.22306
#
# Static dielectric constant tensor:
#      x y z
#    x 3.581070 0.000000 0.000000 
#    y 0.000000 3.871020 0.000000 
#    z 0.000000 0.000000 3.874400 
# 
# 
# High freq. dielectric constant tensor:
#      x y z
#    x 1.814750 0.000000 0.000000 
#    y 0.000000 1.828580 0.000000 
#    z 0.000000 0.000000 1.827060 
# 
# From -- ./inp_files/51935.got.cif
#   From: 2010.03.12/outbox.cif.g09.slc.cpg/sg74_26_cif.got.tgz:51935.got - 2010.04.16 15:46:19.
