data_PCOD8299069
_publ_section_title
;
Structure prediction by ZEFSAII (Michael W. Deem and Ramdas Pophale) SiO2 
 PCOD8299069
Probable space group: I M M A
;
_chemical_formula_sum "Si O2"
_cell_formula_units_Z 88
_cell_length_a 24.981939
_cell_length_b 8.591948
_cell_length_c 20.036943
_cell_angle_alpha 90.000000
_cell_angle_beta 90.000000
_cell_angle_gamma 90.000000
_cell_volume 4300.799992
_symmetry_space_group_name_H-M "I M M A"
_symmetry_group_IT_number 74
_symmetry_cell_setting 'orthorhombic'
loop_
_space_group_symop_operation_xyz
x,y,z
-x,1/2-y,z
x,-y,-z
-x,1/2+y,-z
-x,-y,-z
x,1/2+y,-z
-x,y,z
x,1/2-y,z
1/2+x,1/2+y,1/2+z
1/2-x,-y,1/2+z
1/2+x,1/2-y,1/2-z
1/2-x,y,1/2-z
1/2-x,1/2-y,1/2-z
1/2+x,y,1/2-z
1/2-x,1/2+y,1/2+z
1/2+x,-y,1/2+z
loop_
_atom_site_type_symbol
_atom_site_label
_atom_site_fract_x
_atom_site_fract_y
_atom_site_fract_z
Si Si1 0.941208 0.924250 0.808710
Si Si2 0.913563 0.932772 0.323562
Si Si3 0.500000 0.935405 0.924152
Si Si4 0.735903 0.925938 0.436329
Si Si5 0.794556 0.426199 0.699952
Si Si6 0.877278 0.931284 0.931433
O O1 0.920997 0.750000 0.788903
O O2 0.904754 0.003831 0.865700
O O3 0.000000 0.913630 0.839881
O O4 0.945178 0.033457 0.744024
O O5 0.910195 0.750000 0.339465
O O6 0.853671 0.003017 0.306772
O O7 0.945713 0.010097 0.385502
O O8 0.500000 0.750000 0.926720
O O9 0.500000 0.000000 0.000000
O O10 0.716976 0.750000 0.451336
O O11 0.774680 0.932961 0.374847
O O12 0.766877 0.000000 0.500000
O O13 0.684953 0.033372 0.423933
O O14 0.801853 0.250000 0.726301
O O15 0.750000 0.506556 0.750000
O O16 0.888996 0.750000 0.931878
O O17 0.901119 0.000000 0.000000
#
# Coordination Sequence:
#
# PCOD8299069 Si02
#       6
#    16  16   8  16  16  16
#     4  10  21  37  56  79 113 153 190 237 292 341
#     4  11  22  39  64  93 121 155 202 248 301 367
#     4  12  26  46  68  92 125 162 207 262 320 374
#     4  10  19  34  55  78 109 147 183 229 286 344
#     4   9  19  35  57  87 121 154 193 245 298 354
#     4  10  20  34  53  79 112 152 196 241 287 338
#
# _framework density 20.461309
#
# number of rings (size 3 to 8) (size 9 to 14) (size 15 to 20)
#    0.000    1.818    0.909    4.636    0.000    4.000 
#    0.000    5.455    0.000    6.545    0.000    0.000 
#    0.000    0.000    0.000    0.000    0.000    0.000 
#
# Total GULP energy -545173.982726 kJ/mol
# GULP energy per Si atom -12390.317789 kJ/mol
# Density = 2.041474 g / cm^3
# Si number density = 20.461309 Si / 1000 Ang^3
#
#
#
# Elastic Constant Matrix: (Units=GPa)
#
#
# Indices 1 2 3 4 5 6 
#
# 1 114.7655 23.6180 53.9071 0.0000 0.0000 0.0000
# 2 23.6180 66.9207 34.8573 0.0000 0.0000 0.0000
# 3 53.9071 34.8573 117.0718 0.0000 0.0000 0.0000
# 4 0.0000 0.0000 0.0000 29.9295 0.0000 0.0000
# 5 0.0000 0.0000 0.0000 0.0000 28.2463 0.0000
# 6 0.0000 0.0000 0.0000 0.0000 0.0000 14.2200
#
#
#
# Elastic Compliance Matrix: (Units=1/GPa)
#
#
# Indices 1 2 3 4 5 6 
#
# 1 0.011245 -0.001505 -0.004730 0.000000 0.000000 0.000000
# 2 -0.001505 0.017887 -0.004633 0.000000 0.000000 0.000000
# 3 -0.004730 -0.004633 0.012099 0.000000 0.000000 0.000000
# 4 0.000000 0.000000 0.000000 0.033412 0.000000 0.000000
# 5 0.000000 0.000000 0.000000 0.000000 0.035403 0.000000
# 6 0.000000 0.000000 0.000000 0.000000 0.000000 0.070324
#
#
# Mechanical properties :
#
#
# Convention : Reuss Voigt Hill
#
# Bulk Modulus (GPa) = 51.29239 58.16920 54.73080
# Shear Modulus (GPa) = 23.96897 26.90421 25.43659
#
# Velocity S-wave (km/s) = 3.42633 3.63006 3.52967
# Velocity P-wave (km/s) = 6.38556 6.78678 6.58923
#
# Compressibility (1/GPa) = 0.01949607
#
# Stress axis : x y z
#
# Youngs Moduli (GPa) = 88.93055 55.90550 82.65160
#
# Poissons Ratio (x) = 0.08414 0.39091
# Poissons Ratio (y) = 0.13384 0.38291
# Poissons Ratio (z) = 0.42061 0.25900
#
# Static dielectric constant tensor:
#      x y z
#    x 3.796370 0.000000 0.000000 
#    y 0.000000 3.626260 0.000000 
#    z 0.000000 0.000000 4.083930 
# 
# 
# High freq. dielectric constant tensor:
#      x y z
#    x 1.798900 0.000000 0.000000 
#    y 0.000000 1.780710 0.000000 
#    z 0.000000 0.000000 1.811920 
# 
# From -- ./inp_files/54502.got.cif
#   From: 2010.03.12/outbox.cif.g09.slc.cpg/sg74_28_cif.got.tgz:54502.got - 2010.04.16 15:46:19.
