data_PCOD8299157
_publ_section_title
;
Structure prediction by ZEFSAII (Michael W. Deem and Ramdas Pophale) SiO2 
 PCOD8299157
Probable space group: I M M A
;
_chemical_formula_sum "Si O2"
_cell_formula_units_Z 96
_cell_length_a 24.360461
_cell_length_b 16.807822
_cell_length_c 11.975686
_cell_angle_alpha 90.000000
_cell_angle_beta 90.000000
_cell_angle_gamma 90.000000
_cell_volume 4903.400231
_symmetry_space_group_name_H-M "I M M A"
_symmetry_group_IT_number 74
_symmetry_cell_setting 'orthorhombic'
loop_
_space_group_symop_operation_xyz
x,y,z
-x,1/2-y,z
x,-y,-z
-x,1/2+y,-z
-x,-y,-z
x,1/2+y,-z
-x,y,z
x,1/2-y,z
1/2+x,1/2+y,1/2+z
1/2-x,-y,1/2+z
1/2+x,1/2-y,1/2-z
1/2-x,y,1/2-z
1/2-x,1/2-y,1/2-z
1/2+x,y,1/2-z
1/2-x,1/2+y,1/2+z
1/2+x,-y,1/2+z
loop_
_atom_site_type_symbol
_atom_site_label
_atom_site_fract_x
_atom_site_fract_y
_atom_site_fract_z
Si Si1 0.562253 0.576926 0.891473
Si Si2 0.317074 0.092097 0.477761
Si Si3 0.873672 0.659272 0.781200
Si Si4 0.374350 0.915045 0.088877
Si Si5 0.204838 0.658101 0.577244
Si Si6 0.310628 0.842859 0.281124
O O1 0.500000 0.545665 0.892782
O O2 0.571111 0.633027 0.784608
O O3 0.607143 0.505604 0.886364
O O4 0.576927 0.622595 0.009311
O O5 0.367869 0.105718 0.392810
O O6 0.267803 0.133890 0.410686
O O7 0.327125 0.136739 0.593410
O O8 0.307045 0.000000 0.500000
O O9 0.879926 0.750000 0.818832
O O10 0.822912 0.646609 0.697069
O O11 0.361478 0.875441 0.207328
O O12 0.318945 0.901888 0.016467
O O13 0.199222 0.750000 0.536603
O O14 0.308377 0.750000 0.262161
O O15 0.250000 0.878730 0.250000
#
# Coordination Sequence:
#
# PCOD8299157 Si02
#       6
#    16  16  16  16  16  16
#     4  10  22  40  63  90 116 148 198 262 316 346
#     4  12  24  34  55  84 122 163 200 237 282 351
#     4  10  22  39  59  83 114 153 203 254 301 347
#     4  10  19  34  59  87 121 157 195 234 290 352
#     4  10  20  35  56  83 121 162 198 238 281 343
#     4  11  22  36  55  82 125 169 197 226 276 354
#
# _framework density 19.578251000000002
#
# number of rings (size 3 to 8) (size 9 to 14) (size 15 to 20)
#    0.000    1.500    1.667    4.500    4.667    3.667 
#    0.000    0.000    0.000   11.500    0.000    0.000 
#    0.000    0.000    0.000    0.000    0.000    0.000 
#
# Total GULP energy -594696.096842 kJ/mol
# GULP energy per Si atom -12389.502018 kJ/mol
# Density = 1.953369 g / cm^3
# Si number density = 19.578251 Si / 1000 Ang^3
#
#
#
# Elastic Constant Matrix: (Units=GPa)
#
#
# Indices 1 2 3 4 5 6 
#
# 1 73.6427 38.8900 40.7975 0.0000 0.0000 0.0000
# 2 38.8900 87.2960 39.8311 0.0000 0.0000 0.0000
# 3 40.7975 39.8311 117.9685 0.0000 0.0000 0.0000
# 4 0.0000 0.0000 0.0000 30.1537 0.0000 0.0000
# 5 0.0000 0.0000 0.0000 0.0000 14.8544 0.0000
# 6 0.0000 0.0000 0.0000 0.0000 0.0000 13.9430
#
#
#
# Elastic Compliance Matrix: (Units=1/GPa)
#
#
# Indices 1 2 3 4 5 6 
#
# 1 0.019611 -0.006670 -0.004530 0.000000 0.000000 0.000000
# 2 -0.006670 0.015810 -0.003031 0.000000 0.000000 0.000000
# 3 -0.004530 -0.003031 0.011067 0.000000 0.000000 0.000000
# 4 0.000000 0.000000 0.000000 0.033163 0.000000 0.000000
# 5 0.000000 0.000000 0.000000 0.000000 0.067320 0.000000
# 6 0.000000 0.000000 0.000000 0.000000 0.000000 0.071720
#
#
# Mechanical properties :
#
#
# Convention : Reuss Voigt Hill
#
# Bulk Modulus (GPa) = 55.47764 57.54938 56.51351
# Shear Modulus (GPa) = 19.75016 22.41613 21.08315
#
# Velocity S-wave (km/s) = 3.17958 3.38738 3.28512
# Velocity P-wave (km/s) = 6.47128 6.69011 6.58160
#
# Compressibility (1/GPa) = 0.01802528
#
# Stress axis : x y z
#
# Youngs Moduli (GPa) = 50.99209 63.25217 90.35809
#
# Poissons Ratio (x) = 0.42186 0.40934
# Poissons Ratio (y) = 0.34009 0.27392
# Poissons Ratio (z) = 0.23100 0.19175
#
# Static dielectric constant tensor:
#      x y z
#    x 3.284170 0.000000 0.000000 
#    y 0.000000 3.546770 0.000000 
#    z 0.000000 0.000000 3.915230 
# 
# 
# High freq. dielectric constant tensor:
#      x y z
#    x 1.722550 0.000000 0.000000 
#    y 0.000000 1.758720 0.000000 
#    z 0.000000 0.000000 1.773070 
# 
# From -- ./inp_files/25156.got.cif
#   From: 2010.03.12/outbox.cif.g09.slc.cpg/sg74_13_cif.got.tgz:25156.got - 2010.04.16 15:46:19.
