data_PCOD8299073
_publ_section_title
;
Structure prediction by ZEFSAII (Michael W. Deem and Ramdas Pophale) SiO2 
 PCOD8299073
Probable space group: I M M A
;
_chemical_formula_sum "Si O2"
_cell_formula_units_Z 96
_cell_length_a 15.064733
_cell_length_b 15.195830
_cell_length_c 21.275220
_cell_angle_alpha 90.000000
_cell_angle_beta 90.000000
_cell_angle_gamma 90.000000
_cell_volume 4870.347226
_symmetry_space_group_name_H-M "I M M A"
_symmetry_group_IT_number 74
_symmetry_cell_setting 'orthorhombic'
loop_
_space_group_symop_operation_xyz
x,y,z
-x,1/2-y,z
x,-y,-z
-x,1/2+y,-z
-x,-y,-z
x,1/2+y,-z
-x,y,z
x,1/2-y,z
1/2+x,1/2+y,1/2+z
1/2-x,-y,1/2+z
1/2+x,1/2-y,1/2-z
1/2-x,y,1/2-z
1/2-x,1/2-y,1/2-z
1/2+x,y,1/2-z
1/2-x,1/2+y,1/2+z
1/2+x,-y,1/2+z
loop_
_atom_site_type_symbol
_atom_site_label
_atom_site_fract_x
_atom_site_fract_y
_atom_site_fract_z
Si Si1 0.775570 0.076531 0.390171
Si Si2 0.598440 0.653534 0.799913
Si Si3 0.663890 0.500624 0.712041
Si Si4 0.259824 0.848935 0.477418
Si Si5 0.098125 0.941188 0.438449
Si Si6 0.399110 0.648335 0.371594
O O1 0.829539 0.155087 0.356477
O O2 0.689430 0.052483 0.350770
O O3 0.737100 0.094161 0.459241
O O4 0.847632 0.997318 0.387463
O O5 0.500000 0.645199 0.829230
O O6 0.608625 0.750000 0.766503
O O7 0.609474 0.571949 0.752274
O O8 0.750000 0.468402 0.750000
O O9 0.610668 0.413062 0.690599
O O10 0.283020 0.750000 0.495260
O O11 0.158938 0.855285 0.451066
O O12 0.331625 0.884023 0.426600
O O13 0.000000 0.913300 0.413793
O O14 0.087157 0.000000 0.500000
O O15 0.500000 0.640144 0.396534
O O16 0.377779 0.750000 0.353308
#
# Coordination Sequence:
#
# PCOD8299073 Si02
#       6
#    16  16  16  16  16  16
#     4  10  19  34  55  79 113 147 188 229 289 347
#     4  10  21  36  55  83 117 152 194 237 283 344
#     4  10  21  36  59  84 110 152 192 244 288 335
#     4  10  20  34  55  82 113 147 188 235 285 348
#     4   9  17  30  50  75 106 142 182 225 274 338
#     4  10  21  39  61  85 115 152 194 241 291 344
#
# _framework density 19.711120999999999
#
# number of rings (size 3 to 8) (size 9 to 14) (size 15 to 20)
#    0.000    2.167    1.667    1.500    0.000    5.000 
#    0.000    2.500    0.000    2.000    0.000    0.000 
#    0.000    0.000    0.000    0.000    0.000    0.000 
#
# Total GULP energy -594679.962029 kJ/mol
# GULP energy per Si atom -12389.165876 kJ/mol
# Density = 1.966626 g / cm^3
# Si number density = 19.711121 Si / 1000 Ang^3
#
#
#
# Elastic Constant Matrix: (Units=GPa)
#
#
# Indices 1 2 3 4 5 6 
#
# 1 87.5141 26.5530 19.1485 0.0000 0.0000 0.0000
# 2 26.5530 79.6317 42.7119 0.0000 0.0000 0.0000
# 3 19.1485 42.7119 71.3790 0.0000 0.0000 0.0000
# 4 0.0000 0.0000 0.0000 24.7595 0.0000 0.0000
# 5 0.0000 0.0000 0.0000 0.0000 23.2872 0.0000
# 6 0.0000 0.0000 0.0000 0.0000 0.0000 24.3120
#
#
#
# Elastic Compliance Matrix: (Units=1/GPa)
#
#
# Indices 1 2 3 4 5 6 
#
# 1 0.012794 -0.003571 -0.001295 0.000000 0.000000 0.000000
# 2 -0.003571 0.019490 -0.010705 0.000000 0.000000 0.000000
# 3 -0.001295 -0.010705 0.020763 0.000000 0.000000 0.000000
# 4 0.000000 0.000000 0.000000 0.040389 0.000000 0.000000
# 5 0.000000 0.000000 0.000000 0.000000 0.042942 0.000000
# 6 0.000000 0.000000 0.000000 0.000000 0.000000 0.041132
#
#
# Mechanical properties :
#
#
# Convention : Reuss Voigt Hill
#
# Bulk Modulus (GPa) = 45.65265 46.15019 45.90142
# Shear Modulus (GPa) = 23.15322 24.47916 23.81619
#
# Velocity S-wave (km/s) = 3.43100 3.52788 3.47978
# Velocity P-wave (km/s) = 6.23753 6.32919 6.28353
#
# Compressibility (1/GPa) = 0.02190453
#
# Stress axis : x y z
#
# Youngs Moduli (GPa) = 78.16346 51.30760 48.16363
#
# Poissons Ratio (x) = 0.18324 0.06237
# Poissons Ratio (y) = 0.27916 0.51557
# Poissons Ratio (z) = 0.10122 0.54923
#
# Static dielectric constant tensor:
#      x y z
#    x 3.762110 0.000000 0.000000 
#    y 0.000000 3.579910 0.000000 
#    z 0.000000 0.000000 3.464910 
# 
# 
# High freq. dielectric constant tensor:
#      x y z
#    x 1.769460 0.000000 0.000000 
#    y 0.000000 1.763620 0.000000 
#    z 0.000000 0.000000 1.749990 
# 
# From -- ./inp_files/51820.got.cif
#   From: 2010.03.12/outbox.cif.g09.slc.cpg/sg74_26_cif.got.tgz:51820.got - 2010.04.16 15:46:19.
