data_PCOD8299800
_publ_section_title
;
Structure prediction by ZEFSAII (Michael W. Deem and Ramdas Pophale) SiO2 
 PCOD8299800
Probable space group: I M M A
;
_chemical_formula_sum "Si O2"
_cell_formula_units_Z 104
_cell_length_a 8.920456
_cell_length_b 27.865984
_cell_length_c 22.650383
_cell_angle_alpha 90.000000
_cell_angle_beta 90.000000
_cell_angle_gamma 90.000000
_cell_volume 5630.370692
_symmetry_space_group_name_H-M "I M M A"
_symmetry_group_IT_number 74
_symmetry_cell_setting 'orthorhombic'
loop_
_space_group_symop_operation_xyz
x,y,z
-x,1/2-y,z
x,-y,-z
-x,1/2+y,-z
-x,-y,-z
x,1/2+y,-z
-x,y,z
x,1/2-y,z
1/2+x,1/2+y,1/2+z
1/2-x,-y,1/2+z
1/2+x,1/2-y,1/2-z
1/2-x,y,1/2-z
1/2-x,1/2-y,1/2-z
1/2+x,y,1/2-z
1/2-x,1/2+y,1/2+z
1/2+x,-y,1/2+z
loop_
_atom_site_type_symbol
_atom_site_label
_atom_site_fract_x
_atom_site_fract_y
_atom_site_fract_z
Si Si1 0.823372 0.851335 0.686981
Si Si2 0.323648 0.194658 0.812942
Si Si3 0.826489 0.610051 0.119748
Si Si4 0.173710 0.250000 0.312397
Si Si5 0.671261 0.053302 0.985230
Si Si6 0.327656 0.016808 0.688345
Si Si7 0.171254 0.061032 0.383929
O O1 0.750000 0.852913 0.750000
O O2 0.784962 0.800015 0.654593
O O3 0.753715 0.894686 0.650266
O O4 0.000000 0.858397 0.693082
O O5 0.500000 0.185664 0.807264
O O6 0.289196 0.250000 0.830912
O O7 0.250000 0.182559 0.750000
O O8 0.258760 0.159293 0.863412
O O9 0.764763 0.585263 0.060334
O O10 0.806315 0.572919 0.173830
O O11 0.000000 0.622366 0.109094
O O12 0.250000 0.250000 0.250000
O O13 0.000000 0.250000 0.297757
O O14 0.500000 0.049074 0.961638
O O15 0.681351 0.078466 0.048617
O O16 0.735299 0.000000 0.000000
O O17 0.500000 0.002712 0.694470
O O18 0.250000 0.003677 0.750000
O O19 0.259325 0.987328 0.633228
O O20 0.000000 0.051223 0.366010
#
# Coordination Sequence:
#
# PCOD8299800 Si02
#       7
#    16  16  16   8  16  16  16
#     4   9  17  29  47  71  98 127 163 204 254 311
#     4  10  21  38  62  91 121 151 186 231 286 347
#     4  11  23  37  57  83 111 148 189 232 276 331
#     4   8  14  26  44  66  92 122 154 194 241 292
#     4  10  20  36  57  77 103 144 186 228 273 322
#     4  11  23  35  50  76 109 141 175 216 267 325
#     4  10  20  34  52  74 101 137 178 220 269 321
#
# _framework density 18.471253000000001
#
# number of rings (size 3 to 8) (size 9 to 14) (size 15 to 20)
#    0.000    2.000    1.538    2.308    0.000    6.769 
#    0.000    0.000    1.692    0.000    0.000    0.000 
#    0.000    0.000    0.000    0.000    0.000    0.000 
#
# Total GULP energy -644370.987289 kJ/mol
# GULP energy per Si atom -12391.749756 kJ/mol
# Density = 1.842921 g / cm^3
# Si number density = 18.471253 Si / 1000 Ang^3
#
#
#
# Elastic Constant Matrix: (Units=GPa)
#
#
# Indices 1 2 3 4 5 6 
#
# 1 88.8853 50.0787 38.1536 0.0000 0.0000 0.0000
# 2 50.0787 133.0762 44.6610 0.0000 0.0000 0.0000
# 3 38.1536 44.6610 78.7413 0.0001 0.0000 0.0000
# 4 0.0000 0.0000 0.0001 24.5428 0.0000 0.0000
# 5 0.0000 0.0000 0.0000 0.0000 27.8223 0.0000
# 6 0.0000 0.0000 0.0000 0.0000 0.0000 19.3997
#
#
#
# Elastic Compliance Matrix: (Units=1/GPa)
#
#
# Indices 1 2 3 4 5 6 
#
# 1 0.015900 -0.004197 -0.005324 0.000000 0.000000 0.000000
# 2 -0.004197 0.010389 -0.003859 0.000000 0.000000 0.000000
# 3 -0.005324 -0.003859 0.017468 0.000000 0.000000 0.000000
# 4 0.000000 0.000000 0.000000 0.040745 0.000000 0.000000
# 5 0.000000 0.000000 0.000000 0.000000 0.035942 0.000000
# 6 0.000000 0.000000 0.000000 0.000000 0.000000 0.051547
#
#
# Mechanical properties :
#
#
# Convention : Reuss Voigt Hill
#
# Bulk Modulus (GPa) = 58.83044 62.94325 60.88685
# Shear Modulus (GPa) = 24.45974 25.54025 25.00000
#
# Velocity S-wave (km/s) = 3.64291 3.72251 3.68292
# Velocity P-wave (km/s) = 7.04367 7.25440 7.14981
#
# Compressibility (1/GPa) = 0.01699800
#
# Stress axis : x y z
#
# Youngs Moduli (GPa) = 62.89210 96.25687 57.24663
#
# Poissons Ratio (x) = 0.40397 0.30478
# Poissons Ratio (y) = 0.26394 0.22091
# Poissons Ratio (z) = 0.33484 0.37145
#
# Static dielectric constant tensor:
#      x y z
#    x 3.378070 0.000000 0.000000 
#    y 0.000000 3.899220 0.000000 
#    z 0.000000 0.000000 3.279860 
# 
# 
# High freq. dielectric constant tensor:
#      x y z
#    x 1.715770 0.000000 0.000000 
#    y 0.000000 1.727420 0.000000 
#    z 0.000000 0.000000 1.695150 
# 
# From -- ./inp_files/57599.got.cif
#   From: 2010.03.12/outbox.cif.g09.slc.cpg/sg74_29_cif.got.tgz:57599.got - 2010.04.16 15:46:19.
