data_PCOD8299189
_publ_section_title
;
Structure prediction by ZEFSAII (Michael W. Deem and Ramdas Pophale) SiO2 
 PCOD8299189
Probable space group: I M M A
;
_chemical_formula_sum "Si O2"
_cell_formula_units_Z 120
_cell_length_a 26.615742
_cell_length_b 9.137241
_cell_length_c 27.828500
_cell_angle_alpha 90.000000
_cell_angle_beta 90.000000
_cell_angle_gamma 90.000000
_cell_volume 6767.736725
_symmetry_space_group_name_H-M "I M M A"
_symmetry_group_IT_number 74
_symmetry_cell_setting 'orthorhombic'
loop_
_space_group_symop_operation_xyz
x,y,z
-x,1/2-y,z
x,-y,-z
-x,1/2+y,-z
-x,-y,-z
x,1/2+y,-z
-x,y,z
x,1/2-y,z
1/2+x,1/2+y,1/2+z
1/2-x,-y,1/2+z
1/2+x,1/2-y,1/2-z
1/2-x,y,1/2-z
1/2-x,1/2-y,1/2-z
1/2+x,y,1/2-z
1/2-x,1/2+y,1/2+z
1/2+x,-y,1/2+z
loop_
_atom_site_type_symbol
_atom_site_label
_atom_site_fract_x
_atom_site_fract_y
_atom_site_fract_z
Si Si1 0.390961 0.578310 0.448967
Si Si2 0.500000 0.081805 0.549126
Si Si3 0.197351 0.576831 0.120396
Si Si4 0.702128 0.081391 0.279492
Si Si5 0.364041 0.084300 0.191441
Si Si6 0.295246 0.582917 0.896590
Si Si7 0.894997 0.421414 0.450661
Si Si8 0.442366 0.582496 0.136161
O O1 0.383460 0.500000 0.500000
O O2 0.383963 0.750000 0.458299
O O3 0.446544 0.543827 0.425229
O O4 0.349784 0.521776 0.411115
O O5 0.500000 0.250000 0.535583
O O6 0.500000 0.000000 0.500000
O O7 0.199002 0.750000 0.124486
O O8 0.192300 0.511665 0.173338
O O9 0.247921 0.521522 0.094324
O O10 0.711610 0.250000 0.294191
O O11 0.750000 0.021516 0.250000
O O12 0.652962 0.064300 0.246233
O O13 0.382383 0.250000 0.181180
O O14 0.317028 0.050702 0.156465
O O15 0.409763 0.974780 0.181103
O O16 0.277175 0.750000 0.900741
O O17 0.337356 0.547151 0.936294
O O18 0.907852 0.500000 0.500000
O O19 0.905715 0.250000 0.455543
O O20 0.931928 0.485764 0.410655
O O21 0.500000 0.567011 0.151199
O O22 0.427845 0.750000 0.125144
#
# Coordination Sequence:
#
# PCOD8299189 Si02
#       8
#    16   8  16  16  16  16  16  16
#     4   9  19  34  52  76 103 134 172 210 251 300
#     4   8  14  30  54  72  92 126 166 206 246 290
#     4  11  22  32  48  80 112 136 171 215 258 307
#     4  10  19  35  56  77 104 138 175 212 256 309
#     4   9  18  34  56  77  98 132 175 216 259 309
#     4   9  18  34  51  70  99 137 173 207 256 313
#     4  10  21  36  54  75 102 138 179 221 266 315
#     4  10  21  36  55  79 106 136 173 219 269 320
#
# _framework density 17.731186000000001
#
# number of rings (size 3 to 8) (size 9 to 14) (size 15 to 20)
#    0.000    2.400    1.333    2.000    0.000    6.400 
#    0.000    2.667    1.467    0.000    0.000    0.000 
#    0.000    0.000    0.000    0.000    0.000    0.000 
#
# Total GULP energy -743845.103724 kJ/mol
# GULP energy per Si atom -12397.418395 kJ/mol
# Density = 1.769083 g / cm^3
# Si number density = 17.731186 Si / 1000 Ang^3
#
#
#
# Elastic Constant Matrix: (Units=GPa)
#
#
# Indices 1 2 3 4 5 6 
#
# 1 119.2779 53.4101 41.1332 0.0000 0.0000 0.0000
# 2 53.4101 80.7496 34.4021 0.0000 0.0000 0.0000
# 3 41.1332 34.4021 69.7485 0.0000 0.0000 0.0000
# 4 0.0000 0.0000 0.0000 29.2677 0.0000 0.0000
# 5 0.0000 0.0000 0.0000 0.0000 16.8710 0.0000
# 6 0.0000 0.0000 0.0000 0.0000 0.0000 29.2027
#
#
#
# Elastic Compliance Matrix: (Units=1/GPa)
#
#
# Indices 1 2 3 4 5 6 
#
# 1 0.012850 -0.006673 -0.004287 0.000000 0.000000 0.000000
# 2 -0.006673 0.019144 -0.005507 0.000000 0.000000 0.000000
# 3 -0.004287 -0.005507 0.019582 0.000000 0.000000 0.000000
# 4 0.000000 0.000000 0.000000 0.034167 0.000000 0.000000
# 5 0.000000 0.000000 0.000000 0.000000 0.059273 0.000000
# 6 0.000000 0.000000 0.000000 0.000000 0.000000 0.034243
#
#
# Mechanical properties :
#
#
# Convention : Reuss Voigt Hill
#
# Bulk Modulus (GPa) = 53.64300 58.62965 56.13632
# Shear Modulus (GPa) = 22.89298 24.45698 23.67498
#
# Velocity S-wave (km/s) = 3.59711 3.71795 3.65803
# Velocity P-wave (km/s) = 6.89720 7.18112 7.04059
#
# Compressibility (1/GPa) = 0.01864176
#
# Stress axis : x y z
#
# Youngs Moduli (GPa) = 77.81977 52.23585 51.06857
#
# Poissons Ratio (x) = 0.34858 0.21892
# Poissons Ratio (y) = 0.51930 0.28123
# Poissons Ratio (z) = 0.33360 0.28766
#
# Static dielectric constant tensor:
#      x y z
#    x 3.525850 0.000000 0.000000 
#    y 0.000000 3.158000 0.000000 
#    z 0.000000 0.000000 3.111750 
# 
# 
# High freq. dielectric constant tensor:
#      x y z
#    x 1.687880 0.000000 0.000000 
#    y 0.000000 1.688980 0.000000 
#    z 0.000000 0.000000 1.665370 
# 
# From -- ./inp_files/69036.got.cif
#   From: 2010.03.12/outbox.cif.g09.slc.cpg/sg74_35_cif.got.tgz:69036.got - 2010.04.16 15:46:19.
