data_PCOD8299890
_publ_section_title
;
Structure prediction by ZEFSAII (Michael W. Deem and Ramdas Pophale) SiO2 
 PCOD8299890
Probable space group: I M M A
;
_chemical_formula_sum "Si O2"
_cell_formula_units_Z 80
_cell_length_a 28.921701
_cell_length_b 16.315568
_cell_length_c 8.434766
_cell_angle_alpha 90.000000
_cell_angle_beta 90.000000
_cell_angle_gamma 90.000000
_cell_volume 3980.146597
_symmetry_space_group_name_H-M "I M M A"
_symmetry_group_IT_number 74
_symmetry_cell_setting 'orthorhombic'
loop_
_space_group_symop_operation_xyz
x,y,z
-x,1/2-y,z
x,-y,-z
-x,1/2+y,-z
-x,-y,-z
x,1/2+y,-z
-x,y,z
x,1/2-y,z
1/2+x,1/2+y,1/2+z
1/2-x,-y,1/2+z
1/2+x,1/2-y,1/2-z
1/2-x,y,1/2-z
1/2-x,1/2-y,1/2-z
1/2+x,y,1/2-z
1/2-x,1/2+y,1/2+z
1/2+x,-y,1/2+z
loop_
_atom_site_type_symbol
_atom_site_label
_atom_site_fract_x
_atom_site_fract_y
_atom_site_fract_z
Si Si1 0.130260 0.576059 0.393944
Si Si2 0.552027 0.080694 0.401937
Si Si3 0.301091 0.480811 0.315691
Si Si4 0.633066 0.654850 0.791276
Si Si5 0.948538 0.840752 0.217519
O O1 0.116349 0.500000 0.500000
O O2 0.173593 0.553981 0.281405
O O3 0.140210 0.650042 0.517492
O O4 0.086151 0.593224 0.286867
O O5 0.500000 0.066476 0.333632
O O6 0.586138 0.106820 0.260026
O O7 0.552153 0.155035 0.527150
O O8 0.568612 0.000000 0.500000
O O9 0.300874 0.500000 0.500000
O O10 0.250000 0.474197 0.250000
O O11 0.324847 0.392218 0.293242
O O12 0.632596 0.750000 0.739886
O O13 0.933141 0.750000 0.269280
O O14 0.000000 0.860258 0.281358
#
# Coordination Sequence:
#
# PCOD8299890 Si02
#       5
#    16  16  16  16  16
#     4  10  21  37  58  84 115 152 193 238 288 347
#     4  10  20  35  56  83 118 161 205 242 280 336
#     4  11  23  43  67  87 111 148 194 242 295 355
#     4  11  22  36  58  89 123 156 193 242 297 350
#     4  10  20  34  53  79 114 154 193 235 283 334
#
# _framework density 20.099762999999999
#
# number of rings (size 3 to 8) (size 9 to 14) (size 15 to 20)
#    0.000    1.600    0.000    7.200    0.000    2.800 
#    0.000    1.000    0.000    4.200    0.000    0.000 
#    0.000    0.000    0.000    0.000    0.000    0.000 
#
# Total GULP energy -495814.932471 kJ/mol
# GULP energy per Si atom -12395.373312 kJ/mol
# Density = 2.005402 g / cm^3
# Si number density = 20.099763 Si / 1000 Ang^3
#
#
#
# Elastic Constant Matrix: (Units=GPa)
#
#
# Indices 1 2 3 4 5 6 
#
# 1 142.7750 61.9894 59.5197 0.0000 0.0000 0.0000
# 2 61.9894 97.8594 40.3914 0.0000 0.0000 0.0000
# 3 59.5197 40.3914 118.9039 0.0000 0.0000 0.0000
# 4 0.0000 0.0000 0.0000 29.6766 0.0000 0.0000
# 5 0.0000 0.0000 0.0000 0.0000 36.8583 0.0000
# 6 0.0000 0.0000 0.0000 0.0000 0.0000 15.1894
#
#
#
# Elastic Compliance Matrix: (Units=1/GPa)
#
#
# Indices 1 2 3 4 5 6 
#
# 1 0.010841 -0.005382 -0.003598 0.000000 0.000000 0.000000
# 2 -0.005382 0.014557 -0.002251 0.000000 0.000000 0.000000
# 3 -0.003598 -0.002251 0.010976 0.000000 0.000000 0.000000
# 4 0.000000 0.000000 0.000000 0.033697 0.000000 0.000000
# 5 0.000000 0.000000 0.000000 0.000000 0.027131 0.000000
# 6 0.000000 0.000000 0.000000 0.000000 0.000000 0.065835
#
#
# Mechanical properties :
#
#
# Convention : Reuss Voigt Hill
#
# Bulk Modulus (GPa) = 71.88361 75.92660 73.90511
# Shear Modulus (GPa) = 26.29694 29.52071 27.90883
#
# Velocity S-wave (km/s) = 3.62100 3.83653 3.73032
# Velocity P-wave (km/s) = 7.30227 7.58170 7.44330
#
# Compressibility (1/GPa) = 0.01391138
#
# Stress axis : x y z
#
# Youngs Moduli (GPa) = 92.24413 68.69538 91.10771
#
# Poissons Ratio (x) = 0.36971 0.32784
# Poissons Ratio (y) = 0.49645 0.20508
# Poissons Ratio (z) = 0.33193 0.15463
#
# Static dielectric constant tensor:
#      x y z
#    x 3.589570 0.000000 0.000000 
#    y 0.000000 3.797570 0.000000 
#    z 0.000000 0.000000 3.929290 
# 
# 
# High freq. dielectric constant tensor:
#      x y z
#    x 1.779130 0.000000 0.000000 
#    y 0.000000 1.783210 0.000000 
#    z 0.000000 0.000000 1.787640 
# 
# From -- ./inp_files/10930.got.cif
#   From: 2010.03.12/outbox.cif.g09.slc.cpg/sg74_6_cif.got.tgz:10930.got - 2010.04.16 15:46:19.
