data_PCOD8299075
_publ_section_title
;
Structure prediction by ZEFSAII (Michael W. Deem and Ramdas Pophale) SiO2 
 PCOD8299075
Probable space group: I M M A
;
_chemical_formula_sum "Si O2"
_cell_formula_units_Z 104
_cell_length_a 19.076612
_cell_length_b 9.443627
_cell_length_c 30.266271
_cell_angle_alpha 90.000000
_cell_angle_beta 90.000000
_cell_angle_gamma 90.000000
_cell_volume 5452.541606
_symmetry_space_group_name_H-M "I M M A"
_symmetry_group_IT_number 74
_symmetry_cell_setting 'orthorhombic'
loop_
_space_group_symop_operation_xyz
x,y,z
-x,1/2-y,z
x,-y,-z
-x,1/2+y,-z
-x,-y,-z
x,1/2+y,-z
-x,y,z
x,1/2-y,z
1/2+x,1/2+y,1/2+z
1/2-x,-y,1/2+z
1/2+x,1/2-y,1/2-z
1/2-x,y,1/2-z
1/2-x,1/2-y,1/2-z
1/2+x,y,1/2-z
1/2-x,1/2+y,1/2+z
1/2+x,-y,1/2+z
loop_
_atom_site_type_symbol
_atom_site_label
_atom_site_fract_x
_atom_site_fract_y
_atom_site_fract_z
Si Si1 0.579174 0.592367 0.426792
Si Si2 0.824467 0.913504 0.228574
Si Si3 0.919342 0.091370 0.690985
Si Si4 0.682245 0.000000 0.500000
Si Si5 0.422573 0.582180 0.895183
Si Si6 0.778921 0.908626 0.574617
Si Si7 0.663115 0.080191 0.360792
O O1 0.500000 0.559964 0.443125
O O2 0.583942 0.750000 0.406403
O O3 0.632031 0.590972 0.468538
O O4 0.597586 0.478321 0.389117
O O5 0.832467 0.750000 0.213655
O O6 0.750000 0.943091 0.250000
O O7 0.880627 0.958482 0.265029
O O8 0.837171 0.016505 0.187675
O O9 0.894780 0.250000 0.676969
O O10 0.000000 0.090698 0.703450
O O11 0.902743 0.982417 0.652092
O O12 0.736232 0.092605 0.471087
O O13 0.500000 0.526535 0.911185
O O14 0.426384 0.750000 0.890599
O O15 0.359074 0.529270 0.927828
O O16 0.790443 0.750000 0.590061
O O17 0.732651 0.978170 0.613759
O O18 0.657919 0.250000 0.359179
#
# Coordination Sequence:
#
# PCOD8299075 Si02
#       7
#    16  16  16   8  16  16  16
#     4  10  21  37  57  79 104 136 173 214 260 311
#     4  10  20  33  50  74 104 138 176 217 261 309
#     4   9  18  32  49  70  97 129 165 206 250 294
#     4  10  19  34  55  80 104 132 168 206 251 312
#     4   9  17  31  52  75  99 131 169 206 247 297
#     4   9  18  33  51  73 102 132 163 205 254 300
#     4  10  21  35  52  75 104 138 175 216 262 311
#
# _framework density 19.073674
#
# number of rings (size 3 to 8) (size 9 to 14) (size 15 to 20)
#    0.000    2.462    0.000    2.077    0.000    2.462 
#    0.000    5.769    0.000    0.000    0.000    0.000 
#    0.000    0.000    0.000    0.000    0.000    0.000 
#
# Total GULP energy -644268.638346 kJ/mol
# GULP energy per Si atom -12389.781507 kJ/mol
# Density = 1.903026 g / cm^3
# Si number density = 19.073674 Si / 1000 Ang^3
#
#
#
# Elastic Constant Matrix: (Units=GPa)
#
#
# Indices 1 2 3 4 5 6 
#
# 1 146.9937 37.9556 66.7480 0.0000 0.0000 0.0000
# 2 37.9556 61.6811 30.1920 0.0000 0.0000 0.0000
# 3 66.7480 30.1920 91.8362 0.0000 0.0000 0.0000
# 4 0.0000 0.0000 0.0000 27.5789 0.0000 0.0000
# 5 0.0000 0.0000 0.0000 0.0000 29.2656 0.0000
# 6 0.0000 0.0000 0.0000 0.0000 0.0000 21.3465
#
#
#
# Elastic Compliance Matrix: (Units=1/GPa)
#
#
# Indices 1 2 3 4 5 6 
#
# 1 0.010692 -0.003308 -0.006684 0.000000 0.000000 0.000000
# 2 -0.003308 0.020345 -0.004284 0.000000 0.000000 0.000000
# 3 -0.006684 -0.004284 0.017155 0.000000 0.000000 0.000000
# 4 0.000000 0.000000 0.000000 0.036260 0.000000 0.000000
# 5 0.000000 0.000000 0.000000 0.000000 0.034170 0.000000
# 6 0.000000 0.000000 0.000000 0.000000 0.000000 0.046846
#
#
# Mechanical properties :
#
#
# Convention : Reuss Voigt Hill
#
# Bulk Modulus (GPa) = 50.91509 63.36689 57.14099
# Shear Modulus (GPa) = 24.92932 26.67922 25.80427
#
# Velocity S-wave (km/s) = 3.61917 3.74404 3.68213
# Velocity P-wave (km/s) = 6.64954 7.21004 6.93546
#
# Compressibility (1/GPa) = 0.01964054
#
# Stress axis : x y z
#
# Youngs Moduli (GPa) = 93.52666 49.15192 58.29088
#
# Poissons Ratio (x) = 0.16259 0.38960
# Poissons Ratio (y) = 0.30937 0.24974
# Poissons Ratio (z) = 0.62511 0.21059
#
# Static dielectric constant tensor:
#      x y z
#    x 4.000730 0.000000 0.000000 
#    y 0.000000 3.359660 0.000000 
#    z 0.000000 0.000000 3.292900 
# 
# 
# High freq. dielectric constant tensor:
#      x y z
#    x 1.761840 0.000000 0.000000 
#    y 0.000000 1.726730 0.000000 
#    z 0.000000 0.000000 1.723520 
# 
# From -- ./inp_files/73374.got.cif
#   From: 2010.03.12/outbox.cif.g09.slc.cpg/sg74_37_cif.got.tgz:73374.got - 2010.04.16 15:46:19.
