data_PCOD8299005
_publ_section_title
;
Structure prediction by ZEFSAII (Michael W. Deem and Ramdas Pophale) SiO2 
 PCOD8299005
Probable space group: I M M A
;
_chemical_formula_sum "Si O2"
_cell_formula_units_Z 84
_cell_length_a 19.248526
_cell_length_b 13.812693
_cell_length_c 18.068956
_cell_angle_alpha 90.000000
_cell_angle_beta 90.000000
_cell_angle_gamma 90.000000
_cell_volume 4804.065252
_symmetry_space_group_name_H-M "I M M A"
_symmetry_group_IT_number 74
_symmetry_cell_setting 'orthorhombic'
loop_
_space_group_symop_operation_xyz
x,y,z
-x,1/2-y,z
x,-y,-z
-x,1/2+y,-z
-x,-y,-z
x,1/2+y,-z
-x,y,z
x,1/2-y,z
1/2+x,1/2+y,1/2+z
1/2-x,-y,1/2+z
1/2+x,1/2-y,1/2-z
1/2-x,y,1/2-z
1/2-x,1/2-y,1/2-z
1/2+x,y,1/2-z
1/2-x,1/2+y,1/2+z
1/2+x,-y,1/2+z
loop_
_atom_site_type_symbol
_atom_site_label
_atom_site_fract_x
_atom_site_fract_y
_atom_site_fract_z
Si Si1 0.000000 0.750000 0.372958
Si Si2 0.354994 0.250000 0.207321
Si Si3 0.000000 0.457173 0.580573
Si Si4 0.577721 0.250000 0.730727
Si Si5 0.319614 0.421556 0.715498
Si Si6 0.727057 0.455578 0.420407
Si Si7 0.202948 0.750000 0.861908
Si Si8 0.130620 0.049449 0.346200
O O1 0.000000 0.841569 0.426953
O O2 0.068674 0.750000 0.320243
O O3 0.276514 0.250000 0.178451
O O4 0.355328 0.250000 0.297049
O O5 0.394735 0.157382 0.173896
O O6 0.000000 0.500000 0.500000
O O7 0.933055 0.487322 0.625909
O O8 0.500000 0.250000 0.694226
O O9 0.619406 0.155755 0.705323
O O10 0.250000 0.371818 0.750000
O O11 0.307129 0.469865 0.636610
O O12 0.340083 0.507140 0.770403
O O13 0.710175 0.500000 0.500000
O O14 0.695071 0.347057 0.411954
O O15 0.810022 0.450245 0.408847
#
# Coordination Sequence:
#
# PCOD8299005 Si02
#       8
#     4   8   8   8  16  16   8  16
#     4  10  22  38  56  76 108 152 184 216 278 324
#     4   9  16  30  56  76 100 142 193 223 262 320
#     4  12  24  38  56  78 118 150 183 219 275 330
#     4  10  19  36  58  81 104 148 192 224 272 325
#     4  10  19  33  57  82 107 142 194 231 266 324
#     4  10  20  33  53  84 116 139 178 233 289 325
#     4   9  16  31  51  76 107 144 174 222 285 328
#     4  10  19  35  54  81 108 152 186 225 264 329
#
# _framework density 17.485191
#
# number of rings (size 3 to 8) (size 9 to 14) (size 15 to 20)
#    0.286    1.714    3.810    0.857    0.000    1.905 
#    0.000    3.810    0.000    0.571    0.000    0.000 
#    0.000    0.000    0.000    0.000    0.000    0.000 
#
# Total GULP energy -520694.358134 kJ/mol
# GULP energy per Si atom -12397.484717 kJ/mol
# Density = 1.744539 g / cm^3
# Si number density = 17.485191 Si / 1000 Ang^3
#
#
#
# Elastic Constant Matrix: (Units=GPa)
#
#
# Indices 1 2 3 4 5 6 
#
# 1 75.9130 43.2454 27.0117 0.0000 0.0000 0.0000
# 2 43.2454 147.1370 52.5380 0.0000 0.0000 0.0000
# 3 27.0117 52.5380 119.0358 0.0000 0.0000 0.0000
# 4 0.0000 0.0000 0.0000 22.5439 0.0000 0.0000
# 5 0.0000 0.0000 0.0000 0.0000 10.7562 0.0000
# 6 0.0000 0.0000 0.0000 0.0000 0.0000 15.5234
#
#
#
# Elastic Compliance Matrix: (Units=1/GPa)
#
#
# Indices 1 2 3 4 5 6 
#
# 1 0.016164 -0.004085 -0.001865 0.000000 0.000000 0.000000
# 2 -0.004085 0.009100 -0.003090 0.000000 0.000000 0.000000
# 3 -0.001865 -0.003090 0.010188 0.000000 0.000000 0.000000
# 4 0.000000 0.000000 0.000000 0.044358 0.000000 0.000000
# 5 0.000000 0.000000 0.000000 0.000000 0.092969 0.000000
# 6 0.000000 0.000000 0.000000 0.000000 0.000000 0.064419
#
#
# Mechanical properties :
#
#
# Convention : Reuss Voigt Hill
#
# Bulk Modulus (GPa) = 57.56136 65.29735 61.42935
# Shear Modulus (GPa) = 19.15218 24.38409 21.76814
#
# Velocity S-wave (km/s) = 3.31318 3.73843 3.53221
# Velocity P-wave (km/s) = 6.90128 7.48732 7.20026
#
# Compressibility (1/GPa) = 0.01737276
#
# Stress axis : x y z
#
# Youngs Moduli (GPa) = 61.86766 109.88861 98.15808
#
# Poissons Ratio (x) = 0.44887 0.18306
# Poissons Ratio (y) = 0.25271 0.30326
# Poissons Ratio (z) = 0.11538 0.33951
#
# Static dielectric constant tensor:
#      x y z
#    x 3.010760 0.000000 0.000000 
#    y 0.000000 3.478130 0.000000 
#    z 0.000000 0.000000 3.138280 
# 
# 
# High freq. dielectric constant tensor:
#      x y z
#    x 1.649780 0.000000 0.000000 
#    y 0.000000 1.692800 0.000000 
#    z 0.000000 0.000000 1.658700 
# 
# From -- ./inp_files/45105.got.cif
#   From: 2010.03.12/outbox.cif.g09.slc.cpg/sg74_23_cif.got.tgz:45105.got - 2010.04.16 15:46:19.
