data_PCOD8299217
_publ_section_title
;
Structure prediction by ZEFSAII (Michael W. Deem and Ramdas Pophale) SiO2 
 PCOD8299217
Probable space group: I M M A
;
_chemical_formula_sum "Si O2"
_cell_formula_units_Z 80
_cell_length_a 9.260251
_cell_length_b 24.724631
_cell_length_c 18.439730
_cell_angle_alpha 90.000000
_cell_angle_beta 90.000000
_cell_angle_gamma 90.000000
_cell_volume 4221.892150
_symmetry_space_group_name_H-M "I M M A"
_symmetry_group_IT_number 74
_symmetry_cell_setting 'orthorhombic'
loop_
_space_group_symop_operation_xyz
x,y,z
-x,1/2-y,z
x,-y,-z
-x,1/2+y,-z
-x,-y,-z
x,1/2+y,-z
-x,y,z
x,1/2-y,z
1/2+x,1/2+y,1/2+z
1/2-x,-y,1/2+z
1/2+x,1/2-y,1/2-z
1/2-x,y,1/2-z
1/2-x,1/2-y,1/2-z
1/2+x,y,1/2-z
1/2-x,1/2+y,1/2+z
1/2+x,-y,1/2+z
loop_
_atom_site_type_symbol
_atom_site_label
_atom_site_fract_x
_atom_site_fract_y
_atom_site_fract_z
Si Si1 0.337022 0.163636 0.408449
Si Si2 0.667355 0.651564 0.425896
Si Si3 0.836067 0.057622 0.178347
Si Si4 0.330407 0.750000 0.824873
Si Si5 0.826297 0.250000 0.827337
Si Si6 0.327921 0.468766 0.570701
O O1 0.500000 0.183709 0.389714
O O2 0.306653 0.172029 0.492893
O O3 0.318740 0.101644 0.385215
O O4 0.215612 0.196902 0.367559
O O5 0.500000 0.645502 0.408785
O O6 0.729749 0.696440 0.370412
O O7 0.738361 0.591626 0.418871
O O8 0.750000 0.073516 0.250000
O O9 0.000000 0.053134 0.203926
O O10 0.783059 0.001432 0.143112
O O11 0.500000 0.750000 0.811967
O O12 0.250000 0.750000 0.750000
O O13 0.750000 0.250000 0.750000
O O14 0.000000 0.250000 0.819740
O O15 0.264698 0.500000 0.500000
O O16 0.500000 0.465562 0.561712
#
# Coordination Sequence:
#
# PCOD8299217 Si02
#       6
#    16  16  16   8   8  16
#     4  10  19  35  58  81 104 135 179 229 275 323
#     4   9  17  32  57  82 106 141 186 230 272 323
#     4  10  20  32  52  81 111 141 175 221 275 327
#     4  12  25  38  52  74 106 144 181 218 264 322
#     4  10  21  36  54  80 112 146 185 232 280 328
#     4   9  15  29  53  81 107 136 182 230 267 312
#
# _framework density 18.948848999999999
#
# number of rings (size 3 to 8) (size 9 to 14) (size 15 to 20)
#    0.000    2.200    2.000    2.100    0.000    4.800 
#    0.000    2.000    0.000    1.800    0.000    0.000 
#    0.000    0.000    0.000    0.000    0.000    0.000 
#
# Total GULP energy -495825.536314 kJ/mol
# GULP energy per Si atom -12395.638408 kJ/mol
# Density = 1.890572 g / cm^3
# Si number density = 18.948849 Si / 1000 Ang^3
#
#
#
# Elastic Constant Matrix: (Units=GPa)
#
#
# Indices 1 2 3 4 5 6 
#
# 1 60.8838 30.9748 37.5672 0.0000 0.0000 0.0000
# 2 30.9748 140.3408 63.8007 0.0000 0.0000 0.0000
# 3 37.5672 63.8007 124.7176 -0.0001 0.0001 0.0000
# 4 0.0000 0.0000 -0.0001 10.3617 0.0000 0.0000
# 5 0.0000 0.0000 0.0001 0.0000 24.0067 0.0000
# 6 0.0000 0.0000 0.0000 0.0000 0.0000 15.6185
#
#
#
# Elastic Compliance Matrix: (Units=1/GPa)
#
#
# Indices 1 2 3 4 5 6 
#
# 1 0.020711 -0.002261 -0.005082 0.000000 0.000000 0.000000
# 2 -0.002261 0.009532 -0.004195 0.000000 0.000000 0.000000
# 3 -0.005082 -0.004195 0.011695 0.000000 0.000000 0.000000
# 4 0.000000 0.000000 0.000000 0.096509 0.000000 0.000000
# 5 0.000000 0.000000 0.000000 0.000000 0.041655 0.000000
# 6 0.000000 0.000000 0.000000 0.000000 0.000000 0.064027
#
#
# Mechanical properties :
#
#
# Convention : Reuss Voigt Hill
#
# Bulk Modulus (GPa) = 53.01741 65.62530 59.32135
# Shear Modulus (GPa) = 18.28218 22.90402 20.59310
#
# Velocity S-wave (km/s) = 3.10952 3.48045 3.30020
# Velocity P-wave (km/s) = 6.39782 7.13158 6.77464
#
# Compressibility (1/GPa) = 0.01886173
#
# Stress axis : x y z
#
# Youngs Moduli (GPa) = 48.28443 104.91430 85.50760
#
# Poissons Ratio (x) = 0.23719 0.43454
# Poissons Ratio (y) = 0.10916 0.35870
# Poissons Ratio (z) = 0.24538 0.44012
#
# Static dielectric constant tensor:
#      x y z
#    x 2.983710 0.000000 0.000000 
#    y 0.000000 3.841340 0.000000 
#    z 0.000000 0.000000 3.462890 
# 
# 
# High freq. dielectric constant tensor:
#      x y z
#    x 1.677550 0.000000 0.000000 
#    y 0.000000 1.755050 0.000000 
#    z 0.000000 0.000000 1.740190 
# 
# From -- ./inp_files/39795.got.cif
#   From: 2010.03.12/outbox.cif.g09.slc.cpg/sg74_20_cif.got.tgz:39795.got - 2010.04.16 15:46:19.
