data_PCOD8299790
_publ_section_title
;
Structure prediction by ZEFSAII (Michael W. Deem and Ramdas Pophale) SiO2 
 PCOD8299790
Probable space group: I M M A
;
_chemical_formula_sum "Si O2"
_cell_formula_units_Z 104
_cell_length_a 9.161060
_cell_length_b 23.985588
_cell_length_c 27.623685
_cell_angle_alpha 90.000000
_cell_angle_beta 90.000000
_cell_angle_gamma 90.000000
_cell_volume 6069.846524
_symmetry_space_group_name_H-M "I M M A"
_symmetry_group_IT_number 74
_symmetry_cell_setting 'orthorhombic'
loop_
_space_group_symop_operation_xyz
x,y,z
-x,1/2-y,z
x,-y,-z
-x,1/2+y,-z
-x,-y,-z
x,1/2+y,-z
-x,y,z
x,1/2-y,z
1/2+x,1/2+y,1/2+z
1/2-x,-y,1/2+z
1/2+x,1/2-y,1/2-z
1/2-x,y,1/2-z
1/2-x,1/2-y,1/2-z
1/2+x,y,1/2-z
1/2-x,1/2+y,1/2+z
1/2+x,-y,1/2+z
loop_
_atom_site_type_symbol
_atom_site_label
_atom_site_fract_x
_atom_site_fract_y
_atom_site_fract_z
Si Si1 0.826782 0.250000 0.560497
Si Si2 0.326891 0.750000 0.954685
Si Si3 0.833120 0.312894 0.799513
Si Si4 0.832338 0.437719 0.950833
Si Si5 0.672006 0.658276 0.881815
Si Si6 0.328408 0.858240 0.115803
Si Si7 0.673826 0.250000 0.197155
Si Si8 0.166189 0.568340 0.939619
O O1 0.755106 0.250000 0.507358
O O2 0.771347 0.304390 0.587364
O O3 0.000000 0.250000 0.556580
O O4 0.500000 0.750000 0.956303
O O5 0.275325 0.804894 0.926957
O O6 0.819097 0.250000 0.820358
O O7 0.750000 0.317054 0.750000
O O8 0.756350 0.357901 0.833741
O O9 0.000000 0.330104 0.791796
O O10 0.717864 0.411477 0.914219
O O11 0.816630 0.502191 0.937545
O O12 0.000000 0.418978 0.942376
O O13 0.783795 0.418596 0.005024
O O14 0.500000 0.648141 0.879566
O O15 0.718499 0.693167 0.832936
O O16 0.745923 0.598662 0.895287
O O17 0.500000 0.858070 0.125414
O O18 0.500000 0.250000 0.204463
O O19 0.750000 0.250000 0.250000
O O20 0.000000 0.586502 0.931870
#
# Coordination Sequence:
#
# PCOD8299790 Si02
#       8
#     8   8  16  16  16  16   8  16
#     4   9  17  26  40  65  98 127 154 191 238 291
#     4   8  14  26  42  65  97 130 153 184 238 291
#     4  10  20  34  52  71  94 124 159 199 244 295
#     4   9  19  34  49  69 101 136 171 210 251 298
#     4   9  17  30  50  73 100 129 165 206 248 299
#     4  11  20  31  48  72  99 129 165 207 252 298
#     4   9  19  34  52  78 108 137 166 207 257 306
#     4   9  18  33  51  71  99 136 172 208 250 295
#
# _framework density 17.133876000000001
#
# number of rings (size 3 to 8) (size 9 to 14) (size 15 to 20)
#    0.000    2.615    0.769    3.692    0.000    3.692 
#    0.000    2.692    0.000    5.538    0.000    2.154 
#    0.000    0.000    0.000    0.000    0.000    0.000 
#
# Total GULP energy -644190.346473 kJ/mol
# GULP energy per Si atom -12388.275894 kJ/mol
# Density = 1.709488 g / cm^3
# Si number density = 17.133876 Si / 1000 Ang^3
#
#
#
# Elastic Constant Matrix: (Units=GPa)
#
#
# Indices 1 2 3 4 5 6 
#
# 1 81.4861 34.2298 55.2207 0.0000 0.0000 0.0000
# 2 34.2298 60.6112 39.6648 0.0000 0.0000 0.0000
# 3 55.2207 39.6648 96.1746 0.0000 0.0000 0.0000
# 4 0.0000 0.0000 0.0000 30.1454 0.0000 0.0000
# 5 0.0000 0.0000 0.0000 0.0000 29.8512 0.0000
# 6 0.0000 0.0000 0.0000 0.0000 0.0000 26.8267
#
#
#
# Elastic Compliance Matrix: (Units=1/GPa)
#
#
# Indices 1 2 3 4 5 6 
#
# 1 0.021361 -0.005530 -0.009984 0.000000 0.000000 0.000000
# 2 -0.005530 0.024029 -0.006735 0.000000 0.000000 0.000000
# 3 -0.009984 -0.006735 0.018908 0.000000 0.000000 0.000000
# 4 0.000000 0.000000 0.000000 0.033173 0.000000 0.000000
# 5 0.000000 0.000000 0.000000 0.000000 0.033499 0.000000
# 6 0.000000 0.000000 0.000000 0.000000 0.000000 0.037276
#
#
# Mechanical properties :
#
#
# Convention : Reuss Voigt Hill
#
# Bulk Modulus (GPa) = 50.50522 55.16695 52.83608
# Shear Modulus (GPa) = 22.79518 24.64178 23.71848
#
# Velocity S-wave (km/s) = 3.65144 3.79646 3.72466
# Velocity P-wave (km/s) = 6.87882 7.17530 7.02863
#
# Compressibility (1/GPa) = 0.01979994
#
# Stress axis : x y z
#
# Youngs Moduli (GPa) = 46.81445 41.61638 52.88708
#
# Poissons Ratio (x) = 0.23012 0.52804
# Poissons Ratio (y) = 0.25887 0.35621
# Poissons Ratio (z) = 0.46741 0.28029
#
# Static dielectric constant tensor:
#      x y z
#    x 3.026440 0.000000 0.000000 
#    y 0.000000 3.140660 0.000000 
#    z 0.000000 0.000000 3.466170 
# 
# 
# High freq. dielectric constant tensor:
#      x y z
#    x 1.651710 0.000000 0.000000 
#    y 0.000000 1.647520 0.000000 
#    z 0.000000 0.000000 1.654080 
# 
# From -- ./inp_files/65036.got.cif
#   From: 2010.03.12/outbox.cif.g09.slc.cpg/sg74_33_cif.got.tgz:65036.got - 2010.04.16 15:46:19.
