data_PCOD8299630
_publ_section_title
;
Structure prediction by ZEFSAII (Michael W. Deem and Ramdas Pophale) SiO2 
 PCOD8299630
Probable space group: I M M A
;
_chemical_formula_sum "Si O2"
_cell_formula_units_Z 88
_cell_length_a 9.315807
_cell_length_b 20.474885
_cell_length_c 23.427425
_cell_angle_alpha 90.000000
_cell_angle_beta 90.000000
_cell_angle_gamma 90.000000
_cell_volume 4468.548849
_symmetry_space_group_name_H-M "I M M A"
_symmetry_group_IT_number 74
_symmetry_cell_setting 'orthorhombic'
loop_
_space_group_symop_operation_xyz
x,y,z
-x,1/2-y,z
x,-y,-z
-x,1/2+y,-z
-x,-y,-z
x,1/2+y,-z
-x,y,z
x,1/2-y,z
1/2+x,1/2+y,1/2+z
1/2-x,-y,1/2+z
1/2+x,1/2-y,1/2-z
1/2-x,y,1/2-z
1/2-x,1/2-y,1/2-z
1/2+x,y,1/2-z
1/2-x,1/2+y,1/2+z
1/2+x,-y,1/2+z
loop_
_atom_site_type_symbol
_atom_site_label
_atom_site_fract_x
_atom_site_fract_y
_atom_site_fract_z
Si Si1 0.655572 0.823742 0.798501
Si Si2 0.168372 0.120703 0.111136
Si Si3 0.667411 0.323660 0.506576
Si Si4 0.166754 0.500546 0.809757
Si Si5 0.671087 0.750000 0.190696
Si Si6 0.833415 0.636596 0.131291
O O1 0.500000 0.858700 0.803848
O O2 0.629982 0.750000 0.778710
O O3 0.750000 0.861167 0.750000
O O4 0.742804 0.822887 0.857248
O O5 0.000000 0.133040 0.118454
O O6 0.214955 0.053327 0.142200
O O7 0.217270 0.128505 0.045183
O O8 0.500000 0.312513 0.500714
O O9 0.737528 0.250000 0.505675
O O10 0.702903 0.363560 0.563978
O O11 0.250000 0.506485 0.750000
O O12 0.199890 0.432370 0.840347
O O13 0.000000 0.508049 0.795235
O O14 0.500000 0.750000 0.198240
O O15 0.750000 0.750000 0.250000
O O16 0.721381 0.686258 0.157837
O O17 0.000000 0.657536 0.141423
#
# Coordination Sequence:
#
# PCOD8299630 Si02
#       6
#    16  16  16  16   8  16
#     4  10  20  33  50  74 104 141 188 241 293 340
#     4  10  20  34  54  82 113 149 191 230 281 340
#     4   9  17  32  58  86 114 149 189 235 284 337
#     4  10  22  37  56  83 115 152 193 240 285 341
#     4  12  24  38  60  90 118 148 189 240 293 346
#     4  10  20  38  61  85 116 152 191 235 288 344
#
# _framework density 19.693193999999998
#
# number of rings (size 3 to 8) (size 9 to 14) (size 15 to 20)
#    0.000    2.000    0.909    3.000    0.000    6.909 
#    0.000    4.545    0.000    0.000    0.000    3.818 
#    0.000    0.000    0.000    0.000    0.000    0.000 
#
# Total GULP energy -545203.845708 kJ/mol
# GULP energy per Si atom -12390.996493 kJ/mol
# Density = 1.964837 g / cm^3
# Si number density = 19.693194 Si / 1000 Ang^3
#
#
#
# Elastic Constant Matrix: (Units=GPa)
#
#
# Indices 1 2 3 4 5 6 
#
# 1 89.6825 33.8488 58.8164 0.0000 0.0000 0.0000
# 2 33.8488 102.2422 63.7183 0.0000 0.0000 0.0000
# 3 58.8164 63.7183 179.5650 0.0000 0.0000 0.0000
# 4 0.0000 0.0000 0.0000 40.8607 0.0000 0.0000
# 5 0.0000 0.0000 0.0000 0.0000 27.7201 0.0000
# 6 0.0000 0.0000 0.0000 0.0000 0.0000 13.5228
#
#
#
# Elastic Compliance Matrix: (Units=1/GPa)
#
#
# Indices 1 2 3 4 5 6 
#
# 1 0.014641 -0.002386 -0.003949 0.000000 0.000000 0.000000
# 2 -0.002386 0.012947 -0.003813 0.000000 0.000000 0.000000
# 3 -0.003949 -0.003813 0.008215 0.000000 0.000000 0.000000
# 4 0.000000 0.000000 0.000000 0.024473 0.000000 0.000000
# 5 0.000000 0.000000 0.000000 0.000000 0.036075 0.000000
# 6 0.000000 0.000000 0.000000 0.000000 0.000000 0.073949
#
#
# Mechanical properties :
#
#
# Convention : Reuss Voigt Hill
#
# Bulk Modulus (GPa) = 64.48365 76.02852 70.25609
# Shear Modulus (GPa) = 25.54090 30.76113 28.15102
#
# Velocity S-wave (km/s) = 3.60521 3.95653 3.78495
# Velocity P-wave (km/s) = 7.08133 7.71767 7.40634
#
# Compressibility (1/GPa) = 0.01550781
#
# Stress axis : x y z
#
# Youngs Moduli (GPa) = 68.30211 77.24002 121.72335
#
# Poissons Ratio (x) = 0.18430 0.48067
# Poissons Ratio (y) = 0.16297 0.46408
# Poissons Ratio (z) = 0.26972 0.29448
#
# Static dielectric constant tensor:
#      x y z
#    x 3.587660 0.000000 0.000000 
#    y 0.000000 3.607820 0.000000 
#    z 0.000000 0.000000 4.103210 
# 
# 
# High freq. dielectric constant tensor:
#      x y z
#    x 1.744340 0.000000 0.000000 
#    y 0.000000 1.763350 0.000000 
#    z 0.000000 0.000000 1.779290 
# 
# From -- ./inp_files/56997.got.cif
#   From: 2010.03.12/outbox.cif.g09.slc.cpg/sg74_29_cif.got.tgz:56997.got - 2010.04.16 15:46:19.
