data_PCOD8299295
_publ_section_title
;
Structure prediction by ZEFSAII (Michael W. Deem and Ramdas Pophale) SiO2 
 PCOD8299295
Probable space group: I M M A
;
_chemical_formula_sum "Si O2"
_cell_formula_units_Z 88
_cell_length_a 13.536289
_cell_length_b 18.859687
_cell_length_c 17.157986
_cell_angle_alpha 90.000000
_cell_angle_beta 90.000000
_cell_angle_gamma 90.000000
_cell_volume 4380.265226
_symmetry_space_group_name_H-M "I M M A"
_symmetry_group_IT_number 74
_symmetry_cell_setting 'orthorhombic'
loop_
_space_group_symop_operation_xyz
x,y,z
-x,1/2-y,z
x,-y,-z
-x,1/2+y,-z
-x,-y,-z
x,1/2+y,-z
-x,y,z
x,1/2-y,z
1/2+x,1/2+y,1/2+z
1/2-x,-y,1/2+z
1/2+x,1/2-y,1/2-z
1/2-x,y,1/2-z
1/2-x,1/2-y,1/2-z
1/2+x,y,1/2-z
1/2-x,1/2+y,1/2+z
1/2+x,-y,1/2+z
loop_
_atom_site_type_symbol
_atom_site_label
_atom_site_fract_x
_atom_site_fract_y
_atom_site_fract_z
Si Si1 0.234507 0.425765 0.023097
Si Si2 0.750000 0.861502 0.750000
Si Si3 0.761072 0.331246 0.873261
Si Si4 0.886096 0.385352 0.735507
Si Si5 0.110261 0.174070 0.122448
Si Si6 0.383886 0.037258 0.156653
O O1 0.145532 0.389141 0.068529
O O2 0.330916 0.447917 0.073696
O O3 0.185371 0.500000 0.000000
O O4 0.263437 0.373948 0.952274
O O5 0.807195 0.813508 0.811493
O O6 0.660418 0.907506 0.783317
O O7 0.795180 0.250000 0.890761
O O8 0.840676 0.376242 0.822344
O O9 0.661096 0.327067 0.822129
O O10 0.862715 0.460935 0.695323
O O11 0.000000 0.369830 0.743923
O O12 0.106675 0.250000 0.077772
O O13 0.000000 0.155676 0.153980
O O14 0.500000 0.049762 0.144105
#
# Coordination Sequence:
#
# PCOD8299295 Si02
#       6
#    16   8  16  16  16  16
#     4  11  23  40  61  86 123 161 205 251 305 360
#     4  10  19  36  62  90 121 154 200 244 301 354
#     4  11  23  39  60  89 124 161 203 253 308 368
#     4  10  21  38  62  89 120 158 202 252 307 365
#     4  10  22  39  60  87 119 156 196 243 302 362
#     4  10  21  37  62  93 124 158 203 255 307 361
#
# _framework density 20.090108000000001
#
# number of rings (size 3 to 8) (size 9 to 14) (size 15 to 20)
#    0.000    1.636    1.818    3.545    2.545    3.636 
#    0.000    0.000    0.000   10.364    0.000    0.000 
#    0.000    0.000    0.000    0.000    0.000    0.000 
#
# Total GULP energy -545093.502686 kJ/mol
# GULP energy per Si atom -12388.488697 kJ/mol
# Density = 2.004438 g / cm^3
# Si number density = 20.090108 Si / 1000 Ang^3
#
#
#
# Elastic Constant Matrix: (Units=GPa)
#
#
# Indices 1 2 3 4 5 6 
#
# 1 145.8295 63.9104 44.2139 0.0000 0.0000 0.0000
# 2 63.9104 129.7199 53.4922 0.0000 0.0000 0.0000
# 3 44.2139 53.4922 101.2009 0.0000 0.0000 0.0000
# 4 0.0000 0.0000 0.0000 37.4961 0.0000 0.0000
# 5 0.0000 0.0000 0.0000 0.0000 18.4711 0.0000
# 6 0.0000 0.0000 0.0000 0.0000 0.0000 23.4018
#
#
#
# Elastic Compliance Matrix: (Units=1/GPa)
#
#
# Indices 1 2 3 4 5 6 
#
# 1 0.009065 -0.003623 -0.002046 0.000000 0.000000 0.000000
# 2 -0.003623 0.011305 -0.004393 0.000000 0.000000 0.000000
# 3 -0.002046 -0.004393 0.013097 0.000000 0.000000 0.000000
# 4 0.000000 0.000000 0.000000 0.026669 0.000000 0.000000
# 5 0.000000 0.000000 0.000000 0.000000 0.054139 0.000000
# 6 0.000000 0.000000 0.000000 0.000000 0.000000 0.042732
#
#
# Mechanical properties :
#
#
# Convention : Reuss Voigt Hill
#
# Bulk Modulus (GPa) = 74.93477 77.77594 76.35535
# Shear Modulus (GPa) = 27.53636 30.21607 28.87622
#
# Velocity S-wave (km/s) = 3.70624 3.88239 3.79533
# Velocity P-wave (km/s) = 7.46292 7.67430 7.56935
#
# Compressibility (1/GPa) = 0.01334494
#
# Stress axis : x y z
#
# Youngs Moduli (GPa) = 110.31200 88.45455 76.35299
#
# Poissons Ratio (x) = 0.32044 0.15619
# Poissons Ratio (y) = 0.39962 0.33541
# Poissons Ratio (z) = 0.22566 0.38858
#
# Static dielectric constant tensor:
#      x y z
#    x 3.591450 0.000000 0.000000 
#    y 0.000000 3.777150 0.000000 
#    z 0.000000 0.000000 3.758050 
# 
# 
# High freq. dielectric constant tensor:
#      x y z
#    x 1.782260 0.000000 0.000000 
#    y 0.000000 1.797020 0.000000 
#    z 0.000000 0.000000 1.781470 
# 
# From -- ./inp_files/42813.got.cif
#   From: 2010.03.12/outbox.cif.g09.slc.cpg/sg74_22_cif.got.tgz:42813.got - 2010.04.16 15:46:19.
