data_PCOD8299702
_publ_section_title
;
Structure prediction by ZEFSAII (Michael W. Deem and Ramdas Pophale) SiO2 
 PCOD8299702
Probable space group: I M M A
;
_chemical_formula_sum "Si O2"
_cell_formula_units_Z 112
_cell_length_a 15.350583
_cell_length_b 15.131727
_cell_length_c 26.168140
_cell_angle_alpha 90.000000
_cell_angle_beta 90.000000
_cell_angle_gamma 90.000000
_cell_volume 6078.357311
_symmetry_space_group_name_H-M "I M M A"
_symmetry_group_IT_number 74
_symmetry_cell_setting 'orthorhombic'
loop_
_space_group_symop_operation_xyz
x,y,z
-x,1/2-y,z
x,-y,-z
-x,1/2+y,-z
-x,-y,-z
x,1/2+y,-z
-x,y,z
x,1/2-y,z
1/2+x,1/2+y,1/2+z
1/2-x,-y,1/2+z
1/2+x,1/2-y,1/2-z
1/2-x,y,1/2-z
1/2-x,1/2-y,1/2-z
1/2+x,y,1/2-z
1/2-x,1/2+y,1/2+z
1/2+x,-y,1/2+z
loop_
_atom_site_type_symbol
_atom_site_label
_atom_site_fract_x
_atom_site_fract_y
_atom_site_fract_z
Si Si1 0.902100 0.846592 0.344308
Si Si2 0.902201 0.587988 0.531550
Si Si3 0.746539 0.477260 0.405637
Si Si4 0.808011 0.506259 0.295180
Si Si5 0.399856 0.852797 0.622782
Si Si6 0.100875 0.849770 0.758764
Si Si7 0.708805 0.153262 0.944835
O O1 0.882346 0.750000 0.320336
O O2 0.849278 0.862167 0.395419
O O3 0.000000 0.854970 0.362580
O O4 0.883662 0.921488 0.302441
O O5 0.915426 0.500000 0.500000
O O6 0.838548 0.569854 0.579721
O O7 0.852108 0.656996 0.494970
O O8 0.000000 0.621529 0.548460
O O9 0.750371 0.499918 0.345973
O O10 0.664407 0.411185 0.412888
O O11 0.729069 0.565575 0.441447
O O12 0.750000 0.545495 0.250000
O O13 0.844853 0.411169 0.279120
O O14 0.500000 0.877345 0.610043
O O15 0.382927 0.750000 0.610629
O O16 0.380154 0.872627 0.682234
O O17 0.130174 0.750000 0.746872
O O18 0.000000 0.862711 0.746624
O O19 0.756742 0.250000 0.942270
#
# Coordination Sequence:
#
# PCOD8299702 Si02
#       7
#    16  16  16  16  16  16  16
#     4   9  18  32  50  72  99 135 179 218 249 297
#     4   9  18  32  51  77 109 140 170 209 259 315
#     4  10  20  33  52  79 107 137 178 222 265 309
#     4  11  20  30  47  73 102 137 170 211 266 314
#     4   9  18  34  54  73  95 130 177 223 264 310
#     4   9  18  32  49  67  91 129 173 212 255 312
#     4   9  18  33  54  77 106 144 176 203 252 324
#
# _framework density 18.426030999999998
#
# number of rings (size 3 to 8) (size 9 to 14) (size 15 to 20)
#    0.000    2.571    1.429    1.714    0.000    6.571 
#    0.000    0.000    0.000    4.286    0.000    0.000 
#    0.000    0.000    0.000    0.000    0.000    0.000 
#
# Total GULP energy -693841.880247 kJ/mol
# GULP energy per Si atom -12390.033576 kJ/mol
# Density = 1.838409 g / cm^3
# Si number density = 18.426031 Si / 1000 Ang^3
#
#
#
# Elastic Constant Matrix: (Units=GPa)
#
#
# Indices 1 2 3 4 5 6 
#
# 1 64.2286 37.4883 20.5564 0.0000 0.0000 0.0000
# 2 37.4883 112.9616 22.7910 0.0000 0.0000 0.0000
# 3 20.5564 22.7910 50.9966 0.0000 0.0000 0.0000
# 4 0.0000 0.0000 0.0000 24.5596 0.0000 0.0000
# 5 0.0000 0.0000 0.0000 0.0000 19.3693 0.0000
# 6 0.0000 0.0000 0.0000 0.0000 0.0000 30.8629
#
#
#
# Elastic Compliance Matrix: (Units=1/GPa)
#
#
# Indices 1 2 3 4 5 6 
#
# 1 0.020769 -0.005719 -0.005816 0.000000 0.000000 0.000000
# 2 -0.005719 0.011305 -0.002747 0.000000 0.000000 0.000000
# 3 -0.005816 -0.002747 0.023181 0.000000 0.000000 0.000000
# 4 0.000000 0.000000 0.000000 0.040717 0.000000 0.000000
# 5 0.000000 0.000000 0.000000 0.000000 0.051628 0.000000
# 6 0.000000 0.000000 0.000000 0.000000 0.000000 0.032401
#
#
# Mechanical properties :
#
#
# Convention : Reuss Voigt Hill
#
# Bulk Modulus (GPa) = 37.46582 43.31759 40.39170
# Shear Modulus (GPa) = 22.99250 24.78176 23.88713
#
# Velocity S-wave (km/s) = 3.53629 3.67131 3.60443
# Velocity P-wave (km/s) = 6.08696 6.44448 6.26827
#
# Compressibility (1/GPa) = 0.02669099
#
# Stress axis : x y z
#
# Youngs Moduli (GPa) = 48.14911 88.45827 43.13860
#
# Poissons Ratio (x) = 0.50590 0.25089
# Poissons Ratio (y) = 0.27537 0.11850
# Poissons Ratio (z) = 0.28003 0.24299
#
# Static dielectric constant tensor:
#      x y z
#    x 3.356840 0.000000 0.000000 
#    y 0.000000 3.703130 0.000000 
#    z 0.000000 0.000000 3.251990 
# 
# 
# High freq. dielectric constant tensor:
#      x y z
#    x 1.691050 0.000000 0.000000 
#    y 0.000000 1.721210 0.000000 
#    z 0.000000 0.000000 1.694290 
# 
# From -- ./inp_files/67211.got.cif
#   From: 2010.03.12/outbox.cif.g09.slc.cpg/sg74_34_cif.got.tgz:67211.got - 2010.04.16 15:46:19.
