data_PCOD8299604
_publ_section_title
;
Structure prediction by ZEFSAII (Michael W. Deem and Ramdas Pophale) SiO2 
 PCOD8299604
Probable space group: I M M A
;
_chemical_formula_sum "Si O2"
_cell_formula_units_Z 128
_cell_length_a 25.496978
_cell_length_b 15.909804
_cell_length_c 17.565543
_cell_angle_alpha 90.000000
_cell_angle_beta 90.000000
_cell_angle_gamma 90.000000
_cell_volume 7125.496289
_symmetry_space_group_name_H-M "I M M A"
_symmetry_group_IT_number 74
_symmetry_cell_setting 'orthorhombic'
loop_
_space_group_symop_operation_xyz
x,y,z
-x,1/2-y,z
x,-y,-z
-x,1/2+y,-z
-x,-y,-z
x,1/2+y,-z
-x,y,z
x,1/2-y,z
1/2+x,1/2+y,1/2+z
1/2-x,-y,1/2+z
1/2+x,1/2-y,1/2-z
1/2-x,y,1/2-z
1/2-x,1/2-y,1/2-z
1/2+x,y,1/2-z
1/2-x,1/2+y,1/2+z
1/2+x,-y,1/2+z
loop_
_atom_site_type_symbol
_atom_site_label
_atom_site_fract_x
_atom_site_fract_y
_atom_site_fract_z
Si Si1 0.697489 0.652878 0.914471
Si Si2 0.696641 0.349635 0.915884
Si Si3 0.872791 0.846734 0.281661
Si Si4 0.628592 0.345924 0.225536
Si Si5 0.871570 0.026196 0.913470
Si Si6 0.306248 0.655754 0.361366
Si Si7 0.285093 0.070875 0.318561
Si Si8 0.438542 0.500364 0.279046
O O1 0.711773 0.750000 0.919189
O O2 0.646944 0.637991 0.861309
O O3 0.749135 0.608330 0.883831
O O4 0.685954 0.616875 0.998776
O O5 0.699736 0.250000 0.912424
O O6 0.647327 0.376972 0.864227
O O7 0.750712 0.389439 0.882023
O O8 0.894864 0.750000 0.281269
O O9 0.821585 0.851882 0.227442
O O10 0.917041 0.913717 0.258258
O O11 0.607327 0.250000 0.235430
O O12 0.678638 0.356605 0.280976
O O13 0.584061 0.414733 0.242785
O O14 0.823178 0.994719 0.859952
O O15 0.925084 0.002663 0.869744
O O16 0.856045 0.124044 0.912490
O O17 0.875200 0.000000 0.000000
O O18 0.299448 0.750000 0.388095
O O19 0.250000 0.030359 0.250000
O O20 0.500000 0.498217 0.267540
#
# Coordination Sequence:
#
# PCOD8299604 Si02
#       8
#    16  16  16  16  16  16  16  16
#     4   9  16  27  46  74 105 135 163 191 230 281
#     4   9  16  26  45  74 106 135 160 190 231 283
#     4   9  18  33  52  73  99 130 162 199 242 288
#     4   9  18  33  52  72  98 131 164 201 242 286
#     4  10  20  33  49  72 100 129 162 202 247 285
#     4   9  17  29  46  70 102 137 164 184 219 281
#     4   9  17  29  46  72 104 137 167 191 220 274
#     4  10  22  38  55  73  90 118 166 215 256 298
#
# _framework density 17.963660999999998
#
# number of rings (size 3 to 8) (size 9 to 14) (size 15 to 20)
#    0.000    2.750    0.000    1.500    0.000    7.750 
#    0.000    4.375    0.000    1.500    0.000    8.750 
#    0.000    0.000    0.000    0.000    0.000    0.000 
#
# Total GULP energy -792917.682133 kJ/mol
# GULP energy per Si atom -12389.338783 kJ/mol
# Density = 1.792278 g / cm^3
# Si number density = 17.963661 Si / 1000 Ang^3
#
#
#
# Elastic Constant Matrix: (Units=GPa)
#
#
# Indices 1 2 3 4 5 6 
#
# 1 100.0401 43.7626 49.8366 0.0000 0.0000 0.0000
# 2 43.7626 75.3877 35.4474 0.0000 0.0000 0.0000
# 3 49.8366 35.4474 134.0367 0.0000 0.0000 0.0000
# 4 0.0000 0.0000 0.0000 17.7824 0.0000 0.0000
# 5 0.0000 0.0000 0.0000 0.0000 13.0565 0.0000
# 6 0.0000 0.0000 0.0000 0.0000 0.0000 19.1598
#
#
#
# Elastic Compliance Matrix: (Units=1/GPa)
#
#
# Indices 1 2 3 4 5 6 
#
# 1 0.014850 -0.006880 -0.003702 0.000000 0.000000 0.000000
# 2 -0.006880 0.018336 -0.002291 0.000000 0.000000 0.000000
# 3 -0.003702 -0.002291 0.009443 0.000000 0.000000 0.000000
# 4 0.000000 0.000000 0.000000 0.056235 0.000000 0.000000
# 5 0.000000 0.000000 0.000000 0.000000 0.076590 0.000000
# 6 0.000000 0.000000 0.000000 0.000000 0.000000 0.052193
#
#
# Mechanical properties :
#
#
# Convention : Reuss Voigt Hill
#
# Bulk Modulus (GPa) = 59.23114 63.06197 61.14656
# Shear Modulus (GPa) = 19.30359 22.02761 20.66560
#
# Velocity S-wave (km/s) = 3.28165 3.50556 3.39545
# Velocity P-wave (km/s) = 6.88501 7.18100 7.03456
#
# Compressibility (1/GPa) = 0.01688301
#
# Stress axis : x y z
#
# Youngs Moduli (GPa) = 67.34171 54.53858 105.89872
#
# Poissons Ratio (x) = 0.37520 0.39203
# Poissons Ratio (y) = 0.46328 0.24263
# Poissons Ratio (z) = 0.24929 0.12496
#
# Static dielectric constant tensor:
#      x y z
#    x 2.965260 0.000000 0.000000 
#    y 0.000000 3.450250 0.000000 
#    z 0.000000 0.000000 3.526180 
# 
# 
# High freq. dielectric constant tensor:
#      x y z
#    x 1.653010 0.000000 0.000000 
#    y 0.000000 1.700670 0.000000 
#    z 0.000000 0.000000 1.698530 
# 
# From -- ./inp_files/46319.got.cif
#   From: 2010.03.12/outbox.cif.g09.slc.cpg/sg74_24_cif.got.tgz:46319.got - 2010.04.16 15:46:19.
