data_PCOD8299279
_publ_section_title
;
Structure prediction by ZEFSAII (Michael W. Deem and Ramdas Pophale) SiO2 
 PCOD8299279
Probable space group: I M M A
;
_chemical_formula_sum "Si O2"
_cell_formula_units_Z 72
_cell_length_a 17.759733
_cell_length_b 8.777895
_cell_length_c 23.727129
_cell_angle_alpha 90.000000
_cell_angle_beta 90.000000
_cell_angle_gamma 90.000000
_cell_volume 3698.895018
_symmetry_space_group_name_H-M "I M M A"
_symmetry_group_IT_number 74
_symmetry_cell_setting 'orthorhombic'
loop_
_space_group_symop_operation_xyz
x,y,z
-x,1/2-y,z
x,-y,-z
-x,1/2+y,-z
-x,-y,-z
x,1/2+y,-z
-x,y,z
x,1/2-y,z
1/2+x,1/2+y,1/2+z
1/2-x,-y,1/2+z
1/2+x,1/2-y,1/2-z
1/2-x,y,1/2-z
1/2-x,1/2-y,1/2-z
1/2+x,y,1/2-z
1/2-x,1/2+y,1/2+z
1/2+x,-y,1/2+z
loop_
_atom_site_type_symbol
_atom_site_label
_atom_site_fract_x
_atom_site_fract_y
_atom_site_fract_z
Si Si1 0.584437 0.931047 0.854830
Si Si2 0.161772 0.075144 0.240977
Si Si3 0.000000 0.929156 0.060704
Si Si4 0.211328 0.930256 0.561594
Si Si5 0.851259 0.428845 0.875567
O O1 0.500000 0.996127 0.862714
O O2 0.584327 0.750000 0.853874
O O3 0.618874 0.989332 0.795889
O O4 0.635778 0.988138 0.906812
O O5 0.139360 0.250000 0.228462
O O6 0.250000 0.060351 0.250000
O O7 0.137177 0.969192 0.189604
O O8 0.926171 0.984981 0.093253
O O9 0.000000 0.750000 0.054739
O O10 0.000000 0.000000 0.000000
O O11 0.212724 0.750000 0.556118
O O12 0.214513 0.000000 0.500000
O O13 0.282064 0.979736 0.598502
O O14 0.836808 0.250000 0.882869
#
# Coordination Sequence:
#
# PCOD8299279 Si02
#       5
#    16  16   8  16  16
#     4   9  19  36  58  85 119 156 193 236 286 341
#     4  10  19  36  60  87 115 150 194 237 284 342
#     4  10  24  42  58  82 118 154 193 238 287 344
#     4  11  22  39  61  86 115 150 196 242 288 345
#     4  11  23  39  59  86 118 153 192 238 293 345
#
# _framework density 19.465274000000001
#
# number of rings (size 3 to 8) (size 9 to 14) (size 15 to 20)
#    0.000    1.778    2.222    2.000    1.556    4.444 
#    0.000    0.000    0.000    4.667    0.000    0.000 
#    0.000    0.000    0.000    0.000    0.000    0.000 
#
# Total GULP energy -446493.823873 kJ/mol
# GULP energy per Si atom -12402.606219 kJ/mol
# Density = 1.942097 g / cm^3
# Si number density = 19.465274 Si / 1000 Ang^3
#
#
#
# Elastic Constant Matrix: (Units=GPa)
#
#
# Indices 1 2 3 4 5 6 
#
# 1 100.6452 21.2560 2.8383 0.0000 0.0000 0.0000
# 2 21.2560 41.2935 19.5062 0.0000 0.0000 0.0000
# 3 2.8383 19.5062 77.1548 0.0000 0.0000 0.0000
# 4 0.0000 0.0000 0.0000 35.1225 0.0000 0.0000
# 5 0.0000 0.0000 0.0000 0.0000 26.0379 0.0000
# 6 0.0000 0.0000 0.0000 0.0000 0.0000 18.9796
#
#
#
# Elastic Compliance Matrix: (Units=1/GPa)
#
#
# Indices 1 2 3 4 5 6 
#
# 1 0.011244 -0.006351 0.001192 0.000000 0.000000 0.000000
# 2 -0.006351 0.031088 -0.007626 0.000000 0.000000 0.000000
# 3 0.001192 -0.007626 0.014845 0.000000 0.000000 0.000000
# 4 0.000000 0.000000 0.000000 0.028472 0.000000 0.000000
# 5 0.000000 0.000000 0.000000 0.000000 0.038406 0.000000
# 6 0.000000 0.000000 0.000000 0.000000 0.000000 0.052688
#
#
# Mechanical properties :
#
#
# Convention : Reuss Voigt Hill
#
# Bulk Modulus (GPa) = 31.63825 34.03273 32.83549
# Shear Modulus (GPa) = 23.49092 27.72753 25.60922
#
# Velocity S-wave (km/s) = 3.47769 3.77830 3.63111
# Velocity P-wave (km/s) = 5.69339 6.04614 5.87242
#
# Compressibility (1/GPa) = 0.03160731
#
# Stress axis : x y z
#
# Youngs Moduli (GPa) = 88.93997 32.16631 67.36207
#
# Poissons Ratio (x) = 0.20428 -0.08029
# Poissons Ratio (y) = 0.56483 0.51371
# Poissons Ratio (z) = -0.10601 0.24530
#
# Static dielectric constant tensor:
#      x y z
#    x 3.849270 0.000000 0.000000 
#    y 0.000000 3.309700 0.000000 
#    z 0.000000 0.000000 3.746310 
# 
# 
# High freq. dielectric constant tensor:
#      x y z
#    x 1.769810 0.000000 0.000000 
#    y 0.000000 1.735010 0.000000 
#    z 0.000000 0.000000 1.773110 
# 
# From -- ./inp_files/56649.got.cif
#   From: 2010.03.12/outbox.cif.g09.slc.cpg/sg74_29_cif.got.tgz:56649.got - 2010.04.16 15:46:19.
