data_PCOD8299830
_publ_section_title
;
Structure prediction by ZEFSAII (Michael W. Deem and Ramdas Pophale) SiO2 
 PCOD8299830
Probable space group: I M M A
;
_chemical_formula_sum "Si O2"
_cell_formula_units_Z 72
_cell_length_a 17.527574
_cell_length_b 9.299388
_cell_length_c 23.137751
_cell_angle_alpha 90.000000
_cell_angle_beta 90.000000
_cell_angle_gamma 90.000000
_cell_volume 3771.354183
_symmetry_space_group_name_H-M "I M M A"
_symmetry_group_IT_number 74
_symmetry_cell_setting 'orthorhombic'
loop_
_space_group_symop_operation_xyz
x,y,z
-x,1/2-y,z
x,-y,-z
-x,1/2+y,-z
-x,-y,-z
x,1/2+y,-z
-x,y,z
x,1/2-y,z
1/2+x,1/2+y,1/2+z
1/2-x,-y,1/2+z
1/2+x,1/2-y,1/2-z
1/2-x,y,1/2-z
1/2-x,1/2-y,1/2-z
1/2+x,y,1/2-z
1/2-x,1/2+y,1/2+z
1/2+x,-y,1/2+z
loop_
_atom_site_type_symbol
_atom_site_label
_atom_site_fract_x
_atom_site_fract_y
_atom_site_fract_z
Si Si1 0.414039 0.583737 0.636999
Si Si2 0.849274 0.082352 0.629070
Si Si3 0.000000 0.416756 0.559271
Si Si4 0.275082 0.918660 0.559662
Si Si5 0.587084 0.083588 0.748549
O O1 0.500000 0.532838 0.621299
O O2 0.412202 0.750000 0.653366
O O3 0.360859 0.551943 0.581889
O O4 0.382099 0.501348 0.693002
O O5 0.828861 0.250000 0.619734
O O6 0.860567 0.047149 0.696589
O O7 0.926047 0.040558 0.595678
O O8 0.782132 0.981055 0.607115
O O9 0.000000 0.500000 0.500000
O O10 0.000000 0.250000 0.544269
O O11 0.259044 0.750000 0.550638
O O12 0.261974 0.000000 0.500000
O O13 0.500000 0.039856 0.762857
O O14 0.592442 0.250000 0.732904
#
# Coordination Sequence:
#
# PCOD8299830 Si02
#       5
#    16  16   8  16  16
#     4   9  20  39  60  82 110 144 181 228 283 335
#     4  10  20  36  57  81 114 150 184 226 273 321
#     4  10  20  34  52  76 108 148 189 226 263 312
#     4  11  24  40  57  80 111 145 186 233 280 331
#     4   9  17  33  58  86 114 145 184 227 270 323
#
# _framework density 19.091284999999999
#
# number of rings (size 3 to 8) (size 9 to 14) (size 15 to 20)
#    0.000    2.222    1.111    1.333    0.000    6.667 
#    0.000    4.444    0.000    0.000    0.000    0.000 
#    0.000    0.000    0.000    0.000    0.000    0.000 
#
# Total GULP energy -446477.185873 kJ/mol
# GULP energy per Si atom -12402.144052 kJ/mol
# Density = 1.904783 g / cm^3
# Si number density = 19.091285 Si / 1000 Ang^3
#
#
#
# Elastic Constant Matrix: (Units=GPa)
#
#
# Indices 1 2 3 4 5 6 
#
# 1 79.9764 36.8208 23.5123 0.0000 0.0000 0.0000
# 2 36.8208 64.2848 34.2910 0.0000 0.0000 0.0000
# 3 23.5123 34.2910 64.6723 0.0000 0.0000 0.0000
# 4 0.0000 0.0000 0.0000 36.7033 0.0000 0.0000
# 5 0.0000 0.0000 0.0000 0.0000 28.7216 0.0000
# 6 0.0000 0.0000 0.0000 0.0000 0.0000 28.7188
#
#
#
# Elastic Compliance Matrix: (Units=1/GPa)
#
#
# Indices 1 2 3 4 5 6 
#
# 1 0.017076 -0.009020 -0.001425 0.000000 0.000000 0.000000
# 2 -0.009020 0.026456 -0.010748 0.000000 0.000000 0.000000
# 3 -0.001425 -0.010748 0.021680 0.000000 0.000000 0.000000
# 4 0.000000 0.000000 0.000000 0.027246 0.000000 0.000000
# 5 0.000000 0.000000 0.000000 0.000000 0.034817 0.000000
# 6 0.000000 0.000000 0.000000 0.000000 0.000000 0.034820
#
#
# Mechanical properties :
#
#
# Convention : Reuss Voigt Hill
#
# Bulk Modulus (GPa) = 43.81404 44.24244 44.02824
# Shear Modulus (GPa) = 23.57503 26.44937 25.01220
#
# Velocity S-wave (km/s) = 3.51787 3.72616 3.62351
# Velocity P-wave (km/s) = 6.28491 6.46040 6.37326
#
# Compressibility (1/GPa) = 0.02282374
#
# Stress axis : x y z
#
# Youngs Moduli (GPa) = 58.56318 37.79913 46.12615
#
# Poissons Ratio (x) = 0.34096 0.06574
# Poissons Ratio (y) = 0.52825 0.49577
# Poissons Ratio (z) = 0.08347 0.40627
#
# Static dielectric constant tensor:
#      x y z
#    x 3.596630 0.000000 0.000000 
#    y 0.000000 3.446320 0.000000 
#    z 0.000000 0.000000 3.045470 
# 
# 
# High freq. dielectric constant tensor:
#      x y z
#    x 1.742630 0.000000 0.000000 
#    y 0.000000 1.738000 0.000000 
#    z 0.000000 0.000000 1.745570 
# 
# From -- ./inp_files/56636.got.cif
#   From: 2010.03.12/outbox.cif.g09.slc.cpg/sg74_29_cif.got.tgz:56636.got - 2010.04.16 15:46:19.
