data_PCOD8299822
_publ_section_title
;
Structure prediction by ZEFSAII (Michael W. Deem and Ramdas Pophale) SiO2 
 PCOD8299822
Probable space group: I M M A
;
_chemical_formula_sum "Si O2"
_cell_formula_units_Z 72
_cell_length_a 15.976687
_cell_length_b 19.810074
_cell_length_c 12.346845
_cell_angle_alpha 90.000000
_cell_angle_beta 90.000000
_cell_angle_gamma 90.000000
_cell_volume 3907.768439
_symmetry_space_group_name_H-M "I M M A"
_symmetry_group_IT_number 74
_symmetry_cell_setting 'orthorhombic'
loop_
_space_group_symop_operation_xyz
x,y,z
-x,1/2-y,z
x,-y,-z
-x,1/2+y,-z
-x,-y,-z
x,1/2+y,-z
-x,y,z
x,1/2-y,z
1/2+x,1/2+y,1/2+z
1/2-x,-y,1/2+z
1/2+x,1/2-y,1/2-z
1/2-x,y,1/2-z
1/2-x,1/2-y,1/2-z
1/2+x,y,1/2-z
1/2-x,1/2+y,1/2+z
1/2+x,-y,1/2+z
loop_
_atom_site_type_symbol
_atom_site_label
_atom_site_fract_x
_atom_site_fract_y
_atom_site_fract_z
Si Si1 0.095197 0.325952 0.026597
Si Si2 0.342490 0.673739 0.293029
Si Si3 0.194798 0.000000 0.500000
Si Si4 0.689398 0.429463 0.340537
Si Si5 0.404769 0.458985 0.794539
O O1 0.102938 0.250000 0.071211
O O2 0.120913 0.374820 0.124637
O O3 0.000000 0.342449 0.992173
O O4 0.154432 0.335801 0.922475
O O5 0.371150 0.750000 0.262123
O O6 0.250000 0.658688 0.250000
O O7 0.403810 0.619560 0.238641
O O8 0.254615 0.054717 0.444838
O O9 0.136221 0.035793 0.587761
O O10 0.750000 0.397206 0.250000
O O11 0.645255 0.496701 0.293837
O O12 0.500000 0.484490 0.799496
#
# Coordination Sequence:
#
# PCOD8299822 Si02
#       5
#    16  16   8  16  16
#     4  10  20  34  52  76 105 133 166 212 259 299
#     4  10  20  34  53  77 105 136 169 207 254 306
#     4  10  21  36  51  74 104 134 168 210 255 302
#     4  10  20  34  54  75  99 134 175 210 249 306
#     4  11  21  34  54  78 105 135 170 213 258 302
#
# _framework density 18.424838000000001
#
# number of rings (size 3 to 8) (size 9 to 14) (size 15 to 20)
#    0.000    1.778    0.000    6.333    0.000    1.778 
#    0.000    3.333    0.000    1.333    0.000    0.000 
#    0.000    0.000    0.000    0.000    0.000    0.000 
#
# Total GULP energy -446433.113448 kJ/mol
# GULP energy per Si atom -12400.919818 kJ/mol
# Density = 1.838290 g / cm^3
# Si number density = 18.424838 Si / 1000 Ang^3
#
#
#
# Elastic Constant Matrix: (Units=GPa)
#
#
# Indices 1 2 3 4 5 6 
#
# 1 108.5179 41.5421 50.1498 0.0000 0.0000 0.0000
# 2 41.5421 104.0807 58.3085 0.0000 0.0000 0.0000
# 3 50.1498 58.3085 103.0351 0.0000 0.0000 0.0000
# 4 0.0000 0.0000 0.0000 27.2127 0.0000 0.0000
# 5 0.0000 0.0000 0.0000 0.0000 23.0507 0.0000
# 6 0.0000 0.0000 0.0000 0.0000 0.0000 27.2619
#
#
#
# Elastic Compliance Matrix: (Units=1/GPa)
#
#
# Indices 1 2 3 4 5 6 
#
# 1 0.012244 -0.002267 -0.004677 0.000000 0.000000 0.000000
# 2 -0.002267 0.014488 -0.007095 0.000000 0.000000 0.000000
# 3 -0.004677 -0.007095 0.015997 0.000000 0.000000 0.000000
# 4 0.000000 0.000000 0.000000 0.036748 0.000000 0.000000
# 5 0.000000 0.000000 0.000000 0.000000 0.043383 0.000000
# 6 0.000000 0.000000 0.000000 0.000000 0.000000 0.036681
#
#
# Mechanical properties :
#
#
# Convention : Reuss Voigt Hill
#
# Bulk Modulus (GPa) = 68.25525 68.40384 68.32954
# Shear Modulus (GPa) = 25.97375 26.54725 26.26050
#
# Velocity S-wave (km/s) = 3.75869 3.79996 3.77938
# Velocity P-wave (km/s) = 7.48082 7.51395 7.49740
#
# Compressibility (1/GPa) = 0.01465089
#
# Stress axis : x y z
#
# Youngs Moduli (GPa) = 81.67163 69.02373 62.51202
#
# Poissons Ratio (x) = 0.15649 0.29234
# Poissons Ratio (y) = 0.18516 0.44354
# Poissons Ratio (z) = 0.38194 0.48974
#
# Static dielectric constant tensor:
#      x y z
#    x 3.425270 0.000000 0.000000 
#    y 0.000000 3.338760 0.000000 
#    z 0.000000 0.000000 3.640120 
# 
# 
# High freq. dielectric constant tensor:
#      x y z
#    x 1.720480 0.000000 0.000000 
#    y 0.000000 1.710850 0.000000 
#    z 0.000000 0.000000 1.711440 
# 
# From -- ./inp_files/21834.got.cif
#   From: 2010.03.12/outbox.cif.g09.slc.cpg/sg74_11_cif.got.tgz:21834.got - 2010.04.16 15:46:19.
