data_PCOD8299571
_publ_section_title
;
Structure prediction by ZEFSAII (Michael W. Deem and Ramdas Pophale) SiO2 
 PCOD8299571
Probable space group: I M M A
;
_chemical_formula_sum "Si O2"
_cell_formula_units_Z 112
_cell_length_a 15.902231
_cell_length_b 15.070272
_cell_length_c 24.833950
_cell_angle_alpha 90.000000
_cell_angle_beta 90.000000
_cell_angle_gamma 90.000000
_cell_volume 5951.479625
_symmetry_space_group_name_H-M "I M M A"
_symmetry_group_IT_number 74
_symmetry_cell_setting 'orthorhombic'
loop_
_space_group_symop_operation_xyz
x,y,z
-x,1/2-y,z
x,-y,-z
-x,1/2+y,-z
-x,-y,-z
x,1/2+y,-z
-x,y,z
x,1/2-y,z
1/2+x,1/2+y,1/2+z
1/2-x,-y,1/2+z
1/2+x,1/2-y,1/2-z
1/2-x,y,1/2-z
1/2-x,1/2-y,1/2-z
1/2+x,y,1/2-z
1/2-x,1/2+y,1/2+z
1/2+x,-y,1/2+z
loop_
_atom_site_type_symbol
_atom_site_label
_atom_site_fract_x
_atom_site_fract_y
_atom_site_fract_z
Si Si1 0.598328 0.849710 0.136260
Si Si2 0.595301 0.511515 0.936876
Si Si3 0.404403 0.553023 0.554656
Si Si4 0.740081 0.848876 0.915173
Si Si5 0.193981 0.349122 0.200892
Si Si6 0.593876 0.488730 0.669575
Si Si7 0.346579 0.845722 0.252742
O O1 0.500000 0.841497 0.128950
O O2 0.637739 0.750000 0.126900
O O3 0.619752 0.885440 0.196216
O O4 0.630621 0.922318 0.092674
O O5 0.500000 0.534561 0.915967
O O6 0.660985 0.590055 0.928008
O O7 0.591290 0.500000 0.000000
O O8 0.392600 0.500000 0.500000
O O9 0.500000 0.594635 0.557390
O O10 0.329697 0.624842 0.557514
O O11 0.392751 0.486060 0.605130
O O12 0.719693 0.750000 0.936068
O O13 0.747242 0.850448 0.851126
O O14 0.158866 0.250000 0.212038
O O15 0.250000 0.383993 0.250000
O O16 0.116204 0.414677 0.193021
O O17 0.500000 0.469195 0.686752
O O18 0.645847 0.411125 0.696946
O O19 0.391862 0.750000 0.263388
O O20 0.250000 0.826339 0.250000
#
# Coordination Sequence:
#
# PCOD8299571 Si02
#       7
#    16  16  16  16  16  16  16
#     4   9  19  36  57  80 107 143 185 227 275 332
#     4  10  22  38  57  82 112 147 186 232 280 327
#     4   9  19  37  58  81 111 146 187 233 279 330
#     4  10  21  36  56  82 111 148 187 225 273 326
#     4   9  19  35  53  75 106 140 175 220 270 322
#     4  10  20  32  54  81 105 142 178 219 276 324
#     4  10  21  35  53  80 111 143 180 223 273 333
#
# _framework density 18.818850000000001
#
# number of rings (size 3 to 8) (size 9 to 14) (size 15 to 20)
#    0.000    2.429    0.000    1.286    6.000    2.286 
#    0.000    5.000    0.000    5.143    0.000    0.000 
#    0.000    0.000    0.000    0.000    0.000    0.000 
#
# Total GULP energy -693940.370686 kJ/mol
# GULP energy per Si atom -12391.792334 kJ/mol
# Density = 1.877602 g / cm^3
# Si number density = 18.818850 Si / 1000 Ang^3
#
#
#
# Elastic Constant Matrix: (Units=GPa)
#
#
# Indices 1 2 3 4 5 6 
#
# 1 84.7908 56.9021 27.2773 0.0000 0.0000 0.0000
# 2 56.9021 122.2606 55.2111 0.0000 0.0000 0.0000
# 3 27.2773 55.2111 106.5329 0.0000 0.0000 0.0000
# 4 0.0000 0.0000 0.0000 22.7764 0.0000 0.0000
# 5 0.0000 0.0000 0.0000 0.0000 21.7342 0.0000
# 6 0.0000 0.0000 0.0000 0.0000 0.0000 -0.0270
#
#
#
# Elastic Compliance Matrix: (Units=1/GPa)
#
#
# Indices 1 2 3 4 5 6 
#
# 1 0.017159 -0.007836 -0.000332 0.000000 0.000000 0.000000
# 2 -0.007836 0.014257 -0.005382 0.000000 0.000000 0.000000
# 3 -0.000332 -0.005382 0.012261 0.000000 0.000000 0.000000
# 4 0.000000 0.000000 0.000000 0.043905 0.000000 -0.000001
# 5 0.000000 0.000000 0.000000 0.000000 0.046010 0.000000
# 6 0.000000 0.000000 0.000000 -0.000001 0.000000-37.063694
#
#
# Mechanical properties :
#
#
# Convention : Reuss Voigt Hill
#
# Bulk Modulus (GPa) = 60.32893 65.81839 63.07366
# Shear Modulus (GPa) = -0.13551 20.50964 10.18706
#
# Velocity S-wave (km/s) = -0.26863 3.30486 2.32916
# Velocity P-wave (km/s) = 5.65960 7.04368 6.38923
#
# Compressibility (1/GPa) = 0.01657579
#
# Stress axis : x y z
#
# Youngs Moduli (GPa) = 58.27696 70.14159 81.55752
#
# Poissons Ratio (x) = 0.54964 0.02712
# Poissons Ratio (y) = 0.45667 0.43897
# Poissons Ratio (z) = 0.01938 0.37752
#
# Static dielectric constant tensor:
#      x y z
#    x 3.525740 0.000000 0.000000 
#    y 0.000000 3.794410 0.000000 
#    z 0.000000 0.000000 3.752370 
# 
# 
# High freq. dielectric constant tensor:
#      x y z
#    x 1.727570 0.000000 0.000000 
#    y 0.000000 1.725070 0.000000 
#    z 0.000000 0.000000 1.733730 
# 
# From -- ./inp_files/60147.got.cif
#   From: 2010.03.12/outbox.cif.g09.slc.cpg/sg74_31_cif.got.tgz:60147.got - 2010.04.16 15:46:19.
