data_PCOD8299305
_publ_section_title
;
Structure prediction by ZEFSAII (Michael W. Deem and Ramdas Pophale) SiO2 
 PCOD8299305
Probable space group: I M M A
;
_chemical_formula_sum "Si O2"
_cell_formula_units_Z 64
_cell_length_a 18.180348
_cell_length_b 15.678230
_cell_length_c 10.460641
_cell_angle_alpha 90.000000
_cell_angle_beta 90.000000
_cell_angle_gamma 90.000000
_cell_volume 2981.655894
_symmetry_space_group_name_H-M "I M M A"
_symmetry_group_IT_number 74
_symmetry_cell_setting 'orthorhombic'
loop_
_space_group_symop_operation_xyz
x,y,z
-x,1/2-y,z
x,-y,-z
-x,1/2+y,-z
-x,-y,-z
x,1/2+y,-z
-x,y,z
x,1/2-y,z
1/2+x,1/2+y,1/2+z
1/2-x,-y,1/2+z
1/2+x,1/2-y,1/2-z
1/2-x,y,1/2-z
1/2-x,1/2-y,1/2-z
1/2+x,y,1/2-z
1/2-x,1/2+y,1/2+z
1/2+x,-y,1/2+z
loop_
_atom_site_type_symbol
_atom_site_label
_atom_site_fract_x
_atom_site_fract_y
_atom_site_fract_z
Si Si1 0.662612 0.657870 0.248178
Si Si2 0.811502 0.509653 0.858741
Si Si3 0.415166 0.901556 0.003785
Si Si4 0.084478 0.653120 0.780888
O O1 0.634148 0.750000 0.302128
O O2 0.750000 0.657738 0.250000
O O3 0.638417 0.575060 0.330378
O O4 0.634496 0.648678 0.104036
O O5 0.750000 0.522351 0.750000
O O6 0.635463 0.591077 0.636547
O O7 0.775481 0.500000 0.000000
O O8 0.500000 0.892063 0.044899
O O9 0.399198 0.858958 0.868363
O O10 0.391721 0.000000 0.000000
O O11 0.103167 0.750000 0.819364
O O12 0.000000 0.630880 0.810921
#
# Coordination Sequence:
#
# PCOD8299305 Si02
#       4
#    16  16  16  16
#     4  10  22  37  58  89 130 171 212 263 319 378
#     4  11  26  43  66  95 134 174 218 267 325 387
#     4  10  19  36  65  98 131 170 217 268 324 386
#     4  10  22  41  67  98 132 170 217 271 325 387
#
# _framework density 21.464582
#
# number of rings (size 3 to 8) (size 9 to 14) (size 15 to 20)
#    0.000    1.750    2.500    0.750    7.000    3.500 
#    0.000    0.000    0.000    0.000    0.000    0.000 
#    0.000    0.000    0.000    0.000    0.000    0.000 
#
# Total GULP energy -396676.225150 kJ/mol
# GULP energy per Si atom -12396.132036 kJ/mol
# Density = 2.141573 g / cm^3
# Si number density = 21.464582 Si / 1000 Ang^3
#
#
#
# Elastic Constant Matrix: (Units=GPa)
#
#
# Indices 1 2 3 4 5 6 
#
# 1 79.2213 46.9276 48.9008 0.0000 0.0000 0.0000
# 2 46.9276 160.9409 36.7923 0.0000 0.0000 0.0000
# 3 48.9008 36.7923 107.8961 0.0000 0.0000 0.0000
# 4 0.0000 0.0000 0.0000 19.8435 0.0000 0.0000
# 5 0.0000 0.0000 0.0000 0.0000 36.3937 0.0000
# 6 0.0000 0.0000 0.0000 0.0000 0.0000 20.5770
#
#
#
# Elastic Compliance Matrix: (Units=1/GPa)
#
#
# Indices 1 2 3 4 5 6 
#
# 1 0.019650 -0.004006 -0.007540 0.000000 0.000000 0.000000
# 2 -0.004006 0.007555 -0.000761 0.000000 0.000000 0.000000
# 3 -0.007540 -0.000761 0.012945 0.000000 0.000000 0.000000
# 4 0.000000 0.000000 0.000000 0.050394 0.000000 0.000000
# 5 0.000000 0.000000 0.000000 0.000000 0.027477 0.000000
# 6 0.000000 0.000000 0.000000 0.000000 0.000000 0.048598
#
#
# Mechanical properties :
#
#
# Convention : Reuss Voigt Hill
#
# Bulk Modulus (GPa) = 64.36186 68.14441 66.25314
# Shear Modulus (GPa) = 25.45673 29.72534 27.59104
#
# Velocity S-wave (km/s) = 3.44755 3.72540 3.58917
# Velocity P-wave (km/s) = 6.77479 7.09374 6.93610
#
# Compressibility (1/GPa) = 0.01553715
#
# Stress axis : x y z
#
# Youngs Moduli (GPa) = 50.89094 132.35479 77.25130
#
# Poissons Ratio (x) = 0.53020 0.58245
# Poissons Ratio (y) = 0.20387 0.05877
# Poissons Ratio (z) = 0.38370 0.10070
#
# Static dielectric constant tensor:
#      x y z
#    x 3.677870 0.000000 0.000000 
#    y 0.000000 4.757960 0.000000 
#    z 0.000000 0.000000 3.639480 
# 
# 
# High freq. dielectric constant tensor:
#      x y z
#    x 1.822290 0.000000 0.000000 
#    y 0.000000 1.866950 0.000000 
#    z 0.000000 0.000000 1.823930 
# 
# From -- ./inp_files/21751.got.cif
#   From: 2010.03.12/outbox.cif.g09.slc.cpg/sg74_11_cif.got.tgz:21751.got - 2010.04.16 15:46:19.
