data_PCOD8300744
_publ_section_title
;
Structure prediction by ZEFSAII (Michael W. Deem and Ramdas Pophale) SiO2 
 PCOD8300744
Probable space group: I M M A
;
_chemical_formula_sum "Si O2"
_cell_formula_units_Z 72
_cell_length_a 7.441799
_cell_length_b 17.865030
_cell_length_c 27.312233
_cell_angle_alpha 90.000000
_cell_angle_beta 90.000000
_cell_angle_gamma 90.000000
_cell_volume 3631.105726
_symmetry_space_group_name_H-M "I M M A"
_symmetry_group_IT_number 74
_symmetry_cell_setting 'orthorhombic'
loop_
_space_group_symop_operation_xyz
x,y,z
-x,1/2-y,z
x,-y,-z
-x,1/2+y,-z
-x,-y,-z
x,1/2+y,-z
-x,y,z
x,1/2-y,z
1/2+x,1/2+y,1/2+z
1/2-x,-y,1/2+z
1/2+x,1/2-y,1/2-z
1/2-x,y,1/2-z
1/2-x,1/2-y,1/2-z
1/2+x,y,1/2-z
1/2-x,1/2+y,1/2+z
1/2+x,-y,1/2+z
loop_
_atom_site_type_symbol
_atom_site_label
_atom_site_fract_x
_atom_site_fract_y
_atom_site_fract_z
Si Si1 0.000000 0.928523 0.435835
Si Si2 0.291220 0.163927 0.385696
Si Si3 0.000000 0.103484 0.454403
Si Si4 0.708305 0.548654 0.693902
Si Si5 0.214695 0.399460 0.857405
Si Si6 0.208304 0.750000 0.193427
O O1 0.000000 0.885851 0.487395
O O2 0.816747 0.904372 0.408831
O O3 0.000000 0.017070 0.440830
O O4 0.500000 0.147294 0.397128
O O5 0.260871 0.250000 0.371385
O O6 0.214256 0.114906 0.340236
O O7 0.178775 0.143034 0.433789
O O8 0.500000 0.547473 0.685328
O O9 0.750000 0.565547 0.750000
O O10 0.782580 0.468011 0.676899
O O11 0.287082 0.324686 0.831022
O O12 0.000000 0.400199 0.866449
O O13 0.250000 0.750000 0.250000
O O14 0.000000 0.750000 0.183759
#
# Coordination Sequence:
#
# PCOD8300744 Si02
#       6
#     8  16   8  16  16   8
#     4  11  24  39  70  91 121 163 209 267 312 360
#     4  10  22  42  63  88 129 165 203 256 307 371
#     4  11  23  42  65  98 115 161 219 256 317 368
#     4  10  21  35  59  89 120 162 204 247 306 368
#     4  10  22  41  59  87 127 163 205 258 311 377
#     4  10  22  38  60  90 124 168 210 253 315 375
#
# _framework density 19.828671
#
# number of rings (size 3 to 8) (size 9 to 14) (size 15 to 20)
#    0.000    1.778    2.222    1.000    4.667    1.333 
#    4.000    2.222    0.000    0.000    0.000    0.000 
#    0.000    0.000    0.000    0.000    0.000    0.000 
#
# Total GULP energy -446382.688198 kJ/mol
# GULP energy per Si atom -12399.519117 kJ/mol
# Density = 1.978354 g / cm^3
# Si number density = 19.828671 Si / 1000 Ang^3
#
#
#
# Elastic Constant Matrix: (Units=GPa)
#
#
# Indices 1 2 3 4 5 6 
#
# 1 76.6491 37.6396 49.7495 0.0000 0.0000 0.0000
# 2 37.6396 154.0669 72.8581 0.0000 0.0000 0.0000
# 3 49.7495 72.8581 165.0992 0.0000 0.0000 0.0000
# 4 0.0000 0.0000 0.0000 26.6278 0.0000 0.0000
# 5 0.0000 0.0000 0.0000 0.0000 35.5647 0.0000
# 6 0.0000 0.0000 0.0000 0.0000 0.0000 16.9688
#
#
#
# Elastic Compliance Matrix: (Units=1/GPa)
#
#
# Indices 1 2 3 4 5 6 
#
# 1 0.016767 -0.002157 -0.004101 0.000000 0.000000 0.000000
# 2 -0.002157 0.008480 -0.003092 0.000000 0.000000 0.000000
# 3 -0.004101 -0.003092 0.008657 0.000000 0.000000 0.000000
# 4 0.000000 0.000000 0.000000 0.037555 0.000000 0.000000
# 5 0.000000 0.000000 0.000000 0.000000 0.028118 0.000000
# 6 0.000000 0.000000 0.000000 0.000000 0.000000 0.058932
#
#
# Mechanical properties :
#
#
# Convention : Reuss Voigt Hill
#
# Bulk Modulus (GPa) = 65.76964 79.58995 72.67979
# Shear Modulus (GPa) = 27.43082 31.53678 29.48380
#
# Velocity S-wave (km/s) = 3.72343 3.99239 3.86025
# Velocity P-wave (km/s) = 7.19210 7.84080 7.52344
#
# Compressibility (1/GPa) = 0.01520458
#
# Stress axis : x y z
#
# Youngs Moduli (GPa) = 59.63997 117.92447 115.51143
#
# Poissons Ratio (x) = 0.25439 0.47366
# Poissons Ratio (y) = 0.12866 0.35718
# Poissons Ratio (z) = 0.24455 0.36464
#
# Static dielectric constant tensor:
#      x y z
#    x 3.746750 0.000000 0.000000 
#    y 0.000000 4.142940 0.000000 
#    z 0.000000 0.000000 3.314730 
# 
# 
# High freq. dielectric constant tensor:
#      x y z
#    x 1.778590 0.000000 0.000000 
#    y 0.000000 1.786960 0.000000 
#    z 0.000000 0.000000 1.762980 
# 
# From -- ./inp_files/56712.got.cif
#   From: 2010.03.12/outbox.cif.g09.slc.cpg/sg74_29_cif.got.tgz:56712.got - 2010.04.16 15:46:19.
