data_PCOD8300146
_publ_section_title
;
Structure prediction by ZEFSAII (Michael W. Deem and Ramdas Pophale) SiO2 
 PCOD8300146
Probable space group: I M M A
;
_chemical_formula_sum "Si O2"
_cell_formula_units_Z 88
_cell_length_a 8.821255
_cell_length_b 22.246763
_cell_length_c 22.742682
_cell_angle_alpha 90.000000
_cell_angle_beta 90.000000
_cell_angle_gamma 90.000000
_cell_volume 4463.123286
_symmetry_space_group_name_H-M "I M M A"
_symmetry_group_IT_number 74
_symmetry_cell_setting 'orthorhombic'
loop_
_space_group_symop_operation_xyz
x,y,z
-x,1/2-y,z
x,-y,-z
-x,1/2+y,-z
-x,-y,-z
x,1/2+y,-z
-x,y,z
x,1/2-y,z
1/2+x,1/2+y,1/2+z
1/2-x,-y,1/2+z
1/2+x,1/2-y,1/2-z
1/2-x,y,1/2-z
1/2-x,1/2-y,1/2-z
1/2+x,y,1/2-z
1/2-x,1/2+y,1/2+z
1/2+x,-y,1/2+z
loop_
_atom_site_type_symbol
_atom_site_label
_atom_site_fract_x
_atom_site_fract_y
_atom_site_fract_z
Si Si1 0.673692 0.434185 0.980611
Si Si2 0.672914 0.581929 0.890279
Si Si3 0.173676 0.988496 0.188819
Si Si4 0.179372 0.183587 0.309013
Si Si5 0.819075 0.250000 0.684288
Si Si6 0.175386 0.632490 0.127997
O O1 0.500000 0.440436 0.957926
O O2 0.768427 0.396817 0.933144
O O3 0.736959 0.500000 0.000000
O O4 0.686543 0.399165 0.041872
O O5 0.500000 0.569859 0.872442
O O6 0.759052 0.522098 0.868523
O O7 0.741053 0.640294 0.859247
O O8 0.250000 0.007890 0.250000
O O9 0.195123 0.917288 0.178870
O O10 0.000000 0.006740 0.193693
O O11 0.243128 0.250000 0.321939
O O12 0.250000 0.157212 0.250000
O O13 0.000000 0.184052 0.304257
O O14 0.750000 0.250000 0.750000
O O15 0.768531 0.191278 0.647475
O O16 0.000000 0.250000 0.689858
O O17 0.000000 0.650615 0.120246
#
# Coordination Sequence:
#
# PCOD8300146 Si02
#       6
#    16  16  16  16   8  16
#     4  10  20  37  61  88 120 159 201 247 301 363
#     4  10  20  35  56  82 115 153 196 245 297 357
#     4  11  23  36  56  86 118 153 193 244 304 365
#     4   9  18  33  52  75 106 144 185 232 284 342
#     4  12  26  46  72  98 128 166 211 264 323 386
#     4  11  24  42  64  91 125 164 207 255 312 376
#
# _framework density 19.717134999999999
#
# number of rings (size 3 to 8) (size 9 to 14) (size 15 to 20)
#    0.000    1.636    1.818    3.000    0.000    6.909 
#    1.636    0.000    0.000    0.000    0.000    0.000 
#    0.000    0.000    0.000    0.000    0.000    0.000 
#
# Total GULP energy -545391.530680 kJ/mol
# GULP energy per Si atom -12395.262061 kJ/mol
# Density = 1.967226 g / cm^3
# Si number density = 19.717135 Si / 1000 Ang^3
#
#
#
# Elastic Constant Matrix: (Units=GPa)
#
#
# Indices 1 2 3 4 5 6 
#
# 1 96.7600 45.3563 38.1772 0.0000 0.0000 0.0000
# 2 45.3563 104.7020 54.2331 0.0000 0.0000 0.0000
# 3 38.1772 54.2331 102.8916 0.0000 0.0000 0.0000
# 4 0.0000 0.0000 0.0000 17.9892 0.0000 0.0000
# 5 0.0000 0.0000 0.0000 0.0000 32.9424 0.0000
# 6 0.0000 0.0000 0.0000 0.0000 0.0000 23.8961
#
#
#
# Elastic Compliance Matrix: (Units=1/GPa)
#
#
# Indices 1 2 3 4 5 6 
#
# 1 0.013472 -0.004466 -0.002645 0.000000 0.000000 0.000000
# 2 -0.004466 0.014618 -0.006048 0.000000 0.000000 0.000000
# 3 -0.002645 -0.006048 0.013888 0.000000 0.000000 0.000000
# 4 0.000000 0.000000 0.000000 0.055589 0.000000 0.000000
# 5 0.000000 0.000000 0.000000 0.000000 0.030356 0.000000
# 6 0.000000 0.000000 0.000000 0.000000 0.000000 0.041848
#
#
# Mechanical properties :
#
#
# Convention : Reuss Voigt Hill
#
# Bulk Modulus (GPa) = 63.85386 64.43185 64.14285
# Shear Modulus (GPa) = 24.83748 26.07135 25.45441
#
# Velocity S-wave (km/s) = 3.55306 3.64025 3.59692
# Velocity P-wave (km/s) = 7.02051 7.10053 7.06064
#
# Compressibility (1/GPa) = 0.01566076
#
# Stress axis : x y z
#
# Youngs Moduli (GPa) = 74.22941 68.40719 72.00415
#
# Poissons Ratio (x) = 0.30551 0.19042
# Poissons Ratio (y) = 0.33151 0.43549
# Poissons Ratio (z) = 0.19631 0.41373
#
# Static dielectric constant tensor:
#      x y z
#    x 3.547570 0.000000 0.000000 
#    y 0.000000 3.788970 0.000000 
#    z 0.000000 0.000000 3.657380 
# 
# 
# High freq. dielectric constant tensor:
#      x y z
#    x 1.762630 0.000000 0.000000 
#    y 0.000000 1.771310 0.000000 
#    z 0.000000 0.000000 1.775350 
# 
# From -- ./inp_files/48777.got.cif
#   From: 2010.03.12/outbox.cif.g09.slc.cpg/sg74_25_cif.got.tgz:48777.got - 2010.04.16 15:46:19.
