data_PCOD8300751
_publ_section_title
;
Structure prediction by ZEFSAII (Michael W. Deem and Ramdas Pophale) SiO2 
 PCOD8300751
Probable space group: I M M A
;
_chemical_formula_sum "Si O2"
_cell_formula_units_Z 104
_cell_length_a 18.283753
_cell_length_b 13.961600
_cell_length_c 25.054176
_cell_angle_alpha 90.000000
_cell_angle_beta 90.000000
_cell_angle_gamma 90.000000
_cell_volume 6395.590679
_symmetry_space_group_name_H-M "I M M A"
_symmetry_group_IT_number 74
_symmetry_cell_setting 'orthorhombic'
loop_
_space_group_symop_operation_xyz
x,y,z
-x,1/2-y,z
x,-y,-z
-x,1/2+y,-z
-x,-y,-z
x,1/2+y,-z
-x,y,z
x,1/2-y,z
1/2+x,1/2+y,1/2+z
1/2-x,-y,1/2+z
1/2+x,1/2-y,1/2-z
1/2-x,y,1/2-z
1/2-x,1/2-y,1/2-z
1/2+x,y,1/2-z
1/2-x,1/2+y,1/2+z
1/2+x,-y,1/2+z
loop_
_atom_site_type_symbol
_atom_site_label
_atom_site_fract_x
_atom_site_fract_y
_atom_site_fract_z
Si Si1 0.229739 0.362282 0.189666
Si Si2 0.079818 0.137102 0.466650
Si Si3 0.918155 0.138237 0.027987
Si Si4 0.799457 0.000000 0.000000
Si Si5 0.578053 0.363008 0.352157
Si Si6 0.308437 0.978933 0.901574
Si Si7 0.915890 0.861652 0.412012
O O1 0.242151 0.250000 0.174926
O O2 0.250000 0.384317 0.250000
O O3 0.144724 0.392974 0.185488
O O4 0.274890 0.430926 0.150879
O O5 0.083641 0.250000 0.467901
O O6 0.138909 0.100280 0.425957
O O7 0.092936 0.101641 0.527066
O O8 0.000000 0.102247 0.447160
O O9 0.903862 0.250000 0.025016
O O10 0.909961 0.097936 0.088108
O O11 0.000000 0.113546 0.006291
O O12 0.853264 0.090993 0.994135
O O13 0.751949 0.003375 0.946105
O O14 0.500000 0.402154 0.329283
O O15 0.573131 0.250000 0.356678
O O16 0.355875 0.071898 0.882100
O O17 0.895246 0.750000 0.404713
O O18 0.000000 0.878100 0.392828
#
# Coordination Sequence:
#
# PCOD8300751 Si02
#       7
#    16  16  16   8  16  16  16
#     4  10  21  36  52  72 101 135 168 205 249 295
#     4   9  17  29  45  68 102 140 167 192 239 302
#     4   9  18  32  47  66  97 132 162 195 238 296
#     4  12  21  26  45  78 102 124 158 204 253 300
#     4   8  14  28  49  67  89 127 166 194 229 282
#     4  12  20  30  47  74 103 129 165 212 253 294
#     4   9  18  32  48  68  99 137 172 203 243 300
#
# _framework density 16.261202999999998
#
# number of rings (size 3 to 8) (size 9 to 14) (size 15 to 20)
#    0.000    2.308    3.077    3.000    0.000    2.462 
#    0.000    1.538    0.000    4.154    0.000    0.000 
#    0.000    2.462    0.000    0.000    0.000    0.000 
#
# Total GULP energy -644337.951163 kJ/mol
# GULP energy per Si atom -12391.114445 kJ/mol
# Density = 1.622419 g / cm^3
# Si number density = 16.261203 Si / 1000 Ang^3
#
#
#
# Elastic Constant Matrix: (Units=GPa)
#
#
# Indices 1 2 3 4 5 6 
#
# 1 140.0635 50.8972 58.9564 0.0000 0.0000 0.0000
# 2 50.8972 51.8737 35.1376 0.0000 0.0000 0.0000
# 3 58.9564 35.1376 74.0362 0.0000 0.0000 0.0000
# 4 0.0000 0.0000 0.0000 19.8906 0.0000 0.0000
# 5 0.0000 0.0000 0.0000 0.0000 12.2760 0.0000
# 6 0.0000 0.0000 0.0000 0.0000 0.0000 30.6674
#
#
#
# Elastic Compliance Matrix: (Units=1/GPa)
#
#
# Indices 1 2 3 4 5 6 
#
# 1 0.012789 -0.008326 -0.006232 0.000000 0.000000 0.000000
# 2 -0.008326 0.033832 -0.009426 0.000000 0.000000 0.000000
# 3 -0.006232 -0.009426 0.022943 0.000000 0.000000 0.000000
# 4 0.000000 0.000000 0.000000 0.050275 0.000000 0.000000
# 5 0.000000 0.000000 0.000000 0.000000 0.081459 0.000000
# 6 0.000000 0.000000 0.000000 0.000000 0.000000 0.032608
#
#
# Mechanical properties :
#
#
# Convention : Reuss Voigt Hill
#
# Bulk Modulus (GPa) = 46.30780 61.77286 54.04033
# Shear Modulus (GPa) = 17.29658 20.63230 18.96444
#
# Velocity S-wave (km/s) = 3.26494 3.56589 3.41873
# Velocity P-wave (km/s) = 6.53853 7.41785 6.99203
#
# Compressibility (1/GPa) = 0.02159464
#
# Stress axis : x y z
#
# Youngs Moduli (GPa) = 78.19483 29.55750 43.58557
#
# Poissons Ratio (x) = 0.24611 0.27163
# Poissons Ratio (y) = 0.65108 0.41085
# Poissons Ratio (z) = 0.48732 0.27862
#
# Static dielectric constant tensor:
#      x y z
#    x 3.539430 0.000000 0.000000 
#    y 0.000000 2.980350 0.000000 
#    z 0.000000 0.000000 2.710730 
# 
# 
# High freq. dielectric constant tensor:
#      x y z
#    x 1.649440 0.000000 0.000000 
#    y 0.000000 1.614380 0.000000 
#    z 0.000000 0.000000 1.573280 
# 
# From -- ./inp_files/67856.got.cif
#   From: 2010.03.12/outbox.cif.g09.slc.cpg/sg74_34_cif.got.tgz:67856.got - 2010.04.16 15:46:19.
