data_PCOD8300258
_publ_section_title
;
Structure prediction by ZEFSAII (Michael W. Deem and Ramdas Pophale) SiO2 
 PCOD8300258
Probable space group: I M M A
;
_chemical_formula_sum "Si O2"
_cell_formula_units_Z 96
_cell_length_a 21.669020
_cell_length_b 11.521364
_cell_length_c 18.279890
_cell_angle_alpha 90.000000
_cell_angle_beta 90.000000
_cell_angle_gamma 90.000000
_cell_volume 4563.696409
_symmetry_space_group_name_H-M "I M M A"
_symmetry_group_IT_number 74
_symmetry_cell_setting 'orthorhombic'
loop_
_space_group_symop_operation_xyz
x,y,z
-x,1/2-y,z
x,-y,-z
-x,1/2+y,-z
-x,-y,-z
x,1/2+y,-z
-x,y,z
x,1/2-y,z
1/2+x,1/2+y,1/2+z
1/2-x,-y,1/2+z
1/2+x,1/2-y,1/2-z
1/2-x,y,1/2-z
1/2-x,1/2-y,1/2-z
1/2+x,y,1/2-z
1/2-x,1/2+y,1/2+z
1/2+x,-y,1/2+z
loop_
_atom_site_type_symbol
_atom_site_label
_atom_site_fract_x
_atom_site_fract_y
_atom_site_fract_z
Si Si1 0.797768 0.017053 0.416380
Si Si2 0.249836 0.750000 0.867347
Si Si3 0.198566 0.121904 0.830818
Si Si4 0.351598 0.750000 0.741627
Si Si5 0.868993 0.379850 0.970744
Si Si6 0.500000 0.380339 0.571618
Si Si7 0.500000 0.887793 0.267597
Si Si8 0.878784 0.007776 0.282522
O O1 0.759859 0.136868 0.416211
O O2 0.817833 0.000000 0.500000
O O3 0.754674 0.917711 0.382373
O O4 0.860058 0.019003 0.367716
O O5 0.297449 0.750000 0.800823
O O6 0.179567 0.750000 0.838448
O O7 0.213598 0.250000 0.800716
O O8 0.138998 0.125325 0.883349
O O9 0.181889 0.041975 0.761133
O O10 0.393552 0.635720 0.750667
O O11 0.848714 0.250000 0.003555
O O12 0.941764 0.401740 0.981535
O O13 0.835001 0.500000 0.000000
O O14 0.500000 0.250000 0.599618
O O15 0.500000 0.445165 0.650696
O O16 0.500000 0.750000 0.263303
O O17 0.561041 0.929525 0.224651
#
# Coordination Sequence:
#
# PCOD8300258 Si02
#       8
#    16   8  16   8  16   8   8  16
#     4  11  24  40  61  94 127 163 202 252 314 373
#     4   9  18  38  62  86 127 164 198 242 307 373
#     4  11  22  37  59  90 125 160 201 251 304 364
#     4   9  18  37  64  90 116 163 205 246 302 365
#     4  10  20  36  54  80 119 161 199 245 302 360
#     4   9  17  33  57  76 110 155 197 246 301 354
#     4  11  22  40  65  91 119 159 209 264 316 360
#     4  11  22  41  66  90 122 161 210 258 306 367
#
# _framework density 21.03558
#
# number of rings (size 3 to 8) (size 9 to 14) (size 15 to 20)
#    0.000    1.667    3.333    1.750    1.167    2.333 
#    3.000    0.417    1.833    0.000    0.000    0.000 
#    0.000    0.000    0.000    0.000    0.000    0.000 
#
# Total GULP energy -594788.173167 kJ/mol
# GULP energy per Si atom -12391.420274 kJ/mol
# Density = 2.098770 g / cm^3
# Si number density = 21.035580 Si / 1000 Ang^3
#
#
#
# Elastic Constant Matrix: (Units=GPa)
#
#
# Indices 1 2 3 4 5 6 
#
# 1 50.5999 29.6949 14.7694 0.0000 0.0000 0.0000
# 2 29.6949 175.5990 51.0401 0.0000 0.0000 0.0000
# 3 14.7694 51.0401 109.4698 0.0000 0.0000 0.0000
# 4 0.0000 0.0000 0.0000 21.7009 0.0000 0.0000
# 5 0.0000 0.0000 0.0000 0.0000 -17.9215 0.0000
# 6 0.0000 0.0000 0.0000 0.0000 0.0000 7.0920
#
#
#
# Elastic Compliance Matrix: (Units=1/GPa)
#
#
# Indices 1 2 3 4 5 6 
#
# 1 0.022134 -0.003326 -0.001436 0.000000 0.000000 0.000000
# 2 -0.003326 0.007087 -0.002856 0.000000 0.000000 0.000000
# 3 -0.001436 -0.002856 0.010660 0.000000 0.000000 0.000000
# 4 0.000000 0.000000 0.000000 0.046081 0.000000 0.000000
# 5 0.000000 0.000000 0.000000 0.000000 -0.055799 0.000000
# 6 0.000000 0.000000 0.000000 0.000000 0.000000 0.141005
#
#
# Mechanical properties :
#
#
# Convention : Reuss Voigt Hill
#
# Bulk Modulus (GPa) = 40.57295 58.51969 49.54632
# Shear Modulus (GPa) = 25.69146 18.18523 21.93834
#
# Velocity S-wave (km/s) = 3.49855 2.94343 3.23292
# Velocity P-wave (km/s) = 5.97072 6.27945 6.12703
#
# Compressibility (1/GPa) = 0.02464696
#
# Stress axis : x y z
#
# Youngs Moduli (GPa) = 45.18013 141.09879 93.80768
#
# Poissons Ratio (x) = 0.46925 0.13467
# Poissons Ratio (y) = 0.15025 0.26789
# Poissons Ratio (z) = 0.06486 0.40294
#
# Static dielectric constant tensor:
#      x y z
#    x 3.486320 0.000000 0.000000 
#    y 0.000000 4.115130 0.000000 
#    z 0.000000 0.000000 3.616060 
# 
# 
# High freq. dielectric constant tensor:
#      x y z
#    x 1.794200 0.000000 0.000000 
#    y 0.000000 1.843080 0.000000 
#    z 0.000000 0.000000 1.810390 
# 
# From -- ./inp_files/53924.got.cif
#   From: 2010.03.12/outbox.cif.g09.slc.cpg/sg74_27_cif.got.tgz:53924.got - 2010.04.16 15:46:19.
