data_PCOD8300238
_publ_section_title
;
Structure prediction by ZEFSAII (Michael W. Deem and Ramdas Pophale) SiO2 
 PCOD8300238
Probable space group: I M M A
;
_chemical_formula_sum "Si O2"
_cell_formula_units_Z 96
_cell_length_a 23.403972
_cell_length_b 13.673675
_cell_length_c 14.494859
_cell_angle_alpha 90.000000
_cell_angle_beta 90.000000
_cell_angle_gamma 90.000000
_cell_volume 4638.620235
_symmetry_space_group_name_H-M "I M M A"
_symmetry_group_IT_number 74
_symmetry_cell_setting 'orthorhombic'
loop_
_space_group_symop_operation_xyz
x,y,z
-x,1/2-y,z
x,-y,-z
-x,1/2+y,-z
-x,-y,-z
x,1/2+y,-z
-x,y,z
x,1/2-y,z
1/2+x,1/2+y,1/2+z
1/2-x,-y,1/2+z
1/2+x,1/2-y,1/2-z
1/2-x,y,1/2-z
1/2-x,1/2-y,1/2-z
1/2+x,y,1/2-z
1/2-x,1/2+y,1/2+z
1/2+x,-y,1/2+z
loop_
_atom_site_type_symbol
_atom_site_label
_atom_site_fract_x
_atom_site_fract_y
_atom_site_fract_z
Si Si1 0.793891 0.556068 0.626414
Si Si2 0.614079 0.362697 0.635924
Si Si3 0.830203 0.451077 0.169885
Si Si4 0.064076 0.365036 0.060414
Si Si5 0.168805 0.136958 0.556018
Si Si6 0.938746 0.635855 0.330948
O O1 0.828390 0.567649 0.720985
O O2 0.728298 0.594728 0.629314
O O3 0.787364 0.440745 0.600321
O O4 0.829078 0.622133 0.554075
O O5 0.634555 0.250000 0.632446
O O6 0.669216 0.432848 0.645488
O O7 0.578634 0.393474 0.545161
O O8 0.575761 0.386499 0.724795
O O9 0.888044 0.405141 0.129778
O O10 0.064895 0.250000 0.071183
O O11 0.000000 0.404656 0.083266
O O12 0.182450 0.250000 0.582899
O O13 0.107965 0.099727 0.595577
O O14 0.944341 0.750000 0.344454
O O15 0.000000 0.585700 0.352927
#
# Coordination Sequence:
#
# PCOD8300238 Si02
#       6
#    16  16  16  16  16  16
#     4  10  24  41  59  89 122 156 207 251 296 362
#     4  10  20  35  59  93 124 158 198 241 302 362
#     4  11  23  41  61  86 124 163 199 250 303 355
#     4  10  23  41  61  89 123 160 205 249 294 358
#     4  10  21  40  63  87 119 157 198 254 304 348
#     4   9  17  33  59  89 120 152 190 241 303 361
#
# _framework density 20.695809000000001
#
# number of rings (size 3 to 8) (size 9 to 14) (size 15 to 20)
#    0.000    2.000    1.667    1.000    4.667    6.000 
#    0.000    5.833    0.000    2.000    0.000    0.000 
#    0.000    0.000    0.000    0.000    0.000    0.000 
#
# Total GULP energy -594735.428671 kJ/mol
# GULP energy per Si atom -12390.321431 kJ/mol
# Density = 2.064870 g / cm^3
# Si number density = 20.695809 Si / 1000 Ang^3
#
#
#
# Elastic Constant Matrix: (Units=GPa)
#
#
# Indices 1 2 3 4 5 6 
#
# 1 128.8046 14.0295 77.4910 0.0000 0.0000 0.0000
# 2 14.0295 6.1675 12.2693 0.0000 0.0000 0.0000
# 3 77.4910 12.2693 146.0034 0.0000 0.0000 0.0000
# 4 0.0000 0.0000 0.0000 27.7206 0.0000 0.0000
# 5 0.0000 0.0000 0.0000 0.0000 28.2873 0.0000
# 6 0.0000 0.0000 0.0000 0.0000 0.0000 25.3736
#
#
#
# Elastic Compliance Matrix: (Units=1/GPa)
#
#
# Indices 1 2 3 4 5 6 
#
# 1 0.013042 -0.019088 -0.005318 0.000000 0.000000 0.000000
# 2 -0.019088 0.222624 -0.008577 0.000000 0.000000 0.000000
# 3 -0.005318 -0.008577 0.010392 0.000000 0.000000 0.000000
# 4 0.000000 0.000000 0.000000 0.036074 0.000000 0.000000
# 5 0.000000 0.000000 0.000000 0.000000 0.035352 0.000000
# 6 0.000000 0.000000 0.000000 0.000000 0.000000 0.039411
#
#
# Mechanical properties :
#
#
# Convention : Reuss Voigt Hill
#
# Bulk Modulus (GPa) = 5.55271 54.28388 29.91829
# Shear Modulus (GPa) = 10.35426 28.08869 19.22147
#
# Velocity S-wave (km/s) = 2.23918 3.68804 3.05087
# Velocity P-wave (km/s) = 3.06171 6.66497 5.18632
#
# Compressibility (1/GPa) = 0.18009220
#
# Stress axis : x y z
#
# Youngs Moduli (GPa) = 76.67386 4.49188 96.22346
#
# Poissons Ratio (x) = 0.08574 0.51172
# Poissons Ratio (y) = 1.46357 0.82530
# Poissons Ratio (z) = 0.40776 0.03853
#
# Static dielectric constant tensor:
#      x y z
#    x 3.884810 0.000000 0.000000 
#    y 0.000000 3.698470 0.000000 
#    z 0.000000 0.000000 3.801850 
# 
# 
# High freq. dielectric constant tensor:
#      x y z
#    x 1.805220 0.000000 0.000000 
#    y 0.000000 1.796810 0.000000 
#    z 0.000000 0.000000 1.812190 
# 
# From -- ./inp_files/35251.got.cif
#   From: 2010.03.12/outbox.cif.g09.slc.cpg/sg74_18_cif.got.tgz:35251.got - 2010.04.16 15:46:19.
