data_PCOD8300766
_publ_section_title
;
Structure prediction by ZEFSAII (Michael W. Deem and Ramdas Pophale) SiO2 
 PCOD8300766
Probable space group: I M M A
;
_chemical_formula_sum "Si O2"
_cell_formula_units_Z 96
_cell_length_a 19.915559
_cell_length_b 9.117286
_cell_length_c 27.567181
_cell_angle_alpha 90.000000
_cell_angle_beta 90.000000
_cell_angle_gamma 90.000000
_cell_volume 5005.534246
_symmetry_space_group_name_H-M "I M M A"
_symmetry_group_IT_number 74
_symmetry_cell_setting 'orthorhombic'
loop_
_space_group_symop_operation_xyz
x,y,z
-x,1/2-y,z
x,-y,-z
-x,1/2+y,-z
-x,-y,-z
x,1/2+y,-z
-x,y,z
x,1/2-y,z
1/2+x,1/2+y,1/2+z
1/2-x,-y,1/2+z
1/2+x,1/2-y,1/2-z
1/2-x,y,1/2-z
1/2-x,1/2-y,1/2-z
1/2+x,y,1/2-z
1/2-x,1/2+y,1/2+z
1/2+x,-y,1/2+z
loop_
_atom_site_type_symbol
_atom_site_label
_atom_site_fract_x
_atom_site_fract_y
_atom_site_fract_z
Si Si1 0.421937 0.579274 0.450196
Si Si2 0.923634 0.077411 0.371860
Si Si3 0.803383 0.080104 0.791052
Si Si4 0.314358 0.578144 0.610460
Si Si5 0.817064 0.921080 0.550557
Si Si6 0.424367 0.419243 0.774818
O O1 0.401719 0.500000 0.500000
O O2 0.500000 0.555987 0.438190
O O3 0.403725 0.750000 0.455282
O O4 0.380699 0.508204 0.406260
O O5 0.916217 0.250000 0.365999
O O6 0.875360 0.018297 0.414134
O O7 0.000000 0.030682 0.384140
O O8 0.899514 0.008632 0.321375
O O9 0.795746 0.250000 0.806128
O O10 0.750000 0.037527 0.750000
O O11 0.877637 0.045516 0.770941
O O12 0.790794 0.978630 0.837279
O O13 0.330285 0.750000 0.613508
O O14 0.255380 0.543552 0.572741
O O15 0.826714 0.750000 0.541751
O O16 0.825021 0.000000 0.500000
O O17 0.500000 0.463493 0.759961
O O18 0.418907 0.250000 0.789458
#
# Coordination Sequence:
#
# PCOD8300766 Si02
#       6
#    16  16  16  16  16  16
#     4  10  21  38  60  84 111 143 179 221 269 322
#     4   9  18  34  55  78 106 139 175 216 262 312
#     4  10  21  36  54  77 106 141 181 225 273 323
#     4  11  23  37  55  80 110 143 181 225 271 324
#     4  10  22  37  53  77 107 139 176 219 265 312
#     4   9  18  33  53  77 104 134 170 212 259 312
#
# _framework density 19.178773
#
# number of rings (size 3 to 8) (size 9 to 14) (size 15 to 20)
#    0.000    2.167    0.000    2.500    0.000    6.333 
#    0.000    1.667    0.000    0.000    0.000    0.000 
#    0.000    0.000    0.000    0.000    0.000    0.000 
#
# Total GULP energy -595406.739486 kJ/mol
# GULP energy per Si atom -12404.307073 kJ/mol
# Density = 1.913512 g / cm^3
# Si number density = 19.178773 Si / 1000 Ang^3
#
#
#
# Elastic Constant Matrix: (Units=GPa)
#
#
# Indices 1 2 3 4 5 6 
#
# 1 57.6305 27.4211 9.2751 0.0000 0.0000 0.0000
# 2 27.4211 65.9092 30.9987 0.0000 0.0000 0.0000
# 3 9.2751 30.9987 60.7432 0.0000 0.0000 0.0000
# 4 0.0000 0.0000 0.0000 40.5364 0.0000 0.0000
# 5 0.0000 0.0000 0.0000 0.0000 29.5474 0.0000
# 6 0.0000 0.0000 0.0000 0.0000 0.0000 20.1664
#
#
#
# Elastic Compliance Matrix: (Units=1/GPa)
#
#
# Indices 1 2 3 4 5 6 
#
# 1 0.021768 -0.009860 0.001708 0.000000 0.000000 0.000000
# 2 -0.009860 0.024430 -0.010962 0.000000 0.000000 0.000000
# 3 0.001708 -0.010962 0.021796 0.000000 0.000000 0.000000
# 4 0.000000 0.000000 0.000000 0.024669 0.000000 0.000000
# 5 0.000000 0.000000 0.000000 0.000000 0.033844 0.000000
# 6 0.000000 0.000000 0.000000 0.000000 0.000000 0.049588
#
#
# Mechanical properties :
#
#
# Convention : Reuss Voigt Hill
#
# Bulk Modulus (GPa) = 33.59421 35.51919 34.55670
# Shear Modulus (GPa) = 22.29702 25.82256 24.05979
#
# Velocity S-wave (km/s) = 3.41337 3.67333 3.54574
# Velocity P-wave (km/s) = 5.75232 6.04578 5.90087
#
# Compressibility (1/GPa) = 0.02976703
#
# Stress axis : x y z
#
# Youngs Moduli (GPa) = 45.93799 40.93311 45.87991
#
# Poissons Ratio (x) = 0.40359 -0.07835
# Poissons Ratio (y) = 0.45294 0.50292
# Poissons Ratio (z) = -0.07845 0.44870
#
# Static dielectric constant tensor:
#      x y z
#    x 3.762580 0.000000 0.000000 
#    y 0.000000 3.455590 0.000000 
#    z 0.000000 0.000000 3.406630 
# 
# 
# High freq. dielectric constant tensor:
#      x y z
#    x 1.758720 0.000000 0.000000 
#    y 0.000000 1.743250 0.000000 
#    z 0.000000 0.000000 1.743060 
# 
# From -- ./inp_files/64274.got.cif
#   From: 2010.03.12/outbox.cif.g09.slc.cpg/sg74_33_cif.got.tgz:64274.got - 2010.04.16 15:46:19.
