data_PCOD8300665
_publ_section_title
;
Structure prediction by ZEFSAII (Michael W. Deem and Ramdas Pophale) SiO2 
 PCOD8300665
Probable space group: I M M A
;
_chemical_formula_sum "Si O2"
_cell_formula_units_Z 120
_cell_length_a 9.422090
_cell_length_b 26.685356
_cell_length_c 27.566558
_cell_angle_alpha 90.000000
_cell_angle_beta 90.000000
_cell_angle_gamma 90.000000
_cell_volume 6931.110012
_symmetry_space_group_name_H-M "I M M A"
_symmetry_group_IT_number 74
_symmetry_cell_setting 'orthorhombic'
loop_
_space_group_symop_operation_xyz
x,y,z
-x,1/2-y,z
x,-y,-z
-x,1/2+y,-z
-x,-y,-z
x,1/2+y,-z
-x,y,z
x,1/2-y,z
1/2+x,1/2+y,1/2+z
1/2-x,-y,1/2+z
1/2+x,1/2-y,1/2-z
1/2-x,y,1/2-z
1/2-x,1/2-y,1/2-z
1/2+x,y,1/2-z
1/2-x,1/2+y,1/2+z
1/2+x,-y,1/2+z
loop_
_atom_site_type_symbol
_atom_site_label
_atom_site_fract_x
_atom_site_fract_y
_atom_site_fract_z
Si Si1 0.164021 0.567566 0.702954
Si Si2 0.834193 0.151751 0.035464
Si Si3 0.338078 0.194175 0.949445
Si Si4 0.165039 0.046878 0.702868
Si Si5 0.664712 0.250000 0.200469
Si Si6 0.835394 0.097028 0.605329
Si Si7 0.334802 0.156391 0.133458
Si Si8 0.336208 0.947416 0.479495
O O1 0.250000 0.584995 0.750000
O O2 0.201876 0.510492 0.688457
O O3 0.203695 0.603332 0.658150
O O4 0.000000 0.573565 0.716625
O O5 0.760458 0.162768 0.086223
O O6 0.000000 0.164668 0.039454
O O7 0.765366 0.187257 0.994911
O O8 0.807911 0.094217 0.020490
O O9 0.500000 0.185844 0.967257
O O10 0.316510 0.250000 0.928407
O O11 0.302028 0.155337 0.906123
O O12 0.250000 0.064240 0.750000
O O13 0.213646 0.083615 0.659610
O O14 0.000000 0.052743 0.714708
O O15 0.500000 0.250000 0.214098
O O16 0.750000 0.250000 0.250000
O O17 0.705178 0.299105 0.169930
O O18 0.751995 0.061945 0.568645
O O19 0.000000 0.084043 0.598976
O O20 0.500000 0.158877 0.118556
O O21 0.500000 0.948880 0.464310
O O22 0.283078 0.000000 0.500000
#
# Coordination Sequence:
#
# PCOD8300665 Si02
#       8
#    16  16  16  16   8  16  16  16
#     4   9  18  32  49  69  94 125 161 203 247 292
#     4  10  21  34  49  74 102 130 166 205 245 292
#     4   9  18  34  55  74  97 130 165 205 251 297
#     4   9  18  32  50  75 103 130 164 203 244 293
#     4  10  22  38  54  72  94 126 166 212 261 304
#     4   9  18  32  51  76 100 128 169 208 244 293
#     4  10  21  35  51  71  97 128 164 207 255 302
#     4   9  19  34  49  70 103 136 165 200 246 298
#
# _framework density 17.313243
#
# number of rings (size 3 to 8) (size 9 to 14) (size 15 to 20)
#    0.000    2.667    0.000    0.800    2.800    2.667 
#    0.000    0.000    0.000    0.400    0.000    0.000 
#    0.000    0.000    0.000    0.000    0.000    0.000 
#
# Total GULP energy -744073.741998 kJ/mol
# GULP energy per Si atom -12401.229033 kJ/mol
# Density = 1.727384 g / cm^3
# Si number density = 17.313243 Si / 1000 Ang^3
#
#
#
# Elastic Constant Matrix: (Units=GPa)
#
#
# Indices 1 2 3 4 5 6 
#
# 1 65.3346 44.4153 65.0197 0.0000 0.0000 0.0000
# 2 44.4153 113.2428 72.9718 0.0000 0.0000 0.0000
# 3 65.0197 72.9718 141.7796 0.0000 0.0000 0.0000
# 4 0.0000 0.0000 0.0000 17.0752 0.0000 0.0000
# 5 0.0000 0.0000 0.0000 0.0000 32.3613 0.0000
# 6 0.0000 0.0000 0.0000 0.0000 0.0000 19.5155
#
#
#
# Elastic Compliance Matrix: (Units=1/GPa)
#
#
# Indices 1 2 3 4 5 6 
#
# 1 0.029470 -0.004264 -0.011320 0.000000 0.000000 0.000000
# 2 -0.004264 0.013830 -0.005162 0.000000 0.000000 0.000000
# 3 -0.011320 -0.005162 0.014902 0.000000 0.000000 0.000000
# 4 0.000000 0.000000 0.000000 0.058564 0.000000 0.000000
# 5 0.000000 0.000000 0.000000 0.000000 0.030901 0.000000
# 6 0.000000 0.000000 0.000000 0.000000 0.000000 0.051241
#
#
# Mechanical properties :
#
#
# Convention : Reuss Voigt Hill
#
# Bulk Modulus (GPa) = 59.85146 76.13008 67.99077
# Shear Modulus (GPa) = 20.32757 22.98710 21.65733
#
# Velocity S-wave (km/s) = 3.43024 3.64774 3.54066
# Velocity P-wave (km/s) = 7.09461 7.86187 7.48807
#
# Compressibility (1/GPa) = 0.01670803
#
# Stress axis : x y z
#
# Youngs Moduli (GPa) = 33.93237 72.30902 67.10637
#
# Poissons Ratio (x) = 0.30832 0.75967
# Poissons Ratio (y) = 0.14469 0.34643
# Poissons Ratio (z) = 0.38413 0.37329
#
# Static dielectric constant tensor:
#      x y z
#    x 3.236910 0.000000 0.000000 
#    y 0.000000 3.365680 0.000000 
#    z 0.000000 0.000000 3.101560 
# 
# 
# High freq. dielectric constant tensor:
#      x y z
#    x 1.669180 0.000000 0.000000 
#    y 0.000000 1.671180 0.000000 
#    z 0.000000 0.000000 1.656370 
# 
# From -- ./inp_files/65148.got.cif
#   From: 2010.03.12/outbox.cif.g09.slc.cpg/sg74_33_cif.got.tgz:65148.got - 2010.04.16 15:46:19.
