data_PCOD8300953
_publ_section_title
;
Structure prediction by ZEFSAII (Michael W. Deem and Ramdas Pophale) SiO2 
 PCOD8300953
Probable space group: I M M A
;
_chemical_formula_sum "Si O2"
_cell_formula_units_Z 80
_cell_length_a 9.646888
_cell_length_b 26.522973
_cell_length_c 16.928405
_cell_angle_alpha 90.000000
_cell_angle_beta 90.000000
_cell_angle_gamma 90.000000
_cell_volume 4331.371955
_symmetry_space_group_name_H-M "I M M A"
_symmetry_group_IT_number 74
_symmetry_cell_setting 'orthorhombic'
loop_
_space_group_symop_operation_xyz
x,y,z
-x,1/2-y,z
x,-y,-z
-x,1/2+y,-z
-x,-y,-z
x,1/2+y,-z
-x,y,z
x,1/2-y,z
1/2+x,1/2+y,1/2+z
1/2-x,-y,1/2+z
1/2+x,1/2-y,1/2-z
1/2-x,y,1/2-z
1/2-x,1/2-y,1/2-z
1/2+x,y,1/2-z
1/2-x,1/2+y,1/2+z
1/2+x,-y,1/2+z
loop_
_atom_site_type_symbol
_atom_site_label
_atom_site_fract_x
_atom_site_fract_y
_atom_site_fract_z
Si Si1 0.738712 0.149488 0.565951
Si Si2 0.500000 0.307346 0.666459
Si Si3 0.340016 0.443520 0.470669
Si Si4 0.158074 0.193997 0.413031
Si Si5 0.663559 0.094148 0.172595
Si Si6 0.500000 0.690767 0.146598
O O1 0.630402 0.166280 0.629905
O O2 0.710825 0.091653 0.542674
O O3 0.738272 0.182460 0.485405
O O4 0.877734 0.157756 0.612719
O O5 0.500000 0.250000 0.639901
O O6 0.500000 0.312571 0.759793
O O7 0.327745 0.500000 0.500000
O O8 0.500000 0.430522 0.447157
O O9 0.234651 0.436743 0.398023
O O10 0.189316 0.250000 0.380021
O O11 0.180479 0.154046 0.342904
O O12 0.000000 0.189837 0.444992
O O13 0.500000 0.079693 0.180551
O O14 0.750000 0.079853 0.250000
O O15 0.500000 0.750000 0.119645
#
# Coordination Sequence:
#
# PCOD8300953 Si02
#       6
#    16   8  16  16  16   8
#     4  11  20  36  57  84 113 155 197 242 292 357
#     4  11  22  34  53  84 119 157 202 243 292 350
#     4  10  22  42  66  86 113 151 196 253 306 347
#     4   9  17  31  54  81 111 152 193 229 275 335
#     4  10  21  37  60  88 120 153 190 236 287 349
#     4  11  22  36  55  80 123 167 194 239 298 352
#
# _framework density 18.469899000000002
#
# number of rings (size 3 to 8) (size 9 to 14) (size 15 to 20)
#    0.000    1.800    2.000    3.000    1.400    2.400 
#    0.000    2.000    0.000    0.000    0.000    0.000 
#    0.000    0.000    0.000    0.000    0.000    0.000 
#
# Total GULP energy -495796.057328 kJ/mol
# GULP energy per Si atom -12394.901433 kJ/mol
# Density = 1.842786 g / cm^3
# Si number density = 18.469899 Si / 1000 Ang^3
#
#
#
# Elastic Constant Matrix: (Units=GPa)
#
#
# Indices 1 2 3 4 5 6 
#
# 1 147.3193 53.5002 56.5424 0.0000 -0.0002 0.0000
# 2 53.5002 113.3877 44.5954 0.0000 -0.0001 0.0000
# 3 56.5424 44.5954 88.6725 -0.0006 -0.0014 0.0001
# 4 0.0000 0.0000 -0.0006 19.1327 -0.0004 0.0000
# 5 -0.0002 -0.0001 -0.0014 -0.0004 23.8212 0.0000
# 6 0.0000 0.0000 0.0001 0.0000 0.0000 23.9477
#
#
#
# Elastic Compliance Matrix: (Units=1/GPa)
#
#
# Indices 1 2 3 4 5 6 
#
# 1 0.009582 -0.002640 -0.004782 0.000000 0.000000 0.000000
# 2 -0.002640 0.011721 -0.004211 0.000000 0.000000 0.000000
# 3 -0.004782 -0.004211 0.016445 0.000000 0.000001 0.000000
# 4 0.000000 0.000000 0.000000 0.052267 0.000001 0.000000
# 5 0.000000 0.000000 0.000001 0.000001 0.041979 0.000000
# 6 0.000000 0.000000 0.000000 0.000000 0.000000 0.041758
#
#
# Mechanical properties :
#
#
# Convention : Reuss Voigt Hill
#
# Bulk Modulus (GPa) = 69.05781 73.18395 71.12088
# Shear Modulus (GPa) = 24.77119 26.36307 25.56713
#
# Velocity S-wave (km/s) = 3.66617 3.78213 3.72460
# Velocity P-wave (km/s) = 7.44255 7.66695 7.55558
#
# Compressibility (1/GPa) = 0.01448062
#
# Stress axis : x y z
#
# Youngs Moduli (GPa) = 104.35847 85.31379 60.80924
#
# Poissons Ratio (x) = 0.22526 0.29081
# Poissons Ratio (y) = 0.27555 0.25609
# Poissons Ratio (z) = 0.49907 0.35928
#
# Static dielectric constant tensor:
#      x y z
#    x 3.529680 0.000000 0.000000 
#    y 0.000000 3.361040 0.000000 
#    z 0.000000 0.000000 3.319940 
# 
# 
# High freq. dielectric constant tensor:
#      x y z
#    x 1.728160 0.000000 0.000000 
#    y 0.000000 1.706280 0.000000 
#    z 0.000000 0.000000 1.713480 
# 
# From -- ./inp_files/39803.got.cif
#   From: 2010.03.12/outbox.cif.g09.slc.cpg/sg74_20_cif.got.tgz:39803.got - 2010.04.16 15:46:19.
