data_PCOD8300772
_publ_section_title
;
Structure prediction by ZEFSAII (Michael W. Deem and Ramdas Pophale) SiO2 
 PCOD8300772
Probable space group: I M M A
;
_chemical_formula_sum "Si O2"
_cell_formula_units_Z 96
_cell_length_a 18.437503
_cell_length_b 9.128297
_cell_length_c 30.667551
_cell_angle_alpha 90.000000
_cell_angle_beta 90.000000
_cell_angle_gamma 90.000000
_cell_volume 5161.440938
_symmetry_space_group_name_H-M "I M M A"
_symmetry_group_IT_number 74
_symmetry_cell_setting 'orthorhombic'
loop_
_space_group_symop_operation_xyz
x,y,z
-x,1/2-y,z
x,-y,-z
-x,1/2+y,-z
-x,-y,-z
x,1/2+y,-z
-x,y,z
x,1/2-y,z
1/2+x,1/2+y,1/2+z
1/2-x,-y,1/2+z
1/2+x,1/2-y,1/2-z
1/2-x,y,1/2-z
1/2-x,1/2-y,1/2-z
1/2+x,y,1/2-z
1/2-x,1/2+y,1/2+z
1/2+x,-y,1/2+z
loop_
_atom_site_type_symbol
_atom_site_label
_atom_site_fract_x
_atom_site_fract_y
_atom_site_fract_z
Si Si1 0.916268 0.418612 0.291933
Si Si2 0.335533 0.080364 0.121222
Si Si3 0.583697 0.078369 0.955571
Si Si4 0.583160 0.922613 0.295532
Si Si5 0.665899 0.919814 0.628448
Si Si6 0.583230 0.421208 0.456985
O O1 0.900475 0.250000 0.280400
O O2 0.870312 0.470725 0.333337
O O3 0.891524 0.514740 0.250930
O O4 0.000000 0.444985 0.303434
O O5 0.353858 0.250000 0.111651
O O6 0.250612 0.052069 0.124354
O O7 0.367296 0.981833 0.083093
O O8 0.500000 0.043322 0.944875
O O9 0.597496 0.250000 0.961091
O O10 0.607894 0.000000 0.000000
O O11 0.500000 0.968777 0.305127
O O12 0.592463 0.750000 0.294496
O O13 0.634987 0.987537 0.331973
O O14 0.647392 0.750000 0.636727
O O15 0.628994 0.976523 0.584128
O O16 0.613691 0.500000 0.500000
O O17 0.500000 0.465030 0.448501
O O18 0.592978 0.250000 0.464473
#
# Coordination Sequence:
#
# PCOD8300772 Si02
#       6
#    16  16  16  16  16  16
#     4   9  18  34  56  78 102 137 177 217 264 318
#     4  10  21  36  55  81 111 142 178 220 267 321
#     4  10  21  37  58  82 108 142 183 226 271 318
#     4  10  21  36  55  79 105 136 178 226 269 311
#     4  10  21  36  54  78 109 143 176 213 264 324
#     4   9  18  33  53  75  99 131 171 213 256 304
#
# _framework density 18.599457999999998
#
# number of rings (size 3 to 8) (size 9 to 14) (size 15 to 20)
#    0.000    2.333    0.000    2.000    0.000    6.667 
#    0.000    8.333    0.000    0.000    0.000    0.000 
#    0.000    0.000    0.000    0.000    0.000    0.000 
#
# Total GULP energy -595421.713777 kJ/mol
# GULP energy per Si atom -12404.619037 kJ/mol
# Density = 1.855713 g / cm^3
# Si number density = 18.599458 Si / 1000 Ang^3
#
#
#
# Elastic Constant Matrix: (Units=GPa)
#
#
# Indices 1 2 3 4 5 6 
#
# 1 82.4062 45.7729 80.0446 0.0000 0.0000 0.0000
# 2 45.7729 79.0588 72.7208 0.0000 0.0000 0.0000
# 3 80.0446 72.7208 172.2588 0.0000 0.0000 0.0000
# 4 0.0000 0.0000 0.0000 38.6241 0.0000 0.0000
# 5 0.0000 0.0000 0.0000 0.0000 -5.8168 0.0000
# 6 0.0000 0.0000 0.0000 0.0000 0.0000 26.8758
#
#
#
# Elastic Compliance Matrix: (Units=1/GPa)
#
#
# Indices 1 2 3 4 5 6 
#
# 1 0.023673 -0.005865 -0.008524 0.000000 0.000000 0.000000
# 2 -0.005865 0.022132 -0.006618 0.000000 0.000000 0.000000
# 3 -0.008524 -0.006618 0.012560 0.000000 0.000000 0.000000
# 4 0.000000 0.000000 0.000000 0.025891 0.000000 0.000000
# 5 0.000000 0.000000 0.000000 0.000000 -0.171916 0.000000
# 6 0.000000 0.000000 0.000000 0.000000 0.000000 0.037208
#
#
# Mechanical properties :
#
#
# Convention : Reuss Voigt Hill
#
# Bulk Modulus (GPa) = 61.16055 81.20004 71.18030
# Shear Modulus (GPa) = -1672.83704 20.94899 -825.94403
#
# Velocity S-wave (km/s) = -30.02255 3.35971 -21.09580
# Velocity P-wave (km/s) = 34.18845 7.66826 23.55895
#
# Compressibility (1/GPa) = 0.01635041
#
# Stress axis : x y z
#
# Youngs Moduli (GPa) = 42.24294 45.18390 79.61815
#
# Poissons Ratio (x) = 0.26500 0.67867
# Poissons Ratio (y) = 0.24776 0.52690
# Poissons Ratio (z) = 0.36008 0.29902
#
# Static dielectric constant tensor:
#      x y z
#    x 3.384100 0.000000 0.000000 
#    y 0.000000 3.363300 0.000000 
#    z 0.000000 0.000000 3.533200 
# 
# 
# High freq. dielectric constant tensor:
#      x y z
#    x 1.717530 0.000000 0.000000 
#    y 0.000000 1.718140 0.000000 
#    z 0.000000 0.000000 1.734000 
# 
# From -- ./inp_files/68150.got.cif
#   From: 2010.03.12/outbox.cif.g09.slc.cpg/sg74_35_cif.got.tgz:68150.got - 2010.04.16 15:46:19.
