data_PCOD8300203
_publ_section_title
;
Structure prediction by ZEFSAII (Michael W. Deem and Ramdas Pophale) SiO2 
 PCOD8300203
Probable space group: I M M A
;
_chemical_formula_sum "Si O2"
_cell_formula_units_Z 96
_cell_length_a 18.486994
_cell_length_b 9.196606
_cell_length_c 30.131275
_cell_angle_alpha 90.000000
_cell_angle_beta 90.000000
_cell_angle_gamma 90.000000
_cell_volume 5122.847059
_symmetry_space_group_name_H-M "I M M A"
_symmetry_group_IT_number 74
_symmetry_cell_setting 'orthorhombic'
loop_
_space_group_symop_operation_xyz
x,y,z
-x,1/2-y,z
x,-y,-z
-x,1/2+y,-z
-x,-y,-z
x,1/2+y,-z
-x,y,z
x,1/2-y,z
1/2+x,1/2+y,1/2+z
1/2-x,-y,1/2+z
1/2+x,1/2-y,1/2-z
1/2-x,y,1/2-z
1/2-x,1/2-y,1/2-z
1/2+x,y,1/2-z
1/2-x,1/2+y,1/2+z
1/2+x,-y,1/2+z
loop_
_atom_site_type_symbol
_atom_site_label
_atom_site_fract_x
_atom_site_fract_y
_atom_site_fract_z
Si Si1 0.914686 0.087274 0.959322
Si Si2 0.083819 0.920179 0.454856
Si Si3 0.179626 0.916877 0.371082
Si Si4 0.415831 0.918896 0.286385
Si Si5 0.320710 0.577513 0.778270
Si Si6 0.154853 0.583970 0.126001
O O1 0.883051 0.250000 0.961748
O O2 0.889451 0.009490 0.913978
O O3 0.000000 0.087398 0.961847
O O4 0.880397 0.000000 0.000000
O O5 0.096534 0.750000 0.462561
O O6 0.129271 0.973239 0.411664
O O7 0.000000 0.956541 0.445177
O O8 0.109787 0.000000 0.500000
O O9 0.159616 0.750000 0.358854
O O10 0.261864 0.929559 0.386755
O O11 0.174692 0.016946 0.327951
O O12 0.500000 0.942272 0.296308
O O13 0.398028 0.750000 0.276749
O O14 0.368766 0.985586 0.327232
O O15 0.392513 0.014045 0.244438
O O16 0.323845 0.750000 0.780534
O O17 0.250000 0.525495 0.750000
O O18 0.128776 0.750000 0.130021
#
# Coordination Sequence:
#
# PCOD8300203 Si02
#       6
#    16  16  16  16  16  16
#     4   9  17  30  47  68  97 131 167 209 257 310
#     4   9  19  36  57  82 112 145 183 229 281 336
#     4  10  20  35  58  82 106 142 187 229 273 328
#     4  10  20  35  58  83 104 137 186 231 272 325
#     4  11  23  38  55  79 114 151 184 225 284 341
#     4   9  17  31  52  76 101 133 174 220 267 316
#
# _framework density 18.73958
#
# number of rings (size 3 to 8) (size 9 to 14) (size 15 to 20)
#    0.000    2.333    1.667    1.000    0.000    5.000 
#    0.000    3.333    0.000    2.000    0.000    0.000 
#    0.000    0.000    0.000    0.000    0.000    0.000 
#
# Total GULP energy -594996.017784 kJ/mol
# GULP energy per Si atom -12395.750371 kJ/mol
# Density = 1.869693 g / cm^3
# Si number density = 18.739580 Si / 1000 Ang^3
#
#
#
# Elastic Constant Matrix: (Units=GPa)
#
#
# Indices 1 2 3 4 5 6 
#
# 1 64.4891 29.5314 45.9546 0.0000 0.0000 0.0000
# 2 29.5314 57.7733 55.9305 0.0000 0.0000 0.0000
# 3 45.9546 55.9305 158.0815 0.0000 0.0000 0.0000
# 4 0.0000 0.0000 0.0000 33.3376 0.0000 0.0000
# 5 0.0000 0.0000 0.0000 0.0000 40.2989 0.0000
# 6 0.0000 0.0000 0.0000 0.0000 0.0000 16.7881
#
#
#
# Elastic Compliance Matrix: (Units=1/GPa)
#
#
# Indices 1 2 3 4 5 6 
#
# 1 0.021509 -0.007515 -0.003594 0.000000 0.000000 0.000000
# 2 -0.007515 0.028952 -0.008059 0.000000 0.000000 0.000000
# 3 -0.003594 -0.008059 0.010222 0.000000 0.000000 0.000000
# 4 0.000000 0.000000 0.000000 0.029996 0.000000 0.000000
# 5 0.000000 0.000000 0.000000 0.000000 0.024815 0.000000
# 6 0.000000 0.000000 0.000000 0.000000 0.000000 0.059566
#
#
# Mechanical properties :
#
#
# Convention : Reuss Voigt Hill
#
# Bulk Modulus (GPa) = 44.74834 60.35302 52.55068
# Shear Modulus (GPa) = 22.64033 28.01341 25.32687
#
# Velocity S-wave (km/s) = 3.47962 3.87056 3.68029
# Velocity P-wave (km/s) = 6.33045 7.22849 6.79432
#
# Compressibility (1/GPa) = 0.02234720
#
# Stress axis : x y z
#
# Youngs Moduli (GPa) = 46.49249 34.53945 97.83004
#
# Poissons Ratio (x) = 0.25958 0.35157
# Poissons Ratio (y) = 0.34941 0.78840
# Poissons Ratio (z) = 0.16708 0.27835
#
# Static dielectric constant tensor:
#      x y z
#    x 3.370660 0.000000 0.000000 
#    y 0.000000 3.277480 0.000000 
#    z 0.000000 0.000000 3.663910 
# 
# 
# High freq. dielectric constant tensor:
#      x y z
#    x 1.723220 0.000000 0.000000 
#    y 0.000000 1.697770 0.000000 
#    z 0.000000 0.000000 1.741680 
# 
# From -- ./inp_files/68163.got.cif
#   From: 2010.03.12/outbox.cif.g09.slc.cpg/sg74_35_cif.got.tgz:68163.got - 2010.04.16 15:46:19.
