data_PCOD8300469
_publ_section_title
;
Structure prediction by ZEFSAII (Michael W. Deem and Ramdas Pophale) SiO2 
 PCOD8300469
Probable space group: I M M A
;
_chemical_formula_sum "Si O2"
_cell_formula_units_Z 104
_cell_length_a 20.573233
_cell_length_b 8.929448
_cell_length_c 29.563547
_cell_angle_alpha 90.000000
_cell_angle_beta 90.000000
_cell_angle_gamma 90.000000
_cell_volume 5431.048689
_symmetry_space_group_name_H-M "I M M A"
_symmetry_group_IT_number 74
_symmetry_cell_setting 'orthorhombic'
loop_
_space_group_symop_operation_xyz
x,y,z
-x,1/2-y,z
x,-y,-z
-x,1/2+y,-z
-x,-y,-z
x,1/2+y,-z
-x,y,z
x,1/2-y,z
1/2+x,1/2+y,1/2+z
1/2-x,-y,1/2+z
1/2+x,1/2-y,1/2-z
1/2-x,y,1/2-z
1/2-x,1/2-y,1/2-z
1/2+x,y,1/2-z
1/2-x,1/2+y,1/2+z
1/2+x,-y,1/2+z
loop_
_atom_site_type_symbol
_atom_site_label
_atom_site_fract_x
_atom_site_fract_y
_atom_site_fract_z
Si Si1 0.686583 0.575479 0.775859
Si Si2 0.423507 0.417813 0.456101
Si Si3 0.140902 0.426525 0.549211
Si Si4 0.426734 0.425237 0.723383
Si Si5 0.000000 0.422517 0.547155
Si Si6 0.865132 0.925575 0.128103
Si Si7 0.727033 0.075339 0.124314
O O1 0.682718 0.750000 0.764985
O O2 0.750000 0.508131 0.750000
O O3 0.620535 0.501543 0.759154
O O4 0.689988 0.541531 0.829047
O O5 0.393199 0.500000 0.500000
O O6 0.500000 0.404946 0.461507
O O7 0.393600 0.250000 0.451625
O O8 0.408165 0.520211 0.413420
O O9 0.149486 0.500000 0.500000
O O10 0.151883 0.250000 0.543985
O O11 0.193664 0.490399 0.583163
O O12 0.068854 0.463617 0.571040
O O13 0.500000 0.485218 0.730897
O O14 0.423331 0.250000 0.732197
O O15 0.405622 0.464647 0.672698
O O16 0.000000 0.500000 0.500000
O O17 0.000000 0.250000 0.535739
O O18 0.850098 0.750000 0.123833
O O19 0.799517 0.018213 0.129703
O O20 0.727805 0.250000 0.113105
#
# Coordination Sequence:
#
# PCOD8300469 Si02
#       7
#    16  16  16  16   8  16  16
#     4  10  21  40  63  86 117 156 197 242 292 347
#     4  10  21  37  57  82 114 152 192 236 287 339
#     4  10  20  37  60  87 118 152 192 237 290 346
#     4  10  22  39  61  90 120 151 192 242 293 348
#     4   8  16  32  56  82 110 146 186 230 280 340
#     4  11  22  37  59  85 115 151 193 239 289 345
#     4  11  23  39  59  85 117 152 194 239 287 344
#
# _framework density 19.149156999999999
#
# number of rings (size 3 to 8) (size 9 to 14) (size 15 to 20)
#    0.000    1.846    1.538    2.308    0.000    5.231 
#    1.385    3.077    0.000    0.000    0.000    0.000 
#    0.000    0.000    0.000    0.000    0.000    0.000 
#
# Total GULP energy -644703.086775 kJ/mol
# GULP energy per Si atom -12398.136284 kJ/mol
# Density = 1.910557 g / cm^3
# Si number density = 19.149157 Si / 1000 Ang^3
#
#
#
# Elastic Constant Matrix: (Units=GPa)
#
#
# Indices 1 2 3 4 5 6 
#
# 1 120.0572 35.0892 52.0500 0.0000 0.0000 0.0000
# 2 35.0892 59.9407 53.7158 0.0000 0.0000 0.0000
# 3 52.0500 53.7158 99.9079 0.0000 0.0000 0.0000
# 4 0.0000 0.0000 0.0000 27.6811 0.0000 0.0000
# 5 0.0000 0.0000 0.0000 0.0000 30.3633 0.0000
# 6 0.0000 0.0000 0.0000 0.0000 0.0000 32.1015
#
#
#
# Elastic Compliance Matrix: (Units=1/GPa)
#
#
# Indices 1 2 3 4 5 6 
#
# 1 0.010951 -0.002505 -0.004359 0.000000 0.000000 0.000000
# 2 -0.002505 0.032768 -0.016313 0.000000 0.000000 0.000000
# 3 -0.004359 -0.016313 0.021051 0.000000 0.000000 0.000000
# 4 0.000000 0.000000 0.000000 0.036126 0.000000 0.000000
# 5 0.000000 0.000000 0.000000 0.000000 0.032934 0.000000
# 6 0.000000 0.000000 0.000000 0.000000 0.000000 0.031151
#
#
# Mechanical properties :
#
#
# Convention : Reuss Voigt Hill
#
# Bulk Modulus (GPa) = 54.29685 62.40177 58.34931
# Shear Modulus (GPa) = 22.99130 27.29924 25.14527
#
# Velocity S-wave (km/s) = 3.46879 3.77982 3.62764
# Velocity P-wave (km/s) = 6.66780 7.19078 6.93422
#
# Compressibility (1/GPa) = 0.01841728
#
# Stress axis : x y z
#
# Youngs Moduli (GPa) = 91.31524 30.51721 47.50436
#
# Poissons Ratio (x) = 0.07644 0.20705
# Poissons Ratio (y) = 0.22873 0.77494
# Poissons Ratio (z) = 0.39800 0.49783
#
# Static dielectric constant tensor:
#      x y z
#    x 3.750930 0.000000 0.000000 
#    y 0.000000 3.708360 0.000000 
#    z 0.000000 0.000000 3.539990 
# 
# 
# High freq. dielectric constant tensor:
#      x y z
#    x 1.751060 0.000000 0.000000 
#    y 0.000000 1.753120 0.000000 
#    z 0.000000 0.000000 1.740410 
# 
# From -- ./inp_files/68238.got.cif
#   From: 2010.03.12/outbox.cif.g09.slc.cpg/sg74_35_cif.got.tgz:68238.got - 2010.04.16 15:46:19.
