data_PCOD8300284
_publ_section_title
;
Structure prediction by ZEFSAII (Michael W. Deem and Ramdas Pophale) SiO2 
 PCOD8300284
Probable space group: I M M A
;
_chemical_formula_sum "Si O2"
_cell_formula_units_Z 72
_cell_length_a 19.956589
_cell_length_b 9.185424
_cell_length_c 20.941222
_cell_angle_alpha 90.000000
_cell_angle_beta 90.000000
_cell_angle_gamma 90.000000
_cell_volume 3838.729783
_symmetry_space_group_name_H-M "I M M A"
_symmetry_group_IT_number 74
_symmetry_cell_setting 'orthorhombic'
loop_
_space_group_symop_operation_xyz
x,y,z
-x,1/2-y,z
x,-y,-z
-x,1/2+y,-z
-x,-y,-z
x,1/2+y,-z
-x,y,z
x,1/2-y,z
1/2+x,1/2+y,1/2+z
1/2-x,-y,1/2+z
1/2+x,1/2-y,1/2-z
1/2-x,y,1/2-z
1/2-x,1/2-y,1/2-z
1/2+x,y,1/2-z
1/2-x,1/2+y,1/2+z
1/2+x,-y,1/2+z
loop_
_atom_site_type_symbol
_atom_site_label
_atom_site_fract_x
_atom_site_fract_y
_atom_site_fract_z
Si Si1 0.000000 0.585862 0.436427
Si Si2 0.889204 0.093327 0.385591
Si Si3 0.301976 0.422238 0.692962
Si Si4 0.243681 0.918328 0.934539
Si Si5 0.578329 0.587533 0.744471
O O1 0.000000 0.500000 0.500000
O O2 0.934499 0.546192 0.397314
O O3 0.000000 0.750000 0.454522
O O4 0.922277 0.250000 0.404842
O O5 0.823115 0.074826 0.426927
O O6 0.879717 0.093847 0.310014
O O7 0.299953 0.250000 0.682914
O O8 0.250000 0.466678 0.750000
O O9 0.284952 0.500090 0.626818
O O10 0.379053 0.471172 0.704447
O O11 0.218907 0.750000 0.936878
O O12 0.222475 0.000000 0.000000
O O13 0.500000 0.538675 0.752222
O O14 0.580334 0.750000 0.713711
#
# Coordination Sequence:
#
# PCOD8300284 Si02
#       5
#     8  16  16  16  16
#     4  12  24  34  48  70 106 154 199 240 285 344
#     4  10  20  36  56  80 112 152 195 239 288 347
#     4  11  23  38  60  90 123 157 201 250 298 355
#     4  11  23  39  61  86 118 156 198 247 300 355
#     4  10  20  37  61  87 118 156 199 244 296 354
#
# _framework density 18.756205000000001
#
# number of rings (size 3 to 8) (size 9 to 14) (size 15 to 20)
#    0.000    1.333    3.333    3.000    0.000    5.778 
#    0.000    0.000    0.000    0.667    0.000    0.000 
#    0.000    0.000    0.000    0.000    0.000    0.000 
#
# Total GULP energy -445999.208797 kJ/mol
# GULP energy per Si atom -12388.866911 kJ/mol
# Density = 1.871352 g / cm^3
# Si number density = 18.756205 Si / 1000 Ang^3
#
#
#
# Elastic Constant Matrix: (Units=GPa)
#
#
# Indices 1 2 3 4 5 6 
#
# 1 65.2688 43.0919 34.1601 0.0000 0.0000 0.0000
# 2 43.0919 141.2875 64.5390 0.0000 0.0000 0.0000
# 3 34.1601 64.5390 118.3324 0.0000 0.0000 0.0000
# 4 0.0000 0.0000 0.0000 34.1287 0.0000 0.0000
# 5 0.0000 0.0000 0.0000 0.0000 25.6010 0.0000
# 6 0.0000 0.0000 0.0000 0.0000 0.0000 25.8810
#
#
#
# Elastic Compliance Matrix: (Units=1/GPa)
#
#
# Indices 1 2 3 4 5 6 
#
# 1 0.020093 -0.004633 -0.003274 0.000000 0.000000 0.000000
# 2 -0.004633 0.010494 -0.004386 0.000000 0.000000 0.000000
# 3 -0.003274 -0.004386 0.011788 0.000000 0.000000 0.000000
# 4 0.000000 0.000000 0.000000 0.029301 0.000000 0.000000
# 5 0.000000 0.000000 0.000000 0.000000 0.039061 0.000000
# 6 0.000000 0.000000 0.000000 0.000000 0.000000 0.038638
#
#
# Mechanical properties :
#
#
# Convention : Reuss Voigt Hill
#
# Bulk Modulus (GPa) = 56.21116 67.60786 61.90951
# Shear Modulus (GPa) = 27.79445 29.32866 28.56155
#
# Velocity S-wave (km/s) = 3.85370 3.95863 3.90651
# Velocity P-wave (km/s) = 7.05944 7.55104 7.30937
#
# Compressibility (1/GPa) = 0.01779006
#
# Stress axis : x y z
#
# Youngs Moduli (GPa) = 49.76748 95.28884 84.83132
#
# Poissons Ratio (x) = 0.44147 0.27771
# Poissons Ratio (y) = 0.23057 0.37209
# Poissons Ratio (z) = 0.16292 0.41796
#
# Static dielectric constant tensor:
#      x y z
#    x 3.295050 0.000000 0.000000 
#    y 0.000000 3.380550 0.000000 
#    z 0.000000 0.000000 3.453450 
# 
# 
# High freq. dielectric constant tensor:
#      x y z
#    x 1.709270 0.000000 0.000000 
#    y 0.000000 1.739610 0.000000 
#    z 0.000000 0.000000 1.717190 
# 
# From -- ./inp_files/48350.got.cif
#   From: 2010.03.12/outbox.cif.g09.slc.cpg/sg74_25_cif.got.tgz:48350.got - 2010.04.16 15:46:19.
