data_PCOD8300187
_publ_section_title
;
Structure prediction by ZEFSAII (Michael W. Deem and Ramdas Pophale) SiO2 
 PCOD8300187
Probable space group: I M M A
;
_chemical_formula_sum "Si O2"
_cell_formula_units_Z 96
_cell_length_a 18.276218
_cell_length_b 17.170952
_cell_length_c 15.445690
_cell_angle_alpha 90.000000
_cell_angle_beta 90.000000
_cell_angle_gamma 90.000000
_cell_volume 4847.167394
_symmetry_space_group_name_H-M "I M M A"
_symmetry_group_IT_number 74
_symmetry_cell_setting 'orthorhombic'
loop_
_space_group_symop_operation_xyz
x,y,z
-x,1/2-y,z
x,-y,-z
-x,1/2+y,-z
-x,-y,-z
x,1/2+y,-z
-x,y,z
x,1/2-y,z
1/2+x,1/2+y,1/2+z
1/2-x,-y,1/2+z
1/2+x,1/2-y,1/2-z
1/2-x,y,1/2-z
1/2-x,1/2-y,1/2-z
1/2+x,y,1/2-z
1/2-x,1/2+y,1/2+z
1/2+x,-y,1/2+z
loop_
_atom_site_type_symbol
_atom_site_label
_atom_site_fract_x
_atom_site_fract_y
_atom_site_fract_z
Si Si1 0.413114 0.941387 0.837486
Si Si2 0.417347 0.337514 0.001688
Si Si3 0.913102 0.837132 0.822348
Si Si4 0.086550 0.589431 0.000944
Si Si5 0.822668 0.340225 0.845986
Si Si6 0.163112 0.606419 0.338196
O O1 0.500000 0.958084 0.833405
O O2 0.390453 0.895115 0.923498
O O3 0.385881 0.891772 0.755293
O O4 0.367472 0.019726 0.839277
O O5 0.500000 0.358684 0.975872
O O6 0.411688 0.250000 0.038480
O O7 0.369435 0.344247 0.916396
O O8 0.881478 0.750000 0.810136
O O9 0.000000 0.834730 0.822285
O O10 0.884262 0.871583 0.912850
O O11 0.120547 0.634415 0.081440
O O12 0.000000 0.597275 0.010165
O O13 0.111362 0.500000 0.000000
O O14 0.801396 0.250000 0.857618
O O15 0.859651 0.352954 0.752086
O O16 0.750500 0.393679 0.850985
#
# Coordination Sequence:
#
# PCOD8300187 Si02
#       6
#    16  16  16  16  16  16
#     4  10  20  35  57  85 115 147 186 230 275 328
#     4  10  20  35  57  85 115 147 185 229 276 328
#     4   9  17  32  55  83 116 150 182 223 278 335
#     4  10  21  37  59  89 118 144 181 228 278 334
#     4  11  24  41  59  80 110 149 190 231 278 332
#     4  11  22  38  56  78 110 149 190 234 281 327
#
# _framework density 19.805382000000002
#
# number of rings (size 3 to 8) (size 9 to 14) (size 15 to 20)
#    0.000    1.833    0.000    5.000    0.000    8.333 
#    0.000    0.000    0.000    0.000    0.000    9.333 
#    0.000    0.000    0.000    0.000    0.000    0.000 
#
# Total GULP energy -595323.109883 kJ/mol
# GULP energy per Si atom -12402.564789 kJ/mol
# Density = 1.976030 g / cm^3
# Si number density = 19.805382 Si / 1000 Ang^3
#
#
#
# Elastic Constant Matrix: (Units=GPa)
#
#
# Indices 1 2 3 4 5 6 
#
# 1 46.5142 41.1701 44.8209 0.0000 0.0000 0.0000
# 2 41.1701 145.2074 50.9967 0.0000 0.0000 0.0000
# 3 44.8209 50.9967 148.7744 0.0000 0.0000 0.0000
# 4 0.0000 0.0000 0.0000 42.2177 0.0000 0.0000
# 5 0.0000 0.0000 0.0000 0.0000 20.5154 0.0000
# 6 0.0000 0.0000 0.0000 0.0000 0.0000 12.9856
#
#
#
# Elastic Compliance Matrix: (Units=1/GPa)
#
#
# Indices 1 2 3 4 5 6 
#
# 1 0.035975 -0.007269 -0.008347 0.000000 0.000000 0.000000
# 2 -0.007269 0.009298 -0.000997 0.000000 0.000000 0.000000
# 3 -0.008347 -0.000997 0.009578 0.000000 0.000000 0.000000
# 4 0.000000 0.000000 0.000000 0.023687 0.000000 0.000000
# 5 0.000000 0.000000 0.000000 0.000000 0.048744 0.000000
# 6 0.000000 0.000000 0.000000 0.000000 0.000000 0.077008
#
#
# Mechanical properties :
#
#
# Convention : Reuss Voigt Hill
#
# Bulk Modulus (GPa) = 46.24082 68.27460 57.25771
# Shear Modulus (GPa) = 20.43124 28.71096 24.57110
#
# Velocity S-wave (km/s) = 3.21534 3.81156 3.52608
# Velocity P-wave (km/s) = 6.09777 7.34291 6.74911
#
# Compressibility (1/GPa) = 0.02162591
#
# Stress axis : x y z
#
# Youngs Moduli (GPa) = 27.79704 107.55265 104.40585
#
# Poissons Ratio (x) = 0.78175 0.87144
# Poissons Ratio (y) = 0.20204 0.10412
# Poissons Ratio (z) = 0.23201 0.10726
#
# Static dielectric constant tensor:
#      x y z
#    x 3.292000 0.000000 0.000000 
#    y 0.000000 3.729210 0.000000 
#    z 0.000000 0.000000 3.844220 
# 
# 
# High freq. dielectric constant tensor:
#      x y z
#    x 1.739330 0.000000 0.000000 
#    y 0.000000 1.787760 0.000000 
#    z 0.000000 0.000000 1.790880 
# 
# From -- ./inp_files/35264.got.cif
#   From: 2010.03.12/outbox.cif.g09.slc.cpg/sg74_18_cif.got.tgz:35264.got - 2010.04.16 15:46:19.
