data_PCOD8300214
_publ_section_title
;
Structure prediction by ZEFSAII (Michael W. Deem and Ramdas Pophale) SiO2 
 PCOD8300214
Probable space group: I M M A
;
_chemical_formula_sum "Si O2"
_cell_formula_units_Z 96
_cell_length_a 17.818518
_cell_length_b 23.022290
_cell_length_c 11.483931
_cell_angle_alpha 90.000000
_cell_angle_beta 90.000000
_cell_angle_gamma 90.000000
_cell_volume 4710.973646
_symmetry_space_group_name_H-M "I M M A"
_symmetry_group_IT_number 74
_symmetry_cell_setting 'orthorhombic'
loop_
_space_group_symop_operation_xyz
x,y,z
-x,1/2-y,z
x,-y,-z
-x,1/2+y,-z
-x,-y,-z
x,1/2+y,-z
-x,y,z
x,1/2-y,z
1/2+x,1/2+y,1/2+z
1/2-x,-y,1/2+z
1/2+x,1/2-y,1/2-z
1/2-x,y,1/2-z
1/2-x,1/2-y,1/2-z
1/2+x,y,1/2-z
1/2-x,1/2+y,1/2+z
1/2+x,-y,1/2+z
loop_
_atom_site_type_symbol
_atom_site_label
_atom_site_fract_x
_atom_site_fract_y
_atom_site_fract_z
Si Si1 0.586768 0.183261 0.118706
Si Si2 0.083502 0.316696 0.781617
Si Si3 0.170547 0.622528 0.413238
Si Si4 0.342757 0.397353 0.555297
Si Si5 0.586190 0.406540 0.311129
Si Si6 0.164064 0.515364 0.257502
O O1 0.500000 0.183034 0.081613
O O2 0.617025 0.250000 0.118822
O O3 0.597366 0.155147 0.246351
O O4 0.630417 0.141004 0.031474
O O5 0.089753 0.250000 0.810187
O O6 0.145649 0.332850 0.686458
O O7 0.099391 0.348165 0.903564
O O8 0.000000 0.333073 0.736197
O O9 0.259051 0.627140 0.431212
O O10 0.149807 0.557511 0.368810
O O11 0.359643 0.411187 0.421901
O O12 0.356232 0.453364 0.635959
O O13 0.500000 0.414913 0.347958
O O14 0.611056 0.459386 0.226386
O O15 0.250000 0.494900 0.250000
#
# Coordination Sequence:
#
# PCOD8300214 Si02
#       6
#    16  16  16  16  16  16
#     4  10  23  42  61  85 121 164 207 252 301 353
#     4  10  20  35  58  86 119 158 199 251 307 354
#     4  10  21  38  61  90 117 155 202 247 309 356
#     4  10  22  38  58  89 120 157 198 246 306 363
#     4  11  24  40  61  87 119 163 204 245 297 364
#     4   9  21  39  61  88 120 152 190 249 308 361
#
# _framework density 20.377953999999999
#
# number of rings (size 3 to 8) (size 9 to 14) (size 15 to 20)
#    0.000    2.000    0.000    3.500    2.333    9.333 
#    0.000    4.167    0.000    0.000    0.000    0.000 
#    0.000    0.000    0.000    0.000    0.000    0.000 
#
# Total GULP energy -595177.749319 kJ/mol
# GULP energy per Si atom -12399.536444 kJ/mol
# Density = 2.033157 g / cm^3
# Si number density = 20.377954 Si / 1000 Ang^3
#
#
#
# Elastic Constant Matrix: (Units=GPa)
#
#
# Indices 1 2 3 4 5 6 
#
# 1 79.4462 62.0067 34.1944 0.0000 0.0000 0.0000
# 2 62.0067 107.6937 43.7909 0.0000 0.0000 0.0000
# 3 34.1944 43.7909 85.3511 0.0000 0.0000 0.0000
# 4 0.0000 0.0000 0.0000 21.2806 0.0000 0.0000
# 5 0.0000 0.0000 0.0000 0.0000 29.0087 0.0000
# 6 0.0000 0.0000 0.0000 0.0000 0.0000 30.9583
#
#
#
# Elastic Compliance Matrix: (Units=1/GPa)
#
#
# Indices 1 2 3 4 5 6 
#
# 1 0.023501 -0.012261 -0.003125 0.000000 0.000000 0.000000
# 2 -0.012261 0.018130 -0.004390 0.000000 0.000000 0.000000
# 3 -0.003125 -0.004390 0.015221 0.000000 0.000000 0.000000
# 4 0.000000 0.000000 0.000000 0.046991 0.000000 0.000000
# 5 0.000000 0.000000 0.000000 0.000000 0.034472 0.000000
# 6 0.000000 0.000000 0.000000 0.000000 0.000000 0.032301
#
#
# Mechanical properties :
#
#
# Convention : Reuss Voigt Hill
#
# Bulk Modulus (GPa) = 57.80001 61.38612 59.59306
# Shear Modulus (GPa) = 23.15514 25.08280 24.11897
#
# Velocity S-wave (km/s) = 3.37454 3.51220 3.44405
# Velocity P-wave (km/s) = 6.60370 6.82909 6.71734
#
# Compressibility (1/GPa) = 0.01730104
#
# Stress axis : x y z
#
# Youngs Moduli (GPa) = 42.55064 55.15731 65.70083
#
# Poissons Ratio (x) = 0.67627 0.20530
# Poissons Ratio (y) = 0.52170 0.28842
# Poissons Ratio (z) = 0.13296 0.24213
#
# Static dielectric constant tensor:
#      x y z
#    x 3.775500 0.000000 0.000000 
#    y 0.000000 3.726400 0.000000 
#    z 0.000000 0.000000 3.571500 
# 
# 
# High freq. dielectric constant tensor:
#      x y z
#    x 1.798730 0.000000 0.000000 
#    y 0.000000 1.798670 0.000000 
#    z 0.000000 0.000000 1.789250 
# 
# From -- ./inp_files/22493.got.cif
#   From: 2010.03.12/outbox.cif.g09.slc.cpg/sg74_12_cif.got.tgz:22493.got - 2010.04.16 15:46:19.
