data_PCOD8300496
_publ_section_title
;
Structure prediction by ZEFSAII (Michael W. Deem and Ramdas Pophale) SiO2 
 PCOD8300496
Probable space group: I M M A
;
_chemical_formula_sum "Si O2"
_cell_formula_units_Z 64
_cell_length_a 15.401104
_cell_length_b 8.768872
_cell_length_c 23.566604
_cell_angle_alpha 90.000000
_cell_angle_beta 90.000000
_cell_angle_gamma 90.000000
_cell_volume 3182.677167
_symmetry_space_group_name_H-M "I M M A"
_symmetry_group_IT_number 74
_symmetry_cell_setting 'orthorhombic'
loop_
_space_group_symop_operation_xyz
x,y,z
-x,1/2-y,z
x,-y,-z
-x,1/2+y,-z
-x,-y,-z
x,1/2+y,-z
-x,y,z
x,1/2-y,z
1/2+x,1/2+y,1/2+z
1/2-x,-y,1/2+z
1/2+x,1/2-y,1/2-z
1/2-x,y,1/2-z
1/2-x,1/2-y,1/2-z
1/2+x,y,1/2-z
1/2-x,1/2+y,1/2+z
1/2+x,-y,1/2+z
loop_
_atom_site_type_symbol
_atom_site_label
_atom_site_fract_x
_atom_site_fract_y
_atom_site_fract_z
Si Si1 0.844128 0.427220 0.129354
Si Si2 0.000000 0.570587 0.061708
Si Si3 0.000000 0.569928 0.438328
Si Si4 0.664947 0.570994 0.133344
Si Si5 0.399155 0.925355 0.755657
O O1 0.856601 0.250000 0.115183
O O2 0.914669 0.520501 0.094913
O O3 0.749162 0.482628 0.110475
O O4 0.854163 0.459610 0.195967
O O5 0.000000 0.750000 0.055772
O O6 0.000000 0.500000 0.000000
O O7 0.000000 0.500000 0.500000
O O8 0.915439 0.513035 0.404489
O O9 0.000000 0.750000 0.443247
O O10 0.680695 0.750000 0.127169
O O11 0.646130 0.533082 0.198721
O O12 0.500000 0.966161 0.750425
O O13 0.385161 0.750000 0.773748
#
# Coordination Sequence:
#
# PCOD8300496 Si02
#       5
#    16   8   8  16  16
#     4  11  23  42  65  94 128 165 206 254 307 373
#     4  12  26  45  68  93 123 164 210 260 311 368
#     4  10  24  43  62  85 119 158 206 258 307 360
#     4  11  23  40  61  93 128 162 205 259 313 371
#     4  10  20  37  62  91 125 165 205 249 309 375
#
# _framework density 20.108857
#
# number of rings (size 3 to 8) (size 9 to 14) (size 15 to 20)
#    0.000    1.250    2.500    3.375    0.000    8.000 
#    0.000    2.500    0.000    0.000    0.000    0.000 
#    0.000    0.000    0.000    0.000    0.000    0.000 
#
# Total GULP energy -397016.412420 kJ/mol
# GULP energy per Si atom -12406.762888 kJ/mol
# Density = 2.006309 g / cm^3
# Si number density = 20.108857 Si / 1000 Ang^3
#
#
#
# Elastic Constant Matrix: (Units=GPa)
#
#
# Indices 1 2 3 4 5 6 
#
# 1 165.1239 52.2403 57.9342 0.0000 0.0000 0.0000
# 2 52.2403 98.0715 56.3126 0.0000 0.0000 0.0000
# 3 57.9342 56.3126 106.9906 0.0000 0.0000 0.0000
# 4 0.0000 0.0000 0.0000 37.8978 0.0000 0.0000
# 5 0.0000 0.0000 0.0000 0.0000 -11.3583 0.0000
# 6 0.0000 0.0000 0.0000 0.0000 0.0000 38.2725
#
#
#
# Elastic Compliance Matrix: (Units=1/GPa)
#
#
# Indices 1 2 3 4 5 6 
#
# 1 0.007884 -0.002505 -0.002950 0.000000 0.000000 0.000000
# 2 -0.002505 0.015409 -0.006754 0.000000 0.000000 0.000000
# 3 -0.002950 -0.006754 0.014499 0.000000 0.000000 0.000000
# 4 0.000000 0.000000 0.000000 0.026387 0.000000 0.000000
# 5 0.000000 0.000000 0.000000 0.000000 -0.088041 0.000000
# 6 0.000000 0.000000 0.000000 0.000000 0.000000 0.026128
#
#
# Mechanical properties :
#
#
# Convention : Reuss Voigt Hill
#
# Bulk Modulus (GPa) = 74.77754 78.12891 76.45323
# Shear Modulus (GPa) = 160.55139 26.54231 93.54685
#
# Velocity S-wave (km/s) = 8.94508 3.63703 6.82797
# Velocity P-wave (km/s) = 11.99804 7.52161 10.01318
#
# Compressibility (1/GPa) = 0.01337300
#
# Stress axis : x y z
#
# Youngs Moduli (GPa) = 126.84185 64.89626 68.97097
#
# Poissons Ratio (x) = 0.16260 0.20348
# Poissons Ratio (y) = 0.31780 0.46581
# Poissons Ratio (z) = 0.37422 0.43829
#
# Static dielectric constant tensor:
#      x y z
#    x 3.938770 0.000000 0.000000 
#    y 0.000000 3.627680 0.000000 
#    z 0.000000 0.000000 2.867700 
# 
# 
# High freq. dielectric constant tensor:
#      x y z
#    x 1.806250 0.000000 0.000000 
#    y 0.000000 1.786660 0.000000 
#    z 0.000000 0.000000 1.780910 
# 
# From -- ./inp_files/56430.got.cif
#   From: 2010.03.12/outbox.cif.g09.slc.cpg/sg74_29_cif.got.tgz:56430.got - 2010.04.16 15:46:19.
