data_PCOD8300739
_publ_section_title
;
Structure prediction by ZEFSAII (Michael W. Deem and Ramdas Pophale) SiO2 
 PCOD8300739
Probable space group: I M M A
;
_chemical_formula_sum "Si O2"
_cell_formula_units_Z 112
_cell_length_a 28.379703
_cell_length_b 14.074198
_cell_length_c 13.861478
_cell_angle_alpha 90.000000
_cell_angle_beta 90.000000
_cell_angle_gamma 90.000000
_cell_volume 5536.573156
_symmetry_space_group_name_H-M "I M M A"
_symmetry_group_IT_number 74
_symmetry_cell_setting 'orthorhombic'
loop_
_space_group_symop_operation_xyz
x,y,z
-x,1/2-y,z
x,-y,-z
-x,1/2+y,-z
-x,-y,-z
x,1/2+y,-z
-x,y,z
x,1/2-y,z
1/2+x,1/2+y,1/2+z
1/2-x,-y,1/2+z
1/2+x,1/2-y,1/2-z
1/2-x,y,1/2-z
1/2-x,1/2-y,1/2-z
1/2+x,y,1/2-z
1/2-x,1/2+y,1/2+z
1/2+x,-y,1/2+z
loop_
_atom_site_type_symbol
_atom_site_label
_atom_site_fract_x
_atom_site_fract_y
_atom_site_fract_z
Si Si1 0.053278 0.955424 0.398808
Si Si2 0.732775 0.138591 0.458519
Si Si3 0.767801 0.462545 0.641980
Si Si4 0.140410 0.644736 0.326491
Si Si5 0.374933 0.359732 0.428963
Si Si6 0.090381 0.857293 0.135699
Si Si7 0.051139 0.461088 0.202225
O O1 0.089897 0.871347 0.377085
O O2 0.000000 0.914145 0.400226
O O3 0.067221 0.000000 0.500000
O O4 0.057892 0.038614 0.317795
O O5 0.746531 0.250000 0.450507
O O6 0.737277 0.103285 0.569155
O O7 0.680321 0.120097 0.418451
O O8 0.765803 0.073388 0.390041
O O9 0.750000 0.446120 0.750000
O O10 0.822233 0.431927 0.636030
O O11 0.158247 0.750000 0.354328
O O12 0.133917 0.636998 0.210883
O O13 0.386266 0.250000 0.418177
O O14 0.390697 0.395437 0.533781
O O15 0.404473 0.410023 0.345199
O O16 0.070323 0.750000 0.129691
O O17 0.049247 0.928507 0.168470
O O18 0.000000 0.415635 0.174640
#
# Coordination Sequence:
#
# PCOD8300739 Si02
#       7
#    16  16  16  16  16  16  16
#     4   9  20  39  63  86 116 159 202 248 305 365
#     4  10  24  42  60  89 123 163 211 256 308 371
#     4  11  24  38  65  92 123 170 207 262 307 367
#     4  10  21  37  60  92 121 152 204 258 308 362
#     4  10  21  37  58  82 117 162 200 238 293 362
#     4   9  19  34  57  85 118 153 191 241 296 357
#     4  10  21  35  58  88 118 153 196 243 295 360
#
# _framework density 20.229119000000001
#
# number of rings (size 3 to 8) (size 9 to 14) (size 15 to 20)
#    0.000    2.143    0.000    1.714   10.000    4.571 
#    0.000    5.000    0.000    2.571    0.000    0.000 
#    0.000    0.000    0.000    0.000    0.000    0.000 
#
# Total GULP energy -694170.282391 kJ/mol
# GULP energy per Si atom -12395.897900 kJ/mol
# Density = 2.018308 g / cm^3
# Si number density = 20.229119 Si / 1000 Ang^3
#
#
#
# Elastic Constant Matrix: (Units=GPa)
#
#
# Indices 1 2 3 4 5 6 
#
# 1 105.9128 54.5598 51.6817 0.0000 0.0000 0.0000
# 2 54.5598 95.9766 49.4636 0.0000 0.0000 0.0000
# 3 51.6817 49.4636 120.6980 0.0000 0.0000 0.0000
# 4 0.0000 0.0000 0.0000 24.7101 0.0000 0.0000
# 5 0.0000 0.0000 0.0000 0.0000 24.7889 0.0000
# 6 0.0000 0.0000 0.0000 0.0000 0.0000 29.2797
#
#
#
# Elastic Compliance Matrix: (Units=1/GPa)
#
#
# Indices 1 2 3 4 5 6 
#
# 1 0.014479 -0.006384 -0.003584 0.000000 0.000000 0.000000
# 2 -0.006384 0.016024 -0.003833 0.000000 0.000000 0.000000
# 3 -0.003584 -0.003833 0.011390 0.000000 0.000000 0.000000
# 4 0.000000 0.000000 0.000000 0.040469 0.000000 0.000000
# 5 0.000000 0.000000 0.000000 0.000000 0.040341 0.000000
# 6 0.000000 0.000000 0.000000 0.000000 0.000000 0.034153
#
#
# Mechanical properties :
#
#
# Convention : Reuss Voigt Hill
#
# Bulk Modulus (GPa) = 69.97002 70.44417 70.20710
# Shear Modulus (GPa) = 26.42398 26.88123 26.65261
#
# Velocity S-wave (km/s) = 3.61811 3.64928 3.63373
# Velocity P-wave (km/s) = 7.21929 7.25638 7.23786
#
# Compressibility (1/GPa) = 0.01429183
#
# Stress axis : x y z
#
# Youngs Moduli (GPa) = 69.06542 62.40688 87.79281
#
# Poissons Ratio (x) = 0.39841 0.31461
# Poissons Ratio (y) = 0.44092 0.33653
# Poissons Ratio (z) = 0.24750 0.23922
#
# Static dielectric constant tensor:
#      x y z
#    x 3.554130 0.000000 0.000000 
#    y 0.000000 3.633450 0.000000 
#    z 0.000000 0.000000 3.791070 
# 
# 
# High freq. dielectric constant tensor:
#      x y z
#    x 1.785250 0.000000 0.000000 
#    y 0.000000 1.778870 0.000000 
#    z 0.000000 0.000000 1.793070 
# 
# From -- ./inp_files/36484.got.cif
#   From: 2010.03.12/outbox.cif.g09.slc.cpg/sg74_19_cif.got.tgz:36484.got - 2010.04.16 15:46:19.
