data_PCOD8300501
_publ_section_title
;
Structure prediction by ZEFSAII (Michael W. Deem and Ramdas Pophale) SiO2 
 PCOD8300501
Probable space group: I M M A
;
_chemical_formula_sum "Si O2"
_cell_formula_units_Z 96
_cell_length_a 19.748899
_cell_length_b 19.820644
_cell_length_c 12.104737
_cell_angle_alpha 90.000000
_cell_angle_beta 90.000000
_cell_angle_gamma 90.000000
_cell_volume 4738.228579
_symmetry_space_group_name_H-M "I M M A"
_symmetry_group_IT_number 74
_symmetry_cell_setting 'orthorhombic'
loop_
_space_group_symop_operation_xyz
x,y,z
-x,1/2-y,z
x,-y,-z
-x,1/2+y,-z
-x,-y,-z
x,1/2+y,-z
-x,y,z
x,1/2-y,z
1/2+x,1/2+y,1/2+z
1/2-x,-y,1/2+z
1/2+x,1/2-y,1/2-z
1/2-x,y,1/2-z
1/2-x,1/2-y,1/2-z
1/2+x,y,1/2-z
1/2-x,1/2+y,1/2+z
1/2+x,-y,1/2+z
loop_
_atom_site_type_symbol
_atom_site_label
_atom_site_fract_x
_atom_site_fract_y
_atom_site_fract_z
Si Si1 0.423771 0.425040 0.695821
Si Si2 0.249140 0.175264 0.626519
Si Si3 0.574609 0.567859 0.937612
Si Si4 0.840205 0.923072 0.993454
Si Si5 0.904054 0.324735 0.615662
Si Si6 0.168152 0.049525 0.245167
O O1 0.500000 0.453541 0.706816
O O2 0.408472 0.413264 0.565587
O O3 0.416295 0.355222 0.762081
O O4 0.367668 0.476251 0.743677
O O5 0.283548 0.250000 0.627731
O O6 0.250000 0.144258 0.750000
O O7 0.284191 0.126453 0.540387
O O8 0.173674 0.181185 0.584475
O O9 0.500000 0.556160 0.882242
O O10 0.633610 0.587095 0.849490
O O11 0.598000 0.500000 0.000000
O O12 0.562884 0.627937 0.024048
O O13 0.852756 0.907761 0.864105
O O14 0.812640 0.000000 0.000000
O O15 0.936986 0.250000 0.613616
O O16 0.250000 0.043353 0.250000
#
# Coordination Sequence:
#
# PCOD8300501 Si02
#       6
#    16  16  16  16  16  16
#     4  11  23  38  59  88 127 164 203 257 320 384
#     4  10  20  37  62  92 126 166 210 262 318 381
#     4  11  23  41  65  90 125 172 222 268 319 383
#     4  10  23  36  60  94 128 165 208 261 321 380
#     4  11  23  38  64  96 129 164 211 268 320 376
#     4  11  24  39  62  92 123 166 208 262 322 377
#
# _framework density 20.260736000000001
#
# number of rings (size 3 to 8) (size 9 to 14) (size 15 to 20)
#    0.000    1.333    3.333    2.000    4.667    7.667 
#    0.000    0.833    0.000    3.000    0.000    2.333 
#    0.000    0.000    0.000    0.000    0.000    0.000 
#
# Total GULP energy -594896.481816 kJ/mol
# GULP energy per Si atom -12393.676705 kJ/mol
# Density = 2.021462 g / cm^3
# Si number density = 20.260736 Si / 1000 Ang^3
#
#
#
# Elastic Constant Matrix: (Units=GPa)
#
#
# Indices 1 2 3 4 5 6 
#
# 1 125.9598 35.8981 45.5562 0.0000 0.0000 0.0000
# 2 35.8981 107.8218 62.0169 0.0000 0.0000 0.0000
# 3 45.5562 62.0169 148.2461 0.0000 0.0000 0.0000
# 4 0.0000 0.0000 0.0000 31.2710 0.0000 0.0000
# 5 0.0000 0.0000 0.0000 0.0000 21.1256 0.0000
# 6 0.0000 0.0000 0.0000 0.0000 0.0000 -215.6909
#
#
#
# Elastic Compliance Matrix: (Units=1/GPa)
#
#
# Indices 1 2 3 4 5 6 
#
# 1 0.009217 -0.001896 -0.002039 0.000000 0.000000 0.000000
# 2 -0.001896 0.012603 -0.004690 0.000000 0.000000 0.000000
# 3 -0.002039 -0.004690 0.009334 0.000000 0.000000 0.000000
# 4 0.000000 0.000000 0.000000 0.031978 0.000000 0.000000
# 5 0.000000 0.000000 0.000000 0.000000 0.047336 0.000000
# 6 0.000000 0.000000 0.000000 0.000000 0.000000 -0.004636
#
#
# Mechanical properties :
#
#
# Convention : Reuss Voigt Hill
#
# Bulk Modulus (GPa) = 71.91893 74.33000 73.12447
# Shear Modulus (GPa) = 39.14906 -16.75508 11.19699
#
# Velocity S-wave (km/s) = 4.40052 -2.87883 2.35339
# Velocity P-wave (km/s) = 7.83538 5.07111 6.59960
#
# Compressibility (1/GPa) = 0.01390454
#
# Stress axis : x y z
#
# Youngs Moduli (GPa) = 108.49671 79.34481 107.13328
#
# Poissons Ratio (x) = 0.15041 0.21848
# Poissons Ratio (y) = 0.20568 0.50244
# Poissons Ratio (z) = 0.22126 0.37212
#
# Static dielectric constant tensor:
#      x y z
#    x 3.816310 0.000000 0.000000 
#    y 0.000000 3.655160 0.000000 
#    z 0.000000 0.000000 3.957390 
# 
# 
# High freq. dielectric constant tensor:
#      x y z
#    x 1.799980 0.000000 0.000000 
#    y 0.000000 1.766680 0.000000 
#    z 0.000000 0.000000 1.789730 
# 
# From -- ./inp_files/23918.got.cif
#   From: 2010.03.12/outbox.cif.g09.slc.cpg/sg74_12_cif.got.tgz:23918.got - 2010.04.16 15:46:19.
