data_PCOD8300325
_publ_section_title
;
Structure prediction by ZEFSAII (Michael W. Deem and Ramdas Pophale) SiO2 
 PCOD8300325
Probable space group: I M M A
;
_chemical_formula_sum "Si O2"
_cell_formula_units_Z 88
_cell_length_a 22.017646
_cell_length_b 8.670521
_cell_length_c 24.555556
_cell_angle_alpha 90.000000
_cell_angle_beta 90.000000
_cell_angle_gamma 90.000000
_cell_volume 4687.765208
_symmetry_space_group_name_H-M "I M M A"
_symmetry_group_IT_number 74
_symmetry_cell_setting 'orthorhombic'
loop_
_space_group_symop_operation_xyz
x,y,z
-x,1/2-y,z
x,-y,-z
-x,1/2+y,-z
-x,-y,-z
x,1/2+y,-z
-x,y,z
x,1/2-y,z
1/2+x,1/2+y,1/2+z
1/2-x,-y,1/2+z
1/2+x,1/2-y,1/2-z
1/2-x,y,1/2-z
1/2-x,1/2-y,1/2-z
1/2+x,y,1/2-z
1/2-x,1/2+y,1/2+z
1/2+x,-y,1/2+z
loop_
_atom_site_type_symbol
_atom_site_label
_atom_site_fract_x
_atom_site_fract_y
_atom_site_fract_z
Si Si1 0.500000 0.931628 0.440201
Si Si2 0.889195 0.430488 0.125526
Si Si3 0.070941 0.071252 0.766725
Si Si4 0.430274 0.070067 0.153704
Si Si5 0.146077 0.570705 0.442421
Si Si6 0.787575 0.070743 0.942495
O O1 0.500000 0.750000 0.444954
O O2 0.500000 0.000000 0.500000
O O3 0.440460 0.981771 0.408099
O O4 0.898310 0.250000 0.117415
O O5 0.892507 0.472970 0.189021
O O6 0.823304 0.482680 0.104837
O O7 0.085808 0.250000 0.775122
O O8 0.000000 0.035571 0.774219
O O9 0.092754 0.020127 0.707046
O O10 0.500000 0.028026 0.141023
O O11 0.421808 0.250000 0.164542
O O12 0.390475 0.018701 0.103204
O O13 0.126552 0.500000 0.500000
O O14 0.129015 0.750000 0.441654
O O15 0.216879 0.542930 0.431354
O O16 0.804649 0.250000 0.942470
O O17 0.807660 0.000000 0.000000
#
# Coordination Sequence:
#
# PCOD8300325 Si02
#       6
#     8  16  16  16  16  16
#     4  12  24  38  54  78 112 148 189 240 289 332
#     4  12  23  36  56  82 112 148 190 235 283 336
#     4  10  20  36  58  82 112 150 189 232 282 336
#     4  10  21  37  59  87 118 149 184 229 280 337
#     4  10  21  38  61  86 114 149 187 230 280 337
#     4  10  21  38  58  81 111 148 190 233 282 339
#
# _framework density 18.772272000000001
#
# number of rings (size 3 to 8) (size 9 to 14) (size 15 to 20)
#    0.000    1.455    0.909    5.182    0.000    4.364 
#    0.000    0.909    0.000    5.455    0.000    0.000 
#    0.000    0.000    0.000    0.000    0.000    0.000 
#
# Total GULP energy -545889.452646 kJ/mol
# GULP energy per Si atom -12406.578469 kJ/mol
# Density = 1.872955 g / cm^3
# Si number density = 18.772272 Si / 1000 Ang^3
#
#
#
# Elastic Constant Matrix: (Units=GPa)
#
#
# Indices 1 2 3 4 5 6 
#
# 1 57.7123 33.5921 50.9549 0.0000 0.0000 0.0000
# 2 33.5921 115.8304 45.4998 0.0000 0.0000 0.0000
# 3 50.9549 45.4998 132.2390 0.0000 0.0000 0.0000
# 4 0.0000 0.0000 0.0000 41.1406 0.0000 0.0000
# 5 0.0000 0.0000 0.0000 0.0000 61.7964 0.0000
# 6 0.0000 0.0000 0.0000 0.0000 0.0000 30.1440
#
#
#
# Elastic Compliance Matrix: (Units=1/GPa)
#
#
# Indices 1 2 3 4 5 6 
#
# 1 0.028166 -0.004516 -0.009299 0.000000 0.000000 0.000000
# 2 -0.004516 0.010706 -0.001944 0.000000 0.000000 0.000000
# 3 -0.009299 -0.001944 0.011814 0.000000 0.000000 0.000000
# 4 0.000000 0.000000 0.000000 0.024307 0.000000 0.000000
# 5 0.000000 0.000000 0.000000 0.000000 0.016182 0.000000
# 6 0.000000 0.000000 0.000000 0.000000 0.000000 0.033174
#
#
# Mechanical properties :
#
#
# Convention : Reuss Voigt Hill
#
# Bulk Modulus (GPa) = 52.16707 62.87503 57.52105
# Shear Modulus (GPa) = 30.81520 38.33185 34.57352
#
# Velocity S-wave (km/s) = 4.05597 4.52369 4.29620
# Velocity P-wave (km/s) = 7.05580 7.80072 7.43759
#
# Compressibility (1/GPa) = 0.01916918
#
# Stress axis : x y z
#
# Youngs Moduli (GPa) = 35.50345 93.40168 84.64391
#
# Poissons Ratio (x) = 0.42176 0.78714
# Poissons Ratio (y) = 0.16032 0.16453
# Poissons Ratio (z) = 0.33016 0.18156
#
# Static dielectric constant tensor:
#      x y z
#    x 2.682920 0.000000 0.000000 
#    y 0.000000 3.620530 0.000000 
#    z 0.000000 0.000000 3.539260 
# 
# 
# High freq. dielectric constant tensor:
#      x y z
#    x 1.714880 0.000000 0.000000 
#    y 0.000000 1.749890 0.000000 
#    z 0.000000 0.000000 1.737760 
# 
# From -- ./inp_files/54495.got.cif
#   From: 2010.03.12/outbox.cif.g09.slc.cpg/sg74_28_cif.got.tgz:54495.got - 2010.04.16 15:46:19.
