data_PCOD8300251
_publ_section_title
;
Structure prediction by ZEFSAII (Michael W. Deem and Ramdas Pophale) SiO2 
 PCOD8300251
Probable space group: I M M A
;
_chemical_formula_sum "Si O2"
_cell_formula_units_Z 112
_cell_length_a 16.755768
_cell_length_b 24.303628
_cell_length_c 13.619361
_cell_angle_alpha 90.000000
_cell_angle_beta 90.000000
_cell_angle_gamma 90.000000
_cell_volume 5546.157253
_symmetry_space_group_name_H-M "I M M A"
_symmetry_group_IT_number 74
_symmetry_cell_setting 'orthorhombic'
loop_
_space_group_symop_operation_xyz
x,y,z
-x,1/2-y,z
x,-y,-z
-x,1/2+y,-z
-x,-y,-z
x,1/2+y,-z
-x,y,z
x,1/2-y,z
1/2+x,1/2+y,1/2+z
1/2-x,-y,1/2+z
1/2+x,1/2-y,1/2-z
1/2-x,y,1/2-z
1/2-x,1/2-y,1/2-z
1/2+x,y,1/2-z
1/2-x,1/2+y,1/2+z
1/2+x,-y,1/2+z
loop_
_atom_site_type_symbol
_atom_site_label
_atom_site_fract_x
_atom_site_fract_y
_atom_site_fract_z
Si Si1 0.193548 0.455978 0.927599
Si Si2 0.358238 0.503973 0.887443
Si Si3 0.318591 0.189025 0.826465
Si Si4 0.909251 0.187147 0.138277
Si Si5 0.760423 0.845653 0.978781
Si Si6 0.829325 0.617419 0.696632
Si Si7 0.411118 0.412329 0.749165
O O1 0.265294 0.487772 0.873607
O O2 0.138058 0.426894 0.848377
O O3 0.148525 0.500000 0.000000
O O4 0.233250 0.410004 0.996194
O O5 0.375314 0.565116 0.847671
O O6 0.411442 0.462782 0.824011
O O7 0.385852 0.500000 0.000000
O O8 0.356044 0.250000 0.811215
O O9 0.250000 0.176564 0.750000
O O10 0.383425 0.142009 0.807800
O O11 0.278573 0.188021 0.933266
O O12 0.901693 0.250000 0.173144
O O13 0.848586 0.177152 0.047668
O O14 0.888680 0.148555 0.230213
O O15 0.000000 0.174185 0.103401
O O16 0.699400 0.840051 0.887690
O O17 0.750000 0.595590 0.750000
O O18 0.500000 0.400964 0.712314
#
# Coordination Sequence:
#
# PCOD8300251 Si02
#       7
#    16  16  16  16  16  16  16
#     4  11  21  39  66  90 121 164 210 262 309 371
#     4  11  20  39  64  88 118 163 211 259 309 370
#     4  11  22  41  66  89 117 163 221 266 304 365
#     4  10  24  43  62  93 135 167 199 257 325 380
#     4  11  20  39  68  95 117 162 216 262 305 368
#     4  10  20  35  64  94 121 160 211 256 307 377
#     4  12  25  39  59  90 132 166 200 261 325 379
#
# _framework density 20.194163
#
# number of rings (size 3 to 8) (size 9 to 14) (size 15 to 20)
#    0.000    1.143    5.714    1.714    2.000    5.143 
#    0.000    2.143    0.000    0.000    0.000    0.000 
#    0.000    0.000    0.000    0.000    0.000    0.000 
#
# Total GULP energy -694377.997904 kJ/mol
# GULP energy per Si atom -12399.607105 kJ/mol
# Density = 2.014820 g / cm^3
# Si number density = 20.194163 Si / 1000 Ang^3
#
#
#
# Elastic Constant Matrix: (Units=GPa)
#
#
# Indices 1 2 3 4 5 6 
#
# 1 82.1170 29.1871 24.1000 0.0000 0.0000 0.0000
# 2 29.1871 102.1835 16.0715 0.0000 0.0000 0.0000
# 3 24.1000 16.0715 91.0690 0.0001 -0.0001 -0.0001
# 4 0.0000 0.0000 0.0001 11.9817 -0.0001 -0.0002
# 5 0.0000 0.0000 -0.0001 -0.0001 16.3806 0.0000
# 6 0.0000 0.0000 -0.0001 -0.0002 0.0000 11.2090
#
#
#
# Elastic Compliance Matrix: (Units=1/GPa)
#
#
# Indices 1 2 3 4 5 6 
#
# 1 0.014392 -0.003612 -0.003171 0.000000 0.000000 0.000000
# 2 -0.003612 0.010972 -0.000980 0.000000 0.000000 0.000000
# 3 -0.003171 -0.000980 0.011993 0.000000 0.000000 0.000000
# 4 0.000000 0.000000 0.000000 0.083461 0.000000 0.000001
# 5 0.000000 0.000000 0.000000 0.000000 0.061048 0.000000
# 6 0.000000 0.000000 0.000000 0.000001 0.000000 0.089214
#
#
# Mechanical properties :
#
#
# Convention : Reuss Voigt Hill
#
# Bulk Modulus (GPa) = 45.80887 46.00964 45.90925
# Shear Modulus (GPa) = 17.01348 21.64832 19.33090
#
# Velocity S-wave (km/s) = 2.90573 3.27771 3.09731
# Velocity P-wave (km/s) = 5.83019 6.09570 5.96442
#
# Compressibility (1/GPa) = 0.02182983
#
# Stress axis : x y z
#
# Youngs Moduli (GPa) = 69.48143 91.13884 83.38240
#
# Poissons Ratio (x) = 0.32921 0.26443
# Poissons Ratio (y) = 0.25098 0.08175
# Poissons Ratio (z) = 0.22034 0.08936
#
# Static dielectric constant tensor:
#      x y z
#    x 3.367610 0.000000 0.000000 
#    y 0.000000 3.737400 0.000000 
#    z 0.000000 0.000000 4.041610 
# 
# 
# High freq. dielectric constant tensor:
#      x y z
#    x 1.755910 0.000000 0.000000 
#    y 0.000000 1.800170 0.000000 
#    z 0.000000 0.000000 1.799180 
# 
# From -- ./inp_files/32693.got.cif
#   From: 2010.03.12/outbox.cif.g09.slc.cpg/sg74_17_cif.got.tgz:32693.got - 2010.04.16 15:46:19.
