data_PCOD8300698
_publ_section_title
;
Structure prediction by ZEFSAII (Michael W. Deem and Ramdas Pophale) SiO2 
 PCOD8300698
Probable space group: I M M A
;
_chemical_formula_sum "Si O2"
_cell_formula_units_Z 112
_cell_length_a 14.235511
_cell_length_b 25.283216
_cell_length_c 16.107509
_cell_angle_alpha 90.000000
_cell_angle_beta 90.000000
_cell_angle_gamma 90.000000
_cell_volume 5797.406577
_symmetry_space_group_name_H-M "I M M A"
_symmetry_group_IT_number 74
_symmetry_cell_setting 'orthorhombic'
loop_
_space_group_symop_operation_xyz
x,y,z
-x,1/2-y,z
x,-y,-z
-x,1/2+y,-z
-x,-y,-z
x,1/2+y,-z
-x,y,z
x,1/2-y,z
1/2+x,1/2+y,1/2+z
1/2-x,-y,1/2+z
1/2+x,1/2-y,1/2-z
1/2-x,y,1/2-z
1/2-x,1/2-y,1/2-z
1/2+x,y,1/2-z
1/2-x,1/2+y,1/2+z
1/2+x,-y,1/2+z
loop_
_atom_site_type_symbol
_atom_site_label
_atom_site_fract_x
_atom_site_fract_y
_atom_site_fract_z
Si Si1 0.605276 0.311235 0.061817
Si Si2 0.611982 0.912877 0.211550
Si Si3 0.891075 0.542769 0.117711
Si Si4 0.891201 0.927637 0.936409
Si Si5 0.612008 0.691408 0.124476
Si Si6 0.225603 0.109380 0.345328
Si Si7 0.889689 0.008680 0.404390
O O1 0.500000 0.334474 0.066684
O O2 0.605347 0.250000 0.083746
O O3 0.667242 0.339064 0.131426
O O4 0.646224 0.321155 0.969240
O O5 0.500000 0.910349 0.215896
O O6 0.655883 0.929070 0.301702
O O7 0.650524 0.854782 0.185247
O O8 0.643868 0.956201 0.144058
O O9 0.853723 0.483799 0.099963
O O10 0.000000 0.536507 0.137377
O O11 0.875693 0.577239 0.035224
O O12 0.824561 0.884975 0.893877
O O13 0.000000 0.917718 0.913837
O O14 0.500000 0.692238 0.123691
O O15 0.648383 0.750000 0.152654
O O16 0.250000 0.108763 0.250000
O O17 0.165886 0.058197 0.369331
O O18 0.000000 0.019145 0.391738
O O19 0.863767 0.000000 0.500000
#
# Coordination Sequence:
#
# PCOD8300698 Si02
#       7
#    16  16  16  16  16  16  16
#     4   9  19  38  61  81 106 143 183 224 279 345
#     4   9  15  26  48  76 105 138 177 221 270 322
#     4   8  15  30  51  70  96 140 189 226 258 312
#     4   9  19  35  52  72 105 148 187 223 265 325
#     4   8  14  27  50  79 108 140 178 217 263 324
#     4  12  24  34  54  84 111 139 181 233 283 341
#     4  10  21  35  51  77 116 149 175 221 287 347
#
# _framework density 19.318982999999999
#
# number of rings (size 3 to 8) (size 9 to 14) (size 15 to 20)
#    0.000    2.714    0.000    3.857    2.000    4.857 
#    0.000    0.000    0.000    1.286    0.000    4.000 
#    0.000    0.000    0.000    0.000    0.000    0.000 
#
# Total GULP energy -694156.218157 kJ/mol
# GULP energy per Si atom -12395.646753 kJ/mol
# Density = 1.927501 g / cm^3
# Si number density = 19.318983 Si / 1000 Ang^3
#
#
#
# Elastic Constant Matrix: (Units=GPa)
#
#
# Indices 1 2 3 4 5 6 
#
# 1 48.3180 32.7793 41.5254 0.0001 0.0000 0.0000
# 2 32.7793 94.9143 68.7919 0.0001 -0.0001 0.0001
# 3 41.5254 68.7919 158.6491 0.0002 0.0000 0.0001
# 4 0.0001 0.0001 0.0002 27.7157 -0.0001 0.0000
# 5 0.0000 -0.0001 0.0000 -0.0001 22.0850 0.0000
# 6 0.0000 0.0001 0.0001 0.0000 0.0000 5.3074
#
#
#
# Elastic Compliance Matrix: (Units=1/GPa)
#
#
# Indices 1 2 3 4 5 6 
#
# 1 0.029329 -0.006657 -0.004790 0.000000 0.000000 0.000000
# 2 -0.006657 0.016876 -0.005575 0.000000 0.000000 0.000000
# 3 -0.004790 -0.005575 0.009974 0.000000 0.000000 0.000000
# 4 0.000000 0.000000 0.000000 0.036081 0.000000 0.000000
# 5 0.000000 0.000000 0.000000 0.000000 0.045280 0.000000
# 6 0.000000 0.000000 0.000000 0.000000 0.000000 0.188415
#
#
# Mechanical properties :
#
#
# Convention : Reuss Voigt Hill
#
# Bulk Modulus (GPa) = 45.17820 65.34162 55.25991
# Shear Modulus (GPa) = 13.60999 21.60726 17.60863
#
# Velocity S-wave (km/s) = 2.65710 3.34795 3.02233
# Velocity P-wave (km/s) = 5.73147 6.98863 6.39103
#
# Compressibility (1/GPa) = 0.02213457
#
# Stress axis : x y z
#
# Youngs Moduli (GPa) = 34.09557 59.25730 100.25744
#
# Poissons Ratio (x) = 0.39450 0.48024
# Poissons Ratio (y) = 0.22699 0.55892
# Poissons Ratio (z) = 0.16332 0.33035
#
# Static dielectric constant tensor:
#      x y z
#    x 3.357460 0.000000 0.000000 
#    y 0.000000 3.519440 0.000000 
#    z 0.000000 0.000000 3.714810 
# 
# 
# High freq. dielectric constant tensor:
#      x y z
#    x 1.739230 0.000000 0.000000 
#    y 0.000000 1.728310 0.000000 
#    z 0.000000 0.000000 1.754650 
# 
# From -- ./inp_files/32951.got.cif
#   From: 2010.03.12/outbox.cif.g09.slc.cpg/sg74_17_cif.got.tgz:32951.got - 2010.04.16 15:46:19.
