data_PCOD8300519
_publ_section_title
;
Structure prediction by ZEFSAII (Michael W. Deem and Ramdas Pophale) SiO2 
 PCOD8300519
Probable space group: I M M A
;
_chemical_formula_sum "Si O2"
_cell_formula_units_Z 56
_cell_length_a 15.486429
_cell_length_b 10.222312
_cell_length_c 16.100926
_cell_angle_alpha 90.000000
_cell_angle_beta 90.000000
_cell_angle_gamma 90.000000
_cell_volume 2548.891047
_symmetry_space_group_name_H-M "I M M A"
_symmetry_group_IT_number 74
_symmetry_cell_setting 'orthorhombic'
loop_
_space_group_symop_operation_xyz
x,y,z
-x,1/2-y,z
x,-y,-z
-x,1/2+y,-z
-x,-y,-z
x,1/2+y,-z
-x,y,z
x,1/2-y,z
1/2+x,1/2+y,1/2+z
1/2-x,-y,1/2+z
1/2+x,1/2-y,1/2-z
1/2-x,y,1/2-z
1/2-x,1/2-y,1/2-z
1/2+x,y,1/2-z
1/2-x,1/2+y,1/2+z
1/2+x,-y,1/2+z
loop_
_atom_site_type_symbol
_atom_site_label
_atom_site_fract_x
_atom_site_fract_y
_atom_site_fract_z
Si Si1 0.100815 0.750000 0.153212
Si Si2 0.600849 0.250000 0.323890
Si Si3 0.796697 0.750000 0.994336
Si Si4 0.898626 0.517807 0.265847
Si Si5 0.143225 0.394380 0.557857
O O1 0.136842 0.879464 0.198259
O O2 0.000000 0.750000 0.160394
O O3 0.123363 0.750000 0.056960
O O4 0.500000 0.250000 0.352100
O O5 0.664171 0.250000 0.402533
O O6 0.622612 0.373896 0.266939
O O7 0.737453 0.876952 0.014355
O O8 0.847497 0.545276 0.350667
O O9 0.000000 0.535472 0.283918
O O10 0.092259 0.500000 0.500000
O O11 0.097013 0.250000 0.561685
#
# Coordination Sequence:
#
# PCOD8300519 Si02
#       5
#     8   8   8  16  16
#     4  10  20  37  66  89 119 166 207 261 308 371
#     4  10  23  40  67  95 128 168 208 268 317 373
#     4  10  24  41  60  94 135 158 215 250 321 388
#     4  10  22  42  64  93 122 162 218 261 316 374
#     4  10  24  41  60  92 126 169 209 256 323 372
#
# _framework density 21.970338999999999
#
# number of rings (size 3 to 8) (size 9 to 14) (size 15 to 20)
#    0.857    1.143    1.429    0.429    6.000    2.857 
#    0.000    5.714    0.000    0.000    0.000    0.000 
#    0.000    0.000    0.000    0.000    0.000    0.000 
#
# Total GULP energy -346953.778994 kJ/mol
# GULP energy per Si atom -12391.206393 kJ/mol
# Density = 2.192033 g / cm^3
# Si number density = 21.970339 Si / 1000 Ang^3
#
#
#
# Elastic Constant Matrix: (Units=GPa)
#
#
# Indices 1 2 3 4 5 6 
#
# 1 49.1506 28.6021 36.8922 0.0000 0.0000 0.0000
# 2 28.6021 196.7131 86.2367 0.0000 0.0000 0.0000
# 3 36.8922 86.2367 151.9232 0.0000 0.0000 0.0000
# 4 0.0000 0.0000 0.0000 31.1254 0.0000 0.0000
# 5 0.0000 0.0000 0.0000 0.0000 6.4495 0.0000
# 6 0.0000 0.0000 0.0000 0.0000 0.0000 6.4424
#
#
#
# Elastic Compliance Matrix: (Units=1/GPa)
#
#
# Indices 1 2 3 4 5 6 
#
# 1 0.025129 -0.001303 -0.005363 0.000000 0.000000 0.000000
# 2 -0.001303 0.006835 -0.003564 0.000000 0.000000 0.000000
# 3 -0.005363 -0.003564 0.009907 0.000000 0.000000 0.000000
# 4 0.000000 0.000000 0.000000 0.032128 0.000000 0.000000
# 5 0.000000 0.000000 0.000000 0.000000 0.155051 0.000000
# 6 0.000000 0.000000 0.000000 0.000000 0.000000 0.155223
#
#
# Mechanical properties :
#
#
# Convention : Reuss Voigt Hill
#
# Bulk Modulus (GPa) = 46.69961 77.91653 62.30807
# Shear Modulus (GPa) = 12.13978 25.20717 18.67347
#
# Velocity S-wave (km/s) = 2.35319 3.39090 2.91854
# Velocity P-wave (km/s) = 5.35586 7.13248 6.30704
#
# Compressibility (1/GPa) = 0.02141346
#
# Stress axis : x y z
#
# Youngs Moduli (GPa) = 39.79471 146.30210 100.93598
#
# Poissons Ratio (x) = 0.19061 0.54128
# Poissons Ratio (y) = 0.05185 0.35969
# Poissons Ratio (z) = 0.21340 0.52135
#
# Static dielectric constant tensor:
#      x y z
#    x 3.555520 0.000000 0.000000 
#    y 0.000000 4.758800 0.000000 
#    z 0.000000 0.000000 3.805490 
# 
# 
# High freq. dielectric constant tensor:
#      x y z
#    x 1.836040 0.000000 0.000000 
#    y 0.000000 1.882390 0.000000 
#    z 0.000000 0.000000 1.867100 
# 
# From -- ./inp_files/34838.got.cif
#   From: 2010.03.12/outbox.cif.g09.slc.cpg/sg74_18_cif.got.tgz:34838.got - 2010.04.16 15:46:19.
