data_PCOD8300516
_publ_section_title
;
Structure prediction by ZEFSAII (Michael W. Deem and Ramdas Pophale) SiO2 
 PCOD8300516
Probable space group: I M M A
;
_chemical_formula_sum "Si O2"
_cell_formula_units_Z 84
_cell_length_a 14.078779
_cell_length_b 23.751532
_cell_length_c 12.640689
_cell_angle_alpha 90.000000
_cell_angle_beta 90.000000
_cell_angle_gamma 90.000000
_cell_volume 4226.952481
_symmetry_space_group_name_H-M "I M M A"
_symmetry_group_IT_number 74
_symmetry_cell_setting 'orthorhombic'
loop_
_space_group_symop_operation_xyz
x,y,z
-x,1/2-y,z
x,-y,-z
-x,1/2+y,-z
-x,-y,-z
x,1/2+y,-z
-x,y,z
x,1/2-y,z
1/2+x,1/2+y,1/2+z
1/2-x,-y,1/2+z
1/2+x,1/2-y,1/2-z
1/2-x,y,1/2-z
1/2-x,1/2-y,1/2-z
1/2+x,y,1/2-z
1/2-x,1/2+y,1/2+z
1/2+x,-y,1/2+z
loop_
_atom_site_type_symbol
_atom_site_label
_atom_site_fract_x
_atom_site_fract_y
_atom_site_fract_z
Si Si1 0.500000 0.370767 0.262067
Si Si2 0.000000 0.565107 0.542530
Si Si3 0.282209 0.250000 0.129967
Si Si4 0.839022 0.643676 0.929220
Si Si5 0.000000 0.750000 0.659868
Si Si6 0.696459 0.436062 0.969342
Si Si7 0.604771 0.312522 0.644161
Si Si8 0.750000 0.391817 0.750000
O O1 0.500000 0.419072 0.169929
O O2 0.596383 0.375706 0.330756
O O3 0.500000 0.306303 0.227310
O O4 0.000000 0.500000 0.500000
O O5 0.095051 0.593709 0.495575
O O6 0.250000 0.250000 0.250000
O O7 0.236702 0.193453 0.084889
O O8 0.396291 0.250000 0.101301
O O9 0.779019 0.589056 0.959102
O O10 0.904445 0.662328 0.026480
O O11 0.718324 0.431360 0.845572
O O12 0.688215 0.500000 0.000000
O O13 0.500000 0.309796 0.692681
O O14 0.650252 0.250000 0.640818
O O15 0.663587 0.352019 0.720383
#
# Coordination Sequence:
#
# PCOD8300516 Si02
#       8
#     8   8   8  16   4  16  16   8
#     4  12  22  38  64  97 134 170 212 257 320 389
#     4  10  24  42  61  85 121 168 213 255 319 391
#     4  12  22  36  58  95 132 172 198 256 310 382
#     4  11  22  38  64  95 130 163 212 260 312 380
#     4  12  24  32  56  96 132 170 210 230 324 382
#     4  10  24  44  64  90 121 166 216 267 325 374
#     4  10  20  37  65  92 126 166 206 254 311 379
#     4  10  23  40  64  90 124 159 214 270 304 380
#
# _framework density 19.872471999999998
#
# number of rings (size 3 to 8) (size 9 to 14) (size 15 to 20)
#    0.000    1.333    3.810    1.429    1.333    3.048 
#    0.000    0.476    0.000    0.000    0.000    0.000 
#    0.000    0.000    0.000    0.000    0.000    0.000 
#
# Total GULP energy -520341.776143 kJ/mol
# GULP energy per Si atom -12389.089908 kJ/mol
# Density = 1.982724 g / cm^3
# Si number density = 19.872472 Si / 1000 Ang^3
#
#
#
# Elastic Constant Matrix: (Units=GPa)
#
#
# Indices 1 2 3 4 5 6 
#
# 1 150.1612 43.8464 66.3617 0.0000 0.0000 0.0000
# 2 43.8464 88.4146 54.8225 0.0001 0.0000 -0.0001
# 3 66.3617 54.8225 114.0357 0.0003 -0.0004 -0.0002
# 4 0.0000 0.0001 0.0003 -9.3931 -0.0003 -0.0001
# 5 0.0000 0.0000 -0.0004 -0.0003 188.5537 -0.0001
# 6 0.0000 -0.0001 -0.0002 -0.0001 -0.0001 39.4766
#
#
#
# Elastic Compliance Matrix: (Units=1/GPa)
#
#
# Indices 1 2 3 4 5 6 
#
# 1 0.009154 -0.001762 -0.004480 0.000000 0.000000 0.000000
# 2 -0.001762 0.016453 -0.006884 0.000000 0.000000 0.000000
# 3 -0.004480 -0.006884 0.014686 0.000000 0.000000 0.000000
# 4 0.000000 0.000000 0.000000 -0.106461 0.000000 0.000000
# 5 0.000000 0.000000 0.000000 0.000000 0.005304 0.000000
# 6 0.000000 0.000000 0.000000 0.000000 0.000000 0.025331
#
#
# Mechanical properties :
#
#
# Convention : Reuss Voigt Hill
#
# Bulk Modulus (GPa) = 71.22378 75.85250 73.53814
# Shear Modulus (GPa) = -1086.71384 56.23283 -515.24050
#
# Velocity S-wave (km/s) = -23.41006 5.32525 -16.11944
# Velocity P-wave (km/s) = 26.35886 8.72144 17.58872
#
# Compressibility (1/GPa) = 0.01404025
#
# Stress axis : x y z
#
# Youngs Moduli (GPa) = 109.24447 60.78000 68.09210
#
# Poissons Ratio (x) = 0.10707 0.30505
# Poissons Ratio (y) = 0.19245 0.46878
# Poissons Ratio (z) = 0.48942 0.41844
#
# Static dielectric constant tensor:
#      x y z
#    x 3.958260 0.000000 0.000000 
#    y 0.000000 3.483890 0.000000 
#    z 0.000000 0.000000 3.889300 
# 
# 
# High freq. dielectric constant tensor:
#      x y z
#    x 1.798640 0.000000 0.000000 
#    y 0.000000 1.768470 0.000000 
#    z 0.000000 0.000000 1.767420 
# 
# From -- ./inp_files/20716.got.cif
#   From: 2010.03.12/outbox.cif.g09.slc.cpg/sg74_11_cif.got.tgz:20716.got - 2010.04.16 15:46:19.
