data_PCOD8300078
_publ_section_title
;
Structure prediction by ZEFSAII (Michael W. Deem and Ramdas Pophale) SiO2 
 PCOD8300078
Probable space group: I M M A
;
_chemical_formula_sum "Si O2"
_cell_formula_units_Z 96
_cell_length_a 24.370136
_cell_length_b 22.928997
_cell_length_c 9.197670
_cell_angle_alpha 90.000000
_cell_angle_beta 90.000000
_cell_angle_gamma 90.000000
_cell_volume 5139.499568
_symmetry_space_group_name_H-M "I M M A"
_symmetry_group_IT_number 74
_symmetry_cell_setting 'orthorhombic'
loop_
_space_group_symop_operation_xyz
x,y,z
-x,1/2-y,z
x,-y,-z
-x,1/2+y,-z
-x,-y,-z
x,1/2+y,-z
-x,y,z
x,1/2-y,z
1/2+x,1/2+y,1/2+z
1/2-x,-y,1/2+z
1/2+x,1/2-y,1/2-z
1/2-x,y,1/2-z
1/2-x,1/2-y,1/2-z
1/2+x,y,1/2-z
1/2-x,1/2+y,1/2+z
1/2+x,-y,1/2+z
loop_
_atom_site_type_symbol
_atom_site_label
_atom_site_fract_x
_atom_site_fract_y
_atom_site_fract_z
Si Si1 0.500000 0.183576 0.314171
Si Si2 0.000000 0.977302 0.163948
Si Si3 0.500000 0.579942 0.883724
Si Si4 0.620685 0.934276 0.984821
Si Si5 0.827409 0.000000 0.000000
Si Si6 0.887103 0.181835 0.025122
Si Si7 0.309208 0.101635 0.292853
Si Si8 0.390622 0.589195 0.297966
O O1 0.500000 0.250000 0.262794
O O2 0.500000 0.146709 0.167605
O O3 0.553734 0.168601 0.406715
O O4 0.950960 0.936265 0.213045
O O5 0.000000 0.038194 0.246187
O O6 0.000000 0.000000 0.000000
O O7 0.445206 0.569072 0.974954
O O8 0.636700 0.903902 0.138161
O O9 0.652297 0.907639 0.847792
O O10 0.640478 0.000000 0.000000
O O11 0.862177 0.957625 0.099343
O O12 0.795604 0.042897 0.112207
O O13 0.874429 0.250000 0.012053
O O14 0.839091 0.151734 0.116570
O O15 0.888278 0.153774 0.865106
O O16 0.250000 0.126749 0.250000
#
# Coordination Sequence:
#
# PCOD8300078 Si02
#       8
#     8   8   8  16   8  16  16  16
#     4  10  20  37  62  86 118 160 201 245 291 352
#     4  12  19  27  54  89 123 156 191 239 294 377
#     4  12  20  35  56  91 129 159 194 237 306 366
#     4  12  22  37  57  92 130 154 190 242 307 369
#     4  10  20  35  54  78 118 153 194 238 296 364
#     4  10  22  43  64  85 117 159 210 250 288 356
#     4  11  24  39  61  89 118 162 203 250 303 355
#     4  11  21  34  55  88 118 155 194 239 302 356
#
# _framework density 18.678861000000001
#
# number of rings (size 3 to 8) (size 9 to 14) (size 15 to 20)
#    0.000    1.000    5.833    2.250    1.167    0.333 
#    0.000    4.167    0.000    1.000    0.000    0.000 
#    0.000    0.000    0.000    0.000    0.000    0.000 
#
# Total GULP energy -594910.272776 kJ/mol
# GULP energy per Si atom -12393.964016 kJ/mol
# Density = 1.863635 g / cm^3
# Si number density = 18.678861 Si / 1000 Ang^3
#
#
#
# Elastic Constant Matrix: (Units=GPa)
#
#
# Indices 1 2 3 4 5 6 
#
# 1 84.5186 19.4287 12.8404 0.0000 0.0000 0.0000
# 2 19.4287 106.2435 37.1345 0.0000 0.0000 0.0000
# 3 12.8404 37.1345 109.4618 0.0000 0.0000 0.0000
# 4 0.0000 0.0000 0.0000 23.7675 0.0000 0.0000
# 5 0.0000 0.0000 0.0000 0.0000 16.2543 0.0000
# 6 0.0000 0.0000 0.0000 0.0000 0.0000 17.2408
#
#
#
# Elastic Compliance Matrix: (Units=1/GPa)
#
#
# Indices 1 2 3 4 5 6 
#
# 1 0.012409 -0.001997 -0.000778 0.000000 0.000000 0.000000
# 2 -0.001997 0.011000 -0.003497 0.000000 0.000000 0.000000
# 3 -0.000778 -0.003497 0.010413 0.000000 0.000000 0.000000
# 4 0.000000 0.000000 0.000000 0.042074 0.000000 0.000000
# 5 0.000000 0.000000 0.000000 0.000000 0.061522 0.000000
# 6 0.000000 0.000000 0.000000 0.000000 0.000000 0.058002
#
#
# Mechanical properties :
#
#
# Convention : Reuss Voigt Hill
#
# Bulk Modulus (GPa) = 46.99939 48.78124 47.89031
# Shear Modulus (GPa) = 23.24948 26.84054 25.04501
#
# Velocity S-wave (km/s) = 3.53185 3.79482 3.66570
# Velocity P-wave (km/s) = 6.46903 6.73597 6.60385
#
# Compressibility (1/GPa) = 0.02127687
#
# Stress axis : x y z
#
# Youngs Moduli (GPa) = 80.58636 90.90907 96.03045
#
# Poissons Ratio (x) = 0.18157 0.07472
# Poissons Ratio (y) = 0.16095 0.33586
# Poissons Ratio (z) = 0.06270 0.31795
#
# Static dielectric constant tensor:
#      x y z
#    x 3.323260 0.000000 0.000000 
#    y 0.000000 3.525260 0.000000 
#    z 0.000000 0.000000 2.169610 
# 
# 
# High freq. dielectric constant tensor:
#      x y z
#    x 1.714620 0.000000 0.000000 
#    y 0.000000 1.712380 0.000000 
#    z 0.000000 0.000000 1.739000 
# 
# From -- ./inp_files/14004.got.cif
#   From: 2010.03.12/outbox.cif.g09.slc.cpg/sg74_8_cif.got.tgz:14004.got - 2010.04.16 15:46:19.
