data_PCOD8300862
_publ_section_title
;
Structure prediction by ZEFSAII (Michael W. Deem and Ramdas Pophale) SiO2 
 PCOD8300862
Probable space group: I M M A
;
_chemical_formula_sum "Si O2"
_cell_formula_units_Z 64
_cell_length_a 18.059830
_cell_length_b 18.280998
_cell_length_c 10.290062
_cell_angle_alpha 90.000000
_cell_angle_beta 90.000000
_cell_angle_gamma 90.000000
_cell_volume 3397.281628
_symmetry_space_group_name_H-M "I M M A"
_symmetry_group_IT_number 74
_symmetry_cell_setting 'orthorhombic'
loop_
_space_group_symop_operation_xyz
x,y,z
-x,1/2-y,z
x,-y,-z
-x,1/2+y,-z
-x,-y,-z
x,1/2+y,-z
-x,y,z
x,1/2-y,z
1/2+x,1/2+y,1/2+z
1/2-x,-y,1/2+z
1/2+x,1/2-y,1/2-z
1/2-x,y,1/2-z
1/2-x,1/2-y,1/2-z
1/2+x,y,1/2-z
1/2-x,1/2+y,1/2+z
1/2+x,-y,1/2+z
loop_
_atom_site_type_symbol
_atom_site_label
_atom_site_fract_x
_atom_site_fract_y
_atom_site_fract_z
Si Si1 0.081432 0.413146 0.501192
Si Si2 0.662735 0.912622 0.746786
Si Si3 0.085197 0.334176 0.022089
Si Si4 0.912659 0.566537 0.218132
O O1 0.076681 0.500000 0.500000
O O2 0.136833 0.385835 0.389717
O O3 0.108846 0.392019 0.646685
O O4 0.000000 0.379611 0.473358
O O5 0.750000 0.918823 0.750000
O O6 0.636518 0.852061 0.644585
O O7 0.629399 0.990084 0.703367
O O8 0.095649 0.250000 0.984232
O O9 0.000000 0.351838 0.057075
O O10 0.111621 0.381642 0.899219
O O11 0.000000 0.549363 0.217417
#
# Coordination Sequence:
#
# PCOD8300862 Si02
#       4
#    16  16  16  16
#     4   8  15  30  51  74 100 130 169 218 267 312
#     4  11  21  32  53  81 110 140 176 221 270 322
#     4  10  21  37  56  79 109 145 183 222 266 318
#     4   9  18  34  56  79 103 135 180 231 275 316
#
# _framework density 18.838591999999998
#
# number of rings (size 3 to 8) (size 9 to 14) (size 15 to 20)
#    0.000    2.500    0.000    4.500    0.000    8.500 
#    0.000    1.250    0.000    9.750    0.000    0.000 
#    0.000    0.000    0.000    0.000    0.000    0.000 
#
# Total GULP energy -396735.198212 kJ/mol
# GULP energy per Si atom -12397.974944 kJ/mol
# Density = 1.879571 g / cm^3
# Si number density = 18.838592 Si / 1000 Ang^3
#
#
#
# Elastic Constant Matrix: (Units=GPa)
#
#
# Indices 1 2 3 4 5 6 
#
# 1 81.2360 23.0888 42.2884 0.0000 0.0000 0.0000
# 2 23.0888 53.3299 27.3303 0.0000 0.0000 0.0000
# 3 42.2884 27.3303 127.8579 0.0000 0.0000 0.0000
# 4 0.0000 0.0000 0.0000 14.1195 0.0000 0.0000
# 5 0.0000 0.0000 0.0000 0.0000 35.3618 0.0000
# 6 0.0000 0.0000 0.0000 0.0000 0.0000 9.8919
#
#
#
# Elastic Compliance Matrix: (Units=1/GPa)
#
#
# Indices 1 2 3 4 5 6 
#
# 1 0.015850 -0.004689 -0.004240 0.000000 0.000000 0.000000
# 2 -0.004689 0.022445 -0.003247 0.000000 0.000000 0.000000
# 3 -0.004240 -0.003247 0.009918 0.000000 0.000000 0.000000
# 4 0.000000 0.000000 0.000000 0.070824 0.000000 0.000000
# 5 0.000000 0.000000 0.000000 0.000000 0.028279 0.000000
# 6 0.000000 0.000000 0.000000 0.000000 0.000000 0.101092
#
#
# Mechanical properties :
#
#
# Convention : Reuss Voigt Hill
#
# Bulk Modulus (GPa) = 41.90998 49.75988 45.83493
# Shear Modulus (GPa) = 17.81176 23.18906 20.50041
#
# Velocity S-wave (km/s) = 3.07822 3.51227 3.30239
# Velocity P-wave (km/s) = 5.91009 6.55128 6.23892
#
# Compressibility (1/GPa) = 0.02386066
#
# Stress axis : x y z
#
# Youngs Moduli (GPa) = 63.09274 44.55274 100.83149
#
# Poissons Ratio (x) = 0.20892 0.42751
# Poissons Ratio (y) = 0.29585 0.32739
# Poissons Ratio (z) = 0.26750 0.14466
#
# Static dielectric constant tensor:
#      x y z
#    x 3.332990 0.000000 0.000000 
#    y 0.000000 3.062100 0.000000 
#    z 0.000000 0.000000 4.087960 
# 
# 
# High freq. dielectric constant tensor:
#      x y z
#    x 1.713490 0.000000 0.000000 
#    y 0.000000 1.691880 0.000000 
#    z 0.000000 0.000000 1.754580 
# 
# From -- ./inp_files/10220.got.cif
#   From: 2010.03.12/outbox.cif.g09.slc.cpg/sg74_6_cif.got.tgz:10220.got - 2010.04.16 15:46:19.
