data_PCOD8300643
_publ_section_title
;
Structure prediction by ZEFSAII (Michael W. Deem and Ramdas Pophale) SiO2 
 PCOD8300643
Probable space group: I M M A
;
_chemical_formula_sum "Si O2"
_cell_formula_units_Z 92
_cell_length_a 21.399605
_cell_length_b 25.693963
_cell_length_c 8.504346
_cell_angle_alpha 90.000000
_cell_angle_beta 90.000000
_cell_angle_gamma 90.000000
_cell_volume 4676.035210
_symmetry_space_group_name_H-M "I M M A"
_symmetry_group_IT_number 74
_symmetry_cell_setting 'orthorhombic'
loop_
_space_group_symop_operation_xyz
x,y,z
-x,1/2-y,z
x,-y,-z
-x,1/2+y,-z
-x,-y,-z
x,1/2+y,-z
-x,y,z
x,1/2-y,z
1/2+x,1/2+y,1/2+z
1/2-x,-y,1/2+z
1/2+x,1/2-y,1/2-z
1/2-x,y,1/2-z
1/2-x,1/2-y,1/2-z
1/2+x,y,1/2-z
1/2-x,1/2+y,1/2+z
1/2+x,-y,1/2+z
loop_
_atom_site_type_symbol
_atom_site_label
_atom_site_fract_x
_atom_site_fract_y
_atom_site_fract_z
Si Si1 0.673788 0.550615 0.911920
Si Si2 0.183343 0.750000 0.666707
Si Si3 0.500000 0.692710 0.039222
Si Si4 0.368437 0.342222 0.970668
Si Si5 0.500000 0.250000 0.656019
Si Si6 0.684663 0.153167 0.654333
Si Si7 0.820039 0.553561 0.936491
Si Si8 0.365583 0.250000 0.489667
O O1 0.747462 0.544694 0.908638
O O2 0.648121 0.561101 0.735060
O O3 0.644536 0.500000 0.000000
O O4 0.656603 0.600150 0.012804
O O5 0.250000 0.750000 0.750000
O O6 0.176064 0.698641 0.559737
O O7 0.129798 0.750000 0.800419
O O8 0.500000 0.750000 0.961224
O O9 0.439889 0.662298 0.974735
O O10 0.500000 0.699106 0.230017
O O11 0.367530 0.332850 0.783750
O O12 0.436809 0.250000 0.551594
O O13 0.750000 0.149209 0.750000
O O14 0.668622 0.100694 0.557683
O O15 0.678289 0.200870 0.534626
O O16 0.849885 0.500000 0.000000
#
# Coordination Sequence:
#
# PCOD8300643 Si02
#       8
#    16   8   8  16   4  16  16   8
#     4  10  21  37  57  89 122 159 202 246 305 368
#     4  12  26  39  58  96 131 158 193 257 315 372
#     4  10  20  43  61  84 117 161 217 245 292 365
#     4  12  22  39  64  85 122 166 202 251 302 362
#     4  10  20  42  60  86 112 164 210 252 282 356
#     4  12  21  36  58  90 120 160 198 248 313 369
#     4  10  21  35  57  86 125 160 195 246 303 374
#     4  12  24  38  59  86 126 155 203 252 300 360
#
# _framework density 19.674786999999998
#
# number of rings (size 3 to 8) (size 9 to 14) (size 15 to 20)
#    0.261    0.696    4.348    3.913    4.870    0.696 
#    0.000    0.435    0.000    0.000    0.000    4.261 
#    0.000    0.000    0.000    0.000    0.000    0.000 
#
# Total GULP energy -570046.353156 kJ/mol
# GULP energy per Si atom -12392.312025 kJ/mol
# Density = 1.963001 g / cm^3
# Si number density = 19.674787 Si / 1000 Ang^3
#
#
#
# Elastic Constant Matrix: (Units=GPa)
#
#
# Indices 1 2 3 4 5 6 
#
# 1 66.5082 17.6991 13.8496 0.0000 0.0000 0.0000
# 2 17.6991 154.1227 50.7003 0.0000 0.0000 0.0000
# 3 13.8496 50.7003 116.0119 0.0000 0.0000 0.0000
# 4 0.0000 0.0000 0.0000 15.6940 0.0000 0.0000
# 5 0.0000 0.0000 0.0000 0.0000 19.7964 0.0000
# 6 0.0000 0.0000 0.0000 0.0000 0.0000 48.3442
#
#
#
# Elastic Compliance Matrix: (Units=1/GPa)
#
#
# Indices 1 2 3 4 5 6 
#
# 1 0.015667 -0.001383 -0.001266 0.000000 0.000000 0.000000
# 2 -0.001383 0.007700 -0.003200 0.000000 0.000000 0.000000
# 3 -0.001266 -0.003200 0.010169 0.000000 0.000000 0.000000
# 4 0.000000 0.000000 0.000000 0.063719 0.000000 0.000000
# 5 0.000000 0.000000 0.000000 0.000000 0.050514 0.000000
# 6 0.000000 0.000000 0.000000 0.000000 0.000000 0.020685
#
#
# Mechanical properties :
#
#
# Convention : Reuss Voigt Hill
#
# Bulk Modulus (GPa) = 45.78953 55.68230 50.73592
# Shear Modulus (GPa) = 26.67640 33.72650 30.20145
#
# Velocity S-wave (km/s) = 3.68620 4.14478 3.92220
# Velocity P-wave (km/s) = 6.43748 7.16020 6.80844
#
# Compressibility (1/GPa) = 0.02183905
#
# Stress axis : x y z
#
# Youngs Moduli (GPa) = 63.82695 129.87394 98.33415
#
# Poissons Ratio (x) = 0.17958 0.12450
# Poissons Ratio (y) = 0.08825 0.31466
# Poissons Ratio (z) = 0.08081 0.41559
#
# Static dielectric constant tensor:
#      x y z
#    x 3.216020 0.000000 0.000000 
#    y 0.000000 3.554010 0.000000 
#    z 0.000000 0.000000 3.979080 
# 
# 
# High freq. dielectric constant tensor:
#      x y z
#    x 1.723920 0.000000 0.000000 
#    y 0.000000 1.771130 0.000000 
#    z 0.000000 0.000000 1.784240 
# 
# From -- ./inp_files/14005.got.cif
#   From: 2010.03.12/outbox.cif.g09.slc.cpg/sg74_8_cif.got.tgz:14005.got - 2010.04.16 15:46:19.
