data_PCOD8300031
_publ_section_title
;
Structure prediction by ZEFSAII (Michael W. Deem and Ramdas Pophale) SiO2 
 PCOD8300031
Probable space group: I M M A
;
_chemical_formula_sum "Si O2"
_cell_formula_units_Z 96
_cell_length_a 16.768372
_cell_length_b 18.976773
_cell_length_c 14.978678
_cell_angle_alpha 90.000000
_cell_angle_beta 90.000000
_cell_angle_gamma 90.000000
_cell_volume 4766.358970
_symmetry_space_group_name_H-M "I M M A"
_symmetry_group_IT_number 74
_symmetry_cell_setting 'orthorhombic'
loop_
_space_group_symop_operation_xyz
x,y,z
-x,1/2-y,z
x,-y,-z
-x,1/2+y,-z
-x,-y,-z
x,1/2+y,-z
-x,y,z
x,1/2-y,z
1/2+x,1/2+y,1/2+z
1/2-x,-y,1/2+z
1/2+x,1/2-y,1/2-z
1/2-x,y,1/2-z
1/2-x,1/2-y,1/2-z
1/2+x,y,1/2-z
1/2-x,1/2+y,1/2+z
1/2+x,-y,1/2+z
loop_
_atom_site_type_symbol
_atom_site_label
_atom_site_fract_x
_atom_site_fract_y
_atom_site_fract_z
Si Si1 0.794681 0.668922 0.843646
Si Si2 0.588785 0.531937 0.907677
Si Si3 0.157900 0.952195 0.251938
Si Si4 0.905544 0.960848 0.906992
Si Si5 0.590543 0.827762 0.151110
Si Si6 0.143502 0.327413 0.460031
O O1 0.828614 0.750000 0.834032
O O2 0.750000 0.647513 0.750000
O O3 0.861422 0.612448 0.876898
O O4 0.732640 0.667074 0.924392
O O5 0.500000 0.503295 0.888289
O O6 0.647368 0.509227 0.829893
O O7 0.621784 0.500000 0.000000
O O8 0.587466 0.616480 0.910529
O O9 0.250000 0.934066 0.250000
O O10 0.110600 0.880582 0.270079
O O11 0.120389 0.979938 0.161918
O O12 0.000000 0.944919 0.903611
O O13 0.881951 0.000000 0.000000
O O14 0.500000 0.837924 0.118219
O O15 0.604887 0.750000 0.189845
O O16 0.646406 0.842985 0.065785
O O17 0.106783 0.250000 0.441853
#
# Coordination Sequence:
#
# PCOD8300031 Si02
#       6
#    16  16  16  16  16  16
#     4  10  22  42  66  94 128 167 214 268 326 383
#     4  11  21  35  59  89 121 158 201 248 305 369
#     4  12  25  39  62  91 123 165 206 258 311 371
#     4  11  25  43  64  90 124 170 222 269 313 368
#     4  10  21  39  62  90 126 161 196 249 313 375
#     4  10  20  34  59  93 126 159 197 246 309 376
#
# _framework density 20.141159999999999
#
# number of rings (size 3 to 8) (size 9 to 14) (size 15 to 20)
#    0.000    1.333    1.667    4.500    2.333    3.000 
#    0.000    1.667    0.000    9.000    0.000    0.000 
#    0.000    0.000    0.000    0.000    0.000    0.000 
#
# Total GULP energy -594870.371855 kJ/mol
# GULP energy per Si atom -12393.132747 kJ/mol
# Density = 2.009532 g / cm^3
# Si number density = 20.141160 Si / 1000 Ang^3
#
#
#
# Elastic Constant Matrix: (Units=GPa)
#
#
# Indices 1 2 3 4 5 6 
#
# 1 80.7023 46.7045 51.9372 0.0000 0.0000 0.0000
# 2 46.7045 164.8488 64.9051 0.0000 0.0000 0.0000
# 3 51.9372 64.9051 128.5371 0.0000 0.0000 0.0000
# 4 0.0000 0.0000 0.0000 34.1123 0.0000 0.0000
# 5 0.0000 0.0000 0.0000 0.0000 19.8854 0.0000
# 6 0.0000 0.0000 0.0000 0.0000 0.0000 34.0806
#
#
#
# Elastic Compliance Matrix: (Units=1/GPa)
#
#
# Indices 1 2 3 4 5 6 
#
# 1 0.017686 -0.002742 -0.005762 0.000000 0.000000 0.000000
# 2 -0.002742 0.007997 -0.002930 0.000000 0.000000 0.000000
# 3 -0.005762 -0.002930 0.011587 0.000000 0.000000 0.000000
# 4 0.000000 0.000000 0.000000 0.029315 0.000000 0.000000
# 5 0.000000 0.000000 0.000000 0.000000 0.050288 0.000000
# 6 0.000000 0.000000 0.000000 0.000000 0.000000 0.029342
#
#
# Mechanical properties :
#
#
# Convention : Reuss Voigt Hill
#
# Bulk Modulus (GPa) = 69.43165 77.90909 73.67037
# Shear Modulus (GPa) = 28.75480 31.65177 30.20328
#
# Velocity S-wave (km/s) = 3.78254 3.96851 3.87664
# Velocity P-wave (km/s) = 7.32285 7.73074 7.52956
#
# Compressibility (1/GPa) = 0.01440265
#
# Stress axis : x y z
#
# Youngs Moduli (GPa) = 56.54106 125.05208 86.30089
#
# Poissons Ratio (x) = 0.34293 0.49724
# Poissons Ratio (y) = 0.15505 0.25285
# Poissons Ratio (z) = 0.32577 0.36639
#
# Static dielectric constant tensor:
#      x y z
#    x 3.565410 0.000000 0.000000 
#    y 0.000000 4.064290 0.000000 
#    z 0.000000 0.000000 3.705240 
# 
# 
# High freq. dielectric constant tensor:
#      x y z
#    x 1.772650 0.000000 0.000000 
#    y 0.000000 1.809400 0.000000 
#    z 0.000000 0.000000 1.782220 
# 
# From -- ./inp_files/32394.got.cif
#   From: 2010.03.12/outbox.cif.g09.slc.cpg/sg74_17_cif.got.tgz:32394.got - 2010.04.16 15:46:19.
