data_PCOD8300137
_publ_section_title
;
Structure prediction by ZEFSAII (Michael W. Deem and Ramdas Pophale) SiO2 
 PCOD8300137
Probable space group: I M M A
;
_chemical_formula_sum "Si O2"
_cell_formula_units_Z 88
_cell_length_a 8.832401
_cell_length_b 21.950550
_cell_length_c 24.633144
_cell_angle_alpha 90.000000
_cell_angle_beta 90.000000
_cell_angle_gamma 90.000000
_cell_volume 4775.776898
_symmetry_space_group_name_H-M "I M M A"
_symmetry_group_IT_number 74
_symmetry_cell_setting 'orthorhombic'
loop_
_space_group_symop_operation_xyz
x,y,z
-x,1/2-y,z
x,-y,-z
-x,1/2+y,-z
-x,-y,-z
x,1/2+y,-z
-x,y,z
x,1/2-y,z
1/2+x,1/2+y,1/2+z
1/2-x,-y,1/2+z
1/2+x,1/2-y,1/2-z
1/2-x,y,1/2-z
1/2-x,1/2-y,1/2-z
1/2+x,y,1/2-z
1/2-x,1/2+y,1/2+z
1/2+x,-y,1/2+z
loop_
_atom_site_type_symbol
_atom_site_label
_atom_site_fract_x
_atom_site_fract_y
_atom_site_fract_z
Si Si1 0.823215 0.179407 0.402859
Si Si2 0.175408 0.463255 0.806278
Si Si3 0.178942 0.250000 0.690988
Si Si4 0.677590 0.679516 0.485037
Si Si5 0.179264 0.134423 0.621581
Si Si6 0.324044 0.605440 0.693465
O O1 0.788498 0.250000 0.391570
O O2 0.739650 0.157051 0.457176
O O3 0.759480 0.141443 0.353316
O O4 0.000000 0.166826 0.409725
O O5 0.250000 0.442341 0.750000
O O6 0.255375 0.428078 0.855051
O O7 0.201461 0.534233 0.817120
O O8 0.000000 0.445822 0.803716
O O9 0.250000 0.250000 0.750000
O O10 0.235756 0.190750 0.658408
O O11 0.000000 0.250000 0.697079
O O12 0.500000 0.667687 0.482770
O O13 0.719448 0.750000 0.475967
O O14 0.758613 0.640404 0.439015
O O15 0.000000 0.131255 0.619548
O O16 0.500000 0.622766 0.694596
O O17 0.250000 0.625545 0.750000
#
# Coordination Sequence:
#
# PCOD8300137 Si02
#       6
#    16  16   8  16  16  16
#     4  10  21  37  59  86 115 145 179 223 273 329
#     4  10  21  37  56  80 109 145 187 229 276 329
#     4  10  22  34  48  74 108 142 181 230 277 320
#     4  10  20  35  56  81 110 147 186 227 276 329
#     4  11  21  35  54  78 109 147 188 231 277 327
#     4  10  21  38  60  84 113 146 182 225 272 329
#
# _framework density 18.426321999999999
#
# number of rings (size 3 to 8) (size 9 to 14) (size 15 to 20)
#    0.000    1.818    0.909    3.273    0.000    7.273 
#    0.000    0.909    0.000    5.455    0.000    0.000 
#    0.000    0.000    0.000    0.000    0.000    0.000 
#
# Total GULP energy -545865.303381 kJ/mol
# GULP energy per Si atom -12406.029622 kJ/mol
# Density = 1.838438 g / cm^3
# Si number density = 18.426322 Si / 1000 Ang^3
#
#
#
# Elastic Constant Matrix: (Units=GPa)
#
#
# Indices 1 2 3 4 5 6 
#
# 1 94.0191 38.6927 55.9696 0.0000 0.0000 0.0000
# 2 38.6927 55.0148 56.6432 0.0000 0.0000 0.0000
# 3 55.9696 56.6432 149.5581 0.0000 0.0000 0.0000
# 4 0.0000 0.0000 0.0000 35.0873 0.0000 0.0000
# 5 0.0000 0.0000 0.0000 0.0000 42.8729 0.0000
# 6 0.0000 0.0000 0.0000 0.0000 0.0000 30.0835
#
#
#
# Elastic Compliance Matrix: (Units=1/GPa)
#
#
# Indices 1 2 3 4 5 6 
#
# 1 0.015636 -0.008151 -0.002765 0.000000 0.000000 0.000000
# 2 -0.008151 0.034044 -0.009844 0.000000 0.000000 0.000000
# 3 -0.002765 -0.009844 0.011449 0.000000 0.000000 0.000000
# 4 0.000000 0.000000 0.000000 0.028500 0.000000 0.000000
# 5 0.000000 0.000000 0.000000 0.000000 0.023325 0.000000
# 6 0.000000 0.000000 0.000000 0.000000 0.000000 0.033241
#
#
# Mechanical properties :
#
#
# Convention : Reuss Voigt Hill
#
# Bulk Modulus (GPa) = 50.98960 66.80033 58.89496
# Shear Modulus (GPa) = 25.73989 31.42785 28.58387
#
# Velocity S-wave (km/s) = 3.74158 4.13437 3.94287
# Velocity P-wave (km/s) = 6.81162 7.68908 7.26361
#
# Compressibility (1/GPa) = 0.01961184
#
# Stress axis : x y z
#
# Youngs Moduli (GPa) = 63.95382 29.37338 87.34307
#
# Poissons Ratio (x) = 0.23942 0.24147
# Poissons Ratio (y) = 0.52127 0.85977
# Poissons Ratio (z) = 0.17681 0.28914
#
# Static dielectric constant tensor:
#      x y z
#    x 3.516410 0.000000 0.000000 
#    y 0.000000 3.306970 0.000000 
#    z 0.000000 0.000000 3.431170 
# 
# 
# High freq. dielectric constant tensor:
#      x y z
#    x 1.731850 0.000000 0.000000 
#    y 0.000000 1.701240 0.000000 
#    z 0.000000 0.000000 1.723880 
# 
# From -- ./inp_files/48732.got.cif
#   From: 2010.03.12/outbox.cif.g09.slc.cpg/sg74_25_cif.got.tgz:48732.got - 2010.04.16 15:46:19.
