data_PCOD8300750
_publ_section_title
;
Structure prediction by ZEFSAII (Michael W. Deem and Ramdas Pophale) SiO2 
 PCOD8300750
Probable space group: I M M A
;
_chemical_formula_sum "Si O2"
_cell_formula_units_Z 72
_cell_length_a 24.231947
_cell_length_b 29.051986
_cell_length_c 5.230276
_cell_angle_alpha 90.000000
_cell_angle_beta 90.000000
_cell_angle_gamma 90.000000
_cell_volume 3682.042048
_symmetry_space_group_name_H-M "I M M A"
_symmetry_group_IT_number 74
_symmetry_cell_setting 'orthorhombic'
loop_
_space_group_symop_operation_xyz
x,y,z
-x,1/2-y,z
x,-y,-z
-x,1/2+y,-z
-x,-y,-z
x,1/2+y,-z
-x,y,z
x,1/2-y,z
1/2+x,1/2+y,1/2+z
1/2-x,-y,1/2+z
1/2+x,1/2-y,1/2-z
1/2-x,y,1/2-z
1/2-x,1/2-y,1/2-z
1/2+x,y,1/2-z
1/2-x,1/2+y,1/2+z
1/2+x,-y,1/2+z
loop_
_atom_site_type_symbol
_atom_site_label
_atom_site_fract_x
_atom_site_fract_y
_atom_site_fract_z
Si Si1 0.215718 0.803722 0.498478
Si Si2 0.611274 0.500000 0.500000
Si Si3 0.936321 0.595785 0.021138
Si Si4 0.802536 0.544473 0.622854
Si Si5 0.875039 0.123025 0.498651
O O1 0.201947 0.750000 0.485378
O O2 0.250000 0.819613 0.250000
O O3 0.156829 0.828840 0.510292
O O4 0.250000 0.816556 0.750000
O O5 0.572543 0.458058 0.593390
O O6 0.648673 0.477760 0.284903
O O7 0.918449 0.625011 0.270071
O O8 0.000000 0.605116 0.965365
O O9 0.902912 0.613342 0.774636
O O10 0.773287 0.500000 0.500000
O O11 0.750000 0.570353 0.750000
O O12 0.830620 0.582216 0.438779
#
# Coordination Sequence:
#
# PCOD8300750 Si02
#       5
#    16   8  16  16  16
#     4  10  21  39  64  93 121 150 185 228 284 352
#     4  10  21  36  50  78 110 154 199 238 282 330
#     4  11  23  39  59  80 112 154 204 251 285 327
#     4  11  20  32  50  78 117 151 182 225 281 352
#     4  11  23  38  59  86 115 153 193 237 292 341
#
# _framework density 19.554368
#
# number of rings (size 3 to 8) (size 9 to 14) (size 15 to 20)
#    0.000    1.333    3.333    3.000    0.000    2.667 
#    0.000    3.333    0.000    4.000    0.000    0.000 
#    0.000    0.000    0.000    0.000    0.000    0.000 
#
# Total GULP energy -446208.564016 kJ/mol
# GULP energy per Si atom -12394.682334 kJ/mol
# Density = 1.950986 g / cm^3
# Si number density = 19.554368 Si / 1000 Ang^3
#
#
#
# Elastic Constant Matrix: (Units=GPa)
#
#
# Indices 1 2 3 4 5 6 
#
# 1 113.7889 48.8092 36.7585 0.0000 0.0000 0.0000
# 2 48.8092 78.0823 31.3667 0.0000 0.0000 0.0000
# 3 36.7585 31.3667 119.4680 0.0000 0.0000 0.0000
# 4 0.0000 0.0000 0.0000 14.5355 0.0000 0.0000
# 5 0.0000 0.0000 0.0000 0.0000 28.2065 0.0000
# 6 0.0000 0.0000 0.0000 0.0000 0.0000 43.3580
#
#
#
# Elastic Compliance Matrix: (Units=1/GPa)
#
#
# Indices 1 2 3 4 5 6 
#
# 1 0.012418 -0.006962 -0.001993 0.000000 0.000000 0.000000
# 2 -0.006962 0.018220 -0.002642 0.000000 0.000000 0.000000
# 3 -0.001993 -0.002642 0.009677 0.000000 0.000000 0.000000
# 4 0.000000 0.000000 0.000000 0.068797 0.000000 0.000000
# 5 0.000000 0.000000 0.000000 0.000000 0.035453 0.000000
# 6 0.000000 0.000000 0.000000 0.000000 0.000000 0.023064
#
#
# Mechanical properties :
#
#
# Convention : Reuss Voigt Hill
#
# Bulk Modulus (GPa) = 58.40342 60.57866 59.49104
# Shear Modulus (GPa) = 25.44138 30.18034 27.81086
#
# Velocity S-wave (km/s) = 3.61093 3.93288 3.77534
# Velocity P-wave (km/s) = 6.87875 7.18820 7.03518
#
# Compressibility (1/GPa) = 0.01712228
#
# Stress axis : x y z
#
# Youngs Moduli (GPa) = 80.52569 54.88422 103.33529
#
# Poissons Ratio (x) = 0.38211 0.20595
# Poissons Ratio (y) = 0.56063 0.27297
# Poissons Ratio (z) = 0.16049 0.14498
#
# Static dielectric constant tensor:
#      x y z
#    x 3.469210 0.000000 0.000000 
#    y 0.000000 3.681010 0.000000 
#    z 0.000000 0.000000 3.474770 
# 
# 
# High freq. dielectric constant tensor:
#      x y z
#    x 1.759370 0.000000 0.000000 
#    y 0.000000 1.747220 0.000000 
#    z 0.000000 0.000000 1.766650 
# 
# From -- ./inp_files/3749.got.cif
#   From: 2010.03.12/outbox.cif.g09.slc.cpg/sg74_2_cif.got.tgz:3749.got - 2010.04.16 15:46:19.
