data_PCOD8300793
_publ_section_title
;
Structure prediction by ZEFSAII (Michael W. Deem and Ramdas Pophale) SiO2 
 PCOD8300793
Probable space group: I M M A
;
_chemical_formula_sum "Si O2"
_cell_formula_units_Z 112
_cell_length_a 13.814433
_cell_length_b 30.705597
_cell_length_c 11.573828
_cell_angle_alpha 90.000000
_cell_angle_beta 90.000000
_cell_angle_gamma 90.000000
_cell_volume 4909.391135
_symmetry_space_group_name_H-M "I M M A"
_symmetry_group_IT_number 74
_symmetry_cell_setting 'orthorhombic'
loop_
_space_group_symop_operation_xyz
x,y,z
-x,1/2-y,z
x,-y,-z
-x,1/2+y,-z
-x,-y,-z
x,1/2+y,-z
-x,y,z
x,1/2-y,z
1/2+x,1/2+y,1/2+z
1/2-x,-y,1/2+z
1/2+x,1/2-y,1/2-z
1/2-x,y,1/2-z
1/2-x,1/2-y,1/2-z
1/2+x,y,1/2-z
1/2-x,1/2+y,1/2+z
1/2+x,-y,1/2+z
loop_
_atom_site_type_symbol
_atom_site_label
_atom_site_fract_x
_atom_site_fract_y
_atom_site_fract_z
Si Si1 0.147316 0.151867 0.288575
Si Si2 0.198809 0.042130 0.073997
Si Si3 0.609332 0.199915 0.439811
Si Si4 0.191475 0.877810 0.075438
Si Si5 0.110007 0.702261 0.490005
Si Si6 0.891680 0.370948 0.676565
Si Si7 0.105242 0.557055 0.687165
O O1 0.250000 0.132247 0.250000
O O2 0.106651 0.185379 0.194228
O O3 0.165639 0.176133 0.409820
O O4 0.083852 0.108870 0.304659
O O5 0.141542 0.036835 0.192791
O O6 0.314853 0.046151 0.090588
O O7 0.154955 0.084828 0.010709
O O8 0.174640 0.000000 0.000000
O O9 0.500000 0.195506 0.488234
O O10 0.644930 0.250000 0.447261
O O11 0.681448 0.169691 0.515541
O O12 0.123892 0.876038 0.187783
O O13 0.301950 0.892430 0.107320
O O14 0.155975 0.750000 0.476321
O O15 0.114899 0.679422 0.364277
O O16 0.000000 0.704881 0.533699
O O17 0.000000 0.389498 0.644811
O O18 0.000000 0.536280 0.655982
#
# Coordination Sequence:
#
# PCOD8300793 Si02
#       7
#    16  16  16  16  16  16  16
#     4  12  21  36  60  94 132 177 226 278 341 401
#     4  11  25  46  69 101 137 173 225 286 344 413
#     4  11  23  38  62  97 134 175 225 281 340 409
#     4  11  23  43  67  92 130 179 222 280 350 403
#     4  10  21  36  55  85 127 174 225 279 332 395
#     4  10  23  40  62  90 123 173 229 278 333 402
#     4  11  23  43  70 100 137 179 219 276 349 413
#
# _framework density 22.813420000000001
#
# number of rings (size 3 to 8) (size 9 to 14) (size 15 to 20)
#    0.000    1.143    2.857    3.857    0.000    9.714 
#    0.000    4.286    0.000    0.000    0.000    0.000 
#    0.000    0.000    0.000    0.000    0.000    0.000 
#
# Total GULP energy -694108.673008 kJ/mol
# GULP energy per Si atom -12394.797732 kJ/mol
# Density = 2.276150 g / cm^3
# Si number density = 22.813420 Si / 1000 Ang^3
#
#
#
# Elastic Constant Matrix: (Units=GPa)
#
#
# Indices 1 2 3 4 5 6 
#
# 1 98.7284 -7.2532 7.7699 0.0006 -0.0004 -0.0001
# 2 -7.2532 95.8152 25.1954 -0.0027 -0.0002 0.0003
# 3 7.7699 25.1954 95.5284 -0.0115 0.0008 0.0027
# 4 0.0006 -0.0027 -0.0115 34.0587 0.0006 0.0011
# 5 -0.0004 -0.0002 0.0008 0.0006 26.8186 0.0001
# 6 -0.0001 0.0003 0.0027 0.0011 0.0001 13.1083
#
#
#
# Elastic Compliance Matrix: (Units=1/GPa)
#
#
# Indices 1 2 3 4 5 6 
#
# 1 0.010296 0.001074 -0.001121 0.000000 0.000000 0.000000
# 2 0.001074 0.011327 -0.003075 0.000000 0.000000 0.000000
# 3 -0.001121 -0.003075 0.011370 0.000004 0.000000 -0.000002
# 4 0.000000 0.000000 0.000004 0.029361 -0.000001 -0.000002
# 5 0.000000 0.000000 0.000000 -0.000001 0.037288 0.000000
# 6 0.000000 0.000000 -0.000002 -0.000002 0.000000 0.076287
#
#
# Mechanical properties :
#
#
# Convention : Reuss Voigt Hill
#
# Bulk Modulus (GPa) = 37.38319 37.94404 37.66361
# Shear Modulus (GPa) = 26.16592 32.42110 29.29351
#
# Velocity S-wave (km/s) = 3.39034 3.77389 3.58725
# Velocity P-wave (km/s) = 5.63453 5.97144 5.80543
#
# Compressibility (1/GPa) = 0.02674999
#
# Stress axis : x y z
#
# Youngs Moduli (GPa) = 97.12600 88.28781 87.94915
#
# Poissons Ratio (x) = -0.09483 0.09857
# Poissons Ratio (y) = -0.10432 0.27042
# Poissons Ratio (z) = 0.10885 0.27146
#
# Static dielectric constant tensor:
#      x y z
#    x 4.245900 0.000000 0.000000 
#    y 0.000000 3.783930 0.000000 
#    z 0.000000 0.000000 4.041700 
# 
# 
# High freq. dielectric constant tensor:
#      x y z
#    x 1.917200 0.000000 0.000000 
#    y 0.000000 1.871110 0.000000 
#    z 0.000000 0.000000 1.896460 
# 
# From -- ./inp_files/21115.got.cif
#   From: 2010.03.12/outbox.cif.g09.slc.cpg/sg74_11_cif.got.tgz:21115.got - 2010.04.16 15:46:19.
