data_PCOD8300779
_publ_section_title
;
Structure prediction by ZEFSAII (Michael W. Deem and Ramdas Pophale) SiO2 
 PCOD8300779
Probable space group: I M M A
;
_chemical_formula_sum "Si O2"
_cell_formula_units_Z 80
_cell_length_a 27.044264
_cell_length_b 27.656591
_cell_length_c 4.991975
_cell_angle_alpha 90.000000
_cell_angle_beta 90.000000
_cell_angle_gamma 90.000000
_cell_volume 3733.758426
_symmetry_space_group_name_H-M "I M M A"
_symmetry_group_IT_number 74
_symmetry_cell_setting 'orthorhombic'
loop_
_space_group_symop_operation_xyz
x,y,z
-x,1/2-y,z
x,-y,-z
-x,1/2+y,-z
-x,-y,-z
x,1/2+y,-z
-x,y,z
x,1/2-y,z
1/2+x,1/2+y,1/2+z
1/2-x,-y,1/2+z
1/2+x,1/2-y,1/2-z
1/2-x,y,1/2-z
1/2-x,1/2-y,1/2-z
1/2+x,y,1/2-z
1/2-x,1/2+y,1/2+z
1/2+x,-y,1/2+z
loop_
_atom_site_type_symbol
_atom_site_label
_atom_site_fract_x
_atom_site_fract_y
_atom_site_fract_z
Si Si1 0.443897 0.301970 0.138554
Si Si2 0.215876 0.804407 0.994443
Si Si3 0.056193 0.862330 0.126189
Si Si4 0.196548 0.447443 0.384393
Si Si5 0.656839 0.102374 0.610066
O O1 0.500000 0.294477 0.229719
O O2 0.416196 0.250000 0.161921
O O3 0.423932 0.342538 0.340297
O O4 0.440820 0.318562 0.833679
O O5 0.194341 0.750000 0.943005
O O6 0.250000 0.803609 0.250000
O O7 0.171600 0.842906 0.026105
O O8 0.250000 0.821832 0.750000
O O9 0.098886 0.900905 0.201574
O O10 0.000000 0.884438 0.118597
O O11 0.184317 0.500000 0.500000
O O12 0.250000 0.443975 0.250000
O O13 0.191477 0.411943 0.638724
O O14 0.160105 0.433882 0.142068
#
# Coordination Sequence:
#
# PCOD8300779 Si02
#       5
#    16  16  16  16  16
#     4   9  17  31  51  76 112 159 210 261 302 334
#     4  10  21  36  54  81 119 159 197 236 284 354
#     4  10  21  36  55  83 120 163 208 253 301 354
#     4  12  25  43  68  96 121 146 189 254 320 374
#     4  12  23  39  64  91 123 163 202 244 304 367
#
# _framework density 21.426134000000001
#
# number of rings (size 3 to 8) (size 9 to 14) (size 15 to 20)
#    0.000    1.400    0.000    7.200    0.000    4.000 
#    0.000    2.000    0.000    3.600    0.000    0.000 
#    0.000    0.000    0.000    0.000    0.000    0.000 
#
# Total GULP energy -495705.202730 kJ/mol
# GULP energy per Si atom -12392.630068 kJ/mol
# Density = 2.137737 g / cm^3
# Si number density = 21.426134 Si / 1000 Ang^3
#
#
#
# Elastic Constant Matrix: (Units=GPa)
#
#
# Indices 1 2 3 4 5 6 
#
# 1 98.9578 50.3169 23.2929 0.0000 0.0000 0.0000
# 2 50.3169 90.1243 30.1996 0.0000 0.0000 0.0000
# 3 23.2929 30.1996 123.2894 0.0000 0.0000 0.0000
# 4 0.0000 0.0000 0.0000 31.9436 0.0000 0.0000
# 5 0.0000 0.0000 0.0000 0.0000 22.3434 0.0000
# 6 0.0000 0.0000 0.0000 0.0000 0.0000 12.0840
#
#
#
# Elastic Compliance Matrix: (Units=1/GPa)
#
#
# Indices 1 2 3 4 5 6 
#
# 1 0.014184 -0.007649 -0.000806 0.000000 0.000000 0.000000
# 2 -0.007649 0.016213 -0.002526 0.000000 0.000000 0.000000
# 3 -0.000806 -0.002526 0.008882 0.000000 0.000000 0.000000
# 4 0.000000 0.000000 0.000000 0.031305 0.000000 0.000000
# 5 0.000000 0.000000 0.000000 0.000000 0.044756 0.000000
# 6 0.000000 0.000000 0.000000 0.000000 0.000000 0.082754
#
#
# Mechanical properties :
#
#
# Convention : Reuss Voigt Hill
#
# Bulk Modulus (GPa) = 57.74879 57.77668 57.76274
# Shear Modulus (GPa) = 22.14057 27.17834 24.65946
#
# Velocity S-wave (km/s) = 3.21805 3.56542 3.39618
# Velocity P-wave (km/s) = 6.38896 6.63126 6.51124
#
# Compressibility (1/GPa) = 0.01731638
#
# Stress axis : x y z
#
# Youngs Moduli (GPa) = 70.50006 61.67968 112.58606
#
# Poissons Ratio (x) = 0.47179 0.09077
# Poissons Ratio (y) = 0.53926 0.28441
# Poissons Ratio (z) = 0.05684 0.15581
#
# Static dielectric constant tensor:
#      x y z
#    x 3.761240 0.000000 0.000000 
#    y 0.000000 3.959120 0.000000 
#    z 0.000000 0.000000 4.115620 
# 
# 
# High freq. dielectric constant tensor:
#      x y z
#    x 1.825070 0.000000 0.000000 
#    y 0.000000 1.813740 0.000000 
#    z 0.000000 0.000000 1.865440 
# 
# From -- ./inp_files/5202.got.cif
#   From: 2010.03.12/outbox.cif.g09.slc.cpg/sg74_3_cif.got.tgz:5202.got - 2010.04.16 15:46:19.
