data_PCOD8300883
_publ_section_title
;
Structure prediction by ZEFSAII (Michael W. Deem and Ramdas Pophale) SiO2 
 PCOD8300883
Probable space group: I M M A
;
_chemical_formula_sum "Si O2"
_cell_formula_units_Z 112
_cell_length_a 14.183268
_cell_length_b 14.387721
_cell_length_c 25.962554
_cell_angle_alpha 90.000000
_cell_angle_beta 90.000000
_cell_angle_gamma 90.000000
_cell_volume 5298.046060
_symmetry_space_group_name_H-M "I M M A"
_symmetry_group_IT_number 74
_symmetry_cell_setting 'orthorhombic'
loop_
_space_group_symop_operation_xyz
x,y,z
-x,1/2-y,z
x,-y,-z
-x,1/2+y,-z
-x,-y,-z
x,1/2+y,-z
-x,y,z
x,1/2-y,z
1/2+x,1/2+y,1/2+z
1/2-x,-y,1/2+z
1/2+x,1/2-y,1/2-z
1/2-x,y,1/2-z
1/2-x,1/2-y,1/2-z
1/2+x,y,1/2-z
1/2-x,1/2+y,1/2+z
1/2+x,-y,1/2+z
loop_
_atom_site_type_symbol
_atom_site_label
_atom_site_fract_x
_atom_site_fract_y
_atom_site_fract_z
Si Si1 0.391704 0.502758 0.782884
Si Si2 0.213448 0.903102 0.471204
Si Si3 0.725240 0.638936 0.843513
Si Si4 0.893639 0.355472 0.917631
Si Si5 0.607677 0.991419 0.665678
Si Si6 0.897339 0.852012 0.563557
Si Si7 0.110432 0.856941 0.368614
O O1 0.500000 0.530379 0.792746
O O2 0.328852 0.593664 0.795053
O O3 0.373591 0.474676 0.723874
O O4 0.362217 0.414166 0.817381
O O5 0.322412 0.872105 0.465362
O O6 0.154399 0.836992 0.508851
O O7 0.164862 0.904366 0.415739
O O8 0.206267 0.000000 0.500000
O O9 0.730673 0.750000 0.837596
O O10 0.830581 0.598679 0.848255
O O11 0.670017 0.600594 0.894112
O O12 0.884091 0.250000 0.897684
O O13 0.865669 0.421851 0.870418
O O14 0.000000 0.375381 0.937350
O O15 0.500000 0.960579 0.657528
O O16 0.917249 0.750000 0.585354
O O17 0.000000 0.903595 0.558620
O O18 0.143099 0.750000 0.361611
O O19 0.000000 0.862184 0.380074
#
# Coordination Sequence:
#
# PCOD8300883 Si02
#       7
#    16  16  16  16  16  16  16
#     4  10  21  37  59  88 120 155 197 244 296 354
#     4  12  23  35  56  84 116 154 192 233 284 343
#     4  11  23  39  59  84 118 159 201 247 297 349
#     4  10  22  41  64  88 115 151 197 247 298 352
#     4  10  22  40  61  86 117 154 198 247 298 353
#     4  10  21  37  57  81 110 145 185 229 280 340
#     4  10  21  37  59  90 126 159 193 238 293 353
#
# _framework density 21.139869000000001
#
# number of rings (size 3 to 8) (size 9 to 14) (size 15 to 20)
#    0.000    1.571    0.000    5.143    0.000    6.571 
#    0.000    5.000    0.000    4.286    0.000    0.000 
#    0.000    0.000    0.000    0.000    0.000    0.000 
#
# Total GULP energy -694272.825123 kJ/mol
# GULP energy per Si atom -12397.729020 kJ/mol
# Density = 2.109175 g / cm^3
# Si number density = 21.139869 Si / 1000 Ang^3
#
#
#
# Elastic Constant Matrix: (Units=GPa)
#
#
# Indices 1 2 3 4 5 6 
#
# 1 131.7957 56.1056 67.1999 0.0000 0.0000 0.0000
# 2 56.1056 137.9086 41.2880 0.0000 0.0000 0.0000
# 3 67.1999 41.2880 99.4244 0.0000 0.0000 0.0000
# 4 0.0000 0.0000 0.0000 19.5623 0.0000 0.0000
# 5 0.0000 0.0000 0.0000 0.0000 35.1001 0.0000
# 6 0.0000 0.0000 0.0000 0.0000 0.0000 26.8085
#
#
#
# Elastic Compliance Matrix: (Units=1/GPa)
#
#
# Indices 1 2 3 4 5 6 
#
# 1 0.012533 -0.002927 -0.007255 0.000000 0.000000 0.000000
# 2 -0.002927 0.008964 -0.001744 0.000000 0.000000 0.000000
# 3 -0.007255 -0.001744 0.015686 0.000000 0.000000 0.000000
# 4 0.000000 0.000000 0.000000 0.051119 0.000000 0.000000
# 5 0.000000 0.000000 0.000000 0.000000 0.028490 0.000000
# 6 0.000000 0.000000 0.000000 0.000000 0.000000 0.037302
#
#
# Mechanical properties :
#
#
# Convention : Reuss Voigt Hill
#
# Bulk Modulus (GPa) = 75.01836 77.59060 76.30448
# Shear Modulus (GPa) = 27.41386 29.92987 28.67187
#
# Velocity S-wave (km/s) = 3.60500 3.76680 3.68678
# Velocity P-wave (km/s) = 7.27267 7.46334 7.36862
#
# Compressibility (1/GPa) = 0.01333007
#
# Stress axis : x y z
#
# Youngs Moduli (GPa) = 79.79120 111.55658 63.75034
#
# Poissons Ratio (x) = 0.32647 0.46254
# Poissons Ratio (y) = 0.23351 0.11121
# Poissons Ratio (z) = 0.57892 0.19461
#
# Static dielectric constant tensor:
#      x y z
#    x 4.179730 0.000000 0.000000 
#    y 0.000000 3.759780 0.000000 
#    z 0.000000 0.000000 3.894370 
# 
# 
# High freq. dielectric constant tensor:
#      x y z
#    x 1.845640 0.000000 0.000000 
#    y 0.000000 1.825980 0.000000 
#    z 0.000000 0.000000 1.820730 
# 
# From -- ./inp_files/60196.got.cif
#   From: 2010.03.12/outbox.cif.g09.slc.cpg/sg74_31_cif.got.tgz:60196.got - 2010.04.16 15:46:19.
