data_PCOD8300194
_publ_section_title
;
Structure prediction by ZEFSAII (Michael W. Deem and Ramdas Pophale) SiO2 
 PCOD8300194
Probable space group: I M M A
;
_chemical_formula_sum "Si O2"
_cell_formula_units_Z 64
_cell_length_a 16.515821
_cell_length_b 19.651634
_cell_length_c 9.581136
_cell_angle_alpha 90.000000
_cell_angle_beta 90.000000
_cell_angle_gamma 90.000000
_cell_volume 3109.680993
_symmetry_space_group_name_H-M "I M M A"
_symmetry_group_IT_number 74
_symmetry_cell_setting 'orthorhombic'
loop_
_space_group_symop_operation_xyz
x,y,z
-x,1/2-y,z
x,-y,-z
-x,1/2+y,-z
-x,-y,-z
x,1/2+y,-z
-x,y,z
x,1/2-y,z
1/2+x,1/2+y,1/2+z
1/2-x,-y,1/2+z
1/2+x,1/2-y,1/2-z
1/2-x,y,1/2-z
1/2-x,1/2-y,1/2-z
1/2+x,y,1/2-z
1/2-x,1/2+y,1/2+z
1/2+x,-y,1/2+z
loop_
_atom_site_type_symbol
_atom_site_label
_atom_site_fract_x
_atom_site_fract_y
_atom_site_fract_z
Si Si1 0.906294 0.038657 0.369850
Si Si2 0.594568 0.826728 0.450699
Si Si3 0.675168 0.039424 0.644588
Si Si4 0.596204 0.677264 0.770807
O O1 0.866597 0.114418 0.358567
O O2 0.000000 0.047605 0.403334
O O3 0.863742 0.000000 0.500000
O O4 0.897547 0.999376 0.223690
O O5 0.500000 0.845193 0.432557
O O6 0.610770 0.750000 0.392783
O O7 0.649410 0.881976 0.371430
O O8 0.621716 0.830335 0.610801
O O9 0.750000 0.034238 0.750000
O O10 0.692616 0.000000 0.500000
O O11 0.500000 0.675983 0.779264
O O12 0.628654 0.750000 0.829743
#
# Coordination Sequence:
#
# PCOD8300194 Si02
#       4
#    16  16  16  16
#     4  10  20  35  57  86 116 148 194 248 299 352
#     4   9  18  35  62  92 115 145 196 248 297 355
#     4  12  24  38  57  82 120 163 200 242 292 349
#     4   8  14  28  54  85 113 143 183 232 286 346
#
# _framework density 20.580888999999999
#
# number of rings (size 3 to 8) (size 9 to 14) (size 15 to 20)
#    0.000    2.250    2.500    3.000    0.000    1.500 
#    0.000    1.250    0.000   10.500    0.000    0.000 
#    0.000    0.000    0.000    0.000    0.000    0.000 
#
# Total GULP energy -396488.315458 kJ/mol
# GULP energy per Si atom -12390.259858 kJ/mol
# Density = 2.053405 g / cm^3
# Si number density = 20.580889 Si / 1000 Ang^3
#
#
#
# Elastic Constant Matrix: (Units=GPa)
#
#
# Indices 1 2 3 4 5 6 
#
# 1 25.4605 24.2639 22.9498 0.0000 0.0000 0.0000
# 2 24.2639 218.6940 83.1594 0.0000 0.0000 0.0000
# 3 22.9498 83.1594 117.0813 0.0000 0.0000 0.0000
# 4 0.0000 0.0000 0.0000 37.7854 0.0000 0.0000
# 5 0.0000 0.0000 0.0000 0.0000 18.6500 0.0000
# 6 0.0000 0.0000 0.0000 0.0000 0.0000 12.5153
#
#
#
# Elastic Compliance Matrix: (Units=1/GPa)
#
#
# Indices 1 2 3 4 5 6 
#
# 1 0.048627 -0.002426 -0.007809 0.000000 0.000000 0.000000
# 2 -0.002426 0.006386 -0.004060 0.000000 0.000000 0.000000
# 3 -0.007809 -0.004060 0.012955 0.000000 0.000000 0.000000
# 4 0.000000 0.000000 0.000000 0.026465 0.000000 0.000000
# 5 0.000000 0.000000 0.000000 0.000000 0.053619 0.000000
# 6 0.000000 0.000000 0.000000 0.000000 0.000000 0.079902
#
#
# Mechanical properties :
#
#
# Convention : Reuss Voigt Hill
#
# Bulk Modulus (GPa) = 25.39425 69.10909 47.25167
# Shear Modulus (GPa) = 18.54118 29.18100 23.86109
#
# Velocity S-wave (km/s) = 3.00474 3.76954 3.40866
# Velocity P-wave (km/s) = 4.93999 7.25246 6.20490
#
# Compressibility (1/GPa) = 0.03937900
#
# Stress axis : x y z
#
# Youngs Moduli (GPa) = 20.56471 156.60319 77.18810
#
# Poissons Ratio (x) = 0.37989 0.60273
# Poissons Ratio (y) = 0.04989 0.31338
# Poissons Ratio (z) = 0.16058 0.63580
#
# Static dielectric constant tensor:
#      x y z
#    x 3.279420 0.000000 0.000000 
#    y 0.000000 4.503540 0.000000 
#    z 0.000000 0.000000 3.730350 
# 
# 
# High freq. dielectric constant tensor:
#      x y z
#    x 1.771390 0.000000 0.000000 
#    y 0.000000 1.829570 0.000000 
#    z 0.000000 0.000000 1.782650 
# 
# From -- ./inp_files/10204.got.cif
#   From: 2010.03.12/outbox.cif.g09.slc.cpg/sg74_6_cif.got.tgz:10204.got - 2010.04.16 15:46:19.
