data_PCOD8300446
_publ_section_title
;
Structure prediction by ZEFSAII (Michael W. Deem and Ramdas Pophale) SiO2 
 PCOD8300446
Probable space group: I M M A
;
_chemical_formula_sum "Si O2"
_cell_formula_units_Z 104
_cell_length_a 8.745489
_cell_length_b 25.993383
_cell_length_c 21.805709
_cell_angle_alpha 90.000000
_cell_angle_beta 90.000000
_cell_angle_gamma 90.000000
_cell_volume 4956.979421
_symmetry_space_group_name_H-M "I M M A"
_symmetry_group_IT_number 74
_symmetry_cell_setting 'orthorhombic'
loop_
_space_group_symop_operation_xyz
x,y,z
-x,1/2-y,z
x,-y,-z
-x,1/2+y,-z
-x,-y,-z
x,1/2+y,-z
-x,y,z
x,1/2-y,z
1/2+x,1/2+y,1/2+z
1/2-x,-y,1/2+z
1/2+x,1/2-y,1/2-z
1/2-x,y,1/2-z
1/2-x,1/2-y,1/2-z
1/2+x,y,1/2-z
1/2-x,1/2+y,1/2+z
1/2+x,-y,1/2+z
loop_
_atom_site_type_symbol
_atom_site_label
_atom_site_fract_x
_atom_site_fract_y
_atom_site_fract_z
Si Si1 0.820911 0.608892 0.498102
Si Si2 0.180777 0.632878 0.315664
Si Si3 0.825052 0.308646 0.913280
Si Si4 0.825762 0.458027 0.186937
Si Si5 0.318961 0.545937 0.400265
Si Si6 0.323298 0.856348 0.622164
Si Si7 0.181107 0.750000 0.817515
O O1 0.774926 0.659524 0.460898
O O2 0.737499 0.557592 0.470157
O O3 0.775030 0.620533 0.567425
O O4 0.000000 0.599375 0.494038
O O5 0.250000 0.622576 0.250000
O O6 0.254114 0.684463 0.345168
O O7 0.229927 0.586454 0.358835
O O8 0.000000 0.637898 0.311644
O O9 0.815170 0.250000 0.933722
O O10 0.000000 0.328213 0.914212
O O11 0.750000 0.476244 0.250000
O O12 0.769394 0.490050 0.126586
O O13 0.801289 0.397193 0.177167
O O14 0.000000 0.472336 0.196665
O O15 0.500000 0.554020 0.397606
O O16 0.500000 0.852648 0.601510
O O17 0.263857 0.800715 0.645317
O O18 0.250000 0.750000 0.750000
O O19 0.000000 0.750000 0.810299
#
# Coordination Sequence:
#
# PCOD8300446 Si02
#       7
#    16  16  16  16  16  16   8
#     4  11  23  38  58  87 118 153 195 246 296 347
#     4  11  21  34  53  78 110 148 191 240 291 349
#     4  10  21  37  57  79 107 146 189 239 295 353
#     4  10  22  38  61  89 120 156 198 246 298 354
#     4  10  20  37  59  84 115 155 195 241 296 354
#     4  10  22  41  61  88 121 159 201 243 297 361
#     4  10  22  40  66  92 122 160 199 246 301 356
#
# _framework density 20.980518
#
# number of rings (size 3 to 8) (size 9 to 14) (size 15 to 20)
#    0.000    1.692    0.000    6.462    1.077    5.846 
#    0.000    3.077    0.000    0.000    0.000    0.000 
#    0.000    0.000    0.000    0.000    0.000    0.000 
#
# Total GULP energy -644617.576735 kJ/mol
# GULP energy per Si atom -12396.491860 kJ/mol
# Density = 2.093277 g / cm^3
# Si number density = 20.980518 Si / 1000 Ang^3
#
#
#
# Elastic Constant Matrix: (Units=GPa)
#
#
# Indices 1 2 3 4 5 6 
#
# 1 89.2246 41.4710 41.7237 0.0001 0.0000 0.0000
# 2 41.4710 117.6635 35.7574 -0.0001 0.0000 0.0000
# 3 41.7237 35.7574 104.3475 -0.0003 0.0000 0.0000
# 4 0.0001 -0.0001 -0.0003 26.6357 0.0000 0.0000
# 5 0.0000 0.0000 0.0000 0.0000 38.3846 0.0000
# 6 0.0000 0.0000 0.0000 0.0000 0.0000 19.6601
#
#
#
# Elastic Compliance Matrix: (Units=1/GPa)
#
#
# Indices 1 2 3 4 5 6 
#
# 1 0.015259 -0.003933 -0.004753 0.000000 0.000000 0.000000
# 2 -0.003933 0.010501 -0.002026 0.000000 0.000000 0.000000
# 3 -0.004753 -0.002026 0.012178 0.000000 0.000000 0.000000
# 4 0.000000 0.000000 0.000000 0.037544 0.000000 0.000000
# 5 0.000000 0.000000 0.000000 0.000000 0.026052 0.000000
# 6 0.000000 0.000000 0.000000 0.000000 0.000000 0.050865
#
#
# Mechanical properties :
#
#
# Convention : Reuss Voigt Hill
#
# Bulk Modulus (GPa) = 60.55894 61.01554 60.78724
# Shear Modulus (GPa) = 27.88206 29.75497 28.81851
#
# Velocity S-wave (km/s) = 3.64943 3.77001 3.71021
# Velocity P-wave (km/s) = 6.83263 6.93511 6.88406
#
# Compressibility (1/GPa) = 0.01651284
#
# Stress axis : x y z
#
# Youngs Moduli (GPa) = 65.53636 95.23140 82.11454
#
# Poissons Ratio (x) = 0.37459 0.39032
# Poissons Ratio (y) = 0.25779 0.16633
# Poissons Ratio (z) = 0.31152 0.19289
#
# Static dielectric constant tensor:
#      x y z
#    x 3.785020 0.000000 0.000000 
#    y 0.000000 3.973860 0.000000 
#    z 0.000000 0.000000 2.239240 
# 
# 
# High freq. dielectric constant tensor:
#      x y z
#    x 1.819780 0.000000 0.000000 
#    y 0.000000 1.825710 0.000000 
#    z 0.000000 0.000000 1.824390 
# 
# From -- ./inp_files/49299.got.cif
#   From: 2010.03.12/outbox.cif.g09.slc.cpg/sg74_25_cif.got.tgz:49299.got - 2010.04.16 15:46:19.
