data_PCOD8300000
_publ_section_title
;
Structure prediction by ZEFSAII (Michael W. Deem and Ramdas Pophale) SiO2 
 PCOD8300000
Probable space group: I M M A
;
_chemical_formula_sum "Si O2"
_cell_formula_units_Z 56
_cell_length_a 8.641181
_cell_length_b 22.236089
_cell_length_c 14.341440
_cell_angle_alpha 90.000000
_cell_angle_beta 90.000000
_cell_angle_gamma 90.000000
_cell_volume 2755.651331
_symmetry_space_group_name_H-M "I M M A"
_symmetry_group_IT_number 74
_symmetry_cell_setting 'orthorhombic'
loop_
_space_group_symop_operation_xyz
x,y,z
-x,1/2-y,z
x,-y,-z
-x,1/2+y,-z
-x,-y,-z
x,1/2+y,-z
-x,y,z
x,1/2-y,z
1/2+x,1/2+y,1/2+z
1/2-x,-y,1/2+z
1/2+x,1/2-y,1/2-z
1/2-x,y,1/2-z
1/2-x,1/2-y,1/2-z
1/2+x,y,1/2-z
1/2-x,1/2+y,1/2+z
1/2+x,-y,1/2+z
loop_
_atom_site_type_symbol
_atom_site_label
_atom_site_fract_x
_atom_site_fract_y
_atom_site_fract_z
Si Si1 0.320571 0.470499 0.154530
Si Si2 0.182901 0.098800 0.849523
Si Si3 0.321244 0.356455 0.030612
Si Si4 0.318456 0.750000 0.647528
O O1 0.500000 0.486604 0.170204
O O2 0.250000 0.443758 0.250000
O O3 0.231735 0.530854 0.126037
O O4 0.297943 0.422504 0.073351
O O5 0.250000 0.118929 0.750000
O O6 0.000000 0.104353 0.848306
O O7 0.251314 0.143681 0.926990
O O8 0.500000 0.338015 0.026660
O O9 0.232194 0.309105 0.093183
O O10 0.500000 0.750000 0.657830
O O11 0.250000 0.750000 0.750000
#
# Coordination Sequence:
#
# PCOD8300000 Si02
#       4
#    16  16  16   8
#     4  10  20  34  56  86 120 156 194 239 292 349
#     4  11  22  37  59  87 120 156 195 241 293 349
#     4  11  23  40  61  86 118 156 198 244 294 347
#     4  12  26  44  65  90 119 154 196 240 290 344
#
# _framework density 20.321874999999999
#
# number of rings (size 3 to 8) (size 9 to 14) (size 15 to 20)
#    0.000    1.143    0.000    9.000    0.000   10.286 
#    0.000    0.714    0.000    0.000    0.000    0.000 
#    0.000    0.000    0.000    0.000    0.000    0.000 
#
# Total GULP energy -347354.198543 kJ/mol
# GULP energy per Si atom -12405.507091 kJ/mol
# Density = 2.027562 g / cm^3
# Si number density = 20.321875 Si / 1000 Ang^3
#
#
#
# Elastic Constant Matrix: (Units=GPa)
#
#
# Indices 1 2 3 4 5 6 
#
# 1 182.3480 45.5067 79.4909 0.0000 0.0000 0.0000
# 2 45.5067 61.9195 61.0903 -0.0002 0.0000 0.0000
# 3 79.4909 61.0903 167.3078 0.0000 0.0000 0.0000
# 4 0.0000 -0.0002 0.0000 10.0160 0.0000 0.0000
# 5 0.0000 0.0000 0.0000 0.0000 39.6664 0.0000
# 6 0.0000 0.0000 0.0000 0.0000 0.0000 31.4068
#
#
#
# Elastic Compliance Matrix: (Units=1/GPa)
#
#
# Indices 1 2 3 4 5 6 
#
# 1 0.007261 -0.003021 -0.002347 0.000000 0.000000 0.000000
# 2 -0.003021 0.026501 -0.008241 0.000000 0.000000 0.000000
# 3 -0.002347 -0.008241 0.010101 0.000000 0.000000 0.000000
# 4 0.000000 0.000000 0.000000 0.099840 0.000000 0.000000
# 5 0.000000 0.000000 0.000000 0.000000 0.025210 0.000000
# 6 0.000000 0.000000 0.000000 0.000000 0.000000 0.031840
#
#
# Mechanical properties :
#
#
# Convention : Reuss Voigt Hill
#
# Bulk Modulus (GPa) = 60.07700 87.08347 73.58023
# Shear Modulus (GPa) = 21.41142 31.25033 26.33087
#
# Velocity S-wave (km/s) = 3.24946 3.92569 3.60348
# Velocity P-wave (km/s) = 6.61102 7.96826 7.32116
#
# Compressibility (1/GPa) = 0.01664531
#
# Stress axis : x y z
#
# Youngs Moduli (GPa) = 137.72307 37.73433 98.99867
#
# Poissons Ratio (x) = 0.11400 0.23232
# Poissons Ratio (y) = 0.41606 0.81587
# Poissons Ratio (z) = 0.32320 0.31098
#
# Static dielectric constant tensor:
#      x y z
#    x 3.891440 0.000000 0.000000 
#    y 0.000000 3.511980 0.000000 
#    z 0.000000 0.000000 4.111880 
# 
# 
# High freq. dielectric constant tensor:
#      x y z
#    x 1.814000 0.000000 0.000000 
#    y 0.000000 1.772570 0.000000 
#    z 0.000000 0.000000 1.812190 
# 
# From -- ./inp_files/28494.got.cif
#   From: 2010.03.12/outbox.cif.g09.slc.cpg/sg74_15_cif.got.tgz:28494.got - 2010.04.16 15:46:19.
