data_PCOD8300720
_publ_section_title
;
Structure prediction by ZEFSAII (Michael W. Deem and Ramdas Pophale) SiO2 
 PCOD8300720
Probable space group: I M M A
;
_chemical_formula_sum "Si O2"
_cell_formula_units_Z 88
_cell_length_a 8.949484
_cell_length_b 16.534796
_cell_length_c 30.311635
_cell_angle_alpha 90.000000
_cell_angle_beta 90.000000
_cell_angle_gamma 90.000000
_cell_volume 4485.451858
_symmetry_space_group_name_H-M "I M M A"
_symmetry_group_IT_number 74
_symmetry_cell_setting 'orthorhombic'
loop_
_space_group_symop_operation_xyz
x,y,z
-x,1/2-y,z
x,-y,-z
-x,1/2+y,-z
-x,-y,-z
x,1/2+y,-z
-x,y,z
x,1/2-y,z
1/2+x,1/2+y,1/2+z
1/2-x,-y,1/2+z
1/2+x,1/2-y,1/2-z
1/2-x,y,1/2-z
1/2-x,1/2-y,1/2-z
1/2+x,y,1/2-z
1/2-x,1/2+y,1/2+z
1/2+x,-y,1/2+z
loop_
_atom_site_type_symbol
_atom_site_label
_atom_site_fract_x
_atom_site_fract_y
_atom_site_fract_z
Si Si1 0.679517 0.250000 0.200999
Si Si2 0.824225 0.656714 0.453705
Si Si3 0.825402 0.657265 0.207247
Si Si4 0.337001 0.657565 0.539840
Si Si5 0.675792 0.877380 0.636868
Si Si6 0.325215 0.437239 0.623895
O O1 0.500000 0.250000 0.204586
O O2 0.750000 0.250000 0.250000
O O3 0.733550 0.170086 0.174626
O O4 0.773427 0.750000 0.443951
O O5 0.771581 0.624315 0.501755
O O6 0.757693 0.592311 0.419669
O O7 0.000000 0.650727 0.452100
O O8 0.778629 0.750000 0.203985
O O9 0.750000 0.616869 0.250000
O O10 0.762082 0.616475 0.163569
O O11 0.000000 0.643376 0.211567
O O12 0.500000 0.613068 0.538432
O O13 0.362662 0.750000 0.528825
O O14 0.266649 0.649401 0.588508
O O15 0.500000 0.857800 0.642862
O O16 0.710875 0.972074 0.639044
O O17 0.500000 0.424328 0.615492
#
# Coordination Sequence:
#
# PCOD8300720 Si02
#       6
#     8  16  16  16  16  16
#     4  12  26  44  68  92 118 154 196 246 303 360
#     4  10  21  35  53  81 118 158 199 243 286 336
#     4   9  18  33  53  77 105 141 183 224 272 332
#     4   9  17  33  58  81 108 150 194 236 286 350
#     4  10  21  40  63  88 116 147 191 242 296 355
#     4  10  21  36  57  84 116 151 188 238 292 350
#
# _framework density 19.618981000000002
#
# number of rings (size 3 to 8) (size 9 to 14) (size 15 to 20)
#    0.000    2.182    0.909    1.909    0.000    5.455 
#    0.000    7.273    0.000    0.000    0.000    0.000 
#    0.000    0.000    0.000    0.000    0.000    0.000 
#
# Total GULP energy -545397.690726 kJ/mol
# GULP energy per Si atom -12395.402062 kJ/mol
# Density = 1.957433 g / cm^3
# Si number density = 19.618981 Si / 1000 Ang^3
#
#
#
# Elastic Constant Matrix: (Units=GPa)
#
#
# Indices 1 2 3 4 5 6 
#
# 1 74.8818 45.8663 65.1340 0.0000 0.0000 0.0000
# 2 45.8663 67.0610 60.8123 0.0000 0.0000 0.0000
# 3 65.1340 60.8123 184.3787 0.0000 0.0000 0.0000
# 4 0.0000 0.0000 0.0000 7.8878 0.0000 0.0000
# 5 0.0000 0.0000 0.0000 0.0000 35.1473 0.0000
# 6 0.0000 0.0000 0.0000 0.0000 0.0000 23.1219
#
#
#
# Elastic Compliance Matrix: (Units=1/GPa)
#
#
# Indices 1 2 3 4 5 6 
#
# 1 0.025495 -0.013226 -0.004644 0.000000 0.000000 0.000000
# 2 -0.013226 0.028136 -0.004608 0.000000 0.000000 0.000000
# 3 -0.004644 -0.004608 0.008584 0.000000 0.000000 0.000000
# 4 0.000000 0.000000 0.000000 0.126777 0.000000 0.000000
# 5 0.000000 0.000000 0.000000 0.000000 0.028452 0.000000
# 6 0.000000 0.000000 0.000000 0.000000 0.000000 0.043249
#
#
# Mechanical properties :
#
#
# Convention : Reuss Voigt Hill
#
# Bulk Modulus (GPa) = 57.93931 74.43854 66.18893
# Shear Modulus (GPa) = 16.05642 23.53200 19.79421
#
# Velocity S-wave (km/s) = 2.86389 3.46707 3.17981
# Velocity P-wave (km/s) = 6.36649 7.35200 6.87692
#
# Compressibility (1/GPa) = 0.01725944
#
# Stress axis : x y z
#
# Youngs Moduli (GPa) = 39.22311 35.54171 116.49590
#
# Poissons Ratio (x) = 0.47007 0.54104
# Poissons Ratio (y) = 0.51876 0.53678
# Poissons Ratio (z) = 0.18216 0.16376
#
# Static dielectric constant tensor:
#      x y z
#    x 3.522520 0.000000 0.000000 
#    y 0.000000 3.539020 0.000000 
#    z 0.000000 0.000000 3.893420 
# 
# 
# High freq. dielectric constant tensor:
#      x y z
#    x 1.749450 0.000000 0.000000 
#    y 0.000000 1.755080 0.000000 
#    z 0.000000 0.000000 1.777890 
# 
# From -- ./inp_files/70290.got.cif
#   From: 2010.03.12/outbox.cif.g09.slc.cpg/sg74_36_cif.got.tgz:70290.got - 2010.04.16 15:46:19.
