data_PCOD8300299
_publ_section_title
;
Structure prediction by ZEFSAII (Michael W. Deem and Ramdas Pophale) SiO2 
 PCOD8300299
Probable space group: I M M A
;
_chemical_formula_sum "Si O2"
_cell_formula_units_Z 88
_cell_length_a 8.985641
_cell_length_b 22.362228
_cell_length_c 24.336002
_cell_angle_alpha 90.000000
_cell_angle_beta 90.000000
_cell_angle_gamma 90.000000
_cell_volume 4890.050756
_symmetry_space_group_name_H-M "I M M A"
_symmetry_group_IT_number 74
_symmetry_cell_setting 'orthorhombic'
loop_
_space_group_symop_operation_xyz
x,y,z
-x,1/2-y,z
x,-y,-z
-x,1/2+y,-z
-x,-y,-z
x,1/2+y,-z
-x,y,z
x,1/2-y,z
1/2+x,1/2+y,1/2+z
1/2-x,-y,1/2+z
1/2+x,1/2-y,1/2-z
1/2-x,y,1/2-z
1/2-x,1/2-y,1/2-z
1/2+x,y,1/2-z
1/2-x,1/2+y,1/2+z
1/2+x,-y,1/2+z
loop_
_atom_site_type_symbol
_atom_site_label
_atom_site_fract_x
_atom_site_fract_y
_atom_site_fract_z
Si Si1 0.677533 0.750000 0.190312
Si Si2 0.172093 0.319241 0.394287
Si Si3 0.324825 0.899780 0.693837
Si Si4 0.172005 0.465462 0.804509
Si Si5 0.830867 0.319990 0.519377
Si Si6 0.826695 0.645110 0.123591
O O1 0.500000 0.750000 0.195659
O O2 0.750000 0.750000 0.250000
O O3 0.728413 0.691488 0.157697
O O4 0.204621 0.250000 0.382189
O O5 0.275603 0.358628 0.356089
O O6 0.214077 0.334915 0.457004
O O7 0.000000 0.333959 0.382932
O O8 0.500000 0.894538 0.700999
O O9 0.250000 0.876916 0.750000
O O10 0.272706 0.967694 0.680742
O O11 0.250000 0.440426 0.750000
O O12 0.207034 0.421527 0.854861
O O13 0.000000 0.466712 0.790186
O O14 0.814338 0.250000 0.531015
O O15 0.720456 0.355080 0.559835
O O16 0.000000 0.340182 0.530726
O O17 0.000000 0.662064 0.129457
#
# Coordination Sequence:
#
# PCOD8300299 Si02
#       6
#     8  16  16  16  16  16
#     4  12  24  36  50  74 108 140 177 226 273 314
#     4   9  19  36  57  81 109 139 173 216 262 311
#     4  10  20  36  57  80 107 139 174 215 263 318
#     4   9  20  36  53  75 104 138 177 219 265 314
#     4   9  18  34  54  76 105 141 177 218 265 311
#     4  11  21  34  53  78 105 138 180 222 266 317
#
# _framework density 17.995723000000002
#
# number of rings (size 3 to 8) (size 9 to 14) (size 15 to 20)
#    0.000    2.182    0.909    3.545    0.000    5.091 
#    0.000    2.727    0.000    5.455    0.000    0.000 
#    0.000    0.000    0.000    0.000    0.000    0.000 
#
# Total GULP energy -545676.673208 kJ/mol
# GULP energy per Si atom -12401.742573 kJ/mol
# Density = 1.795476 g / cm^3
# Si number density = 17.995723 Si / 1000 Ang^3
#
#
#
# Elastic Constant Matrix: (Units=GPa)
#
#
# Indices 1 2 3 4 5 6 
#
# 1 89.0570 44.8260 60.2382 0.0000 0.0000 0.0000
# 2 44.8260 75.3841 61.7393 0.0000 0.0000 0.0000
# 3 60.2382 61.7393 130.3770 0.0000 0.0000 0.0000
# 4 0.0000 0.0000 0.0000 30.1254 0.0000 0.0000
# 5 0.0000 0.0000 0.0000 0.0000 38.8566 0.0000
# 6 0.0000 0.0000 0.0000 0.0000 0.0000 23.2698
#
#
#
# Elastic Compliance Matrix: (Units=1/GPa)
#
#
# Indices 1 2 3 4 5 6 
#
# 1 0.018029 -0.006368 -0.005314 0.000000 0.000000 0.000000
# 2 -0.006368 0.023919 -0.008384 0.000000 0.000000 0.000000
# 3 -0.005314 -0.008384 0.014096 0.000000 0.000000 0.000000
# 4 0.000000 0.000000 0.000000 0.033195 0.000000 0.000000
# 5 0.000000 0.000000 0.000000 0.000000 0.025736 0.000000
# 6 0.000000 0.000000 0.000000 0.000000 0.000000 0.042974
#
#
# Mechanical properties :
#
#
# Convention : Reuss Voigt Hill
#
# Bulk Modulus (GPa) = 62.85412 69.82502 66.33957
# Shear Modulus (GPa) = 24.58398 26.98466 25.78432
#
# Velocity S-wave (km/s) = 3.70009 3.87654 3.78934
# Velocity P-wave (km/s) = 7.29776 7.67606 7.48930
#
# Compressibility (1/GPa) = 0.01590986
#
# Stress axis : x y z
#
# Youngs Moduli (GPa) = 55.46726 41.80795 70.94331
#
# Poissons Ratio (x) = 0.26624 0.37701
# Poissons Ratio (y) = 0.35322 0.59481
# Poissons Ratio (z) = 0.29476 0.35053
#
# Static dielectric constant tensor:
#      x y z
#    x 3.323330 0.000000 0.000000 
#    y 0.000000 3.335310 0.000000 
#    z 0.000000 0.000000 3.409580 
# 
# 
# High freq. dielectric constant tensor:
#      x y z
#    x 1.701240 0.000000 0.000000 
#    y 0.000000 1.685060 0.000000 
#    z 0.000000 0.000000 1.700780 
# 
# From -- ./inp_files/56983.got.cif
#   From: 2010.03.12/outbox.cif.g09.slc.cpg/sg74_29_cif.got.tgz:56983.got - 2010.04.16 15:46:19.
