data_PCOD8300158
_publ_section_title
;
Structure prediction by ZEFSAII (Michael W. Deem and Ramdas Pophale) SiO2 
 PCOD8300158
Probable space group: I M M A
;
_chemical_formula_sum "Si O2"
_cell_formula_units_Z 80
_cell_length_a 18.708886
_cell_length_b 21.416210
_cell_length_c 10.015470
_cell_angle_alpha 90.000000
_cell_angle_beta 90.000000
_cell_angle_gamma 90.000000
_cell_volume 4012.932732
_symmetry_space_group_name_H-M "I M M A"
_symmetry_group_IT_number 74
_symmetry_cell_setting 'orthorhombic'
loop_
_space_group_symop_operation_xyz
x,y,z
-x,1/2-y,z
x,-y,-z
-x,1/2+y,-z
-x,-y,-z
x,1/2+y,-z
-x,y,z
x,1/2-y,z
1/2+x,1/2+y,1/2+z
1/2-x,-y,1/2+z
1/2+x,1/2-y,1/2-z
1/2-x,y,1/2-z
1/2-x,1/2-y,1/2-z
1/2+x,y,1/2-z
1/2-x,1/2+y,1/2+z
1/2+x,-y,1/2+z
loop_
_atom_site_type_symbol
_atom_site_label
_atom_site_fract_x
_atom_site_fract_y
_atom_site_fract_z
Si Si1 0.416702 0.905764 0.249530
Si Si2 0.313729 0.492871 0.341254
Si Si3 0.708901 0.647683 0.629392
Si Si4 0.577216 0.316928 0.508460
Si Si5 0.801232 0.322995 0.623214
O O1 0.500000 0.910942 0.205659
O O2 0.385060 0.974374 0.281665
O O3 0.406931 0.871312 0.389425
O O4 0.372896 0.864966 0.140927
O O5 0.301957 0.500000 0.500000
O O6 0.250000 0.521965 0.250000
O O7 0.317299 0.419393 0.316693
O O8 0.750000 0.681674 0.750000
O O9 0.636922 0.685920 0.604657
O O10 0.758937 0.646397 0.499542
O O11 0.500000 0.327042 0.440020
O O12 0.579031 0.250000 0.584991
O O13 0.820464 0.250000 0.597015
O O14 0.750000 0.329067 0.750000
#
# Coordination Sequence:
#
# PCOD8300158 Si02
#       5
#    16  16  16  16  16
#     4  11  22  36  59  91 122 155 202 254 309 362
#     4  11  21  37  60  85 120 159 205 254 306 363
#     4  11  23  38  60  89 119 162 206 250 303 370
#     4  10  20  35  56  84 118 152 192 244 298 354
#     4  11  21  38  63  89 119 155 203 258 309 364
#
# _framework density 19.935544
#
# number of rings (size 3 to 8) (size 9 to 14) (size 15 to 20)
#    0.000    1.200    4.000    3.000    0.000    4.000 
#    0.000    1.000    0.000   11.400    0.000    0.000 
#    0.000    0.000    0.000    0.000    0.000    0.000 
#
# Total GULP energy -495657.302619 kJ/mol
# GULP energy per Si atom -12391.432565 kJ/mol
# Density = 1.989017 g / cm^3
# Si number density = 19.935544 Si / 1000 Ang^3
#
#
#
# Elastic Constant Matrix: (Units=GPa)
#
#
# Indices 1 2 3 4 5 6 
#
# 1 170.9076 49.0943 60.5122 0.0000 0.0000 0.0000
# 2 49.0943 103.3638 19.8601 0.0000 0.0000 0.0000
# 3 60.5122 19.8601 83.1401 0.0000 0.0000 0.0000
# 4 0.0000 0.0000 0.0000 12.5459 0.0000 0.0000
# 5 0.0000 0.0000 0.0000 0.0000 20.5465 0.0000
# 6 0.0000 0.0000 0.0000 0.0000 0.0000 23.2386
#
#
#
# Elastic Compliance Matrix: (Units=1/GPa)
#
#
# Indices 1 2 3 4 5 6 
#
# 1 0.008719 -0.003062 -0.005614 0.000000 0.000000 0.000000
# 2 -0.003062 0.011216 -0.000450 0.000000 0.000000 0.000000
# 3 -0.005614 -0.000450 0.016222 0.000000 0.000000 0.000000
# 4 0.000000 0.000000 0.000000 0.079707 0.000000 0.000000
# 5 0.000000 0.000000 0.000000 0.000000 0.048670 0.000000
# 6 0.000000 0.000000 0.000000 0.000000 0.000000 0.043032
#
#
# Mechanical properties :
#
#
# Convention : Reuss Voigt Hill
#
# Bulk Modulus (GPa) = 55.85881 68.48275 62.17078
# Shear Modulus (GPa) = 21.57164 26.46252 24.01708
#
# Velocity S-wave (km/s) = 3.29305 3.64731 3.47470
# Velocity P-wave (km/s) = 6.52223 7.22245 6.88125
#
# Compressibility (1/GPa) = 0.01790228
#
# Stress axis : x y z
#
# Youngs Moduli (GPa) = 114.69792 89.16166 61.64620
#
# Poissons Ratio (x) = 0.27304 0.34609
# Poissons Ratio (y) = 0.35124 0.02776
# Poissons Ratio (z) = 0.64393 0.04015
#
# Static dielectric constant tensor:
#      x y z
#    x 3.885000 0.000000 0.000000 
#    y 0.000000 3.812820 0.000000 
#    z 0.000000 0.000000 3.531110 
# 
# 
# High freq. dielectric constant tensor:
#      x y z
#    x 1.780640 0.000000 0.000000 
#    y 0.000000 1.793740 0.000000 
#    z 0.000000 0.000000 1.746650 
# 
# From -- ./inp_files/20504.got.cif
#   From: 2010.03.12/outbox.cif.g09.slc.cpg/sg74_11_cif.got.tgz:20504.got - 2010.04.16 15:46:19.
