data_PCOD8300393
_publ_section_title
;
Structure prediction by ZEFSAII (Michael W. Deem and Ramdas Pophale) SiO2 
 PCOD8300393
Probable space group: I M M A
;
_chemical_formula_sum "Si O2"
_cell_formula_units_Z 72
_cell_length_a 17.550367
_cell_length_b 9.073518
_cell_length_c 23.426803
_cell_angle_alpha 90.000000
_cell_angle_beta 90.000000
_cell_angle_gamma 90.000000
_cell_volume 3730.567764
_symmetry_space_group_name_H-M "I M M A"
_symmetry_group_IT_number 74
_symmetry_cell_setting 'orthorhombic'
loop_
_space_group_symop_operation_xyz
x,y,z
-x,1/2-y,z
x,-y,-z
-x,1/2+y,-z
-x,-y,-z
x,1/2+y,-z
-x,y,z
x,1/2-y,z
1/2+x,1/2+y,1/2+z
1/2-x,-y,1/2+z
1/2+x,1/2-y,1/2-z
1/2-x,y,1/2-z
1/2-x,1/2-y,1/2-z
1/2+x,y,1/2-z
1/2-x,1/2+y,1/2+z
1/2+x,-y,1/2+z
loop_
_atom_site_type_symbol
_atom_site_label
_atom_site_fract_x
_atom_site_fract_y
_atom_site_fract_z
Si Si1 0.500000 0.577024 0.940463
Si Si2 0.837077 0.077037 0.746696
Si Si3 0.910944 0.922172 0.135017
Si Si4 0.209836 0.574941 0.939522
Si Si5 0.143221 0.577223 0.632232
O O1 0.500000 0.750000 0.950071
O O2 0.424819 0.524436 0.907935
O O3 0.500000 0.500000 0.000000
O O4 0.844691 0.250000 0.737862
O O5 0.750000 0.025623 0.750000
O O6 0.881689 0.025143 0.803094
O O7 0.873304 0.999345 0.692280
O O8 0.892821 0.750000 0.125868
O O9 0.000000 0.955951 0.130089
O O10 0.869256 0.015100 0.085968
O O11 0.205434 0.750000 0.947788
O O12 0.277227 0.528109 0.896351
O O13 0.226195 0.500000 0.000000
O O14 0.141827 0.750000 0.642857
#
# Coordination Sequence:
#
# PCOD8300393 Si02
#       5
#     8  16  16  16  16
#     4  10  22  40  58  84 120 156 195 238 287 340
#     4  10  20  36  60  87 115 149 190 235 285 340
#     4  10  22  40  60  86 120 154 191 237 286 340
#     4  11  23  39  61  86 113 150 196 240 290 346
#     4  10  22  38  58  86 118 153 192 237 288 345
#
# _framework density 19.30001
#
# number of rings (size 3 to 8) (size 9 to 14) (size 15 to 20)
#    0.000    1.778    2.222    1.333    1.556    4.000 
#    0.000    0.000    0.000    0.000    0.000    0.000 
#    0.000    0.000    0.000    0.000    0.000    0.000 
#
# Total GULP energy -446574.947903 kJ/mol
# GULP energy per Si atom -12404.859664 kJ/mol
# Density = 1.925608 g / cm^3
# Si number density = 19.300010 Si / 1000 Ang^3
#
#
#
# Elastic Constant Matrix: (Units=GPa)
#
#
# Indices 1 2 3 4 5 6 
#
# 1 99.5730 27.9244 20.5967 0.0000 0.0000 0.0000
# 2 27.9244 45.3586 35.9134 0.0000 0.0000 0.0000
# 3 20.5967 35.9134 98.9870 0.0000 0.0000 0.0000
# 4 0.0000 0.0000 0.0000 41.6874 0.0000 0.0000
# 5 0.0000 0.0000 0.0000 0.0000 31.9108 0.0000
# 6 0.0000 0.0000 0.0000 0.0000 0.0000 25.7787
#
#
#
# Elastic Compliance Matrix: (Units=1/GPa)
#
#
# Indices 1 2 3 4 5 6 
#
# 1 0.012143 -0.007682 0.000260 0.000000 0.000000 0.000000
# 2 -0.007682 0.035792 -0.011387 0.000000 0.000000 0.000000
# 3 0.000260 -0.011387 0.014180 0.000000 0.000000 0.000000
# 4 0.000000 0.000000 0.000000 0.023988 0.000000 0.000000
# 5 0.000000 0.000000 0.000000 0.000000 0.031337 0.000000
# 6 0.000000 0.000000 0.000000 0.000000 0.000000 0.038792
#
#
# Mechanical properties :
#
#
# Convention : Reuss Voigt Hill
#
# Bulk Modulus (GPa) = 40.82122 45.86530 43.34326
# Shear Modulus (GPa) = 24.75057 30.50765 27.62911
#
# Velocity S-wave (km/s) = 3.58496 3.98012 3.78770
# Velocity P-wave (km/s) = 6.19134 6.70357 6.45254
#
# Compressibility (1/GPa) = 0.02449707
#
# Stress axis : x y z
#
# Youngs Moduli (GPa) = 82.34923 27.93924 70.52413
#
# Poissons Ratio (x) = 0.21463 -0.01837
# Poissons Ratio (y) = 0.63262 0.80307
# Poissons Ratio (z) = -0.02144 0.31815
#
# Static dielectric constant tensor:
#      x y z
#    x 3.350360 0.000000 0.000000 
#    y 0.000000 3.382010 0.000000 
#    z 0.000000 0.000000 3.551030 
# 
# 
# High freq. dielectric constant tensor:
#      x y z
#    x 1.759480 0.000000 0.000000 
#    y 0.000000 1.743080 0.000000 
#    z 0.000000 0.000000 1.762610 
# 
# From -- ./inp_files/56637.got.cif
#   From: 2010.03.12/outbox.cif.g09.slc.cpg/sg74_29_cif.got.tgz:56637.got - 2010.04.16 15:46:19.
