data_PCOD8300420
_publ_section_title
;
Structure prediction by ZEFSAII (Michael W. Deem and Ramdas Pophale) SiO2 
 PCOD8300420
Probable space group: I M M A
;
_chemical_formula_sum "Si O2"
_cell_formula_units_Z 96
_cell_length_a 19.314594
_cell_length_b 25.412465
_cell_length_c 9.699771
_cell_angle_alpha 90.000000
_cell_angle_beta 90.000000
_cell_angle_gamma 90.000000
_cell_volume 4760.952607
_symmetry_space_group_name_H-M "I M M A"
_symmetry_group_IT_number 74
_symmetry_cell_setting 'orthorhombic'
loop_
_space_group_symop_operation_xyz
x,y,z
-x,1/2-y,z
x,-y,-z
-x,1/2+y,-z
-x,-y,-z
x,1/2+y,-z
-x,y,z
x,1/2-y,z
1/2+x,1/2+y,1/2+z
1/2-x,-y,1/2+z
1/2+x,1/2-y,1/2-z
1/2-x,y,1/2-z
1/2-x,1/2-y,1/2-z
1/2+x,y,1/2-z
1/2-x,1/2+y,1/2+z
1/2+x,-y,1/2+z
loop_
_atom_site_type_symbol
_atom_site_label
_atom_site_fract_x
_atom_site_fract_y
_atom_site_fract_z
Si Si1 0.185300 0.983211 0.342580
Si Si2 0.577657 0.148488 0.451300
Si Si3 0.799884 0.638875 0.369242
Si Si4 0.579884 0.970829 0.635038
Si Si5 0.576936 0.189950 0.747057
Si Si6 0.780143 0.191444 0.101604
O O1 0.250000 0.001414 0.250000
O O2 0.177717 0.920703 0.343545
O O3 0.194690 0.000000 0.500000
O O4 0.118567 0.010608 0.273667
O O5 0.500000 0.168641 0.412386
O O6 0.589649 0.090578 0.392543
O O7 0.586665 0.150913 0.616901
O O8 0.637011 0.184557 0.386006
O O9 0.750000 0.659924 0.250000
O O10 0.869748 0.673628 0.366762
O O11 0.757803 0.647412 0.509817
O O12 0.500000 0.986061 0.657058
O O13 0.610175 0.000000 0.500000
O O14 0.500000 0.183912 0.809124
O O15 0.590163 0.250000 0.698878
O O16 0.764526 0.250000 0.044494
O O17 0.750000 0.183123 0.250000
#
# Coordination Sequence:
#
# PCOD8300420 Si02
#       6
#    16  16  16  16  16  16
#     4  11  26  40  62  92 122 165 209 260 314 376
#     4  10  21  37  63  93 122 161 205 252 308 366
#     4  11  23  39  61  92 121 159 204 258 314 364
#     4  10  22  40  63  90 125 164 206 257 311 372
#     4  10  20  36  62  94 125 161 208 260 313 371
#     4  11  25  41  62  92 127 166 205 252 314 379
#
# _framework density 20.164031000000001
#
# number of rings (size 3 to 8) (size 9 to 14) (size 15 to 20)
#    0.000    1.500    1.667    2.500    7.000    4.000 
#    0.000    0.833    0.000    1.000    0.000    0.000 
#    0.000    0.000    0.000    0.000    0.000    0.000 
#
# Total GULP energy -595196.931276 kJ/mol
# GULP energy per Si atom -12399.936068 kJ/mol
# Density = 2.011814 g / cm^3
# Si number density = 20.164031 Si / 1000 Ang^3
#
#
#
# Elastic Constant Matrix: (Units=GPa)
#
#
# Indices 1 2 3 4 5 6 
#
# 1 140.5410 46.7638 64.5983 0.0000 0.0000 0.0000
# 2 46.7638 70.6754 43.7031 0.0000 0.0000 0.0000
# 3 64.5983 43.7031 103.9388 0.0000 0.0000 0.0000
# 4 0.0000 0.0000 0.0000 21.3712 0.0000 0.0000
# 5 0.0000 0.0000 0.0000 0.0000 35.6723 0.0000
# 6 0.0000 0.0000 0.0000 0.0000 0.0000 28.7077
#
#
#
# Elastic Compliance Matrix: (Units=1/GPa)
#
#
# Indices 1 2 3 4 5 6 
#
# 1 0.010747 -0.004028 -0.004986 0.000000 0.000000 0.000000
# 2 -0.004028 0.020630 -0.006171 0.000000 0.000000 0.000000
# 3 -0.004986 -0.006171 0.015314 0.000000 0.000000 0.000000
# 4 0.000000 0.000000 0.000000 0.046792 0.000000 0.000000
# 5 0.000000 0.000000 0.000000 0.000000 0.028033 0.000000
# 6 0.000000 0.000000 0.000000 0.000000 0.000000 0.034834
#
#
# Mechanical properties :
#
#
# Convention : Reuss Voigt Hill
#
# Bulk Modulus (GPa) = 61.26555 69.47616 65.37086
# Shear Modulus (GPa) = 26.01978 27.82292 26.92135
#
# Velocity S-wave (km/s) = 3.59612 3.71864 3.65789
# Velocity P-wave (km/s) = 6.90596 7.27791 7.09437
#
# Compressibility (1/GPa) = 0.01632239
#
# Stress axis : x y z
#
# Youngs Moduli (GPa) = 93.04588 48.47216 65.29786
#
# Poissons Ratio (x) = 0.19525 0.32556
# Poissons Ratio (y) = 0.37481 0.40295
# Poissons Ratio (z) = 0.46391 0.29912
#
# Static dielectric constant tensor:
#      x y z
#    x 3.689030 0.000000 0.000000 
#    y 0.000000 3.681610 0.000000 
#    z 0.000000 0.000000 3.233860 
# 
# 
# High freq. dielectric constant tensor:
#      x y z
#    x 1.803060 0.000000 0.000000 
#    y 0.000000 1.792750 0.000000 
#    z 0.000000 0.000000 1.763460 
# 
# From -- ./inp_files/12694.got.cif
#   From: 2010.03.12/outbox.cif.g09.slc.cpg/sg74_7_cif.got.tgz:12694.got - 2010.04.16 15:46:19.
