data_PCOD8300834
_publ_section_title
;
Structure prediction by ZEFSAII (Michael W. Deem and Ramdas Pophale) SiO2 
 PCOD8300834
Probable space group: I M M A
;
_chemical_formula_sum "Si O2"
_cell_formula_units_Z 96
_cell_length_a 14.727659
_cell_length_b 21.187483
_cell_length_c 15.796394
_cell_angle_alpha 90.000000
_cell_angle_beta 90.000000
_cell_angle_gamma 90.000000
_cell_volume 4929.138767
_symmetry_space_group_name_H-M "I M M A"
_symmetry_group_IT_number 74
_symmetry_cell_setting 'orthorhombic'
loop_
_space_group_symop_operation_xyz
x,y,z
-x,1/2-y,z
x,-y,-z
-x,1/2+y,-z
-x,-y,-z
x,1/2+y,-z
-x,y,z
x,1/2-y,z
1/2+x,1/2+y,1/2+z
1/2-x,-y,1/2+z
1/2+x,1/2-y,1/2-z
1/2-x,y,1/2-z
1/2-x,1/2-y,1/2-z
1/2+x,y,1/2-z
1/2-x,1/2+y,1/2+z
1/2+x,-y,1/2+z
loop_
_atom_site_type_symbol
_atom_site_label
_atom_site_fract_x
_atom_site_fract_y
_atom_site_fract_z
Si Si1 0.606731 0.626942 0.979996
Si Si2 0.606806 0.250000 0.733269
Si Si3 0.392648 0.750000 0.077582
Si Si4 0.901263 0.958692 0.365347
Si Si5 0.600925 0.500536 0.599587
Si Si6 0.229962 0.571796 0.658266
Si Si7 0.151748 0.886918 0.214540
O O1 0.500000 0.631258 0.955021
O O2 0.671435 0.619792 0.898537
O O3 0.641318 0.689276 0.026801
O O4 0.625856 0.568297 0.042659
O O5 0.500000 0.250000 0.734827
O O6 0.649469 0.250000 0.828106
O O7 0.639696 0.313850 0.686091
O O8 0.500000 0.750000 0.085380
O O9 0.912190 0.903005 0.295488
O O10 0.000000 0.991672 0.374478
O O11 0.828337 0.008066 0.331509
O O12 0.596522 0.500000 0.500000
O O13 0.500000 0.516347 0.635994
O O14 0.671160 0.555770 0.621847
O O15 0.631293 0.431990 0.634845
O O16 0.250000 0.602242 0.750000
O O17 0.250000 0.901131 0.250000
#
# Coordination Sequence:
#
# PCOD8300834 Si02
#       7
#    16   8   8  16  16  16  16
#     4  10  21  36  60  90 118 148 184 237 303 364
#     4  11  21  35  59  86 121 157 191 234 290 361
#     4   9  18  35  58  88 118 149 181 229 307 372
#     4  11  19  34  59  85 119 148 182 237 299 356
#     4  11  23  38  56  75 110 160 202 238 277 331
#     4  12  23  36  54  83 115 149 195 237 292 339
#     4  12  22  37  55  89 120 157 195 237 293 348
#
# _framework density 19.476018
#
# number of rings (size 3 to 8) (size 9 to 14) (size 15 to 20)
#    0.000    1.000    5.000    3.750    0.000    2.000 
#    0.000    0.417    0.000    0.000    0.000    0.583 
#    0.000    0.000    0.000    0.000    0.000    0.000 
#
# Total GULP energy -595015.144320 kJ/mol
# GULP energy per Si atom -12396.148840 kJ/mol
# Density = 1.943169 g / cm^3
# Si number density = 19.476018 Si / 1000 Ang^3
#
#
#
# Elastic Constant Matrix: (Units=GPa)
#
#
# Indices 1 2 3 4 5 6 
#
# 1 101.8591 25.2256 31.3931 -0.0001 0.0000 0.0000
# 2 25.2256 70.8457 27.3243 0.0001 0.0000 0.0000
# 3 31.3931 27.3243 99.5765 0.0015 -0.0002 0.0002
# 4 -0.0001 0.0001 0.0015 31.9417 -0.0001 0.0002
# 5 0.0000 0.0000 -0.0002 -0.0001 23.0501 0.0000
# 6 0.0000 0.0000 0.0002 0.0002 0.0000 23.4996
#
#
#
# Elastic Compliance Matrix: (Units=1/GPa)
#
#
# Indices 1 2 3 4 5 6 
#
# 1 0.011415 -0.002993 -0.002777 0.000000 0.000000 0.000000
# 2 -0.002993 0.016571 -0.003603 0.000000 0.000000 0.000000
# 3 -0.002777 -0.003603 0.011907 -0.000001 0.000000 0.000000
# 4 0.000000 0.000000 -0.000001 0.031307 0.000000 0.000000
# 5 0.000000 0.000000 0.000000 0.000000 0.043384 0.000000
# 6 0.000000 0.000000 0.000000 0.000000 0.000000 0.042554
#
#
# Mechanical properties :
#
#
# Convention : Reuss Voigt Hill
#
# Bulk Modulus (GPa) = 47.29365 48.90746 48.10056
# Shear Modulus (GPa) = 27.33239 28.25418 27.79329
#
# Velocity S-wave (km/s) = 3.75025 3.81296 3.78173
# Velocity P-wave (km/s) = 6.56416 6.67466 6.61964
#
# Compressibility (1/GPa) = 0.02114449
#
# Stress axis : x y z
#
# Youngs Moduli (GPa) = 87.60612 60.34727 83.98466
#
# Poissons Ratio (x) = 0.18063 0.23325
# Poissons Ratio (y) = 0.26222 0.30263
# Poissons Ratio (z) = 0.24331 0.21746
#
# Static dielectric constant tensor:
#      x y z
#    x 3.852280 0.000000 0.000000 
#    y 0.000000 3.501390 0.000000 
#    z 0.000000 0.000000 3.560530 
# 
# 
# High freq. dielectric constant tensor:
#      x y z
#    x 1.772010 0.000000 0.000000 
#    y 0.000000 1.728510 0.000000 
#    z 0.000000 0.000000 1.748940 
# 
# From -- ./inp_files/32420.got.cif
#   From: 2010.03.12/outbox.cif.g09.slc.cpg/sg74_17_cif.got.tgz:32420.got - 2010.04.16 15:46:19.
