data_PCOD8300782
_publ_section_title
;
Structure prediction by ZEFSAII (Michael W. Deem and Ramdas Pophale) SiO2 
 PCOD8300782
Probable space group: I M M A
;
_chemical_formula_sum "Si O2"
_cell_formula_units_Z 112
_cell_length_a 17.615663
_cell_length_b 28.538969
_cell_length_c 12.436042
_cell_angle_alpha 90.000000
_cell_angle_beta 90.000000
_cell_angle_gamma 90.000000
_cell_volume 6252.006965
_symmetry_space_group_name_H-M "I M M A"
_symmetry_group_IT_number 74
_symmetry_cell_setting 'orthorhombic'
loop_
_space_group_symop_operation_xyz
x,y,z
-x,1/2-y,z
x,-y,-z
-x,1/2+y,-z
-x,-y,-z
x,1/2+y,-z
-x,y,z
x,1/2-y,z
1/2+x,1/2+y,1/2+z
1/2-x,-y,1/2+z
1/2+x,1/2-y,1/2-z
1/2-x,y,1/2-z
1/2-x,1/2-y,1/2-z
1/2+x,y,1/2-z
1/2-x,1/2+y,1/2+z
1/2+x,-y,1/2+z
loop_
_atom_site_type_symbol
_atom_site_label
_atom_site_fract_x
_atom_site_fract_y
_atom_site_fract_z
Si Si1 0.089145 0.448900 0.617347
Si Si2 0.831338 0.803764 0.094760
Si Si3 0.910105 0.052392 0.374821
Si Si4 0.088140 0.803409 0.882136
Si Si5 0.411844 0.146824 0.788669
Si Si6 0.336840 0.696074 0.023189
Si Si7 0.833115 0.641871 0.700333
O O1 0.120647 0.443070 0.496686
O O2 0.110105 0.499766 0.666735
O O3 0.117449 0.406569 0.692733
O O4 0.000000 0.445458 0.604271
O O5 0.856535 0.750000 0.112749
O O6 0.860953 0.833756 0.193466
O O7 0.741174 0.808569 0.088925
O O8 0.867126 0.823720 0.984775
O O9 0.862084 0.088577 0.304206
O O10 0.000000 0.062697 0.364471
O O11 0.113255 0.750000 0.862479
O O12 0.108137 0.831466 0.775837
O O13 0.000000 0.808113 0.907185
O O14 0.500000 0.148868 0.755755
O O15 0.401966 0.176494 0.898324
O O16 0.353838 0.750000 0.993453
O O17 0.334382 0.666186 0.915142
O O18 0.750000 0.643809 0.750000
#
# Coordination Sequence:
#
# PCOD8300782 Si02
#       7
#    16  16  16  16  16  16  16
#     4   8  16  32  57  83 106 135 171 218 279 335
#     4  10  21  38  55  75 111 155 189 217 262 330
#     4   9  17  34  58  81 107 138 175 222 274 330
#     4  10  21  36  55  79 107 147 194 229 261 314
#     4  11  21  35  58  86 110 138 181 232 277 322
#     4  11  23  37  54  78 112 150 183 224 279 328
#     4  12  22  35  56  80 112 145 184 228 277 321
#
# _framework density 17.914247
#
# number of rings (size 3 to 8) (size 9 to 14) (size 15 to 20)
#    0.000    1.857    2.857    3.000    0.000    4.000 
#    0.000    1.429    0.000    0.857    0.000    4.000 
#    0.000    0.000    0.000    0.000    0.000    0.000 
#
# Total GULP energy -694403.679535 kJ/mol
# GULP energy per Si atom -12400.065706 kJ/mol
# Density = 1.787347 g / cm^3
# Si number density = 17.914247 Si / 1000 Ang^3
#
#
#
# Elastic Constant Matrix: (Units=GPa)
#
#
# Indices 1 2 3 4 5 6 
#
# 1 31.8565 23.0155 11.6892 0.0000 0.0000 0.0000
# 2 23.0155 117.0726 46.9121 -0.0002 0.0000 0.0000
# 3 11.6892 46.9121 85.9618 0.0001 0.0000 0.0003
# 4 0.0000 -0.0002 0.0001 18.3933 0.0000 -0.0003
# 5 0.0000 0.0000 0.0000 0.0000 23.5643 0.0000
# 6 0.0000 0.0000 0.0003 -0.0003 0.0000 20.4176
#
#
#
# Elastic Compliance Matrix: (Units=1/GPa)
#
#
# Indices 1 2 3 4 5 6 
#
# 1 0.036709 -0.006676 -0.001348 0.000000 0.000000 0.000000
# 2 -0.006676 0.012147 -0.005721 0.000000 0.000000 0.000000
# 3 -0.001348 -0.005721 0.014939 0.000000 0.000000 0.000000
# 4 0.000000 0.000000 0.000000 0.054368 0.000000 0.000001
# 5 0.000000 0.000000 0.000000 0.000000 0.042437 0.000000
# 6 0.000000 0.000000 0.000000 0.000001 0.000000 0.048977
#
#
# Mechanical properties :
#
#
# Convention : Reuss Voigt Hill
#
# Bulk Modulus (GPa) = 27.54595 44.23605 35.89100
# Shear Modulus (GPa) = 20.06676 22.69332 21.38004
#
# Velocity S-wave (km/s) = 3.35050 3.56304 3.45841
# Velocity P-wave (km/s) = 5.51160 6.45553 6.00215
#
# Compressibility (1/GPa) = 0.03630298
#
# Stress axis : x y z
#
# Youngs Moduli (GPa) = 27.24131 82.32700 66.94102
#
# Poissons Ratio (x) = 0.54965 0.09025
# Poissons Ratio (y) = 0.18187 0.38297
# Poissons Ratio (z) = 0.03673 0.47099
#
# Static dielectric constant tensor:
#      x y z
#    x 3.161680 0.000000 0.000000 
#    y 0.000000 3.689170 0.000000 
#    z 0.000000 0.000000 3.314500 
# 
# 
# High freq. dielectric constant tensor:
#      x y z
#    x 1.683080 0.000000 0.000000 
#    y 0.000000 1.696350 0.000000 
#    z 0.000000 0.000000 1.686910 
# 
# From -- ./inp_files/21117.got.cif
#   From: 2010.03.12/outbox.cif.g09.slc.cpg/sg74_11_cif.got.tgz:21117.got - 2010.04.16 15:46:19.
