data_PCOD8300320
_publ_section_title
;
Structure prediction by ZEFSAII (Michael W. Deem and Ramdas Pophale) SiO2 
 PCOD8300320
Probable space group: I M M A
;
_chemical_formula_sum "Si O2"
_cell_formula_units_Z 88
_cell_length_a 17.857773
_cell_length_b 8.997434
_cell_length_c 28.936606
_cell_angle_alpha 90.000000
_cell_angle_beta 90.000000
_cell_angle_gamma 90.000000
_cell_volume 4649.364109
_symmetry_space_group_name_H-M "I M M A"
_symmetry_group_IT_number 74
_symmetry_cell_setting 'orthorhombic'
loop_
_space_group_symop_operation_xyz
x,y,z
-x,1/2-y,z
x,-y,-z
-x,1/2+y,-z
-x,-y,-z
x,1/2+y,-z
-x,y,z
x,1/2-y,z
1/2+x,1/2+y,1/2+z
1/2-x,-y,1/2+z
1/2+x,1/2-y,1/2-z
1/2-x,y,1/2-z
1/2-x,1/2-y,1/2-z
1/2+x,y,1/2-z
1/2-x,1/2+y,1/2+z
1/2+x,-y,1/2+z
loop_
_atom_site_type_symbol
_atom_site_label
_atom_site_fract_x
_atom_site_fract_y
_atom_site_fract_z
Si Si1 0.000000 0.574908 0.048592
Si Si2 0.160683 0.425669 0.297587
Si Si3 0.586436 0.575018 0.890265
Si Si4 0.789403 0.426856 0.549689
Si Si5 0.330031 0.425807 0.303300
Si Si6 0.142481 0.924625 0.105349
O O1 0.074155 0.519617 0.074354
O O2 0.000000 0.750000 0.042362
O O3 0.000000 0.500000 0.000000
O O4 0.161889 0.250000 0.297399
O O5 0.106609 0.483062 0.338463
O O6 0.244527 0.482972 0.306358
O O7 0.134465 0.477145 0.246177
O O8 0.500000 0.539345 0.899770
O O9 0.603540 0.750000 0.895030
O O10 0.634067 0.486293 0.927953
O O11 0.777807 0.500000 0.500000
O O12 0.793607 0.250000 0.544089
O O13 0.720181 0.476849 0.581996
O O14 0.335323 0.250000 0.309244
O O15 0.373113 0.502872 0.344968
O O16 0.141797 0.750000 0.112037
#
# Coordination Sequence:
#
# PCOD8300320 Si02
#       6
#     8  16  16  16  16  16
#     4  10  22  40  58  78 110 144 180 226 275 328
#     4   8  15  30  52  81 110 140 179 221 264 310
#     4  10  20  36  58  81 110 148 185 224 270 317
#     4  11  23  38  58  82 107 138 180 227 274 327
#     4   9  16  30  56  82 108 142 180 221 263 315
#     4  10  21  37  56  81 111 142 177 222 274 326
#
# _framework density 18.927319000000001
#
# number of rings (size 3 to 8) (size 9 to 14) (size 15 to 20)
#    0.000    2.364    1.818    2.182    0.000    2.182 
#    1.636    2.727    0.000    0.000    0.000    0.000 
#    0.000    0.000    0.000    0.000    0.000    0.000 
#
# Total GULP energy -545473.668157 kJ/mol
# GULP energy per Si atom -12397.128822 kJ/mol
# Density = 1.888424 g / cm^3
# Si number density = 18.927319 Si / 1000 Ang^3
#
#
#
# Elastic Constant Matrix: (Units=GPa)
#
#
# Indices 1 2 3 4 5 6 
#
# 1 82.5881 25.5286 32.7940 0.0000 0.0000 0.0000
# 2 25.5286 36.0013 36.8880 0.0000 0.0000 0.0000
# 3 32.7940 36.8880 137.8880 0.0000 0.0000 0.0000
# 4 0.0000 0.0000 0.0000 31.7643 0.0000 0.0000
# 5 0.0000 0.0000 0.0000 0.0000 30.1901 0.0000
# 6 0.0000 0.0000 0.0000 0.0000 0.0000 21.0057
#
#
#
# Elastic Compliance Matrix: (Units=1/GPa)
#
#
# Indices 1 2 3 4 5 6 
#
# 1 0.015614 -0.010011 -0.001035 0.000000 0.000000 0.000000
# 2 -0.010011 0.044685 -0.009573 0.000000 0.000000 0.000000
# 3 -0.001035 -0.009573 0.010060 0.000000 0.000000 0.000000
# 4 0.000000 0.000000 0.000000 0.031482 0.000000 0.000000
# 5 0.000000 0.000000 0.000000 0.000000 0.033123 0.000000
# 6 0.000000 0.000000 0.000000 0.000000 0.000000 0.047606
#
#
# Mechanical properties :
#
#
# Convention : Reuss Voigt Hill
#
# Bulk Modulus (GPa) = 34.34182 49.65539 41.99861
# Shear Modulus (GPa) = 21.41194 27.34314 24.37754
#
# Velocity S-wave (km/s) = 3.36709 3.80496 3.59270
# Velocity P-wave (km/s) = 5.77060 6.75244 6.28073
#
# Compressibility (1/GPa) = 0.02911901
#
# Stress axis : x y z
#
# Youngs Moduli (GPa) = 64.04570 22.37911 99.40850
#
# Poissons Ratio (x) = 0.22404 0.10292
# Poissons Ratio (y) = 0.64116 0.95165
# Poissons Ratio (z) = 0.06631 0.21424
#
# Static dielectric constant tensor:
#      x y z
#    x 2.831840 0.000000 0.000000 
#    y 0.000000 3.163440 0.000000 
#    z 0.000000 0.000000 3.831780 
# 
# 
# High freq. dielectric constant tensor:
#      x y z
#    x 1.724180 0.000000 0.000000 
#    y 0.000000 1.707960 0.000000 
#    z 0.000000 0.000000 1.755090 
# 
# From -- ./inp_files/72985.got.cif
#   From: 2010.03.12/outbox.cif.g09.slc.cpg/sg74_37_cif.got.tgz:72985.got - 2010.04.16 15:46:19.
