data_PCOD8300577
_publ_section_title
;
Structure prediction by ZEFSAII (Michael W. Deem and Ramdas Pophale) SiO2 
 PCOD8300577
Probable space group: I M M A
;
_chemical_formula_sum "Si O2"
_cell_formula_units_Z 96
_cell_length_a 24.385995
_cell_length_b 20.944270
_cell_length_c 8.561396
_cell_angle_alpha 90.000000
_cell_angle_beta 90.000000
_cell_angle_gamma 90.000000
_cell_volume 4372.706154
_symmetry_space_group_name_H-M "I M M A"
_symmetry_group_IT_number 74
_symmetry_cell_setting 'orthorhombic'
loop_
_space_group_symop_operation_xyz
x,y,z
-x,1/2-y,z
x,-y,-z
-x,1/2+y,-z
-x,-y,-z
x,1/2+y,-z
-x,y,z
x,1/2-y,z
1/2+x,1/2+y,1/2+z
1/2-x,-y,1/2+z
1/2+x,1/2-y,1/2-z
1/2-x,y,1/2-z
1/2-x,1/2-y,1/2-z
1/2+x,y,1/2-z
1/2-x,1/2+y,1/2+z
1/2+x,-y,1/2+z
loop_
_atom_site_type_symbol
_atom_site_label
_atom_site_fract_x
_atom_site_fract_y
_atom_site_fract_z
Si Si1 0.798988 0.250000 0.956495
Si Si2 0.197131 0.379095 0.139573
Si Si3 0.309146 0.943217 0.323819
Si Si4 0.882114 0.553923 0.682688
Si Si5 0.000000 0.826542 0.434931
Si Si6 0.000000 0.551374 0.637354
Si Si7 0.173532 0.250000 0.617764
Si Si8 0.115215 0.870753 0.380170
O O1 0.838546 0.250000 0.805316
O O2 0.737036 0.250000 0.904011
O O3 0.807420 0.188416 0.060077
O O4 0.250000 0.386864 0.250000
O O5 0.140864 0.381444 0.239953
O O6 0.197980 0.437776 0.011400
O O7 0.250000 0.930899 0.250000
O O8 0.336312 0.005652 0.247899
O O9 0.351082 0.886579 0.276005
O O10 0.884661 0.566111 0.493797
O O11 0.944459 0.538515 0.738389
O O12 0.053870 0.847076 0.337041
O O13 0.000000 0.750000 0.474274
O O14 0.000000 0.873269 0.587254
O O15 0.000000 0.500000 0.500000
O O16 0.146332 0.188115 0.536855
#
# Coordination Sequence:
#
# PCOD8300577 Si02
#       8
#     8  16  16  16   8   8   8  16
#     4  11  23  40  62  91 135 179 227 274 344 406
#     4  12  25  41  62  95 135 179 226 277 341 412
#     4  12  24  41  65  97 137 177 223 282 344 418
#     4  11  24  41  65  97 129 173 224 281 345 409
#     4  10  20  38  65 103 135 176 235 290 338 412
#     4  10  22  44  70  97 134 176 232 287 352 419
#     4  11  20  37  66  95 129 178 224 280 331 410
#     4  11  22  40  67  97 135 176 230 282 345 404
#
# _framework density 21.954367000000001
#
# number of rings (size 3 to 8) (size 9 to 14) (size 15 to 20)
#    0.000    0.833    2.500    6.750    0.000    2.000 
#    1.500    2.500    0.000    0.000    0.000    0.000 
#    0.000    0.000    0.000    0.000    0.000    0.000 
#
# Total GULP energy -594657.116469 kJ/mol
# GULP energy per Si atom -12388.689926 kJ/mol
# Density = 2.190440 g / cm^3
# Si number density = 21.954367 Si / 1000 Ang^3
#
#
#
# Elastic Constant Matrix: (Units=GPa)
#
#
# Indices 1 2 3 4 5 6 
#
# 1 148.9763 27.3498 43.1635 0.0000 0.0000 0.0000
# 2 27.3498 103.7397 18.5208 0.0000 0.0000 0.0000
# 3 43.1635 18.5208 83.9908 0.0000 0.0000 0.0000
# 4 0.0000 0.0000 0.0000 54.1529 0.0000 0.0000
# 5 0.0000 0.0000 0.0000 0.0000 31.8391 0.0000
# 6 0.0000 0.0000 0.0000 0.0000 0.0000 39.6757
#
#
#
# Elastic Compliance Matrix: (Units=1/GPa)
#
#
# Indices 1 2 3 4 5 6 
#
# 1 0.008090 -0.001448 -0.003838 0.000000 0.000000 0.000000
# 2 -0.001448 0.010294 -0.001526 0.000000 0.000000 0.000000
# 3 -0.003838 -0.001526 0.014215 0.000000 0.000000 0.000000
# 4 0.000000 0.000000 0.000000 0.018466 0.000000 0.000000
# 5 0.000000 0.000000 0.000000 0.000000 0.031408 0.000000
# 6 0.000000 0.000000 0.000000 0.000000 0.000000 0.025204
#
#
# Mechanical properties :
#
#
# Convention : Reuss Voigt Hill
#
# Bulk Modulus (GPa) = 52.70063 57.19723 54.94893
# Shear Modulus (GPa) = 39.17675 41.64505 40.41090
#
# Velocity S-wave (km/s) = 4.22887 4.36006 4.29497
# Velocity P-wave (km/s) = 6.92107 7.17329 7.04831
#
# Compressibility (1/GPa) = 0.01897510
#
# Stress axis : x y z
#
# Youngs Moduli (GPa) = 123.60347 97.14785 70.34741
#
# Poissons Ratio (x) = 0.14064 0.27003
# Poissons Ratio (y) = 0.17893 0.10734
# Poissons Ratio (z) = 0.47445 0.14824
#
# Static dielectric constant tensor:
#      x y z
#    x 4.302680 0.000000 0.000000 
#    y 0.000000 4.337080 0.000000 
#    z 0.000000 0.000000 4.049970 
# 
# 
# High freq. dielectric constant tensor:
#      x y z
#    x 1.872450 0.000000 0.000000 
#    y 0.000000 1.890610 0.000000 
#    z 0.000000 0.000000 1.829480 
# 
# From -- ./inp_files/14010.got.cif
#   From: 2010.03.12/outbox.cif.g09.slc.cpg/sg74_8_cif.got.tgz:14010.got - 2010.04.16 15:46:19.
