data_PCOD8300443
_publ_section_title
;
Structure prediction by ZEFSAII (Michael W. Deem and Ramdas Pophale) SiO2 
 PCOD8300443
Probable space group: I M M A
;
_chemical_formula_sum "Si O2"
_cell_formula_units_Z 80
_cell_length_a 17.527302
_cell_length_b 15.035727
_cell_length_c 15.259165
_cell_angle_alpha 90.000000
_cell_angle_beta 90.000000
_cell_angle_gamma 90.000000
_cell_volume 4021.335156
_symmetry_space_group_name_H-M "I M M A"
_symmetry_group_IT_number 74
_symmetry_cell_setting 'orthorhombic'
loop_
_space_group_symop_operation_xyz
x,y,z
-x,1/2-y,z
x,-y,-z
-x,1/2+y,-z
-x,-y,-z
x,1/2+y,-z
-x,y,z
x,1/2-y,z
1/2+x,1/2+y,1/2+z
1/2-x,-y,1/2+z
1/2+x,1/2-y,1/2-z
1/2-x,y,1/2-z
1/2-x,1/2-y,1/2-z
1/2+x,y,1/2-z
1/2-x,1/2+y,1/2+z
1/2+x,-y,1/2+z
loop_
_atom_site_type_symbol
_atom_site_label
_atom_site_fract_x
_atom_site_fract_y
_atom_site_fract_z
Si Si1 0.909535 0.069407 0.736481
Si Si2 0.914839 0.750000 0.811731
Si Si3 0.410908 0.750000 0.154957
Si Si4 0.155128 0.250000 0.467416
Si Si5 0.411845 0.112945 0.161631
Si Si6 0.831661 0.750000 0.989322
Si Si7 0.410594 0.579416 0.435148
O O1 0.874503 0.161511 0.699196
O O2 0.884976 0.054069 0.836920
O O3 0.000000 0.070567 0.729872
O O4 0.880529 0.987060 0.676551
O O5 0.903188 0.662354 0.754136
O O6 0.852765 0.750000 0.887378
O O7 0.000000 0.750000 0.853203
O O8 0.500000 0.750000 0.175274
O O9 0.398465 0.750000 0.051719
O O10 0.138233 0.160938 0.412128
O O11 0.241358 0.250000 0.498670
O O12 0.500000 0.115415 0.131042
O O13 0.863956 0.835125 0.037587
O O14 0.388675 0.500000 0.500000
O O15 0.500000 0.601800 0.440246
#
# Coordination Sequence:
#
# PCOD8300443 Si02
#       7
#    16   8   8   8  16   8  16
#     4   9  18  34  60  88 109 141 192 248 294 335
#     4   9  17  32  58  86 111 140 185 239 291 344
#     4  10  20  37  59  83 112 149 200 243 279 336
#     4  11  24  38  53  81 120 157 193 239 290 348
#     4   9  18  36  61  86 111 146 198 250 292 335
#     4  12  23  36  55  84 125 157 186 226 293 359
#     4  10  20  37  62  89 116 147 191 242 290 347
#
# _framework density 19.893891
#
# number of rings (size 3 to 8) (size 9 to 14) (size 15 to 20)
#    0.000    2.200    0.000    4.200    0.000    7.200 
#    3.600    5.000    0.000    0.000    0.000    0.000 
#    0.000    0.000    0.000    0.000    0.000    0.000 
#
# Total GULP energy -496038.777568 kJ/mol
# GULP energy per Si atom -12400.969439 kJ/mol
# Density = 1.984861 g / cm^3
# Si number density = 19.893891 Si / 1000 Ang^3
#
#
#
# Elastic Constant Matrix: (Units=GPa)
#
#
# Indices 1 2 3 4 5 6 
#
# 1 42.9122 37.3718 12.6438 0.0000 0.0000 0.0000
# 2 37.3718 191.7073 70.0461 0.0000 0.0000 0.0000
# 3 12.6438 70.0461 115.4689 0.0000 0.0000 0.0000
# 4 0.0000 0.0000 0.0000 20.5403 0.0000 0.0000
# 5 0.0000 0.0000 0.0000 0.0000 14.3929 0.0000
# 6 0.0000 0.0000 0.0000 0.0000 0.0000 20.0366
#
#
#
# Elastic Compliance Matrix: (Units=1/GPa)
#
#
# Indices 1 2 3 4 5 6 
#
# 1 0.028078 -0.005589 0.000316 0.000000 0.000000 0.000000
# 2 -0.005589 0.007814 -0.004128 0.000000 0.000000 0.000000
# 3 0.000316 -0.004128 0.011130 0.000000 0.000000 0.000000
# 4 0.000000 0.000000 0.000000 0.048685 0.000000 0.000000
# 5 0.000000 0.000000 0.000000 0.000000 0.069479 0.000000
# 6 0.000000 0.000000 0.000000 0.000000 0.000000 0.049909
#
#
# Mechanical properties :
#
#
# Convention : Reuss Voigt Hill
#
# Bulk Modulus (GPa) = 35.43682 65.57910 50.50796
# Shear Modulus (GPa) = 20.55049 26.32907 23.43978
#
# Velocity S-wave (km/s) = 3.21753 3.64191 3.43627
# Velocity P-wave (km/s) = 5.62627 7.12184 6.41777
#
# Compressibility (1/GPa) = 0.02821924
#
# Stress axis : x y z
#
# Youngs Moduli (GPa) = 35.61552 127.97213 89.84670
#
# Poissons Ratio (x) = 0.71523 -0.02838
# Poissons Ratio (y) = 0.19905 0.37091
# Poissons Ratio (z) = -0.01125 0.52831
#
# Static dielectric constant tensor:
#      x y z
#    x 3.175360 0.000000 0.000000 
#    y 0.000000 3.957850 0.000000 
#    z 0.000000 0.000000 3.606540 
# 
# 
# High freq. dielectric constant tensor:
#      x y z
#    x 1.731040 0.000000 0.000000 
#    y 0.000000 1.792770 0.000000 
#    z 0.000000 0.000000 1.781060 
# 
# From -- ./inp_files/34064.got.cif
#   From: 2010.03.12/outbox.cif.g09.slc.cpg/sg74_18_cif.got.tgz:34064.got - 2010.04.16 15:46:19.
