data_PCOD8300762
_publ_section_title
;
Structure prediction by ZEFSAII (Michael W. Deem and Ramdas Pophale) SiO2 
 PCOD8300762
Probable space group: I M M A
;
_chemical_formula_sum "Si O2"
_cell_formula_units_Z 72
_cell_length_a 15.299654
_cell_length_b 8.945446
_cell_length_c 26.544890
_cell_angle_alpha 90.000000
_cell_angle_beta 90.000000
_cell_angle_gamma 90.000000
_cell_volume 3632.992805
_symmetry_space_group_name_H-M "I M M A"
_symmetry_group_IT_number 74
_symmetry_cell_setting 'orthorhombic'
loop_
_space_group_symop_operation_xyz
x,y,z
-x,1/2-y,z
x,-y,-z
-x,1/2+y,-z
-x,-y,-z
x,1/2+y,-z
-x,y,z
x,1/2-y,z
1/2+x,1/2+y,1/2+z
1/2-x,-y,1/2+z
1/2+x,1/2-y,1/2-z
1/2-x,y,1/2-z
1/2-x,1/2-y,1/2-z
1/2+x,y,1/2-z
1/2-x,1/2+y,1/2+z
1/2+x,-y,1/2+z
loop_
_atom_site_type_symbol
_atom_site_label
_atom_site_fract_x
_atom_site_fract_y
_atom_site_fract_z
Si Si1 0.832988 0.576351 0.217248
Si Si2 0.680906 0.075849 0.601673
Si Si3 0.000000 0.072909 0.377078
Si Si4 0.000000 0.427021 0.263580
Si Si5 0.156470 0.427187 0.447191
Si Si6 0.500000 0.924570 0.446465
O O1 0.856959 0.750000 0.223664
O O2 0.750000 0.529104 0.250000
O O3 0.808479 0.537577 0.160163
O O4 0.915129 0.480843 0.234224
O O5 0.698358 0.250000 0.590726
O O6 0.584312 0.026159 0.585225
O O7 0.748009 0.978876 0.569547
O O8 0.086321 0.016303 0.406022
O O9 0.000000 0.250000 0.375059
O O10 0.000000 0.006910 0.320491
O O11 0.000000 0.250000 0.264775
O O12 0.130326 0.500000 0.500000
O O13 0.155328 0.250000 0.453385
O O14 0.500000 0.750000 0.455951
O O15 0.500000 0.000000 0.500000
#
# Coordination Sequence:
#
# PCOD8300762 Si02
#       6
#    16  16   8   8  16   8
#     4  10  21  38  60  85 114 149 190 236 285 339
#     4  10  21  38  58  82 112 146 184 229 281 332
#     4   9  21  39  57  81 115 152 187 229 281 336
#     4  11  22  37  59  86 117 152 191 236 288 344
#     4  11  22  38  59  83 113 148 188 233 282 336
#     4  10  21  36  54  75 105 142 177 219 268 320
#
# _framework density 19.818370999999999
#
# number of rings (size 3 to 8) (size 9 to 14) (size 15 to 20)
#    0.000    1.778    0.000    4.000    0.000    5.778 
#    0.000    6.111    0.000    0.000    0.000    0.000 
#    0.000    0.000    0.000    0.000    0.000    0.000 
#
# Total GULP energy -446599.272723 kJ/mol
# GULP energy per Si atom -12405.535353 kJ/mol
# Density = 1.977326 g / cm^3
# Si number density = 19.818371 Si / 1000 Ang^3
#
#
#
# Elastic Constant Matrix: (Units=GPa)
#
#
# Indices 1 2 3 4 5 6 
#
# 1 97.8833 28.4692 11.4094 0.0000 0.0000 0.0000
# 2 28.4692 53.1728 21.7101 0.0000 0.0000 0.0000
# 3 11.4094 21.7101 84.5393 0.0000 0.0000 0.0000
# 4 0.0000 0.0000 0.0000 31.9955 0.0000 0.0000
# 5 0.0000 0.0000 0.0000 0.0000 38.1097 0.0000
# 6 0.0000 0.0000 0.0000 0.0000 0.0000 79.0331
#
#
#
# Elastic Compliance Matrix: (Units=1/GPa)
#
#
# Indices 1 2 3 4 5 6 
#
# 1 0.012101 -0.006493 0.000034 0.000000 0.000000 0.000000
# 2 -0.006493 0.024493 -0.005414 0.000000 0.000000 0.000000
# 3 0.000034 -0.005414 0.013214 0.000000 0.000000 0.000000
# 4 0.000000 0.000000 0.000000 0.031254 0.000000 0.000000
# 5 0.000000 0.000000 0.000000 0.000000 0.026240 0.000000
# 6 0.000000 0.000000 0.000000 0.000000 0.000000 0.012653
#
#
# Mechanical properties :
#
#
# Convention : Reuss Voigt Hill
#
# Bulk Modulus (GPa) = 38.36721 39.86365 39.11543
# Shear Modulus (GPa) = 32.81091 41.42811 37.11951
#
# Velocity S-wave (km/s) = 4.07330 4.57704 4.33249
# Velocity P-wave (km/s) = 6.44389 6.93473 6.69381
#
# Compressibility (1/GPa) = 0.02606392
#
# Stress axis : x y z
#
# Youngs Moduli (GPa) = 82.63998 40.82746 75.67464
#
# Poissons Ratio (x) = 0.26509 -0.00259
# Poissons Ratio (y) = 0.53657 0.40968
# Poissons Ratio (z) = -0.00283 0.22103
#
# Static dielectric constant tensor:
#      x y z
#    x 3.508430 0.000000 0.000000 
#    y 0.000000 3.420680 0.000000 
#    z 0.000000 0.000000 3.809280 
# 
# 
# High freq. dielectric constant tensor:
#      x y z
#    x 1.787800 0.000000 0.000000 
#    y 0.000000 1.757400 0.000000 
#    z 0.000000 0.000000 1.791430 
# 
# From -- ./inp_files/63689.got.cif
#   From: 2010.03.12/outbox.cif.g09.slc.cpg/sg74_32_cif.got.tgz:63689.got - 2010.04.16 15:46:19.
