data_PCOD8300487
_publ_section_title
;
Structure prediction by ZEFSAII (Michael W. Deem and Ramdas Pophale) SiO2 
 PCOD8300487
Probable space group: I M M A
;
_chemical_formula_sum "Si O2"
_cell_formula_units_Z 88
_cell_length_a 22.249344
_cell_length_b 28.549822
_cell_length_c 6.487295
_cell_angle_alpha 90.000000
_cell_angle_beta 90.000000
_cell_angle_gamma 90.000000
_cell_volume 4120.825866
_symmetry_space_group_name_H-M "I M M A"
_symmetry_group_IT_number 74
_symmetry_cell_setting 'orthorhombic'
loop_
_space_group_symop_operation_xyz
x,y,z
-x,1/2-y,z
x,-y,-z
-x,1/2+y,-z
-x,-y,-z
x,1/2+y,-z
-x,y,z
x,1/2-y,z
1/2+x,1/2+y,1/2+z
1/2-x,-y,1/2+z
1/2+x,1/2-y,1/2-z
1/2-x,y,1/2-z
1/2-x,1/2-y,1/2-z
1/2+x,y,1/2-z
1/2-x,1/2+y,1/2+z
1/2+x,-y,1/2+z
loop_
_atom_site_type_symbol
_atom_site_label
_atom_site_fract_x
_atom_site_fract_y
_atom_site_fract_z
Si Si1 0.225474 0.160476 0.548788
Si Si2 0.853534 0.080793 0.717312
Si Si3 0.432480 0.058826 0.162072
Si Si4 0.128758 0.500000 0.000000
Si Si5 0.332699 0.696845 0.682948
Si Si6 0.568180 0.639653 0.521947
O O1 0.250000 0.188405 0.750000
O O2 0.203311 0.109050 0.624983
O O3 0.285510 0.158548 0.407150
O O4 0.171608 0.187897 0.431180
O O5 0.887840 0.055717 0.530371
O O6 0.832197 0.041060 0.885659
O O7 0.899803 0.116337 0.826277
O O8 0.500000 0.049140 0.083890
O O9 0.415189 0.019785 0.326871
O O10 0.428265 0.108771 0.272773
O O11 0.313525 0.750000 0.634367
O O12 0.398156 0.687541 0.587964
O O13 0.500000 0.651355 0.458630
#
# Coordination Sequence:
#
# PCOD8300487 Si02
#       6
#    16  16  16   8  16  16
#     4  11  22  41  67  91 122 164 208 264 319 374
#     4  11  21  39  62  90 126 168 213 259 317 379
#     4  10  20  37  61  89 127 168 213 260 314 381
#     4  10  23  34  60  94 126 162 217 266 310 374
#     4  11  24  41  66 100 124 159 221 270 316 382
#     4  10  21  39  62  93 131 171 208 254 320 384
#
# _framework density 21.354942000000001
#
# number of rings (size 3 to 8) (size 9 to 14) (size 15 to 20)
#    0.000    1.455    3.636    2.455    0.000    4.727 
#    0.000    0.000    4.000    0.000    0.000    0.000 
#    0.000    0.000    0.000    0.000    0.000    0.000 
#
# Total GULP energy -545149.581238 kJ/mol
# GULP energy per Si atom -12389.763210 kJ/mol
# Density = 2.130634 g / cm^3
# Si number density = 21.354942 Si / 1000 Ang^3
#
#
#
# Elastic Constant Matrix: (Units=GPa)
#
#
# Indices 1 2 3 4 5 6 
#
# 1 95.4914 64.4081 42.7644 0.0000 0.0000 0.0000
# 2 64.4081 111.5352 52.9044 0.0000 0.0000 0.0000
# 3 42.7644 52.9044 123.1968 0.0000 0.0000 0.0000
# 4 0.0000 0.0000 0.0000 26.0238 0.0000 0.0000
# 5 0.0000 0.0000 0.0000 0.0000 23.2217 0.0000
# 6 0.0000 0.0000 0.0000 0.0000 0.0000 16.2686
#
#
#
# Elastic Compliance Matrix: (Units=1/GPa)
#
#
# Indices 1 2 3 4 5 6 
#
# 1 0.017613 -0.009131 -0.002193 0.000000 0.000000 0.000000
# 2 -0.009131 0.015993 -0.003698 0.000000 0.000000 0.000000
# 3 -0.002193 -0.003698 0.010466 0.000000 0.000000 0.000000
# 4 0.000000 0.000000 0.000000 0.038426 0.000000 0.000000
# 5 0.000000 0.000000 0.000000 0.000000 0.043063 0.000000
# 6 0.000000 0.000000 0.000000 0.000000 0.000000 0.061468
#
#
# Mechanical properties :
#
#
# Convention : Reuss Voigt Hill
#
# Bulk Modulus (GPa) = 71.28439 72.26413 71.77426
# Shear Modulus (GPa) = 22.54801 24.44591 23.49696
#
# Velocity S-wave (km/s) = 3.25294 3.38708 3.32068
# Velocity P-wave (km/s) = 6.89652 7.01494 6.95598
#
# Compressibility (1/GPa) = 0.01402832
#
# Stress axis : x y z
#
# Youngs Moduli (GPa) = 56.77716 62.52874 95.54384
#
# Poissons Ratio (x) = 0.57093 0.20951
# Poissons Ratio (y) = 0.51841 0.35335
# Poissons Ratio (z) = 0.12450 0.23125
#
# Static dielectric constant tensor:
#      x y z
#    x 3.749780 0.000000 0.000000 
#    y 0.000000 3.647240 0.000000 
#    z 0.000000 0.000000 4.304230 
# 
# 
# High freq. dielectric constant tensor:
#      x y z
#    x 1.818330 0.000000 0.000000 
#    y 0.000000 1.815680 0.000000 
#    z 0.000000 0.000000 1.859170 
# 
# From -- ./inp_files/3929.got.cif
#   From: 2010.03.12/outbox.cif.g09.slc.cpg/sg74_2_cif.got.tgz:3929.got - 2010.04.16 15:46:19.
