data_PCOD8300066
_publ_section_title
;
Structure prediction by ZEFSAII (Michael W. Deem and Ramdas Pophale) SiO2 
 PCOD8300066
Probable space group: I M M A
;
_chemical_formula_sum "Si O2"
_cell_formula_units_Z 64
_cell_length_a 10.339079
_cell_length_b 9.083419
_cell_length_c 35.750606
_cell_angle_alpha 90.000000
_cell_angle_beta 90.000000
_cell_angle_gamma 90.000000
_cell_volume 3357.489084
_symmetry_space_group_name_H-M "I M M A"
_symmetry_group_IT_number 74
_symmetry_cell_setting 'orthorhombic'
loop_
_space_group_symop_operation_xyz
x,y,z
-x,1/2-y,z
x,-y,-z
-x,1/2+y,-z
-x,-y,-z
x,1/2+y,-z
-x,y,z
x,1/2-y,z
1/2+x,1/2+y,1/2+z
1/2-x,-y,1/2+z
1/2+x,1/2-y,1/2-z
1/2-x,y,1/2-z
1/2-x,1/2-y,1/2-z
1/2+x,y,1/2-z
1/2-x,1/2+y,1/2+z
1/2+x,-y,1/2+z
loop_
_atom_site_type_symbol
_atom_site_label
_atom_site_fract_x
_atom_site_fract_y
_atom_site_fract_z
Si Si1 0.259987 0.921188 0.293405
Si Si2 0.500000 0.075490 0.415562
Si Si3 0.749248 0.075560 0.460199
Si Si4 0.500000 0.078533 0.836032
Si Si5 0.500000 0.574942 0.669029
Si Si6 0.500000 0.923306 0.914944
O O1 0.292744 0.750000 0.299539
O O2 0.250000 0.959626 0.250000
O O3 0.125390 0.966655 0.312364
O O4 0.372643 0.017768 0.310829
O O5 0.500000 0.250000 0.414555
O O6 0.626111 0.017289 0.437113
O O7 0.500000 0.014217 0.373427
O O8 0.746196 0.250000 0.465891
O O9 0.875052 0.023627 0.437674
O O10 0.749681 0.000000 0.500000
O O11 0.500000 0.250000 0.845163
O O12 0.500000 0.992939 0.874479
O O13 0.500000 0.750000 0.670196
O O14 0.500000 0.750000 0.909310
#
# Coordination Sequence:
#
# PCOD8300066 Si02
#       6
#    16   8  16   8   8   8
#     4  10  21  39  60  82 113 151 187 228 281 333
#     4   9  19  35  53  75 107 142 173 213 271 327
#     4  10  20  35  54  76 103 138 177 217 267 323
#     4  10  21  36  58  85 109 143 192 234 269 324
#     4  11  22  37  59  86 115 148 187 230 275 330
#     4  10  21  36  54  76 108 145 174 215 279 333
#
# _framework density 19.061862999999999
#
# number of rings (size 3 to 8) (size 9 to 14) (size 15 to 20)
#    0.000    2.000    0.000    3.375    0.000    6.500 
#    0.000    3.750    0.000    0.000    0.000    0.000 
#    0.000    0.000    0.000    0.000    0.000    0.000 
#
# Total GULP energy -396932.925111 kJ/mol
# GULP energy per Si atom -12404.153910 kJ/mol
# Density = 1.901848 g / cm^3
# Si number density = 19.061863 Si / 1000 Ang^3
#
#
#
# Elastic Constant Matrix: (Units=GPa)
#
#
# Indices 1 2 3 4 5 6 
#
# 1 198.9509 50.6103 107.3916 0.0000 0.0000 0.0000
# 2 50.6103 43.5594 57.2292 0.0000 0.0000 0.0000
# 3 107.3916 57.2292 200.6058 0.0000 0.0000 0.0000
# 4 0.0000 0.0000 0.0000 112.7512 0.0000 0.0000
# 5 0.0000 0.0000 0.0000 0.0000 38.2347 0.0000
# 6 0.0000 0.0000 0.0000 0.0000 0.0000 12.1034
#
#
#
# Elastic Compliance Matrix: (Units=1/GPa)
#
#
# Indices 1 2 3 4 5 6 
#
# 1 0.007886 -0.005784 -0.002572 0.000000 0.000000 0.000000
# 2 -0.005784 0.040962 -0.008590 0.000000 0.000000 0.000000
# 3 -0.002572 -0.008590 0.008812 0.000000 0.000000 0.000000
# 4 0.000000 0.000000 0.000000 0.008869 0.000000 0.000000
# 5 0.000000 0.000000 0.000000 0.000000 0.026154 0.000000
# 6 0.000000 0.000000 0.000000 0.000000 0.000000 0.082621
#
#
# Mechanical properties :
#
#
# Convention : Reuss Voigt Hill
#
# Bulk Modulus (GPa) = 42.06923 97.06425 69.56674
# Shear Modulus (GPa) = 23.02901 47.81020 35.41961
#
# Velocity S-wave (km/s) = 3.47957 5.01359 4.31529
# Velocity P-wave (km/s) = 6.18555 9.19489 7.83604
#
# Compressibility (1/GPa) = 0.02377034
#
# Stress axis : x y z
#
# Youngs Moduli (GPa) = 126.81123 24.41284 113.48170
#
# Poissons Ratio (x) = 0.14119 0.29183
# Poissons Ratio (y) = 0.73343 0.97476
# Poissons Ratio (z) = 0.32610 0.20970
#
# Static dielectric constant tensor:
#      x y z
#    x 3.299980 0.000000 0.000000 
#    y 0.000000 3.263450 0.000000 
#    z 0.000000 0.000000 3.614750 
# 
# 
# High freq. dielectric constant tensor:
#      x y z
#    x 1.763680 0.000000 0.000000 
#    y 0.000000 1.720160 0.000000 
#    z 0.000000 0.000000 1.759770 
# 
# From -- ./inp_files/71353.got.cif
#   From: 2010.03.12/outbox.cif.g09.slc.cpg/sg74_36_cif.got.tgz:71353.got - 2010.04.16 15:46:19.
