data_PCOD8300743
_publ_section_title
;
Structure prediction by ZEFSAII (Michael W. Deem and Ramdas Pophale) SiO2 
 PCOD8300743
Probable space group: I M M A
;
_chemical_formula_sum "Si O2"
_cell_formula_units_Z 72
_cell_length_a 21.770823
_cell_length_b 9.411222
_cell_length_c 18.933888
_cell_angle_alpha 90.000000
_cell_angle_beta 90.000000
_cell_angle_gamma 90.000000
_cell_volume 3879.365228
_symmetry_space_group_name_H-M "I M M A"
_symmetry_group_IT_number 74
_symmetry_cell_setting 'orthorhombic'
loop_
_space_group_symop_operation_xyz
x,y,z
-x,1/2-y,z
x,-y,-z
-x,1/2+y,-z
-x,-y,-z
x,1/2+y,-z
-x,y,z
x,1/2-y,z
1/2+x,1/2+y,1/2+z
1/2-x,-y,1/2+z
1/2+x,1/2-y,1/2-z
1/2-x,y,1/2-z
1/2-x,1/2-y,1/2-z
1/2+x,y,1/2-z
1/2-x,1/2+y,1/2+z
1/2+x,-y,1/2+z
loop_
_atom_site_type_symbol
_atom_site_label
_atom_site_fract_x
_atom_site_fract_y
_atom_site_fract_z
Si Si1 0.099506 0.959784 0.688477
Si Si2 0.934292 0.250000 0.195676
Si Si3 0.926132 0.250000 0.751205
Si Si4 0.321833 0.750000 0.587890
Si Si5 0.868561 0.000000 0.000000
Si Si6 0.708183 0.750000 0.818625
Si Si7 0.571815 0.750000 0.412681
Si Si8 0.000000 0.087405 0.428153
O O1 0.065426 0.886613 0.754202
O O2 0.166418 0.890688 0.678077
O O3 0.060811 0.945724 0.616881
O O4 0.105624 0.122027 0.709790
O O5 0.876781 0.250000 0.144291
O O6 0.000000 0.250000 0.153708
O O7 0.903856 0.250000 0.832424
O O8 0.000000 0.250000 0.743360
O O9 0.325712 0.604291 0.544700
O O10 0.253353 0.750000 0.615920
O O11 0.908750 0.896464 0.049400
O O12 0.750000 0.750000 0.750000
O O13 0.500000 0.750000 0.412129
O O14 0.000000 0.250000 0.451090
O O15 0.000000 0.000000 0.500000
#
# Coordination Sequence:
#
# PCOD8300743 Si02
#       8
#    16   8   8   8   8   8   8   8
#     4  11  21  40  63  94 130 159 215 262 325 385
#     4  11  18  36  68  91 116 166 218 266 306 373
#     4  11  21  35  62  99 133 158 195 268 326 369
#     4  11  23  42  63  89 122 170 215 262 322 372
#     4  10  23  40  58  82 128 171 206 250 304 384
#     4  11  23  42  69  89 115 171 226 273 311 392
#     4  10  21  35  58  93 127 162 204 246 309 370
#     4  12  24  42  66  98 136 167 210 270 334 411
#
# _framework density 18.559737999999999
#
# number of rings (size 3 to 8) (size 9 to 14) (size 15 to 20)
#    0.000    1.111    6.667    1.667    1.556    4.444 
#    2.000    2.778    0.000    0.000    0.000    0.000 
#    0.000    0.000    0.000    0.000    0.000    0.000 
#
# Total GULP energy -446279.928414 kJ/mol
# GULP energy per Si atom -12396.664678 kJ/mol
# Density = 1.851749 g / cm^3
# Si number density = 18.559738 Si / 1000 Ang^3
#
#
#
# Elastic Constant Matrix: (Units=GPa)
#
#
# Indices 1 2 3 4 5 6 
#
# 1 134.2474 54.0693 64.1475 0.0000 0.0000 0.0000
# 2 54.0693 183.6540 76.5501 0.0000 0.0000 0.0000
# 3 64.1475 76.5501 130.6426 0.0000 0.0000 0.0000
# 4 0.0000 0.0000 0.0000 24.4530 0.0000 0.0000
# 5 0.0000 0.0000 0.0000 0.0000 45.6937 0.0000
# 6 0.0000 0.0000 0.0000 0.0000 0.0000 17.1008
#
#
#
# Elastic Compliance Matrix: (Units=1/GPa)
#
#
# Indices 1 2 3 4 5 6 
#
# 1 0.009921 -0.001178 -0.004181 0.000000 0.000000 0.000000
# 2 -0.001178 0.007345 -0.003725 0.000000 0.000000 0.000000
# 3 -0.004181 -0.003725 0.011890 0.000000 0.000000 0.000000
# 4 0.000000 0.000000 0.000000 0.040895 0.000000 0.000000
# 5 0.000000 0.000000 0.000000 0.000000 0.021885 0.000000
# 6 0.000000 0.000000 0.000000 0.000000 0.000000 0.058477
#
#
# Mechanical properties :
#
#
# Convention : Reuss Voigt Hill
#
# Bulk Modulus (GPa) = 91.01414 93.11977 92.06695
# Shear Modulus (GPa) = 29.02864 34.36798 31.69831
#
# Velocity S-wave (km/s) = 3.95912 4.30786 4.13717
# Velocity P-wave (km/s) = 8.36925 8.66173 8.51675
#
# Compressibility (1/GPa) = 0.01098730
#
# Stress axis : x y z
#
# Youngs Moduli (GPa) = 100.79285 136.15551 84.10287
#
# Poissons Ratio (x) = 0.16041 0.35165
# Poissons Ratio (y) = 0.11875 0.31329
# Poissons Ratio (z) = 0.42143 0.50719
#
# Static dielectric constant tensor:
#      x y z
#    x 3.658800 0.000000 0.000000 
#    y 0.000000 3.553640 0.000000 
#    z 0.000000 0.000000 3.668830 
# 
# 
# High freq. dielectric constant tensor:
#      x y z
#    x 1.707100 0.000000 0.000000 
#    y 0.000000 1.736000 0.000000 
#    z 0.000000 0.000000 1.722080 
# 
# From -- ./inp_files/45874.got.cif
#   From: 2010.03.12/outbox.cif.g09.slc.cpg/sg74_23_cif.got.tgz:45874.got - 2010.04.16 15:46:19.
