data_PCOD8300591
_publ_section_title
;
Structure prediction by ZEFSAII (Michael W. Deem and Ramdas Pophale) SiO2 
 PCOD8300591
Probable space group: I M M A
;
_chemical_formula_sum "Si O2"
_cell_formula_units_Z 96
_cell_length_a 17.074707
_cell_length_b 27.702713
_cell_length_c 11.002924
_cell_angle_alpha 90.000000
_cell_angle_beta 90.000000
_cell_angle_gamma 90.000000
_cell_volume 5204.555881
_symmetry_space_group_name_H-M "I M M A"
_symmetry_group_IT_number 74
_symmetry_cell_setting 'orthorhombic'
loop_
_space_group_symop_operation_xyz
x,y,z
-x,1/2-y,z
x,-y,-z
-x,1/2+y,-z
-x,-y,-z
x,1/2+y,-z
-x,y,z
x,1/2-y,z
1/2+x,1/2+y,1/2+z
1/2-x,-y,1/2+z
1/2+x,1/2-y,1/2-z
1/2-x,y,1/2-z
1/2-x,1/2-y,1/2-z
1/2+x,y,1/2-z
1/2-x,1/2+y,1/2+z
1/2+x,-y,1/2+z
loop_
_atom_site_type_symbol
_atom_site_label
_atom_site_fract_x
_atom_site_fract_y
_atom_site_fract_z
Si Si1 0.700512 0.637718 0.364799
Si Si2 0.832196 0.971691 0.710981
Si Si3 0.912234 0.569137 0.267358
Si Si4 0.840377 0.367134 0.244338
Si Si5 0.158111 0.401017 0.490190
Si Si6 0.090086 0.805699 0.967597
O O1 0.750000 0.658417 0.250000
O O2 0.647461 0.592494 0.326797
O O3 0.757710 0.618723 0.468600
O O4 0.645023 0.679147 0.419807
O O5 0.750000 0.996122 0.750000
O O6 0.846130 0.923965 0.796100
O O7 0.829644 0.953909 0.570357
O O8 0.898984 0.011667 0.727010
O O9 0.901839 0.594246 0.399019
O O10 0.000000 0.578735 0.222845
O O11 0.750000 0.350285 0.250000
O O12 0.873686 0.364475 0.384266
O O13 0.891169 0.334748 0.155272
O O14 0.105743 0.750000 0.939310
O O15 0.000000 0.815104 0.003869
#
# Coordination Sequence:
#
# PCOD8300591 Si02
#       6
#    16  16  16  16  16  16
#     4  10  20  39  59  78 107 144 194 228 262 319
#     4   9  17  32  53  77 108 143 185 224 263 315
#     4  11  22  31  48  81 115 152 183 219 269 322
#     4   9  18  36  58  83 106 141 184 224 269 326
#     4   9  18  34  57  78 106 142 185 226 266 310
#     4  11  23  39  60  85 113 141 171 227 297 337
#
# _framework density 18.445378000000002
#
# number of rings (size 3 to 8) (size 9 to 14) (size 15 to 20)
#    1.000    1.167    1.667    2.500    0.000    3.333 
#    0.000    0.833    0.000    5.000    0.000    9.333 
#    0.000    0.000    0.000    0.000    0.000    0.000 
#
# Total GULP energy -594729.085223 kJ/mol
# GULP energy per Si atom -12390.189275 kJ/mol
# Density = 1.840340 g / cm^3
# Si number density = 18.445378 Si / 1000 Ang^3
#
#
#
# Elastic Constant Matrix: (Units=GPa)
#
#
# Indices 1 2 3 4 5 6 
#
# 1 97.0538 44.8589 35.0020 0.0009 -0.0005 -0.0003
# 2 44.8589 91.1935 40.9200 -0.0008 -0.0004 0.0001
# 3 35.0020 40.9200 89.4506 -0.0114 -0.0024 0.0015
# 4 0.0009 -0.0008 -0.0114 18.7525 -0.0003 0.0008
# 5 -0.0005 -0.0004 -0.0024 -0.0003 20.3451 -0.0001
# 6 -0.0003 0.0001 0.0015 0.0008 -0.0001 27.3981
#
#
#
# Elastic Compliance Matrix: (Units=1/GPa)
#
#
# Indices 1 2 3 4 5 6 
#
# 1 0.013913 -0.005538 -0.002911 -0.000003 0.000000 0.000000
# 2 -0.005538 0.016002 -0.005153 -0.000002 0.000000 0.000000
# 3 -0.002911 -0.005153 0.014676 0.000009 0.000002 -0.000001
# 4 -0.000003 -0.000002 0.000009 0.053326 0.000001 -0.000002
# 5 0.000000 0.000000 0.000002 0.000001 0.049152 0.000000
# 6 0.000000 0.000000 -0.000001 -0.000002 0.000000 0.036499
#
#
# Mechanical properties :
#
#
# Convention : Reuss Voigt Hill
#
# Bulk Modulus (GPa) = 57.51443 57.69552 57.60497
# Shear Modulus (GPa) = 23.08746 23.76026 23.42386
#
# Velocity S-wave (km/s) = 3.54173 3.59296 3.56744
# Velocity P-wave (km/s) = 6.92631 6.96847 6.94742
#
# Compressibility (1/GPa) = 0.01738694
#
# Stress axis : x y z
#
# Youngs Moduli (GPa) = 71.87556 62.49141 68.13914
#
# Poissons Ratio (x) = 0.34606 0.19834
# Poissons Ratio (y) = 0.39803 0.35115
# Poissons Ratio (z) = 0.20922 0.32205
#
# Static dielectric constant tensor:
#      x y z
#    x 3.228000 0.000000 0.000000 
#    y 0.000000 3.096200 0.000000 
#    z 0.000000 0.000000 3.416990 
# 
# 
# High freq. dielectric constant tensor:
#      x y z
#    x 1.706740 0.000000 0.000000 
#    y 0.000000 1.687930 0.000000 
#    z 0.000000 0.000000 1.718000 
# 
# From -- ./inp_files/22664.got.cif
#   From: 2010.03.12/outbox.cif.g09.slc.cpg/sg74_12_cif.got.tgz:22664.got - 2010.04.16 15:46:19.
