data_PCOD8300915
_publ_section_title
;
Structure prediction by ZEFSAII (Michael W. Deem and Ramdas Pophale) SiO2 
 PCOD8300915
Probable space group: I M M A
;
_chemical_formula_sum "Si O2"
_cell_formula_units_Z 112
_cell_length_a 15.449996
_cell_length_b 24.970050
_cell_length_c 13.573039
_cell_angle_alpha 90.000000
_cell_angle_beta 90.000000
_cell_angle_gamma 90.000000
_cell_volume 5236.304340
_symmetry_space_group_name_H-M "I M M A"
_symmetry_group_IT_number 74
_symmetry_cell_setting 'orthorhombic'
loop_
_space_group_symop_operation_xyz
x,y,z
-x,1/2-y,z
x,-y,-z
-x,1/2+y,-z
-x,-y,-z
x,1/2+y,-z
-x,y,z
x,1/2-y,z
1/2+x,1/2+y,1/2+z
1/2-x,-y,1/2+z
1/2+x,1/2-y,1/2-z
1/2-x,y,1/2-z
1/2-x,1/2-y,1/2-z
1/2+x,y,1/2-z
1/2-x,1/2+y,1/2+z
1/2+x,-y,1/2+z
loop_
_atom_site_type_symbol
_atom_site_label
_atom_site_fract_x
_atom_site_fract_y
_atom_site_fract_z
Si Si1 0.779980 0.689647 0.050267
Si Si2 0.655071 0.595328 0.746577
Si Si3 0.904038 0.650414 0.407060
Si Si4 0.403839 0.189703 0.371674
Si Si5 0.339983 0.605625 0.291051
Si Si6 0.903274 0.051821 0.452829
Si Si7 0.400405 0.498887 0.388352
O O1 0.805003 0.750000 0.079890
O O2 0.674653 0.686102 0.049126
O O3 0.820164 0.649977 0.128239
O O4 0.826178 0.675293 0.946903
O O5 0.750000 0.619517 0.750000
O O6 0.595997 0.646022 0.716312
O O7 0.638128 0.573534 0.854538
O O8 0.651145 0.546518 0.669788
O O9 0.894016 0.636528 0.292086
O O10 0.900538 0.594895 0.462517
O O11 0.000000 0.677393 0.421960
O O12 0.500000 0.186337 0.421265
O O13 0.389671 0.250000 0.329717
O O14 0.250000 0.582013 0.250000
O O15 0.392544 0.556736 0.337516
O O16 0.000000 0.034555 0.423325
O O17 0.854733 0.000000 0.500000
O O18 0.364365 0.500000 0.500000
O O19 0.500000 0.481476 0.388021
#
# Coordination Sequence:
#
# PCOD8300915 Si02
#       7
#    16  16  16  16  16  16  16
#     4  10  22  41  63  88 120 158 204 260 319 380
#     4  12  24  38  62  92 123 162 204 250 307 371
#     4  10  21  37  59  87 120 160 204 252 308 372
#     4  10  22  42  67  93 123 161 207 260 315 370
#     4  10  21  37  58  85 119 159 201 250 308 372
#     4  10  21  38  59  83 116 158 200 240 290 360
#     4  11  23  38  59  88 121 155 196 252 314 374
#
# _framework density 21.389130999999999
#
# number of rings (size 3 to 8) (size 9 to 14) (size 15 to 20)
#    0.000    1.571    0.000    4.714    0.000    9.429 
#    0.000    0.714    0.000    0.857    0.000    0.000 
#    0.000    0.000    0.000    0.000    0.000    0.000 
#
# Total GULP energy -694178.336039 kJ/mol
# GULP energy per Si atom -12396.041715 kJ/mol
# Density = 2.134045 g / cm^3
# Si number density = 21.389131 Si / 1000 Ang^3
#
#
#
# Elastic Constant Matrix: (Units=GPa)
#
#
# Indices 1 2 3 4 5 6 
#
# 1 103.6255 33.1077 37.1992 -0.0001 0.0000 0.0000
# 2 33.1077 113.0265 47.5934 0.0002 0.0000 0.0000
# 3 37.1992 47.5934 85.2506 0.0003 0.0000 0.0000
# 4 -0.0001 0.0002 0.0003 20.3495 0.0000 0.0000
# 5 0.0000 0.0000 0.0000 0.0000 29.1969 0.0000
# 6 0.0000 0.0000 0.0000 0.0000 0.0000 31.2563
#
#
#
# Elastic Compliance Matrix: (Units=1/GPa)
#
#
# Indices 1 2 3 4 5 6 
#
# 1 0.011678 -0.001667 -0.004165 0.000000 0.000000 0.000000
# 2 -0.001667 0.011804 -0.005863 0.000000 0.000000 0.000000
# 3 -0.004165 -0.005863 0.016821 0.000000 0.000000 0.000000
# 4 0.000000 0.000000 0.000000 0.049141 0.000000 0.000000
# 5 0.000000 0.000000 0.000000 0.000000 0.034250 0.000000
# 6 0.000000 0.000000 0.000000 0.000000 0.000000 0.031994
#
#
# Mechanical properties :
#
#
# Convention : Reuss Voigt Hill
#
# Bulk Modulus (GPa) = 59.12454 59.74481 59.43467
# Shear Modulus (GPa) = 27.06871 28.42739 27.74805
#
# Velocity S-wave (km/s) = 3.56130 3.64958 3.60571
# Velocity P-wave (km/s) = 6.67928 6.76404 6.72179
#
# Compressibility (1/GPa) = 0.01691345
#
# Stress axis : x y z
#
# Youngs Moduli (GPa) = 85.63228 84.71371 59.45074
#
# Poissons Ratio (x) = 0.14120 0.24762
# Poissons Ratio (y) = 0.14273 0.34855
# Poissons Ratio (z) = 0.35667 0.49666
#
# Static dielectric constant tensor:
#      x y z
#    x 4.150770 0.000000 0.000000 
#    y 0.000000 3.759100 0.000000 
#    z 0.000000 0.000000 5.131610 
# 
# 
# High freq. dielectric constant tensor:
#      x y z
#    x 1.847780 0.000000 0.000000 
#    y 0.000000 1.839670 0.000000 
#    z 0.000000 0.000000 1.837090 
# 
# From -- ./inp_files/32711.got.cif
#   From: 2010.03.12/outbox.cif.g09.slc.cpg/sg74_17_cif.got.tgz:32711.got - 2010.04.16 15:46:19.
