data_PCOD8300672
_publ_section_title
;
Structure prediction by ZEFSAII (Michael W. Deem and Ramdas Pophale) SiO2 
 PCOD8300672
Probable space group: I M M A
;
_chemical_formula_sum "Si O2"
_cell_formula_units_Z 112
_cell_length_a 22.215441
_cell_length_b 14.929403
_cell_length_c 16.791388
_cell_angle_alpha 90.000000
_cell_angle_beta 90.000000
_cell_angle_gamma 90.000000
_cell_volume 5569.086677
_symmetry_space_group_name_H-M "I M M A"
_symmetry_group_IT_number 74
_symmetry_cell_setting 'orthorhombic'
loop_
_space_group_symop_operation_xyz
x,y,z
-x,1/2-y,z
x,-y,-z
-x,1/2+y,-z
-x,-y,-z
x,1/2+y,-z
-x,y,z
x,1/2-y,z
1/2+x,1/2+y,1/2+z
1/2-x,-y,1/2+z
1/2+x,1/2-y,1/2-z
1/2-x,y,1/2-z
1/2-x,1/2-y,1/2-z
1/2+x,y,1/2-z
1/2-x,1/2+y,1/2+z
1/2+x,-y,1/2+z
loop_
_atom_site_type_symbol
_atom_site_label
_atom_site_fract_x
_atom_site_fract_y
_atom_site_fract_z
Si Si1 0.430917 0.150508 0.044851
Si Si2 0.568811 0.350164 0.606452
Si Si3 0.353282 0.467158 0.154452
Si Si4 0.746702 0.908748 0.953775
Si Si5 0.378399 0.648388 0.560624
Si Si6 0.569638 0.973189 0.694186
Si Si7 0.840995 0.346225 0.586107
O O1 0.500000 0.127508 0.039238
O O2 0.419895 0.250000 0.083750
O O3 0.401923 0.068400 0.092114
O O4 0.405945 0.150544 0.955411
O O5 0.500000 0.354720 0.577851
O O6 0.584709 0.250000 0.637997
O O7 0.609217 0.376322 0.530977
O O8 0.580611 0.421753 0.676141
O O9 0.290250 0.420798 0.129507
O O10 0.380545 0.443727 0.240739
O O11 0.340282 0.573551 0.149209
O O12 0.807393 0.861632 0.925486
O O13 0.708984 0.850035 0.016167
O O14 0.761430 0.000000 0.000000
O O15 0.397944 0.750000 0.579154
O O16 0.418279 0.584867 0.615995
O O17 0.500000 0.957752 0.722033
O O18 0.832120 0.250000 0.630048
#
# Coordination Sequence:
#
# PCOD8300672 Si02
#       7
#    16  16  16  16  16  16  16
#     4   9  17  30  49  71  97 136 185 230 267 305
#     4   9  19  37  60  84 108 136 175 225 276 323
#     4  10  21  34  51  77 111 147 176 213 265 321
#     4   9  18  35  58  82 109 142 180 221 265 314
#     4  11  22  37  60  83 104 136 181 230 276 324
#     4  11  23  37  54  80 114 147 179 218 267 324
#     4   9  18  33  53  78 107 139 180 225 264 309
#
# _framework density 20.111017
#
# number of rings (size 3 to 8) (size 9 to 14) (size 15 to 20)
#    0.000    2.286    0.000    3.857    0.000    6.000 
#    0.000    0.714    0.000    0.000    0.000    8.000 
#    0.000    0.000    0.000    0.000    0.000    0.000 
#
# Total GULP energy -694021.020694 kJ/mol
# GULP energy per Si atom -12393.232512 kJ/mol
# Density = 2.006524 g / cm^3
# Si number density = 20.111017 Si / 1000 Ang^3
#
#
#
# Elastic Constant Matrix: (Units=GPa)
#
#
# Indices 1 2 3 4 5 6 
#
# 1 84.1029 10.7576 16.4255 0.0000 0.0000 0.0000
# 2 10.7576 54.4878 -5.0172 0.0000 0.0000 0.0000
# 3 16.4255 -5.0172 41.1139 0.0000 0.0000 0.0000
# 4 0.0000 0.0000 0.0000 18.5870 0.0000 0.0000
# 5 0.0000 0.0000 0.0000 0.0000 25.2566 0.0000
# 6 0.0000 0.0000 0.0000 0.0000 0.0000 23.7041
#
#
#
# Elastic Compliance Matrix: (Units=1/GPa)
#
#
# Indices 1 2 3 4 5 6 
#
# 1 0.013420 -0.003179 -0.005749 0.000000 0.000000 0.000000
# 2 -0.003179 0.019314 0.003627 0.000000 0.000000 0.000000
# 3 -0.005749 0.003627 0.027062 0.000000 0.000000 0.000000
# 4 0.000000 0.000000 0.000000 0.053801 0.000000 0.000000
# 5 0.000000 0.000000 0.000000 0.000000 0.039594 0.000000
# 6 0.000000 0.000000 0.000000 0.000000 0.000000 0.042187
#
#
# Mechanical properties :
#
#
# Convention : Reuss Voigt Hill
#
# Bulk Modulus (GPa) = 20.32773 24.89291 22.61032
# Shear Modulus (GPa) = 22.48429 24.01214 23.24821
#
# Velocity S-wave (km/s) = 3.34729 3.45915 3.40368
# Velocity P-wave (km/s) = 5.00688 5.32531 5.16855
#
# Compressibility (1/GPa) = 0.04919388
#
# Stress axis : x y z
#
# Youngs Moduli (GPa) = 74.51768 51.77514 36.95199
#
# Poissons Ratio (x) = 0.16458 0.21244
# Poissons Ratio (y) = 0.23688 -0.13402
# Poissons Ratio (z) = 0.42842 -0.18779
#
# Static dielectric constant tensor:
#      x y z
#    x 3.680680 0.000000 0.000000 
#    y 0.000000 3.930250 0.000000 
#    z 0.000000 0.000000 3.203730 
# 
# 
# High freq. dielectric constant tensor:
#      x y z
#    x 1.789010 0.000000 0.000000 
#    y 0.000000 1.800310 0.000000 
#    z 0.000000 0.000000 1.740070 
# 
# From -- ./inp_files/36469.got.cif
#   From: 2010.03.12/outbox.cif.g09.slc.cpg/sg74_19_cif.got.tgz:36469.got - 2010.04.16 15:46:19.
