data_PCOD8300400
_publ_section_title
;
Structure prediction by ZEFSAII (Michael W. Deem and Ramdas Pophale) SiO2 
 PCOD8300400
Probable space group: I M M A
;
_chemical_formula_sum "Si O2"
_cell_formula_units_Z 96
_cell_length_a 21.001654
_cell_length_b 11.481203
_cell_length_c 20.481941
_cell_angle_alpha 90.000000
_cell_angle_beta 90.000000
_cell_angle_gamma 90.000000
_cell_volume 4938.692722
_symmetry_space_group_name_H-M "I M M A"
_symmetry_group_IT_number 74
_symmetry_cell_setting 'orthorhombic'
loop_
_space_group_symop_operation_xyz
x,y,z
-x,1/2-y,z
x,-y,-z
-x,1/2+y,-z
-x,-y,-z
x,1/2+y,-z
-x,y,z
x,1/2-y,z
1/2+x,1/2+y,1/2+z
1/2-x,-y,1/2+z
1/2+x,1/2-y,1/2-z
1/2-x,y,1/2-z
1/2-x,1/2-y,1/2-z
1/2+x,y,1/2-z
1/2-x,1/2+y,1/2+z
1/2+x,-y,1/2+z
loop_
_atom_site_type_symbol
_atom_site_label
_atom_site_fract_x
_atom_site_fract_y
_atom_site_fract_z
Si Si1 0.740690 0.119571 0.387909
Si Si2 0.159314 0.500000 0.000000
Si Si3 0.070938 0.885007 0.095110
Si Si4 0.869079 0.879997 0.542377
Si Si5 0.500000 0.450997 0.071620
Si Si6 0.000000 0.387517 0.689253
Si Si7 0.621217 0.612230 0.269141
Si Si8 0.250000 0.494469 0.250000
O O1 0.714379 0.250000 0.393010
O O2 0.702520 0.046064 0.441436
O O3 0.815068 0.110697 0.403475
O O4 0.732763 0.080218 0.313532
O O5 0.112547 0.402912 0.969938
O O6 0.061537 0.750000 0.107106
O O7 0.108999 0.937313 0.157594
O O8 0.000000 0.941731 0.089072
O O9 0.861900 0.750000 0.506459
O O10 0.936181 0.875107 0.580887
O O11 0.864844 0.000000 0.500000
O O12 0.500000 0.563134 0.117128
O O13 0.500000 0.500000 0.000000
O O14 0.062731 0.433774 0.725804
O O15 0.000000 0.250000 0.683920
O O16 0.622894 0.750000 0.270001
O O17 0.687589 0.572026 0.237400
#
# Coordination Sequence:
#
# PCOD8300400 Si02
#       8
#    16   8  16  16   8   8  16   8
#     4  11  24  40  60  86 121 163 207 253 312 374
#     4  12  21  40  62  93 120 160 208 250 314 371
#     4  10  20  37  62  92 125 157 195 249 310 370
#     4  10  21  39  60  87 118 160 206 258 315 371
#     4  10  21  35  55  84 115 154 201 254 306 367
#     4  10  20  37  60  85 121 160 205 253 316 381
#     4  10  20  36  60  90 120 157 202 253 309 374
#     4  12  22  40  58  86 122 160 208 252 308 370
#
# _framework density 19.438341000000001
#
# number of rings (size 3 to 8) (size 9 to 14) (size 15 to 20)
#    0.000    1.500    3.333    2.500    0.000    2.667 
#    0.000    1.667    0.000    0.000    0.000    0.000 
#    0.000    0.000    0.000    0.000    0.000    0.000 
#
# Total GULP energy -594723.841513 kJ/mol
# GULP energy per Si atom -12390.080032 kJ/mol
# Density = 1.939410 g / cm^3
# Si number density = 19.438341 Si / 1000 Ang^3
#
#
#
# Elastic Constant Matrix: (Units=GPa)
#
#
# Indices 1 2 3 4 5 6 
#
# 1 140.9673 31.5566 46.3490 0.0000 0.0000 0.0000
# 2 31.5566 81.4450 38.0112 0.0000 0.0000 0.0000
# 3 46.3490 38.0112 125.2574 0.0000 0.0000 0.0000
# 4 0.0000 0.0000 0.0000 32.0573 0.0000 0.0000
# 5 0.0000 0.0000 0.0000 0.0000 26.8454 0.0000
# 6 0.0000 0.0000 0.0000 0.0000 0.0000 23.8000
#
#
#
# Elastic Compliance Matrix: (Units=1/GPa)
#
#
# Indices 1 2 3 4 5 6 
#
# 1 0.008372 -0.002095 -0.002462 0.000000 0.000000 0.000000
# 2 -0.002095 0.014828 -0.003725 0.000000 0.000000 0.000000
# 3 -0.002462 -0.003725 0.010025 0.000000 0.000000 0.000000
# 4 0.000000 0.000000 0.000000 0.031194 0.000000 0.000000
# 5 0.000000 0.000000 0.000000 0.000000 0.037250 0.000000
# 6 0.000000 0.000000 0.000000 0.000000 0.000000 0.042017
#
#
# Mechanical properties :
#
#
# Convention : Reuss Voigt Hill
#
# Bulk Modulus (GPa) = 60.01688 64.38927 62.20307
# Shear Modulus (GPa) = 30.15599 31.99073 31.07336
#
# Velocity S-wave (km/s) = 3.94301 4.06119 4.00254
# Velocity P-wave (km/s) = 7.18835 7.42885 7.30959
#
# Compressibility (1/GPa) = 0.01666198
#
# Stress axis : x y z
#
# Youngs Moduli (GPa) = 119.44051 67.43892 99.75038
#
# Poissons Ratio (x) = 0.14127 0.24562
# Poissons Ratio (y) = 0.25020 0.37154
# Poissons Ratio (z) = 0.29410 0.25119
#
# Static dielectric constant tensor:
#      x y z
#    x 4.133910 0.000000 0.000000 
#    y 0.000000 3.445070 0.000000 
#    z 0.000000 0.000000 3.314660 
# 
# 
# High freq. dielectric constant tensor:
#      x y z
#    x 1.782060 0.000000 0.000000 
#    y 0.000000 1.738160 0.000000 
#    z 0.000000 0.000000 1.747990 
# 
# From -- ./inp_files/53931.got.cif
#   From: 2010.03.12/outbox.cif.g09.slc.cpg/sg74_27_cif.got.tgz:53931.got - 2010.04.16 15:46:19.
