data_PCOD8300399
_publ_section_title
;
Structure prediction by ZEFSAII (Michael W. Deem and Ramdas Pophale) SiO2 
 PCOD8300399
Probable space group: I M M A
;
_chemical_formula_sum "Si O2"
_cell_formula_units_Z 96
_cell_length_a 14.381964
_cell_length_b 20.819512
_cell_length_c 14.446925
_cell_angle_alpha 90.000000
_cell_angle_beta 90.000000
_cell_angle_gamma 90.000000
_cell_volume 4325.777338
_symmetry_space_group_name_H-M "I M M A"
_symmetry_group_IT_number 74
_symmetry_cell_setting 'orthorhombic'
loop_
_space_group_symop_operation_xyz
x,y,z
-x,1/2-y,z
x,-y,-z
-x,1/2+y,-z
-x,-y,-z
x,1/2+y,-z
-x,y,z
x,1/2-y,z
1/2+x,1/2+y,1/2+z
1/2-x,-y,1/2+z
1/2+x,1/2-y,1/2-z
1/2-x,y,1/2-z
1/2-x,1/2-y,1/2-z
1/2+x,y,1/2-z
1/2-x,1/2+y,1/2+z
1/2+x,-y,1/2+z
loop_
_atom_site_type_symbol
_atom_site_label
_atom_site_fract_x
_atom_site_fract_y
_atom_site_fract_z
Si Si1 0.100822 0.356564 0.099594
Si Si2 0.608936 0.823577 0.094591
Si Si3 0.390234 0.431821 0.765665
Si Si4 0.395165 0.053955 0.563634
Si Si5 0.800380 0.680189 0.599317
Si Si6 0.604089 0.574075 0.782990
O O1 0.189048 0.310128 0.108447
O O2 0.109203 0.416201 0.171953
O O3 0.000000 0.321780 0.116879
O O4 0.102751 0.381072 0.994728
O O5 0.500000 0.835112 0.073686
O O6 0.626087 0.750000 0.127175
O O7 0.647466 0.872918 0.172344
O O8 0.667307 0.839837 0.002900
O O9 0.500000 0.423559 0.757930
O O10 0.345556 0.430308 0.662097
O O11 0.364193 0.501607 0.808610
O O12 0.500000 0.028893 0.585097
O O13 0.343352 0.000000 0.500000
O O14 0.844168 0.750000 0.624804
O O15 0.829506 0.625750 0.670359
O O16 0.500000 0.585915 0.820231
#
# Coordination Sequence:
#
# PCOD8300399 Si02
#       6
#    16  16  16  16  16  16
#     4  10  21  38  59  85 116 151 194 244 303 366
#     4   9  19  38  62  87 120 162 201 240 295 357
#     4   9  17  33  60  93 124 153 192 244 295 351
#     4   9  15  31  59  86 115 153 189 233 295 353
#     4  11  24  41  57  80 117 159 205 253 301 356
#     4  10  20  36  60  90 120 151 192 245 304 362
#
# _framework density 22.192543000000001
#
# number of rings (size 3 to 8) (size 9 to 14) (size 15 to 20)
#    0.000    2.333    1.667    1.000    0.000    3.333 
#    3.000    5.833    0.000    5.000    0.000    0.000 
#    0.000    0.000    0.000    0.000    0.000    0.000 
#
# Total GULP energy -594762.799671 kJ/mol
# GULP energy per Si atom -12390.891660 kJ/mol
# Density = 2.214203 g / cm^3
# Si number density = 22.192543 Si / 1000 Ang^3
#
#
#
# Elastic Constant Matrix: (Units=GPa)
#
#
# Indices 1 2 3 4 5 6 
#
# 1 86.6796 33.3463 34.6297 -0.0001 0.0000 0.0000
# 2 33.3463 124.8965 73.6037 -0.0005 0.0000 0.0000
# 3 34.6297 73.6037 132.9246 -0.0012 0.0000 0.0000
# 4 -0.0001 -0.0005 -0.0012 19.4145 0.0000 0.0000
# 5 0.0000 0.0000 0.0000 0.0000 9.5405 0.0000
# 6 0.0000 0.0000 0.0000 0.0000 0.0000 17.8382
#
#
#
# Elastic Compliance Matrix: (Units=1/GPa)
#
#
# Indices 1 2 3 4 5 6 
#
# 1 0.013285 -0.002238 -0.002222 0.000000 0.000000 0.000000
# 2 -0.002238 0.012262 -0.006207 0.000000 0.000000 0.000000
# 3 -0.002222 -0.006207 0.011539 0.000001 0.000000 0.000000
# 4 0.000000 0.000000 0.000001 0.051508 0.000000 0.000000
# 5 0.000000 0.000000 0.000000 0.000000 0.104817 0.000000
# 6 0.000000 0.000000 0.000000 0.000000 0.000000 0.056060
#
#
# Mechanical properties :
#
#
# Convention : Reuss Voigt Hill
#
# Bulk Modulus (GPa) = 63.47955 69.74000 66.60977
# Shear Modulus (GPa) = 18.11241 22.88669 20.49955
#
# Velocity S-wave (km/s) = 2.85993 3.21484 3.04256
# Velocity P-wave (km/s) = 6.29060 6.72855 6.51326
#
# Compressibility (1/GPa) = 0.01575311
#
# Stress axis : x y z
#
# Youngs Moduli (GPa) = 75.27116 81.55437 86.66419
#
# Poissons Ratio (x) = 0.18248 0.19258
# Poissons Ratio (y) = 0.16842 0.53790
# Poissons Ratio (z) = 0.16726 0.50619
#
# Static dielectric constant tensor:
#      x y z
#    x 3.886720 0.000000 0.000000 
#    y 0.000000 3.777050 0.000000 
#    z 0.000000 0.000000 4.091550 
# 
# 
# High freq. dielectric constant tensor:
#      x y z
#    x 1.857200 0.000000 0.000000 
#    y 0.000000 1.860560 0.000000 
#    z 0.000000 0.000000 1.868640 
# 
# From -- ./inp_files/32359.got.cif
#   From: 2010.03.12/outbox.cif.g09.slc.cpg/sg74_17_cif.got.tgz:32359.got - 2010.04.16 15:46:19.
