data_PCOD8300914
_publ_section_title
;
Structure prediction by ZEFSAII (Michael W. Deem and Ramdas Pophale) SiO2 
 PCOD8300914
Probable space group: I M M A
;
_chemical_formula_sum "Si O2"
_cell_formula_units_Z 104
_cell_length_a 8.988860
_cell_length_b 21.148811
_cell_length_c 27.186133
_cell_angle_alpha 90.000000
_cell_angle_beta 90.000000
_cell_angle_gamma 90.000000
_cell_volume 5168.184506
_symmetry_space_group_name_H-M "I M M A"
_symmetry_group_IT_number 74
_symmetry_cell_setting 'orthorhombic'
loop_
_space_group_symop_operation_xyz
x,y,z
-x,1/2-y,z
x,-y,-z
-x,1/2+y,-z
-x,-y,-z
x,1/2+y,-z
-x,y,z
x,1/2-y,z
1/2+x,1/2+y,1/2+z
1/2-x,-y,1/2+z
1/2+x,1/2-y,1/2-z
1/2-x,y,1/2-z
1/2-x,1/2-y,1/2-z
1/2+x,y,1/2-z
1/2-x,1/2+y,1/2+z
1/2+x,-y,1/2+z
loop_
_atom_site_type_symbol
_atom_site_label
_atom_site_fract_x
_atom_site_fract_y
_atom_site_fract_z
Si Si1 0.329423 0.649746 0.134305
Si Si2 0.169590 0.675890 0.799085
Si Si3 0.175740 0.823919 0.032368
Si Si4 0.326069 0.083112 0.137837
Si Si5 0.168762 0.467983 0.700452
Si Si6 0.325512 0.565884 0.974288
Si Si7 0.825744 0.250000 0.801776
O O1 0.500000 0.674263 0.135185
O O2 0.266711 0.654562 0.079877
O O3 0.318172 0.579386 0.154646
O O4 0.223052 0.688916 0.169128
O O5 0.189379 0.750000 0.804546
O O6 0.250000 0.650644 0.750000
O O7 0.240551 0.647261 0.848680
O O8 0.000000 0.654908 0.795004
O O9 0.210333 0.750000 0.019183
O O10 0.000000 0.832581 0.040972
O O11 0.232208 0.872426 0.990862
O O12 0.500000 0.095471 0.143133
O O13 0.289701 0.058808 0.083283
O O14 0.267669 0.032777 0.178163
O O15 0.250000 0.445626 0.750000
O O16 0.000000 0.475833 0.716846
O O17 0.500000 0.578010 0.984850
O O18 0.274636 0.500000 0.000000
O O19 0.750000 0.250000 0.750000
O O20 0.000000 0.250000 0.794088
#
# Coordination Sequence:
#
# PCOD8300914 Si02
#       7
#    16  16  16  16  16  16   8
#     4  11  22  39  62  86 116 159 205 248 300 358
#     4  10  21  37  58  85 118 155 194 237 288 352
#     4  11  24  41  62  91 126 161 202 258 314 372
#     4  10  21  38  60  87 118 151 193 246 298 355
#     4  10  22  38  58  87 120 155 197 244 296 355
#     4  10  22  42  66  90 119 158 206 259 310 368
#     4  12  24  38  56  84 120 156 200 250 299 352
#
# _framework density 20.12312
#
# number of rings (size 3 to 8) (size 9 to 14) (size 15 to 20)
#    0.000    1.538    0.769    3.923    0.000   10.154 
#    0.000    4.615    0.000    0.000    0.000    0.000 
#    0.000    0.000    0.000    0.000    0.000    0.000 
#
# Total GULP energy -644761.869062 kJ/mol
# GULP energy per Si atom -12399.266713 kJ/mol
# Density = 2.007732 g / cm^3
# Si number density = 20.123120 Si / 1000 Ang^3
#
#
#
# Elastic Constant Matrix: (Units=GPa)
#
#
# Indices 1 2 3 4 5 6 
#
# 1 107.0618 51.6645 51.8431 0.0000 0.0000 0.0000
# 2 51.6645 88.7499 54.2298 0.0000 0.0000 0.0000
# 3 51.8431 54.2298 100.3373 0.0000 0.0000 0.0000
# 4 0.0000 0.0000 0.0000 35.2517 0.0000 0.0000
# 5 0.0000 0.0000 0.0000 0.0000 36.3405 0.0000
# 6 0.0000 0.0000 0.0000 0.0000 0.0000 35.6396
#
#
#
# Elastic Compliance Matrix: (Units=1/GPa)
#
#
# Indices 1 2 3 4 5 6 
#
# 1 0.014110 -0.005613 -0.004257 0.000000 0.000000 0.000000
# 2 -0.005613 0.019056 -0.007399 0.000000 0.000000 0.000000
# 3 -0.004257 -0.007399 0.016165 0.000000 0.000000 0.000000
# 4 0.000000 0.000000 0.000000 0.028367 0.000000 0.000000
# 5 0.000000 0.000000 0.000000 0.000000 0.027518 0.000000
# 6 0.000000 0.000000 0.000000 0.000000 0.000000 0.028059
#
#
# Mechanical properties :
#
#
# Convention : Reuss Voigt Hill
#
# Bulk Modulus (GPa) = 67.59840 67.95821 67.77830
# Shear Modulus (GPa) = 28.94432 30.67380 29.80906
#
# Velocity S-wave (km/s) = 3.79669 3.90847 3.85299
# Velocity P-wave (km/s) = 7.27222 7.36293 7.31771
#
# Compressibility (1/GPa) = 0.01479325
#
# Stress axis : x y z
#
# Youngs Moduli (GPa) = 70.86950 52.47566 61.86161
#
# Poissons Ratio (x) = 0.29454 0.26335
# Poissons Ratio (y) = 0.39779 0.45774
# Poissons Ratio (z) = 0.30169 0.38829
#
# Static dielectric constant tensor:
#      x y z
#    x 3.643340 0.000000 0.000000 
#    y 0.000000 3.786550 0.000000 
#    z 0.000000 0.000000 3.570770 
# 
# 
# High freq. dielectric constant tensor:
#      x y z
#    x 1.785810 0.000000 0.000000 
#    y 0.000000 1.795200 0.000000 
#    z 0.000000 0.000000 1.790610 
# 
# From -- ./inp_files/64484.got.cif
#   From: 2010.03.12/outbox.cif.g09.slc.cpg/sg74_33_cif.got.tgz:64484.got - 2010.04.16 15:46:19.
