data_PCOD8300899
_publ_section_title
;
Structure prediction by ZEFSAII (Michael W. Deem and Ramdas Pophale) SiO2 
 PCOD8300899
Probable space group: I M M A
;
_chemical_formula_sum "Si O2"
_cell_formula_units_Z 80
_cell_length_a 16.801837
_cell_length_b 25.325509
_cell_length_c 8.944367
_cell_angle_alpha 90.000000
_cell_angle_beta 90.000000
_cell_angle_gamma 90.000000
_cell_volume 3805.962987
_symmetry_space_group_name_H-M "I M M A"
_symmetry_group_IT_number 74
_symmetry_cell_setting 'orthorhombic'
loop_
_space_group_symop_operation_xyz
x,y,z
-x,1/2-y,z
x,-y,-z
-x,1/2+y,-z
-x,-y,-z
x,1/2+y,-z
-x,y,z
x,1/2-y,z
1/2+x,1/2+y,1/2+z
1/2-x,-y,1/2+z
1/2+x,1/2-y,1/2-z
1/2-x,y,1/2-z
1/2-x,1/2-y,1/2-z
1/2+x,y,1/2-z
1/2-x,1/2+y,1/2+z
1/2+x,-y,1/2+z
loop_
_atom_site_type_symbol
_atom_site_label
_atom_site_fract_x
_atom_site_fract_y
_atom_site_fract_z
Si Si1 0.660525 0.190033 0.794045
Si Si2 0.407965 0.597495 0.679171
Si Si3 0.408262 0.092581 0.652048
Si Si4 0.332469 0.001504 0.176340
Si Si5 0.907426 0.809544 0.615486
O O1 0.641781 0.250000 0.745455
O O2 0.750000 0.174021 0.750000
O O3 0.599783 0.152756 0.705520
O O4 0.646969 0.182519 0.970174
O O5 0.500000 0.607911 0.652963
O O6 0.370592 0.588298 0.514651
O O7 0.396241 0.546079 0.780846
O O8 0.373611 0.649810 0.760506
O O9 0.500000 0.074932 0.655680
O O10 0.358995 0.055232 0.762622
O O11 0.250000 0.018929 0.250000
O O12 0.323750 0.000000 0.000000
O O13 0.898219 0.750000 0.677872
O O14 0.000000 0.821361 0.575146
#
# Coordination Sequence:
#
# PCOD8300899 Si02
#       5
#    16  16  16  16  16
#     4  10  21  37  57  84 118 154 195 242 290 342
#     4  10  22  39  59  86 119 152 192 242 291 342
#     4  11  23  39  61  88 118 152 193 241 290 343
#     4  12  25  41  62  86 116 153 193 237 289 348
#     4   9  18  35  59  85 115 154 197 238 284 342
#
# _framework density 21.019648
#
# number of rings (size 3 to 8) (size 9 to 14) (size 15 to 20)
#    0.000    1.600    0.000    4.800    0.000    8.400 
#    0.000    2.000    0.000    4.200    0.000    0.000 
#    0.000    0.000    0.000    0.000    0.000    0.000 
#
# Total GULP energy -496135.986311 kJ/mol
# GULP energy per Si atom -12403.399658 kJ/mol
# Density = 2.097181 g / cm^3
# Si number density = 21.019648 Si / 1000 Ang^3
#
#
#
# Elastic Constant Matrix: (Units=GPa)
#
#
# Indices 1 2 3 4 5 6 
#
# 1 49.1889 20.7995 34.7812 0.0000 0.0000 0.0000
# 2 20.7995 125.8141 69.6388 0.0000 0.0000 0.0000
# 3 34.7812 69.6388 171.1498 0.0000 0.0000 0.0001
# 4 0.0000 0.0000 0.0000 40.5230 0.0000 0.0000
# 5 0.0000 0.0000 0.0000 0.0000 27.7277 0.0000
# 6 0.0000 0.0000 0.0001 0.0000 0.0000 25.6275
#
#
#
# Elastic Compliance Matrix: (Units=1/GPa)
#
#
# Indices 1 2 3 4 5 6 
#
# 1 0.024000 -0.001637 -0.004211 0.000000 0.000000 0.000000
# 2 -0.001637 0.010370 -0.003887 0.000000 0.000000 0.000000
# 3 -0.004211 -0.003887 0.008280 0.000000 0.000000 0.000000
# 4 0.000000 0.000000 0.000000 0.024677 0.000000 0.000000
# 5 0.000000 0.000000 0.000000 0.000000 0.036065 0.000000
# 6 0.000000 0.000000 0.000000 0.000000 0.000000 0.039021
#
#
# Mechanical properties :
#
#
# Convention : Reuss Voigt Hill
#
# Bulk Modulus (GPa) = 43.14000 66.28800 54.71400
# Shear Modulus (GPa) = 29.47946 33.50450 31.49198
#
# Velocity S-wave (km/s) = 3.74902 3.99678 3.87488
# Velocity P-wave (km/s) = 6.26964 7.27349 6.79014
#
# Compressibility (1/GPa) = 0.02318034
#
# Stress axis : x y z
#
# Youngs Moduli (GPa) = 41.66733 96.42981 120.76994
#
# Poissons Ratio (x) = 0.15782 0.50860
# Poissons Ratio (y) = 0.06819 0.46942
# Poissons Ratio (z) = 0.17547 0.37482
#
# Static dielectric constant tensor:
#      x y z
#    x 3.620460 0.000000 0.000000 
#    y 0.000000 3.880750 0.000000 
#    z 0.000000 0.000000 3.910210 
# 
# 
# High freq. dielectric constant tensor:
#      x y z
#    x 1.809830 0.000000 0.000000 
#    y 0.000000 1.836770 0.000000 
#    z 0.000000 0.000000 1.827730 
# 
# From -- ./inp_files/10879.got.cif
#   From: 2010.03.12/outbox.cif.g09.slc.cpg/sg74_6_cif.got.tgz:10879.got - 2010.04.16 15:46:19.
