data_PCOD8300199
_publ_section_title
;
Structure prediction by ZEFSAII (Michael W. Deem and Ramdas Pophale) SiO2 
 PCOD8300199
Probable space group: I M M A
;
_chemical_formula_sum "Si O2"
_cell_formula_units_Z 112
_cell_length_a 27.430565
_cell_length_b 16.614709
_cell_length_c 12.101185
_cell_angle_alpha 90.000000
_cell_angle_beta 90.000000
_cell_angle_gamma 90.000000
_cell_volume 5515.125412
_symmetry_space_group_name_H-M "I M M A"
_symmetry_group_IT_number 74
_symmetry_cell_setting 'orthorhombic'
loop_
_space_group_symop_operation_xyz
x,y,z
-x,1/2-y,z
x,-y,-z
-x,1/2+y,-z
-x,-y,-z
x,1/2+y,-z
-x,y,z
x,1/2-y,z
1/2+x,1/2+y,1/2+z
1/2-x,-y,1/2+z
1/2+x,1/2-y,1/2-z
1/2-x,y,1/2-z
1/2-x,1/2-y,1/2-z
1/2+x,y,1/2-z
1/2-x,1/2+y,1/2+z
1/2+x,-y,1/2+z
loop_
_atom_site_type_symbol
_atom_site_label
_atom_site_fract_x
_atom_site_fract_y
_atom_site_fract_z
Si Si1 0.632477 0.156871 0.782635
Si Si2 0.700596 0.658130 0.805339
Si Si3 0.189431 0.844311 0.055063
Si Si4 0.056604 0.054334 0.818713
Si Si5 0.629375 0.407008 0.355815
Si Si6 0.292819 0.091981 0.959937
Si Si7 0.948163 0.165000 0.023429
O O1 0.627015 0.250000 0.818699
O O2 0.655183 0.149637 0.660973
O O3 0.579232 0.113806 0.775178
O O4 0.665247 0.109102 0.870886
O O5 0.693044 0.750000 0.769718
O O6 0.750000 0.624610 0.750000
O O7 0.656477 0.604931 0.759222
O O8 0.700228 0.650403 0.936073
O O9 0.194772 0.750000 0.017632
O O10 0.240951 0.882671 0.091865
O O11 0.168309 0.902176 0.957645
O O12 0.056910 0.094338 0.937644
O O13 0.000000 0.030948 0.787085
O O14 0.094836 0.983363 0.839247
O O15 0.592296 0.334803 0.381664
O O16 0.294327 0.000000 0.000000
O O17 0.943625 0.250000 0.958557
O O18 0.000000 0.157883 0.084525
#
# Coordination Sequence:
#
# PCOD8300199 Si02
#       7
#    16  16  16  16  16  16  16
#     4  11  24  43  67  93 128 173 221 274 332 389
#     4  11  23  41  64  88 124 172 218 260 311 386
#     4  11  23  40  63  93 130 175 219 264 322 396
#     4  11  24  40  62  96 132 167 215 273 336 393
#     4  12  22  37  62  92 131 167 209 263 327 384
#     4  12  26  41  63  93 133 172 220 271 318 385
#     4  10  20  35  57  87 124 165 208 253 309 380
#
# _framework density 20.307787999999999
#
# number of rings (size 3 to 8) (size 9 to 14) (size 15 to 20)
#    0.000    0.857    2.857    5.143    2.000    4.286 
#    0.000    0.000    0.000    4.714    0.000    0.000 
#    0.000    0.000    0.000    0.000    0.000    0.000 
#
# Total GULP energy -693841.054791 kJ/mol
# GULP energy per Si atom -12390.018836 kJ/mol
# Density = 2.026157 g / cm^3
# Si number density = 20.307788 Si / 1000 Ang^3
#
#
#
# Elastic Constant Matrix: (Units=GPa)
#
#
# Indices 1 2 3 4 5 6 
#
# 1 137.6346 56.9250 27.9956 0.0000 0.0000 0.0000
# 2 56.9250 113.5058 15.4862 0.0000 0.0000 0.0000
# 3 27.9956 15.4862 55.4601 0.0000 0.0000 0.0000
# 4 0.0000 0.0000 0.0000 24.9360 0.0000 0.0000
# 5 0.0000 0.0000 0.0000 0.0000 30.3534 0.0000
# 6 0.0000 0.0000 0.0000 0.0000 0.0000 34.4538
#
#
#
# Elastic Compliance Matrix: (Units=1/GPa)
#
#
# Indices 1 2 3 4 5 6 
#
# 1 0.009860 -0.004435 -0.003739 0.000000 0.000000 0.000000
# 2 -0.004435 0.011154 -0.000876 0.000000 0.000000 0.000000
# 3 -0.003739 -0.000876 0.020163 0.000000 0.000000 0.000000
# 4 0.000000 0.000000 0.000000 0.040103 0.000000 0.000000
# 5 0.000000 0.000000 0.000000 0.000000 0.032945 0.000000
# 6 0.000000 0.000000 0.000000 0.000000 0.000000 0.029024
#
#
# Mechanical properties :
#
#
# Convention : Reuss Voigt Hill
#
# Bulk Modulus (GPa) = 43.33207 56.37934 49.85571
# Shear Modulus (GPa) = 29.57847 31.69487 30.63667
#
# Velocity S-wave (km/s) = 3.82056 3.95489 3.88831
# Velocity P-wave (km/s) = 6.39111 6.97693 6.69043
#
# Compressibility (1/GPa) = 0.02307760
#
# Stress axis : x y z
#
# Youngs Moduli (GPa) = 101.41503 89.65506 49.59592
#
# Poissons Ratio (x) = 0.39762 0.18544
# Poissons Ratio (y) = 0.44978 0.04343
# Poissons Ratio (z) = 0.37920 0.07851
#
# Static dielectric constant tensor:
#      x y z
#    x 4.220850 0.000000 0.000000 
#    y 0.000000 3.946510 0.000000 
#    z 0.000000 0.000000 3.458530 
# 
# 
# High freq. dielectric constant tensor:
#      x y z
#    x 1.808370 0.000000 0.000000 
#    y 0.000000 1.809460 0.000000 
#    z 0.000000 0.000000 1.756510 
# 
# From -- ./inp_files/27232.got.cif
#   From: 2010.03.12/outbox.cif.g09.slc.cpg/sg74_14_cif.got.tgz:27232.got - 2010.04.16 15:46:19.
