data_PCOD8300039
_publ_section_title
;
Structure prediction by ZEFSAII (Michael W. Deem and Ramdas Pophale) SiO2 
 PCOD8300039
Probable space group: I M M A
;
_chemical_formula_sum "Si O2"
_cell_formula_units_Z 112
_cell_length_a 14.154071
_cell_length_b 28.241753
_cell_length_c 14.460957
_cell_angle_alpha 90.000000
_cell_angle_beta 90.000000
_cell_angle_gamma 90.000000
_cell_volume 5780.561884
_symmetry_space_group_name_H-M "I M M A"
_symmetry_group_IT_number 74
_symmetry_cell_setting 'orthorhombic'
loop_
_space_group_symop_operation_xyz
x,y,z
-x,1/2-y,z
x,-y,-z
-x,1/2+y,-z
-x,-y,-z
x,1/2+y,-z
-x,y,z
x,1/2-y,z
1/2+x,1/2+y,1/2+z
1/2-x,-y,1/2+z
1/2+x,1/2-y,1/2-z
1/2-x,y,1/2-z
1/2-x,1/2-y,1/2-z
1/2+x,y,1/2-z
1/2-x,1/2+y,1/2+z
1/2+x,-y,1/2+z
loop_
_atom_site_type_symbol
_atom_site_label
_atom_site_fract_x
_atom_site_fract_y
_atom_site_fract_z
Si Si1 0.282871 0.195209 0.618702
Si Si2 0.108760 0.099125 0.140121
Si Si3 0.107911 0.697047 0.933165
Si Si4 0.894006 0.843496 0.288284
Si Si5 0.333543 0.556828 0.180512
Si Si6 0.253676 0.054864 0.013562
Si Si7 0.893265 0.451834 0.324560
O O1 0.279954 0.250000 0.643166
O O2 0.319012 0.186114 0.515369
O O3 0.176904 0.174792 0.631663
O O4 0.356220 0.171440 0.688496
O O5 0.123256 0.156487 0.145110
O O6 0.158562 0.080097 0.047400
O O7 0.148657 0.072554 0.231367
O O8 0.000000 0.085549 0.128767
O O9 0.126880 0.750000 0.892233
O O10 0.000000 0.694265 0.970677
O O11 0.899396 0.900544 0.286169
O O12 0.000000 0.823705 0.305176
O O13 0.250000 0.545996 0.250000
O O14 0.393767 0.508866 0.176669
O O15 0.289275 0.574677 0.083638
O O16 0.333491 0.066207 0.089229
O O17 0.231654 0.000000 0.000000
O O18 0.000000 0.434207 0.339256
#
# Coordination Sequence:
#
# PCOD8300039 Si02
#       7
#    16  16  16  16  16  16  16
#     4  10  20  35  52  74 106 144 187 230 275 334
#     4  10  20  35  57  85 113 142 181 233 286 332
#     4   9  18  34  57  83 110 141 179 227 286 345
#     4  11  21  32  49  74 108 148 186 229 277 329
#     4  11  21  36  54  77 114 148 188 228 273 328
#     4  10  21  36  56  76 109 151 185 228 273 326
#     4  10  21  37  57  81 108 145 191 231 273 330
#
# _framework density 19.375278999999999
#
# number of rings (size 3 to 8) (size 9 to 14) (size 15 to 20)
#    0.000    1.857    1.429    4.714    0.000    5.143 
#    0.000    0.714    0.000    1.714    0.000    0.000 
#    0.000    4.571    0.000    0.000    0.000    0.000 
#
# Total GULP energy -694237.901880 kJ/mol
# GULP energy per Si atom -12397.105391 kJ/mol
# Density = 1.933118 g / cm^3
# Si number density = 19.375279 Si / 1000 Ang^3
#
#
#
# Elastic Constant Matrix: (Units=GPa)
#
#
# Indices 1 2 3 4 5 6 
#
# 1 103.7259 28.0514 32.5334 -0.0001 0.0000 0.0000
# 2 28.0514 86.6738 47.0240 0.0000 0.0000 0.0001
# 3 32.5334 47.0240 80.8668 -0.0013 -0.0004 0.0003
# 4 -0.0001 0.0000 -0.0013 25.1513 0.0000 0.0001
# 5 0.0000 0.0000 -0.0004 0.0000 16.3836 0.0001
# 6 0.0000 0.0001 0.0003 0.0001 0.0001 14.4310
#
#
#
# Elastic Compliance Matrix: (Units=1/GPa)
#
#
# Indices 1 2 3 4 5 6 
#
# 1 0.011207 -0.001725 -0.003505 0.000000 0.000000 0.000000
# 2 -0.001725 0.017121 -0.009262 -0.000001 0.000000 0.000000
# 3 -0.003505 -0.009262 0.019162 0.000001 0.000000 0.000000
# 4 0.000000 -0.000001 0.000001 0.039759 0.000000 0.000000
# 5 0.000000 0.000000 0.000000 0.000000 0.061037 0.000000
# 6 0.000000 0.000000 0.000000 0.000000 0.000000 0.069295
#
#
# Mechanical properties :
#
#
# Convention : Reuss Voigt Hill
#
# Bulk Modulus (GPa) = 54.03951 54.05378 54.04664
# Shear Modulus (GPa) = 19.78368 22.10368 20.94368
#
# Velocity S-wave (km/s) = 3.19890 3.38126 3.29135
# Velocity P-wave (km/s) = 6.44945 6.57289 6.51146
#
# Compressibility (1/GPa) = 0.01850498
#
# Stress axis : x y z
#
# Youngs Moduli (GPa) = 89.23149 58.40903 52.18702
#
# Poissons Ratio (x) = 0.10077 0.18294
# Poissons Ratio (y) = 0.15394 0.48333
# Poissons Ratio (z) = 0.31279 0.54096
#
# Static dielectric constant tensor:
#      x y z
#    x 3.471290 0.000000 0.000000 
#    y 0.000000 3.721670 0.000000 
#    z 0.000000 0.000000 3.493570 
# 
# 
# High freq. dielectric constant tensor:
#      x y z
#    x 1.752930 0.000000 0.000000 
#    y 0.000000 1.763730 0.000000 
#    z 0.000000 0.000000 1.733510 
# 
# From -- ./inp_files/32964.got.cif
#   From: 2010.03.12/outbox.cif.g09.slc.cpg/sg74_17_cif.got.tgz:32964.got - 2010.04.16 15:46:19.
