data_PCOD8300177
_publ_section_title
;
Structure prediction by ZEFSAII (Michael W. Deem and Ramdas Pophale) SiO2 
 PCOD8300177
Probable space group: I M M A
;
_chemical_formula_sum "Si O2"
_cell_formula_units_Z 88
_cell_length_a 13.605195
_cell_length_b 18.475255
_cell_length_c 17.403172
_cell_angle_alpha 90.000000
_cell_angle_beta 90.000000
_cell_angle_gamma 90.000000
_cell_volume 4374.451689
_symmetry_space_group_name_H-M "I M M A"
_symmetry_group_IT_number 74
_symmetry_cell_setting 'orthorhombic'
loop_
_space_group_symop_operation_xyz
x,y,z
-x,1/2-y,z
x,-y,-z
-x,1/2+y,-z
-x,-y,-z
x,1/2+y,-z
-x,y,z
x,1/2-y,z
1/2+x,1/2+y,1/2+z
1/2-x,-y,1/2+z
1/2+x,1/2-y,1/2-z
1/2-x,y,1/2-z
1/2-x,1/2-y,1/2-z
1/2+x,y,1/2-z
1/2-x,1/2+y,1/2+z
1/2+x,-y,1/2+z
loop_
_atom_site_type_symbol
_atom_site_label
_atom_site_fract_x
_atom_site_fract_y
_atom_site_fract_z
Si Si1 0.388135 0.333806 0.146768
Si Si2 0.750000 0.931625 0.750000
Si Si3 0.111790 0.445388 0.798308
Si Si4 0.205908 0.833432 0.489030
Si Si5 0.616081 0.832521 0.170120
Si Si6 0.108997 0.919283 0.026889
O O1 0.500000 0.355553 0.166899
O O2 0.368602 0.250000 0.167090
O O3 0.312082 0.382044 0.193226
O O4 0.372451 0.347896 0.056202
O O5 0.824126 0.981944 0.797755
O O6 0.151735 0.385526 0.738067
O O7 0.118045 0.410073 0.881787
O O8 0.000000 0.467062 0.778231
O O9 0.229064 0.750000 0.479489
O O10 0.162662 0.863179 0.408808
O O11 0.308912 0.869992 0.512354
O O12 0.500000 0.834971 0.160374
O O13 0.649641 0.750000 0.188147
O O14 0.000000 0.894509 0.999861
O O15 0.129086 0.000000 0.000000
#
# Coordination Sequence:
#
# PCOD8300177 Si02
#       6
#    16   8  16  16  16  16
#     4  10  22  40  61  85 111 141 180 227 281 339
#     4  12  21  36  59  82 112 144 182 228 277 332
#     4  10  21  35  54  82 114 150 192 235 277 325
#     4  10  20  35  57  83 111 144 183 229 281 336
#     4   9  18  34  56  83 116 152 188 229 280 335
#     4  10  21  37  54  74 107 150 191 231 277 329
#
# _framework density 20.116807000000001
#
# number of rings (size 3 to 8) (size 9 to 14) (size 15 to 20)
#    0.000    2.000    0.000    3.545    0.000    3.273 
#    0.000    5.000    0.000    7.636    0.000    0.000 
#    0.000    0.000    0.000    0.000    0.000    0.000 
#
# Total GULP energy -545641.185120 kJ/mol
# GULP energy per Si atom -12400.936025 kJ/mol
# Density = 2.007102 g / cm^3
# Si number density = 20.116807 Si / 1000 Ang^3
#
#
#
# Elastic Constant Matrix: (Units=GPa)
#
#
# Indices 1 2 3 4 5 6 
#
# 1 105.4566 56.7744 31.2726 0.0000 0.0000 0.0000
# 2 56.7744 78.9785 41.4537 0.0000 0.0000 0.0000
# 3 31.2726 41.4537 72.4505 0.0000 0.0000 0.0000
# 4 0.0000 0.0000 0.0000 32.4177 0.0000 0.0000
# 5 0.0000 0.0000 0.0000 0.0000 32.3221 0.0000
# 6 0.0000 0.0000 0.0000 0.0000 0.0000 42.5847
#
#
#
# Elastic Compliance Matrix: (Units=1/GPa)
#
#
# Indices 1 2 3 4 5 6 
#
# 1 0.015480 -0.010892 -0.000450 0.000000 0.000000 0.000000
# 2 -0.010892 0.025760 -0.010037 0.000000 0.000000 0.000000
# 3 -0.000450 -0.010037 0.019740 0.000000 0.000000 0.000000
# 4 0.000000 0.000000 0.000000 0.030847 0.000000 0.000000
# 5 0.000000 0.000000 0.000000 0.000000 0.030939 0.000000
# 6 0.000000 0.000000 0.000000 0.000000 0.000000 0.023483
#
#
# Mechanical properties :
#
#
# Convention : Reuss Voigt Hill
#
# Bulk Modulus (GPa) = 54.88119 57.32079 56.10099
# Shear Modulus (GPa) = 25.63062 29.95724 27.79393
#
# Velocity S-wave (km/s) = 3.57331 3.86316 3.72106
# Velocity P-wave (km/s) = 6.66072 6.96092 6.81248
#
# Compressibility (1/GPa) = 0.01822118
#
# Stress axis : x y z
#
# Youngs Moduli (GPa) = 64.60093 38.82052 50.65901
#
# Poissons Ratio (x) = 0.42282 0.02279
# Poissons Ratio (y) = 0.70360 0.50849
# Poissons Ratio (z) = 0.02906 0.38966
#
# Static dielectric constant tensor:
#      x y z
#    x 3.848070 0.000000 0.000000 
#    y 0.000000 3.571850 0.000000 
#    z 0.000000 0.000000 3.637990 
# 
# 
# High freq. dielectric constant tensor:
#      x y z
#    x 1.802760 0.000000 0.000000 
#    y 0.000000 1.775180 0.000000 
#    z 0.000000 0.000000 1.781700 
# 
# From -- ./inp_files/42815.got.cif
#   From: 2010.03.12/outbox.cif.g09.slc.cpg/sg74_22_cif.got.tgz:42815.got - 2010.04.16 15:46:19.
