data_PCOD8300306
_publ_section_title
;
Structure prediction by ZEFSAII (Michael W. Deem and Ramdas Pophale) SiO2 
 PCOD8300306
Probable space group: I M M A
;
_chemical_formula_sum "Si O2"
_cell_formula_units_Z 88
_cell_length_a 9.030159
_cell_length_b 23.752891
_cell_length_c 20.289069
_cell_angle_alpha 90.000000
_cell_angle_beta 90.000000
_cell_angle_gamma 90.000000
_cell_volume 4351.850747
_symmetry_space_group_name_H-M "I M M A"
_symmetry_group_IT_number 74
_symmetry_cell_setting 'orthorhombic'
loop_
_space_group_symop_operation_xyz
x,y,z
-x,1/2-y,z
x,-y,-z
-x,1/2+y,-z
-x,-y,-z
x,1/2+y,-z
-x,y,z
x,1/2-y,z
1/2+x,1/2+y,1/2+z
1/2-x,-y,1/2+z
1/2+x,1/2-y,1/2-z
1/2-x,y,1/2-z
1/2-x,1/2-y,1/2-z
1/2+x,y,1/2-z
1/2-x,1/2+y,1/2+z
1/2+x,-y,1/2+z
loop_
_atom_site_type_symbol
_atom_site_label
_atom_site_fract_x
_atom_site_fract_y
_atom_site_fract_z
Si Si1 0.839084 0.644289 0.809499
Si Si2 0.175431 0.750000 0.178076
Si Si3 0.324471 0.472437 0.930405
Si Si4 0.163773 0.015019 0.189104
Si Si5 0.323643 0.146657 0.583176
Si Si6 0.824620 0.187154 0.056161
O O1 0.750000 0.673756 0.750000
O O2 0.859869 0.579466 0.792347
O O3 0.762632 0.652228 0.881201
O O4 0.000000 0.674016 0.812198
O O5 0.250000 0.750000 0.250000
O O6 0.223675 0.806440 0.137658
O O7 0.000000 0.750000 0.187722
O O8 0.500000 0.465777 0.928394
O O9 0.264923 0.515131 0.875776
O O10 0.250653 0.413906 0.906898
O O11 0.273113 0.500000 0.000000
O O12 0.250000 0.984839 0.250000
O O13 0.000000 0.987088 0.179155
O O14 0.500000 0.139916 0.583763
O O15 0.258667 0.165083 0.512333
O O16 0.769554 0.250000 0.067105
O O17 0.000000 0.182398 0.049825
#
# Coordination Sequence:
#
# PCOD8300306 Si02
#       6
#    16   8  16  16  16  16
#     4   9  18  31  50  77 108 143 181 223 271 322
#     4  10  22  40  64  92 119 152 196 250 307 368
#     4  11  24  39  57  86 122 157 196 247 303 358
#     4  10  20  36  57  81 110 148 191 235 286 345
#     4  10  20  38  62  86 112 148 197 246 295 354
#     4   9  16  30  54  79 104 138 183 230 270 318
#
# _framework density 20.221281000000001
#
# number of rings (size 3 to 8) (size 9 to 14) (size 15 to 20)
#    0.000    2.182    0.909    2.182    0.000    5.455 
#    0.000    2.727    0.000    1.091    0.000    0.000 
#    0.000    0.000    0.000    0.000    0.000    0.000 
#
# Total GULP energy -545168.648936 kJ/mol
# GULP energy per Si atom -12390.196567 kJ/mol
# Density = 2.017526 g / cm^3
# Si number density = 20.221281 Si / 1000 Ang^3
#
#
#
# Elastic Constant Matrix: (Units=GPa)
#
#
# Indices 1 2 3 4 5 6 
#
# 1 60.0785 22.4983 49.8700 0.0000 0.0000 0.0000
# 2 22.4983 56.8771 12.4751 0.0000 0.0000 0.0000
# 3 49.8700 12.4751 163.4126 0.0000 0.0000 0.0000
# 4 0.0000 0.0000 0.0000 28.5270 0.0000 0.0000
# 5 0.0000 0.0000 0.0000 0.0000 35.5333 0.0000
# 6 0.0000 0.0000 0.0000 0.0000 0.0000 17.4680
#
#
#
# Elastic Compliance Matrix: (Units=1/GPa)
#
#
# Indices 1 2 3 4 5 6 
#
# 1 0.025898 -0.008656 -0.007243 0.000000 0.000000 0.000000
# 2 -0.008656 0.020774 0.001056 0.000000 0.000000 0.000000
# 3 -0.007243 0.001056 0.008249 0.000000 0.000000 0.000000
# 4 0.000000 0.000000 0.000000 0.035054 0.000000 0.000000
# 5 0.000000 0.000000 0.000000 0.000000 0.028143 0.000000
# 6 0.000000 0.000000 0.000000 0.000000 0.000000 0.057248
#
#
# Mechanical properties :
#
#
# Convention : Reuss Voigt Hill
#
# Bulk Modulus (GPa) = 39.62619 50.00609 44.81614
# Shear Modulus (GPa) = 23.42311 29.34066 26.38188
#
# Velocity S-wave (km/s) = 3.40713 3.81330 3.61593
# Velocity P-wave (km/s) = 5.92595 6.64617 6.29636
#
# Compressibility (1/GPa) = 0.02523584
#
# Stress axis : x y z
#
# Youngs Moduli (GPa) = 38.61234 48.13684 121.22308
#
# Poissons Ratio (x) = 0.41666 0.87800
# Poissons Ratio (y) = 0.33422 -0.12797
# Poissons Ratio (z) = 0.27966 -0.05082
#
# Static dielectric constant tensor:
#      x y z
#    x 3.675020 0.000000 0.000000 
#    y 0.000000 3.505540 0.000000 
#    z 0.000000 0.000000 3.924760 
# 
# 
# High freq. dielectric constant tensor:
#      x y z
#    x 1.763520 0.000000 0.000000 
#    y 0.000000 1.776910 0.000000 
#    z 0.000000 0.000000 1.807450 
# 
# From -- ./inp_files/47001.got.cif
#   From: 2010.03.12/outbox.cif.g09.slc.cpg/sg74_24_cif.got.tgz:47001.got - 2010.04.16 15:46:19.
