data_PCOD8300128
_publ_section_title
;
Structure prediction by ZEFSAII (Michael W. Deem and Ramdas Pophale) SiO2 
 PCOD8300128
Probable space group: I M M A
;
_chemical_formula_sum "Si O2"
_cell_formula_units_Z 104
_cell_length_a 19.620051
_cell_length_b 9.014412
_cell_length_c 32.325113
_cell_angle_alpha 90.000000
_cell_angle_beta 90.000000
_cell_angle_gamma 90.000000
_cell_volume 5717.123675
_symmetry_space_group_name_H-M "I M M A"
_symmetry_group_IT_number 74
_symmetry_cell_setting 'orthorhombic'
loop_
_space_group_symop_operation_xyz
x,y,z
-x,1/2-y,z
x,-y,-z
-x,1/2+y,-z
-x,-y,-z
x,1/2+y,-z
-x,y,z
x,1/2-y,z
1/2+x,1/2+y,1/2+z
1/2-x,-y,1/2+z
1/2+x,1/2-y,1/2-z
1/2-x,y,1/2-z
1/2-x,1/2-y,1/2-z
1/2+x,y,1/2-z
1/2-x,1/2+y,1/2+z
1/2+x,-y,1/2+z
loop_
_atom_site_type_symbol
_atom_site_label
_atom_site_fract_x
_atom_site_fract_y
_atom_site_fract_z
Si Si1 0.579186 0.579639 0.680855
Si Si2 0.232524 0.578543 0.957311
Si Si3 0.330453 0.580957 0.156988
Si Si4 0.876655 0.917826 0.579238
Si Si5 0.684993 0.420540 0.625085
Si Si6 0.500000 0.921610 0.042999
Si Si7 0.422468 0.920476 0.234681
O O1 0.500000 0.558344 0.670810
O O2 0.601703 0.750000 0.678932
O O3 0.619217 0.489410 0.646310
O O4 0.596347 0.520714 0.726399
O O5 0.210074 0.750000 0.958955
O O6 0.313783 0.563900 0.952052
O O7 0.196417 0.501950 0.918460
O O8 0.210622 0.500000 0.000000
O O9 0.349962 0.750000 0.143812
O O10 0.356725 0.457871 0.125595
O O11 0.248436 0.564316 0.157176
O O12 0.365783 0.541862 0.200358
O O13 0.904734 0.750000 0.578027
O O14 0.933512 0.035145 0.567879
O O15 0.670722 0.250000 0.614684
O O16 0.500000 0.750000 0.034444
O O17 0.500000 0.000000 0.000000
O O18 0.500000 0.953556 0.218779
O O19 0.416622 0.750000 0.248480
#
# Coordination Sequence:
#
# PCOD8300128 Si02
#       7
#    16  16  16  16  16   8  16
#     4  10  21  37  56  79 107 139 177 220 269 322
#     4  10  20  35  56  80 108 139 175 217 263 317
#     4   9  19  34  52  78 108 141 181 224 270 316
#     4  10  21  35  51  74 103 138 179 224 272 320
#     4  10  20  35  56  81 110 141 177 219 266 321
#     4  12  24  36  50  68  96 134 180 230 278 326
#     4   9  18  33  53  76 105 143 186 224 265 318
#
# _framework density 18.190966
#
# number of rings (size 3 to 8) (size 9 to 14) (size 15 to 20)
#    0.000    2.154    0.000    3.000    1.077    5.846 
#    0.000    3.077    0.000    0.462    0.000    0.000 
#    0.000    0.000    0.000    0.000    0.000    0.000 
#
# Total GULP energy -644803.077186 kJ/mol
# GULP energy per Si atom -12400.059177 kJ/mol
# Density = 1.814956 g / cm^3
# Si number density = 18.190966 Si / 1000 Ang^3
#
#
#
# Elastic Constant Matrix: (Units=GPa)
#
#
# Indices 1 2 3 4 5 6 
#
# 1 67.8719 48.8145 55.5181 0.0000 0.0000 0.0000
# 2 48.8145 133.0445 62.9484 0.0000 0.0000 0.0000
# 3 55.5181 62.9484 108.4979 0.0000 0.0000 0.0000
# 4 0.0000 0.0000 0.0000 33.3392 0.0000 0.0000
# 5 0.0000 0.0000 0.0000 0.0000 21.1654 0.0000
# 6 0.0000 0.0000 0.0000 0.0000 0.0000 27.2140
#
#
#
# Elastic Compliance Matrix: (Units=1/GPa)
#
#
# Indices 1 2 3 4 5 6 
#
# 1 0.027317 -0.004699 -0.011252 0.000000 0.000000 0.000000
# 2 -0.004699 0.011169 -0.004075 0.000000 0.000000 0.000000
# 3 -0.011252 -0.004075 0.017339 0.000000 0.000000 0.000000
# 4 0.000000 0.000000 0.000000 0.029995 0.000000 0.000000
# 5 0.000000 0.000000 0.000000 0.000000 0.047247 0.000000
# 6 0.000000 0.000000 0.000000 0.000000 0.000000 0.036746
#
#
# Mechanical properties :
#
#
# Convention : Reuss Voigt Hill
#
# Bulk Modulus (GPa) = 63.40330 71.55292 67.47811
# Shear Modulus (GPa) = 23.24270 25.81926 24.53098
#
# Velocity S-wave (km/s) = 3.57838 3.77151 3.67621
# Velocity P-wave (km/s) = 7.21131 7.64103 7.42928
#
# Compressibility (1/GPa) = 0.01577205
#
# Stress axis : x y z
#
# Youngs Moduli (GPa) = 36.60717 89.53707 57.67462
#
# Poissons Ratio (x) = 0.42074 0.64894
# Poissons Ratio (y) = 0.17202 0.23504
# Poissons Ratio (z) = 0.41189 0.36489
#
# Static dielectric constant tensor:
#      x y z
#    x 3.264890 0.000000 0.000000 
#    y 0.000000 3.458900 0.000000 
#    z 0.000000 0.000000 3.289940 
# 
# 
# High freq. dielectric constant tensor:
#      x y z
#    x 1.690790 0.000000 0.000000 
#    y 0.000000 1.719460 0.000000 
#    z 0.000000 0.000000 1.699030 
# 
# From -- ./inp_files/73378.got.cif
#   From: 2010.03.12/outbox.cif.g09.slc.cpg/sg74_37_cif.got.tgz:73378.got - 2010.04.16 15:46:19.
