data_PCOD8300678
_publ_section_title
;
Structure prediction by ZEFSAII (Michael W. Deem and Ramdas Pophale) SiO2 
 PCOD8300678
Probable space group: I M M A
;
_chemical_formula_sum "Si O2"
_cell_formula_units_Z 104
_cell_length_a 29.935552
_cell_length_b 19.578597
_cell_length_c 9.392293
_cell_angle_alpha 90.000000
_cell_angle_beta 90.000000
_cell_angle_gamma 90.000000
_cell_volume 5504.786378
_symmetry_space_group_name_H-M "I M M A"
_symmetry_group_IT_number 74
_symmetry_cell_setting 'orthorhombic'
loop_
_space_group_symop_operation_xyz
x,y,z
-x,1/2-y,z
x,-y,-z
-x,1/2+y,-z
-x,-y,-z
x,1/2+y,-z
-x,y,z
x,1/2-y,z
1/2+x,1/2+y,1/2+z
1/2-x,-y,1/2+z
1/2+x,1/2-y,1/2-z
1/2-x,y,1/2-z
1/2-x,1/2-y,1/2-z
1/2+x,y,1/2-z
1/2-x,1/2+y,1/2+z
1/2+x,-y,1/2+z
loop_
_atom_site_type_symbol
_atom_site_label
_atom_site_fract_x
_atom_site_fract_y
_atom_site_fract_z
Si Si1 0.571817 0.096192 0.744319
Si Si2 0.000000 0.827059 0.396130
Si Si3 0.000000 0.855592 0.700005
Si Si4 0.000000 0.004809 0.164046
Si Si5 0.127314 0.671884 0.033094
Si Si6 0.602776 0.325932 0.215499
Si Si7 0.855698 0.078472 0.526850
Si Si8 0.301349 0.171061 0.771594
O O1 0.544074 0.160058 0.805097
O O2 0.589763 0.121376 0.593294
O O3 0.608932 0.071579 0.849970
O O4 0.543372 0.028736 0.729423
O O5 0.000000 0.876157 0.533731
O O6 0.000000 0.750000 0.453809
O O7 0.000000 0.917375 0.804084
O O8 0.048327 0.820216 0.731289
O O9 0.000000 0.000000 0.000000
O O10 0.113128 0.750000 0.059988
O O11 0.173027 0.656243 0.121296
O O12 0.128372 0.657241 0.864394
O O13 0.617780 0.250000 0.164516
O O14 0.621163 0.383735 0.107879
O O15 0.816489 0.124996 0.593773
O O16 0.839219 0.000000 0.500000
O O17 0.308358 0.250000 0.815253
O O18 0.250000 0.152977 0.750000
#
# Coordination Sequence:
#
# PCOD8300678 Si02
#       8
#    16   8   8   8  16  16  16  16
#     4  10  21  34  54  73 108 150 190 233 279 336
#     4  11  21  32  50  77 104 141 198 246 277 313
#     4  12  22  33  52  76 114 150 195 235 277 318
#     4  11  23  36  50  73 109 153 198 238 284 336
#     4   9  19  36  58  84 110 143 187 236 287 338
#     4  11  22  37  57  83 116 152 194 241 287 330
#     4  11  22  37  57  85 116 149 187 230 286 348
#     4   9  19  40  67  89 111 145 189 234 287 349
#
# _framework density 18.89265
#
# number of rings (size 3 to 8) (size 9 to 14) (size 15 to 20)
#    0.000    1.692    1.538    3.462    0.000    2.462 
#    0.000    6.154    0.000    3.692    0.000    0.000 
#    0.000    0.000    0.000    0.000    0.000    0.000 
#
# Total GULP energy -644198.969232 kJ/mol
# GULP energy per Si atom -12388.441716 kJ/mol
# Density = 1.884965 g / cm^3
# Si number density = 18.892650 Si / 1000 Ang^3
#
#
#
# Elastic Constant Matrix: (Units=GPa)
#
#
# Indices 1 2 3 4 5 6 
#
# 1 91.9975 31.0437 27.8769 0.0000 0.0000 0.0000
# 2 31.0437 104.6773 45.0241 0.0000 0.0000 0.0000
# 3 27.8769 45.0241 99.2322 0.0000 0.0000 0.0000
# 4 0.0000 0.0000 0.0000 27.1328 0.0000 0.0000
# 5 0.0000 0.0000 0.0000 0.0000 19.1735 0.0000
# 6 0.0000 0.0000 0.0000 0.0000 0.0000 12.2378
#
#
#
# Elastic Compliance Matrix: (Units=1/GPa)
#
#
# Indices 1 2 3 4 5 6 
#
# 1 0.012477 -0.002724 -0.002269 0.000000 0.000000 0.000000
# 2 -0.002724 0.012464 -0.004890 0.000000 0.000000 0.000000
# 3 -0.002269 -0.004890 0.012934 0.000000 0.000000 0.000000
# 4 0.000000 0.000000 0.000000 0.036856 0.000000 0.000000
# 5 0.000000 0.000000 0.000000 0.000000 0.052155 0.000000
# 6 0.000000 0.000000 0.000000 0.000000 0.000000 0.081714
#
#
# Mechanical properties :
#
#
# Convention : Reuss Voigt Hill
#
# Bulk Modulus (GPa) = 55.22410 55.97737 55.60074
# Shear Modulus (GPa) = 21.33082 24.50630 22.91856
#
# Velocity S-wave (km/s) = 3.36379 3.60548 3.48673
# Velocity P-wave (km/s) = 6.66188 6.85756 6.76043
#
# Compressibility (1/GPa) = 0.01810804
#
# Stress axis : x y z
#
# Youngs Moduli (GPa) = 80.14960 80.22829 77.31832
#
# Poissons Ratio (x) = 0.21856 0.17543
# Poissons Ratio (y) = 0.21834 0.37809
# Poissons Ratio (z) = 0.18186 0.39233
#
# Static dielectric constant tensor:
#      x y z
#    x 3.427970 0.000000 0.000000 
#    y 0.000000 3.415610 0.000000 
#    z 0.000000 0.000000 3.628490 
# 
# 
# High freq. dielectric constant tensor:
#      x y z
#    x 1.716440 0.000000 0.000000 
#    y 0.000000 1.735610 0.000000 
#    z 0.000000 0.000000 1.741390 
# 
# From -- ./inp_files/16242.got.cif
#   From: 2010.03.12/outbox.cif.g09.slc.cpg/sg74_9_cif.got.tgz:16242.got - 2010.04.16 15:46:19.
