data_PCOD8300986
_publ_section_title
;
Structure prediction by ZEFSAII (Michael W. Deem and Ramdas Pophale) SiO2 
 PCOD8300986
Probable space group: I M M A
;
_chemical_formula_sum "Si O2"
_cell_formula_units_Z 72
_cell_length_a 8.788146
_cell_length_b 16.102880
_cell_length_c 27.046904
_cell_angle_alpha 90.000000
_cell_angle_beta 90.000000
_cell_angle_gamma 90.000000
_cell_volume 3827.528027
_symmetry_space_group_name_H-M "I M M A"
_symmetry_group_IT_number 74
_symmetry_cell_setting 'orthorhombic'
loop_
_space_group_symop_operation_xyz
x,y,z
-x,1/2-y,z
x,-y,-z
-x,1/2+y,-z
-x,-y,-z
x,1/2+y,-z
-x,y,z
x,1/2-y,z
1/2+x,1/2+y,1/2+z
1/2-x,-y,1/2+z
1/2+x,1/2-y,1/2-z
1/2-x,y,1/2-z
1/2-x,1/2-y,1/2-z
1/2+x,y,1/2-z
1/2-x,1/2+y,1/2+z
1/2+x,-y,1/2+z
loop_
_atom_site_type_symbol
_atom_site_label
_atom_site_fract_x
_atom_site_fract_y
_atom_site_fract_z
Si Si1 0.318956 0.090038 0.644017
Si Si2 0.172590 0.427671 0.200073
Si Si3 0.818863 0.750000 0.304998
Si Si4 0.325751 0.156277 0.398344
Si Si5 0.822359 0.502196 0.556465
O O1 0.500000 0.103193 0.644879
O O2 0.235341 0.171032 0.663862
O O3 0.268672 0.067185 0.588028
O O4 0.262716 0.014309 0.678599
O O5 0.250000 0.398755 0.250000
O O6 0.195104 0.354367 0.160519
O O7 0.000000 0.443681 0.213486
O O8 0.750000 0.750000 0.250000
O O9 0.000000 0.750000 0.300339
O O10 0.500000 0.133968 0.412521
O O11 0.284592 0.250000 0.413196
O O12 0.211899 0.095607 0.426222
O O13 0.768017 0.500000 0.500000
O O14 0.000000 0.483064 0.562016
#
# Coordination Sequence:
#
# PCOD8300986 Si02
#       5
#    16  16   8  16  16
#     4  10  21  38  58  81 111 149 194 237 280 338
#     4   9  18  31  50  76 106 141 179 220 264 316
#     4  12  24  38  58  86 122 158 194 240 293 348
#     4   9  19  36  55  77 107 142 182 226 268 321
#     4  10  21  38  59  83 111 144 181 231 292 346
#
# _framework density 18.811097
#
# number of rings (size 3 to 8) (size 9 to 14) (size 15 to 20)
#    0.000    2.222    0.000    4.333    0.000    8.889 
#    2.000    0.000    0.000    0.000    0.000    0.000 
#    0.000    0.000    0.000    0.000    0.000    0.000 
#
# Total GULP energy -446358.181706 kJ/mol
# GULP energy per Si atom -12398.838381 kJ/mol
# Density = 1.876828 g / cm^3
# Si number density = 18.811097 Si / 1000 Ang^3
#
#
#
# Elastic Constant Matrix: (Units=GPa)
#
#
# Indices 1 2 3 4 5 6 
#
# 1 75.2361 31.3696 43.5609 0.0000 0.0000 0.0000
# 2 31.3696 93.5943 37.5870 0.0000 0.0000 0.0000
# 3 43.5609 37.5870 124.5789 0.0000 0.0000 0.0000
# 4 0.0000 0.0000 0.0000 16.0473 0.0000 0.0000
# 5 0.0000 0.0000 0.0000 0.0000 34.4424 0.0000
# 6 0.0000 0.0000 0.0000 0.0000 0.0000 30.8124
#
#
#
# Elastic Compliance Matrix: (Units=1/GPa)
#
#
# Indices 1 2 3 4 5 6 
#
# 1 0.017868 -0.003959 -0.005053 0.000000 0.000000 0.000000
# 2 -0.003959 0.013035 -0.002548 0.000000 0.000000 0.000000
# 3 -0.005053 -0.002548 0.010563 0.000000 0.000000 0.000000
# 4 0.000000 0.000000 0.000000 0.062316 0.000000 0.000000
# 5 0.000000 0.000000 0.000000 0.000000 0.029034 0.000000
# 6 0.000000 0.000000 0.000000 0.000000 0.000000 0.032454
#
#
# Mechanical properties :
#
#
# Convention : Reuss Voigt Hill
#
# Bulk Modulus (GPa) = 54.51410 57.60490 56.05950
# Shear Modulus (GPa) = 25.70606 28.31989 27.01297
#
# Velocity S-wave (km/s) = 3.70068 3.88427 3.79359
# Velocity P-wave (km/s) = 6.87770 7.12784 7.00388
#
# Compressibility (1/GPa) = 0.01834388
#
# Stress axis : x y z
#
# Youngs Moduli (GPa) = 55.96551 76.71733 94.67147
#
# Poissons Ratio (x) = 0.30376 0.47840
# Poissons Ratio (y) = 0.22159 0.24125
# Poissons Ratio (z) = 0.28281 0.19550
#
# Static dielectric constant tensor:
#      x y z
#    x 3.420120 0.000000 0.000000 
#    y 0.000000 3.409350 0.000000 
#    z 0.000000 0.000000 3.563800 
# 
# 
# High freq. dielectric constant tensor:
#      x y z
#    x 1.732580 0.000000 0.000000 
#    y 0.000000 1.727560 0.000000 
#    z 0.000000 0.000000 1.729840 
# 
# From -- ./inp_files/63616.got.cif
#   From: 2010.03.12/outbox.cif.g09.slc.cpg/sg74_32_cif.got.tgz:63616.got - 2010.04.16 15:46:19.
