data_PCOD8300604
_publ_section_title
;
Structure prediction by ZEFSAII (Michael W. Deem and Ramdas Pophale) SiO2 
 PCOD8300604
Probable space group: I M M A
;
_chemical_formula_sum "Si O2"
_cell_formula_units_Z 68
_cell_length_a 16.342907
_cell_length_b 21.968868
_cell_length_c 8.908665
_cell_angle_alpha 90.000000
_cell_angle_beta 90.000000
_cell_angle_gamma 90.000000
_cell_volume 3198.524023
_symmetry_space_group_name_H-M "I M M A"
_symmetry_group_IT_number 74
_symmetry_cell_setting 'orthorhombic'
loop_
_space_group_symop_operation_xyz
x,y,z
-x,1/2-y,z
x,-y,-z
-x,1/2+y,-z
-x,-y,-z
x,1/2+y,-z
-x,y,z
x,1/2-y,z
1/2+x,1/2+y,1/2+z
1/2-x,-y,1/2+z
1/2+x,1/2-y,1/2-z
1/2-x,y,1/2-z
1/2-x,1/2-y,1/2-z
1/2+x,y,1/2-z
1/2-x,1/2+y,1/2+z
1/2+x,-y,1/2+z
loop_
_atom_site_type_symbol
_atom_site_label
_atom_site_fract_x
_atom_site_fract_y
_atom_site_fract_z
Si Si1 0.250000 0.546912 0.250000
Si Si2 0.140910 0.134110 0.563607
Si Si3 0.137465 0.500000 0.000000
Si Si4 0.500000 0.750000 0.853949
Si Si5 0.500000 0.382707 0.115180
Si Si6 0.000000 0.821100 0.230119
Si Si7 0.322880 0.750000 0.868619
Si Si8 0.000000 0.097116 0.040514
O O1 0.209779 0.589822 0.375164
O O2 0.189184 0.504061 0.154507
O O3 0.084096 0.154454 0.700416
O O4 0.182815 0.190297 0.474471
O O5 0.084401 0.091238 0.452185
O O6 0.081487 0.440730 0.009972
O O7 0.500000 0.688150 0.954118
O O8 0.410013 0.750000 0.773715
O O9 0.500000 0.379203 0.290988
O O10 0.000000 0.750000 0.233317
O O11 0.000000 0.842813 0.058348
O O12 0.250000 0.750000 0.750000
#
# Coordination Sequence:
#
# PCOD8300604 Si02
#       8
#     8  16   8   4   8   8   8   8
#     4  12  26  45  66  94 137 184 234 304 354 412
#     4  10  22  42  65 100 132 180 225 276 351 433
#     4  11  28  46  66  93 140 174 244 295 354 406
#     4   8  18  38  56  96 130 170 202 262 328 412
#     4   9  21  38  70  90 131 169 218 265 342 415
#     4  11  20  44  73  97 141 180 225 292 353 432
#     4  10  20  39  66 103 145 177 224 282 347 437
#     4  11  24  46  66 103 127 181 238 289 339 441
#
# _framework density 21.259806999999999
#
# number of rings (size 3 to 8) (size 9 to 14) (size 15 to 20)
#    0.000    1.647    3.529    0.706    5.765    4.235 
#    0.000    1.176    0.000    0.000    0.000    0.824 
#    0.000    0.000    0.000    0.000    0.000    0.000 
#
# Total GULP energy -421256.480940 kJ/mol
# GULP energy per Si atom -12389.896498 kJ/mol
# Density = 2.121142 g / cm^3
# Si number density = 21.259807 Si / 1000 Ang^3
#
#
#
# Elastic Constant Matrix: (Units=GPa)
#
#
# Indices 1 2 3 4 5 6 
#
# 1 112.6400 -1.0179 32.5933 0.0000 0.0000 0.0000
# 2 -1.0179 13.9470 -4.9886 0.0000 0.0000 0.0000
# 3 32.5933 -4.9886 115.1946 0.0000 0.0000 0.0000
# 4 0.0000 0.0000 0.0000 27.2683 0.0000 0.0000
# 5 0.0000 0.0000 0.0000 0.0000 48.9080 0.0000
# 6 0.0000 0.0000 0.0000 0.0000 0.0000 63.6900
#
#
#
# Elastic Compliance Matrix: (Units=1/GPa)
#
#
# Indices 1 2 3 4 5 6 
#
# 1 0.009671 -0.000277 -0.002748 0.000000 0.000000 0.000000
# 2 -0.000277 0.072836 0.003233 0.000000 0.000000 0.000000
# 3 -0.002748 0.003233 0.009599 0.000000 0.000000 0.000000
# 4 0.000000 0.000000 0.000000 0.036673 0.000000 0.000000
# 5 0.000000 0.000000 0.000000 0.000000 0.020447 0.000000
# 6 0.000000 0.000000 0.000000 0.000000 0.000000 0.015701
#
#
# Mechanical properties :
#
#
# Convention : Reuss Voigt Hill
#
# Bulk Modulus (GPa) = 10.80851 32.77280 21.79065
# Shear Modulus (GPa) = 25.59499 42.31960 33.95730
#
# Velocity S-wave (km/s) = 3.47351 4.46645 4.00090
# Velocity P-wave (km/s) = 4.60240 6.48442 5.62271
#
# Compressibility (1/GPa) = 0.09251969
#
# Stress axis : x y z
#
# Youngs Moduli (GPa) = 103.40670 13.72946 104.18261
#
# Poissons Ratio (x) = 0.00381 0.28631
# Poissons Ratio (y) = 0.02866 -0.33679
# Poissons Ratio (z) = 0.28418 -0.04438
#
# Static dielectric constant tensor:
#      x y z
#    x 4.083990 0.000000 0.000000 
#    y 0.000000 3.730280 0.000000 
#    z 0.000000 0.000000 3.844350 
# 
# 
# High freq. dielectric constant tensor:
#      x y z
#    x 1.848120 0.000000 0.000000 
#    y 0.000000 1.821110 0.000000 
#    z 0.000000 0.000000 1.833650 
# 
# From -- ./inp_files/10528.got.cif
#   From: 2010.03.12/outbox.cif.g09.slc.cpg/sg74_6_cif.got.tgz:10528.got - 2010.04.16 15:46:19.
