data_PCOD8300829
_publ_section_title
;
Structure prediction by ZEFSAII (Michael W. Deem and Ramdas Pophale) SiO2 
 PCOD8300829
Probable space group: I M M A
;
_chemical_formula_sum "Si O2"
_cell_formula_units_Z 72
_cell_length_a 20.749693
_cell_length_b 19.071530
_cell_length_c 8.758058
_cell_angle_alpha 90.000000
_cell_angle_beta 90.000000
_cell_angle_gamma 90.000000
_cell_volume 3465.812214
_symmetry_space_group_name_H-M "I M M A"
_symmetry_group_IT_number 74
_symmetry_cell_setting 'orthorhombic'
loop_
_space_group_symop_operation_xyz
x,y,z
-x,1/2-y,z
x,-y,-z
-x,1/2+y,-z
-x,-y,-z
x,1/2+y,-z
-x,y,z
x,1/2-y,z
1/2+x,1/2+y,1/2+z
1/2-x,-y,1/2+z
1/2+x,1/2-y,1/2-z
1/2-x,y,1/2-z
1/2-x,1/2-y,1/2-z
1/2+x,y,1/2-z
1/2-x,1/2+y,1/2+z
1/2+x,-y,1/2+z
loop_
_atom_site_type_symbol
_atom_site_label
_atom_site_fract_x
_atom_site_fract_y
_atom_site_fract_z
Si Si1 0.637633 0.750000 0.558285
Si Si2 0.286382 0.750000 0.986250
Si Si3 0.070958 0.893473 0.407513
Si Si4 0.313145 0.487319 0.825275
Si Si5 0.105615 0.250000 0.721187
Si Si6 0.856046 0.634516 0.702089
O O1 0.710530 0.750000 0.499005
O O2 0.598054 0.750000 0.403160
O O3 0.619314 0.680373 0.654845
O O4 0.321327 0.750000 0.151565
O O5 0.304680 0.819463 0.892009
O O6 0.067422 0.816587 0.338675
O O7 0.086500 0.888038 0.587972
O O8 0.000000 0.928193 0.391233
O O9 0.123798 0.938340 0.313483
O O10 0.250000 0.450794 0.750000
O O11 0.324584 0.561829 0.739421
O O12 0.296156 0.500000 0.000000
#
# Coordination Sequence:
#
# PCOD8300829 Si02
#       6
#     8   8  16  16   8  16
#     4  11  19  33  57  86 117 146 187 242 288 331
#     4   9  17  32  54  83 119 154 183 223 284 346
#     4  10  22  41  60  79 111 155 197 234 283 351
#     4  10  21  36  59  89 117 147 185 232 286 339
#     4  10  22  35  55  83 111 152 195 233 284 341
#     4   9  19  34  57  85 111 146 187 236 283 328
#
# _framework density 20.774350999999999
#
# number of rings (size 3 to 8) (size 9 to 14) (size 15 to 20)
#    0.000    2.222    0.000    4.000    0.000   11.111 
#    0.000    2.222    0.000    4.667    0.000    0.000 
#    0.000    0.000    0.000    0.000    0.000    0.000 
#
# Total GULP energy -446256.022422 kJ/mol
# GULP energy per Si atom -12396.000623 kJ/mol
# Density = 2.072707 g / cm^3
# Si number density = 20.774351 Si / 1000 Ang^3
#
#
#
# Elastic Constant Matrix: (Units=GPa)
#
#
# Indices 1 2 3 4 5 6 
#
# 1 141.8502 40.5132 16.0161 0.0000 0.0000 0.0000
# 2 40.5132 111.6809 17.9238 0.0000 0.0000 0.0000
# 3 16.0161 17.9238 76.0736 0.0000 0.0000 0.0000
# 4 0.0000 0.0000 0.0000 22.2281 0.0000 0.0000
# 5 0.0000 0.0000 0.0000 0.0000 16.8977 0.0000
# 6 0.0000 0.0000 0.0000 0.0000 0.0000 -26.2967
#
#
#
# Elastic Compliance Matrix: (Units=1/GPa)
#
#
# Indices 1 2 3 4 5 6 
#
# 1 0.007942 -0.002715 -0.001032 0.000000 0.000000 0.000000
# 2 -0.002715 0.010234 -0.001840 0.000000 0.000000 0.000000
# 3 -0.001032 -0.001840 0.013796 0.000000 0.000000 0.000000
# 4 0.000000 0.000000 0.000000 0.044988 0.000000 0.000000
# 5 0.000000 0.000000 0.000000 0.000000 0.059180 0.000000
# 6 0.000000 0.000000 0.000000 0.000000 0.000000 -0.038028
#
#
# Mechanical properties :
#
#
# Convention : Reuss Voigt Hill
#
# Bulk Modulus (GPa) = 48.08244 53.16786 50.62515
# Shear Modulus (GPa) = 43.02215 19.57592 31.29904
#
# Velocity S-wave (km/s) = 4.55568 3.07304 3.88573
# Velocity P-wave (km/s) = 7.13216 6.18385 6.67487
#
# Compressibility (1/GPa) = 0.02079761
#
# Stress axis : x y z
#
# Youngs Moduli (GPa) = 125.91712 97.71047 72.48514
#
# Poissons Ratio (x) = 0.26531 0.07482
# Poissons Ratio (y) = 0.34190 0.13335
# Poissons Ratio (z) = 0.12998 0.17975
#
# Static dielectric constant tensor:
#      x y z
#    x 3.505660 0.000000 0.000000 
#    y 0.000000 4.028470 0.000000 
#    z 0.000000 0.000000 3.598590 
# 
# 
# High freq. dielectric constant tensor:
#      x y z
#    x 1.793420 0.000000 0.000000 
#    y 0.000000 1.823890 0.000000 
#    z 0.000000 0.000000 1.791200 
# 
# From -- ./inp_files/12207.got.cif
#   From: 2010.03.12/outbox.cif.g09.slc.cpg/sg74_7_cif.got.tgz:12207.got - 2010.04.16 15:46:19.
