data_PCOD8300278
_publ_section_title
;
Structure prediction by ZEFSAII (Michael W. Deem and Ramdas Pophale) SiO2 
 PCOD8300278
Probable space group: I M M A
;
_chemical_formula_sum "Si O2"
_cell_formula_units_Z 56
_cell_length_a 9.615870
_cell_length_b 7.813919
_cell_length_c 39.624421
_cell_angle_alpha 90.000000
_cell_angle_beta 90.000000
_cell_angle_gamma 90.000000
_cell_volume 2977.285056
_symmetry_space_group_name_H-M "I M M A"
_symmetry_group_IT_number 74
_symmetry_cell_setting 'orthorhombic'
loop_
_space_group_symop_operation_xyz
x,y,z
-x,1/2-y,z
x,-y,-z
-x,1/2+y,-z
-x,-y,-z
x,1/2+y,-z
-x,y,z
x,1/2-y,z
1/2+x,1/2+y,1/2+z
1/2-x,-y,1/2+z
1/2+x,1/2-y,1/2-z
1/2-x,y,1/2-z
1/2-x,1/2-y,1/2-z
1/2+x,y,1/2-z
1/2-x,1/2+y,1/2+z
1/2+x,-y,1/2+z
loop_
_atom_site_type_symbol
_atom_site_label
_atom_site_fract_x
_atom_site_fract_y
_atom_site_fract_z
Si Si1 0.342699 0.453445 0.903302
Si Si2 0.835573 0.440356 0.330915
Si Si3 0.833777 0.750000 0.284340
Si Si4 0.844614 0.451457 0.963560
O O1 0.500000 0.519487 0.908461
O O2 0.339150 0.250000 0.901907
O O3 0.277078 0.523944 0.868428
O O4 0.251981 0.528657 0.934129
O O5 0.789537 0.250000 0.318980
O O6 0.782355 0.581697 0.304527
O O7 0.000000 0.457330 0.333194
O O8 0.750000 0.750000 0.250000
O O9 0.000000 0.750000 0.278049
O O10 0.849828 0.250000 0.959537
O O11 0.000000 0.529736 0.960256
O O12 0.780919 0.500000 0.000000
#
# Coordination Sequence:
#
# PCOD8300278 Si02
#       4
#    16  16   8  16
#     4   9  16  29  49  70  92 122 163 208 249 291
#     4   9  17  31  53  78 102 132 169 206 249 301
#     4  10  20  36  56  78 106 138 168 204 252 302
#     4   9  18  31  45  63  92 130 165 199 246 300
#
# _framework density 18.809080999999999
#
# number of rings (size 3 to 8) (size 9 to 14) (size 15 to 20)
#    0.000    2.857    1.429    0.000    0.000    2.286 
#    0.000    1.429    0.000    1.714    0.000    0.000 
#    0.000    0.000    0.000    0.000    0.000    0.000 
#
# Total GULP energy -347083.454005 kJ/mol
# GULP energy per Si atom -12395.837643 kJ/mol
# Density = 1.876627 g / cm^3
# Si number density = 18.809081 Si / 1000 Ang^3
#
#
#
# Elastic Constant Matrix: (Units=GPa)
#
#
# Indices 1 2 3 4 5 6 
#
# 1 52.5374 24.7847 61.0610 0.0000 0.0000 0.0000
# 2 24.7847 85.0323 63.6932 0.0000 0.0000 0.0000
# 3 61.0610 63.6932 189.3758 0.0000 0.0000 0.0000
# 4 0.0000 0.0000 0.0000 25.4999 0.0000 0.0000
# 5 0.0000 0.0000 0.0000 0.0000 33.7656 0.0000
# 6 0.0000 0.0000 0.0000 0.0000 0.0000 6.6314
#
#
#
# Elastic Compliance Matrix: (Units=1/GPa)
#
#
# Indices 1 2 3 4 5 6 
#
# 1 0.030707 -0.002051 -0.009211 0.000000 0.000000 0.000000
# 2 -0.002051 0.015858 -0.004672 0.000000 0.000000 0.000000
# 3 -0.009211 -0.004672 0.009822 0.000000 0.000000 0.000000
# 4 0.000000 0.000000 0.000000 0.039216 0.000000 0.000000
# 5 0.000000 0.000000 0.000000 0.000000 0.029616 0.000000
# 6 0.000000 0.000000 0.000000 0.000000 0.000000 0.150799
#
#
# Mechanical properties :
#
#
# Convention : Reuss Voigt Hill
#
# Bulk Modulus (GPa) = 40.78561 69.55814 55.17188
# Shear Modulus (GPa) = 15.81985 25.00647 20.41316
#
# Velocity S-wave (km/s) = 2.90328 3.65017 3.29794
# Velocity P-wave (km/s) = 5.74193 7.40449 6.62556
#
# Compressibility (1/GPa) = 0.02451845
#
# Stress axis : x y z
#
# Youngs Moduli (GPa) = 32.56559 63.06093 101.81245
#
# Poissons Ratio (x) = 0.12931 0.93783
# Poissons Ratio (y) = 0.06678 0.47569
# Poissons Ratio (z) = 0.29997 0.29464
#
# Static dielectric constant tensor:
#      x y z
#    x 3.318370 0.000000 0.000000 
#    y 0.000000 3.488560 0.000000 
#    z 0.000000 0.000000 3.561870 
# 
# 
# High freq. dielectric constant tensor:
#      x y z
#    x 1.686550 0.000000 0.000000 
#    y 0.000000 1.730530 0.000000 
#    z 0.000000 0.000000 1.734930 
# 
# From -- ./inp_files/63249.got.cif
#   From: 2010.03.12/outbox.cif.g09.slc.cpg/sg74_32_cif.got.tgz:63249.got - 2010.04.16 15:46:19.
