data_PCOD8300539
_publ_section_title
;
Structure prediction by ZEFSAII (Michael W. Deem and Ramdas Pophale) SiO2 
 PCOD8300539
Probable space group: I M M A
;
_chemical_formula_sum "Si O2"
_cell_formula_units_Z 80
_cell_length_a 28.018373
_cell_length_b 14.296480
_cell_length_c 9.176269
_cell_angle_alpha 90.000000
_cell_angle_beta 90.000000
_cell_angle_gamma 90.000000
_cell_volume 3675.684018
_symmetry_space_group_name_H-M "I M M A"
_symmetry_group_IT_number 74
_symmetry_cell_setting 'orthorhombic'
loop_
_space_group_symop_operation_xyz
x,y,z
-x,1/2-y,z
x,-y,-z
-x,1/2+y,-z
-x,-y,-z
x,1/2+y,-z
-x,y,z
x,1/2-y,z
1/2+x,1/2+y,1/2+z
1/2-x,-y,1/2+z
1/2+x,1/2-y,1/2-z
1/2-x,y,1/2-z
1/2-x,1/2-y,1/2-z
1/2+x,y,1/2-z
1/2-x,1/2+y,1/2+z
1/2+x,-y,1/2+z
loop_
_atom_site_type_symbol
_atom_site_label
_atom_site_fract_x
_atom_site_fract_y
_atom_site_fract_z
Si Si1 0.314364 0.860374 0.370230
Si Si2 0.629346 0.354698 0.147277
Si Si3 0.712583 0.359577 0.951739
Si Si4 0.052400 0.099572 0.573754
Si Si5 0.902898 0.979547 0.149793
O O1 0.325363 0.750000 0.379434
O O2 0.304062 0.893967 0.205879
O O3 0.268491 0.884992 0.473134
O O4 0.358685 0.921904 0.419846
O O5 0.637672 0.250000 0.212409
O O6 0.611432 0.423379 0.272465
O O7 0.678186 0.400041 0.079032
O O8 0.590997 0.341435 0.016164
O O9 0.705293 0.250000 0.956909
O O10 0.067994 0.087538 0.742009
O O11 0.000000 0.148052 0.570393
O O12 0.048857 0.000000 0.500000
O O13 0.932759 0.000000 0.000000
#
# Coordination Sequence:
#
# PCOD8300539 Si02
#       5
#    16  16  16  16  16
#     4   9  17  33  55  81 115 152 192 237 286 343
#     4  10  20  38  61  86 117 152 198 248 292 346
#     4   8  15  31  56  81 107 147 191 240 293 331
#     4   9  19  37  60  83 109 145 193 243 288 344
#     4  11  23  37  54  89 121 160 196 234 298 358
#
# _framework density 21.764657
#
# number of rings (size 3 to 8) (size 9 to 14) (size 15 to 20)
#    0.000    2.600    2.000    1.200    0.000    1.600 
#    7.200    0.000    0.000    3.600    0.000    2.800 
#    0.000    0.000    0.000    0.000    0.000    0.000 
#
# Total GULP energy -495583.099102 kJ/mol
# GULP energy per Si atom -12389.577478 kJ/mol
# Density = 2.171512 g / cm^3
# Si number density = 21.764657 Si / 1000 Ang^3
#
#
#
# Elastic Constant Matrix: (Units=GPa)
#
#
# Indices 1 2 3 4 5 6 
#
# 1 101.9009 14.1231 26.7671 0.0000 0.0000 0.0000
# 2 14.1231 66.7276 17.3470 0.0000 0.0000 0.0000
# 3 26.7671 17.3470 113.8027 0.0000 0.0000 0.0000
# 4 0.0000 0.0000 0.0000 20.0052 0.0000 0.0000
# 5 0.0000 0.0000 0.0000 0.0000 9.2049 0.0000
# 6 0.0000 0.0000 0.0000 0.0000 0.0000 12.0348
#
#
#
# Elastic Compliance Matrix: (Units=1/GPa)
#
#
# Indices 1 2 3 4 5 6 
#
# 1 0.010635 -0.001667 -0.002247 0.000000 0.000000 0.000000
# 2 -0.001667 0.015866 -0.002026 0.000000 0.000000 0.000000
# 3 -0.002247 -0.002026 0.009625 0.000000 0.000000 0.000000
# 4 0.000000 0.000000 0.000000 0.049987 0.000000 0.000000
# 5 0.000000 0.000000 0.000000 0.000000 0.108638 0.000000
# 6 0.000000 0.000000 0.000000 0.000000 0.000000 0.083092
#
#
# Mechanical properties :
#
#
# Convention : Reuss Voigt Hill
#
# Bulk Modulus (GPa) = 41.24656 44.32284 42.78470
# Shear Modulus (GPa) = 16.78953 23.19524 19.99238
#
# Velocity S-wave (km/s) = 2.78044 3.26809 3.03408
# Velocity P-wave (km/s) = 5.41296 5.88637 5.65462
#
# Compressibility (1/GPa) = 0.02424445
#
# Stress axis : x y z
#
# Youngs Moduli (GPa) = 94.03115 63.02837 103.90027
#
# Poissons Ratio (x) = 0.10505 0.23350
# Poissons Ratio (y) = 0.15672 0.21055
# Poissons Ratio (z) = 0.21132 0.12772
#
# Static dielectric constant tensor:
#      x y z
#    x 4.276510 0.000000 0.000000 
#    y 0.000000 3.585510 0.000000 
#    z 0.000000 0.000000 3.852820 
# 
# 
# High freq. dielectric constant tensor:
#      x y z
#    x 1.843010 0.000000 0.000000 
#    y 0.000000 1.845510 0.000000 
#    z 0.000000 0.000000 1.839470 
# 
# From -- ./inp_files/14945.got.cif
#   From: 2010.03.12/outbox.cif.g09.slc.cpg/sg74_8_cif.got.tgz:14945.got - 2010.04.16 15:46:19.
