data_PCOD8300840
_publ_section_title
;
Structure prediction by ZEFSAII (Michael W. Deem and Ramdas Pophale) SiO2 
 PCOD8300840
Probable space group: I M M A
;
_chemical_formula_sum "Si O2"
_cell_formula_units_Z 64
_cell_length_a 15.524016
_cell_length_b 9.341098
_cell_length_c 23.660429
_cell_angle_alpha 90.000000
_cell_angle_beta 90.000000
_cell_angle_gamma 90.000000
_cell_volume 3431.030865
_symmetry_space_group_name_H-M "I M M A"
_symmetry_group_IT_number 74
_symmetry_cell_setting 'orthorhombic'
loop_
_space_group_symop_operation_xyz
x,y,z
-x,1/2-y,z
x,-y,-z
-x,1/2+y,-z
-x,-y,-z
x,1/2+y,-z
-x,y,z
x,1/2-y,z
1/2+x,1/2+y,1/2+z
1/2-x,-y,1/2+z
1/2+x,1/2-y,1/2-z
1/2-x,y,1/2-z
1/2-x,1/2-y,1/2-z
1/2+x,y,1/2-z
1/2-x,1/2+y,1/2+z
1/2+x,-y,1/2+z
loop_
_atom_site_type_symbol
_atom_site_label
_atom_site_fract_x
_atom_site_fract_y
_atom_site_fract_z
Si Si1 0.616989 0.750000 0.583194
Si Si2 0.402933 0.750000 0.030584
Si Si3 0.500000 0.501945 0.388678
Si Si4 0.500000 0.250000 0.520965
Si Si5 0.500000 0.250000 0.700532
Si Si6 0.899278 0.465960 0.628347
Si Si7 0.819272 0.250000 0.411865
Si Si8 0.660053 0.750000 0.217883
O O1 0.582608 0.603527 0.612087
O O2 0.585581 0.750000 0.517975
O O3 0.717645 0.750000 0.591333
O O4 0.500000 0.750000 0.006606
O O5 0.385898 0.889241 0.068277
O O6 0.340107 0.750000 0.977904
O O7 0.500000 0.604533 0.443267
O O8 0.500000 0.603427 0.334659
O O9 0.585404 0.250000 0.736689
O O10 0.859474 0.620354 0.622377
O O11 0.847647 0.389005 0.678346
O O12 0.000000 0.468844 0.644374
O O13 0.750000 0.750000 0.250000
#
# Coordination Sequence:
#
# PCOD8300840 Si02
#       8
#     8   8   8   4   4  16   8   8
#     4  10  21  37  53  87 131 148 185 241 290 340
#     4   9  19  36  58  82 117 160 194 226 277 346
#     4   9  21  39  62  84 112 160 196 232 290 353
#     4   9  18  38  60  82 116 168 194 227 292 348
#     4  11  22  44  72  84 104 154 202 245 298 344
#     4  10  21  41  59  83 121 156 191 235 294 350
#     4  12  23  32  57  94 121 153 190 238 286 346
#     4  11  24  43  67  87 110 146 201 254 297 346
#
# _framework density 18.653285
#
# number of rings (size 3 to 8) (size 9 to 14) (size 15 to 20)
#    0.000    2.000    1.250    4.125    3.500    6.000 
#    4.500    3.125    0.000    0.000    0.000    0.000 
#    0.000    0.000    0.000    0.000    0.000    0.000 
#
# Total GULP energy -396761.869472 kJ/mol
# GULP energy per Si atom -12398.808421 kJ/mol
# Density = 1.861083 g / cm^3
# Si number density = 18.653285 Si / 1000 Ang^3
#
#
#
# Elastic Constant Matrix: (Units=GPa)
#
#
# Indices 1 2 3 4 5 6 
#
# 1 143.4680 67.6256 62.7132 0.0000 0.0000 0.0000
# 2 67.6256 170.1469 65.3729 0.0000 0.0000 0.0000
# 3 62.7132 65.3729 113.2559 0.0000 0.0000 0.0000
# 4 0.0000 0.0000 0.0000 -39.2717 0.0000 0.0000
# 5 0.0000 0.0000 0.0000 0.0000 16.2670 0.0000
# 6 0.0000 0.0000 0.0000 0.0000 0.0000 21.9105
#
#
#
# Elastic Compliance Matrix: (Units=1/GPa)
#
#
# Indices 1 2 3 4 5 6 
#
# 1 0.009873 -0.002343 -0.004115 0.000000 0.000000 0.000000
# 2 -0.002343 0.008108 -0.003383 0.000000 0.000000 0.000000
# 3 -0.004115 -0.003383 0.013060 0.000000 0.000000 0.000000
# 4 0.000000 0.000000 0.000000 -0.025464 0.000000 0.000000
# 5 0.000000 0.000000 0.000000 0.000000 0.061474 0.000000
# 6 0.000000 0.000000 0.000000 0.000000 0.000000 0.045640
#
#
# Mechanical properties :
#
#
# Convention : Reuss Voigt Hill
#
# Bulk Modulus (GPa) = 88.02055 90.92159 89.47107
# Shear Modulus (GPa) = 36.72121 15.19175 25.95648
#
# Velocity S-wave (km/s) = 4.44173 2.85691 3.73436
# Velocity P-wave (km/s) = 8.57877 7.72861 8.16476
#
# Compressibility (1/GPa) = 0.01136098
#
# Stress axis : x y z
#
# Youngs Moduli (GPa) = 101.28310 123.33032 76.56717
#
# Poissons Ratio (x) = 0.28900 0.31504
# Poissons Ratio (y) = 0.23734 0.25900
# Poissons Ratio (z) = 0.41673 0.41718
#
# Static dielectric constant tensor:
#      x y z
#    x 3.269460 0.000000 0.000000 
#    y 0.000000 3.607940 0.000000 
#    z 0.000000 0.000000 3.370290 
# 
# 
# High freq. dielectric constant tensor:
#      x y z
#    x 1.719640 0.000000 0.000000 
#    y 0.000000 1.742800 0.000000 
#    z 0.000000 0.000000 1.718590 
# 
# From -- ./inp_files/59588.got.cif
#   From: 2010.03.12/outbox.cif.g09.slc.cpg/sg74_30_cif.got.tgz:59588.got - 2010.04.16 15:46:19.
