data_PCOD8300303
_publ_section_title
;
Structure prediction by ZEFSAII (Michael W. Deem and Ramdas Pophale) SiO2 
 PCOD8300303
Probable space group: I M M A
;
_chemical_formula_sum "Si O2"
_cell_formula_units_Z 104
_cell_length_a 19.853533
_cell_length_b 8.878726
_cell_length_c 32.393992
_cell_angle_alpha 90.000000
_cell_angle_beta 90.000000
_cell_angle_gamma 90.000000
_cell_volume 5710.221126
_symmetry_space_group_name_H-M "I M M A"
_symmetry_group_IT_number 74
_symmetry_cell_setting 'orthorhombic'
loop_
_space_group_symop_operation_xyz
x,y,z
-x,1/2-y,z
x,-y,-z
-x,1/2+y,-z
-x,-y,-z
x,1/2+y,-z
-x,y,z
x,1/2-y,z
1/2+x,1/2+y,1/2+z
1/2-x,-y,1/2+z
1/2+x,1/2-y,1/2-z
1/2-x,y,1/2-z
1/2-x,1/2-y,1/2-z
1/2+x,y,1/2-z
1/2-x,1/2+y,1/2+z
1/2+x,-y,1/2+z
loop_
_atom_site_type_symbol
_atom_site_label
_atom_site_fract_x
_atom_site_fract_y
_atom_site_fract_z
Si Si1 0.170852 0.923146 0.656370
Si Si2 0.076391 0.926124 0.731704
Si Si3 0.316932 0.920664 0.629744
Si Si4 0.631735 0.073304 0.924831
Si Si5 0.760111 0.928434 0.958865
Si Si6 0.075951 0.073775 0.816739
Si Si7 0.000000 0.427959 0.455724
O O1 0.152442 0.750000 0.643869
O O2 0.131452 0.972062 0.697516
O O3 0.251861 0.936603 0.659808
O O4 0.150062 0.043610 0.622371
O O5 0.077842 0.750000 0.739380
O O6 0.000000 0.977272 0.719144
O O7 0.100355 0.002427 0.773855
O O8 0.342979 0.750000 0.630469
O O9 0.301706 0.969059 0.582434
O O10 0.376299 0.025610 0.645873
O O11 0.623340 0.250000 0.933494
O O12 0.687097 0.005323 0.955646
O O13 0.563690 0.983656 0.930823
O O14 0.752142 0.750000 0.963497
O O15 0.794920 0.000000 0.000000
O O16 0.080201 0.250000 0.811300
O O17 0.000000 0.020964 0.827098
O O18 0.000000 0.500000 0.500000
O O19 0.000000 0.250000 0.459471
#
# Coordination Sequence:
#
# PCOD8300303 Si02
#       7
#    16  16  16  16  16  16   8
#     4   9  19  35  53  78 107 139 180 223 267 313
#     4   9  18  33  54  77 103 142 185 219 261 317
#     4   9  19  35  55  79 108 139 175 216 261 317
#     4  11  22  35  51  75 104 138 178 221 271 319
#     4  10  20  36  57  81 107 138 173 213 261 314
#     4  10  21  36  54  78 107 138 174 219 269 318
#     4  12  24  38  52  68  96 134 180 230 276 322
#
# _framework density 18.212954
#
# number of rings (size 3 to 8) (size 9 to 14) (size 15 to 20)
#    0.000    2.154    0.000    4.385    1.077    5.231 
#    0.000    3.077    0.000    0.462    0.000    0.000 
#    0.000    0.000    0.000    0.000    0.000    0.000 
#
# Total GULP energy -644731.333832 kJ/mol
# GULP energy per Si atom -12398.679497 kJ/mol
# Density = 1.817150 g / cm^3
# Si number density = 18.212954 Si / 1000 Ang^3
#
#
#
# Elastic Constant Matrix: (Units=GPa)
#
#
# Indices 1 2 3 4 5 6 
#
# 1 77.2187 31.3133 55.6427 0.0000 0.0000 0.0000
# 2 31.3133 85.3613 40.6695 0.0000 0.0000 0.0000
# 3 55.6427 40.6695 112.3686 0.0000 0.0000 0.0000
# 4 0.0000 0.0000 0.0000 33.9161 0.0000 0.0000
# 5 0.0000 0.0000 0.0000 0.0000 19.3317 0.0000
# 6 0.0000 0.0000 0.0000 0.0000 0.0000 27.1079
#
#
#
# Elastic Compliance Matrix: (Units=1/GPa)
#
#
# Indices 1 2 3 4 5 6 
#
# 1 0.020878 -0.003303 -0.009143 0.000000 0.000000 0.000000
# 2 -0.003303 0.014678 -0.003677 0.000000 0.000000 0.000000
# 3 -0.009143 -0.003677 0.014758 0.000000 0.000000 0.000000
# 4 0.000000 0.000000 0.000000 0.029485 0.000000 0.000000
# 5 0.000000 0.000000 0.000000 0.000000 0.051728 0.000000
# 6 0.000000 0.000000 0.000000 0.000000 0.000000 0.036890
#
#
# Mechanical properties :
#
#
# Convention : Reuss Voigt Hill
#
# Bulk Modulus (GPa) = 55.34555 58.91106 57.12831
# Shear Modulus (GPa) = 24.19148 25.89269 25.04209
#
# Velocity S-wave (km/s) = 3.64848 3.77459 3.71207
# Velocity P-wave (km/s) = 6.94280 7.17026 7.05745
#
# Compressibility (1/GPa) = 0.01806830
#
# Stress axis : x y z
#
# Youngs Moduli (GPa) = 47.89783 68.12760 67.76186
#
# Poissons Ratio (x) = 0.22500 0.61954
# Poissons Ratio (y) = 0.15819 0.24917
# Poissons Ratio (z) = 0.43793 0.25052
#
# Static dielectric constant tensor:
#      x y z
#    x 3.553520 0.000000 0.000000 
#    y 0.000000 3.323700 0.000000 
#    z 0.000000 0.000000 3.345220 
# 
# 
# High freq. dielectric constant tensor:
#      x y z
#    x 1.690910 0.000000 0.000000 
#    y 0.000000 1.709980 0.000000 
#    z 0.000000 0.000000 1.704770 
# 
# From -- ./inp_files/73334.got.cif
#   From: 2010.03.12/outbox.cif.g09.slc.cpg/sg74_37_cif.got.tgz:73334.got - 2010.04.16 15:46:19.
