data_PCOD8300019
_publ_section_title
;
Structure prediction by ZEFSAII (Michael W. Deem and Ramdas Pophale) SiO2 
 PCOD8300019
Probable space group: I M M A
;
_chemical_formula_sum "Si O2"
_cell_formula_units_Z 104
_cell_length_a 8.447104
_cell_length_b 25.956148
_cell_length_c 22.577772
_cell_angle_alpha 90.000000
_cell_angle_beta 90.000000
_cell_angle_gamma 90.000000
_cell_volume 4950.273180
_symmetry_space_group_name_H-M "I M M A"
_symmetry_group_IT_number 74
_symmetry_cell_setting 'orthorhombic'
loop_
_space_group_symop_operation_xyz
x,y,z
-x,1/2-y,z
x,-y,-z
-x,1/2+y,-z
-x,-y,-z
x,1/2+y,-z
-x,y,z
x,1/2-y,z
1/2+x,1/2+y,1/2+z
1/2-x,-y,1/2+z
1/2+x,1/2-y,1/2-z
1/2-x,y,1/2-z
1/2-x,1/2-y,1/2-z
1/2+x,y,1/2-z
1/2-x,1/2+y,1/2+z
1/2+x,-y,1/2+z
loop_
_atom_site_type_symbol
_atom_site_label
_atom_site_fract_x
_atom_site_fract_y
_atom_site_fract_z
Si Si1 0.815793 0.460208 0.184985
Si Si2 0.315855 0.643190 0.858343
Si Si3 0.815903 0.484128 0.935003
Si Si4 0.686731 0.873429 0.081019
Si Si5 0.814563 0.693107 0.526747
Si Si6 0.811595 0.750000 0.814501
Si Si7 0.313374 0.192990 0.811756
O O1 0.750000 0.478268 0.250000
O O2 0.784075 0.399430 0.176556
O O3 0.743342 0.488247 0.125191
O O4 0.000000 0.471671 0.188013
O O5 0.500000 0.632476 0.844995
O O6 0.273525 0.646103 0.928104
O O7 0.266183 0.700060 0.841586
O O8 0.788103 0.423927 0.929287
O O9 0.000000 0.497887 0.936013
O O10 0.742332 0.500000 0.000000
O O11 0.500000 0.886181 0.077026
O O12 0.742214 0.850463 0.143126
O O13 0.738658 0.828570 0.036133
O O14 0.734239 0.750000 0.538215
O O15 0.000000 0.702540 0.529029
O O16 0.750000 0.750000 0.750000
O O17 0.000000 0.750000 0.820840
O O18 0.500000 0.197028 0.811787
O O19 0.242969 0.250000 0.825969
O O20 0.250000 0.172301 0.750000
#
# Coordination Sequence:
#
# PCOD8300019 Si02
#       7
#    16  16  16  16  16   8  16
#     4  11  24  42  63  87 117 156 198 245 299 356
#     4  11  21  37  60  87 117 151 191 237 287 339
#     4  10  23  43  63  84 116 155 194 243 303 357
#     4  10  20  34  58  87 112 145 192 241 287 343
#     4   9  17  32  56  86 119 152 188 235 289 342
#     4  12  24  38  56  80 114 152 191 230 271 328
#     4   9  18  33  53  80 115 153 189 229 281 341
#
# _framework density 21.008942000000001
#
# number of rings (size 3 to 8) (size 9 to 14) (size 15 to 20)
#    0.000    1.846    0.769    3.462    0.000    4.615 
#    0.000    3.846    0.000    0.923    0.000    0.000 
#    0.000    0.000    0.000    0.000    0.000    0.000 
#
# Total GULP energy -644185.684602 kJ/mol
# GULP energy per Si atom -12388.186242 kJ/mol
# Density = 2.096112 g / cm^3
# Si number density = 21.008942 Si / 1000 Ang^3
#
#
#
# Elastic Constant Matrix: (Units=GPa)
#
#
# Indices 1 2 3 4 5 6 
#
# 1 19.6801 1.0876 22.8297 0.0000 0.0000 0.0000
# 2 1.0876 86.0188 51.6317 0.0000 0.0000 0.0000
# 3 22.8297 51.6317 165.5214 -0.0001 0.0000 0.0000
# 4 0.0000 0.0000 -0.0001 36.9413 0.0000 0.0000
# 5 0.0000 0.0000 0.0000 0.0000 23.8023 0.0000
# 6 0.0000 0.0000 0.0000 0.0000 0.0000 28.2528
#
#
#
# Elastic Compliance Matrix: (Units=1/GPa)
#
#
# Indices 1 2 3 4 5 6 
#
# 1 0.062459 0.005390 -0.010296 0.000000 0.000000 0.000000
# 2 0.005390 0.014769 -0.005350 0.000000 0.000000 0.000000
# 3 -0.010296 -0.005350 0.009131 0.000000 0.000000 0.000000
# 4 0.000000 0.000000 0.000000 0.027070 0.000000 0.000000
# 5 0.000000 0.000000 0.000000 0.000000 0.042013 0.000000
# 6 0.000000 0.000000 0.000000 0.000000 0.000000 0.035395
#
#
# Mechanical properties :
#
#
# Convention : Reuss Voigt Hill
#
# Bulk Modulus (GPa) = 15.18695 46.92425 31.05560
# Shear Modulus (GPa) = 21.43196 30.84402 26.13799
#
# Velocity S-wave (km/s) = 3.19742 3.83579 3.53106
# Velocity P-wave (km/s) = 4.56901 6.48086 5.60702
#
# Compressibility (1/GPa) = 0.06584600
#
# Stress axis : x y z
#
# Youngs Moduli (GPa) = 16.01053 67.71086 109.52223
#
# Poissons Ratio (x) = -0.36499 1.12766
# Poissons Ratio (y) = -0.08630 0.58598
# Poissons Ratio (z) = 0.16485 0.36228
#
# Static dielectric constant tensor:
#      x y z
#    x 3.416690 0.000000 0.000000 
#    y 0.000000 3.731290 0.000000 
#    z 0.000000 0.000000 4.477030 
# 
# 
# High freq. dielectric constant tensor:
#      x y z
#    x 1.789950 0.000000 0.000000 
#    y 0.000000 1.822020 0.000000 
#    z 0.000000 0.000000 1.847990 
# 
# From -- ./inp_files/49335.got.cif
#   From: 2010.03.12/outbox.cif.g09.slc.cpg/sg74_25_cif.got.tgz:49335.got - 2010.04.16 15:46:19.
