data_PCOD8300482
_publ_section_title
;
Structure prediction by ZEFSAII (Michael W. Deem and Ramdas Pophale) SiO2 
 PCOD8300482
Probable space group: I M M A
;
_chemical_formula_sum "Si O2"
_cell_formula_units_Z 88
_cell_length_a 17.170819
_cell_length_b 20.997181
_cell_length_c 11.820359
_cell_angle_alpha 90.000000
_cell_angle_beta 90.000000
_cell_angle_gamma 90.000000
_cell_volume 4261.697984
_symmetry_space_group_name_H-M "I M M A"
_symmetry_group_IT_number 74
_symmetry_cell_setting 'orthorhombic'
loop_
_space_group_symop_operation_xyz
x,y,z
-x,1/2-y,z
x,-y,-z
-x,1/2+y,-z
-x,-y,-z
x,1/2+y,-z
-x,y,z
x,1/2-y,z
1/2+x,1/2+y,1/2+z
1/2-x,-y,1/2+z
1/2+x,1/2-y,1/2-z
1/2-x,y,1/2-z
1/2-x,1/2-y,1/2-z
1/2+x,y,1/2-z
1/2-x,1/2+y,1/2+z
1/2+x,-y,1/2+z
loop_
_atom_site_type_symbol
_atom_site_label
_atom_site_fract_x
_atom_site_fract_y
_atom_site_fract_z
Si Si1 0.089200 0.585447 0.722370
Si Si2 0.092793 0.750000 0.091922
Si Si3 0.407810 0.750000 0.151292
Si Si4 0.192313 0.027749 0.666234
Si Si5 0.590795 0.376626 0.468272
Si Si6 0.814674 0.000000 0.000000
Si Si7 0.408640 0.124299 0.974578
O O1 0.136394 0.519950 0.734414
O O2 0.105653 0.628550 0.833001
O O3 0.109462 0.625174 0.608733
O O4 0.000000 0.564058 0.719044
O O5 0.125214 0.750000 0.220683
O O6 0.000000 0.750000 0.090545
O O7 0.123989 0.812782 0.027219
O O8 0.500000 0.750000 0.156371
O O9 0.378385 0.810824 0.081427
O O10 0.250000 0.068509 0.750000
O O11 0.140170 0.068495 0.582317
O O12 0.255853 0.984531 0.602005
O O13 0.500000 0.384666 0.495920
O O14 0.632971 0.437720 0.522485
O O15 0.500000 0.112682 0.950892
#
# Coordination Sequence:
#
# PCOD8300482 Si02
#       7
#    16   8   8  16  16   8  16
#     4  10  20  37  61  87 116 150 197 245 287 345
#     4   9  20  39  60  85 121 155 194 242 293 351
#     4   9  20  37  59  85 113 150 199 245 285 347
#     4  12  23  37  57  86 122 154 192 241 299 349
#     4  10  22  39  61  90 118 156 200 243 293 350
#     4  12  23  38  61  86 124 156 196 246 295 352
#     4  10  21  39  61  85 115 155 198 241 293 348
#
# _framework density 20.649046999999999
#
# number of rings (size 3 to 8) (size 9 to 14) (size 15 to 20)
#    0.000    1.636    3.636    0.818    2.545    2.182 
#    0.000    5.000    0.000    1.091    0.000    0.000 
#    0.000    0.000    0.000    0.000    0.000    0.000 
#
# Total GULP energy -545266.214982 kJ/mol
# GULP energy per Si atom -12392.413977 kJ/mol
# Density = 2.060205 g / cm^3
# Si number density = 20.649047 Si / 1000 Ang^3
#
#
#
# Elastic Constant Matrix: (Units=GPa)
#
#
# Indices 1 2 3 4 5 6 
#
# 1 61.5301 43.9967 40.4148 0.0000 0.0000 0.0000
# 2 43.9967 139.7651 53.6205 0.0000 0.0000 0.0000
# 3 40.4148 53.6205 121.3717 0.0000 0.0000 0.0000
# 4 0.0000 0.0000 0.0000 37.9177 0.0000 0.0000
# 5 0.0000 0.0000 0.0000 0.0000 29.1061 0.0000
# 6 0.0000 0.0000 0.0000 0.0000 0.0000 0.2794
#
#
#
# Elastic Compliance Matrix: (Units=1/GPa)
#
#
# Indices 1 2 3 4 5 6 
#
# 1 0.023705 -0.005339 -0.005535 0.000000 0.000000 0.000000
# 2 -0.005339 0.009817 -0.002559 0.000000 0.000000 0.000000
# 3 -0.005535 -0.002559 0.011213 0.000000 0.000000 0.000000
# 4 0.000000 0.000000 0.000000 0.026373 0.000000 0.000000
# 5 0.000000 0.000000 0.000000 0.000000 0.034357 0.000000
# 6 0.000000 0.000000 0.000000 0.000000 0.000000 3.578575
#
#
# Mechanical properties :
#
#
# Convention : Reuss Voigt Hill
#
# Bulk Modulus (GPa) = 55.96193 66.52567 61.24380
# Shear Modulus (GPa) = 1.34522 25.76963 13.55743
#
# Velocity S-wave (km/s) = 0.80801 3.53651 2.56513
# Velocity P-wave (km/s) = 5.29441 6.99737 6.20459
#
# Compressibility (1/GPa) = 0.01786929
#
# Stress axis : x y z
#
# Youngs Moduli (GPa) = 42.18511 101.86014 89.18286
#
# Poissons Ratio (x) = 0.54380 0.49361
# Poissons Ratio (y) = 0.22521 0.22826
# Poissons Ratio (z) = 0.23349 0.26071
#
# Static dielectric constant tensor:
#      x y z
#    x 3.750650 0.000000 0.000000 
#    y 0.000000 3.590640 0.000000 
#    z 0.000000 0.000000 4.271860 
# 
# 
# High freq. dielectric constant tensor:
#      x y z
#    x 1.802490 0.000000 0.000000 
#    y 0.000000 1.780200 0.000000 
#    z 0.000000 0.000000 1.828990 
# 
# From -- ./inp_files/22260.got.cif
#   From: 2010.03.12/outbox.cif.g09.slc.cpg/sg74_12_cif.got.tgz:22260.got - 2010.04.16 15:46:19.
