data_PCOD8300929
_publ_section_title
;
Structure prediction by ZEFSAII (Michael W. Deem and Ramdas Pophale) SiO2 
 PCOD8300929
Probable space group: I M M A
;
_chemical_formula_sum "Si O2"
_cell_formula_units_Z 112
_cell_length_a 14.992076
_cell_length_b 13.358686
_cell_length_c 26.904851
_cell_angle_alpha 90.000000
_cell_angle_beta 90.000000
_cell_angle_gamma 90.000000
_cell_volume 5388.353854
_symmetry_space_group_name_H-M "I M M A"
_symmetry_group_IT_number 74
_symmetry_cell_setting 'orthorhombic'
loop_
_space_group_symop_operation_xyz
x,y,z
-x,1/2-y,z
x,-y,-z
-x,1/2+y,-z
-x,-y,-z
x,1/2+y,-z
-x,y,z
x,1/2-y,z
1/2+x,1/2+y,1/2+z
1/2-x,-y,1/2+z
1/2+x,1/2-y,1/2-z
1/2-x,y,1/2-z
1/2-x,1/2-y,1/2-z
1/2+x,y,1/2-z
1/2-x,1/2+y,1/2+z
1/2+x,-y,1/2+z
loop_
_atom_site_type_symbol
_atom_site_label
_atom_site_fract_x
_atom_site_fract_y
_atom_site_fract_z
Si Si1 0.736597 0.632776 0.016972
Si Si2 0.601359 0.867077 0.935668
Si Si3 0.603361 0.510168 0.645895
Si Si4 0.603884 0.484040 0.164698
Si Si5 0.394494 0.138337 0.260130
Si Si6 0.399867 0.365867 0.452794
Si Si7 0.241285 0.631280 0.370802
O O1 0.723859 0.750000 0.017326
O O2 0.723226 0.594677 0.072752
O O3 0.663629 0.586718 0.979132
O O4 0.834677 0.601668 0.997493
O O5 0.500000 0.887348 0.952087
O O6 0.619903 0.750000 0.927975
O O7 0.623661 0.918331 0.883665
O O8 0.500000 0.478793 0.651485
O O9 0.636340 0.579724 0.690904
O O10 0.621368 0.571312 0.595968
O O11 0.662484 0.409838 0.646377
O O12 0.500000 0.513210 0.169546
O O13 0.638735 0.421121 0.211704
O O14 0.661275 0.585944 0.162187
O O15 0.500000 0.147235 0.258828
O O16 0.352686 0.250000 0.260359
O O17 0.500000 0.385115 0.472261
O O18 0.385532 0.250000 0.438452
O O19 0.242191 0.750000 0.364317
#
# Coordination Sequence:
#
# PCOD8300929 Si02
#       7
#    16  16  16  16  16  16  16
#     4   9  19  35  53  74 107 151 192 232 278 324
#     4   9  17  31  54  85 117 145 176 221 280 344
#     4  10  21  37  59  86 114 146 184 225 276 337
#     4  10  21  37  59  86 114 146 184 225 276 337
#     4   9  18  37  65  94 123 147 168 210 278 350
#     4   9  17  31  54  85 117 145 176 221 280 344
#     4  11  25  42  56  74 107 152 200 245 278 308
#
# _framework density 20.785568999999999
#
# number of rings (size 3 to 8) (size 9 to 14) (size 15 to 20)
#    0.000    2.429    0.000    1.714    0.000    8.000 
#    0.000   10.000    0.000    2.571    0.000    0.000 
#    0.000    0.000    0.000    0.000    0.000    0.000 
#
# Total GULP energy -694410.710849 kJ/mol
# GULP energy per Si atom -12400.191265 kJ/mol
# Density = 2.073826 g / cm^3
# Si number density = 20.785569 Si / 1000 Ang^3
#
#
#
# Elastic Constant Matrix: (Units=GPa)
#
#
# Indices 1 2 3 4 5 6 
#
# 1 46.8724 15.2422 5.3070 0.0000 0.0000 0.0000
# 2 15.2422 102.5300 32.5070 0.0000 0.0000 0.0000
# 3 5.3070 32.5070 86.6919 0.0000 0.0000 0.0000
# 4 0.0000 0.0000 0.0000 32.1261 0.0000 0.0000
# 5 0.0000 0.0000 0.0000 0.0000 24.4911 0.0000
# 6 0.0000 0.0000 0.0000 0.0000 0.0000 27.2795
#
#
#
# Elastic Compliance Matrix: (Units=1/GPa)
#
#
# Indices 1 2 3 4 5 6 
#
# 1 0.022420 -0.003289 -0.000139 0.000000 0.000000 0.000000
# 2 -0.003289 0.011552 -0.004130 0.000000 0.000000 0.000000
# 3 -0.000139 -0.004130 0.013092 0.000000 0.000000 0.000000
# 4 0.000000 0.000000 0.000000 0.031127 0.000000 0.000000
# 5 0.000000 0.000000 0.000000 0.000000 0.040831 0.000000
# 6 0.000000 0.000000 0.000000 0.000000 0.000000 0.036658
#
#
# Mechanical properties :
#
#
# Convention : Reuss Voigt Hill
#
# Bulk Modulus (GPa) = 31.30163 38.02297 34.66230
# Shear Modulus (GPa) = 27.55649 28.98187 28.26918
#
# Velocity S-wave (km/s) = 3.64504 3.73812 3.69187
# Velocity P-wave (km/s) = 5.72774 6.07981 5.90640
#
# Compressibility (1/GPa) = 0.03194722
#
# Stress axis : x y z
#
# Youngs Moduli (GPa) = 44.60353 86.56785 76.38050
#
# Poissons Ratio (x) = 0.28470 0.01064
# Poissons Ratio (y) = 0.14669 0.31547
# Poissons Ratio (z) = 0.00621 0.35754
#
# Static dielectric constant tensor:
#      x y z
#    x 3.775950 0.000000 0.000000 
#    y 0.000000 3.658960 0.000000 
#    z 0.000000 0.000000 3.877800 
# 
# 
# High freq. dielectric constant tensor:
#      x y z
#    x 1.814790 0.000000 0.000000 
#    y 0.000000 1.811120 0.000000 
#    z 0.000000 0.000000 1.809710 
# 
# From -- ./inp_files/60108.got.cif
#   From: 2010.03.12/outbox.cif.g09.slc.cpg/sg74_31_cif.got.tgz:60108.got - 2010.04.16 15:46:19.
