data_PCOD8300812
_publ_section_title
;
Structure prediction by ZEFSAII (Michael W. Deem and Ramdas Pophale) SiO2 
 PCOD8300812
Probable space group: I M M A
;
_chemical_formula_sum "Si O2"
_cell_formula_units_Z 96
_cell_length_a 8.924222
_cell_length_b 19.956352
_cell_length_c 28.078526
_cell_angle_alpha 90.000000
_cell_angle_beta 90.000000
_cell_angle_gamma 90.000000
_cell_volume 5000.642717
_symmetry_space_group_name_H-M "I M M A"
_symmetry_group_IT_number 74
_symmetry_cell_setting 'orthorhombic'
loop_
_space_group_symop_operation_xyz
x,y,z
-x,1/2-y,z
x,-y,-z
-x,1/2+y,-z
-x,-y,-z
x,1/2+y,-z
-x,y,z
x,1/2-y,z
1/2+x,1/2+y,1/2+z
1/2-x,-y,1/2+z
1/2+x,1/2-y,1/2-z
1/2-x,y,1/2-z
1/2-x,1/2-y,1/2-z
1/2+x,y,1/2-z
1/2-x,1/2+y,1/2+z
1/2+x,-y,1/2+z
loop_
_atom_site_type_symbol
_atom_site_label
_atom_site_fract_x
_atom_site_fract_y
_atom_site_fract_z
Si Si1 0.826260 0.673386 0.044135
Si Si2 0.323488 0.432755 0.364252
Si Si3 0.325020 0.827395 0.798808
Si Si4 0.175417 0.672411 0.357862
Si Si5 0.323579 0.058913 0.700079
Si Si6 0.822584 0.562824 0.971432
O O1 0.794963 0.750000 0.030461
O O2 0.732567 0.650965 0.090051
O O3 0.000000 0.660357 0.056435
O O4 0.774037 0.630375 0.998739
O O5 0.500000 0.419266 0.362717
O O6 0.241500 0.369381 0.341878
O O7 0.281378 0.501085 0.337343
O O8 0.259966 0.437604 0.417880
O O9 0.500000 0.840815 0.794150
O O10 0.287680 0.750000 0.808907
O O11 0.250000 0.851980 0.750000
O O12 0.214193 0.750000 0.348100
O O13 0.258745 0.629428 0.317877
O O14 0.000000 0.658324 0.354811
O O15 0.500000 0.066249 0.706919
O O16 0.250000 0.039149 0.750000
O O17 0.000000 0.556220 0.969036
O O18 0.754080 0.500000 0.000000
#
# Coordination Sequence:
#
# PCOD8300812 Si02
#       6
#    16  16  16  16  16  16
#     4   9  17  31  53  79 106 139 178 218 262 313
#     4  10  21  36  57  84 111 142 181 225 271 319
#     4  10  21  37  57  81 110 145 183 223 269 321
#     4  10  21  37  57  81 109 142 180 222 269 321
#     4  11  23  38  57  81 109 142 180 223 272 325
#     4   9  17  31  52  78 107 138 176 221 265 313
#
# _framework density 19.197531999999999
#
# number of rings (size 3 to 8) (size 9 to 14) (size 15 to 20)
#    0.000    2.167    0.000    3.000    0.000    8.333 
#    0.000    2.500    0.000    4.000    0.000    0.000 
#    0.000    0.000    0.000    0.000    0.000    0.000 
#
# Total GULP energy -595394.088367 kJ/mol
# GULP energy per Si atom -12404.043508 kJ/mol
# Density = 1.915384 g / cm^3
# Si number density = 19.197532 Si / 1000 Ang^3
#
#
#
# Elastic Constant Matrix: (Units=GPa)
#
#
# Indices 1 2 3 4 5 6 
#
# 1 63.7519 41.7170 47.7032 0.0000 0.0000 0.0000
# 2 41.7170 97.2385 67.9507 0.0000 0.0000 0.0000
# 3 47.7032 67.9507 148.6879 0.0000 0.0000 0.0000
# 4 0.0000 0.0000 0.0000 41.1949 0.0000 0.0000
# 5 0.0000 0.0000 0.0000 0.0000 29.8169 0.0000
# 6 0.0000 0.0000 0.0000 0.0000 0.0000 25.9150
#
#
#
# Elastic Compliance Matrix: (Units=1/GPa)
#
#
# Indices 1 2 3 4 5 6 
#
# 1 0.023555 -0.007088 -0.004318 0.000000 0.000000 0.000000
# 2 -0.007088 0.017242 -0.005606 0.000000 0.000000 0.000000
# 3 -0.004318 -0.005606 0.010673 0.000000 0.000000 0.000000
# 4 0.000000 0.000000 0.000000 0.024275 0.000000 0.000000
# 5 0.000000 0.000000 0.000000 0.000000 0.033538 0.000000
# 6 0.000000 0.000000 0.000000 0.000000 0.000000 0.038588
#
#
# Mechanical properties :
#
#
# Convention : Reuss Voigt Hill
#
# Bulk Modulus (GPa) = 57.31817 69.38000 63.34908
# Shear Modulus (GPa) = 26.63702 29.53920 28.08811
#
# Velocity S-wave (km/s) = 3.72899 3.92688 3.82921
# Velocity P-wave (km/s) = 6.96149 7.53519 7.25401
#
# Compressibility (1/GPa) = 0.01744648
#
# Stress axis : x y z
#
# Youngs Moduli (GPa) = 42.45411 57.99723 93.69846
#
# Poissons Ratio (x) = 0.41110 0.40456
# Poissons Ratio (y) = 0.30092 0.52524
# Poissons Ratio (z) = 0.18331 0.32511
#
# Static dielectric constant tensor:
#      x y z
#    x 3.348120 0.000000 0.000000 
#    y 0.000000 3.580970 0.000000 
#    z 0.000000 0.000000 3.645250 
# 
# 
# High freq. dielectric constant tensor:
#      x y z
#    x 1.729930 0.000000 0.000000 
#    y 0.000000 1.756830 0.000000 
#    z 0.000000 0.000000 1.751850 
# 
# From -- ./inp_files/64264.got.cif
#   From: 2010.03.12/outbox.cif.g09.slc.cpg/sg74_33_cif.got.tgz:64264.got - 2010.04.16 15:46:19.
