data_PCOD8300451
_publ_section_title
;
Structure prediction by ZEFSAII (Michael W. Deem and Ramdas Pophale) SiO2 
 PCOD8300451
Probable space group: I M M A
;
_chemical_formula_sum "Si O2"
_cell_formula_units_Z 104
_cell_length_a 20.511522
_cell_length_b 8.653417
_cell_length_c 29.969521
_cell_angle_alpha 90.000000
_cell_angle_beta 90.000000
_cell_angle_gamma 90.000000
_cell_volume 5319.432733
_symmetry_space_group_name_H-M "I M M A"
_symmetry_group_IT_number 74
_symmetry_cell_setting 'orthorhombic'
loop_
_space_group_symop_operation_xyz
x,y,z
-x,1/2-y,z
x,-y,-z
-x,1/2+y,-z
-x,-y,-z
x,1/2+y,-z
-x,y,z
x,1/2-y,z
1/2+x,1/2+y,1/2+z
1/2-x,-y,1/2+z
1/2+x,1/2-y,1/2-z
1/2-x,y,1/2-z
1/2-x,1/2-y,1/2-z
1/2+x,y,1/2-z
1/2-x,1/2+y,1/2+z
1/2+x,-y,1/2+z
loop_
_atom_site_type_symbol
_atom_site_label
_atom_site_fract_x
_atom_site_fract_y
_atom_site_fract_z
Si Si1 0.776579 0.930715 0.126698
Si Si2 0.077214 0.423963 0.545042
Si Si3 0.641032 0.431958 0.450882
Si Si4 0.000000 0.568943 0.951844
Si Si5 0.311526 0.932781 0.277254
Si Si6 0.074159 0.429748 0.713800
Si Si7 0.863034 0.070627 0.370312
O O1 0.787380 0.750000 0.120309
O O2 0.811901 0.993029 0.171714
O O3 0.804082 0.013777 0.083152
O O4 0.700703 0.965615 0.132247
O O5 0.105342 0.500000 0.500000
O O6 0.105375 0.250000 0.550475
O O7 0.098573 0.534037 0.584831
O O8 0.000000 0.417807 0.543526
O O9 0.653549 0.500000 0.500000
O O10 0.645897 0.250000 0.455940
O O11 0.569454 0.482595 0.430219
O O12 0.000000 0.750000 0.956530
O O13 0.000000 0.500000 0.000000
O O14 0.303570 0.750000 0.278133
O O15 0.250000 0.003755 0.250000
O O16 0.379035 0.983355 0.254181
O O17 0.085490 0.250000 0.702087
O O18 0.089592 0.530059 0.670473
O O19 0.000000 0.460828 0.728866
O O20 0.843931 0.250000 0.368910
#
# Coordination Sequence:
#
# PCOD8300451 Si02
#       7
#    16  16  16   8  16  16  16
#     4  11  22  38  60  85 115 152 194 239 289 343
#     4  10  21  38  59  83 113 149 188 232 284 338
#     4  10  20  37  59  86 118 153 194 238 289 345
#     4   8  16  32  56  80 110 150 188 230 280 338
#     4   9  17  35  61  85 112 149 191 237 286 339
#     4  10  20  37  62  88 114 148 192 240 288 342
#     4  12  24  37  56  83 115 151 193 237 285 343
#
# _framework density 19.550957
#
# number of rings (size 3 to 8) (size 9 to 14) (size 15 to 20)
#    0.000    1.846    1.538    3.231    0.000    4.308 
#    1.385    5.385    0.000    0.000    0.000    0.000 
#    0.000    0.000    0.000    0.000    0.000    0.000 
#
# Total GULP energy -644649.963143 kJ/mol
# GULP energy per Si atom -12397.114676 kJ/mol
# Density = 1.950646 g / cm^3
# Si number density = 19.550957 Si / 1000 Ang^3
#
#
#
# Elastic Constant Matrix: (Units=GPa)
#
#
# Indices 1 2 3 4 5 6 
#
# 1 97.6518 19.1025 44.0134 0.0000 0.0000 0.0000
# 2 19.1025 52.5879 32.2556 0.0000 0.0000 0.0000
# 3 44.0134 32.2556 132.7645 0.0000 0.0000 0.0000
# 4 0.0000 0.0000 0.0000 23.8284 0.0000 0.0000
# 5 0.0000 0.0000 0.0000 0.0000 1.9911 0.0000
# 6 0.0000 0.0000 0.0000 0.0000 0.0000 20.9017
#
#
#
# Elastic Compliance Matrix: (Units=1/GPa)
#
#
# Indices 1 2 3 4 5 6 
#
# 1 0.012273 -0.002306 -0.003508 0.000000 0.000000 0.000000
# 2 -0.002306 0.022779 -0.004770 0.000000 0.000000 0.000000
# 3 -0.003508 -0.004770 0.009854 0.000000 0.000000 0.000000
# 4 0.000000 0.000000 0.000000 0.041967 0.000000 0.000000
# 5 0.000000 0.000000 0.000000 0.000000 0.502237 0.000000
# 6 0.000000 0.000000 0.000000 0.000000 0.000000 0.047843
#
#
# Mechanical properties :
#
#
# Convention : Reuss Voigt Hill
#
# Bulk Modulus (GPa) = 42.12755 52.63860 47.38307
# Shear Modulus (GPa) = 7.50713 21.85308 14.68010
#
# Velocity S-wave (km/s) = 1.96166 3.34690 2.74316
# Velocity P-wave (km/s) = 5.16964 6.47441 5.85846
#
# Compressibility (1/GPa) = 0.02373744
#
# Stress axis : x y z
#
# Youngs Moduli (GPa) = 81.48048 43.89992 101.48147
#
# Poissons Ratio (x) = 0.10124 0.35603
# Poissons Ratio (y) = 0.18791 0.48404
# Poissons Ratio (z) = 0.28586 0.20939
#
# Static dielectric constant tensor:
#      x y z
#    x 3.820490 0.000000 0.000000 
#    y 0.000000 2.546950 0.000000 
#    z 0.000000 0.000000 3.649930 
# 
# 
# High freq. dielectric constant tensor:
#      x y z
#    x 1.765910 0.000000 0.000000 
#    y 0.000000 1.750620 0.000000 
#    z 0.000000 0.000000 1.758500 
# 
# From -- ./inp_files/73348.got.cif
#   From: 2010.03.12/outbox.cif.g09.slc.cpg/sg74_37_cif.got.tgz:73348.got - 2010.04.16 15:46:19.
