data_PCOD8300475
_publ_section_title
;
Structure prediction by ZEFSAII (Michael W. Deem and Ramdas Pophale) SiO2 
 PCOD8300475
Probable space group: I M M A
;
_chemical_formula_sum "Si O2"
_cell_formula_units_Z 72
_cell_length_a 21.336968
_cell_length_b 19.394281
_cell_length_c 9.080758
_cell_angle_alpha 90.000000
_cell_angle_beta 90.000000
_cell_angle_gamma 90.000000
_cell_volume 3757.755262
_symmetry_space_group_name_H-M "I M M A"
_symmetry_group_IT_number 74
_symmetry_cell_setting 'orthorhombic'
loop_
_space_group_symop_operation_xyz
x,y,z
-x,1/2-y,z
x,-y,-z
-x,1/2+y,-z
-x,-y,-z
x,1/2+y,-z
-x,y,z
x,1/2-y,z
1/2+x,1/2+y,1/2+z
1/2-x,-y,1/2+z
1/2+x,1/2-y,1/2-z
1/2-x,y,1/2-z
1/2-x,1/2-y,1/2-z
1/2+x,y,1/2-z
1/2-x,1/2+y,1/2+z
1/2+x,-y,1/2+z
loop_
_atom_site_type_symbol
_atom_site_label
_atom_site_fract_x
_atom_site_fract_y
_atom_site_fract_z
Si Si1 0.926906 0.518464 0.301085
Si Si2 0.634804 0.000000 0.500000
Si Si3 0.790847 0.750000 0.964802
Si Si4 0.232688 0.109172 0.917758
Si Si5 0.848288 0.250000 0.342682
Si Si6 0.131485 0.107252 0.474284
O O1 0.913350 0.509958 0.131396
O O2 0.894014 0.452560 0.371640
O O3 0.898837 0.591147 0.364445
O O4 0.000000 0.516716 0.334941
O O5 0.680675 0.935223 0.500574
O O6 0.844686 0.750000 0.836760
O O7 0.722579 0.750000 0.894680
O O8 0.796567 0.685445 0.074671
O O9 0.250000 0.088058 0.750000
O O10 0.293814 0.101123 0.018154
O O11 0.885072 0.317262 0.407084
#
# Coordination Sequence:
#
# PCOD8300475 Si02
#       6
#    16   8   8  16   8  16
#     4  11  23  40  57  80 113 156 200 242 287 338
#     4  12  23  36  58  86 117 152 190 246 292 340
#     4   9  19  34  54  85 128 153 173 219 299 365
#     4  11  21  35  58  91 121 150 187 235 296 356
#     4   9  18  34  57  89 113 150 185 232 284 353
#     4  10  20  37  61  84 115 148 190 236 287 348
#
# _framework density 19.160374999999998
#
# number of rings (size 3 to 8) (size 9 to 14) (size 15 to 20)
#    0.000    1.556    2.222    4.667    0.000    1.778 
#    0.000    2.222    0.000    0.000    0.000    4.667 
#    0.000    0.000    0.000    0.000    0.000    0.000 
#
# Total GULP energy -446093.023537 kJ/mol
# GULP energy per Si atom -12391.472876 kJ/mol
# Density = 1.911676 g / cm^3
# Si number density = 19.160375 Si / 1000 Ang^3
#
#
#
# Elastic Constant Matrix: (Units=GPa)
#
#
# Indices 1 2 3 4 5 6 
#
# 1 70.2024 47.6755 25.8241 0.0000 0.0000 0.0000
# 2 47.6755 124.4508 25.2456 0.0000 0.0000 0.0000
# 3 25.8241 25.2456 92.8752 0.0000 0.0000 0.0000
# 4 0.0000 0.0000 0.0000 46.4016 0.0000 0.0000
# 5 0.0000 0.0000 0.0000 0.0000 8.0963 0.0000
# 6 0.0000 0.0000 0.0000 0.0000 0.0000 3.9767
#
#
#
# Elastic Compliance Matrix: (Units=1/GPa)
#
#
# Indices 1 2 3 4 5 6 
#
# 1 0.020423 -0.007061 -0.003759 0.000000 0.000000 0.000000
# 2 -0.007061 0.010946 -0.001012 0.000000 0.000000 0.000000
# 3 -0.003759 -0.001012 0.012087 0.000000 0.000000 0.000000
# 4 0.000000 0.000000 0.000000 0.021551 0.000000 0.000000
# 5 0.000000 0.000000 0.000000 0.000000 0.123513 0.000000
# 6 0.000000 0.000000 0.000000 0.000000 0.000000 0.251466
#
#
# Mechanical properties :
#
#
# Convention : Reuss Voigt Hill
#
# Bulk Modulus (GPa) = 50.52722 53.89098 52.20910
# Shear Modulus (GPa) = 10.63270 24.28047 17.45658
#
# Velocity S-wave (km/s) = 2.35825 3.56367 3.02168
# Velocity P-wave (km/s) = 5.81748 6.71717 6.28345
#
# Compressibility (1/GPa) = 0.01979131
#
# Stress axis : x y z
#
# Youngs Moduli (GPa) = 48.96525 91.36098 82.73049
#
# Poissons Ratio (x) = 0.64511 0.31100
# Poissons Ratio (y) = 0.34575 0.08372
# Poissons Ratio (z) = 0.18407 0.09245
#
# Static dielectric constant tensor:
#      x y z
#    x 3.332890 0.000000 0.000000 
#    y 0.000000 4.142300 0.000000 
#    z 0.000000 0.000000 3.819380 
# 
# 
# High freq. dielectric constant tensor:
#      x y z
#    x 1.720990 0.000000 0.000000 
#    y 0.000000 1.748460 0.000000 
#    z 0.000000 0.000000 1.751240 
# 
# From -- ./inp_files/12209.got.cif
#   From: 2010.03.12/outbox.cif.g09.slc.cpg/sg74_7_cif.got.tgz:12209.got - 2010.04.16 15:46:19.
