data_PCOD8300085
_publ_section_title
;
Structure prediction by ZEFSAII (Michael W. Deem and Ramdas Pophale) SiO2 
 PCOD8300085
Probable space group: I M M A
;
_chemical_formula_sum "Si O2"
_cell_formula_units_Z 96
_cell_length_a 8.899086
_cell_length_b 30.447011
_cell_length_c 19.014086
_cell_angle_alpha 90.000000
_cell_angle_beta 90.000000
_cell_angle_gamma 90.000000
_cell_volume 5151.877427
_symmetry_space_group_name_H-M "I M M A"
_symmetry_group_IT_number 74
_symmetry_cell_setting 'orthorhombic'
loop_
_space_group_symop_operation_xyz
x,y,z
-x,1/2-y,z
x,-y,-z
-x,1/2+y,-z
-x,-y,-z
x,1/2+y,-z
-x,y,z
x,1/2-y,z
1/2+x,1/2+y,1/2+z
1/2-x,-y,1/2+z
1/2+x,1/2-y,1/2-z
1/2-x,y,1/2-z
1/2-x,1/2-y,1/2-z
1/2+x,y,1/2-z
1/2-x,1/2+y,1/2+z
1/2+x,-y,1/2+z
loop_
_atom_site_type_symbol
_atom_site_label
_atom_site_fract_x
_atom_site_fract_y
_atom_site_fract_z
Si Si1 0.823697 0.624869 0.575272
Si Si2 0.176302 0.124869 0.924727
Si Si3 0.321719 0.545580 0.824064
Si Si4 0.823151 0.200325 0.322994
Si Si5 0.321719 0.454421 0.675937
Si Si6 0.323151 0.799675 0.322994
O O1 0.750002 0.622210 0.499999
O O2 0.777887 0.582000 0.619094
O O3 0.764547 0.668212 0.615773
O O4 0.000000 0.627625 0.564512
O O5 0.222108 0.082000 0.880906
O O6 0.235454 0.168211 0.884227
O O7 0.000000 0.127626 0.935490
O O8 0.500000 0.540480 0.815025
O O9 0.250000 0.559706 0.750000
O O10 0.250001 0.500000 0.850425
O O11 0.776136 0.250000 0.343106
O O12 0.750000 0.185576 0.250000
O O13 0.000000 0.195633 0.313017
O O14 0.500000 0.459522 0.684977
O O15 0.250000 0.440294 0.750000
O O16 0.500000 0.804368 0.313017
O O17 0.276137 0.750000 0.343107
O O18 0.250000 0.814424 0.250000
#
# Coordination Sequence:
#
# PCOD8300085 Si02
#       6
#    16  16  16  16  16  16
#     4  10  22  36  51  75 106 138 170 207 252 302
#     4  10  22  36  51  75 106 138 170 207 252 302
#     4  10  20  35  55  78 102 131 170 212 254 300
#     4   9  18  34  55  78 103 132 169 211 253 299
#     4  10  20  35  55  78 102 131 170 212 254 300
#     4   9  18  34  55  78 103 132 169 211 253 299
#
# _framework density 18.633984000000002
#
# number of rings (size 3 to 8) (size 9 to 14) (size 15 to 20)
#    0.000    2.333    0.000    3.000    0.000    5.333 
#    0.000    3.333    0.000    0.000    0.000    0.000 
#    0.000    0.000    0.000    0.000    0.000    0.000 
#
# Total GULP energy -595267.281684 kJ/mol
# GULP energy per Si atom -12401.401702 kJ/mol
# Density = 1.859157 g / cm^3
# Si number density = 18.633984 Si / 1000 Ang^3
#
#
#
# Elastic Constant Matrix: (Units=GPa)
#
#
# Indices 1 2 3 4 5 6 
#
# 1 51.5817 51.2955 52.9422 0.0000 0.0000 0.0000
# 2 51.2955 155.9023 118.5840 -0.0001 0.0000 0.0000
# 3 52.9422 118.5840 174.5764 -0.0004 -0.0003 0.0002
# 4 0.0000 -0.0001 -0.0004 16.8316 -0.0001 0.0001
# 5 0.0000 0.0000 -0.0003 -0.0001 37.2793 0.0000
# 6 0.0000 0.0000 0.0002 0.0001 0.0000 24.7902
#
#
#
# Elastic Compliance Matrix: (Units=1/GPa)
#
#
# Indices 1 2 3 4 5 6 
#
# 1 0.030858 -0.006279 -0.005093 0.000000 0.000000 0.000000
# 2 -0.006279 0.014549 -0.007978 0.000000 0.000000 0.000000
# 3 -0.005093 -0.007978 0.012692 0.000000 0.000000 0.000000
# 4 0.000000 0.000000 0.000000 0.059412 0.000000 0.000000
# 5 0.000000 0.000000 0.000000 0.000000 0.026825 0.000000
# 6 0.000000 0.000000 0.000000 0.000000 0.000000 0.040339
#
#
# Mechanical properties :
#
#
# Convention : Reuss Voigt Hill
#
# Bulk Modulus (GPa) = 51.55083 91.96711 71.75897
# Shear Modulus (GPa) = 21.75415 26.39612 24.07514
#
# Velocity S-wave (km/s) = 3.42050 3.76780 3.59834
# Velocity P-wave (km/s) = 6.58215 8.26983 7.47378
#
# Compressibility (1/GPa) = 0.01939833
#
# Stress axis : x y z
#
# Youngs Moduli (GPa) = 32.40610 68.73387 78.79012
#
# Poissons Ratio (x) = 0.43161 0.40126
# Poissons Ratio (y) = 0.20349 0.62861
# Poissons Ratio (z) = 0.16504 0.54838
#
# Static dielectric constant tensor:
#      x y z
#    x 3.379160 0.000000 0.000000 
#    y 0.000000 3.749830 0.000000 
#    z 0.000000 0.000000 3.502520 
# 
# 
# High freq. dielectric constant tensor:
#      x y z
#    x 1.720600 0.000000 0.000000 
#    y 0.000000 1.740180 0.000000 
#    z 0.000000 0.000000 1.718570 
# 
# From -- ./inp_files/49153.got.cif
#   From: 2010.03.12/outbox.cif.g09.slc.cpg/sg74_25_cif.got.tgz:49153.got - 2010.04.16 15:46:19.
