data_PCOD8300301
_publ_section_title
;
Structure prediction by ZEFSAII (Michael W. Deem and Ramdas Pophale) SiO2 
 PCOD8300301
Probable space group: I M M A
;
_chemical_formula_sum "Si O2"
_cell_formula_units_Z 96
_cell_length_a 18.427214
_cell_length_b 9.267654
_cell_length_c 29.471739
_cell_angle_alpha 90.000000
_cell_angle_beta 90.000000
_cell_angle_gamma 90.000000
_cell_volume 5033.096454
_symmetry_space_group_name_H-M "I M M A"
_symmetry_group_IT_number 74
_symmetry_cell_setting 'orthorhombic'
loop_
_space_group_symop_operation_xyz
x,y,z
-x,1/2-y,z
x,-y,-z
-x,1/2+y,-z
-x,-y,-z
x,1/2+y,-z
-x,y,z
x,1/2-y,z
1/2+x,1/2+y,1/2+z
1/2-x,-y,1/2+z
1/2+x,1/2-y,1/2-z
1/2-x,y,1/2-z
1/2-x,1/2-y,1/2-z
1/2+x,y,1/2-z
1/2-x,1/2+y,1/2+z
1/2+x,-y,1/2+z
loop_
_atom_site_type_symbol
_atom_site_label
_atom_site_fract_x
_atom_site_fract_y
_atom_site_fract_z
Si Si1 0.184361 0.086005 0.219189
Si Si2 0.083721 0.918730 0.045476
Si Si3 0.850792 0.416575 0.622406
Si Si4 0.815544 0.083984 0.872862
Si Si5 0.414651 0.910718 0.958186
Si Si6 0.917176 0.414175 0.299014
O O1 0.204215 0.250000 0.205786
O O2 0.250000 0.022323 0.250000
O O3 0.109751 0.077071 0.247288
O O4 0.170891 0.999072 0.173557
O O5 0.096817 0.750000 0.037278
O O6 0.131827 0.975642 0.087608
O O7 0.000000 0.953224 0.056730
O O8 0.108822 0.000000 0.000000
O O9 0.874263 0.250000 0.620792
O O10 0.766655 0.436403 0.610295
O O11 0.899235 0.505960 0.587838
O O12 0.866601 0.480168 0.671937
O O13 0.833265 0.250000 0.862841
O O14 0.500000 0.897577 0.964431
O O15 0.380229 0.750000 0.957290
O O16 0.380241 0.000000 0.000000
O O17 0.909899 0.250000 0.317260
O O18 0.000000 0.466972 0.301082
#
# Coordination Sequence:
#
# PCOD8300301 Si02
#       6
#    16  16  16  16  16  16
#     4  10  20  36  57  80 108 145 188 230 279 335
#     4   9  19  38  61  84 113 148 186 231 283 338
#     4  11  22  35  53  79 111 144 181 224 271 328
#     4  10  22  37  56  84 115 147 184 226 278 335
#     4  10  21  37  56  77 104 140 181 225 272 321
#     4  10  21  37  56  79 108 143 185 231 277 328
#
# _framework density 19.073747000000001
#
# number of rings (size 3 to 8) (size 9 to 14) (size 15 to 20)
#    0.000    2.000    1.667    1.500    0.000    7.000 
#    0.000    1.667    0.000    0.000    0.000    0.000 
#    0.000    0.000    0.000    0.000    0.000    0.000 
#
# Total GULP energy -595328.356000 kJ/mol
# GULP energy per Si atom -12402.674083 kJ/mol
# Density = 1.903033 g / cm^3
# Si number density = 19.073747 Si / 1000 Ang^3
#
#
#
# Elastic Constant Matrix: (Units=GPa)
#
#
# Indices 1 2 3 4 5 6 
#
# 1 80.4859 33.8236 46.0554 0.0000 0.0000 0.0000
# 2 33.8236 102.9520 63.2000 0.0000 0.0000 0.0000
# 3 46.0554 63.2000 137.2825 0.0000 0.0000 0.0000
# 4 0.0000 0.0000 0.0000 40.0135 0.0000 0.0000
# 5 0.0000 0.0000 0.0000 0.0000 36.0841 0.0000
# 6 0.0000 0.0000 0.0000 0.0000 0.0000 21.2685
#
#
#
# Elastic Compliance Matrix: (Units=1/GPa)
#
#
# Indices 1 2 3 4 5 6 
#
# 1 0.015904 -0.002718 -0.004084 0.000000 0.000000 0.000000
# 2 -0.002718 0.014004 -0.005535 0.000000 0.000000 0.000000
# 3 -0.004084 -0.005535 0.011203 0.000000 0.000000 0.000000
# 4 0.000000 0.000000 0.000000 0.024992 0.000000 0.000000
# 5 0.000000 0.000000 0.000000 0.000000 0.027713 0.000000
# 6 0.000000 0.000000 0.000000 0.000000 0.000000 0.047018
#
#
# Mechanical properties :
#
#
# Convention : Reuss Voigt Hill
#
# Bulk Modulus (GPa) = 60.84186 67.43092 64.13639
# Shear Modulus (GPa) = 29.24217 31.31600 30.27908
#
# Velocity S-wave (km/s) = 3.91974 4.05636 3.98863
# Velocity P-wave (km/s) = 7.24247 7.57418 7.41018
#
# Compressibility (1/GPa) = 0.01643605
#
# Stress axis : x y z
#
# Youngs Moduli (GPa) = 62.87850 71.40752 89.26461
#
# Poissons Ratio (x) = 0.19407 0.36457
# Poissons Ratio (y) = 0.17089 0.49410
# Poissons Ratio (z) = 0.25681 0.39526
#
# Static dielectric constant tensor:
#      x y z
#    x 3.470970 0.000000 0.000000 
#    y 0.000000 3.607140 0.000000 
#    z 0.000000 0.000000 3.424560 
# 
# 
# High freq. dielectric constant tensor:
#      x y z
#    x 1.736020 0.000000 0.000000 
#    y 0.000000 1.741460 0.000000 
#    z 0.000000 0.000000 1.743170 
# 
# From -- ./inp_files/64348.got.cif
#   From: 2010.03.12/outbox.cif.g09.slc.cpg/sg74_33_cif.got.tgz:64348.got - 2010.04.16 15:46:19.
