data_PCOD8300282
_publ_section_title
;
Structure prediction by ZEFSAII (Michael W. Deem and Ramdas Pophale) SiO2 
 PCOD8300282
Probable space group: I M M A
;
_chemical_formula_sum "Si O2"
_cell_formula_units_Z 104
_cell_length_a 8.945743
_cell_length_b 25.921949
_cell_length_c 23.932500
_cell_angle_alpha 90.000000
_cell_angle_beta 90.000000
_cell_angle_gamma 90.000000
_cell_volume 5549.733603
_symmetry_space_group_name_H-M "I M M A"
_symmetry_group_IT_number 74
_symmetry_cell_setting 'orthorhombic'
loop_
_space_group_symop_operation_xyz
x,y,z
-x,1/2-y,z
x,-y,-z
-x,1/2+y,-z
-x,-y,-z
x,1/2+y,-z
-x,y,z
x,1/2-y,z
1/2+x,1/2+y,1/2+z
1/2-x,-y,1/2+z
1/2+x,1/2-y,1/2-z
1/2-x,y,1/2-z
1/2-x,1/2-y,1/2-z
1/2+x,y,1/2-z
1/2-x,1/2+y,1/2+z
1/2+x,-y,1/2+z
loop_
_atom_site_type_symbol
_atom_site_label
_atom_site_fract_x
_atom_site_fract_y
_atom_site_fract_z
Si Si1 0.176241 0.690770 0.102390
Si Si2 0.823300 0.380858 0.516757
Si Si3 0.675122 0.917334 0.592086
Si Si4 0.323999 0.361334 0.189502
Si Si5 0.671806 0.462926 0.591158
Si Si6 0.828353 0.892045 0.191113
Si Si7 0.170389 0.250000 0.307793
O O1 0.221088 0.750000 0.112358
O O2 0.259167 0.669741 0.047456
O O3 0.229413 0.657821 0.156297
O O4 0.000000 0.683651 0.092853
O O5 0.755497 0.383394 0.454939
O O6 0.778785 0.432654 0.549287
O O7 0.000000 0.376207 0.512582
O O8 0.500000 0.905597 0.591162
O O9 0.743786 0.903262 0.651588
O O10 0.709188 0.977511 0.583906
O O11 0.500000 0.373300 0.193824
O O12 0.250000 0.364938 0.250000
O O13 0.293208 0.304264 0.161318
O O14 0.500000 0.450853 0.574498
O O15 0.700738 0.443642 0.654572
O O16 0.750000 0.897555 0.250000
O O17 0.000000 0.884466 0.205170
O O18 0.250000 0.250000 0.250000
O O19 0.000000 0.250000 0.290541
#
# Coordination Sequence:
#
# PCOD8300282 Si02
#       7
#    16  16  16  16  16  16   8
#     4   9  19  38  60  79 107 149 191 230 275 328
#     4  11  22  36  56  83 111 140 178 228 282 334
#     4  11  22  37  57  81 108 144 187 228 273 328
#     4  10  20  36  56  80 109 141 178 223 273 325
#     4   9  20  38  57  76 106 147 186 226 272 324
#     4   9  18  33  53  80 111 144 183 225 270 323
#     4   8  16  32  54  74  98 134 170 208 255 306
#
# _framework density 18.739637999999999
#
# number of rings (size 3 to 8) (size 9 to 14) (size 15 to 20)
#    0.000    2.308    0.000    3.692    0.000    7.385 
#    1.385    1.538    0.000    0.000    0.000    0.000 
#    0.000    0.000    0.000    0.000    0.000    0.000 
#
# Total GULP energy -644637.527133 kJ/mol
# GULP energy per Si atom -12396.875522 kJ/mol
# Density = 1.869699 g / cm^3
# Si number density = 18.739638 Si / 1000 Ang^3
#
#
#
# Elastic Constant Matrix: (Units=GPa)
#
#
# Indices 1 2 3 4 5 6 
#
# 1 83.1062 25.9462 36.4068 0.0000 0.0000 0.0000
# 2 25.9462 35.1581 13.3868 0.0000 0.0000 0.0000
# 3 36.4068 13.3868 96.1177 0.0000 0.0000 0.0000
# 4 0.0000 0.0000 0.0000 14.8056 0.0000 0.0000
# 5 0.0000 0.0000 0.0000 0.0000 35.5727 0.0000
# 6 0.0000 0.0000 0.0000 0.0000 0.0000 22.7766
#
#
#
# Elastic Compliance Matrix: (Units=1/GPa)
#
#
# Indices 1 2 3 4 5 6 
#
# 1 0.017785 -0.011152 -0.005183 0.000000 0.000000 0.000000
# 2 -0.011152 0.037028 -0.000933 0.000000 0.000000 0.000000
# 3 -0.005183 -0.000933 0.012497 0.000000 0.000000 0.000000
# 4 0.000000 0.000000 0.000000 0.067542 0.000000 0.000000
# 5 0.000000 0.000000 0.000000 0.000000 0.028111 0.000000
# 6 0.000000 0.000000 0.000000 0.000000 0.000000 0.043905
#
#
# Mechanical properties :
#
#
# Convention : Reuss Voigt Hill
#
# Bulk Modulus (GPa) = 30.51192 40.65128 35.58160
# Shear Modulus (GPa) = 19.81541 23.87381 21.84461
#
# Velocity S-wave (km/s) = 3.25531 3.57315 3.41792
# Velocity P-wave (km/s) = 5.51786 6.22599 5.88259
#
# Compressibility (1/GPa) = 0.03277407
#
# Stress axis : x y z
#
# Youngs Moduli (GPa) = 56.22692 27.00665 80.01794
#
# Poissons Ratio (x) = 0.30117 0.41476
# Poissons Ratio (y) = 0.62702 0.07467
# Poissons Ratio (z) = 0.29145 0.02520
#
# Static dielectric constant tensor:
#      x y z
#    x 3.381630 0.000000 0.000000 
#    y 0.000000 3.781060 0.000000 
#    z 0.000000 0.000000 3.352040 
# 
# 
# High freq. dielectric constant tensor:
#      x y z
#    x 1.728550 0.000000 0.000000 
#    y 0.000000 1.731800 0.000000 
#    z 0.000000 0.000000 1.719780 
# 
# From -- ./inp_files/49302.got.cif
#   From: 2010.03.12/outbox.cif.g09.slc.cpg/sg74_25_cif.got.tgz:49302.got - 2010.04.16 15:46:19.
