data_PCOD8300734
_publ_section_title
;
Structure prediction by ZEFSAII (Michael W. Deem and Ramdas Pophale) SiO2 
 PCOD8300734
Probable space group: I M M A
;
_chemical_formula_sum "Si O2"
_cell_formula_units_Z 96
_cell_length_a 18.090055
_cell_length_b 10.969687
_cell_length_c 25.034876
_cell_angle_alpha 90.000000
_cell_angle_beta 90.000000
_cell_angle_gamma 90.000000
_cell_volume 4967.976901
_symmetry_space_group_name_H-M "I M M A"
_symmetry_group_IT_number 74
_symmetry_cell_setting 'orthorhombic'
loop_
_space_group_symop_operation_xyz
x,y,z
-x,1/2-y,z
x,-y,-z
-x,1/2+y,-z
-x,-y,-z
x,1/2+y,-z
-x,y,z
x,1/2-y,z
1/2+x,1/2+y,1/2+z
1/2-x,-y,1/2+z
1/2+x,1/2-y,1/2-z
1/2-x,y,1/2-z
1/2-x,1/2-y,1/2-z
1/2+x,y,1/2-z
1/2-x,1/2+y,1/2+z
1/2+x,-y,1/2+z
loop_
_atom_site_type_symbol
_atom_site_label
_atom_site_fract_x
_atom_site_fract_y
_atom_site_fract_z
Si Si1 0.087529 0.005583 0.939592
Si Si2 0.086624 0.512209 0.743279
Si Si3 0.662190 0.889845 0.653738
Si Si4 0.174332 0.109280 0.354097
Si Si5 0.912210 0.250000 0.883912
Si Si6 0.413811 0.750000 0.266082
Si Si7 0.413732 0.607333 0.957932
O O1 0.115978 0.132378 0.915429
O O2 0.000000 0.988553 0.937496
O O3 0.124528 0.899290 0.904475
O O4 0.116798 0.000000 0.000000
O O5 0.112211 0.540876 0.803165
O O6 0.128604 0.591081 0.699845
O O7 0.106591 0.370138 0.732315
O O8 0.000000 0.539671 0.738747
O O9 0.665877 0.750000 0.671433
O O10 0.744247 0.950029 0.651651
O O11 0.187491 0.250000 0.363288
O O12 0.129850 0.061746 0.405440
O O13 0.876236 0.250000 0.824787
O O14 0.000000 0.250000 0.882623
O O15 0.500000 0.750000 0.278541
O O16 0.500000 0.602429 0.944217
O O17 0.394010 0.750000 0.974953
O O18 0.393631 0.500000 0.000000
#
# Coordination Sequence:
#
# PCOD8300734 Si02
#       7
#    16  16  16  16   8   8  16
#     4  10  21  35  56  82 108 144 190 234 272 321
#     4  11  21  37  60  83 108 142 187 231 274 329
#     4  11  23  37  54  80 114 148 183 229 278 327
#     4  10  22  39  57  80 115 150 180 222 280 337
#     4   9  16  34  55  75 109 145 177 224 284 324
#     4   9  18  34  56  80 110 144 176 222 282 328
#     4   9  18  36  63  89 113 146 188 233 282 335
#
# _framework density 19.323761000000001
#
# number of rings (size 3 to 8) (size 9 to 14) (size 15 to 20)
#    0.000    2.000    1.667    2.000    1.167    5.000 
#    1.500    2.500    0.000    0.000    0.000    0.000 
#    0.000    0.000    0.000    0.000    0.000    0.000 
#
# Total GULP energy -594984.064157 kJ/mol
# GULP energy per Si atom -12395.501337 kJ/mol
# Density = 1.927978 g / cm^3
# Si number density = 19.323761 Si / 1000 Ang^3
#
#
#
# Elastic Constant Matrix: (Units=GPa)
#
#
# Indices 1 2 3 4 5 6 
#
# 1 80.2581 14.4778 37.1690 0.0000 0.0000 0.0000
# 2 14.4778 54.1353 6.5330 0.0000 0.0000 0.0000
# 3 37.1690 6.5330 98.3054 0.0000 0.0000 0.0000
# 4 0.0000 0.0000 0.0000 29.7431 0.0000 0.0000
# 5 0.0000 0.0000 0.0000 0.0000 22.7297 0.0000
# 6 0.0000 0.0000 0.0000 0.0000 0.0000 16.3121
#
#
#
# Elastic Compliance Matrix: (Units=1/GPa)
#
#
# Indices 1 2 3 4 5 6 
#
# 1 0.015743 -0.003520 -0.005719 0.000000 0.000000 0.000000
# 2 -0.003520 0.019409 0.000041 0.000000 0.000000 0.000000
# 3 -0.005719 0.000041 0.012332 0.000000 0.000000 0.000000
# 4 0.000000 0.000000 0.000000 0.033621 0.000000 0.000000
# 5 0.000000 0.000000 0.000000 0.000000 0.043995 0.000000
# 6 0.000000 0.000000 0.000000 0.000000 0.000000 0.061304
#
#
# Mechanical properties :
#
#
# Convention : Reuss Voigt Hill
#
# Bulk Modulus (GPa) = 34.37781 38.78428 36.58104
# Shear Modulus (GPa) = 23.31049 25.39158 24.35104
#
# Velocity S-wave (km/s) = 3.47697 3.62886 3.55373
# Velocity P-wave (km/s) = 5.82650 6.13779 5.98417
#
# Compressibility (1/GPa) = 0.02908853
#
# Stress axis : x y z
#
# Youngs Moduli (GPa) = 63.51961 51.52330 81.09117
#
# Poissons Ratio (x) = 0.18137 0.46372
# Poissons Ratio (y) = 0.22360 -0.00334
# Poissons Ratio (z) = 0.36324 -0.00212
#
# Static dielectric constant tensor:
#      x y z
#    x 3.505030 0.000000 0.000000 
#    y 0.000000 3.715370 0.000000 
#    z 0.000000 0.000000 3.465000 
# 
# 
# High freq. dielectric constant tensor:
#      x y z
#    x 1.738960 0.000000 0.000000 
#    y 0.000000 1.751720 0.000000 
#    z 0.000000 0.000000 1.750520 
# 
# From -- ./inp_files/60855.got.cif
#   From: 2010.03.12/outbox.cif.g09.slc.cpg/sg74_31_cif.got.tgz:60855.got - 2010.04.16 15:46:19.
