data_PCOD8300880
_publ_section_title
;
Structure prediction by ZEFSAII (Michael W. Deem and Ramdas Pophale) SiO2 
 PCOD8300880
Probable space group: I M M A
;
_chemical_formula_sum "Si O2"
_cell_formula_units_Z 96
_cell_length_a 28.242176
_cell_length_b 8.993602
_cell_length_c 20.012000
_cell_angle_alpha 90.000000
_cell_angle_beta 90.000000
_cell_angle_gamma 90.000000
_cell_volume 5083.025798
_symmetry_space_group_name_H-M "I M M A"
_symmetry_group_IT_number 74
_symmetry_cell_setting 'orthorhombic'
loop_
_space_group_symop_operation_xyz
x,y,z
-x,1/2-y,z
x,-y,-z
-x,1/2+y,-z
-x,-y,-z
x,1/2+y,-z
-x,y,z
x,1/2-y,z
1/2+x,1/2+y,1/2+z
1/2-x,-y,1/2+z
1/2+x,1/2-y,1/2-z
1/2-x,y,1/2-z
1/2-x,1/2-y,1/2-z
1/2+x,y,1/2-z
1/2-x,1/2+y,1/2+z
1/2+x,-y,1/2+z
loop_
_atom_site_type_symbol
_atom_site_label
_atom_site_fract_x
_atom_site_fract_y
_atom_site_fract_z
Si Si1 0.554412 0.587300 0.938309
Si Si2 0.688861 0.925910 0.810091
Si Si3 0.123628 0.072710 0.071917
Si Si4 0.208773 0.574857 0.838469
Si Si5 0.555536 0.076210 0.674146
Si Si6 0.906466 0.924993 0.318416
O O1 0.500000 0.610451 0.956121
O O2 0.578671 0.750000 0.930618
O O3 0.556900 0.495171 0.869991
O O4 0.579231 0.500000 0.000000
O O5 0.679696 0.750000 0.812781
O O6 0.736335 0.969134 0.852083
O O7 0.694082 0.984896 0.734234
O O8 0.644834 0.013819 0.840390
O O9 0.122327 0.250000 0.065515
O O10 0.172837 0.013860 0.105270
O O11 0.079283 0.019874 0.115881
O O12 0.119348 0.000000 0.000000
O O13 0.204471 0.750000 0.835732
O O14 0.500000 0.039939 0.675356
O O15 0.564709 0.250000 0.660737
O O16 0.578583 0.025473 0.744141
O O17 0.908010 0.750000 0.325892
#
# Coordination Sequence:
#
# PCOD8300880 Si02
#       6
#    16  16  16  16  16  16
#     4  10  21  37  57  80 108 146 189 229 274 332
#     4   9  16  32  57  82 108 141 182 226 272 327
#     4  11  22  38  59  83 111 147 189 235 289 346
#     4   8  16  32  56  81 106 140 182 226 275 327
#     4  10  22  39  57  80 112 149 191 239 286 333
#     4  11  21  34  55  86 119 150 183 229 284 333
#
# _framework density 18.886388
#
# number of rings (size 3 to 8) (size 9 to 14) (size 15 to 20)
#    0.000    2.167    1.667    3.000    0.000    3.000 
#    0.000    4.167    0.000    2.000    0.000    0.000 
#    0.000    0.000    0.000    0.000    0.000    0.000 
#
# Total GULP energy -595062.511710 kJ/mol
# GULP energy per Si atom -12397.135661 kJ/mol
# Density = 1.884340 g / cm^3
# Si number density = 18.886388 Si / 1000 Ang^3
#
#
#
# Elastic Constant Matrix: (Units=GPa)
#
#
# Indices 1 2 3 4 5 6 
#
# 1 104.6439 39.5942 40.8315 0.0000 0.0000 0.0000
# 2 39.5942 83.4019 52.5544 0.0000 0.0000 0.0000
# 3 40.8315 52.5544 108.9647 0.0000 0.0000 0.0000
# 4 0.0000 0.0000 0.0000 27.1021 0.0000 0.0000
# 5 0.0000 0.0000 0.0000 0.0000 27.3307 0.0000
# 6 0.0000 0.0000 0.0000 0.0000 0.0000 26.6402
#
#
#
# Elastic Compliance Matrix: (Units=1/GPa)
#
#
# Indices 1 2 3 4 5 6 
#
# 1 0.012118 -0.004154 -0.002537 0.000000 0.000000 0.000000
# 2 -0.004154 0.018649 -0.007438 0.000000 0.000000 0.000000
# 3 -0.002537 -0.007438 0.013715 0.000000 0.000000 0.000000
# 4 0.000000 0.000000 0.000000 0.036898 0.000000 0.000000
# 5 0.000000 0.000000 0.000000 0.000000 0.036589 0.000000
# 6 0.000000 0.000000 0.000000 0.000000 0.000000 0.037537
#
#
# Mechanical properties :
#
#
# Convention : Reuss Voigt Hill
#
# Bulk Modulus (GPa) = 61.63759 62.55231 62.09495
# Shear Modulus (GPa) = 26.43081 27.14996 26.79039
#
# Velocity S-wave (km/s) = 3.74500 3.79561 3.77039
# Velocity P-wave (km/s) = 7.16986 7.23886 7.20444
#
# Compressibility (1/GPa) = 0.01622387
#
# Stress axis : x y z
#
# Youngs Moduli (GPa) = 82.52152 53.62175 72.91022
#
# Poissons Ratio (x) = 0.22275 0.18500
# Poissons Ratio (y) = 0.34280 0.54231
# Poissons Ratio (z) = 0.20939 0.39884
#
# Static dielectric constant tensor:
#      x y z
#    x 3.576230 0.000000 0.000000 
#    y 0.000000 3.396890 0.000000 
#    z 0.000000 0.000000 3.428090 
# 
# 
# High freq. dielectric constant tensor:
#      x y z
#    x 1.735450 0.000000 0.000000 
#    y 0.000000 1.723980 0.000000 
#    z 0.000000 0.000000 1.721440 
# 
# From -- ./inp_files/55087.got.cif
#   From: 2010.03.12/outbox.cif.g09.slc.cpg/sg74_28_cif.got.tgz:55087.got - 2010.04.16 15:46:19.
