data_PCOD8300704
_publ_section_title
;
Structure prediction by ZEFSAII (Michael W. Deem and Ramdas Pophale) SiO2 
 PCOD8300704
Probable space group: I M M A
;
_chemical_formula_sum "Si O2"
_cell_formula_units_Z 80
_cell_length_a 25.103045
_cell_length_b 9.286785
_cell_length_c 18.265930
_cell_angle_alpha 90.000000
_cell_angle_beta 90.000000
_cell_angle_gamma 90.000000
_cell_volume 4258.273824
_symmetry_space_group_name_H-M "I M M A"
_symmetry_group_IT_number 74
_symmetry_cell_setting 'orthorhombic'
loop_
_space_group_symop_operation_xyz
x,y,z
-x,1/2-y,z
x,-y,-z
-x,1/2+y,-z
-x,-y,-z
x,1/2+y,-z
-x,y,z
x,1/2-y,z
1/2+x,1/2+y,1/2+z
1/2-x,-y,1/2+z
1/2+x,1/2-y,1/2-z
1/2-x,y,1/2-z
1/2-x,1/2-y,1/2-z
1/2+x,y,1/2-z
1/2-x,1/2+y,1/2+z
1/2+x,-y,1/2+z
loop_
_atom_site_type_symbol
_atom_site_label
_atom_site_fract_x
_atom_site_fract_y
_atom_site_fract_z
Si Si1 0.657932 0.418635 0.924542
Si Si2 0.756486 0.584474 0.665025
Si Si3 0.848953 0.917009 0.925055
Si Si4 0.560047 0.084070 0.827587
Si Si5 0.560691 0.581546 0.682953
O O1 0.668450 0.250000 0.936708
O O2 0.698916 0.478064 0.865157
O O3 0.598239 0.449378 0.895960
O O4 0.667013 0.500000 0.000000
O O5 0.773747 0.750000 0.651970
O O6 0.750000 0.550674 0.750000
O O7 0.701073 0.549603 0.625977
O O8 0.853493 0.750000 0.944246
O O9 0.901986 0.971202 0.883244
O O10 0.842254 0.000000 0.000000
O O11 0.500000 0.041327 0.851135
O O12 0.563701 0.250000 0.804630
O O13 0.578876 0.994145 0.757542
O O14 0.500000 0.541402 0.662516
O O15 0.568358 0.750000 0.696690
#
# Coordination Sequence:
#
# PCOD8300704 Si02
#       5
#    16  16  16  16  16
#     4  11  23  37  55  80 110 142 177 219 265 315
#     4  10  21  38  59  80 105 139 178 220 266 318
#     4  10  21  35  52  77 108 140 174 214 261 312
#     4   9  19  36  56  79 107 138 174 217 264 313
#     4   9  18  34  56  80 105 136 177 220 259 306
#
# _framework density 18.786954999999999
#
# number of rings (size 3 to 8) (size 9 to 14) (size 15 to 20)
#    0.000    2.200    0.000    2.400    0.000    7.600 
#    0.000    0.000    0.000    0.000    0.000    0.000 
#    0.000    0.000    0.000    0.000    0.000    0.000 
#
# Total GULP energy -496143.434285 kJ/mol
# GULP energy per Si atom -12403.585857 kJ/mol
# Density = 1.874420 g / cm^3
# Si number density = 18.786955 Si / 1000 Ang^3
#
#
#
# Elastic Constant Matrix: (Units=GPa)
#
#
# Indices 1 2 3 4 5 6 
#
# 1 102.4660 52.2766 62.0976 0.0000 0.0000 0.0000
# 2 52.2766 73.8630 60.2104 0.0000 0.0000 0.0000
# 3 62.0976 60.2104 131.9729 0.0000 0.0000 0.0000
# 4 0.0000 0.0000 0.0000 35.7621 0.0000 0.0000
# 5 0.0000 0.0000 0.0000 0.0000 24.1013 0.0000
# 6 0.0000 0.0000 0.0000 0.0000 0.0000 27.8933
#
#
#
# Elastic Compliance Matrix: (Units=1/GPa)
#
#
# Indices 1 2 3 4 5 6 
#
# 1 0.016424 -0.008477 -0.003860 0.000000 0.000000 0.000000
# 2 -0.008477 0.025930 -0.007842 0.000000 0.000000 0.000000
# 3 -0.003860 -0.007842 0.012971 0.000000 0.000000 0.000000
# 4 0.000000 0.000000 0.000000 0.027963 0.000000 0.000000
# 5 0.000000 0.000000 0.000000 0.000000 0.041491 0.000000
# 6 0.000000 0.000000 0.000000 0.000000 0.000000 0.035851
#
#
# Mechanical properties :
#
#
# Convention : Reuss Voigt Hill
#
# Bulk Modulus (GPa) = 66.81178 73.05232 69.93205
# Shear Modulus (GPa) = 24.27448 26.46582 25.37015
#
# Velocity S-wave (km/s) = 3.59847 3.75738 3.67878
# Velocity P-wave (km/s) = 7.27361 7.60216 7.43970
#
# Compressibility (1/GPa) = 0.01496742
#
# Stress axis : x y z
#
# Youngs Moduli (GPa) = 60.88753 38.56481 77.09311
#
# Poissons Ratio (x) = 0.32692 0.29761
# Poissons Ratio (y) = 0.51615 0.60453
# Poissons Ratio (z) = 0.23505 0.30241
#
# Static dielectric constant tensor:
#      x y z
#    x 3.699940 0.000000 0.000000 
#    y 0.000000 3.434750 0.000000 
#    z 0.000000 0.000000 3.373360 
# 
# 
# High freq. dielectric constant tensor:
#      x y z
#    x 1.743660 0.000000 0.000000 
#    y 0.000000 1.726750 0.000000 
#    z 0.000000 0.000000 1.729540 
# 
# From -- ./inp_files/39698.got.cif
#   From: 2010.03.12/outbox.cif.g09.slc.cpg/sg74_20_cif.got.tgz:39698.got - 2010.04.16 15:46:19.
