data_PCOD8300402
_publ_section_title
;
Structure prediction by ZEFSAII (Michael W. Deem and Ramdas Pophale) SiO2 
 PCOD8300402
Probable space group: I M M A
;
_chemical_formula_sum "Si O2"
_cell_formula_units_Z 96
_cell_length_a 20.986197
_cell_length_b 17.061636
_cell_length_c 13.173898
_cell_angle_alpha 90.000000
_cell_angle_beta 90.000000
_cell_angle_gamma 90.000000
_cell_volume 4717.030824
_symmetry_space_group_name_H-M "I M M A"
_symmetry_group_IT_number 74
_symmetry_cell_setting 'orthorhombic'
loop_
_space_group_symop_operation_xyz
x,y,z
-x,1/2-y,z
x,-y,-z
-x,1/2+y,-z
-x,-y,-z
x,1/2+y,-z
-x,y,z
x,1/2-y,z
1/2+x,1/2+y,1/2+z
1/2-x,-y,1/2+z
1/2+x,1/2-y,1/2-z
1/2-x,y,1/2-z
1/2-x,1/2-y,1/2-z
1/2+x,y,1/2-z
1/2-x,1/2+y,1/2+z
1/2+x,-y,1/2+z
loop_
_atom_site_type_symbol
_atom_site_label
_atom_site_fract_x
_atom_site_fract_y
_atom_site_fract_z
Si Si1 0.072319 0.839324 0.250413
Si Si2 0.818848 0.395418 0.299641
Si Si3 0.930047 0.341835 0.154218
Si Si4 0.366794 0.342497 0.544336
Si Si5 0.870667 0.955287 0.398232
Si Si6 0.777010 0.161304 0.509864
O O1 0.092553 0.750000 0.282004
O O2 0.114438 0.873002 0.156577
O O3 0.076723 0.899708 0.345322
O O4 0.000000 0.838443 0.212767
O O5 0.750000 0.399722 0.250000
O O6 0.873659 0.355993 0.233325
O O7 0.844110 0.481947 0.320134
O O8 0.809403 0.343455 0.399795
O O9 0.936300 0.250000 0.141832
O O10 0.000000 0.375737 0.188032
O O11 0.911987 0.378153 0.043941
O O12 0.374607 0.250000 0.547125
O O13 0.295834 0.366843 0.511852
O O14 0.811796 0.898213 0.416734
O O15 0.896614 0.000000 0.500000
O O16 0.783464 0.250000 0.550330
#
# Coordination Sequence:
#
# PCOD8300402 Si02
#       6
#    16  16  16  16  16  16
#     4  10  21  39  63  88 116 157 205 251 303 363
#     4  11  22  37  59  87 125 163 199 240 296 363
#     4  10  20  36  60  91 125 160 200 247 299 358
#     4   9  18  33  58  90 121 150 190 248 303 355
#     4  10  24  40  57  84 117 155 197 253 308 356
#     4  10  20  37  62  89 114 152 205 254 300 348
#
# _framework density 20.351786000000001
#
# number of rings (size 3 to 8) (size 9 to 14) (size 15 to 20)
#    0.000    2.000    1.667    1.500    2.333    3.667 
#    0.000    5.833    0.000   11.000    0.000    0.000 
#    0.000    0.000    0.000    0.000    0.000    0.000 
#
# Total GULP energy -594840.185826 kJ/mol
# GULP energy per Si atom -12392.503871 kJ/mol
# Density = 2.030546 g / cm^3
# Si number density = 20.351786 Si / 1000 Ang^3
#
#
#
# Elastic Constant Matrix: (Units=GPa)
#
#
# Indices 1 2 3 4 5 6 
#
# 1 106.9356 27.4795 67.1870 0.0000 0.0000 0.0000
# 2 27.4795 64.3748 26.5551 0.0000 0.0000 0.0000
# 3 67.1870 26.5551 83.2766 0.0000 0.0000 0.0000
# 4 0.0000 0.0000 0.0000 -2.2383 0.0000 0.0000
# 5 0.0000 0.0000 0.0000 0.0000 25.3347 0.0000
# 6 0.0000 0.0000 0.0000 0.0000 0.0000 7.4867
#
#
#
# Elastic Compliance Matrix: (Units=1/GPa)
#
#
# Indices 1 2 3 4 5 6 
#
# 1 0.019204 -0.002080 -0.014830 0.000000 0.000000 0.000000
# 2 -0.002080 0.018112 -0.004098 0.000000 0.000000 0.000000
# 3 -0.014830 -0.004098 0.025280 0.000000 0.000000 0.000000
# 4 0.000000 0.000000 0.000000 -0.446777 0.000000 0.000000
# 5 0.000000 0.000000 0.000000 0.000000 0.039472 0.000000
# 6 0.000000 0.000000 0.000000 0.000000 0.000000 0.133569
#
#
# Mechanical properties :
#
#
# Convention : Reuss Voigt Hill
#
# Bulk Modulus (GPa) = 48.59012 55.22557 51.90784
# Shear Modulus (GPa) = -30.81364 15.00766 -7.90299
#
# Velocity S-wave (km/s) = -3.89530 2.71848 -1.97272
# Velocity P-wave (km/s) = 1.92244 6.08670 4.51352
#
# Compressibility (1/GPa) = 0.02058032
#
# Stress axis : x y z
#
# Youngs Moduli (GPa) = 52.07375 55.21160 39.55755
#
# Poissons Ratio (x) = 0.11483 0.58664
# Poissons Ratio (y) = 0.10830 0.16209
# Poissons Ratio (z) = 0.77226 0.22623
#
# Static dielectric constant tensor:
#      x y z
#    x 3.804600 0.000000 0.000000 
#    y 0.000000 3.585970 0.000000 
#    z 0.000000 0.000000 3.781260 
# 
# 
# High freq. dielectric constant tensor:
#      x y z
#    x 1.797140 0.000000 0.000000 
#    y 0.000000 1.781670 0.000000 
#    z 0.000000 0.000000 1.795650 
# 
# From -- ./inp_files/25168.got.cif
#   From: 2010.03.12/outbox.cif.g09.slc.cpg/sg74_13_cif.got.tgz:25168.got - 2010.04.16 15:46:19.
