data_PCOD8300582
_publ_section_title
;
Structure prediction by ZEFSAII (Michael W. Deem and Ramdas Pophale) SiO2 
 PCOD8300582
Probable space group: I M M A
;
_chemical_formula_sum "Si O2"
_cell_formula_units_Z 88
_cell_length_a 13.554570
_cell_length_b 14.929251
_cell_length_c 22.255510
_cell_angle_alpha 90.000000
_cell_angle_beta 90.000000
_cell_angle_gamma 90.000000
_cell_volume 4503.615606
_symmetry_space_group_name_H-M "I M M A"
_symmetry_group_IT_number 74
_symmetry_cell_setting 'orthorhombic'
loop_
_space_group_symop_operation_xyz
x,y,z
-x,1/2-y,z
x,-y,-z
-x,1/2+y,-z
-x,-y,-z
x,1/2+y,-z
-x,y,z
x,1/2-y,z
1/2+x,1/2+y,1/2+z
1/2-x,-y,1/2+z
1/2+x,1/2-y,1/2-z
1/2-x,y,1/2-z
1/2-x,1/2-y,1/2-z
1/2+x,y,1/2-z
1/2-x,1/2+y,1/2+z
1/2+x,-y,1/2+z
loop_
_atom_site_type_symbol
_atom_site_label
_atom_site_fract_x
_atom_site_fract_y
_atom_site_fract_z
Si Si1 0.261231 0.583308 0.626675
Si Si2 0.759049 0.401510 0.573697
Si Si3 0.385586 0.853044 0.189839
Si Si4 0.112989 0.250000 0.096958
Si Si5 0.385472 0.250000 0.544034
Si Si6 0.888167 0.355063 0.462543
Si Si7 0.250000 0.016105 0.750000
O O1 0.287623 0.499532 0.583765
O O2 0.342749 0.659976 0.624497
O O3 0.156434 0.622713 0.603209
O O4 0.257429 0.550403 0.694460
O O5 0.829689 0.373207 0.628080
O O6 0.665140 0.337212 0.571444
O O7 0.823767 0.402918 0.513520
O O8 0.500000 0.874460 0.179701
O O9 0.369665 0.750000 0.209194
O O10 0.344391 0.917967 0.242391
O O11 0.000000 0.250000 0.114504
O O12 0.133015 0.250000 0.026582
O O13 0.500000 0.250000 0.561641
O O14 0.883568 0.250000 0.475067
O O15 0.000000 0.390757 0.464578
#
# Coordination Sequence:
#
# PCOD8300582 Si02
#       7
#    16  16  16   8   8  16   8
#     4  11  23  41  62  86 119 164 210 258 302 362
#     4  11  20  37  65  99 131 158 195 243 316 383
#     4  10  20  38  65  94 128 165 198 244 306 375
#     4  11  24  43  61  81 116 163 216 263 303 352
#     4  11  22  38  61  94 134 161 198 248 305 379
#     4  11  21  37  64  97 130 160 196 249 314 381
#     4  10  25  39  62  86 126 160 214 264 298 356
#
# _framework density 19.539856
#
# number of rings (size 3 to 8) (size 9 to 14) (size 15 to 20)
#    0.000    1.273    4.545    1.364    0.000    7.636 
#    0.000    4.545    0.000    0.000    0.000    0.000 
#    0.000    0.000    0.000    0.000    0.000    0.000 
#
# Total GULP energy -545605.703750 kJ/mol
# GULP energy per Si atom -12400.129631 kJ/mol
# Density = 1.949538 g / cm^3
# Si number density = 19.539856 Si / 1000 Ang^3
#
#
#
# Elastic Constant Matrix: (Units=GPa)
#
#
# Indices 1 2 3 4 5 6 
#
# 1 129.5392 69.1662 56.8771 0.0000 0.0000 0.0000
# 2 69.1662 150.8462 50.9735 0.0000 0.0000 0.0000
# 3 56.8771 50.9735 111.9141 0.0000 0.0000 0.0000
# 4 0.0000 0.0000 0.0000 41.8499 0.0000 0.0000
# 5 0.0000 0.0000 0.0000 0.0000 23.9692 0.0000
# 6 0.0000 0.0000 0.0000 0.0000 0.0000 20.5222
#
#
#
# Elastic Compliance Matrix: (Units=1/GPa)
#
#
# Indices 1 2 3 4 5 6 
#
# 1 0.011632 -0.003943 -0.004116 0.000000 0.000000 0.000000
# 2 -0.003943 0.009172 -0.002174 0.000000 0.000000 0.000000
# 3 -0.004116 -0.002174 0.012017 0.000000 0.000000 0.000000
# 4 0.000000 0.000000 0.000000 0.023895 0.000000 0.000000
# 5 0.000000 0.000000 0.000000 0.000000 0.041720 0.000000
# 6 0.000000 0.000000 0.000000 0.000000 0.000000 0.048728
#
#
# Mechanical properties :
#
#
# Convention : Reuss Voigt Hill
#
# Bulk Modulus (GPa) = 80.92937 82.92591 81.92764
# Shear Modulus (GPa) = 29.11263 31.62044 30.36653
#
# Velocity S-wave (km/s) = 3.86412 4.02712 3.94646
# Velocity P-wave (km/s) = 7.83684 8.00968 7.92373
#
# Compressibility (1/GPa) = 0.01235645
#
# Stress axis : x y z
#
# Youngs Moduli (GPa) = 85.96984 109.03240 83.21413
#
# Poissons Ratio (x) = 0.42988 0.34250
# Poissons Ratio (y) = 0.33895 0.18088
# Poissons Ratio (z) = 0.35384 0.23699
#
# Static dielectric constant tensor:
#      x y z
#    x 3.616730 0.000000 0.000000 
#    y 0.000000 3.857250 0.000000 
#    z 0.000000 0.000000 3.518680 
# 
# 
# High freq. dielectric constant tensor:
#      x y z
#    x 1.755950 0.000000 0.000000 
#    y 0.000000 1.782280 0.000000 
#    z 0.000000 0.000000 1.751660 
# 
# From -- ./inp_files/51782.got.cif
#   From: 2010.03.12/outbox.cif.g09.slc.cpg/sg74_26_cif.got.tgz:51782.got - 2010.04.16 15:46:19.
