data_PCOD8300955
_publ_section_title
;
Structure prediction by ZEFSAII (Michael W. Deem and Ramdas Pophale) SiO2 
 PCOD8300955
Probable space group: I M M A
;
_chemical_formula_sum "Si O2"
_cell_formula_units_Z 64
_cell_length_a 26.258348
_cell_length_b 9.850238
_cell_length_c 12.008853
_cell_angle_alpha 90.000000
_cell_angle_beta 90.000000
_cell_angle_gamma 90.000000
_cell_volume 3106.101565
_symmetry_space_group_name_H-M "I M M A"
_symmetry_group_IT_number 74
_symmetry_cell_setting 'orthorhombic'
loop_
_space_group_symop_operation_xyz
x,y,z
-x,1/2-y,z
x,-y,-z
-x,1/2+y,-z
-x,-y,-z
x,1/2+y,-z
-x,y,z
x,1/2-y,z
1/2+x,1/2+y,1/2+z
1/2-x,-y,1/2+z
1/2+x,1/2-y,1/2-z
1/2-x,y,1/2-z
1/2-x,1/2-y,1/2-z
1/2+x,y,1/2-z
1/2-x,1/2+y,1/2+z
1/2+x,-y,1/2+z
loop_
_atom_site_type_symbol
_atom_site_label
_atom_site_fract_x
_atom_site_fract_y
_atom_site_fract_z
Si Si1 0.869516 0.500000 0.000000
Si Si2 0.940465 0.250000 0.937467
Si Si3 0.086941 0.750000 0.311713
Si Si4 0.199184 0.099624 0.197131
Si Si5 0.555088 0.250000 0.053715
Si Si6 0.869589 0.525483 0.618957
O O1 0.908317 0.624010 0.015486
O O2 0.830780 0.486138 0.104031
O O3 0.943775 0.250000 0.803552
O O4 0.000000 0.250000 0.979828
O O5 0.050609 0.750000 0.419343
O O6 0.121574 0.615620 0.316637
O O7 0.212220 0.250000 0.149569
O O8 0.250000 0.028459 0.250000
O O9 0.163829 0.120362 0.303946
O O10 0.500000 0.250000 0.108170
O O11 0.579564 0.389896 0.094376
O O12 0.841833 0.500000 0.500000
#
# Coordination Sequence:
#
# PCOD8300955 Si02
#       6
#     8   8   8  16   8  16
#     4  12  25  48  66 100 136 170 233 284 322 406
#     4  12  25  43  68  95 137 185 225 272 335 395
#     4  10  21  38  60  90 131 160 209 269 316 368
#     4  11  24  44  69  95 131 175 210 268 341 390
#     4  10  21  37  60  89 128 173 211 256 318 379
#     4  10  21  39  61  93 127 162 211 264 312 386
#
# _framework density 20.604607000000001
#
# number of rings (size 3 to 8) (size 9 to 14) (size 15 to 20)
#    0.000    1.250    5.000    0.750    1.750    5.500 
#    0.000    3.750    0.000    0.000    0.000    0.000 
#    0.000    0.000    0.000    0.000    0.000    0.000 
#
# Total GULP energy -396454.383447 kJ/mol
# GULP energy per Si atom -12389.199483 kJ/mol
# Density = 2.055771 g / cm^3
# Si number density = 20.604607 Si / 1000 Ang^3
#
#
#
# Elastic Constant Matrix: (Units=GPa)
#
#
# Indices 1 2 3 4 5 6 
#
# 1 137.0228 42.0787 66.2975 0.0000 0.0000 0.0000
# 2 42.0787 123.3502 28.3244 0.0000 0.0000 0.0000
# 3 66.2975 28.3244 110.4524 0.0000 0.0000 0.0000
# 4 0.0000 0.0000 0.0000 10.5277 0.0000 0.0000
# 5 0.0000 0.0000 0.0000 0.0000 21.7379 0.0000
# 6 0.0000 0.0000 0.0000 0.0000 0.0000 19.2120
#
#
#
# Elastic Compliance Matrix: (Units=1/GPa)
#
#
# Indices 1 2 3 4 5 6 
#
# 1 0.010892 -0.002353 -0.005934 0.000000 0.000000 0.000000
# 2 -0.002353 0.009123 -0.000927 0.000000 0.000000 0.000000
# 3 -0.005934 -0.000927 0.012853 0.000000 0.000000 0.000000
# 4 0.000000 0.000000 0.000000 0.094988 0.000000 0.000000
# 5 0.000000 0.000000 0.000000 0.000000 0.046003 0.000000
# 6 0.000000 0.000000 0.000000 0.000000 0.000000 0.052051
#
#
# Mechanical properties :
#
#
# Convention : Reuss Voigt Hill
#
# Bulk Modulus (GPa) = 69.25587 71.58074 70.41830
# Shear Modulus (GPa) = 20.06815 25.90382 22.98599
#
# Velocity S-wave (km/s) = 3.12423 3.54953 3.34365
# Velocity P-wave (km/s) = 6.83368 7.18432 7.01119
#
# Compressibility (1/GPa) = 0.01443921
#
# Stress axis : x y z
#
# Youngs Moduli (GPa) = 91.81130 109.61865 77.80032
#
# Poissons Ratio (x) = 0.25792 0.46169
# Poissons Ratio (y) = 0.21602 0.07213
# Poissons Ratio (z) = 0.54484 0.10163
#
# Static dielectric constant tensor:
#      x y z
#    x 3.601660 0.000000 0.000000 
#    y 0.000000 3.781750 0.000000 
#    z 0.000000 0.000000 3.817690 
# 
# 
# High freq. dielectric constant tensor:
#      x y z
#    x 1.792280 0.000000 0.000000 
#    y 0.000000 1.814010 0.000000 
#    z 0.000000 0.000000 1.810480 
# 
# From -- ./inp_files/26799.got.cif
#   From: 2010.03.12/outbox.cif.g09.slc.cpg/sg74_14_cif.got.tgz:26799.got - 2010.04.16 15:46:19.
