data_PCOD8300470
_publ_section_title
;
Structure prediction by ZEFSAII (Michael W. Deem and Ramdas Pophale) SiO2 
 PCOD8300470
Probable space group: I M M A
;
_chemical_formula_sum "Si O2"
_cell_formula_units_Z 96
_cell_length_a 23.263424
_cell_length_b 8.701912
_cell_length_c 25.277309
_cell_angle_alpha 90.000000
_cell_angle_beta 90.000000
_cell_angle_gamma 90.000000
_cell_volume 5117.044111
_symmetry_space_group_name_H-M "I M M A"
_symmetry_group_IT_number 74
_symmetry_cell_setting 'orthorhombic'
loop_
_space_group_symop_operation_xyz
x,y,z
-x,1/2-y,z
x,-y,-z
-x,1/2+y,-z
-x,-y,-z
x,1/2+y,-z
-x,y,z
x,1/2-y,z
1/2+x,1/2+y,1/2+z
1/2-x,-y,1/2+z
1/2+x,1/2-y,1/2-z
1/2-x,y,1/2-z
1/2-x,1/2-y,1/2-z
1/2+x,y,1/2-z
1/2-x,1/2+y,1/2+z
1/2+x,-y,1/2+z
loop_
_atom_site_type_symbol
_atom_site_label
_atom_site_fract_x
_atom_site_fract_y
_atom_site_fract_z
Si Si1 0.673939 0.432292 0.055918
Si Si2 0.890699 0.426797 0.652909
Si Si3 0.314998 0.426114 0.746284
Si Si4 0.382261 0.430776 0.348148
Si Si5 0.000000 0.070706 0.296639
Si Si6 0.694883 0.068992 0.444728
Si Si7 0.000000 0.431161 0.819159
O O1 0.666392 0.250000 0.056758
O O2 0.632679 0.509511 0.098183
O O3 0.739764 0.481702 0.067501
O O4 0.654238 0.500000 0.000000
O O5 0.909623 0.250000 0.646747
O O6 0.840920 0.445146 0.695860
O O7 0.944819 0.527874 0.669253
O O8 0.317845 0.250000 0.726531
O O9 0.250000 0.486069 0.750000
O O10 0.349884 0.531101 0.706012
O O11 0.391076 0.250000 0.351417
O O12 0.345352 0.493544 0.397643
O O13 0.444302 0.509183 0.350000
O O14 0.000000 0.250000 0.283543
O O15 0.000000 0.981236 0.241597
O O16 0.690601 0.250000 0.449266
O O17 0.672954 0.000000 0.500000
O O18 0.000000 0.250000 0.820026
#
# Coordination Sequence:
#
# PCOD8300470 Si02
#       7
#    16  16  16  16   8  16   8
#     4  10  20  37  60  87 119 155 194 237 289 344
#     4  11  22  37  58  85 118 153 194 238 284 343
#     4  10  21  35  54  83 118 153 188 232 287 346
#     4  11  22  37  58  85 115 150 194 242 291 344
#     4  12  24  40  61  84 113 154 196 239 290 343
#     4   9  20  37  59  87 118 153 193 239 289 344
#     4  12  24  40  59  82 113 154 197 239 290 351
#
# _framework density 18.760831
#
# number of rings (size 3 to 8) (size 9 to 14) (size 15 to 20)
#    0.000    1.500    1.667    4.000    0.000    3.000 
#    0.000    0.833    0.000    0.000    0.000    0.000 
#    0.000    0.000    0.000    0.000    0.000    0.000 
#
# Total GULP energy -595461.018893 kJ/mol
# GULP energy per Si atom -12405.437894 kJ/mol
# Density = 1.871813 g / cm^3
# Si number density = 18.760831 Si / 1000 Ang^3
#
#
#
# Elastic Constant Matrix: (Units=GPa)
#
#
# Indices 1 2 3 4 5 6 
#
# 1 84.0650 14.1268 13.9843 0.0000 0.0000 0.0000
# 2 14.1268 65.9233 12.0070 0.0000 0.0000 0.0000
# 3 13.9843 12.0070 82.2703 0.0000 0.0000 0.0000
# 4 0.0000 0.0000 0.0000 33.6167 0.0000 0.0000
# 5 0.0000 0.0000 0.0000 0.0000 28.0273 0.0000
# 6 0.0000 0.0000 0.0000 0.0000 0.0000 29.5350
#
#
#
# Elastic Compliance Matrix: (Units=1/GPa)
#
#
# Indices 1 2 3 4 5 6 
#
# 1 0.012593 -0.002372 -0.001794 0.000000 0.000000 0.000000
# 2 -0.002372 0.016030 -0.001936 0.000000 0.000000 0.000000
# 3 -0.001794 -0.001936 0.012743 0.000000 0.000000 0.000000
# 4 0.000000 0.000000 0.000000 0.029747 0.000000 0.000000
# 5 0.000000 0.000000 0.000000 0.000000 0.035679 0.000000
# 6 0.000000 0.000000 0.000000 0.000000 0.000000 0.033858
#
#
# Mechanical properties :
#
#
# Convention : Reuss Voigt Hill
#
# Bulk Modulus (GPa) = 34.29295 34.72164 34.50729
# Shear Modulus (GPa) = 30.75503 31.04517 30.90010
#
# Velocity S-wave (km/s) = 4.05325 4.07232 4.06279
# Velocity P-wave (km/s) = 6.34222 6.37647 6.35937
#
# Compressibility (1/GPa) = 0.02916051
#
# Stress axis : x y z
#
# Youngs Moduli (GPa) = 79.41174 62.38285 78.47652
#
# Poissons Ratio (x) = 0.14795 0.14081
# Poissons Ratio (y) = 0.18834 0.15196
# Poissons Ratio (z) = 0.14249 0.12080
#
# Static dielectric constant tensor:
#      x y z
#    x 3.689780 0.000000 0.000000 
#    y 0.000000 3.490480 0.000000 
#    z 0.000000 0.000000 3.468450 
# 
# 
# High freq. dielectric constant tensor:
#      x y z
#    x 1.732360 0.000000 0.000000 
#    y 0.000000 1.736520 0.000000 
#    z 0.000000 0.000000 1.729140 
# 
# From -- ./inp_files/57343.got.cif
#   From: 2010.03.12/outbox.cif.g09.slc.cpg/sg74_29_cif.got.tgz:57343.got - 2010.04.16 15:46:19.
