data_PCOD8300906
_publ_section_title
;
Structure prediction by ZEFSAII (Michael W. Deem and Ramdas Pophale) SiO2 
 PCOD8300906
Probable space group: I M M A
;
_chemical_formula_sum "Si O2"
_cell_formula_units_Z 96
_cell_length_a 24.532416
_cell_length_b 9.510369
_cell_length_c 19.934737
_cell_angle_alpha 90.000000
_cell_angle_beta 90.000000
_cell_angle_gamma 90.000000
_cell_volume 4651.019910
_symmetry_space_group_name_H-M "I M M A"
_symmetry_group_IT_number 74
_symmetry_cell_setting 'orthorhombic'
loop_
_space_group_symop_operation_xyz
x,y,z
-x,1/2-y,z
x,-y,-z
-x,1/2+y,-z
-x,-y,-z
x,1/2+y,-z
-x,y,z
x,1/2-y,z
1/2+x,1/2+y,1/2+z
1/2-x,-y,1/2+z
1/2+x,1/2-y,1/2-z
1/2-x,y,1/2-z
1/2-x,1/2-y,1/2-z
1/2+x,y,1/2-z
1/2-x,1/2+y,1/2+z
1/2+x,-y,1/2+z
loop_
_atom_site_type_symbol
_atom_site_label
_atom_site_fract_x
_atom_site_fract_y
_atom_site_fract_z
Si Si1 0.939402 0.089163 0.373865
Si Si2 0.937140 0.914463 0.103852
Si Si3 0.669843 0.587828 0.937304
Si Si4 0.837238 0.417796 0.062581
Si Si5 0.251595 0.584868 0.674478
Si Si6 0.563994 0.401881 0.755086
O O1 0.942794 0.250000 0.352621
O O2 0.895600 0.066035 0.432640
O O3 0.000000 0.035394 0.396069
O O4 0.914592 0.012888 0.308804
O O5 0.924781 0.750000 0.088749
O O6 0.922945 0.951626 0.180526
O O7 0.000000 0.948879 0.086680
O O8 0.898575 0.019770 0.063203
O O9 0.685192 0.750000 0.950405
O O10 0.699287 0.535285 0.869131
O O11 0.691724 0.500000 0.000000
O O12 0.838274 0.250000 0.049903
O O13 0.805587 0.455736 0.131673
O O14 0.808423 0.500000 0.000000
O O15 0.249215 0.750000 0.684193
O O16 0.250000 0.515980 0.750000
O O17 0.500000 0.386672 0.763335
O O18 0.591219 0.250000 0.769635
#
# Coordination Sequence:
#
# PCOD8300906 Si02
#       6
#    16  16  16  16  16  16
#     4   9  18  31  50  80 114 147 187 233 278 330
#     4   9  19  36  57  83 119 157 191 232 284 344
#     4  10  21  37  58  81 113 153 188 231 282 337
#     4  11  23  38  61  87 116 154 193 239 289 343
#     4   9  20  39  62  86 111 145 191 240 291 342
#     4   8  15  29  49  74 107 147 184 224 276 327
#
# _framework density 20.640633999999999
#
# number of rings (size 3 to 8) (size 9 to 14) (size 15 to 20)
#    0.000    2.667    0.000    2.000    2.333    2.333 
#    0.000    2.500    0.000    2.500    0.000    0.000 
#    0.000    0.000    0.000    0.000    0.000    0.000 
#
# Total GULP energy -594696.338929 kJ/mol
# GULP energy per Si atom -12389.507061 kJ/mol
# Density = 2.059365 g / cm^3
# Si number density = 20.640634 Si / 1000 Ang^3
#
#
#
# Elastic Constant Matrix: (Units=GPa)
#
#
# Indices 1 2 3 4 5 6 
#
# 1 105.0888 36.2663 45.8280 0.0000 0.0000 0.0000
# 2 36.2663 65.1047 49.4922 0.0000 0.0000 0.0000
# 3 45.8280 49.4922 143.3853 0.0000 0.0000 0.0000
# 4 0.0000 0.0000 0.0000 30.9354 0.0000 0.0000
# 5 0.0000 0.0000 0.0000 0.0000 15.8620 0.0000
# 6 0.0000 0.0000 0.0000 0.0000 0.0000 14.9677
#
#
#
# Elastic Compliance Matrix: (Units=1/GPa)
#
#
# Indices 1 2 3 4 5 6 
#
# 1 0.012235 -0.005210 -0.002112 0.000000 0.000000 0.000000
# 2 -0.005210 0.023042 -0.006288 0.000000 0.000000 0.000000
# 3 -0.002112 -0.006288 0.009820 0.000000 0.000000 0.000000
# 4 0.000000 0.000000 0.000000 0.032325 0.000000 0.000000
# 5 0.000000 0.000000 0.000000 0.000000 0.063044 0.000000
# 6 0.000000 0.000000 0.000000 0.000000 0.000000 0.066810
#
#
# Mechanical properties :
#
#
# Convention : Reuss Voigt Hill
#
# Bulk Modulus (GPa) = 55.93964 64.08354 60.01159
# Shear Modulus (GPa) = 20.79384 24.48584 22.63984
#
# Velocity S-wave (km/s) = 3.17744 3.44800 3.31548
# Velocity P-wave (km/s) = 6.37354 6.85319 6.61771
#
# Compressibility (1/GPa) = 0.01787641
#
# Stress axis : x y z
#
# Youngs Moduli (GPa) = 81.73462 43.39839 101.83430
#
# Poissons Ratio (x) = 0.22609 0.21509
# Poissons Ratio (y) = 0.42581 0.64038
# Poissons Ratio (z) = 0.17264 0.27291
#
# Static dielectric constant tensor:
#      x y z
#    x 3.682560 0.000000 0.000000 
#    y 0.000000 5.171200 0.000000 
#    z 0.000000 0.000000 3.965770 
# 
# 
# High freq. dielectric constant tensor:
#      x y z
#    x 1.803650 0.000000 0.000000 
#    y 0.000000 1.782500 0.000000 
#    z 0.000000 0.000000 1.807400 
# 
# From -- ./inp_files/55055.got.cif
#   From: 2010.03.12/outbox.cif.g09.slc.cpg/sg74_28_cif.got.tgz:55055.got - 2010.04.16 15:46:19.
