data_PCOD8300448
_publ_section_title
;
Structure prediction by ZEFSAII (Michael W. Deem and Ramdas Pophale) SiO2 
 PCOD8300448
Probable space group: I M M A
;
_chemical_formula_sum "Si O2"
_cell_formula_units_Z 72
_cell_length_a 21.674870
_cell_length_b 8.673847
_cell_length_c 19.556692
_cell_angle_alpha 90.000000
_cell_angle_beta 90.000000
_cell_angle_gamma 90.000000
_cell_volume 3676.746221
_symmetry_space_group_name_H-M "I M M A"
_symmetry_group_IT_number 74
_symmetry_cell_setting 'orthorhombic'
loop_
_space_group_symop_operation_xyz
x,y,z
-x,1/2-y,z
x,-y,-z
-x,1/2+y,-z
-x,-y,-z
x,1/2+y,-z
-x,y,z
x,1/2-y,z
1/2+x,1/2+y,1/2+z
1/2-x,-y,1/2+z
1/2+x,1/2-y,1/2-z
1/2-x,y,1/2-z
1/2-x,1/2-y,1/2-z
1/2+x,y,1/2-z
1/2-x,1/2+y,1/2+z
1/2+x,-y,1/2+z
loop_
_atom_site_type_symbol
_atom_site_label
_atom_site_fract_x
_atom_site_fract_y
_atom_site_fract_z
Si Si1 0.142253 0.569301 0.429486
Si Si2 0.716544 0.932651 0.428090
Si Si3 0.112263 0.431271 0.157922
Si Si4 0.500000 0.568138 0.425110
Si Si5 0.571947 0.068994 0.795774
O O1 0.116525 0.500000 0.500000
O O2 0.137457 0.750000 0.436775
O O3 0.212680 0.518140 0.416373
O O4 0.100126 0.510551 0.367307
O O5 0.706991 0.750000 0.427371
O O6 0.692291 0.000000 0.500000
O O7 0.678703 0.010590 0.367055
O O8 0.105559 0.250000 0.147526
O O9 0.060238 0.516253 0.114797
O O10 0.106199 0.474005 0.237149
O O11 0.500000 0.750000 0.430187
O O12 0.500000 0.500000 0.500000
O O13 0.500000 0.029530 0.795010
O O14 0.583979 0.250000 0.784364
#
# Coordination Sequence:
#
# PCOD8300448 Si02
#       5
#    16  16  16   8  16
#     4   9  20  38  61  88 116 151 195 243 293 350
#     4  10  20  37  59  84 117 154 195 241 292 345
#     4  12  24  38  57  85 118 152 195 240 289 343
#     4  12  24  40  60  84 115 154 195 236 284 340
#     4  10  21  39  61  84 116 157 198 240 291 348
#
# _framework density 19.582530999999999
#
# number of rings (size 3 to 8) (size 9 to 14) (size 15 to 20)
#    0.000    1.556    1.111    4.333    0.000    3.111 
#    0.000    4.444    0.000    0.000    0.000    0.000 
#    0.000    0.000    0.000    0.000    0.000    0.000 
#
# Total GULP energy -446596.555044 kJ/mol
# GULP energy per Si atom -12405.459862 kJ/mol
# Density = 1.953796 g / cm^3
# Si number density = 19.582531 Si / 1000 Ang^3
#
#
#
# Elastic Constant Matrix: (Units=GPa)
#
#
# Indices 1 2 3 4 5 6 
#
# 1 67.3131 29.6526 58.0107 0.0000 0.0000 0.0000
# 2 29.6526 97.7606 48.8008 0.0000 0.0000 0.0000
# 3 58.0107 48.8008 159.5096 0.0000 0.0000 0.0000
# 4 0.0000 0.0000 0.0000 37.5656 0.0000 0.0000
# 5 0.0000 0.0000 0.0000 0.0000 43.0517 0.0000
# 6 0.0000 0.0000 0.0000 0.0000 0.0000 22.7059
#
#
#
# Elastic Compliance Matrix: (Units=1/GPa)
#
#
# Indices 1 2 3 4 5 6 
#
# 1 0.022470 -0.003229 -0.007184 0.000000 0.000000 0.000000
# 2 -0.003229 0.012537 -0.002661 0.000000 0.000000 0.000000
# 3 -0.007184 -0.002661 0.009696 0.000000 0.000000 0.000000
# 4 0.000000 0.000000 0.000000 0.026620 0.000000 0.000000
# 5 0.000000 0.000000 0.000000 0.000000 0.023228 0.000000
# 6 0.000000 0.000000 0.000000 0.000000 0.000000 0.044041
#
#
# Mechanical properties :
#
#
# Convention : Reuss Voigt Hill
#
# Bulk Modulus (GPa) = 53.89687 66.39020 60.14353
# Shear Modulus (GPa) = 29.25255 33.20590 31.22923
#
# Velocity S-wave (km/s) = 3.86917 4.12234 3.99776
# Velocity P-wave (km/s) = 6.89517 7.52560 7.21727
#
# Compressibility (1/GPa) = 0.01855395
#
# Stress axis : x y z
#
# Youngs Moduli (GPa) = 44.50465 79.76381 103.13564
#
# Poissons Ratio (x) = 0.25759 0.74090
# Poissons Ratio (y) = 0.14372 0.27446
# Poissons Ratio (z) = 0.31971 0.21226
#
# Static dielectric constant tensor:
#      x y z
#    x 3.675490 0.000000 0.000000 
#    y 0.000000 3.645240 0.000000 
#    z 0.000000 0.000000 3.788290 
# 
# 
# High freq. dielectric constant tensor:
#      x y z
#    x 1.764760 0.000000 0.000000 
#    y 0.000000 1.765080 0.000000 
#    z 0.000000 0.000000 1.772210 
# 
# From -- ./inp_files/39450.got.cif
#   From: 2010.03.12/outbox.cif.g09.slc.cpg/sg74_20_cif.got.tgz:39450.got - 2010.04.16 15:46:19.
