data_PCOD8300241
_publ_section_title
;
Structure prediction by ZEFSAII (Michael W. Deem and Ramdas Pophale) SiO2 
 PCOD8300241
Probable space group: I M M A
;
_chemical_formula_sum "Si O2"
_cell_formula_units_Z 80
_cell_length_a 18.969602
_cell_length_b 10.683351
_cell_length_c 21.508547
_cell_angle_alpha 90.000000
_cell_angle_beta 90.000000
_cell_angle_gamma 90.000000
_cell_volume 4358.898830
_symmetry_space_group_name_H-M "I M M A"
_symmetry_group_IT_number 74
_symmetry_cell_setting 'orthorhombic'
loop_
_space_group_symop_operation_xyz
x,y,z
-x,1/2-y,z
x,-y,-z
-x,1/2+y,-z
-x,-y,-z
x,1/2+y,-z
-x,y,z
x,1/2-y,z
1/2+x,1/2+y,1/2+z
1/2-x,-y,1/2+z
1/2+x,1/2-y,1/2-z
1/2-x,y,1/2-z
1/2-x,1/2-y,1/2-z
1/2+x,y,1/2-z
1/2-x,1/2+y,1/2+z
1/2+x,-y,1/2+z
loop_
_atom_site_type_symbol
_atom_site_label
_atom_site_fract_x
_atom_site_fract_y
_atom_site_fract_z
Si Si1 0.853600 0.500000 0.000000
Si Si2 0.000000 0.099420 0.556857
Si Si3 0.918640 0.750000 0.960635
Si Si4 0.827945 0.528357 0.766701
Si Si5 0.084796 0.750000 0.821647
Si Si6 0.373214 0.389903 0.853440
Si Si7 0.284400 0.109938 0.613481
O O1 0.899398 0.625406 0.998113
O O2 0.807453 0.490851 0.937849
O O3 0.932128 0.064257 0.598218
O O4 0.000000 0.250000 0.537570
O O5 0.000000 0.000000 0.500000
O O6 0.885885 0.750000 0.891890
O O7 0.000000 0.750000 0.950425
O O8 0.750000 0.583260 0.750000
O O9 0.882530 0.630236 0.789345
O O10 0.868847 0.473383 0.707806
O O11 0.816177 0.422967 0.819157
O O12 0.000000 0.750000 0.815450
O O13 0.391336 0.250000 0.831285
O O14 0.299432 0.395128 0.888842
O O15 0.310379 0.250000 0.596829
#
# Coordination Sequence:
#
# PCOD8300241 Si02
#       7
#     8   8   8  16   8  16  16
#     4  12  21  38  60  83 118 154 200 242 282 357
#     4  10  22  42  62  86 126 159 198 243 294 353
#     4  11  24  41  59  81 116 159 193 237 298 342
#     4  10  20  38  61  85 115 149 195 240 295 348
#     4  11  23  37  55  83 123 152 184 242 294 351
#     4   9  20  38  61  85 116 154 191 243 293 346
#     4  10  20  35  60  88 113 149 199 243 289 346
#
# _framework density 18.353259000000001
#
# number of rings (size 3 to 8) (size 9 to 14) (size 15 to 20)
#    0.000    1.800    3.000    1.200    2.800    2.400 
#    1.800    0.000    0.000    0.000    0.000    0.000 
#    0.000    0.000    0.000    0.000    0.000    0.000 
#
# Total GULP energy -495827.054891 kJ/mol
# GULP energy per Si atom -12395.676372 kJ/mol
# Density = 1.831149 g / cm^3
# Si number density = 18.353259 Si / 1000 Ang^3
#
#
#
# Elastic Constant Matrix: (Units=GPa)
#
#
# Indices 1 2 3 4 5 6 
#
# 1 87.5561 50.0340 51.5239 0.0000 0.0000 0.0000
# 2 50.0340 106.7854 47.1595 0.0000 0.0000 0.0000
# 3 51.5239 47.1595 111.2872 0.0000 0.0000 0.0000
# 4 0.0000 0.0000 0.0000 36.2089 0.0000 0.0000
# 5 0.0000 0.0000 0.0000 0.0000 28.9085 0.0000
# 6 0.0000 0.0000 0.0000 0.0000 0.0000 22.8215
#
#
#
# Elastic Compliance Matrix: (Units=1/GPa)
#
#
# Indices 1 2 3 4 5 6 
#
# 1 0.018335 -0.005957 -0.005965 0.000000 0.000000 0.000000
# 2 -0.005957 0.013456 -0.002944 0.000000 0.000000 0.000000
# 3 -0.005965 -0.002944 0.012995 0.000000 0.000000 0.000000
# 4 0.000000 0.000000 0.000000 0.027618 0.000000 0.000000
# 5 0.000000 0.000000 0.000000 0.000000 0.034592 0.000000
# 6 0.000000 0.000000 0.000000 0.000000 0.000000 0.043818
#
#
# Mechanical properties :
#
#
# Convention : Reuss Voigt Hill
#
# Bulk Modulus (GPa) = 66.42406 67.00705 66.71555
# Shear Modulus (GPa) = 26.94499 28.04853 27.49676
#
# Velocity S-wave (km/s) = 3.83578 3.91354 3.87485
# Velocity P-wave (km/s) = 7.47584 7.55049 7.51326
#
# Compressibility (1/GPa) = 0.01505479
#
# Stress axis : x y z
#
# Youngs Moduli (GPa) = 54.53978 74.31709 76.95307
#
# Poissons Ratio (x) = 0.44269 0.45900
# Poissons Ratio (y) = 0.32488 0.22657
# Poissons Ratio (z) = 0.32531 0.21881
#
# Static dielectric constant tensor:
#      x y z
#    x 3.383790 0.000000 0.000000 
#    y 0.000000 3.438390 0.000000 
#    z 0.000000 0.000000 3.452000 
# 
# 
# High freq. dielectric constant tensor:
#      x y z
#    x 1.712150 0.000000 0.000000 
#    y 0.000000 1.711660 0.000000 
#    z 0.000000 0.000000 1.718160 
# 
# From -- ./inp_files/52825.got.cif
#   From: 2010.03.12/outbox.cif.g09.slc.cpg/sg74_27_cif.got.tgz:52825.got - 2010.04.16 15:46:19.
