data_PCOD8300231
_publ_section_title
;
Structure prediction by ZEFSAII (Michael W. Deem and Ramdas Pophale) SiO2 
 PCOD8300231
Probable space group: I M M A
;
_chemical_formula_sum "Si O2"
_cell_formula_units_Z 72
_cell_length_a 16.837470
_cell_length_b 8.662374
_cell_length_c 24.648991
_cell_angle_alpha 90.000000
_cell_angle_beta 90.000000
_cell_angle_gamma 90.000000
_cell_volume 3595.116032
_symmetry_space_group_name_H-M "I M M A"
_symmetry_group_IT_number 74
_symmetry_cell_setting 'orthorhombic'
loop_
_space_group_symop_operation_xyz
x,y,z
-x,1/2-y,z
x,-y,-z
-x,1/2+y,-z
-x,-y,-z
x,1/2+y,-z
-x,y,z
x,1/2-y,z
1/2+x,1/2+y,1/2+z
1/2-x,-y,1/2+z
1/2+x,1/2-y,1/2-z
1/2-x,y,1/2-z
1/2-x,1/2-y,1/2-z
1/2+x,y,1/2-z
1/2-x,1/2+y,1/2+z
1/2+x,-y,1/2+z
loop_
_atom_site_type_symbol
_atom_site_label
_atom_site_fract_x
_atom_site_fract_y
_atom_site_fract_z
Si Si1 0.656804 0.928678 0.750012
Si Si2 0.130166 0.431764 0.641271
Si Si3 0.311525 0.428294 0.644441
Si Si4 0.000000 0.066536 0.438510
Si Si5 0.587676 0.424609 0.442240
O O1 0.638468 0.750000 0.757908
O O2 0.750000 0.970142 0.750000
O O3 0.607326 0.017521 0.797045
O O4 0.634533 0.984121 0.689665
O O5 0.117788 0.250000 0.634390
O O6 0.221253 0.487269 0.635554
O O7 0.077713 0.513461 0.595034
O O8 0.309858 0.250000 0.660028
O O9 0.354457 0.460716 0.588689
O O10 0.000000 0.250000 0.443115
O O11 0.000000 0.000000 0.500000
O O12 0.582050 0.500000 0.500000
O O13 0.500000 0.422775 0.415846
O O14 0.621933 0.250000 0.444152
#
# Coordination Sequence:
#
# PCOD8300231 Si02
#       5
#    16  16  16   8  16
#     4   9  17  32  56  85 116 148 184 231 285 340
#     4  10  21  39  61  86 117 152 192 239 293 348
#     4  10  20  35  59  88 117 152 193 238 289 348
#     4  12  26  44  64  86 116 156 201 250 301 352
#     4  10  21  37  56  79 111 149 188 234 285 339
#
# _framework density 20.027170000000002
#
# number of rings (size 3 to 8) (size 9 to 14) (size 15 to 20)
#    0.000    2.000    0.000    3.667    0.000    7.556 
#    2.000    0.000    0.000    0.000    0.000    0.000 
#    0.000    0.000    0.000    0.000    0.000    0.000 
#
# Total GULP energy -446178.668111 kJ/mol
# GULP energy per Si atom -12393.851892 kJ/mol
# Density = 1.998159 g / cm^3
# Si number density = 20.027170 Si / 1000 Ang^3
#
#
#
# Elastic Constant Matrix: (Units=GPa)
#
#
# Indices 1 2 3 4 5 6 
#
# 1 70.8869 33.0729 64.5146 0.0000 0.0000 0.0000
# 2 33.0729 100.1623 48.3202 0.0000 0.0000 0.0000
# 3 64.5146 48.3202 131.7544 0.0000 0.0000 0.0000
# 4 0.0000 0.0000 0.0000 42.4090 0.0000 0.0000
# 5 0.0000 0.0000 0.0000 0.0000 31.3867 0.0000
# 6 0.0000 0.0000 0.0000 0.0000 0.0000 27.7483
#
#
#
# Elastic Compliance Matrix: (Units=1/GPa)
#
#
# Indices 1 2 3 4 5 6 
#
# 1 0.026163 -0.002987 -0.011715 0.000000 0.000000 0.000000
# 2 -0.002987 0.012471 -0.003111 0.000000 0.000000 0.000000
# 3 -0.011715 -0.003111 0.014467 0.000000 0.000000 0.000000
# 4 0.000000 0.000000 0.000000 0.023580 0.000000 0.000000
# 5 0.000000 0.000000 0.000000 0.000000 0.031861 0.000000
# 6 0.000000 0.000000 0.000000 0.000000 0.000000 0.036038
#
#
# Mechanical properties :
#
#
# Convention : Reuss Voigt Hill
#
# Bulk Modulus (GPa) = 57.22709 66.06878 61.64794
# Shear Modulus (GPa) = 26.87717 30.76852 28.82284
#
# Velocity S-wave (km/s) = 3.66735 3.92387 3.79778
# Velocity P-wave (km/s) = 6.82418 7.32053 7.07671
#
# Compressibility (1/GPa) = 0.01747424
#
# Stress axis : x y z
#
# Youngs Moduli (GPa) = 38.22209 80.18661 69.12122
#
# Poissons Ratio (x) = 0.23953 0.80978
# Poissons Ratio (y) = 0.11417 0.21503
# Poissons Ratio (z) = 0.44779 0.24946
#
# Static dielectric constant tensor:
#      x y z
#    x 3.607390 0.000000 0.000000 
#    y 0.000000 3.614280 0.000000 
#    z 0.000000 0.000000 3.912590 
# 
# 
# High freq. dielectric constant tensor:
#      x y z
#    x 1.759830 0.000000 0.000000 
#    y 0.000000 1.793300 0.000000 
#    z 0.000000 0.000000 1.789610 
# 
# From -- ./inp_files/60616.got.cif
#   From: 2010.03.12/outbox.cif.g09.slc.cpg/sg74_31_cif.got.tgz:60616.got - 2010.04.16 15:46:19.
