data_PCOD8300337
_publ_section_title
;
Structure prediction by ZEFSAII (Michael W. Deem and Ramdas Pophale) SiO2 
 PCOD8300337
Probable space group: I M M A
;
_chemical_formula_sum "Si O2"
_cell_formula_units_Z 104
_cell_length_a 25.795322
_cell_length_b 8.943594
_cell_length_c 21.736436
_cell_angle_alpha 90.000000
_cell_angle_beta 90.000000
_cell_angle_gamma 90.000000
_cell_volume 5014.658540
_symmetry_space_group_name_H-M "I M M A"
_symmetry_group_IT_number 74
_symmetry_cell_setting 'orthorhombic'
loop_
_space_group_symop_operation_xyz
x,y,z
-x,1/2-y,z
x,-y,-z
-x,1/2+y,-z
-x,-y,-z
x,1/2+y,-z
-x,y,z
x,1/2-y,z
1/2+x,1/2+y,1/2+z
1/2-x,-y,1/2+z
1/2+x,1/2-y,1/2-z
1/2-x,y,1/2-z
1/2-x,1/2-y,1/2-z
1/2+x,y,1/2-z
1/2-x,1/2+y,1/2+z
1/2+x,-y,1/2+z
loop_
_atom_site_type_symbol
_atom_site_label
_atom_site_fract_x
_atom_site_fract_y
_atom_site_fract_z
Si Si1 0.118265 0.082969 0.437755
Si Si2 0.607221 0.077592 0.623046
Si Si3 0.058718 0.418744 0.322689
Si Si4 0.711311 0.923437 0.436899
Si Si5 0.000000 0.929311 0.067004
Si Si6 0.289273 0.072345 0.149074
Si Si7 0.854777 0.074620 0.747377
O O1 0.131971 0.250000 0.456690
O O2 0.066678 0.071169 0.396212
O O3 0.166585 0.019636 0.398811
O O4 0.107495 0.000000 0.500000
O O5 0.597495 0.250000 0.637547
O O6 0.649238 0.055168 0.568759
O O7 0.551406 0.010293 0.602865
O O8 0.632123 0.007557 0.685017
O O9 0.074717 0.250000 0.301396
O O10 0.093324 0.543776 0.290916
O O11 0.000000 0.454309 0.305651
O O12 0.726920 0.750000 0.439036
O O13 0.730533 0.000000 0.500000
O O14 0.736775 0.998256 0.376392
O O15 0.000000 0.750000 0.060639
O O16 0.000000 0.000000 0.000000
O O17 0.283172 0.250000 0.153807
O O18 0.305383 0.009877 0.216650
O O19 0.841931 0.250000 0.748722
#
# Coordination Sequence:
#
# PCOD8300337 Si02
#       7
#    16  16  16  16   8  16  16
#     4   9  18  31  48  70 100 137 179 223 275 332
#     4   9  21  38  60  87 119 155 191 239 299 352
#     4   9  19  35  51  71 106 147 183 233 294 348
#     4  11  22  38  59  87 118 153 194 239 290 350
#     4  10  20  40  64  88 120 158 197 242 295 354
#     4  10  21  38  57  81 114 154 190 235 292 346
#     4  10  20  36  58  85 112 147 194 242 289 347
#
# _framework density 20.739197000000001
#
# number of rings (size 3 to 8) (size 9 to 14) (size 15 to 20)
#    0.000    2.308    0.000    3.231    1.077    5.538 
#    0.000    8.462    0.000    0.000    0.000    0.000 
#    0.000    0.000    0.000    0.000    0.000    0.000 
#
# Total GULP energy -644567.132217 kJ/mol
# GULP energy per Si atom -12395.521773 kJ/mol
# Density = 2.069199 g / cm^3
# Si number density = 20.739197 Si / 1000 Ang^3
#
#
#
# Elastic Constant Matrix: (Units=GPa)
#
#
# Indices 1 2 3 4 5 6 
#
# 1 100.4354 34.8152 36.3873 0.0000 0.0000 0.0000
# 2 34.8152 74.1944 36.5047 0.0000 0.0000 0.0000
# 3 36.3873 36.5047 115.9614 0.0000 0.0000 0.0000
# 4 0.0000 0.0000 0.0000 30.3652 0.0000 0.0000
# 5 0.0000 0.0000 0.0000 0.0000 25.2374 0.0000
# 6 0.0000 0.0000 0.0000 0.0000 0.0000 20.1982
#
#
#
# Elastic Compliance Matrix: (Units=1/GPa)
#
#
# Indices 1 2 3 4 5 6 
#
# 1 0.012451 -0.004639 -0.002447 0.000000 0.000000 0.000000
# 2 -0.004639 0.017676 -0.004109 0.000000 0.000000 0.000000
# 3 -0.002447 -0.004109 0.010685 0.000000 0.000000 0.000000
# 4 0.000000 0.000000 0.000000 0.032932 0.000000 0.000000
# 5 0.000000 0.000000 0.000000 0.000000 0.039624 0.000000
# 6 0.000000 0.000000 0.000000 0.000000 0.000000 0.049509
#
#
# Mechanical properties :
#
#
# Convention : Reuss Voigt Hill
#
# Bulk Modulus (GPa) = 54.27859 56.22285 55.25072
# Shear Modulus (GPa) = 26.12223 27.35244 26.73734
#
# Velocity S-wave (km/s) = 3.55288 3.63557 3.59446
# Velocity P-wave (km/s) = 6.56196 6.69265 6.62763
#
# Compressibility (1/GPa) = 0.01842347
#
# Stress axis : x y z
#
# Youngs Moduli (GPa) = 80.31432 56.57233 93.59082
#
# Poissons Ratio (x) = 0.26243 0.22899
# Poissons Ratio (y) = 0.37256 0.38456
# Poissons Ratio (z) = 0.19651 0.23245
#
# Static dielectric constant tensor:
#      x y z
#    x 3.823550 0.000000 0.000000 
#    y 0.000000 3.537720 0.000000 
#    z 0.000000 0.000000 3.789060 
# 
# 
# High freq. dielectric constant tensor:
#      x y z
#    x 1.814050 0.000000 0.000000 
#    y 0.000000 1.792070 0.000000 
#    z 0.000000 0.000000 1.812890 
# 
# From -- ./inp_files/55266.got.cif
#   From: 2010.03.12/outbox.cif.g09.slc.cpg/sg74_28_cif.got.tgz:55266.got - 2010.04.16 15:46:19.
