data_PCOD8300355
_publ_section_title
;
Structure prediction by ZEFSAII (Michael W. Deem and Ramdas Pophale) SiO2 
 PCOD8300355
Probable space group: I M M A
;
_chemical_formula_sum "Si O2"
_cell_formula_units_Z 72
_cell_length_a 8.715678
_cell_length_b 12.993336
_cell_length_c 32.699942
_cell_angle_alpha 90.000000
_cell_angle_beta 90.000000
_cell_angle_gamma 90.000000
_cell_volume 3703.128892
_symmetry_space_group_name_H-M "I M M A"
_symmetry_group_IT_number 74
_symmetry_cell_setting 'orthorhombic'
loop_
_space_group_symop_operation_xyz
x,y,z
-x,1/2-y,z
x,-y,-z
-x,1/2+y,-z
-x,-y,-z
x,1/2+y,-z
-x,y,z
x,1/2-y,z
1/2+x,1/2+y,1/2+z
1/2-x,-y,1/2+z
1/2+x,1/2-y,1/2-z
1/2-x,y,1/2-z
1/2-x,1/2-y,1/2-z
1/2+x,y,1/2-z
1/2-x,1/2+y,1/2+z
1/2+x,-y,1/2+z
loop_
_atom_site_type_symbol
_atom_site_label
_atom_site_fract_x
_atom_site_fract_y
_atom_site_fract_z
Si Si1 0.318942 0.472683 0.794710
Si Si2 0.179408 0.250000 0.706076
Si Si3 0.320276 0.437641 0.443743
Si Si4 0.822936 0.867424 0.638615
Si Si5 0.678956 0.134203 0.973738
O O1 0.500000 0.482279 0.790003
O O2 0.250000 0.490712 0.750000
O O3 0.271941 0.359725 0.814185
O O4 0.257495 0.559813 0.825456
O O5 0.250000 0.250000 0.750000
O O6 0.000000 0.250000 0.711543
O O7 0.500000 0.427920 0.451774
O O8 0.278252 0.385260 0.401293
O O9 0.271063 0.557642 0.443889
O O10 0.231760 0.378274 0.479550
O O11 0.804268 0.750000 0.653194
O O12 0.000000 0.893625 0.628624
O O13 0.500000 0.107889 0.970996
O O14 0.712407 0.250000 0.958896
#
# Coordination Sequence:
#
# PCOD8300355 Si02
#       5
#    16   8  16  16  16
#     4   9  18  33  54  78 104 136 176 221 272 324
#     4   8  14  28  50  74  98 126 164 210 258 318
#     4  11  22  35  54  80 111 143 178 225 274 321
#     4  10  21  37  54  74 106 146 186 226 269 325
#     4  10  20  36  59  82 106 141 182 222 267 325
#
# _framework density 19.443016
#
# number of rings (size 3 to 8) (size 9 to 14) (size 15 to 20)
#    0.000    2.222    0.000    4.667    0.000    6.222 
#    2.000    0.000    0.000    0.000    0.000    0.000 
#    0.000    0.000    0.000    0.000    0.000    0.000 
#
# Total GULP energy -446209.095134 kJ/mol
# GULP energy per Si atom -12394.697087 kJ/mol
# Density = 1.939876 g / cm^3
# Si number density = 19.443016 Si / 1000 Ang^3
#
#
#
# Elastic Constant Matrix: (Units=GPa)
#
#
# Indices 1 2 3 4 5 6 
#
# 1 34.8269 18.2967 6.4845 0.0000 0.0000 0.0000
# 2 18.2967 136.6886 38.5477 0.0000 0.0000 0.0000
# 3 6.4845 38.5477 64.2696 0.0000 0.0000 0.0000
# 4 0.0000 0.0000 0.0000 27.3478 0.0000 0.0000
# 5 0.0000 0.0000 0.0000 0.0000 25.8051 0.0000
# 6 0.0000 0.0000 0.0000 0.0000 0.0000 18.4653
#
#
#
# Elastic Compliance Matrix: (Units=1/GPa)
#
#
# Indices 1 2 3 4 5 6 
#
# 1 0.030917 -0.003922 -0.000767 0.000000 0.000000 0.000000
# 2 -0.003922 0.009303 -0.005184 0.000000 0.000000 0.000000
# 3 -0.000767 -0.005184 0.018746 0.000000 0.000000 0.000000
# 4 0.000000 0.000000 0.000000 0.036566 0.000000 0.000000
# 5 0.000000 0.000000 0.000000 0.000000 0.038752 0.000000
# 6 0.000000 0.000000 0.000000 0.000000 0.000000 0.054156
#
#
# Mechanical properties :
#
#
# Convention : Reuss Voigt Hill
#
# Bulk Modulus (GPa) = 25.49743 40.27144 32.88444
# Shear Modulus (GPa) = 22.59800 25.82072 24.20936
#
# Velocity S-wave (km/s) = 3.41290 3.64815 3.53249
# Velocity P-wave (km/s) = 5.35471 6.20507 5.79551
#
# Compressibility (1/GPa) = 0.03921963
#
# Stress axis : x y z
#
# Youngs Moduli (GPa) = 32.34490 107.49419 53.34457
#
# Poissons Ratio (x) = 0.42161 0.04091
# Poissons Ratio (y) = 0.12686 0.27653
# Poissons Ratio (z) = 0.02481 0.55724
#
# Static dielectric constant tensor:
#      x y z
#    x 3.551000 0.000000 0.000000 
#    y 0.000000 4.183160 0.000000 
#    z 0.000000 0.000000 3.281430 
# 
# 
# High freq. dielectric constant tensor:
#      x y z
#    x 1.752280 0.000000 0.000000 
#    y 0.000000 1.779920 0.000000 
#    z 0.000000 0.000000 1.726720 
# 
# From -- ./inp_files/69987.got.cif
#   From: 2010.03.12/outbox.cif.g09.slc.cpg/sg74_35_cif.got.tgz:69987.got - 2010.04.16 15:46:19.
