data_PCOD8300340
_publ_section_title
;
Structure prediction by ZEFSAII (Michael W. Deem and Ramdas Pophale) SiO2 
 PCOD8300340
Probable space group: I M M A
;
_chemical_formula_sum "Si O2"
_cell_formula_units_Z 112
_cell_length_a 17.810483
_cell_length_b 31.132152
_cell_length_c 10.075385
_cell_angle_alpha 90.000000
_cell_angle_beta 90.000000
_cell_angle_gamma 90.000000
_cell_volume 5586.586014
_symmetry_space_group_name_H-M "I M M A"
_symmetry_group_IT_number 74
_symmetry_cell_setting 'orthorhombic'
loop_
_space_group_symop_operation_xyz
x,y,z
-x,1/2-y,z
x,-y,-z
-x,1/2+y,-z
-x,-y,-z
x,1/2+y,-z
-x,y,z
x,1/2-y,z
1/2+x,1/2+y,1/2+z
1/2-x,-y,1/2+z
1/2+x,1/2-y,1/2-z
1/2-x,y,1/2-z
1/2-x,1/2-y,1/2-z
1/2+x,y,1/2-z
1/2-x,1/2+y,1/2+z
1/2+x,-y,1/2+z
loop_
_atom_site_type_symbol
_atom_site_label
_atom_site_fract_x
_atom_site_fract_y
_atom_site_fract_z
Si Si1 0.411327 0.454371 0.263272
Si Si2 0.087083 0.799056 0.616735
Si Si3 0.159984 0.367946 0.884242
Si Si4 0.588578 0.361981 0.348777
Si Si5 0.586879 0.954525 0.314439
Si Si6 0.914807 0.430813 0.517306
Si Si7 0.665531 0.151159 0.906315
O O1 0.500000 0.453142 0.276757
O O2 0.378088 0.409918 0.321981
O O3 0.385664 0.496610 0.348323
O O4 0.388152 0.459494 0.107961
O O5 0.097737 0.750000 0.661052
O O6 0.116851 0.828597 0.737711
O O7 0.138954 0.806586 0.485817
O O8 0.000000 0.808793 0.582506
O O9 0.141532 0.419343 0.880272
O O10 0.246417 0.357242 0.903602
O O11 0.132937 0.347429 0.744406
O O12 0.116611 0.346411 0.006747
O O13 0.500000 0.362414 0.350021
O O14 0.500000 0.945475 0.357881
O O15 0.594361 0.955020 0.155321
O O16 0.868529 0.387392 0.510080
O O17 0.000000 0.416539 0.493023
#
# Coordination Sequence:
#
# PCOD8300340 Si02
#       7
#    16  16  16  16  16  16  16
#     4   9  16  28  51  81 109 141 189 244 291 338
#     4  10  21  40  67  94 115 140 187 248 302 358
#     4  10  22  36  54  78 119 159 192 232 282 346
#     4  10  20  36  58  85 116 148 186 239 303 355
#     4   9  17  29  51  79 108 149 198 244 284 332
#     4   9  15  28  53  79 105 140 192 246 288 333
#     4  10  20  38  59  79 115 157 196 235 282 348
#
# _framework density 20.048023000000001
#
# number of rings (size 3 to 8) (size 9 to 14) (size 15 to 20)
#    0.000    2.429    1.429    1.286    0.000    4.571 
#    0.000    5.714   22.000    1.714    0.000    0.000 
#    0.000    0.000    0.000    0.000    0.000    0.000 
#
# Total GULP energy -693887.528276 kJ/mol
# GULP energy per Si atom -12390.848719 kJ/mol
# Density = 2.000239 g / cm^3
# Si number density = 20.048023 Si / 1000 Ang^3
#
#
#
# Elastic Constant Matrix: (Units=GPa)
#
#
# Indices 1 2 3 4 5 6 
#
# 1 37.4852 30.1818 35.2134 0.0033 0.0005 0.0004
# 2 30.1818 101.6450 56.4782 0.0055 0.0012 -0.0005
# 3 35.2134 56.4782 121.2695 0.0011 -0.0001 0.0009
# 4 0.0033 0.0055 0.0011 17.4416 0.0008 -0.0008
# 5 0.0005 0.0012 -0.0001 0.0008 24.3913 -0.0027
# 6 0.0004 -0.0005 0.0009 -0.0008 -0.0027 11.7605
#
#
#
# Elastic Compliance Matrix: (Units=1/GPa)
#
#
# Indices 1 2 3 4 5 6 
#
# 1 0.040422 -0.007394 -0.008294 -0.000005 -0.000001 -0.000001
# 2 -0.007394 0.014625 -0.004664 -0.000003 -0.000001 0.000001
# 3 -0.008294 -0.004664 0.012827 0.000002 0.000000 -0.000001
# 4 -0.000005 -0.000003 0.000002 0.057334 -0.000002 0.000004
# 5 -0.000001 -0.000001 0.000000 -0.000002 0.040998 0.000009
# 6 -0.000001 0.000001 -0.000001 0.000004 0.000009 0.085030
#
#
# Mechanical properties :
#
#
# Convention : Reuss Voigt Hill
#
# Bulk Modulus (GPa) = 36.80621 56.01629 46.41125
# Shear Modulus (GPa) = 16.61141 19.95376 18.28259
#
# Velocity S-wave (km/s) = 2.88163 3.15826 3.02311
# Velocity P-wave (km/s) = 5.42868 6.42660 5.94860
#
# Compressibility (1/GPa) = 0.02716933
#
# Stress axis : x y z
#
# Youngs Moduli (GPa) = 24.73909 68.37387 77.96245
#
# Poissons Ratio (x) = 0.50557 0.64660
# Poissons Ratio (y) = 0.18293 0.36364
# Poissons Ratio (z) = 0.20518 0.31892
#
# Static dielectric constant tensor:
#      x y z
#    x 3.347310 0.000000 0.000000 
#    y 0.000000 3.727450 -0.000010 
#    z 0.000000 -0.000010 3.958190 
# 
# 
# High freq. dielectric constant tensor:
#      x y z
#    x 1.742030 0.000000 0.000000 
#    y 0.000000 1.763880 0.000000 
#    z 0.000000 0.000000 1.796240 
# 
# From -- ./inp_files/21159.got.cif
#   From: 2010.03.12/outbox.cif.g09.slc.cpg/sg74_11_cif.got.tgz:21159.got - 2010.04.16 15:46:19.
