data_PCOD8300317
_publ_section_title
;
Structure prediction by ZEFSAII (Michael W. Deem and Ramdas Pophale) SiO2 
 PCOD8300317
Probable space group: I M M A
;
_chemical_formula_sum "Si O2"
_cell_formula_units_Z 80
_cell_length_a 17.938642
_cell_length_b 9.007824
_cell_length_c 25.676729
_cell_angle_alpha 90.000000
_cell_angle_beta 90.000000
_cell_angle_gamma 90.000000
_cell_volume 4149.054622
_symmetry_space_group_name_H-M "I M M A"
_symmetry_group_IT_number 74
_symmetry_cell_setting 'orthorhombic'
loop_
_space_group_symop_operation_xyz
x,y,z
-x,1/2-y,z
x,-y,-z
-x,1/2+y,-z
-x,-y,-z
x,1/2+y,-z
-x,y,z
x,1/2-y,z
1/2+x,1/2+y,1/2+z
1/2-x,-y,1/2+z
1/2+x,1/2-y,1/2-z
1/2-x,y,1/2-z
1/2-x,1/2-y,1/2-z
1/2+x,y,1/2-z
1/2-x,1/2+y,1/2+z
1/2+x,-y,1/2+z
loop_
_atom_site_type_symbol
_atom_site_label
_atom_site_fract_x
_atom_site_fract_y
_atom_site_fract_z
Si Si1 0.084263 0.573411 0.150306
Si Si2 0.914441 0.079185 0.348893
Si Si3 0.677994 0.075884 0.552969
Si Si4 0.150275 0.924288 0.446764
Si Si5 0.837770 0.079331 0.744947
O O1 0.086256 0.750000 0.149271
O O2 0.129033 0.511473 0.100465
O O3 0.123642 0.516739 0.202852
O O4 0.000000 0.512484 0.148420
O O5 0.894328 0.250000 0.359394
O O6 0.000000 0.058841 0.332323
O O7 0.900167 0.986960 0.400918
O O8 0.863233 0.019380 0.302938
O O9 0.666283 0.250000 0.546224
O O10 0.763687 0.036628 0.564927
O O11 0.650205 0.000000 0.500000
O O12 0.137290 0.750000 0.451598
O O13 0.123673 0.000000 0.500000
O O14 0.860812 0.250000 0.734628
O O15 0.750000 0.063753 0.750000
#
# Coordination Sequence:
#
# PCOD8300317 Si02
#       5
#    16  16  16  16  16
#     4   9  17  30  50  76 106 139 175 217 265 316
#     4  11  24  39  55  80 114 147 180 222 274 331
#     4   9  18  33  53  78 106 137 176 219 261 311
#     4  10  20  36  58  81 107 141 182 227 272 322
#     4  10  20  36  59  83 106 139 186 232 274 326
#
# _framework density 19.281500000000001
#
# number of rings (size 3 to 8) (size 9 to 14) (size 15 to 20)
#    0.000    2.200    0.000    3.000    0.000    7.600 
#    0.000    1.000    0.000    1.200    0.000    0.000 
#    0.000    0.000    0.000    0.000    0.000    0.000 
#
# Total GULP energy -496160.865041 kJ/mol
# GULP energy per Si atom -12404.021626 kJ/mol
# Density = 1.923761 g / cm^3
# Si number density = 19.281500 Si / 1000 Ang^3
#
#
#
# Elastic Constant Matrix: (Units=GPa)
#
#
# Indices 1 2 3 4 5 6 
#
# 1 67.3542 31.3343 38.9223 0.0000 0.0000 0.0000
# 2 31.3343 65.8880 46.2910 0.0000 0.0000 0.0000
# 3 38.9223 46.2910 138.8544 0.0000 0.0000 0.0000
# 4 0.0000 0.0000 0.0000 37.4855 0.0000 0.0000
# 5 0.0000 0.0000 0.0000 0.0000 26.6193 0.0000
# 6 0.0000 0.0000 0.0000 0.0000 0.0000 -4.2259
#
#
#
# Elastic Compliance Matrix: (Units=1/GPa)
#
#
# Indices 1 2 3 4 5 6 
#
# 1 0.020095 -0.007312 -0.003195 0.000000 0.000000 0.000000
# 2 -0.007312 0.022480 -0.005445 0.000000 0.000000 0.000000
# 3 -0.003195 -0.005445 0.009913 0.000000 0.000000 0.000000
# 4 0.000000 0.000000 0.000000 0.026677 0.000000 0.000000
# 5 0.000000 0.000000 0.000000 0.000000 0.037567 0.000000
# 6 0.000000 0.000000 0.000000 0.000000 0.000000 -0.236638
#
#
# Mechanical properties :
#
#
# Convention : Reuss Voigt Hill
#
# Bulk Modulus (GPa) = 48.58143 56.13245 52.35694
# Shear Modulus (GPa) = -61.61999 22.34573 -19.63713
#
# Velocity S-wave (km/s) = -5.65928 3.40799 -3.19477
# Velocity P-wave (km/s) = 4.17764 6.68290 3.68839
#
# Compressibility (1/GPa) = 0.02058400
#
# Stress axis : x y z
#
# Youngs Moduli (GPa) = 49.76408 44.48445 100.88152
#
# Poissons Ratio (x) = 0.32525 0.32234
# Poissons Ratio (y) = 0.36385 0.54927
# Poissons Ratio (z) = 0.15901 0.24221
#
# Static dielectric constant tensor:
#      x y z
#    x 3.567870 0.000000 0.000000 
#    y 0.000000 3.325110 0.000000 
#    z 0.000000 0.000000 3.746960 
# 
# 
# High freq. dielectric constant tensor:
#      x y z
#    x 1.753370 0.000000 0.000000 
#    y 0.000000 1.727740 0.000000 
#    z 0.000000 0.000000 1.765260 
# 
# From -- ./inp_files/63936.got.cif
#   From: 2010.03.12/outbox.cif.g09.slc.cpg/sg74_32_cif.got.tgz:63936.got - 2010.04.16 15:46:19.
