data_PCOD8300749
_publ_section_title
;
Structure prediction by ZEFSAII (Michael W. Deem and Ramdas Pophale) SiO2 
 PCOD8300749
Probable space group: I M M A
;
_chemical_formula_sum "Si O2"
_cell_formula_units_Z 88
_cell_length_a 23.189359
_cell_length_b 9.659072
_cell_length_c 20.419110
_cell_angle_alpha 90.000000
_cell_angle_beta 90.000000
_cell_angle_gamma 90.000000
_cell_volume 4573.629244
_symmetry_space_group_name_H-M "I M M A"
_symmetry_group_IT_number 74
_symmetry_cell_setting 'orthorhombic'
loop_
_space_group_symop_operation_xyz
x,y,z
-x,1/2-y,z
x,-y,-z
-x,1/2+y,-z
-x,-y,-z
x,1/2+y,-z
-x,y,z
x,1/2-y,z
1/2+x,1/2+y,1/2+z
1/2-x,-y,1/2+z
1/2+x,1/2-y,1/2-z
1/2-x,y,1/2-z
1/2-x,1/2-y,1/2-z
1/2+x,y,1/2-z
1/2-x,1/2+y,1/2+z
1/2+x,-y,1/2+z
loop_
_atom_site_type_symbol
_atom_site_label
_atom_site_fract_x
_atom_site_fract_y
_atom_site_fract_z
Si Si1 0.647953 0.500000 0.000000
Si Si2 0.841658 0.413725 0.705164
Si Si3 0.731379 0.408984 0.109354
Si Si4 0.330701 0.591968 0.356018
Si Si5 0.564331 0.594004 0.442367
Si Si6 0.063128 0.092663 0.609630
O O1 0.690289 0.591961 0.954753
O O2 0.605042 0.414911 0.953346
O O3 0.831441 0.250000 0.692223
O O4 0.793580 0.503028 0.669227
O O5 0.834711 0.451912 0.780524
O O6 0.903451 0.461856 0.674586
O O7 0.741635 0.250000 0.129538
O O8 0.792381 0.487602 0.099441
O O9 0.307818 0.750000 0.364264
O O10 0.396248 0.578478 0.379052
O O11 0.589386 0.500000 0.500000
O O12 0.500000 0.546973 0.422024
O O13 0.564702 0.750000 0.469033
O O14 0.048539 0.250000 0.621200
O O15 0.000000 0.016624 0.600963
#
# Coordination Sequence:
#
# PCOD8300749 Si02
#       6
#     8  16  16  16  16  16
#     4  10  21  36  50  74 113 148 178 220 276 322
#     4   9  19  36  55  78 110 144 178 222 273 322
#     4  11  23  36  54  79 109 145 185 227 268 318
#     4  10  21  36  56  80 108 143 180 221 271 326
#     4   9  19  36  56  79 107 138 174 220 272 325
#     4   9  17  31  54  80 104 136 180 223 264 318
#
# _framework density 19.240739000000001
#
# number of rings (size 3 to 8) (size 9 to 14) (size 15 to 20)
#    0.000    2.364    0.000    1.909    1.273    6.545 
#    0.000    3.636    0.000    4.909    0.000    5.091 
#    0.000    0.000    0.000    0.000    0.000    0.000 
#
# Total GULP energy -545163.524886 kJ/mol
# GULP energy per Si atom -12390.080111 kJ/mol
# Density = 1.919695 g / cm^3
# Si number density = 19.240739 Si / 1000 Ang^3
#
#
#
# Elastic Constant Matrix: (Units=GPa)
#
#
# Indices 1 2 3 4 5 6 
#
# 1 112.6748 35.0938 46.3213 0.0000 0.0000 0.0000
# 2 35.0938 78.0084 29.4117 0.0000 0.0000 0.0000
# 3 46.3213 29.4117 71.8155 0.0000 0.0000 0.0000
# 4 0.0000 0.0000 0.0000 21.5754 0.0000 0.0000
# 5 0.0000 0.0000 0.0000 0.0000 20.5656 0.0000
# 6 0.0000 0.0000 0.0000 0.0000 0.0000 20.1648
#
#
#
# Elastic Compliance Matrix: (Units=1/GPa)
#
#
# Indices 1 2 3 4 5 6 
#
# 1 0.012681 -0.003100 -0.006910 0.000000 0.000000 0.000000
# 2 -0.003100 0.015918 -0.004520 0.000000 0.000000 0.000000
# 3 -0.006910 -0.004520 0.020233 0.000000 0.000000 0.000000
# 4 0.000000 0.000000 0.000000 0.046349 0.000000 0.000000
# 5 0.000000 0.000000 0.000000 0.000000 0.048625 0.000000
# 6 0.000000 0.000000 0.000000 0.000000 0.000000 0.049591
#
#
# Mechanical properties :
#
#
# Convention : Reuss Voigt Hill
#
# Bulk Modulus (GPa) = 50.57469 53.79471 52.18470
# Shear Modulus (GPa) = 21.82964 22.57263 22.20113
#
# Velocity S-wave (km/s) = 3.37197 3.42887 3.40054
# Velocity P-wave (km/s) = 6.44224 6.61027 6.52680
#
# Compressibility (1/GPa) = 0.01977273
#
# Stress axis : x y z
#
# Youngs Moduli (GPa) = 78.85645 62.82332 49.42522
#
# Poissons Ratio (x) = 0.19473 0.34153
# Poissons Ratio (y) = 0.24443 0.22339
# Poissons Ratio (z) = 0.54490 0.28394
#
# Static dielectric constant tensor:
#      x y z
#    x 4.168920 0.000000 0.000000 
#    y 0.000000 3.515700 0.000000 
#    z 0.000000 0.000000 3.452080 
# 
# 
# High freq. dielectric constant tensor:
#      x y z
#    x 1.765410 0.000000 0.000000 
#    y 0.000000 1.723110 0.000000 
#    z 0.000000 0.000000 1.741640 
# 
# From -- ./inp_files/54540.got.cif
#   From: 2010.03.12/outbox.cif.g09.slc.cpg/sg74_28_cif.got.tgz:54540.got - 2010.04.16 15:46:19.
