data_PCOD8300706
_publ_section_title
;
Structure prediction by ZEFSAII (Michael W. Deem and Ramdas Pophale) SiO2 
 PCOD8300706
Probable space group: I M M A
;
_chemical_formula_sum "Si O2"
_cell_formula_units_Z 104
_cell_length_a 28.314347
_cell_length_b 21.399775
_cell_length_c 9.235997
_cell_angle_alpha 90.000000
_cell_angle_beta 90.000000
_cell_angle_gamma 90.000000
_cell_volume 5596.281352
_symmetry_space_group_name_H-M "I M M A"
_symmetry_group_IT_number 74
_symmetry_cell_setting 'orthorhombic'
loop_
_space_group_symop_operation_xyz
x,y,z
-x,1/2-y,z
x,-y,-z
-x,1/2+y,-z
-x,-y,-z
x,1/2+y,-z
-x,y,z
x,1/2-y,z
1/2+x,1/2+y,1/2+z
1/2-x,-y,1/2+z
1/2+x,1/2-y,1/2-z
1/2-x,y,1/2-z
1/2-x,1/2-y,1/2-z
1/2+x,y,1/2-z
1/2-x,1/2+y,1/2+z
1/2+x,-y,1/2+z
loop_
_atom_site_type_symbol
_atom_site_label
_atom_site_fract_x
_atom_site_fract_y
_atom_site_fract_z
Si Si1 0.773284 0.420980 0.899779
Si Si2 0.445860 0.821400 0.898163
Si Si3 0.679968 0.431335 0.039515
Si Si4 0.141480 0.000000 0.000000
Si Si5 0.132077 0.820720 0.374738
Si Si6 0.880656 0.603272 0.804677
Si Si7 0.839720 0.820018 0.061544
O O1 0.750000 0.442048 0.750000
O O2 0.787849 0.348481 0.904968
O O3 0.737232 0.436618 0.031428
O O4 0.824139 0.453842 0.913135
O O5 0.500000 0.838881 0.925959
O O6 0.440479 0.750000 0.841841
O O7 0.425723 0.870069 0.780098
O O8 0.418709 0.830503 0.049752
O O9 0.663204 0.410440 0.197592
O O10 0.658171 0.500000 0.000000
O O11 0.666722 0.376182 0.926588
O O12 0.107962 0.038320 0.111124
O O13 0.151075 0.750000 0.412519
O O14 0.126163 0.827052 0.201981
O O15 0.865232 0.653686 0.920882
O O16 0.828363 0.750000 0.022686
#
# Coordination Sequence:
#
# PCOD8300706 Si02
#       7
#    16  16  16   8  16  16  16
#     4  11  20  32  51  76 108 148 201 242 272 322
#     4   9  18  37  65  89 108 138 187 239 290 356
#     4  11  21  35  57  82 110 152 200 245 278 328
#     4  10  22  32  49  76 112 154 189 234 284 332
#     4   9  19  36  57  83 112 147 186 234 294 350
#     4  10  22  36  55  81 116 150 185 240 293 343
#     4  10  21  35  52  78 115 152 186 230 289 349
#
# _framework density 18.583767999999999
#
# number of rings (size 3 to 8) (size 9 to 14) (size 15 to 20)
#    0.000    2.000    2.308    1.385    2.154    3.385 
#    0.000    1.923    0.000   10.154    0.000    0.000 
#    0.000    0.000    0.000    0.000    0.000    0.000 
#
# Total GULP energy -644420.866710 kJ/mol
# GULP energy per Si atom -12392.708975 kJ/mol
# Density = 1.854147 g / cm^3
# Si number density = 18.583768 Si / 1000 Ang^3
#
#
#
# Elastic Constant Matrix: (Units=GPa)
#
#
# Indices 1 2 3 4 5 6 
#
# 1 77.9832 37.7126 28.8209 0.0000 0.0000 0.0000
# 2 37.7126 128.4111 52.0863 0.0000 0.0000 0.0000
# 3 28.8209 52.0863 104.8406 0.0000 0.0000 0.0000
# 4 0.0000 0.0000 0.0000 34.3057 0.0000 0.0000
# 5 0.0000 0.0000 0.0000 0.0000 17.8129 0.0000
# 6 0.0000 0.0000 0.0000 0.0000 0.0000 23.0365
#
#
#
# Elastic Compliance Matrix: (Units=1/GPa)
#
#
# Indices 1 2 3 4 5 6 
#
# 1 0.015451 -0.003525 -0.002496 0.000000 0.000000 0.000000
# 2 -0.003525 0.010557 -0.004276 0.000000 0.000000 0.000000
# 3 -0.002496 -0.004276 0.012349 0.000000 0.000000 0.000000
# 4 0.000000 0.000000 0.000000 0.029150 0.000000 0.000000
# 5 0.000000 0.000000 0.000000 0.000000 0.056139 0.000000
# 6 0.000000 0.000000 0.000000 0.000000 0.000000 0.043409
#
#
# Mechanical properties :
#
#
# Convention : Reuss Voigt Hill
#
# Bulk Modulus (GPa) = 56.29895 60.94160 58.62027
# Shear Modulus (GPa) = 25.83051 27.87202 26.85127
#
# Velocity S-wave (km/s) = 3.73225 3.87693 3.80528
# Velocity P-wave (km/s) = 6.99524 7.27358 7.13576
#
# Compressibility (1/GPa) = 0.01776232
#
# Stress axis : x y z
#
# Youngs Moduli (GPa) = 64.72277 94.72230 80.97968
#
# Poissons Ratio (x) = 0.33391 0.20213
# Poissons Ratio (y) = 0.22816 0.34626
# Poissons Ratio (z) = 0.16155 0.40502
#
# Static dielectric constant tensor:
#      x y z
#    x 3.134090 0.000000 0.000000 
#    y 0.000000 3.900460 0.000000 
#    z 0.000000 0.000000 3.471850 
# 
# 
# High freq. dielectric constant tensor:
#      x y z
#    x 1.675070 0.000000 0.000000 
#    y 0.000000 1.743750 0.000000 
#    z 0.000000 0.000000 1.726940 
# 
# From -- ./inp_files/16198.got.cif
#   From: 2010.03.12/outbox.cif.g09.slc.cpg/sg74_9_cif.got.tgz:16198.got - 2010.04.16 15:46:19.
