data_PCOD8300285
_publ_section_title
;
Structure prediction by ZEFSAII (Michael W. Deem and Ramdas Pophale) SiO2 
 PCOD8300285
Probable space group: I M M A
;
_chemical_formula_sum "Si O2"
_cell_formula_units_Z 72
_cell_length_a 8.559104
_cell_length_b 16.358059
_cell_length_c 27.374150
_cell_angle_alpha 90.000000
_cell_angle_beta 90.000000
_cell_angle_gamma 90.000000
_cell_volume 3832.663726
_symmetry_space_group_name_H-M "I M M A"
_symmetry_group_IT_number 74
_symmetry_cell_setting 'orthorhombic'
loop_
_space_group_symop_operation_xyz
x,y,z
-x,1/2-y,z
x,-y,-z
-x,1/2+y,-z
-x,-y,-z
x,1/2+y,-z
-x,y,z
x,1/2-y,z
1/2+x,1/2+y,1/2+z
1/2-x,-y,1/2+z
1/2+x,1/2-y,1/2-z
1/2-x,y,1/2-z
1/2-x,1/2-y,1/2-z
1/2+x,y,1/2-z
1/2-x,1/2+y,1/2+z
1/2+x,-y,1/2+z
loop_
_atom_site_type_symbol
_atom_site_label
_atom_site_fract_x
_atom_site_fract_y
_atom_site_fract_z
Si Si1 0.680334 0.658057 0.384129
Si Si2 0.184277 0.589803 0.853239
Si Si3 0.183189 0.006714 0.946377
Si Si4 0.318118 0.437396 0.800754
Si Si5 0.316927 0.250000 0.195226
O O1 0.500000 0.646261 0.368487
O O2 0.715396 0.750000 0.401451
O O3 0.722110 0.598174 0.428646
O O4 0.788804 0.636120 0.338424
O O5 0.245493 0.560580 0.907115
O O6 0.224161 0.518690 0.815187
O O7 0.267193 0.672061 0.836410
O O8 0.000000 0.604729 0.853358
O O9 0.000000 0.992013 0.950973
O O10 0.262475 0.000000 0.000000
O O11 0.500000 0.458112 0.797425
O O12 0.250000 0.405709 0.750000
O O13 0.500000 0.250000 0.201583
O O14 0.250000 0.250000 0.250000
#
# Coordination Sequence:
#
# PCOD8300285 Si02
#       5
#    16  16  16  16   8
#     4   9  18  33  52  76 106 139 176 221 265 311
#     4  10  20  36  56  81 111 142 182 227 271 322
#     4   8  15  31  55  82 108 136 175 225 271 314
#     4  11  21  34  53  76 104 141 178 217 265 320
#     4  12  24  38  56  80 114 150 188 230 279 332
#
# _framework density 18.785890999999999
#
# number of rings (size 3 to 8) (size 9 to 14) (size 15 to 20)
#    0.000    2.222    0.000    5.667    0.000    0.889 
#    2.000    0.000    0.000   16.667    0.000    0.000 
#    0.000    0.000    0.000    0.000    0.000    0.000 
#
# Total GULP energy -446308.319170 kJ/mol
# GULP energy per Si atom -12397.453310 kJ/mol
# Density = 1.874313 g / cm^3
# Si number density = 18.785891 Si / 1000 Ang^3
#
#
#
# Elastic Constant Matrix: (Units=GPa)
#
#
# Indices 1 2 3 4 5 6 
#
# 1 76.1175 31.5782 38.4394 0.0000 0.0000 0.0000
# 2 31.5782 144.4529 72.3230 0.0000 0.0000 0.0000
# 3 38.4394 72.3230 154.6851 0.0000 0.0000 0.0000
# 4 0.0000 0.0000 0.0000 39.4856 0.0000 0.0000
# 5 0.0000 0.0000 0.0000 0.0000 19.7086 0.0000
# 6 0.0000 0.0000 0.0000 0.0000 0.0000 25.6549
#
#
#
# Elastic Compliance Matrix: (Units=1/GPa)
#
#
# Indices 1 2 3 4 5 6 
#
# 1 0.015410 -0.001895 -0.002943 0.000000 0.000000 0.000000
# 2 -0.001895 0.009272 -0.003864 0.000000 0.000000 0.000000
# 3 -0.002943 -0.003864 0.009003 0.000000 0.000000 0.000000
# 4 0.000000 0.000000 0.000000 0.025326 0.000000 0.000000
# 5 0.000000 0.000000 0.000000 0.000000 0.050739 0.000000
# 6 0.000000 0.000000 0.000000 0.000000 0.000000 0.038979
#
#
# Mechanical properties :
#
#
# Convention : Reuss Voigt Hill
#
# Bulk Modulus (GPa) = 61.42660 73.32629 67.37645
# Shear Modulus (GPa) = 29.14435 32.49748 30.82091
#
# Velocity S-wave (km/s) = 3.94305 4.16370 4.05488
# Velocity P-wave (km/s) = 7.31433 7.88877 7.60697
#
# Compressibility (1/GPa) = 0.01627959
#
# Stress axis : x y z
#
# Youngs Moduli (GPa) = 64.89209 107.85727 111.07676
#
# Poissons Ratio (x) = 0.20440 0.32694
# Poissons Ratio (y) = 0.12298 0.42920
# Poissons Ratio (z) = 0.19100 0.41676
#
# Static dielectric constant tensor:
#      x y z
#    x 3.313390 0.000000 0.000000 
#    y 0.000000 3.481860 0.000000 
#    z 0.000000 0.000000 3.782730 
# 
# 
# High freq. dielectric constant tensor:
#      x y z
#    x 1.713130 0.000000 0.000000 
#    y 0.000000 1.728460 0.000000 
#    z 0.000000 0.000000 1.730680 
# 
# From -- ./inp_files/63642.got.cif
#   From: 2010.03.12/outbox.cif.g09.slc.cpg/sg74_32_cif.got.tgz:63642.got - 2010.04.16 15:46:19.
