data_PCOD8300650
_publ_section_title
;
Structure prediction by ZEFSAII (Michael W. Deem and Ramdas Pophale) SiO2 
 PCOD8300650
Probable space group: I M M A
;
_chemical_formula_sum "Si O2"
_cell_formula_units_Z 96
_cell_length_a 25.882462
_cell_length_b 18.165758
_cell_length_c 10.149161
_cell_angle_alpha 90.000000
_cell_angle_beta 90.000000
_cell_angle_gamma 90.000000
_cell_volume 4771.877116
_symmetry_space_group_name_H-M "I M M A"
_symmetry_group_IT_number 74
_symmetry_cell_setting 'orthorhombic'
loop_
_space_group_symop_operation_xyz
x,y,z
-x,1/2-y,z
x,-y,-z
-x,1/2+y,-z
-x,-y,-z
x,1/2+y,-z
-x,y,z
x,1/2-y,z
1/2+x,1/2+y,1/2+z
1/2-x,-y,1/2+z
1/2+x,1/2-y,1/2-z
1/2-x,y,1/2-z
1/2-x,1/2-y,1/2-z
1/2+x,y,1/2-z
1/2-x,1/2+y,1/2+z
1/2+x,-y,1/2+z
loop_
_atom_site_type_symbol
_atom_site_label
_atom_site_fract_x
_atom_site_fract_y
_atom_site_fract_z
Si Si1 0.239568 0.937116 0.606924
Si Si2 0.157483 0.588005 0.004975
Si Si3 0.556023 0.934014 0.604074
Si Si4 0.941129 0.935436 0.595721
Si Si5 0.308864 0.833966 0.249241
Si Si6 0.849194 0.665586 0.543103
O O1 0.250000 0.973965 0.750000
O O2 0.289237 0.887236 0.565210
O O3 0.191286 0.882833 0.625652
O O4 0.226882 0.000000 0.500000
O O5 0.156652 0.617120 0.153381
O O6 0.157779 0.500000 0.000000
O O7 0.105263 0.617787 0.932352
O O8 0.500000 0.892671 0.594204
O O9 0.563540 0.963151 0.753154
O O10 0.555748 0.000000 0.500000
O O11 0.906804 0.863253 0.570650
O O12 0.000000 0.914217 0.560474
O O13 0.921054 0.000000 0.500000
O O14 0.309852 0.750000 0.298941
O O15 0.250000 0.863072 0.250000
O O16 0.335031 0.843064 0.109024
O O17 0.846125 0.750000 0.589219
#
# Coordination Sequence:
#
# PCOD8300650 Si02
#       6
#    16  16  16  16  16  16
#     4  11  24  37  60  92 124 158 206 260 314 370
#     4  10  21  32  58  90 119 154 200 249 308 357
#     4   9  19  37  60  90 123 156 196 246 310 363
#     4  10  22  40  65  96 124 159 207 259 310 363
#     4  10  21  40  61  86 122 167 206 248 305 372
#     4  11  24  40  62  89 125 168 208 251 311 377
#
# _framework density 20.11787
#
# number of rings (size 3 to 8) (size 9 to 14) (size 15 to 20)
#    0.000    1.833    1.667    1.500    9.333    0.667 
#    0.000    2.500    0.000    2.500    0.000    0.000 
#    0.000    0.000    0.000    0.000    0.000    0.000 
#
# Total GULP energy -594975.626211 kJ/mol
# GULP energy per Si atom -12395.325546 kJ/mol
# Density = 2.007208 g / cm^3
# Si number density = 20.117870 Si / 1000 Ang^3
#
#
#
# Elastic Constant Matrix: (Units=GPa)
#
#
# Indices 1 2 3 4 5 6 
#
# 1 141.2749 41.6133 28.6677 0.0000 0.0000 0.0000
# 2 41.6133 88.7132 45.0816 0.0000 0.0000 0.0000
# 3 28.6677 45.0816 121.2753 0.0000 0.0000 0.0000
# 4 0.0000 0.0000 0.0000 29.2465 0.0000 0.0000
# 5 0.0000 0.0000 0.0000 0.0000 33.3886 0.0000
# 6 0.0000 0.0000 0.0000 0.0000 0.0000 12.9028
#
#
#
# Elastic Compliance Matrix: (Units=1/GPa)
#
#
# Indices 1 2 3 4 5 6 
#
# 1 0.008252 -0.003550 -0.000631 0.000000 0.000000 0.000000
# 2 -0.003550 0.015425 -0.004895 0.000000 0.000000 0.000000
# 3 -0.000631 -0.004895 0.010214 0.000000 0.000000 0.000000
# 4 0.000000 0.000000 0.000000 0.034192 0.000000 0.000000
# 5 0.000000 0.000000 0.000000 0.000000 0.029950 0.000000
# 6 0.000000 0.000000 0.000000 0.000000 0.000000 0.077502
#
#
# Mechanical properties :
#
#
# Convention : Reuss Voigt Hill
#
# Bulk Modulus (GPa) = 63.53368 64.66539 64.09954
# Shear Modulus (GPa) = 25.13388 30.83431 27.98410
#
# Velocity S-wave (km/s) = 3.53842 3.91920 3.73367
# Velocity P-wave (km/s) = 6.95293 7.25901 7.10761
#
# Compressibility (1/GPa) = 0.01573968
#
# Stress axis : x y z
#
# Youngs Moduli (GPa) = 121.17998 64.82990 97.90148
#
# Poissons Ratio (x) = 0.23016 0.06177
# Poissons Ratio (y) = 0.43022 0.47920
# Poissons Ratio (z) = 0.07646 0.31732
#
# Static dielectric constant tensor:
#      x y z
#    x 4.710200 0.000000 0.000000 
#    y 0.000000 3.317880 0.000000 
#    z 0.000000 0.000000 3.745550 
# 
# 
# High freq. dielectric constant tensor:
#      x y z
#    x 1.804060 0.000000 0.000000 
#    y 0.000000 1.737630 0.000000 
#    z 0.000000 0.000000 1.797790 
# 
# From -- ./inp_files/15125.got.cif
#   From: 2010.03.12/outbox.cif.g09.slc.cpg/sg74_8_cif.got.tgz:15125.got - 2010.04.16 15:46:19.
