data_PCOD8300052
_publ_section_title
;
Structure prediction by ZEFSAII (Michael W. Deem and Ramdas Pophale) SiO2 
 PCOD8300052
Probable space group: I M M A
;
_chemical_formula_sum "Si O2"
_cell_formula_units_Z 72
_cell_length_a 14.971527
_cell_length_b 9.003811
_cell_length_c 29.008748
_cell_angle_alpha 90.000000
_cell_angle_beta 90.000000
_cell_angle_gamma 90.000000
_cell_volume 3910.402423
_symmetry_space_group_name_H-M "I M M A"
_symmetry_group_IT_number 74
_symmetry_cell_setting 'orthorhombic'
loop_
_space_group_symop_operation_xyz
x,y,z
-x,1/2-y,z
x,-y,-z
-x,1/2+y,-z
-x,-y,-z
x,1/2+y,-z
-x,y,z
x,1/2-y,z
1/2+x,1/2+y,1/2+z
1/2-x,-y,1/2+z
1/2+x,1/2-y,1/2-z
1/2-x,y,1/2-z
1/2-x,1/2-y,1/2-z
1/2+x,y,1/2-z
1/2-x,1/2+y,1/2+z
1/2+x,-y,1/2+z
loop_
_atom_site_type_symbol
_atom_site_label
_atom_site_fract_x
_atom_site_fract_y
_atom_site_fract_z
Si Si1 0.748056 0.075792 0.636526
Si Si2 0.305584 0.924069 0.549700
Si Si3 0.398164 0.579624 0.208089
Si Si4 0.396208 0.422624 0.302190
Si Si5 0.000000 0.418355 0.046957
O O1 0.737013 0.250000 0.629042
O O2 0.836349 0.035430 0.665285
O O3 0.760560 0.998212 0.586677
O O4 0.660745 0.015520 0.661877
O O5 0.284647 0.750000 0.544654
O O6 0.405637 0.953182 0.571868
O O7 0.293621 0.000000 0.500000
O O8 0.500000 0.553624 0.192490
O O9 0.381867 0.750000 0.223193
O O10 0.372417 0.475680 0.250773
O O11 0.500000 0.451934 0.313297
O O12 0.372004 0.250000 0.306733
O O13 0.000000 0.250000 0.031916
O O14 0.000000 0.500000 0.000000
#
# Coordination Sequence:
#
# PCOD8300052 Si02
#       5
#    16  16  16  16   8
#     4  11  22  34  53  80 106 138 178 217 261 313
#     4  10  20  35  53  75 105 139 175 215 259 308
#     4   9  19  37  57  76 103 138 176 219 266 314
#     4  10  21  35  52  77 110 143 175 213 258 310
#     4   8  16  30  48  68  94 130 166 200 242 294
#
# _framework density 18.412427999999998
#
# number of rings (size 3 to 8) (size 9 to 14) (size 15 to 20)
#    0.000    2.222    0.000    2.667    1.556    6.667 
#    0.000    0.000    0.000    0.667    0.000    0.000 
#    0.000    0.000    0.000    0.000    0.000    0.000 
#
# Total GULP energy -446255.305975 kJ/mol
# GULP energy per Si atom -12395.980722 kJ/mol
# Density = 1.837052 g / cm^3
# Si number density = 18.412428 Si / 1000 Ang^3
#
#
#
# Elastic Constant Matrix: (Units=GPa)
#
#
# Indices 1 2 3 4 5 6 
#
# 1 59.3999 37.8506 52.5952 0.0000 0.0000 0.0000
# 2 37.8506 90.7228 53.8613 0.0000 0.0000 0.0000
# 3 52.5952 53.8613 111.3600 0.0000 0.0000 0.0000
# 4 0.0000 0.0000 0.0000 36.4072 0.0000 0.0000
# 5 0.0000 0.0000 0.0000 0.0000 25.4494 0.0000
# 6 0.0000 0.0000 0.0000 0.0000 0.0000 21.8820
#
#
#
# Elastic Compliance Matrix: (Units=1/GPa)
#
#
# Indices 1 2 3 4 5 6 
#
# 1 0.031078 -0.005965 -0.011793 0.000000 0.000000 0.000000
# 2 -0.005965 0.016607 -0.005215 0.000000 0.000000 0.000000
# 3 -0.011793 -0.005215 0.017072 0.000000 0.000000 0.000000
# 4 0.000000 0.000000 0.000000 0.027467 0.000000 0.000000
# 5 0.000000 0.000000 0.000000 0.000000 0.039294 0.000000
# 6 0.000000 0.000000 0.000000 0.000000 0.000000 0.045700
#
#
# Mechanical properties :
#
#
# Convention : Reuss Voigt Hill
#
# Bulk Modulus (GPa) = 53.15944 61.12186 57.14065
# Shear Modulus (GPa) = 21.79265 24.55941 23.17603
#
# Velocity S-wave (km/s) = 3.44406 3.65615 3.55169
# Velocity P-wave (km/s) = 6.68951 7.14782 6.92246
#
# Compressibility (1/GPa) = 0.01881133
#
# Stress axis : x y z
#
# Youngs Moduli (GPa) = 32.17711 60.21406 58.57423
#
# Poissons Ratio (x) = 0.35915 0.69078
# Poissons Ratio (y) = 0.19192 0.30549
# Poissons Ratio (z) = 0.37947 0.31404
#
# Static dielectric constant tensor:
#      x y z
#    x 3.438100 0.000000 0.000000 
#    y 0.000000 3.481870 0.000000 
#    z 0.000000 0.000000 3.284090 
# 
# 
# High freq. dielectric constant tensor:
#      x y z
#    x 1.697550 0.000000 0.000000 
#    y 0.000000 1.725630 0.000000 
#    z 0.000000 0.000000 1.708450 
# 
# From -- ./inp_files/56677.got.cif
#   From: 2010.03.12/outbox.cif.g09.slc.cpg/sg74_29_cif.got.tgz:56677.got - 2010.04.16 15:46:19.
