data_PCOD8300188
_publ_section_title
;
Structure prediction by ZEFSAII (Michael W. Deem and Ramdas Pophale) SiO2 
 PCOD8300188
Probable space group: I M M A
;
_chemical_formula_sum "Si O2"
_cell_formula_units_Z 80
_cell_length_a 18.956409
_cell_length_b 14.881370
_cell_length_c 13.334359
_cell_angle_alpha 90.000000
_cell_angle_beta 90.000000
_cell_angle_gamma 90.000000
_cell_volume 3761.587154
_symmetry_space_group_name_H-M "I M M A"
_symmetry_group_IT_number 74
_symmetry_cell_setting 'orthorhombic'
loop_
_space_group_symop_operation_xyz
x,y,z
-x,1/2-y,z
x,-y,-z
-x,1/2+y,-z
-x,-y,-z
x,1/2+y,-z
-x,y,z
x,1/2-y,z
1/2+x,1/2+y,1/2+z
1/2-x,-y,1/2+z
1/2+x,1/2-y,1/2-z
1/2-x,y,1/2-z
1/2-x,1/2-y,1/2-z
1/2+x,y,1/2-z
1/2-x,1/2+y,1/2+z
1/2+x,-y,1/2+z
loop_
_atom_site_type_symbol
_atom_site_label
_atom_site_fract_x
_atom_site_fract_y
_atom_site_fract_z
Si Si1 0.792824 0.352028 0.049446
Si Si2 0.000000 0.400395 0.532979
Si Si3 0.173105 0.957822 0.770110
Si Si4 0.366142 0.648777 0.908662
Si Si5 0.500000 0.650707 0.253901
Si Si6 0.350611 0.850886 0.328949
O O1 0.802472 0.250000 0.087741
O O2 0.840909 0.418641 0.118292
O O3 0.709477 0.377671 0.042422
O O4 0.823323 0.363788 0.939646
O O5 0.000000 0.500000 0.500000
O O6 0.071637 0.355550 0.490845
O O7 0.000000 0.407556 0.653268
O O8 0.250000 0.915870 0.750000
O O9 0.119672 0.917935 0.686224
O O10 0.177935 0.066527 0.761774
O O11 0.363613 0.750000 0.867024
O O12 0.500000 0.750000 0.208227
O O13 0.565579 0.634577 0.327054
O O14 0.330281 0.750000 0.287453
#
# Coordination Sequence:
#
# PCOD8300188 Si02
#       6
#    16   8  16  16   8  16
#     4   9  19  37  61  86 113 149 193 239 287 339
#     4  12  24  38  57  84 119 154 189 232 287 344
#     4  10  20  35  57  85 116 147 186 238 288 334
#     4  10  21  38  60  85 115 153 195 237 283 338
#     4  10  22  40  56  74 110 152 185 228 284 334
#     4  10  21  37  57  82 112 149 191 232 283 347
#
# _framework density 21.267617999999999
#
# number of rings (size 3 to 8) (size 9 to 14) (size 15 to 20)
#    0.000    2.000    0.000    3.300    0.000    7.600 
#    0.000    7.000    0.000    2.400    0.000    0.000 
#    0.000    0.000    0.000    0.000    0.000    0.000 
#
# Total GULP energy -495599.005705 kJ/mol
# GULP energy per Si atom -12389.975143 kJ/mol
# Density = 2.121921 g / cm^3
# Si number density = 21.267618 Si / 1000 Ang^3
#
#
#
# Elastic Constant Matrix: (Units=GPa)
#
#
# Indices 1 2 3 4 5 6 
#
# 1 105.6218 20.2595 57.5651 0.0000 0.0000 0.0000
# 2 20.2595 134.7560 42.8184 0.0000 0.0000 0.0000
# 3 57.5651 42.8184 97.9098 0.0000 0.0000 0.0000
# 4 0.0000 0.0000 0.0000 32.6515 0.0000 0.0000
# 5 0.0000 0.0000 0.0000 0.0000 26.5110 0.0000
# 6 0.0000 0.0000 0.0000 0.0000 0.0000 20.3591
#
#
#
# Elastic Compliance Matrix: (Units=1/GPa)
#
#
# Indices 1 2 3 4 5 6 
#
# 1 0.013973 0.000592 -0.008474 0.000000 0.000000 0.000000
# 2 0.000592 0.008643 -0.004128 0.000000 0.000000 0.000000
# 3 -0.008474 -0.004128 0.017001 0.000000 0.000000 0.000000
# 4 0.000000 0.000000 0.000000 0.030626 0.000000 0.000000
# 5 0.000000 0.000000 0.000000 0.000000 0.037720 0.000000
# 6 0.000000 0.000000 0.000000 0.000000 0.000000 0.049118
#
#
# Mechanical properties :
#
#
# Convention : Reuss Voigt Hill
#
# Bulk Modulus (GPa) = 64.11505 64.39706 64.25605
# Shear Modulus (GPa) = 26.83831 30.41395 28.62613
#
# Velocity S-wave (km/s) = 3.55622 3.78572 3.67276
# Velocity P-wave (km/s) = 6.86109 7.03235 6.94725
#
# Compressibility (1/GPa) = 0.01559696
#
# Stress axis : x y z
#
# Youngs Moduli (GPa) = 71.56869 115.69390 58.82034
#
# Poissons Ratio (x) = -0.06848 0.49844
# Poissons Ratio (y) = -0.04236 0.24281
# Poissons Ratio (z) = 0.60647 0.47759
#
# Static dielectric constant tensor:
#      x y z
#    x 3.537550 0.000000 0.000000 
#    y 0.000000 4.167000 0.000000 
#    z 0.000000 0.000000 3.702490 
# 
# 
# High freq. dielectric constant tensor:
#      x y z
#    x 1.816430 0.000000 0.000000 
#    y 0.000000 1.852460 0.000000 
#    z 0.000000 0.000000 1.821950 
# 
# From -- ./inp_files/24898.got.cif
#   From: 2010.03.12/outbox.cif.g09.slc.cpg/sg74_13_cif.got.tgz:24898.got - 2010.04.16 15:46:19.
