data_PCOD8300878
_publ_section_title
;
Structure prediction by ZEFSAII (Michael W. Deem and Ramdas Pophale) SiO2 
 PCOD8300878
Probable space group: I M M A
;
_chemical_formula_sum "Si O2"
_cell_formula_units_Z 80
_cell_length_a 14.929566
_cell_length_b 9.369123
_cell_length_c 28.491352
_cell_angle_alpha 90.000000
_cell_angle_beta 90.000000
_cell_angle_gamma 90.000000
_cell_volume 3985.283140
_symmetry_space_group_name_H-M "I M M A"
_symmetry_group_IT_number 74
_symmetry_cell_setting 'orthorhombic'
loop_
_space_group_symop_operation_xyz
x,y,z
-x,1/2-y,z
x,-y,-z
-x,1/2+y,-z
-x,-y,-z
x,1/2+y,-z
-x,y,z
x,1/2-y,z
1/2+x,1/2+y,1/2+z
1/2-x,-y,1/2+z
1/2+x,1/2-y,1/2-z
1/2-x,y,1/2-z
1/2-x,1/2-y,1/2-z
1/2+x,y,1/2-z
1/2-x,1/2+y,1/2+z
1/2+x,-y,1/2+z
loop_
_atom_site_type_symbol
_atom_site_label
_atom_site_fract_x
_atom_site_fract_y
_atom_site_fract_z
Si Si1 0.604599 0.416333 0.364342
Si Si2 0.722188 0.417741 0.454195
Si Si3 0.100147 0.919903 0.593195
Si Si4 0.345701 0.412106 0.725749
Si Si5 0.900224 0.596856 0.693546
O O1 0.500000 0.457496 0.368109
O O2 0.616464 0.250000 0.352241
O O3 0.653335 0.456199 0.412663
O O4 0.652035 0.506240 0.323341
O O5 0.687935 0.500000 0.500000
O O6 0.720843 0.250000 0.464338
O O7 0.823583 0.472712 0.442896
O O8 0.097447 0.750000 0.592719
O O9 0.138719 0.968537 0.644842
O O10 0.000000 0.981659 0.580816
O O11 0.377161 0.250000 0.717920
O O12 0.250000 0.422329 0.750000
O O13 0.408482 0.489068 0.763271
O O14 0.853698 0.750000 0.707441
O O15 0.000000 0.633041 0.677764
#
# Coordination Sequence:
#
# PCOD8300878 Si02
#       5
#    16  16  16  16  16
#     4  10  22  40  60  81 106 142 190 234 271 321
#     4  10  21  37  57  80 106 137 177 229 282 329
#     4   8  15  30  53  80 109 142 180 219 262 320
#     4  11  23  35  50  78 114 146 176 216 269 325
#     4   9  17  31  53  78 103 137 180 217 252 306
#
# _framework density 20.073855999999999
#
# number of rings (size 3 to 8) (size 9 to 14) (size 15 to 20)
#    0.000    2.400    0.000    3.600    0.000    8.000 
#    0.000    1.000    0.000    1.200    0.000    0.000 
#    0.000    0.000    0.000    0.000    0.000    0.000 
#
# Total GULP energy -495570.137783 kJ/mol
# GULP energy per Si atom -12389.253445 kJ/mol
# Density = 2.002817 g / cm^3
# Si number density = 20.073856 Si / 1000 Ang^3
#
#
#
# Elastic Constant Matrix: (Units=GPa)
#
#
# Indices 1 2 3 4 5 6 
#
# 1 79.4424 30.1450 40.5944 0.0000 0.0000 0.0000
# 2 30.1450 76.6071 62.5049 0.0000 0.0000 0.0000
# 3 40.5944 62.5049 144.5946 0.0000 0.0000 0.0000
# 4 0.0000 0.0000 0.0000 34.0307 0.0000 0.0000
# 5 0.0000 0.0000 0.0000 0.0000 28.2483 0.0000
# 6 0.0000 0.0000 0.0000 0.0000 0.0000 5.3342
#
#
#
# Elastic Compliance Matrix: (Units=1/GPa)
#
#
# Indices 1 2 3 4 5 6 
#
# 1 0.015421 -0.003918 -0.002636 0.000000 0.000000 0.000000
# 2 -0.003918 0.021162 -0.008048 0.000000 0.000000 0.000000
# 3 -0.002636 -0.008048 0.011135 0.000000 0.000000 0.000000
# 4 0.000000 0.000000 0.000000 0.029385 0.000000 0.000000
# 5 0.000000 0.000000 0.000000 0.000000 0.035400 0.000000
# 6 0.000000 0.000000 0.000000 0.000000 0.000000 0.187469
#
#
# Mechanical properties :
#
#
# Convention : Reuss Voigt Hill
#
# Bulk Modulus (GPa) = 54.01052 63.01474 58.51263
# Shear Modulus (GPa) = 14.90994 24.68261 19.79628
#
# Velocity S-wave (km/s) = 2.72831 3.51035 3.14374
# Velocity P-wave (km/s) = 6.07365 6.92024 6.51072
#
# Compressibility (1/GPa) = 0.01851491
#
# Stress axis : x y z
#
# Youngs Moduli (GPa) = 64.84558 47.25561 89.80843
#
# Poissons Ratio (x) = 0.18513 0.23673
# Poissons Ratio (y) = 0.25403 0.72276
# Poissons Ratio (z) = 0.17093 0.38030
#
# Static dielectric constant tensor:
#      x y z
#    x 3.572810 0.000000 0.000000 
#    y 0.000000 3.377930 0.000000 
#    z 0.000000 0.000000 3.647770 
# 
# 
# High freq. dielectric constant tensor:
#      x y z
#    x 1.788920 0.000000 0.000000 
#    y 0.000000 1.749670 0.000000 
#    z 0.000000 0.000000 1.784440 
# 
# From -- ./inp_files/63949.got.cif
#   From: 2010.03.12/outbox.cif.g09.slc.cpg/sg74_32_cif.got.tgz:63949.got - 2010.04.16 15:46:19.
