data_PCOD8300944
_publ_section_title
;
Structure prediction by ZEFSAII (Michael W. Deem and Ramdas Pophale) SiO2 
 PCOD8300944
Probable space group: I M M A
;
_chemical_formula_sum "Si O2"
_cell_formula_units_Z 48
_cell_length_a 16.202717
_cell_length_b 12.793486
_cell_length_c 11.155026
_cell_angle_alpha 90.000000
_cell_angle_beta 90.000000
_cell_angle_gamma 90.000000
_cell_volume 2312.316785
_symmetry_space_group_name_H-M "I M M A"
_symmetry_group_IT_number 74
_symmetry_cell_setting 'orthorhombic'
loop_
_space_group_symop_operation_xyz
x,y,z
-x,1/2-y,z
x,-y,-z
-x,1/2+y,-z
-x,-y,-z
x,1/2+y,-z
-x,y,z
x,1/2-y,z
1/2+x,1/2+y,1/2+z
1/2-x,-y,1/2+z
1/2+x,1/2-y,1/2-z
1/2-x,y,1/2-z
1/2-x,1/2-y,1/2-z
1/2+x,y,1/2-z
1/2-x,1/2+y,1/2+z
1/2+x,-y,1/2+z
loop_
_atom_site_type_symbol
_atom_site_label
_atom_site_fract_x
_atom_site_fract_y
_atom_site_fract_z
Si Si1 0.094120 0.540696 0.877431
Si Si2 0.901319 0.250000 0.512073
Si Si3 0.901241 0.250000 0.239510
Si Si4 0.342326 0.365133 0.776797
O O1 0.135009 0.647567 0.827609
O O2 0.096374 0.449749 0.778590
O O3 0.000000 0.567895 0.906997
O O4 0.138078 0.500000 0.000000
O O5 0.868904 0.250000 0.376354
O O6 0.864558 0.147361 0.581474
O O7 0.000000 0.250000 0.520776
O O8 0.000000 0.250000 0.242784
O O9 0.354607 0.250000 0.715267
O O10 0.250000 0.405285 0.750000
#
# Coordination Sequence:
#
# PCOD8300944 Si02
#       4
#    16   8   8  16
#     4  10  21  37  60  82 111 149 190 237 280 335
#     4   9  17  34  61  83 109 144 185 232 280 332
#     4   9  20  36  54  90 113 132 189 244 278 327
#     4   9  20  38  55  82 114 151 182 228 278 339
#
# _framework density 20.758400999999999
#
# number of rings (size 3 to 8) (size 9 to 14) (size 15 to 20)
#    1.000    1.667    0.000    1.000    2.333    1.333 
#    6.000    5.833    0.000    0.000    0.000    0.000 
#    0.000    0.000    0.000    0.000    0.000    0.000 
#
# Total GULP energy -297349.445976 kJ/mol
# GULP energy per Si atom -12389.560249 kJ/mol
# Density = 2.071115 g / cm^3
# Si number density = 20.758401 Si / 1000 Ang^3
#
#
#
# Elastic Constant Matrix: (Units=GPa)
#
#
# Indices 1 2 3 4 5 6 
#
# 1 43.9910 5.9685 20.0200 0.0000 0.0000 0.0000
# 2 5.9685 144.6520 88.0423 0.0000 0.0000 0.0000
# 3 20.0200 88.0423 190.8004 0.0000 0.0000 0.0000
# 4 0.0000 0.0000 0.0000 37.6919 0.0000 0.0000
# 5 0.0000 0.0000 0.0000 0.0000 7.1315 0.0000
# 6 0.0000 0.0000 0.0000 0.0000 0.0000 15.5539
#
#
#
# Elastic Compliance Matrix: (Units=1/GPa)
#
#
# Indices 1 2 3 4 5 6 
#
# 1 0.023931 0.000752 -0.002858 0.000000 0.000000 0.000000
# 2 0.000752 0.009637 -0.004526 0.000000 0.000000 0.000000
# 3 -0.002858 -0.004526 0.007629 0.000000 0.000000 0.000000
# 4 0.000000 0.000000 0.000000 0.026531 0.000000 0.000000
# 5 0.000000 0.000000 0.000000 0.000000 0.140223 0.000000
# 6 0.000000 0.000000 0.000000 0.000000 0.000000 0.064293
#
#
# Mechanical properties :
#
#
# Convention : Reuss Voigt Hill
#
# Bulk Modulus (GPa) = 35.79940 67.50054 51.64997
# Shear Modulus (GPa) = 16.95968 29.76963 23.36466
#
# Velocity S-wave (km/s) = 2.86143 3.79106 3.35856
# Velocity P-wave (km/s) = 5.31039 7.19379 6.32261
#
# Compressibility (1/GPa) = 0.02793343
#
# Stress axis : x y z
#
# Youngs Moduli (GPa) = 41.78761 103.77085 131.07466
#
# Poissons Ratio (x) = -0.07805 0.37461
# Poissons Ratio (y) = -0.03143 0.59319
# Poissons Ratio (z) = 0.11943 0.46963
#
# Static dielectric constant tensor:
#      x y z
#    x 3.267550 0.000000 0.000000 
#    y 0.000000 3.729550 0.000000 
#    z 0.000000 0.000000 3.805350 
# 
# 
# High freq. dielectric constant tensor:
#      x y z
#    x 1.776930 0.000000 0.000000 
#    y 0.000000 1.807990 0.000000 
#    z 0.000000 0.000000 1.806110 
# 
# From -- ./inp_files/13090.got.cif
#   From: 2010.03.12/outbox.cif.g09.slc.cpg/sg74_7_cif.got.tgz:13090.got - 2010.04.16 15:46:19.
