data_PCOD8300956
_publ_section_title
;
Structure prediction by ZEFSAII (Michael W. Deem and Ramdas Pophale) SiO2 
 PCOD8300956
Probable space group: I M M A
;
_chemical_formula_sum "Si O2"
_cell_formula_units_Z 80
_cell_length_a 20.292386
_cell_length_b 15.316141
_cell_length_c 12.402042
_cell_angle_alpha 90.000000
_cell_angle_beta 90.000000
_cell_angle_gamma 90.000000
_cell_volume 3854.567616
_symmetry_space_group_name_H-M "I M M A"
_symmetry_group_IT_number 74
_symmetry_cell_setting 'orthorhombic'
loop_
_space_group_symop_operation_xyz
x,y,z
-x,1/2-y,z
x,-y,-z
-x,1/2+y,-z
-x,-y,-z
x,1/2+y,-z
-x,y,z
x,1/2-y,z
1/2+x,1/2+y,1/2+z
1/2-x,-y,1/2+z
1/2+x,1/2-y,1/2-z
1/2-x,y,1/2-z
1/2-x,1/2-y,1/2-z
1/2+x,y,1/2-z
1/2-x,1/2+y,1/2+z
1/2+x,-y,1/2+z
loop_
_atom_site_type_symbol
_atom_site_label
_atom_site_fract_x
_atom_site_fract_y
_atom_site_fract_z
Si Si1 0.074551 0.148300 0.274524
Si Si2 0.269821 0.886810 0.093942
Si Si3 0.643660 0.656372 0.276782
Si Si4 0.790084 0.088534 0.356774
Si Si5 0.574167 0.500691 0.384006
O O1 0.087862 0.250000 0.252253
O O2 0.131526 0.107848 0.349580
O O3 0.000000 0.134381 0.322889
O O4 0.080283 0.096862 0.161862
O O5 0.333573 0.845209 0.151951
O O6 0.205095 0.844835 0.142889
O O7 0.272726 0.988453 0.124842
O O8 0.268587 0.863524 0.966982
O O9 0.606917 0.750000 0.294881
O O10 0.600104 0.571865 0.300068
O O11 0.750000 0.122187 0.250000
O O12 0.611996 0.500000 0.500000
O O13 0.500000 0.529421 0.405170
#
# Coordination Sequence:
#
# PCOD8300956 Si02
#       5
#    16  16  16  16  16
#     4  10  22  41  62  87 121 158 198 250 313 365
#     4  10  21  37  60  90 123 161 202 250 309 365
#     4  11  22  39  63  88 124 165 201 249 310 369
#     4  11  21  38  64  92 124 160 206 255 307 371
#     4  10  22  40  61  87 123 162 204 254 303 363
#
# _framework density 20.754598000000001
#
# number of rings (size 3 to 8) (size 9 to 14) (size 15 to 20)
#    0.000    1.600    4.000    1.200    5.600    3.200 
#    0.000    5.000    0.000    0.000    0.000    0.000 
#    0.000    0.000    0.000    0.000    0.000    0.000 
#
# Total GULP energy -495551.062871 kJ/mol
# GULP energy per Si atom -12388.776572 kJ/mol
# Density = 2.070736 g / cm^3
# Si number density = 20.754598 Si / 1000 Ang^3
#
#
#
# Elastic Constant Matrix: (Units=GPa)
#
#
# Indices 1 2 3 4 5 6 
#
# 1 65.2723 11.4970 36.2032 0.0000 0.0000 0.0000
# 2 11.4970 104.2137 22.9351 0.0000 0.0000 0.0000
# 3 36.2032 22.9351 154.0863 0.0000 0.0000 0.0000
# 4 0.0000 0.0000 0.0000 10.4710 0.0000 0.0000
# 5 0.0000 0.0000 0.0000 0.0000 20.6132 0.0000
# 6 0.0000 0.0000 0.0000 0.0000 0.0000 10.9947
#
#
#
# Elastic Compliance Matrix: (Units=1/GPa)
#
#
# Indices 1 2 3 4 5 6 
#
# 1 0.017732 -0.001075 -0.004006 0.000000 0.000000 0.000000
# 2 -0.001075 0.009986 -0.001234 0.000000 0.000000 0.000000
# 3 -0.004006 -0.001234 0.007615 0.000000 0.000000 0.000000
# 4 0.000000 0.000000 0.000000 0.095502 0.000000 0.000000
# 5 0.000000 0.000000 0.000000 0.000000 0.048513 0.000000
# 6 0.000000 0.000000 0.000000 0.000000 0.000000 0.090953
#
#
# Mechanical properties :
#
#
# Convention : Reuss Voigt Hill
#
# Bulk Modulus (GPa) = 44.04686 51.64922 47.84804
# Shear Modulus (GPa) = 17.21189 25.27823 21.24506
#
# Velocity S-wave (km/s) = 2.88289 3.49371 3.20290
# Velocity P-wave (km/s) = 5.68772 6.41984 6.06484
#
# Compressibility (1/GPa) = 0.02270309
#
# Stress axis : x y z
#
# Youngs Moduli (GPa) = 56.39605 100.14259 131.32315
#
# Poissons Ratio (x) = 0.10761 0.52611
# Poissons Ratio (y) = 0.06060 0.16204
# Poissons Ratio (z) = 0.22593 0.12356
#
# Static dielectric constant tensor:
#      x y z
#    x 3.849130 0.000000 0.000000 
#    y 0.000000 3.886840 0.000000 
#    z 0.000000 0.000000 4.162690 
# 
# 
# High freq. dielectric constant tensor:
#      x y z
#    x 1.798520 0.000000 0.000000 
#    y 0.000000 1.817360 0.000000 
#    z 0.000000 0.000000 1.805950 
# 
# From -- ./inp_files/24873.got.cif
#   From: 2010.03.12/outbox.cif.g09.slc.cpg/sg74_13_cif.got.tgz:24873.got - 2010.04.16 15:46:19.
