data_PCOD8300356
_publ_section_title
;
Structure prediction by ZEFSAII (Michael W. Deem and Ramdas Pophale) SiO2 
 PCOD8300356
Probable space group: I M M A
;
_chemical_formula_sum "Si O2"
_cell_formula_units_Z 96
_cell_length_a 20.335927
_cell_length_b 17.995400
_cell_length_c 14.224806
_cell_angle_alpha 90.000000
_cell_angle_beta 90.000000
_cell_angle_gamma 90.000000
_cell_volume 5205.612432
_symmetry_space_group_name_H-M "I M M A"
_symmetry_group_IT_number 74
_symmetry_cell_setting 'orthorhombic'
loop_
_space_group_symop_operation_xyz
x,y,z
-x,1/2-y,z
x,-y,-z
-x,1/2+y,-z
-x,-y,-z
x,1/2+y,-z
-x,y,z
x,1/2-y,z
1/2+x,1/2+y,1/2+z
1/2-x,-y,1/2+z
1/2+x,1/2-y,1/2-z
1/2-x,y,1/2-z
1/2-x,1/2-y,1/2-z
1/2+x,y,1/2-z
1/2-x,1/2+y,1/2+z
1/2+x,-y,1/2+z
loop_
_atom_site_type_symbol
_atom_site_label
_atom_site_fract_x
_atom_site_fract_y
_atom_site_fract_z
Si Si1 0.124210 0.835402 0.010226
Si Si2 0.925879 0.432880 0.824389
Si Si3 0.774994 0.663598 0.489102
Si Si4 0.188853 0.427858 0.686160
Si Si5 0.189628 0.601269 0.684047
Si Si6 0.575019 0.397108 0.321605
O O1 0.119321 0.750000 0.040971
O O2 0.083725 0.883836 0.083583
O O3 0.199404 0.862814 0.007626
O O4 0.092116 0.844283 0.908266
O O5 0.877762 0.407948 0.741126
O O6 0.911969 0.518025 0.853166
O O7 0.000000 0.422777 0.787165
O O8 0.780929 0.750000 0.465395
O O9 0.813056 0.618246 0.409453
O O10 0.808651 0.647460 0.588517
O O11 0.250000 0.402264 0.750000
O O12 0.194240 0.514257 0.660374
O O13 0.250000 0.625838 0.750000
O O14 0.121283 0.622716 0.733781
O O15 0.500000 0.384056 0.289897
#
# Coordination Sequence:
#
# PCOD8300356 Si02
#       6
#    16  16  16  16  16  16
#     4  11  22  34  53  83 117 147 177 220 273 329
#     4  10  21  37  57  82 111 143 181 226 274 322
#     4  11  23  36  55  84 114 144 181 226 272 319
#     4  10  20  36  59  82 106 142 186 227 267 318
#     4  10  20  36  59  82 106 142 186 227 267 318
#     4  10  21  37  57  82 111 143 181 226 274 322
#
# _framework density 18.441634000000001
#
# number of rings (size 3 to 8) (size 9 to 14) (size 15 to 20)
#    0.000    1.667    3.333    1.500    0.000    6.000 
#    0.000    0.833    0.000    5.000    0.000    0.000 
#    0.000    0.000    0.000    0.000    0.000    0.000 
#
# Total GULP energy -595501.397976 kJ/mol
# GULP energy per Si atom -12406.279124 kJ/mol
# Density = 1.839966 g / cm^3
# Si number density = 18.441634 Si / 1000 Ang^3
#
#
#
# Elastic Constant Matrix: (Units=GPa)
#
#
# Indices 1 2 3 4 5 6 
#
# 1 121.2267 20.3565 38.7548 0.0000 0.0000 0.0000
# 2 20.3565 35.7401 17.1374 0.0000 0.0000 0.0000
# 3 38.7548 17.1374 85.7507 0.0000 0.0000 0.0000
# 4 0.0000 0.0000 0.0000 10.6193 0.0000 0.0000
# 5 0.0000 0.0000 0.0000 0.0000 30.9151 0.0000
# 6 0.0000 0.0000 0.0000 0.0000 0.0000 19.8455
#
#
#
# Elastic Compliance Matrix: (Units=1/GPa)
#
#
# Indices 1 2 3 4 5 6 
#
# 1 0.010122 -0.003950 -0.003785 0.000000 0.000000 0.000000
# 2 -0.003950 0.032487 -0.004707 0.000000 0.000000 0.000000
# 3 -0.003785 -0.004707 0.014313 0.000000 0.000000 0.000000
# 4 0.000000 0.000000 0.000000 0.094168 0.000000 0.000000
# 5 0.000000 0.000000 0.000000 0.000000 0.032347 0.000000
# 6 0.000000 0.000000 0.000000 0.000000 0.000000 0.050389
#
#
# Mechanical properties :
#
#
# Convention : Reuss Voigt Hill
#
# Bulk Modulus (GPa) = 31.21411 43.91276 37.56344
# Shear Modulus (GPa) = 18.56034 23.37389 20.96712
#
# Velocity S-wave (km/s) = 3.17588 3.56399 3.37552
# Velocity P-wave (km/s) = 5.51461 6.38745 5.96701
#
# Compressibility (1/GPa) = 0.03203679
#
# Stress axis : x y z
#
# Youngs Moduli (GPa) = 98.78992 30.78165 69.86546
#
# Poissons Ratio (x) = 0.12160 0.26447
# Poissons Ratio (y) = 0.39026 0.32887
# Poissons Ratio (z) = 0.37395 0.14489
#
# Static dielectric constant tensor:
#      x y z
#    x 3.494350 0.000000 0.000000 
#    y 0.000000 3.289990 0.000000 
#    z 0.000000 0.000000 3.252770 
# 
# 
# High freq. dielectric constant tensor:
#      x y z
#    x 1.716960 0.000000 0.000000 
#    y 0.000000 1.711510 0.000000 
#    z 0.000000 0.000000 1.707910 
# 
# From -- ./inp_files/23909.got.cif
#   From: 2010.03.12/outbox.cif.g09.slc.cpg/sg74_12_cif.got.tgz:23909.got - 2010.04.16 15:46:19.
