data_PCOD8300581
_publ_section_title
;
Structure prediction by ZEFSAII (Michael W. Deem and Ramdas Pophale) SiO2 
 PCOD8300581
Probable space group: I M M A
;
_chemical_formula_sum "Si O2"
_cell_formula_units_Z 64
_cell_length_a 20.362400
_cell_length_b 10.337903
_cell_length_c 14.830961
_cell_angle_alpha 90.000000
_cell_angle_beta 90.000000
_cell_angle_gamma 90.000000
_cell_volume 3121.984268
_symmetry_space_group_name_H-M "I M M A"
_symmetry_group_IT_number 74
_symmetry_cell_setting 'orthorhombic'
loop_
_space_group_symop_operation_xyz
x,y,z
-x,1/2-y,z
x,-y,-z
-x,1/2+y,-z
-x,-y,-z
x,1/2+y,-z
-x,y,z
x,1/2-y,z
1/2+x,1/2+y,1/2+z
1/2-x,-y,1/2+z
1/2+x,1/2-y,1/2-z
1/2-x,y,1/2-z
1/2-x,1/2-y,1/2-z
1/2+x,y,1/2-z
1/2-x,1/2+y,1/2+z
1/2+x,-y,1/2+z
loop_
_atom_site_type_symbol
_atom_site_label
_atom_site_fract_x
_atom_site_fract_y
_atom_site_fract_z
Si Si1 0.333140 0.000000 0.500000
Si Si2 0.869238 0.396851 0.679786
Si Si3 0.232853 0.602961 0.645169
Si Si4 0.427042 0.397057 0.638757
Si Si5 0.500000 0.887810 0.069184
O O1 0.291520 0.922356 0.574603
O O2 0.382957 0.902297 0.450674
O O3 0.839015 0.250000 0.682113
O O4 0.821732 0.493900 0.625136
O O5 0.883802 0.456181 0.779216
O O6 0.937782 0.397288 0.631400
O O7 0.207415 0.750000 0.628749
O O8 0.250000 0.584874 0.750000
O O9 0.500000 0.462468 0.627321
O O10 0.439302 0.250000 0.665554
O O11 0.500000 0.750000 0.017359
O O12 0.500000 0.000000 0.000000
#
# Coordination Sequence:
#
# PCOD8300581 Si02
#       5
#     8  16  16  16   8
#     4  12  23  40  64  91 126 174 214 260 320 387
#     4  10  21  41  66  90 121 165 210 257 318 381
#     4  11  25  43  61  90 132 170 209 261 316 377
#     4  10  20  38  65  94 122 156 206 264 317 380
#     4  10  22  40  64  93 124 160 208 263 322 381
#
# _framework density 20.499783999999998
#
# number of rings (size 3 to 8) (size 9 to 14) (size 15 to 20)
#    0.000    1.500    3.750    1.125    1.750    3.500 
#    0.000    0.000    0.000    1.500    0.000    0.000 
#    0.000    0.000    0.000    0.000    0.000    0.000 
#
# Total GULP energy -396510.351787 kJ/mol
# GULP energy per Si atom -12390.948493 kJ/mol
# Density = 2.045313 g / cm^3
# Si number density = 20.499784 Si / 1000 Ang^3
#
#
#
# Elastic Constant Matrix: (Units=GPa)
#
#
# Indices 1 2 3 4 5 6 
#
# 1 111.1721 55.7346 36.8116 0.0000 0.0000 0.0000
# 2 55.7346 116.3379 39.5747 0.0000 0.0000 0.0000
# 3 36.8116 39.5747 107.1318 0.0000 0.0000 0.0000
# 4 0.0000 0.0000 0.0000 27.5736 0.0000 0.0000
# 5 0.0000 0.0000 0.0000 0.0000 71.1873 0.0000
# 6 0.0000 0.0000 0.0000 0.0000 0.0000 24.7445
#
#
#
# Elastic Compliance Matrix: (Units=1/GPa)
#
#
# Indices 1 2 3 4 5 6 
#
# 1 0.012335 -0.005110 -0.002351 0.000000 0.000000 0.000000
# 2 -0.005110 0.011948 -0.002658 0.000000 0.000000 0.000000
# 3 -0.002351 -0.002658 0.011124 0.000000 0.000000 0.000000
# 4 0.000000 0.000000 0.000000 0.036267 0.000000 0.000000
# 5 0.000000 0.000000 0.000000 0.000000 0.014047 0.000000
# 6 0.000000 0.000000 0.000000 0.000000 0.000000 0.040413
#
#
# Mechanical properties :
#
#
# Convention : Reuss Voigt Hill
#
# Bulk Modulus (GPa) = 65.92006 66.54262 66.23134
# Shear Modulus (GPa) = 33.01913 38.20249 35.61081
#
# Velocity S-wave (km/s) = 4.01771 4.32158 4.17241
# Velocity P-wave (km/s) = 7.33137 7.57839 7.45590
#
# Compressibility (1/GPa) = 0.01516989
#
# Stress axis : x y z
#
# Youngs Moduli (GPa) = 81.06859 83.69818 89.89675
#
# Poissons Ratio (x) = 0.42768 0.21134
# Poissons Ratio (y) = 0.41424 0.23892
# Poissons Ratio (z) = 0.19059 0.22245
#
# Static dielectric constant tensor:
#      x y z
#    x 3.601230 0.000000 0.000000 
#    y 0.000000 3.702690 0.000000 
#    z 0.000000 0.000000 4.028580 
# 
# 
# High freq. dielectric constant tensor:
#      x y z
#    x 1.809130 0.000000 0.000000 
#    y 0.000000 1.783850 0.000000 
#    z 0.000000 0.000000 1.809060 
# 
# From -- ./inp_files/35988.got.cif
#   From: 2010.03.12/outbox.cif.g09.slc.cpg/sg74_18_cif.got.tgz:35988.got - 2010.04.16 15:46:19.
