data_PCOD8300503
_publ_section_title
;
Structure prediction by ZEFSAII (Michael W. Deem and Ramdas Pophale) SiO2 
 PCOD8300503
Probable space group: I M M A
;
_chemical_formula_sum "Si O2"
_cell_formula_units_Z 112
_cell_length_a 16.410776
_cell_length_b 28.764799
_cell_length_c 11.809084
_cell_angle_alpha 90.000000
_cell_angle_beta 90.000000
_cell_angle_gamma 90.000000
_cell_volume 5574.509669
_symmetry_space_group_name_H-M "I M M A"
_symmetry_group_IT_number 74
_symmetry_cell_setting 'orthorhombic'
loop_
_space_group_symop_operation_xyz
x,y,z
-x,1/2-y,z
x,-y,-z
-x,1/2+y,-z
-x,-y,-z
x,1/2+y,-z
-x,y,z
x,1/2-y,z
1/2+x,1/2+y,1/2+z
1/2-x,-y,1/2+z
1/2+x,1/2-y,1/2-z
1/2-x,y,1/2-z
1/2-x,1/2-y,1/2-z
1/2+x,y,1/2-z
1/2-x,1/2+y,1/2+z
1/2+x,-y,1/2+z
loop_
_atom_site_type_symbol
_atom_site_label
_atom_site_fract_x
_atom_site_fract_y
_atom_site_fract_z
Si Si1 0.595987 0.801250 0.805795
Si Si2 0.692721 0.620714 0.446770
Si Si3 0.404523 0.536338 0.856377
Si Si4 0.319522 0.302800 0.961941
Si Si5 0.907573 0.644395 0.270908
Si Si6 0.095982 0.610840 0.832073
Si Si7 0.654227 0.437906 0.904898
O O1 0.500000 0.803000 0.798091
O O2 0.628443 0.750000 0.767106
O O3 0.630886 0.841579 0.724166
O O4 0.617545 0.810505 0.936090
O O5 0.742620 0.665170 0.489171
O O6 0.633329 0.638904 0.350320
O O7 0.640451 0.600673 0.550268
O O8 0.752335 0.580180 0.399770
O O9 0.500000 0.523921 0.863088
O O10 0.383428 0.567371 0.748194
O O11 0.351689 0.489176 0.851257
O O12 0.378199 0.564688 0.967061
O O13 0.289469 0.250000 0.952787
O O14 0.361171 0.316557 0.843458
O O15 0.904738 0.595217 0.334148
O O16 0.000000 0.660403 0.252940
O O17 0.000000 0.614565 0.853974
#
# Coordination Sequence:
#
# PCOD8300503 Si02
#       7
#    16  16  16  16  16  16  16
#     4   9  18  34  59  89 118 152 196 243 290 341
#     4  11  24  39  54  85 122 158 195 230 296 366
#     4  10  20  37  63  89 112 147 195 246 296 343
#     4  10  21  37  60  88 117 150 196 253 299 340
#     4  11  22  39  61  80 112 155 195 241 292 351
#     4  10  21  39  60  85 121 159 198 238 285 355
#     4  10  20  38  59  85 113 143 192 250 299 349
#
# _framework density 20.091453000000001
#
# number of rings (size 3 to 8) (size 9 to 14) (size 15 to 20)
#    0.000    1.857    0.000    6.000    0.000    6.000 
#   10.286    1.429    0.000    5.143    0.000    0.000 
#    0.000    0.000    0.000    0.000    0.000    0.000 
#
# Total GULP energy -694475.636460 kJ/mol
# GULP energy per Si atom -12401.350651 kJ/mol
# Density = 2.004572 g / cm^3
# Si number density = 20.091453 Si / 1000 Ang^3
#
#
#
# Elastic Constant Matrix: (Units=GPa)
#
#
# Indices 1 2 3 4 5 6 
#
# 1 69.2777 33.1378 31.1272 0.0001 0.0001 -0.0001
# 2 33.1378 107.9380 22.5239 0.0012 0.0003 -0.0002
# 3 31.1272 22.5239 70.9702 0.0028 0.0005 -0.0006
# 4 0.0001 0.0012 0.0028 16.2462 0.0002 -0.0002
# 5 0.0001 0.0003 0.0005 0.0002 31.9132 -0.0001
# 6 -0.0001 -0.0002 -0.0006 -0.0002 -0.0001 16.3919
#
#
#
# Elastic Compliance Matrix: (Units=1/GPa)
#
#
# Indices 1 2 3 4 5 6 
#
# 1 0.019897 -0.004592 -0.007270 0.000001 0.000000 0.000000
# 2 -0.004592 0.010981 -0.001471 -0.000001 0.000000 0.000000
# 3 -0.007270 -0.001471 0.017746 -0.000003 0.000000 0.000001
# 4 0.000001 -0.000001 -0.000003 0.061553 0.000000 0.000001
# 5 0.000000 0.000000 0.000000 0.000000 0.031335 0.000000
# 6 0.000000 0.000000 0.000001 0.000001 0.000000 0.061006
#
#
# Mechanical properties :
#
#
# Convention : Reuss Voigt Hill
#
# Bulk Modulus (GPa) = 45.53876 46.86262 46.20069
# Shear Modulus (GPa) = 21.14139 23.67005 22.40572
#
# Velocity S-wave (km/s) = 3.24737 3.43609 3.34306
# Velocity P-wave (km/s) = 6.06428 6.25441 6.16008
#
# Compressibility (1/GPa) = 0.02195931
#
# Stress axis : x y z
#
# Youngs Moduli (GPa) = 50.25803 91.06420 56.35143
#
# Poissons Ratio (x) = 0.41813 0.40965
# Poissons Ratio (y) = 0.23077 0.08291
# Poissons Ratio (z) = 0.36536 0.13398
#
# Static dielectric constant tensor:
#      x y z
#    x 3.558050 0.000000 0.000000 
#    y 0.000000 3.815670 0.000000 
#    z 0.000000 0.000000 3.552300 
# 
# 
# High freq. dielectric constant tensor:
#      x y z
#    x 1.778270 0.000000 0.000000 
#    y 0.000000 1.789670 0.000000 
#    z 0.000000 0.000000 1.783010 
# 
# From -- ./inp_files/21164.got.cif
#   From: 2010.03.12/outbox.cif.g09.slc.cpg/sg74_11_cif.got.tgz:21164.got - 2010.04.16 15:46:19.
