data_PCOD8300884
_publ_section_title
;
Structure prediction by ZEFSAII (Michael W. Deem and Ramdas Pophale) SiO2 
 PCOD8300884
Probable space group: I M M A
;
_chemical_formula_sum "Si O2"
_cell_formula_units_Z 112
_cell_length_a 20.704135
_cell_length_b 18.409153
_cell_length_c 16.483162
_cell_angle_alpha 90.000000
_cell_angle_beta 90.000000
_cell_angle_gamma 90.000000
_cell_volume 6282.484488
_symmetry_space_group_name_H-M "I M M A"
_symmetry_group_IT_number 74
_symmetry_cell_setting 'orthorhombic'
loop_
_space_group_symop_operation_xyz
x,y,z
-x,1/2-y,z
x,-y,-z
-x,1/2+y,-z
-x,-y,-z
x,1/2+y,-z
-x,y,z
x,1/2-y,z
1/2+x,1/2+y,1/2+z
1/2-x,-y,1/2+z
1/2+x,1/2-y,1/2-z
1/2-x,y,1/2-z
1/2-x,1/2-y,1/2-z
1/2+x,y,1/2-z
1/2-x,1/2+y,1/2+z
1/2+x,-y,1/2+z
loop_
_atom_site_type_symbol
_atom_site_label
_atom_site_fract_x
_atom_site_fract_y
_atom_site_fract_z
Si Si1 0.879186 0.090534 0.061843
Si Si2 0.428632 0.834619 0.714224
Si Si3 0.427388 0.559541 0.394278
Si Si4 0.767472 0.583253 0.525291
Si Si5 0.286056 0.666199 0.129008
Si Si6 0.693600 0.164315 0.184554
Si Si7 0.848724 0.665519 0.207222
O O1 0.902709 0.151187 0.123833
O O2 0.807214 0.105415 0.031059
O O3 0.882461 0.012019 0.106164
O O4 0.925155 0.095397 0.983459
O O5 0.500000 0.870611 0.728918
O O6 0.436271 0.750000 0.723409
O O7 0.375136 0.860953 0.778478
O O8 0.500000 0.535587 0.374506
O O9 0.406427 0.616264 0.325611
O O10 0.777005 0.500000 0.500000
O O11 0.803350 0.625549 0.453330
O O12 0.799142 0.609206 0.609408
O O13 0.284439 0.750000 0.108231
O O14 0.216161 0.641691 0.161201
O O15 0.340073 0.649864 0.197073
O O16 0.694348 0.250000 0.159158
O O17 0.750000 0.149895 0.250000
O O18 0.864726 0.750000 0.192055
#
# Coordination Sequence:
#
# PCOD8300884 Si02
#       7
#    16  16  16  16  16  16  16
#     4  11  20  34  50  75 111 149 182 216 271 335
#     4  10  21  37  57  81 110 146 186 225 274 338
#     4  11  21  34  50  72 111 151 181 218 267 324
#     4  12  21  34  54  84 113 144 182 228 276 326
#     4   9  18  34  53  72 100 136 174 225 280 321
#     4  10  21  37  58  84 113 146 185 235 285 325
#     4   9  18  33  52  73  96 132 182 225 265 316
#
# _framework density 17.827342999999999
#
# number of rings (size 3 to 8) (size 9 to 14) (size 15 to 20)
#    0.000    1.714    4.286    3.000    0.000    2.571 
#    2.571    0.000    0.000    1.286    0.000    2.000 
#    0.000    0.000    0.000    0.000    0.000    0.000 
#
# Total GULP energy -694208.265607 kJ/mol
# GULP energy per Si atom -12396.576172 kJ/mol
# Density = 1.778677 g / cm^3
# Si number density = 17.827343 Si / 1000 Ang^3
#
#
#
# Elastic Constant Matrix: (Units=GPa)
#
#
# Indices 1 2 3 4 5 6 
#
# 1 76.0403 32.2286 39.4952 0.0000 0.0000 0.0000
# 2 32.2286 36.6057 44.0209 0.0000 0.0000 0.0000
# 3 39.4952 44.0209 109.3834 0.0000 0.0000 0.0000
# 4 0.0000 0.0000 0.0000 35.8717 0.0000 0.0000
# 5 0.0000 0.0000 0.0000 0.0000 23.2138 0.0000
# 6 0.0000 0.0000 0.0000 0.0000 0.0000 14.6599
#
#
#
# Elastic Compliance Matrix: (Units=1/GPa)
#
#
# Indices 1 2 3 4 5 6 
#
# 1 0.020984 -0.018145 -0.000274 0.000000 0.000000 0.000000
# 2 -0.018145 0.068629 -0.021068 0.000000 0.000000 0.000000
# 3 -0.000274 -0.021068 0.017720 0.000000 0.000000 0.000000
# 4 0.000000 0.000000 0.000000 0.027877 0.000000 0.000000
# 5 0.000000 0.000000 0.000000 0.000000 0.043078 0.000000
# 6 0.000000 0.000000 0.000000 0.000000 0.000000 0.068213
#
#
# Mechanical properties :
#
#
# Convention : Reuss Voigt Hill
#
# Bulk Modulus (GPa) = 35.26264 50.39096 42.82680
# Shear Modulus (GPa) = 14.92858 21.83471 18.38165
#
# Velocity S-wave (km/s) = 2.89692 3.50349 3.21455
# Velocity P-wave (km/s) = 5.56889 6.68531 6.15248
#
# Compressibility (1/GPa) = 0.02835863
#
# Stress axis : x y z
#
# Youngs Moduli (GPa) = 47.65573 14.57110 56.43367
#
# Poissons Ratio (x) = 0.26439 0.01548
# Poissons Ratio (y) = 0.86470 1.18894
# Poissons Ratio (z) = 0.01307 0.30698
#
# Static dielectric constant tensor:
#      x y z
#    x 3.482350 0.000000 0.000000 
#    y 0.000000 3.214430 0.000000 
#    z 0.000000 0.000000 3.331460 
# 
# 
# High freq. dielectric constant tensor:
#      x y z
#    x 1.669260 0.000000 0.000000 
#    y 0.000000 1.684960 0.000000 
#    z 0.000000 0.000000 1.686670 
# 
# From -- ./inp_files/45429.got.cif
#   From: 2010.03.12/outbox.cif.g09.slc.cpg/sg74_23_cif.got.tgz:45429.got - 2010.04.16 15:46:19.
