data_PCOD8300885
_publ_section_title
;
Structure prediction by ZEFSAII (Michael W. Deem and Ramdas Pophale) SiO2 
 PCOD8300885
Probable space group: I M M A
;
_chemical_formula_sum "Si O2"
_cell_formula_units_Z 96
_cell_length_a 23.751604
_cell_length_b 9.352327
_cell_length_c 21.218886
_cell_angle_alpha 90.000000
_cell_angle_beta 90.000000
_cell_angle_gamma 90.000000
_cell_volume 4713.409868
_symmetry_space_group_name_H-M "I M M A"
_symmetry_group_IT_number 74
_symmetry_cell_setting 'orthorhombic'
loop_
_space_group_symop_operation_xyz
x,y,z
-x,1/2-y,z
x,-y,-z
-x,1/2+y,-z
-x,-y,-z
x,1/2+y,-z
-x,y,z
x,1/2-y,z
1/2+x,1/2+y,1/2+z
1/2-x,-y,1/2+z
1/2+x,1/2-y,1/2-z
1/2-x,y,1/2-z
1/2-x,1/2-y,1/2-z
1/2+x,y,1/2-z
1/2-x,1/2+y,1/2+z
1/2+x,-y,1/2+z
loop_
_atom_site_type_symbol
_atom_site_label
_atom_site_fract_x
_atom_site_fract_y
_atom_site_fract_z
Si Si1 0.438004 0.907452 0.220943
Si Si2 0.933363 0.088951 0.058519
Si Si3 0.259855 0.416604 0.323443
Si Si4 0.130285 0.914651 0.157642
Si Si5 0.818738 0.416719 0.440417
Si Si6 0.561413 0.081782 0.099151
O O1 0.500000 0.922681 0.252873
O O2 0.432905 0.750000 0.189587
O O3 0.388305 0.926762 0.270390
O O4 0.429842 0.027320 0.169383
O O5 0.908375 0.250000 0.058021
O O6 0.000000 0.095739 0.055443
O O7 0.915768 0.004328 0.120222
O O8 0.908331 0.000000 0.000000
O O9 0.276425 0.250000 0.327174
O O10 0.250000 0.458908 0.250000
O O11 0.309301 0.513865 0.350803
O O12 0.208218 0.450811 0.371470
O O13 0.132070 0.750000 0.134760
O O14 0.790539 0.500000 0.500000
O O15 0.812320 0.250000 0.454986
O O16 0.884408 0.467594 0.440571
O O17 0.500000 0.028062 0.072144
O O18 0.561428 0.250000 0.104071
#
# Coordination Sequence:
#
# PCOD8300885 Si02
#       6
#    16  16  16  16  16  16
#     4   9  18  32  51  79 114 147 179 221 275 330
#     4  10  21  37  57  81 111 148 189 233 284 343
#     4  10  22  41  62  82 110 151 199 248 294 344
#     4  11  22  35  55  82 112 146 186 234 286 344
#     4  10  22  39  59  84 114 148 185 231 286 340
#     4   9  18  34  57  84 112 143 182 225 270 327
#
# _framework density 20.367419999999999
#
# number of rings (size 3 to 8) (size 9 to 14) (size 15 to 20)
#    0.000    2.167    0.000    2.500    0.000    7.000 
#    0.000    3.333    0.000    0.000    0.000    0.000 
#    0.000    0.000    0.000    0.000    0.000    0.000 
#
# Total GULP energy -594844.485464 kJ/mol
# GULP energy per Si atom -12392.593447 kJ/mol
# Density = 2.032106 g / cm^3
# Si number density = 20.367420 Si / 1000 Ang^3
#
#
#
# Elastic Constant Matrix: (Units=GPa)
#
#
# Indices 1 2 3 4 5 6 
#
# 1 70.8306 31.7036 28.6339 0.0000 0.0000 0.0000
# 2 31.7036 66.2481 35.8167 0.0000 0.0000 0.0000
# 3 28.6339 35.8167 102.7375 0.0000 0.0000 0.0000
# 4 0.0000 0.0000 0.0000 34.8659 0.0000 0.0000
# 5 0.0000 0.0000 0.0000 0.0000 21.5373 0.0000
# 6 0.0000 0.0000 0.0000 0.0000 0.0000 27.1719
#
#
#
# Elastic Compliance Matrix: (Units=1/GPa)
#
#
# Indices 1 2 3 4 5 6 
#
# 1 0.018493 -0.007472 -0.002549 0.000000 0.000000 0.000000
# 2 -0.007472 0.021619 -0.005455 0.000000 0.000000 0.000000
# 3 -0.002549 -0.005455 0.012346 0.000000 0.000000 0.000000
# 4 0.000000 0.000000 0.000000 0.028681 0.000000 0.000000
# 5 0.000000 0.000000 0.000000 0.000000 0.046431 0.000000
# 6 0.000000 0.000000 0.000000 0.000000 0.000000 0.036803
#
#
# Mechanical properties :
#
#
# Convention : Reuss Voigt Hill
#
# Bulk Modulus (GPa) = 46.49688 48.01384 47.25536
# Shear Modulus (GPa) = 24.69212 26.29248 25.49230
#
# Velocity S-wave (km/s) = 3.48564 3.59682 3.54166
# Velocity P-wave (km/s) = 6.25125 6.39332 6.32268
#
# Compressibility (1/GPa) = 0.02150682
#
# Stress axis : x y z
#
# Youngs Moduli (GPa) = 54.07408 46.25465 80.99998
#
# Poissons Ratio (x) = 0.34560 0.20650
# Poissons Ratio (y) = 0.40403 0.44182
# Poissons Ratio (z) = 0.13786 0.25230
#
# Static dielectric constant tensor:
#      x y z
#    x 3.818920 0.000000 0.000000 
#    y 0.000000 3.754560 0.000000 
#    z 0.000000 0.000000 3.534870 
# 
# 
# High freq. dielectric constant tensor:
#      x y z
#    x 1.793980 0.000000 0.000000 
#    y 0.000000 1.798990 0.000000 
#    z 0.000000 0.000000 1.786810 
# 
# From -- ./inp_files/55096.got.cif
#   From: 2010.03.12/outbox.cif.g09.slc.cpg/sg74_28_cif.got.tgz:55096.got - 2010.04.16 15:46:19.
