data_PCOD8300397
_publ_section_title
;
Structure prediction by ZEFSAII (Michael W. Deem and Ramdas Pophale) SiO2 
 PCOD8300397
Probable space group: I M M A
;
_chemical_formula_sum "Si O2"
_cell_formula_units_Z 104
_cell_length_a 29.313146
_cell_length_b 15.910943
_cell_length_c 11.369696
_cell_angle_alpha 90.000000
_cell_angle_beta 90.000000
_cell_angle_gamma 90.000000
_cell_volume 5302.823885
_symmetry_space_group_name_H-M "I M M A"
_symmetry_group_IT_number 74
_symmetry_cell_setting 'orthorhombic'
loop_
_space_group_symop_operation_xyz
x,y,z
-x,1/2-y,z
x,-y,-z
-x,1/2+y,-z
-x,-y,-z
x,1/2+y,-z
-x,y,z
x,1/2-y,z
1/2+x,1/2+y,1/2+z
1/2-x,-y,1/2+z
1/2+x,1/2-y,1/2-z
1/2-x,y,1/2-z
1/2-x,1/2-y,1/2-z
1/2+x,y,1/2-z
1/2-x,1/2+y,1/2+z
1/2+x,-y,1/2+z
loop_
_atom_site_type_symbol
_atom_site_label
_atom_site_fract_x
_atom_site_fract_y
_atom_site_fract_z
Si Si1 0.869923 0.578101 0.916174
Si Si2 0.847180 0.000000 0.500000
Si Si3 0.585839 0.845586 0.989468
Si Si4 0.049202 0.653326 0.259903
Si Si5 0.448455 0.346584 0.266053
Si Si6 0.858615 0.345270 0.851778
Si Si7 0.696470 0.509433 0.247771
O O1 0.914794 0.596172 0.840920
O O2 0.827728 0.561297 0.828656
O O3 0.880395 0.500000 0.000000
O O4 0.857206 0.653555 0.005761
O O5 0.874932 0.086269 0.503337
O O6 0.815995 0.996781 0.613427
O O7 0.606131 0.750000 0.986883
O O8 0.557446 0.864513 0.872115
O O9 0.552375 0.856249 0.099716
O O10 0.048415 0.750000 0.221793
O O11 0.093230 0.613553 0.194408
O O12 0.000000 0.612613 0.222354
O O13 0.500000 0.369936 0.301207
O O14 0.437724 0.250000 0.295190
O O15 0.852868 0.250000 0.806997
O O16 0.817677 0.398704 0.795539
O O17 0.750000 0.497480 0.250000
#
# Coordination Sequence:
#
# PCOD8300397 Si02
#       7
#    16   8  16  16  16  16  16
#     4  10  22  40  58  84 120 160 197 246 298 355
#     4  12  22  40  69  92 116 162 197 252 316 362
#     4  10  20  37  60  90 127 159 199 249 299 356
#     4   9  17  32  56  87 123 159 195 241 295 349
#     4  10  20  36  60  88 120 161 202 242 294 354
#     4  10  21  39  62  88 120 158 202 251 300 353
#     4  11  25  42  65  88 117 154 200 251 312 371
#
# _framework density 19.612190999999999
#
# number of rings (size 3 to 8) (size 9 to 14) (size 15 to 20)
#    0.000    1.846    3.077    0.923    3.231    3.077 
#    0.000    8.462    0.000    2.308    0.000    0.000 
#    0.000    0.000    0.000    0.000    0.000    0.000 
#
# Total GULP energy -644591.973908 kJ/mol
# GULP energy per Si atom -12395.999498 kJ/mol
# Density = 1.956755 g / cm^3
# Si number density = 19.612191 Si / 1000 Ang^3
#
#
#
# Elastic Constant Matrix: (Units=GPa)
#
#
# Indices 1 2 3 4 5 6 
#
# 1 159.3889 42.0251 60.8599 0.0000 0.0000 0.0000
# 2 42.0251 52.1719 23.9240 0.0000 0.0000 0.0000
# 3 60.8599 23.9240 127.4685 0.0000 0.0000 0.0000
# 4 0.0000 0.0000 0.0000 25.6164 0.0000 0.0000
# 5 0.0000 0.0000 0.0000 0.0000 -9.0409 0.0000
# 6 0.0000 0.0000 0.0000 0.0000 0.0000 47.3233
#
#
#
# Elastic Compliance Matrix: (Units=1/GPa)
#
#
# Indices 1 2 3 4 5 6 
#
# 1 0.009034 -0.005798 -0.003225 0.000000 0.000000 0.000000
# 2 -0.005798 0.024694 -0.001866 0.000000 0.000000 0.000000
# 3 -0.003225 -0.001866 0.009735 0.000000 0.000000 0.000000
# 4 0.000000 0.000000 0.000000 0.039038 0.000000 0.000000
# 5 0.000000 0.000000 0.000000 0.000000 -0.110609 0.000000
# 6 0.000000 0.000000 0.000000 0.000000 0.000000 0.021131
#
#
# Mechanical properties :
#
#
# Convention : Reuss Voigt Hill
#
# Bulk Modulus (GPa) = 46.11733 65.84970 55.98351
# Shear Modulus (GPa) = 226.95594 26.92777 126.94186
#
# Velocity S-wave (km/s) = 10.76908 3.70944 8.05397
# Velocity P-wave (km/s) = 13.34902 7.21078 10.72828
#
# Compressibility (1/GPa) = 0.02168382
#
# Stress axis : x y z
#
# Youngs Moduli (GPa) = 110.69028 40.49602 102.72004
#
# Poissons Ratio (x) = 0.23481 0.33129
# Poissons Ratio (y) = 0.64181 0.19171
# Poissons Ratio (z) = 0.35699 0.07558
#
# Static dielectric constant tensor:
#      x y z
#    x 3.435640 0.000000 0.000000 
#    y 0.000000 3.674820 0.000000 
#    z 0.000000 0.000000 4.206580 
# 
# 
# High freq. dielectric constant tensor:
#      x y z
#    x 1.746880 0.000000 0.000000 
#    y 0.000000 1.754460 0.000000 
#    z 0.000000 0.000000 1.781160 
# 
# From -- ./inp_files/26335.got.cif
#   From: 2010.03.12/outbox.cif.g09.slc.cpg/sg74_14_cif.got.tgz:26335.got - 2010.04.16 15:46:19.
