data_PCOD8300712
_publ_section_title
;
Structure prediction by ZEFSAII (Michael W. Deem and Ramdas Pophale) SiO2 
 PCOD8300712
Probable space group: I M M A
;
_chemical_formula_sum "Si O2"
_cell_formula_units_Z 80
_cell_length_a 14.923455
_cell_length_b 9.742367
_cell_length_c 29.429002
_cell_angle_alpha 90.000000
_cell_angle_beta 90.000000
_cell_angle_gamma 90.000000
_cell_volume 4278.675994
_symmetry_space_group_name_H-M "I M M A"
_symmetry_group_IT_number 74
_symmetry_cell_setting 'orthorhombic'
loop_
_space_group_symop_operation_xyz
x,y,z
-x,1/2-y,z
x,-y,-z
-x,1/2+y,-z
-x,-y,-z
x,1/2+y,-z
-x,y,z
x,1/2-y,z
1/2+x,1/2+y,1/2+z
1/2-x,-y,1/2+z
1/2+x,1/2-y,1/2-z
1/2-x,y,1/2-z
1/2-x,1/2-y,1/2-z
1/2+x,y,1/2-z
1/2-x,1/2+y,1/2+z
1/2+x,-y,1/2+z
loop_
_atom_site_type_symbol
_atom_site_label
_atom_site_fract_x
_atom_site_fract_y
_atom_site_fract_z
Si Si1 0.606139 0.401491 0.462076
Si Si2 0.098524 0.586875 0.862174
Si Si3 0.262141 0.588789 0.802565
Si Si4 0.104794 0.409606 0.641239
Si Si5 0.393409 0.402675 0.960758
O O1 0.649689 0.500000 0.500000
O O2 0.500000 0.392012 0.468273
O O3 0.648300 0.250000 0.467994
O O4 0.627935 0.463782 0.412349
O O5 0.092727 0.750000 0.863399
O O6 0.170961 0.535796 0.826068
O O7 0.000000 0.527824 0.849061
O O8 0.279526 0.750000 0.811140
O O9 0.250000 0.555283 0.750000
O O10 0.344838 0.504298 0.822534
O O11 0.127978 0.250000 0.649596
O O12 0.133881 0.452700 0.589921
O O13 0.000000 0.436008 0.648508
O O14 0.500000 0.400948 0.963787
O O15 0.356077 0.250000 0.969468
O O16 0.352240 0.500000 0.000000
#
# Coordination Sequence:
#
# PCOD8300712 Si02
#       5
#    16  16  16  16  16
#     4   8  13  23  42  66  91 122 157 191 231 282
#     4   8  15  30  50  70  97 132 162 193 244 303
#     4  10  21  35  53  78 102 127 168 220 264 302
#     4   9  19  36  55  75 104 141 174 206 253 312
#     4   8  14  26  46  72 100 131 167 204 244 294
#
# _framework density 18.697372000000001
#
# number of rings (size 3 to 8) (size 9 to 14) (size 15 to 20)
#    0.000    3.400    0.000    2.400    0.000    2.400 
#    0.000    6.000    0.000    6.600    0.000    0.000 
#    0.000    0.000    0.000    0.000    0.000    0.000 
#
# Total GULP energy -495759.703814 kJ/mol
# GULP energy per Si atom -12393.992595 kJ/mol
# Density = 1.865482 g / cm^3
# Si number density = 18.697372 Si / 1000 Ang^3
#
#
#
# Elastic Constant Matrix: (Units=GPa)
#
#
# Indices 1 2 3 4 5 6 
#
# 1 68.8270 38.7612 62.6182 0.0000 0.0000 0.0000
# 2 38.7612 76.5931 72.0702 0.0000 0.0000 0.0000
# 3 62.6182 72.0702 163.9183 0.0000 0.0000 0.0000
# 4 0.0000 0.0000 0.0000 31.9833 0.0000 0.0000
# 5 0.0000 0.0000 0.0000 0.0000 7.2998 0.0000
# 6 0.0000 0.0000 0.0000 0.0000 0.0000 19.7313
#
#
#
# Elastic Compliance Matrix: (Units=1/GPa)
#
#
# Indices 1 2 3 4 5 6 
#
# 1 0.023754 -0.005940 -0.006463 0.000000 0.000000 0.000000
# 2 -0.005940 0.023754 -0.008175 0.000000 0.000000 0.000000
# 3 -0.006463 -0.008175 0.012164 0.000000 0.000000 0.000000
# 4 0.000000 0.000000 0.000000 0.031266 0.000000 0.000000
# 5 0.000000 0.000000 0.000000 0.000000 0.136991 0.000000
# 6 0.000000 0.000000 0.000000 0.000000 0.000000 0.050681
#
#
# Mechanical properties :
#
#
# Convention : Reuss Voigt Hill
#
# Bulk Modulus (GPa) = 54.00522 72.91529 63.46026
# Shear Modulus (GPa) = 15.34037 20.86212 18.10124
#
# Velocity S-wave (km/s) = 2.86747 3.34395 3.11483
# Velocity P-wave (km/s) = 6.31741 7.34790 6.85206
#
# Compressibility (1/GPa) = 0.01851673
#
# Stress axis : x y z
#
# Youngs Moduli (GPa) = 42.09808 42.09765 82.21264
#
# Poissons Ratio (x) = 0.25007 0.53130
# Poissons Ratio (y) = 0.25007 0.67208
# Poissons Ratio (z) = 0.27206 0.34414
#
# Static dielectric constant tensor:
#      x y z
#    x 3.285760 0.000000 0.000000 
#    y 0.000000 3.405930 0.000000 
#    z 0.000000 0.000000 3.517810 
# 
# 
# High freq. dielectric constant tensor:
#      x y z
#    x 1.707480 0.000000 0.000000 
#    y 0.000000 1.699220 0.000000 
#    z 0.000000 0.000000 1.728830 
# 
# From -- ./inp_files/65844.got.cif
#   From: 2010.03.12/outbox.cif.g09.slc.cpg/sg74_33_cif.got.tgz:65844.got - 2010.04.16 15:46:19.
