data_PCOD8300524
_publ_section_title
;
Structure prediction by ZEFSAII (Michael W. Deem and Ramdas Pophale) SiO2 
 PCOD8300524
Probable space group: I M M A
;
_chemical_formula_sum "Si O2"
_cell_formula_units_Z 64
_cell_length_a 10.125808
_cell_length_b 9.131450
_cell_length_c 38.159530
_cell_angle_alpha 90.000000
_cell_angle_beta 90.000000
_cell_angle_gamma 90.000000
_cell_volume 3528.356431
_symmetry_space_group_name_H-M "I M M A"
_symmetry_group_IT_number 74
_symmetry_cell_setting 'orthorhombic'
loop_
_space_group_symop_operation_xyz
x,y,z
-x,1/2-y,z
x,-y,-z
-x,1/2+y,-z
-x,-y,-z
x,1/2+y,-z
-x,y,z
x,1/2-y,z
1/2+x,1/2+y,1/2+z
1/2-x,-y,1/2+z
1/2+x,1/2-y,1/2-z
1/2-x,y,1/2-z
1/2-x,1/2-y,1/2-z
1/2+x,y,1/2-z
1/2-x,1/2+y,1/2+z
1/2+x,-y,1/2+z
loop_
_atom_site_type_symbol
_atom_site_label
_atom_site_fract_x
_atom_site_fract_y
_atom_site_fract_z
Si Si1 0.000000 0.075990 0.037290
Si Si2 0.500000 0.419654 0.963297
Si Si3 0.150199 0.423171 0.220506
Si Si4 0.266352 0.420207 0.575416
Si Si5 0.151529 0.416574 0.848768
O O1 0.000000 0.250000 0.032714
O O2 0.128773 0.026930 0.058056
O O3 0.000000 0.000000 0.000000
O O4 0.500000 0.250000 0.972282
O O5 0.373970 0.463775 0.940441
O O6 0.500000 0.500000 0.000000
O O7 0.156437 0.250000 0.218906
O O8 0.250000 0.484236 0.250000
O O9 0.199546 0.482572 0.183112
O O10 0.000000 0.476592 0.228468
O O11 0.303735 0.250000 0.568288
O O12 0.260681 0.450278 0.617050
O O13 0.169143 0.250000 0.836446
O O14 0.000000 0.449797 0.858862
#
# Coordination Sequence:
#
# PCOD8300524 Si02
#       5
#     8   8  16  16  16
#     4  12  24  36  56  84 109 140 181 226 271 322
#     4  10  22  38  58  78 107 146 181 218 273 328
#     4   9  18  33  52  74 104 140 175 212 258 310
#     4  10  20  38  58  80 110 144 180 225 275 326
#     4   9  17  32  55  79 105 137 173 217 267 313
#
# _framework density 18.138757999999999
#
# number of rings (size 3 to 8) (size 9 to 14) (size 15 to 20)
#    0.000    2.250    1.250    1.875    0.000    4.500 
#    2.250    0.000    0.000    0.000    0.000    0.000 
#    0.000    0.000    0.000    0.000    0.000    0.000 
#
# Total GULP energy -396836.719393 kJ/mol
# GULP energy per Si atom -12401.147481 kJ/mol
# Density = 1.809747 g / cm^3
# Si number density = 18.138758 Si / 1000 Ang^3
#
#
#
# Elastic Constant Matrix: (Units=GPa)
#
#
# Indices 1 2 3 4 5 6 
#
# 1 121.4641 46.9690 79.7872 0.0000 0.0000 0.0000
# 2 46.9690 59.5985 47.8780 0.0000 0.0000 0.0000
# 3 79.7872 47.8780 154.8152 0.0000 0.0000 0.0000
# 4 0.0000 0.0000 0.0000 36.8742 0.0000 0.0000
# 5 0.0000 0.0000 0.0000 0.0000 39.8442 0.0000
# 6 0.0000 0.0000 0.0000 0.0000 0.0000 -3.7487
#
#
#
# Elastic Compliance Matrix: (Units=1/GPa)
#
#
# Indices 1 2 3 4 5 6 
#
# 1 0.014441 -0.007188 -0.005220 0.000000 0.000000 0.000000
# 2 -0.007188 0.025903 -0.004306 0.000000 0.000000 0.000000
# 3 -0.005220 -0.004306 0.010481 0.000000 0.000000 0.000000
# 4 0.000000 0.000000 0.000000 0.027119 0.000000 0.000000
# 5 0.000000 0.000000 0.000000 0.000000 0.025098 0.000000
# 6 0.000000 0.000000 0.000000 0.000000 0.000000 -0.266761
#
#
# Mechanical properties :
#
#
# Convention : Reuss Voigt Hill
#
# Bulk Modulus (GPa) = 57.47875 76.12735 66.80305
# Shear Modulus (GPa) = -40.16319 25.34352 -7.40983
#
# Velocity S-wave (km/s) = -4.71065 3.74197 -2.02335
# Velocity P-wave (km/s) = 1.47314 7.79297 5.60805
#
# Compressibility (1/GPa) = 0.01739773
#
# Stress axis : x y z
#
# Youngs Moduli (GPa) = 69.24779 38.60563 95.40946
#
# Poissons Ratio (x) = 0.27748 0.49800
# Poissons Ratio (y) = 0.49773 0.41088
# Poissons Ratio (z) = 0.36144 0.16625
#
# Static dielectric constant tensor:
#      x y z
#    x 3.424760 0.000000 0.000000 
#    y 0.000000 3.278700 0.000000 
#    z 0.000000 0.000000 3.488310 
# 
# 
# High freq. dielectric constant tensor:
#      x y z
#    x 1.693330 0.000000 0.000000 
#    y 0.000000 1.694310 0.000000 
#    z 0.000000 0.000000 1.713140 
# 
# From -- ./inp_files/71297.got.cif
#   From: 2010.03.12/outbox.cif.g09.slc.cpg/sg74_36_cif.got.tgz:71297.got - 2010.04.16 15:46:19.
