data_PCOD8300663
_publ_section_title
;
Structure prediction by ZEFSAII (Michael W. Deem and Ramdas Pophale) SiO2 
 PCOD8300663
Probable space group: I M M A
;
_chemical_formula_sum "Si O2"
_cell_formula_units_Z 112
_cell_length_a 9.555114
_cell_length_b 14.956902
_cell_length_c 43.465957
_cell_angle_alpha 90.000000
_cell_angle_beta 90.000000
_cell_angle_gamma 90.000000
_cell_volume 6211.933059
_symmetry_space_group_name_H-M "I M M A"
_symmetry_group_IT_number 74
_symmetry_cell_setting 'orthorhombic'
loop_
_space_group_symop_operation_xyz
x,y,z
-x,1/2-y,z
x,-y,-z
-x,1/2+y,-z
-x,-y,-z
x,1/2+y,-z
-x,y,z
x,1/2-y,z
1/2+x,1/2+y,1/2+z
1/2-x,-y,1/2+z
1/2+x,1/2-y,1/2-z
1/2-x,y,1/2-z
1/2-x,1/2-y,1/2-z
1/2+x,y,1/2-z
1/2-x,1/2+y,1/2+z
1/2+x,-y,1/2+z
loop_
_atom_site_type_symbol
_atom_site_label
_atom_site_fract_x
_atom_site_fract_y
_atom_site_fract_z
Si Si1 0.662703 0.147727 0.279682
Si Si2 0.162286 0.148060 0.941009
Si Si3 0.663587 0.146069 0.065709
Si Si4 0.845799 0.144055 0.502898
Si Si5 0.165152 0.992290 0.895509
Si Si6 0.662744 0.352253 0.720129
Si Si7 0.164969 0.500594 0.173392
O O1 0.500000 0.131804 0.272029
O O2 0.693808 0.250000 0.288520
O O3 0.750000 0.117792 0.250000
O O4 0.712152 0.088579 0.308556
O O5 0.207904 0.250000 0.933122
O O6 0.240638 0.109317 0.971032
O O7 0.000000 0.143752 0.949112
O O8 0.200288 0.085990 0.912122
O O9 0.500000 0.129358 0.072127
O O10 0.700797 0.250000 0.070338
O O11 0.757070 0.090274 0.089016
O O12 0.702357 0.113536 0.031094
O O13 0.851946 0.250000 0.502896
O O14 0.000000 0.105278 0.510303
O O15 0.000000 0.972229 0.896252
O O16 0.226639 0.000352 0.860977
O O17 0.500000 0.370451 0.727420
O O18 0.689890 0.250000 0.710787
O O19 0.750000 0.379768 0.750000
O O20 0.717321 0.412109 0.691823
O O21 0.000000 0.504563 0.170465
#
# Coordination Sequence:
#
# PCOD8300663 Si02
#       7
#    16  16  16  16  16  16  16
#     4   9  17  30  49  71  93 118 150 189 231 273
#     4   9  18  32  49  71 100 129 159 202 249 287
#     4   9  19  36  54  72  97 127 160 202 250 296
#     4   8  15  30  52  73  92 121 161 201 245 297
#     4  10  21  34  49  72  99 131 170 202 235 287
#     4   9  17  30  50  74  97 123 157 197 239 281
#     4   9  18  32  48  68  96 128 160 191 227 277
#
# _framework density 18.029814999999999
#
# number of rings (size 3 to 8) (size 9 to 14) (size 15 to 20)
#    0.000    3.000    0.000    1.286    0.000    3.143 
#    0.000   10.000    0.000    1.714    0.000    4.000 
#    0.000    0.000    0.000    0.000    0.000    0.000 
#
# Total GULP energy -694267.934937 kJ/mol
# GULP energy per Si atom -12397.641695 kJ/mol
# Density = 1.798878 g / cm^3
# Si number density = 18.029815 Si / 1000 Ang^3
#
#
#
# Elastic Constant Matrix: (Units=GPa)
#
#
# Indices 1 2 3 4 5 6 
#
# 1 48.7999 41.3764 59.9018 0.0000 0.0000 0.0000
# 2 41.3764 101.4490 83.0716 0.0000 0.0000 0.0000
# 3 59.9018 83.0716 182.1871 0.0000 0.0000 0.0000
# 4 0.0000 0.0000 0.0000 26.4252 0.0000 0.0000
# 5 0.0000 0.0000 0.0000 0.0000 24.6919 0.0000
# 6 0.0000 0.0000 0.0000 0.0000 0.0000 20.2175
#
#
#
# Elastic Compliance Matrix: (Units=1/GPa)
#
#
# Indices 1 2 3 4 5 6 
#
# 1 0.038471 -0.008510 -0.008768 0.000000 0.000000 0.000000
# 2 -0.008510 0.017613 -0.005233 0.000000 0.000000 0.000000
# 3 -0.008768 -0.005233 0.010758 0.000000 0.000000 0.000000
# 4 0.000000 0.000000 0.000000 0.037843 0.000000 0.000000
# 5 0.000000 0.000000 0.000000 0.000000 0.040499 0.000000
# 6 0.000000 0.000000 0.000000 0.000000 0.000000 0.049462
#
#
# Mechanical properties :
#
#
# Convention : Reuss Voigt Hill
#
# Bulk Modulus (GPa) = 45.83290 77.90393 61.86842
# Shear Modulus (GPa) = 20.24767 24.13935 22.19351
#
# Velocity S-wave (km/s) = 3.35477 3.66301 3.51227
# Velocity P-wave (km/s) = 6.36253 7.82256 7.13001
#
# Compressibility (1/GPa) = 0.02181839
#
# Stress axis : x y z
#
# Youngs Moduli (GPa) = 25.99366 56.77586 92.95514
#
# Poissons Ratio (x) = 0.48319 0.81507
# Poissons Ratio (y) = 0.22122 0.48642
# Poissons Ratio (z) = 0.22792 0.29710
#
# Static dielectric constant tensor:
#      x y z
#    x 3.268380 0.000000 0.000000 
#    y 0.000000 3.355170 0.000000 
#    z 0.000000 0.000000 3.532540 
# 
# 
# High freq. dielectric constant tensor:
#      x y z
#    x 1.676420 0.000000 0.000000 
#    y 0.000000 1.704390 0.000000 
#    z 0.000000 0.000000 1.694820 
# 
# From -- ./inp_files/71873.got.cif
#   From: 2010.03.12/outbox.cif.g09.slc.cpg/sg74_36_cif.got.tgz:71873.got - 2010.04.16 15:46:19.
