data_PCOD8300828
_publ_section_title
;
Structure prediction by ZEFSAII (Michael W. Deem and Ramdas Pophale) SiO2 
 PCOD8300828
Probable space group: I M M A
;
_chemical_formula_sum "Si O2"
_cell_formula_units_Z 96
_cell_length_a 24.473158
_cell_length_b 22.945086
_cell_length_c 9.358983
_cell_angle_alpha 90.000000
_cell_angle_beta 90.000000
_cell_angle_gamma 90.000000
_cell_volume 5255.431288
_symmetry_space_group_name_H-M "I M M A"
_symmetry_group_IT_number 74
_symmetry_cell_setting 'orthorhombic'
loop_
_space_group_symop_operation_xyz
x,y,z
-x,1/2-y,z
x,-y,-z
-x,1/2+y,-z
-x,-y,-z
x,1/2+y,-z
-x,y,z
x,1/2-y,z
1/2+x,1/2+y,1/2+z
1/2-x,-y,1/2+z
1/2+x,1/2-y,1/2-z
1/2-x,y,1/2-z
1/2-x,1/2-y,1/2-z
1/2+x,y,1/2-z
1/2-x,1/2+y,1/2+z
1/2+x,-y,1/2+z
loop_
_atom_site_type_symbol
_atom_site_label
_atom_site_fract_x
_atom_site_fract_y
_atom_site_fract_z
Si Si1 0.500000 0.866264 0.407229
Si Si2 0.099357 0.818914 0.263324
Si Si3 0.000000 0.519947 0.272093
Si Si4 0.500000 0.113386 0.263742
Si Si5 0.105059 0.123756 0.432445
Si Si6 0.412591 0.000000 0.000000
Si Si7 0.216808 0.815813 0.607685
Si Si8 0.292160 0.686538 0.372981
O O1 0.448235 0.832503 0.346601
O O2 0.500000 0.933679 0.356653
O O3 0.500000 0.858613 0.578766
O O4 0.105088 0.750000 0.289855
O O5 0.088781 0.849111 0.415251
O O6 0.154197 0.845606 0.189142
O O7 0.000000 0.455451 0.207642
O O8 0.947932 0.528851 0.373366
O O9 0.446180 0.132705 0.174811
O O10 0.159173 0.152882 0.369530
O O11 0.121535 0.055119 0.443250
O O12 0.204089 0.750000 0.553994
O O13 0.250000 0.815551 0.750000
O O14 0.257975 0.847863 0.495345
O O15 0.310873 0.750000 0.434406
O O16 0.250000 0.696842 0.250000
#
# Coordination Sequence:
#
# PCOD8300828 Si02
#       8
#     8  16   8   8  16   8  16  16
#     4  12  22  37  55  85 118 148 183 241 288 340
#     4  11  22  36  58  84 114 151 192 237 288 339
#     4   9  17  37  59  80 107 147 195 232 271 343
#     4  10  25  36  56  85 117 150 188 225 293 345
#     4  11  20  39  61  82 114 148 194 236 281 346
#     4   9  18  34  62  86 102 146 196 243 278 326
#     4  10  21  36  59  84 112 151 187 227 283 345
#     4   9  17  33  55  80 104 137 189 230 261 328
#
# _framework density 18.266815999999999
#
# number of rings (size 3 to 8) (size 9 to 14) (size 15 to 20)
#    0.000    1.833    3.333    2.000    2.333    0.000 
#    0.000    3.750    3.667    0.000    0.000    0.000 
#    0.000    0.000    0.000    0.000    0.000    0.000 
#
# Total GULP energy -594755.253425 kJ/mol
# GULP energy per Si atom -12390.734446 kJ/mol
# Density = 1.822524 g / cm^3
# Si number density = 18.266816 Si / 1000 Ang^3
#
#
#
# Elastic Constant Matrix: (Units=GPa)
#
#
# Indices 1 2 3 4 5 6 
#
# 1 137.7047 42.3880 57.4977 0.0000 0.0000 0.0000
# 2 42.3880 72.0610 31.1273 0.0000 0.0000 0.0000
# 3 57.4977 31.1273 112.5132 0.0000 0.0000 0.0000
# 4 0.0000 0.0000 0.0000 24.0075 0.0000 0.0000
# 5 0.0000 0.0000 0.0000 0.0000 30.2137 0.0000
# 6 0.0000 0.0000 0.0000 0.0000 0.0000 34.6517
#
#
#
# Elastic Compliance Matrix: (Units=1/GPa)
#
#
# Indices 1 2 3 4 5 6 
#
# 1 0.010281 -0.004291 -0.004067 0.000000 0.000000 0.000000
# 2 -0.004291 0.017551 -0.002663 0.000000 0.000000 0.000000
# 3 -0.004067 -0.002663 0.011703 0.000000 0.000000 0.000000
# 4 0.000000 0.000000 0.000000 0.041654 0.000000 0.000000
# 5 0.000000 0.000000 0.000000 0.000000 0.033098 0.000000
# 6 0.000000 0.000000 0.000000 0.000000 0.000000 0.028859
#
#
# Mechanical properties :
#
#
# Convention : Reuss Voigt Hill
#
# Bulk Modulus (GPa) = 57.16239 64.92277 61.04258
# Shear Modulus (GPa) = 29.23691 30.52564 29.88127
#
# Velocity S-wave (km/s) = 4.00502 4.09234 4.04892
# Velocity P-wave (km/s) = 7.26278 7.61237 7.43963
#
# Compressibility (1/GPa) = 0.01749402
#
# Stress axis : x y z
#
# Youngs Moduli (GPa) = 97.26963 56.97581 85.44973
#
# Poissons Ratio (x) = 0.24447 0.34750
# Poissons Ratio (y) = 0.41736 0.22755
# Poissons Ratio (z) = 0.39557 0.15173
#
# Static dielectric constant tensor:
#      x y z
#    x 3.351640 0.000000 0.000000 
#    y 0.000000 3.262130 0.000000 
#    z 0.000000 0.000000 3.308540 
# 
# 
# High freq. dielectric constant tensor:
#      x y z
#    x 1.709500 0.000000 0.000000 
#    y 0.000000 1.681820 0.000000 
#    z 0.000000 0.000000 1.714060 
# 
# From -- ./inp_files/14009.got.cif
#   From: 2010.03.12/outbox.cif.g09.slc.cpg/sg74_8_cif.got.tgz:14009.got - 2010.04.16 15:46:19.
