data_PCOD8300718
_publ_section_title
;
Structure prediction by ZEFSAII (Michael W. Deem and Ramdas Pophale) SiO2 
 PCOD8300718
Probable space group: I M M A
;
_chemical_formula_sum "Si O2"
_cell_formula_units_Z 80
_cell_length_a 27.207250
_cell_length_b 27.544051
_cell_length_c 4.985018
_cell_angle_alpha 90.000000
_cell_angle_beta 90.000000
_cell_angle_gamma 90.000000
_cell_volume 3735.761929
_symmetry_space_group_name_H-M "I M M A"
_symmetry_group_IT_number 74
_symmetry_cell_setting 'orthorhombic'
loop_
_space_group_symop_operation_xyz
x,y,z
-x,1/2-y,z
x,-y,-z
-x,1/2+y,-z
-x,-y,-z
x,1/2+y,-z
-x,y,z
x,1/2-y,z
1/2+x,1/2+y,1/2+z
1/2-x,-y,1/2+z
1/2+x,1/2-y,1/2-z
1/2-x,y,1/2-z
1/2-x,1/2-y,1/2-z
1/2+x,y,1/2-z
1/2-x,1/2+y,1/2+z
1/2+x,-y,1/2+z
loop_
_atom_site_type_symbol
_atom_site_label
_atom_site_fract_x
_atom_site_fract_y
_atom_site_fract_z
Si Si1 0.154339 0.352468 0.092806
Si Si2 0.715550 0.554878 0.500839
Si Si3 0.945405 0.543675 0.345154
Si Si4 0.555375 0.895119 0.647225
Si Si5 0.699213 0.193800 0.883225
O O1 0.171215 0.406565 0.006467
O O2 0.095706 0.352392 0.145157
O O3 0.186045 0.335406 0.348474
O O4 0.159095 0.315085 0.846798
O O5 0.693473 0.500000 0.500000
O O6 0.750000 0.563374 0.750000
O O7 0.750000 0.564804 0.250000
O O8 0.915694 0.500000 0.500000
O O9 0.945571 0.588738 0.545944
O O10 0.000000 0.523388 0.287153
O O11 0.925641 0.562071 0.056919
O O12 0.500000 0.877786 0.561826
O O13 0.702707 0.250000 0.962518
O O14 0.750000 0.174676 0.750000
#
# Coordination Sequence:
#
# PCOD8300718 Si02
#       5
#    16  16  16  16  16
#     4  12  22  38  63  88 119 158 195 236 296 356
#     4  10  21  36  54  81 118 156 193 232 279 346
#     4   9  17  31  50  73 108 155 205 253 291 322
#     4  10  21  35  53  81 116 157 202 246 291 342
#     4  11  24  42  66  93 116 141 185 248 310 364
#
# _framework density 21.414639000000001
#
# number of rings (size 3 to 8) (size 9 to 14) (size 15 to 20)
#    0.000    1.600    0.000    6.000    0.000    5.600 
#    0.000    2.000    0.000    3.600    0.000    0.000 
#    0.000    0.000    0.000    0.000    0.000    0.000 
#
# Total GULP energy -495679.707751 kJ/mol
# GULP energy per Si atom -12391.992694 kJ/mol
# Density = 2.136590 g / cm^3
# Si number density = 21.414639 Si / 1000 Ang^3
#
#
#
# Elastic Constant Matrix: (Units=GPa)
#
#
# Indices 1 2 3 4 5 6 
#
# 1 91.6222 41.3680 11.4668 0.0000 0.0000 0.0000
# 2 41.3680 71.0448 20.0986 0.0000 0.0000 0.0000
# 3 11.4668 20.0986 113.3380 0.0000 0.0000 0.0000
# 4 0.0000 0.0000 0.0000 33.1611 0.0000 0.0000
# 5 0.0000 0.0000 0.0000 0.0000 15.2840 0.0000
# 6 0.0000 0.0000 0.0000 0.0000 0.0000 15.4205
#
#
#
# Elastic Compliance Matrix: (Units=1/GPa)
#
#
# Indices 1 2 3 4 5 6 
#
# 1 0.014807 -0.008631 0.000032 0.000000 0.000000 0.000000
# 2 -0.008631 0.019850 -0.002647 0.000000 0.000000 0.000000
# 3 0.000032 -0.002647 0.009289 0.000000 0.000000 0.000000
# 4 0.000000 0.000000 0.000000 0.030156 0.000000 0.000000
# 5 0.000000 0.000000 0.000000 0.000000 0.065428 0.000000
# 6 0.000000 0.000000 0.000000 0.000000 0.000000 0.064849
#
#
# Mechanical properties :
#
#
# Convention : Reuss Voigt Hill
#
# Bulk Modulus (GPa) = 46.60775 46.87464 46.74119
# Shear Modulus (GPa) = 21.36550 26.31124 23.83837
#
# Velocity S-wave (km/s) = 3.16207 3.50902 3.34006
# Velocity P-wave (km/s) = 5.92818 6.19308 6.06208
#
# Compressibility (1/GPa) = 0.02145566
#
# Stress axis : x y z
#
# Youngs Moduli (GPa) = 67.53390 50.37727 107.65129
#
# Poissons Ratio (x) = 0.43482 -0.00350
# Poissons Ratio (y) = 0.58290 0.28494
# Poissons Ratio (z) = -0.00219 0.13334
#
# Static dielectric constant tensor:
#      x y z
#    x 3.747270 0.000000 0.000000 
#    y 0.000000 3.716910 0.000000 
#    z 0.000000 0.000000 4.062260 
# 
# 
# High freq. dielectric constant tensor:
#      x y z
#    x 1.818150 0.000000 0.000000 
#    y 0.000000 1.806960 0.000000 
#    z 0.000000 0.000000 1.867350 
# 
# From -- ./inp_files/4527.got.cif
#   From: 2010.03.12/outbox.cif.g09.slc.cpg/sg74_3_cif.got.tgz:4527.got - 2010.04.16 15:46:19.
