data_PCOD8300506
_publ_section_title
;
Structure prediction by ZEFSAII (Michael W. Deem and Ramdas Pophale) SiO2 
 PCOD8300506
Probable space group: I M M A
;
_chemical_formula_sum "Si O2"
_cell_formula_units_Z 88
_cell_length_a 10.538563
_cell_length_b 14.977312
_cell_length_c 27.872219
_cell_angle_alpha 90.000000
_cell_angle_beta 90.000000
_cell_angle_gamma 90.000000
_cell_volume 4399.332821
_symmetry_space_group_name_H-M "I M M A"
_symmetry_group_IT_number 74
_symmetry_cell_setting 'orthorhombic'
loop_
_space_group_symop_operation_xyz
x,y,z
-x,1/2-y,z
x,-y,-z
-x,1/2+y,-z
-x,-y,-z
x,1/2+y,-z
-x,y,z
x,1/2-y,z
1/2+x,1/2+y,1/2+z
1/2-x,-y,1/2+z
1/2+x,1/2-y,1/2-z
1/2-x,y,1/2-z
1/2-x,1/2-y,1/2-z
1/2+x,y,1/2-z
1/2-x,1/2+y,1/2+z
1/2+x,-y,1/2+z
loop_
_atom_site_type_symbol
_atom_site_label
_atom_site_fract_x
_atom_site_fract_y
_atom_site_fract_z
Si Si1 0.855720 0.151944 0.904420
Si Si2 0.271793 0.020303 0.355383
Si Si3 0.750000 0.051895 0.250000
Si Si4 0.000000 0.648225 0.862593
Si Si5 0.500000 0.653330 0.750483
Si Si6 0.641292 0.650345 0.914389
Si Si7 0.642039 0.103309 0.488956
O O1 0.814386 0.250000 0.885056
O O2 0.843369 0.155886 0.961517
O O3 0.000000 0.131083 0.889019
O O4 0.769596 0.075179 0.881271
O O5 0.284495 0.997491 0.298451
O O6 0.379296 0.087660 0.376589
O O7 0.148188 0.076359 0.371574
O O8 0.628863 0.107130 0.232349
O O9 0.000000 0.750000 0.885106
O O10 0.000000 0.660898 0.806112
O O11 0.500000 0.750000 0.774949
O O12 0.500000 0.642284 0.936831
O O13 0.661937 0.750000 0.892997
O O14 0.745380 0.634699 0.955241
O O15 0.500000 0.122427 0.466485
O O16 0.656406 0.000000 0.500000
#
# Coordination Sequence:
#
# PCOD8300506 Si02
#       7
#    16  16   8   8   8  16  16
#     4  10  20  37  63  92 119 150 196 254 308 350
#     4  11  21  39  57  87 120 156 200 248 293 349
#     4  10  23  36  59  82 116 160 200 244 300 342
#     4   9  18  32  55  84 114 150 193 242 291 344
#     4   9  18  34  54  81 112 151 197 241 289 351
#     4  11  25  40  57  87 126 164 195 230 289 363
#     4  10  20  38  64  91 118 150 195 248 299 351
#
# _framework density 20.003032000000001
#
# number of rings (size 3 to 8) (size 9 to 14) (size 15 to 20)
#    0.000    1.818    2.727    1.364    2.545    3.636 
#    0.000    0.455    0.000    0.545    0.000    0.000 
#    0.000    0.000    0.000    0.000    0.000    0.000 
#
# Total GULP energy -545193.700521 kJ/mol
# GULP energy per Si atom -12390.765921 kJ/mol
# Density = 1.995750 g / cm^3
# Si number density = 20.003032 Si / 1000 Ang^3
#
#
#
# Elastic Constant Matrix: (Units=GPa)
#
#
# Indices 1 2 3 4 5 6 
#
# 1 107.5072 38.5495 36.2585 0.0000 0.0000 0.0000
# 2 38.5495 139.2818 37.8203 0.0000 0.0000 0.0000
# 3 36.2585 37.8203 72.7340 0.0000 0.0000 0.0000
# 4 0.0000 0.0000 0.0000 13.4497 0.0000 0.0000
# 5 0.0000 0.0000 0.0000 0.0000 21.6519 0.0000
# 6 0.0000 0.0000 0.0000 0.0000 0.0000 50.5546
#
#
#
# Elastic Compliance Matrix: (Units=1/GPa)
#
#
# Indices 1 2 3 4 5 6 
#
# 1 0.011602 -0.001910 -0.004791 0.000000 0.000000 0.000000
# 2 -0.001910 0.008675 -0.003558 0.000000 0.000000 0.000000
# 3 -0.004791 -0.003558 0.017987 0.000000 0.000000 0.000000
# 4 0.000000 0.000000 0.000000 0.074351 0.000000 0.000000
# 5 0.000000 0.000000 0.000000 0.000000 0.046185 0.000000
# 6 0.000000 0.000000 0.000000 0.000000 0.000000 0.019781
#
#
# Mechanical properties :
#
#
# Convention : Reuss Voigt Hill
#
# Bulk Modulus (GPa) = 56.35172 60.53106 58.44139
# Shear Modulus (GPa) = 24.38848 30.92422 27.65635
#
# Velocity S-wave (km/s) = 3.49555 3.93616 3.72238
# Velocity P-wave (km/s) = 6.67267 7.14034 6.91046
#
# Compressibility (1/GPa) = 0.01774569
#
# Stress axis : x y z
#
# Youngs Moduli (GPa) = 86.18894 115.27832 55.59547
#
# Poissons Ratio (x) = 0.22023 0.26633
# Poissons Ratio (y) = 0.16466 0.19782
# Poissons Ratio (z) = 0.41289 0.41019
#
# Static dielectric constant tensor:
#      x y z
#    x 3.697890 0.000000 0.000000 
#    y 0.000000 3.607060 0.000000 
#    z 0.000000 0.000000 3.486750 
# 
# 
# High freq. dielectric constant tensor:
#      x y z
#    x 1.771210 0.000000 0.000000 
#    y 0.000000 1.771350 0.000000 
#    z 0.000000 0.000000 1.774100 
# 
# From -- ./inp_files/65983.got.cif
#   From: 2010.03.12/outbox.cif.g09.slc.cpg/sg74_33_cif.got.tgz:65983.got - 2010.04.16 15:46:19.
