data_PCOD8300456
_publ_section_title
;
Structure prediction by ZEFSAII (Michael W. Deem and Ramdas Pophale) SiO2 
 PCOD8300456
Probable space group: I M M A
;
_chemical_formula_sum "Si O2"
_cell_formula_units_Z 104
_cell_length_a 20.453702
_cell_length_b 9.209649
_cell_length_c 29.635375
_cell_angle_alpha 90.000000
_cell_angle_beta 90.000000
_cell_angle_gamma 90.000000
_cell_volume 5582.457557
_symmetry_space_group_name_H-M "I M M A"
_symmetry_group_IT_number 74
_symmetry_cell_setting 'orthorhombic'
loop_
_space_group_symop_operation_xyz
x,y,z
-x,1/2-y,z
x,-y,-z
-x,1/2+y,-z
-x,-y,-z
x,1/2+y,-z
-x,y,z
x,1/2-y,z
1/2+x,1/2+y,1/2+z
1/2-x,-y,1/2+z
1/2+x,1/2-y,1/2-z
1/2-x,y,1/2-z
1/2-x,1/2-y,1/2-z
1/2+x,y,1/2-z
1/2-x,1/2+y,1/2+z
1/2+x,-y,1/2+z
loop_
_atom_site_type_symbol
_atom_site_label
_atom_site_fract_x
_atom_site_fract_y
_atom_site_fract_z
Si Si1 0.131635 0.581837 0.371670
Si Si2 0.925648 0.084128 0.290075
Si Si3 0.642269 0.419753 0.547536
Si Si4 0.812592 0.419585 0.222121
Si Si5 0.000000 0.584580 0.045279
Si Si6 0.575696 0.917859 0.954345
Si Si7 0.283378 0.082572 0.634582
O O1 0.114403 0.750000 0.380025
O O2 0.086827 0.521876 0.331737
O O3 0.118959 0.490748 0.416271
O O4 0.206686 0.558589 0.359078
O O5 0.912543 0.250000 0.305832
O O6 0.878557 0.042711 0.248934
O O7 0.000000 0.063895 0.273520
O O8 0.654538 0.500000 0.500000
O O9 0.652426 0.250000 0.537651
O O10 0.569457 0.451421 0.569295
O O11 0.693212 0.475157 0.585468
O O12 0.804137 0.250000 0.213023
O O13 0.750000 0.478816 0.250000
O O14 0.819595 0.496744 0.174117
O O15 0.000000 0.750000 0.030909
O O16 0.000000 0.500000 0.000000
O O17 0.500000 0.936067 0.941432
O O18 0.594981 0.750000 0.959660
O O19 0.592939 0.000000 0.000000
O O20 0.303300 0.250000 0.639213
#
# Coordination Sequence:
#
# PCOD8300456 Si02
#       7
#    16  16  16  16   8  16  16
#     4  11  22  35  54  80 110 144 183 224 270 326
#     4  10  21  38  59  82 109 140 179 229 277 323
#     4   9  18  34  54  78 107 139 177 219 264 315
#     4  10  20  37  60  82 106 142 186 224 268 327
#     4   8  14  28  52  74  98 134 174 214 258 308
#     4  10  21  37  56  78 107 143 182 226 275 323
#     4  10  22  37  54  80 113 145 179 220 269 322
#
# _framework density 18.629788000000001
#
# number of rings (size 3 to 8) (size 9 to 14) (size 15 to 20)
#    0.000    2.154    1.538    1.385    0.000    5.846 
#    1.385    1.538    0.000    0.000    0.000    0.000 
#    0.000    0.000    0.000    0.000    0.000    0.000 
#
# Total GULP energy -644707.486856 kJ/mol
# GULP energy per Si atom -12398.220901 kJ/mol
# Density = 1.858739 g / cm^3
# Si number density = 18.629788 Si / 1000 Ang^3
#
#
#
# Elastic Constant Matrix: (Units=GPa)
#
#
# Indices 1 2 3 4 5 6 
#
# 1 91.2533 34.7861 48.3666 0.0000 0.0000 0.0000
# 2 34.7861 84.0804 58.4928 0.0000 0.0000 0.0000
# 3 48.3666 58.4928 125.0213 0.0000 0.0000 0.0000
# 4 0.0000 0.0000 0.0000 38.2792 0.0000 0.0000
# 5 0.0000 0.0000 0.0000 0.0000 32.7587 0.0000
# 6 0.0000 0.0000 0.0000 0.0000 0.0000 76.6361
#
#
#
# Elastic Compliance Matrix: (Units=1/GPa)
#
#
# Indices 1 2 3 4 5 6 
#
# 1 0.014299 -0.003065 -0.004098 0.000000 0.000000 0.000000
# 2 -0.003065 0.018289 -0.007371 0.000000 0.000000 0.000000
# 3 -0.004098 -0.007371 0.013033 0.000000 0.000000 0.000000
# 4 0.000000 0.000000 0.000000 0.026124 0.000000 0.000000
# 5 0.000000 0.000000 0.000000 0.000000 0.030526 0.000000
# 6 0.000000 0.000000 0.000000 0.000000 0.000000 0.013049
#
#
# Mechanical properties :
#
#
# Convention : Reuss Voigt Hill
#
# Bulk Modulus (GPa) = 60.41223 64.84956 62.63090
# Shear Modulus (GPa) = 33.35440 40.11541 36.73491
#
# Velocity S-wave (km/s) = 4.23588 4.64539 4.44535
# Velocity P-wave (km/s) = 7.51144 7.97860 7.74854
#
# Compressibility (1/GPa) = 0.01655294
#
# Stress axis : x y z
#
# Youngs Moduli (GPa) = 69.93586 54.67636 76.73068
#
# Poissons Ratio (x) = 0.16759 0.31442
# Poissons Ratio (y) = 0.21436 0.56559
# Poissons Ratio (z) = 0.28658 0.40303
#
# Static dielectric constant tensor:
#      x y z
#    x 2.897170 0.000000 0.000000 
#    y 0.000000 3.436270 0.000000 
#    z 0.000000 0.000000 3.328900 
# 
# 
# High freq. dielectric constant tensor:
#      x y z
#    x 1.728620 0.000000 0.000000 
#    y 0.000000 1.723520 0.000000 
#    z 0.000000 0.000000 1.714000 
# 
# From -- ./inp_files/73403.got.cif
#   From: 2010.03.12/outbox.cif.g09.slc.cpg/sg74_37_cif.got.tgz:73403.got - 2010.04.16 15:46:19.
