data_PCOD8300124
_publ_section_title
;
Structure prediction by ZEFSAII (Michael W. Deem and Ramdas Pophale) SiO2 
 PCOD8300124
Probable space group: I M M A
;
_chemical_formula_sum "Si O2"
_cell_formula_units_Z 80
_cell_length_a 8.912480
_cell_length_b 25.979675
_cell_length_c 17.574194
_cell_angle_alpha 90.000000
_cell_angle_beta 90.000000
_cell_angle_gamma 90.000000
_cell_volume 4069.187468
_symmetry_space_group_name_H-M "I M M A"
_symmetry_group_IT_number 74
_symmetry_cell_setting 'orthorhombic'
loop_
_space_group_symop_operation_xyz
x,y,z
-x,1/2-y,z
x,-y,-z
-x,1/2+y,-z
-x,-y,-z
x,1/2+y,-z
-x,y,z
x,1/2-y,z
1/2+x,1/2+y,1/2+z
1/2-x,-y,1/2+z
1/2+x,1/2-y,1/2-z
1/2-x,y,1/2-z
1/2-x,1/2-y,1/2-z
1/2+x,y,1/2-z
1/2-x,1/2+y,1/2+z
1/2+x,-y,1/2+z
loop_
_atom_site_type_symbol
_atom_site_label
_atom_site_fract_x
_atom_site_fract_y
_atom_site_fract_z
Si Si1 0.674033 0.806481 0.891087
Si Si2 0.830529 0.914951 0.065165
Si Si3 0.676005 0.491590 0.826879
Si Si4 0.670127 0.695073 0.452722
Si Si5 0.327370 0.591706 0.614942
O O1 0.500000 0.819864 0.880922
O O2 0.711335 0.750000 0.854663
O O3 0.771672 0.852505 0.854455
O O4 0.710263 0.803653 0.980213
O O5 0.802260 0.856490 0.097517
O O6 0.000000 0.933533 0.082593
O O7 0.716914 0.954166 0.103578
O O8 0.800486 0.914123 0.975092
O O9 0.500000 0.492369 0.816580
O O10 0.750000 0.469678 0.750000
O O11 0.732665 0.548932 0.841827
O O12 0.500000 0.689964 0.486843
O O13 0.683956 0.750000 0.407085
O O14 0.500000 0.584762 0.637074
#
# Coordination Sequence:
#
# PCOD8300124 Si02
#       5
#    16  16  16  16  16
#     4   9  16  26  44  74 109 139 169 208 251 296
#     4   9  18  33  54  80 109 138 171 212 255 303
#     4  12  25  39  55  74 101 136 175 218 264 314
#     4   8  14  26  46  73 105 139 170 204 252 305
#     4  10  20  35  56  80 107 138 173 213 257 307
#
# _framework density 19.659945
#
# number of rings (size 3 to 8) (size 9 to 14) (size 15 to 20)
#    0.000    2.400    0.000    4.800    0.000    7.600 
#    0.000    0.000    0.000    1.200    0.000    0.000 
#    0.000    0.000    0.000    0.000    0.000    0.000 
#
# Total GULP energy -495650.630357 kJ/mol
# GULP energy per Si atom -12391.265759 kJ/mol
# Density = 1.961520 g / cm^3
# Si number density = 19.659945 Si / 1000 Ang^3
#
#
#
# Elastic Constant Matrix: (Units=GPa)
#
#
# Indices 1 2 3 4 5 6 
#
# 1 112.8798 36.8074 17.5730 0.0004 0.0000 0.0000
# 2 36.8074 112.3444 4.6211 0.0000 0.0000 0.0000
# 3 17.5730 4.6211 23.1212 0.0020 -0.0001 0.0000
# 4 0.0004 0.0000 0.0020 0.4728 -0.0001 0.0000
# 5 0.0000 0.0000 -0.0001 -0.0001 21.4736 0.0001
# 6 0.0000 0.0000 0.0000 0.0000 0.0001 35.1063
#
#
#
# Elastic Compliance Matrix: (Units=1/GPa)
#
#
# Indices 1 2 3 4 5 6 
#
# 1 0.011164 -0.003336 -0.007818 0.000024 0.000000 0.000000
# 2 -0.003336 0.009972 0.000543 0.000000 0.000000 0.000000
# 3 -0.007818 0.000543 0.049084 -0.000199 0.000000 0.000000
# 4 0.000024 0.000000 -0.000199 2.114838 0.000005 0.000000
# 5 0.000000 0.000000 0.000000 0.000005 0.046569 0.000000
# 6 0.000000 0.000000 0.000000 0.000000 0.000000 0.028485
#
#
# Mechanical properties :
#
#
# Convention : Reuss Voigt Hill
#
# Bulk Modulus (GPa) = 20.40972 40.70537 30.55754
# Shear Modulus (GPa) = 2.17612 24.03347 13.10480
#
# Velocity S-wave (km/s) = 1.05323 3.50016 2.58461
# Velocity P-wave (km/s) = 3.44717 6.08970 4.94810
#
# Compressibility (1/GPa) = 0.04899626
#
# Stress axis : x y z
#
# Youngs Moduli (GPa) = 89.57420 100.28210 20.37323
#
# Poissons Ratio (x) = 0.33455 0.15928
# Poissons Ratio (y) = 0.29882 -0.01105
# Poissons Ratio (z) = 0.70031 -0.05441
#
# Static dielectric constant tensor:
#      x y z
#    x 3.544290 0.000000 0.000000 
#    y 0.000000 4.229430 0.000000 
#    z 0.000000 0.000000 3.039970 
# 
# 
# High freq. dielectric constant tensor:
#      x y z
#    x 1.769490 0.000000 0.000000 
#    y 0.000000 1.797830 0.000000 
#    z 0.000000 0.000000 1.696690 
# 
# From -- ./inp_files/39687.got.cif
#   From: 2010.03.12/outbox.cif.g09.slc.cpg/sg74_20_cif.got.tgz:39687.got - 2010.04.16 15:46:19.
