data_PCOD8300260
_publ_section_title
;
Structure prediction by ZEFSAII (Michael W. Deem and Ramdas Pophale) SiO2 
 PCOD8300260
Probable space group: I M M A
;
_chemical_formula_sum "Si O2"
_cell_formula_units_Z 120
_cell_length_a 27.520589
_cell_length_b 9.090867
_cell_length_c 27.751835
_cell_angle_alpha 90.000000
_cell_angle_beta 90.000000
_cell_angle_gamma 90.000000
_cell_volume 6943.120990
_symmetry_space_group_name_H-M "I M M A"
_symmetry_group_IT_number 74
_symmetry_cell_setting 'orthorhombic'
loop_
_space_group_symop_operation_xyz
x,y,z
-x,1/2-y,z
x,-y,-z
-x,1/2+y,-z
-x,-y,-z
x,1/2+y,-z
-x,y,z
x,1/2-y,z
1/2+x,1/2+y,1/2+z
1/2-x,-y,1/2+z
1/2+x,1/2-y,1/2-z
1/2-x,y,1/2-z
1/2-x,1/2-y,1/2-z
1/2+x,y,1/2-z
1/2-x,1/2+y,1/2+z
1/2+x,-y,1/2+z
loop_
_atom_site_type_symbol
_atom_site_label
_atom_site_fract_x
_atom_site_fract_y
_atom_site_fract_z
Si Si1 0.220149 0.077955 0.952933
Si Si2 0.670160 0.580001 0.046585
Si Si3 0.000000 0.424576 0.448532
Si Si4 0.213300 0.410586 0.706392
Si Si5 0.444044 0.921126 0.218438
Si Si6 0.303729 0.422585 0.650837
Si Si7 0.139176 0.076239 0.233592
Si Si8 0.581676 0.919729 0.110291
O O1 0.219146 0.250000 0.962604
O O2 0.275290 0.022091 0.943911
O O3 0.188273 0.039142 0.905519
O O4 0.197366 0.000000 0.000000
O O5 0.670743 0.750000 0.033554
O O6 0.637136 0.550553 0.093699
O O7 0.647250 0.500000 0.000000
O O8 0.000000 0.500000 0.500000
O O9 0.047427 0.473606 0.419694
O O10 0.000000 0.250000 0.454755
O O11 0.189084 0.250000 0.695183
O O12 0.250000 0.391418 0.750000
O O13 0.247007 0.463153 0.661948
O O14 0.171902 0.526294 0.720711
O O15 0.500000 0.969679 0.220596
O O16 0.438043 0.750000 0.230570
O O17 0.422397 0.959422 0.166212
O O18 0.414965 0.014575 0.258319
O O19 0.312168 0.250000 0.661604
O O20 0.340950 0.515258 0.682920
O O21 0.138554 0.250000 0.230982
O O22 0.566111 0.750000 0.101373
#
# Coordination Sequence:
#
# PCOD8300260 Si02
#       8
#    16  16   8  16  16  16  16  16
#     4   9  18  32  50  74 102 134 167 202 245 290
#     4   9  18  31  49  70  94 123 161 207 250 296
#     4  12  24  36  52  70  94 122 160 214 269 320
#     4   8  15  29  49  70  94 128 169 206 241 288
#     4  10  21  38  58  74  94 128 170 212 257 316
#     4   9  18  33  53  73  98 135 177 209 242 296
#     4  11  22  33  49  75 105 131 161 208 263 308
#     4  10  20  36  55  72  90 119 166 214 259 308
#
# _framework density 17.283294000000001
#
# number of rings (size 3 to 8) (size 9 to 14) (size 15 to 20)
#    0.000    2.400    0.667    3.000    1.867    5.333 
#    0.000    0.000    0.000    0.000    0.000    0.000 
#    0.000    0.533    0.000    1.733    0.000    2.133 
#
# Total GULP energy -743826.070120 kJ/mol
# GULP energy per Si atom -12397.101169 kJ/mol
# Density = 1.724396 g / cm^3
# Si number density = 17.283294 Si / 1000 Ang^3
#
#
#
# Elastic Constant Matrix: (Units=GPa)
#
#
# Indices 1 2 3 4 5 6 
#
# 1 67.8753 41.2181 45.1839 0.0000 0.0000 0.0000
# 2 41.2181 87.9041 53.5454 0.0000 0.0000 0.0000
# 3 45.1839 53.5454 109.5686 0.0000 0.0000 0.0000
# 4 0.0000 0.0000 0.0000 24.9225 0.0000 0.0000
# 5 0.0000 0.0000 0.0000 0.0000 23.7678 0.0000
# 6 0.0000 0.0000 0.0000 0.0000 0.0000 20.2055
#
#
#
# Elastic Compliance Matrix: (Units=1/GPa)
#
#
# Indices 1 2 3 4 5 6 
#
# 1 0.023089 -0.007157 -0.006024 0.000000 0.000000 0.000000
# 2 -0.007157 0.018416 -0.006048 0.000000 0.000000 0.000000
# 3 -0.006024 -0.006048 0.014567 0.000000 0.000000 0.000000
# 4 0.000000 0.000000 0.000000 0.040124 0.000000 0.000000
# 5 0.000000 0.000000 0.000000 0.000000 0.042074 0.000000
# 6 0.000000 0.000000 0.000000 0.000000 0.000000 0.049491
#
#
# Mechanical properties :
#
#
# Convention : Reuss Voigt Hill
#
# Bulk Modulus (GPa) = 56.77552 60.58253 58.67903
# Shear Modulus (GPa) = 21.54320 22.13920 21.84120
#
# Velocity S-wave (km/s) = 3.53438 3.58293 3.55874
# Velocity P-wave (km/s) = 7.04109 7.22809 7.13520
#
# Compressibility (1/GPa) = 0.01761322
#
# Stress axis : x y z
#
# Youngs Moduli (GPa) = 43.31032 54.29958 68.64984
#
# Poissons Ratio (x) = 0.38863 0.41354
# Poissons Ratio (y) = 0.30998 0.41523
# Poissons Ratio (z) = 0.26090 0.32843
#
# Static dielectric constant tensor:
#      x y z
#    x 3.055430 0.000000 0.000000 
#    y 0.000000 3.088450 0.000000 
#    z 0.000000 0.000000 3.361750 
# 
# 
# High freq. dielectric constant tensor:
#      x y z
#    x 1.637470 0.000000 0.000000 
#    y 0.000000 1.656200 0.000000 
#    z 0.000000 0.000000 1.660900 
# 
# From -- ./inp_files/69028.got.cif
#   From: 2010.03.12/outbox.cif.g09.slc.cpg/sg74_35_cif.got.tgz:69028.got - 2010.04.16 15:46:19.
