data_PCOD8300901
_publ_section_title
;
Structure prediction by ZEFSAII (Michael W. Deem and Ramdas Pophale) SiO2 
 PCOD8300901
Probable space group: I M M A
;
_chemical_formula_sum "Si O2"
_cell_formula_units_Z 56
_cell_length_a 10.572361
_cell_length_b 9.223676
_cell_length_c 28.240255
_cell_angle_alpha 90.000000
_cell_angle_beta 90.000000
_cell_angle_gamma 90.000000
_cell_volume 2753.877622
_symmetry_space_group_name_H-M "I M M A"
_symmetry_group_IT_number 74
_symmetry_cell_setting 'orthorhombic'
loop_
_space_group_symop_operation_xyz
x,y,z
-x,1/2-y,z
x,-y,-z
-x,1/2+y,-z
-x,-y,-z
x,1/2+y,-z
-x,y,z
x,1/2-y,z
1/2+x,1/2+y,1/2+z
1/2-x,-y,1/2+z
1/2+x,1/2-y,1/2-z
1/2-x,y,1/2-z
1/2-x,1/2-y,1/2-z
1/2+x,y,1/2-z
1/2-x,1/2+y,1/2+z
1/2+x,-y,1/2+z
loop_
_atom_site_type_symbol
_atom_site_label
_atom_site_fract_x
_atom_site_fract_y
_atom_site_fract_z
Si Si1 0.000000 0.415059 0.452203
Si Si2 0.725257 0.080436 0.117275
Si Si3 0.146041 0.589445 0.043971
Si Si4 0.854169 0.416707 0.710160
O O1 0.000000 0.500000 0.500000
O O2 0.880823 0.455925 0.420793
O O3 0.000000 0.250000 0.466678
O O4 0.756057 0.250000 0.122620
O O5 0.843149 0.993977 0.094618
O O6 0.681490 0.021446 0.167542
O O7 0.209350 0.750000 0.046374
O O8 0.000000 0.609397 0.032947
O O9 0.208326 0.500000 0.000000
O O10 0.842265 0.250000 0.693976
O O11 0.750000 0.451582 0.750000
O O12 0.000000 0.448041 0.726995
#
# Coordination Sequence:
#
# PCOD8300901 Si02
#       4
#     8  16  16  16
#     4  10  22  36  54  84 120 156 194 240 291 354
#     4  11  22  38  59  86 120 156 200 249 303 366
#     4  10  21  37  57  84 120 161 204 249 299 360
#     4  10  22  41  64  89 119 159 207 261 319 378
#
# _framework density 20.334963999999999
#
# number of rings (size 3 to 8) (size 9 to 14) (size 15 to 20)
#    0.000    1.714    1.429    2.571    0.000    8.000 
#    0.000    2.857    0.000    0.000    0.000    0.000 
#    0.000    0.000    0.000    0.000    0.000    0.000 
#
# Total GULP energy -347088.880897 kJ/mol
# GULP energy per Si atom -12396.031461 kJ/mol
# Density = 2.028868 g / cm^3
# Si number density = 20.334964 Si / 1000 Ang^3
#
#
#
# Elastic Constant Matrix: (Units=GPa)
#
#
# Indices 1 2 3 4 5 6 
#
# 1 65.7816 43.6229 50.0442 0.0000 0.0000 0.0000
# 2 43.6229 153.9503 87.2692 0.0000 0.0000 0.0000
# 3 50.0442 87.2692 137.5106 0.0000 0.0000 0.0000
# 4 0.0000 0.0000 0.0000 42.6980 0.0000 0.0000
# 5 0.0000 0.0000 0.0000 0.0000 43.8060 0.0000
# 6 0.0000 0.0000 0.0000 0.0000 0.0000 17.2273
#
#
#
# Elastic Compliance Matrix: (Units=1/GPa)
#
#
# Indices 1 2 3 4 5 6 
#
# 1 0.021673 -0.002608 -0.006232 0.000000 0.000000 0.000000
# 2 -0.002608 0.010459 -0.005689 0.000000 0.000000 0.000000
# 3 -0.006232 -0.005689 0.013150 0.000000 0.000000 0.000000
# 4 0.000000 0.000000 0.000000 0.023420 0.000000 0.000000
# 5 0.000000 0.000000 0.000000 0.000000 0.022828 0.000000
# 6 0.000000 0.000000 0.000000 0.000000 0.000000 0.058047
#
#
# Mechanical properties :
#
#
# Convention : Reuss Voigt Hill
#
# Bulk Modulus (GPa) = 61.63541 79.90168 70.76855
# Shear Modulus (GPa) = 27.16741 32.50002 29.83372
#
# Velocity S-wave (km/s) = 3.65909 4.00213 3.83445
# Velocity P-wave (km/s) = 6.94462 7.79321 7.38112
#
# Compressibility (1/GPa) = 0.01622444
#
# Stress axis : x y z
#
# Youngs Moduli (GPa) = 46.14122 95.60763 76.04359
#
# Poissons Ratio (x) = 0.24939 0.47390
# Poissons Ratio (y) = 0.12036 0.43258
# Poissons Ratio (z) = 0.28755 0.54388
#
# Static dielectric constant tensor:
#      x y z
#    x 3.828870 0.000000 0.000000 
#    y 0.000000 3.930350 0.000000 
#    z 0.000000 0.000000 3.552610 
# 
# 
# High freq. dielectric constant tensor:
#      x y z
#    x 1.795460 0.000000 0.000000 
#    y 0.000000 1.805710 0.000000 
#    z 0.000000 0.000000 1.787050 
# 
# From -- ./inp_files/63241.got.cif
#   From: 2010.03.12/outbox.cif.g09.slc.cpg/sg74_32_cif.got.tgz:63241.got - 2010.04.16 15:46:19.
