data_PCOD8300648
_publ_section_title
;
Structure prediction by ZEFSAII (Michael W. Deem and Ramdas Pophale) SiO2 
 PCOD8300648
Probable space group: I M M A
;
_chemical_formula_sum "Si O2"
_cell_formula_units_Z 112
_cell_length_a 14.795755
_cell_length_b 28.001285
_cell_length_c 15.262761
_cell_angle_alpha 90.000000
_cell_angle_beta 90.000000
_cell_angle_gamma 90.000000
_cell_volume 6323.364211
_symmetry_space_group_name_H-M "I M M A"
_symmetry_group_IT_number 74
_symmetry_cell_setting 'orthorhombic'
loop_
_space_group_symop_operation_xyz
x,y,z
-x,1/2-y,z
x,-y,-z
-x,1/2+y,-z
-x,-y,-z
x,1/2+y,-z
-x,y,z
x,1/2-y,z
1/2+x,1/2+y,1/2+z
1/2-x,-y,1/2+z
1/2+x,1/2-y,1/2-z
1/2-x,y,1/2-z
1/2-x,1/2-y,1/2-z
1/2+x,y,1/2-z
1/2-x,1/2+y,1/2+z
1/2+x,-y,1/2+z
loop_
_atom_site_type_symbol
_atom_site_label
_atom_site_fract_x
_atom_site_fract_y
_atom_site_fract_z
Si Si1 0.103966 0.386012 0.169480
Si Si2 0.785570 0.982080 0.399947
Si Si3 0.402700 0.489230 0.399258
Si Si4 0.897923 0.399268 0.543266
Si Si5 0.103778 0.931964 0.652475
Si Si6 0.897442 0.697010 0.522252
Si Si7 0.733729 0.802607 0.648080
O O1 0.120440 0.433373 0.112047
O O2 0.136080 0.396728 0.269599
O O3 0.161819 0.343841 0.124723
O O4 0.000000 0.369780 0.167420
O O5 0.829953 0.929424 0.396007
O O6 0.787377 0.000000 0.500000
O O7 0.682316 0.979815 0.363372
O O8 0.841939 0.018376 0.339908
O O9 0.414594 0.500000 0.500000
O O10 0.500000 0.501144 0.352487
O O11 0.879385 0.407302 0.440208
O O12 0.881922 0.342252 0.555203
O O13 0.000000 0.414796 0.567536
O O14 0.000000 0.945619 0.667775
O O15 0.884586 0.750000 0.481717
O O16 0.829165 0.687679 0.601517
O O17 0.000000 0.690640 0.559440
O O18 0.696542 0.750000 0.619622
O O19 0.750000 0.802826 0.750000
#
# Coordination Sequence:
#
# PCOD8300648 Si02
#       7
#    16  16  16  16  16  16  16
#     4  10  21  33  47  62  84 118 151 188 226 256
#     4   9  17  26  43  63  81 111 135 179 215 254
#     4   9  19  32  43  59  80 109 147 181 217 262
#     4   9  16  27  44  65  87 110 139 172 215 266
#     4   9  17  28  41  63  87 111 142 177 217 260
#     4   9  18  31  45  62  85 112 141 178 221 264
#     4  10  21  31  44  62  83 113 150 188 221 256
#
# _framework density 17.712091000000001
#
# number of rings (size 3 to 8) (size 9 to 14) (size 15 to 20)
#    0.000    2.714    0.000    1.286    8.000    3.714 
#    0.000    1.429    0.000    0.000    0.000    0.000 
#    0.000    0.000    0.000    3.857    0.000   38.286 
#
# Total GULP energy -693871.301901 kJ/mol
# GULP energy per Si atom -12390.558963 kJ/mol
# Density = 1.767178 g / cm^3
# Si number density = 17.712091 Si / 1000 Ang^3
#
#
#
# Elastic Constant Matrix: (Units=GPa)
#
#
# Indices 1 2 3 4 5 6 
#
# 1 130.0916 84.7044 12.8531 -0.0002 0.0000 0.0000
# 2 84.7044 131.3155 17.9829 0.0001 0.0000 0.0000
# 3 12.8531 17.9829 11.4247 -0.0006 0.0000 0.0000
# 4 -0.0002 0.0001 -0.0006 22.7028 0.0000 0.0000
# 5 0.0000 0.0000 0.0000 0.0000 12.9365 0.0000
# 6 0.0000 0.0000 0.0000 0.0000 0.0000 31.7910
#
#
#
# Elastic Compliance Matrix: (Units=1/GPa)
#
#
# Indices 1 2 3 4 5 6 
#
# 1 0.013284 -0.008314 -0.001858 0.000000 0.000000 0.000000
# 2 -0.008314 0.014912 -0.014118 0.000000 0.000000 0.000000
# 3 -0.001858 -0.014118 0.111842 0.000003 0.000000 0.000000
# 4 0.000000 0.000000 0.000003 0.044047 0.000000 0.000000
# 5 0.000000 0.000000 0.000000 0.000000 0.077301 0.000000
# 6 0.000000 0.000000 0.000000 0.000000 0.000000 0.031455
#
#
# Mechanical properties :
#
#
# Convention : Reuss Voigt Hill
#
# Bulk Modulus (GPa) = 10.93402 55.99030 33.46216
# Shear Modulus (GPa) = 13.44423 23.97215 18.70819
#
# Velocity S-wave (km/s) = 2.75806 3.68290 3.25351
# Velocity P-wave (km/s) = 4.04093 7.05443 5.74865
#
# Compressibility (1/GPa) = 0.09145764
#
# Stress axis : x y z
#
# Youngs Moduli (GPa) = 75.27818 67.06124 8.94121
#
# Poissons Ratio (x) = 0.55757 0.01661
# Poissons Ratio (y) = 0.62589 0.12623
# Poissons Ratio (z) = 0.13985 0.94675
#
# Static dielectric constant tensor:
#      x y z
#    x 3.722200 0.000000 0.000000 
#    y 0.000000 3.650570 0.000000 
#    z 0.000000 0.000000 2.801800 
# 
# 
# High freq. dielectric constant tensor:
#      x y z
#    x 1.700920 0.000000 0.000000 
#    y 0.000000 1.684310 0.000000 
#    z 0.000000 0.000000 1.619770 
# 
# From -- ./inp_files/33131.got.cif
#   From: 2010.03.12/outbox.cif.g09.slc.cpg/sg74_17_cif.got.tgz:33131.got - 2010.04.16 15:46:19.
