data_PCOD8300015
_publ_section_title
;
Structure prediction by ZEFSAII (Michael W. Deem and Ramdas Pophale) SiO2 
 PCOD8300015
Probable space group: I M M A
;
_chemical_formula_sum "Si O2"
_cell_formula_units_Z 104
_cell_length_a 26.640046
_cell_length_b 8.981248
_cell_length_c 23.020367
_cell_angle_alpha 90.000000
_cell_angle_beta 90.000000
_cell_angle_gamma 90.000000
_cell_volume 5507.872803
_symmetry_space_group_name_H-M "I M M A"
_symmetry_group_IT_number 74
_symmetry_cell_setting 'orthorhombic'
loop_
_space_group_symop_operation_xyz
x,y,z
-x,1/2-y,z
x,-y,-z
-x,1/2+y,-z
-x,-y,-z
x,1/2+y,-z
-x,y,z
x,1/2-y,z
1/2+x,1/2+y,1/2+z
1/2-x,-y,1/2+z
1/2+x,1/2-y,1/2-z
1/2-x,y,1/2-z
1/2-x,1/2-y,1/2-z
1/2+x,y,1/2-z
1/2-x,1/2+y,1/2+z
1/2+x,-y,1/2+z
loop_
_atom_site_type_symbol
_atom_site_label
_atom_site_fract_x
_atom_site_fract_y
_atom_site_fract_z
Si Si1 0.305535 0.075410 0.117942
Si Si2 0.904543 0.073816 0.631337
Si Si3 0.057127 0.578325 0.744248
Si Si4 0.195322 0.909662 0.266588
Si Si5 0.640283 0.580838 0.670588
Si Si6 0.500000 0.926243 0.061623
Si Si7 0.798749 0.423549 0.060584
O O1 0.312930 0.250000 0.108606
O O2 0.254815 0.018131 0.086173
O O3 0.355537 0.988038 0.096875
O O4 0.303465 0.039013 0.185914
O O5 0.903901 0.250000 0.631538
O O6 0.952266 0.013695 0.596699
O O7 0.908747 0.013620 0.698047
O O8 0.057380 0.750000 0.724419
O O9 0.081864 0.563548 0.809091
O O10 0.000000 0.516589 0.746932
O O11 0.170392 0.750000 0.288009
O O12 0.250000 0.864540 0.250000
O O13 0.170567 0.966016 0.208355
O O14 0.658581 0.750000 0.682253
O O15 0.654032 0.541716 0.603646
O O16 0.500000 0.750000 0.054765
O O17 0.500000 0.000000 0.000000
O O18 0.793794 0.250000 0.048904
O O19 0.811207 0.500000 0.000000
#
# Coordination Sequence:
#
# PCOD8300015 Si02
#       7
#    16  16  16  16  16   8  16
#     4  11  22  36  55  82 113 149 187 228 280 335
#     4  11  22  37  56  83 115 147 187 238 290 331
#     4  10  20  34  57  88 116 146 185 230 287 349
#     4  11  21  31  50  83 115 144 178 221 273 327
#     4  10  20  36  57  82 113 149 187 229 283 341
#     4  10  24  42  58  76 106 150 197 242 283 334
#     4  10  23  40  58  79 110 152 194 235 281 336
#
# _framework density 18.882062999999999
#
# number of rings (size 3 to 8) (size 9 to 14) (size 15 to 20)
#    0.000    1.538    3.846    1.385    0.000    4.308 
#    0.000    3.077    0.000    0.462    0.000    0.000 
#    0.000    0.000    0.000    0.000    0.000    0.000 
#
# Total GULP energy -644302.562301 kJ/mol
# GULP energy per Si atom -12390.433890 kJ/mol
# Density = 1.883909 g / cm^3
# Si number density = 18.882063 Si / 1000 Ang^3
#
#
#
# Elastic Constant Matrix: (Units=GPa)
#
#
# Indices 1 2 3 4 5 6 
#
# 1 80.1246 19.9177 37.8004 0.0000 0.0000 0.0000
# 2 19.9177 52.5992 27.0224 0.0000 0.0000 0.0000
# 3 37.8004 27.0224 109.7266 0.0000 0.0000 0.0000
# 4 0.0000 0.0000 0.0000 30.3213 0.0000 0.0000
# 5 0.0000 0.0000 0.0000 0.0000 25.0303 0.0000
# 6 0.0000 0.0000 0.0000 0.0000 0.0000 20.9242
#
#
#
# Elastic Compliance Matrix: (Units=1/GPa)
#
#
# Indices 1 2 3 4 5 6 
#
# 1 0.015467 -0.003571 -0.004449 0.000000 0.000000 0.000000
# 2 -0.003571 0.022590 -0.004333 0.000000 0.000000 0.000000
# 3 -0.004449 -0.004333 0.011713 0.000000 0.000000 0.000000
# 4 0.000000 0.000000 0.000000 0.032980 0.000000 0.000000
# 5 0.000000 0.000000 0.000000 0.000000 0.039952 0.000000
# 6 0.000000 0.000000 0.000000 0.000000 0.000000 0.047792
#
#
# Mechanical properties :
#
#
# Convention : Reuss Voigt Hill
#
# Bulk Modulus (GPa) = 39.89761 45.77015 42.83388
# Shear Modulus (GPa) = 24.56340 25.76915 25.16627
#
# Velocity S-wave (km/s) = 3.61069 3.69825 3.65473
# Velocity P-wave (km/s) = 6.20955 6.52140 6.36739
#
# Compressibility (1/GPa) = 0.02506416
#
# Stress axis : x y z
#
# Youngs Moduli (GPa) = 64.65296 44.26722 85.37346
#
# Poissons Ratio (x) = 0.15810 0.37981
# Poissons Ratio (y) = 0.23090 0.36992
# Poissons Ratio (z) = 0.28763 0.19181
#
# Static dielectric constant tensor:
#      x y z
#    x 4.048680 0.000000 0.000000 
#    y 0.000000 3.398000 0.000000 
#    z 0.000000 0.000000 3.313640 
# 
# 
# High freq. dielectric constant tensor:
#      x y z
#    x 1.740060 0.000000 0.000000 
#    y 0.000000 1.738440 0.000000 
#    z 0.000000 0.000000 1.708170 
# 
# From -- ./inp_files/55613.got.cif
#   From: 2010.03.12/outbox.cif.g09.slc.cpg/sg74_28_cif.got.tgz:55613.got - 2010.04.16 15:46:19.
