data_PCOD8300051
_publ_section_title
;
Structure prediction by ZEFSAII (Michael W. Deem and Ramdas Pophale) SiO2 
 PCOD8300051
Probable space group: I M M A
;
_chemical_formula_sum "Si O2"
_cell_formula_units_Z 104
_cell_length_a 20.984918
_cell_length_b 9.309371
_cell_length_c 27.813653
_cell_angle_alpha 90.000000
_cell_angle_beta 90.000000
_cell_angle_gamma 90.000000
_cell_volume 5433.574761
_symmetry_space_group_name_H-M "I M M A"
_symmetry_group_IT_number 74
_symmetry_cell_setting 'orthorhombic'
loop_
_space_group_symop_operation_xyz
x,y,z
-x,1/2-y,z
x,-y,-z
-x,1/2+y,-z
-x,-y,-z
x,1/2+y,-z
-x,y,z
x,1/2-y,z
1/2+x,1/2+y,1/2+z
1/2-x,-y,1/2+z
1/2+x,1/2-y,1/2-z
1/2-x,y,1/2-z
1/2-x,1/2-y,1/2-z
1/2+x,y,1/2-z
1/2-x,1/2+y,1/2+z
1/2+x,-y,1/2+z
loop_
_atom_site_type_symbol
_atom_site_label
_atom_site_fract_x
_atom_site_fract_y
_atom_site_fract_z
Si Si1 0.856402 0.083460 0.373231
Si Si2 0.926563 0.419602 0.706558
Si Si3 0.500000 0.578627 0.449745
Si Si4 0.747872 0.081778 0.449776
Si Si5 0.427289 0.910675 0.699484
Si Si6 0.113466 0.584567 0.903829
Si Si7 0.427002 0.097017 0.039437
O O1 0.850939 0.250000 0.357301
O O2 0.797103 0.036689 0.407047
O O3 0.918638 0.047625 0.405936
O O4 0.871094 0.987494 0.326828
O O5 0.918758 0.250000 0.704738
O O6 0.910179 0.473989 0.759910
O O7 0.000000 0.464300 0.693290
O O8 0.500000 0.750000 0.455803
O O9 0.500000 0.500000 0.500000
O O10 0.437561 0.529536 0.421730
O O11 0.753260 0.250000 0.460407
O O12 0.679071 0.041305 0.429022
O O13 0.760417 0.000000 0.500000
O O14 0.500000 0.930777 0.681576
O O15 0.417929 0.750000 0.720765
O O16 0.380916 0.933592 0.653895
O O17 0.094135 0.750000 0.915960
O O18 0.500000 0.111203 0.025717
O O19 0.391634 0.250000 0.034562
O O20 0.391691 0.000000 0.000000
#
# Coordination Sequence:
#
# PCOD8300051 Si02
#       7
#    16  16   8  16  16  16  16
#     4  10  20  35  53  75 104 145 190 227 272 331
#     4  10  21  35  54  83 114 142 181 236 287 333
#     4  12  24  36  56  86 118 150 186 232 283 336
#     4  10  22  38  58  82 112 149 190 233 276 332
#     4   9  17  33  58  83 109 145 182 223 279 339
#     4  10  20  38  60  85 115 147 187 231 279 336
#     4   9  17  28  44  67  95 127 167 217 269 323
#
# _framework density 19.140253000000001
#
# number of rings (size 3 to 8) (size 9 to 14) (size 15 to 20)
#    0.000    2.154    0.769    2.538    0.000    5.231 
#    0.000    2.308    0.000    4.615    0.000    0.000 
#    0.000    0.000    0.000    0.000    0.000    0.000 
#
# Total GULP energy -644281.557776 kJ/mol
# GULP energy per Si atom -12390.029957 kJ/mol
# Density = 1.909669 g / cm^3
# Si number density = 19.140253 Si / 1000 Ang^3
#
#
#
# Elastic Constant Matrix: (Units=GPa)
#
#
# Indices 1 2 3 4 5 6 
#
# 1 92.9018 45.6681 49.7709 0.0000 0.0000 0.0000
# 2 45.6681 94.1632 56.3109 0.0000 0.0000 0.0000
# 3 49.7709 56.3109 112.4220 0.0000 0.0000 0.0000
# 4 0.0000 0.0000 0.0000 35.9856 0.0000 0.0000
# 5 0.0000 0.0000 0.0000 0.0000 29.4781 0.0000
# 6 0.0000 0.0000 0.0000 0.0000 0.0000 16.7199
#
#
#
# Elastic Compliance Matrix: (Units=1/GPa)
#
#
# Indices 1 2 3 4 5 6 
#
# 1 0.015541 -0.004886 -0.004433 0.000000 0.000000 0.000000
# 2 -0.004886 0.016698 -0.006200 0.000000 0.000000 0.000000
# 3 -0.004433 -0.006200 0.013963 0.000000 0.000000 0.000000
# 4 0.000000 0.000000 0.000000 0.027789 0.000000 0.000000
# 5 0.000000 0.000000 0.000000 0.000000 0.033923 0.000000
# 6 0.000000 0.000000 0.000000 0.000000 0.000000 0.059809
#
#
# Mechanical properties :
#
#
# Convention : Reuss Voigt Hill
#
# Bulk Modulus (GPa) = 65.95072 66.99852 66.47462
# Shear Modulus (GPa) = 24.53197 26.28588 25.40893
#
# Velocity S-wave (km/s) = 3.58396 3.70987 3.64746
# Velocity P-wave (km/s) = 7.18733 7.30964 7.24874
#
# Compressibility (1/GPa) = 0.01516284
#
# Stress axis : x y z
#
# Youngs Moduli (GPa) = 64.34698 59.88889 71.61717
#
# Poissons Ratio (x) = 0.29264 0.31745
# Poissons Ratio (y) = 0.31442 0.44405
# Poissons Ratio (z) = 0.28523 0.37133
#
# Static dielectric constant tensor:
#      x y z
#    x 3.439510 0.000000 0.000000 
#    y 0.000000 3.597110 0.000000 
#    z 0.000000 0.000000 3.537140 
# 
# 
# High freq. dielectric constant tensor:
#      x y z
#    x 1.731480 0.000000 0.000000 
#    y 0.000000 1.738430 0.000000 
#    z 0.000000 0.000000 1.747950 
# 
# From -- ./inp_files/68280.got.cif
#   From: 2010.03.12/outbox.cif.g09.slc.cpg/sg74_35_cif.got.tgz:68280.got - 2010.04.16 15:46:19.
