data_PCOD8300084
_publ_section_title
;
Structure prediction by ZEFSAII (Michael W. Deem and Ramdas Pophale) SiO2 
 PCOD8300084
Probable space group: I M M A
;
_chemical_formula_sum "Si O2"
_cell_formula_units_Z 120
_cell_length_a 9.333837
_cell_length_b 26.562261
_cell_length_c 27.777214
_cell_angle_alpha 90.000000
_cell_angle_beta 90.000000
_cell_angle_gamma 90.000000
_cell_volume 6886.743961
_symmetry_space_group_name_H-M "I M M A"
_symmetry_group_IT_number 74
_symmetry_cell_setting 'orthorhombic'
loop_
_space_group_symop_operation_xyz
x,y,z
-x,1/2-y,z
x,-y,-z
-x,1/2+y,-z
-x,-y,-z
x,1/2+y,-z
-x,y,z
x,1/2-y,z
1/2+x,1/2+y,1/2+z
1/2-x,-y,1/2+z
1/2+x,1/2-y,1/2-z
1/2-x,y,1/2-z
1/2-x,1/2-y,1/2-z
1/2+x,y,1/2-z
1/2-x,1/2+y,1/2+z
1/2+x,-y,1/2+z
loop_
_atom_site_type_symbol
_atom_site_label
_atom_site_fract_x
_atom_site_fract_y
_atom_site_fract_z
Si Si1 0.168868 0.454406 0.200141
Si Si2 0.835165 0.598697 0.619450
Si Si3 0.168037 0.159327 0.865178
Si Si4 0.838303 0.309342 0.966917
Si Si5 0.665833 0.952829 0.364532
Si Si6 0.165982 0.693229 0.559468
Si Si7 0.671115 0.750000 0.300072
Si Si8 0.333801 0.505155 0.945551
O O1 0.250000 0.448519 0.250000
O O2 0.229894 0.412720 0.163618
O O3 0.204248 0.509550 0.178905
O O4 0.000000 0.445765 0.207382
O O5 0.800203 0.655673 0.603372
O O6 0.805465 0.561295 0.574630
O O7 0.000000 0.593224 0.636521
O O8 0.231092 0.166256 0.918973
O O9 0.204983 0.103312 0.846446
O O10 0.228228 0.200582 0.828208
O O11 0.000000 0.169143 0.869546
O O12 0.832676 0.250000 0.959877
O O13 0.000000 0.328255 0.975499
O O14 0.747643 0.326759 0.012654
O O15 0.500000 0.957293 0.378537
O O16 0.753053 0.964864 0.412580
O O17 0.213942 0.750000 0.574060
O O18 0.000000 0.691670 0.546144
O O19 0.500000 0.750000 0.292761
O O20 0.750000 0.750000 0.250000
O O21 0.500000 0.490938 0.943901
O O22 0.275022 0.500000 0.000000
#
# Coordination Sequence:
#
# PCOD8300084 Si02
#       8
#    16  16  16  16  16  16   8  16
#     4  10  20  35  55  76  98 125 163 208 253 298
#     4   9  18  33  51  72 102 136 166 197 241 295
#     4   9  17  32  51  69  95 130 166 208 254 299
#     4   9  16  28  47  69  93 130 173 203 236 286
#     4   9  19  33  49  72  97 126 166 208 248 293
#     4   9  18  31  48  74 106 136 163 198 243 286
#     4  10  20  36  54  70  94 128 168 214 263 308
#     4   9  18  31  46  68 100 136 167 197 242 295
#
# _framework density 17.424780999999999
#
# number of rings (size 3 to 8) (size 9 to 14) (size 15 to 20)
#    0.000    2.800    0.667    0.400    1.867    1.867 
#    0.000    1.333    0.000    0.400    0.000    0.000 
#    0.000    0.000    0.000    0.000    0.000    0.000 
#
# Total GULP energy -743919.123329 kJ/mol
# GULP energy per Si atom -12398.652055 kJ/mol
# Density = 1.738512 g / cm^3
# Si number density = 17.424781 Si / 1000 Ang^3
#
#
#
# Elastic Constant Matrix: (Units=GPa)
#
#
# Indices 1 2 3 4 5 6 
#
# 1 57.2427 38.0840 57.8962 0.0000 0.0000 0.0000
# 2 38.0840 105.6469 64.4944 0.0000 0.0000 0.0000
# 3 57.8962 64.4944 137.7713 0.0000 0.0000 0.0000
# 4 0.0000 0.0000 0.0000 17.5258 0.0000 0.0000
# 5 0.0000 0.0000 0.0000 0.0000 31.9910 0.0000
# 6 0.0000 0.0000 0.0000 0.0000 0.0000 19.6597
#
#
#
# Elastic Compliance Matrix: (Units=1/GPa)
#
#
# Indices 1 2 3 4 5 6 
#
# 1 0.031934 -0.004647 -0.011244 0.000000 0.000000 0.000000
# 2 -0.004647 0.013929 -0.004568 0.000000 0.000000 0.000000
# 3 -0.011244 -0.004568 0.014122 0.000000 0.000000 0.000000
# 4 0.000000 0.000000 0.000000 0.057059 0.000000 0.000000
# 5 0.000000 0.000000 0.000000 0.000000 0.031259 0.000000
# 6 0.000000 0.000000 0.000000 0.000000 0.000000 0.050865
#
#
# Mechanical properties :
#
#
# Convention : Reuss Voigt Hill
#
# Bulk Modulus (GPa) = 52.44788 69.06781 60.75784
# Shear Modulus (GPa) = 20.28875 23.18105 21.73490
#
# Velocity S-wave (km/s) = 3.41598 3.65135 3.53562
# Velocity P-wave (km/s) = 6.76191 7.58289 7.18414
#
# Compressibility (1/GPa) = 0.01906655
#
# Stress axis : x y z
#
# Youngs Moduli (GPa) = 31.31459 71.79151 70.81240
#
# Poissons Ratio (x) = 0.33365 0.79623
# Poissons Ratio (y) = 0.14553 0.32344
# Poissons Ratio (z) = 0.35211 0.32792
#
# Static dielectric constant tensor:
#      x y z
#    x 3.153140 0.000000 0.000000 
#    y 0.000000 3.336690 0.000000 
#    z 0.000000 0.000000 3.133750 
# 
# 
# High freq. dielectric constant tensor:
#      x y z
#    x 1.658730 0.000000 0.000000 
#    y 0.000000 1.672170 0.000000 
#    z 0.000000 0.000000 1.662870 
# 
# From -- ./inp_files/65047.got.cif
#   From: 2010.03.12/outbox.cif.g09.slc.cpg/sg74_33_cif.got.tgz:65047.got - 2010.04.16 15:46:19.
