data_PCOD8300148
_publ_section_title
;
Structure prediction by ZEFSAII (Michael W. Deem and Ramdas Pophale) SiO2 
 PCOD8300148
Probable space group: I M M A
;
_chemical_formula_sum "Si O2"
_cell_formula_units_Z 64
_cell_length_a 23.782216
_cell_length_b 7.710400
_cell_length_c 17.778384
_cell_angle_alpha 90.000000
_cell_angle_beta 90.000000
_cell_angle_gamma 90.000000
_cell_volume 3260.029354
_symmetry_space_group_name_H-M "I M M A"
_symmetry_group_IT_number 74
_symmetry_cell_setting 'orthorhombic'
loop_
_space_group_symop_operation_xyz
x,y,z
-x,1/2-y,z
x,-y,-z
-x,1/2+y,-z
-x,-y,-z
x,1/2+y,-z
-x,y,z
x,1/2-y,z
1/2+x,1/2+y,1/2+z
1/2-x,-y,1/2+z
1/2+x,1/2-y,1/2-z
1/2-x,y,1/2-z
1/2-x,1/2-y,1/2-z
1/2+x,y,1/2-z
1/2-x,1/2+y,1/2+z
1/2+x,-y,1/2+z
loop_
_atom_site_type_symbol
_atom_site_label
_atom_site_fract_x
_atom_site_fract_y
_atom_site_fract_z
Si Si1 0.141510 0.444105 0.311491
Si Si2 0.062668 0.250000 0.864606
Si Si3 0.760685 0.953259 0.417286
Si Si4 0.062607 0.750000 0.314018
Si Si5 0.857703 0.554547 0.861902
O O1 0.116774 0.250000 0.319713
O O2 0.198984 0.457436 0.357144
O O3 0.095290 0.578917 0.342789
O O4 0.156012 0.486257 0.225039
O O5 0.058476 0.250000 0.775211
O O6 0.095189 0.422030 0.892603
O O7 0.000000 0.250000 0.899549
O O8 0.759785 0.750000 0.402313
O O9 0.783257 0.000000 0.500000
O O10 0.698785 0.031992 0.409259
O O11 0.000000 0.750000 0.349210
O O12 0.880629 0.750000 0.872696
#
# Coordination Sequence:
#
# PCOD8300148 Si02
#       5
#    16   8  16   8  16
#     4  10  20  35  56  83 114 145 180 224 273 325
#     4   9  18  33  55  83 111 144 185 224 266 317
#     4  12  23  36  55  82 111 146 181 227 278 332
#     4   9  18  33  55  83 111 144 185 224 266 317
#     4  10  20  35  56  83 114 145 180 224 273 325
#
# _framework density 19.631726
#
# number of rings (size 3 to 8) (size 9 to 14) (size 15 to 20)
#    0.000    1.750    2.500    3.000    0.000    4.000 
#    0.000    5.000    0.000    1.500    0.000    0.000 
#    0.000    0.000    0.000    0.000    0.000    0.000 
#
# Total GULP energy -396903.172834 kJ/mol
# GULP energy per Si atom -12403.224151 kJ/mol
# Density = 1.958704 g / cm^3
# Si number density = 19.631726 Si / 1000 Ang^3
#
#
#
# Elastic Constant Matrix: (Units=GPa)
#
#
# Indices 1 2 3 4 5 6 
#
# 1 108.5362 44.9283 2.7231 0.0000 0.0000 0.0000
# 2 44.9283 152.3624 13.2614 0.0000 0.0000 0.0000
# 3 2.7231 13.2614 30.7175 0.0000 0.0000 0.0000
# 4 0.0000 0.0000 0.0000 21.1129 0.0000 0.0000
# 5 0.0000 0.0000 0.0000 0.0000 2.1106 0.0000
# 6 0.0000 0.0000 0.0000 0.0000 0.0000 18.2474
#
#
#
# Elastic Compliance Matrix: (Units=1/GPa)
#
#
# Indices 1 2 3 4 5 6 
#
# 1 0.010500 -0.003133 0.000422 0.000000 0.000000 0.000000
# 2 -0.003133 0.007754 -0.003070 0.000000 0.000000 0.000000
# 3 0.000422 -0.003070 0.033843 0.000000 0.000000 0.000000
# 4 0.000000 0.000000 0.000000 0.047364 0.000000 0.000000
# 5 0.000000 0.000000 0.000000 0.000000 0.473803 0.000000
# 6 0.000000 0.000000 0.000000 0.000000 0.000000 0.054802
#
#
# Mechanical properties :
#
#
# Convention : Reuss Voigt Hill
#
# Bulk Modulus (GPa) = 24.67028 45.93797 35.30412
# Shear Modulus (GPa) = 7.65532 23.67439 15.66485
#
# Velocity S-wave (km/s) = 1.97685 3.47641 2.82784
# Velocity P-wave (km/s) = 4.21952 6.29004 5.35579
#
# Compressibility (1/GPa) = 0.04053461
#
# Stress axis : x y z
#
# Youngs Moduli (GPa) = 95.24016 128.96038 29.54841
#
# Poissons Ratio (x) = 0.40401 -0.01246
# Poissons Ratio (y) = 0.29837 0.09071
# Poissons Ratio (z) = -0.04016 0.39591
#
# Static dielectric constant tensor:
#      x y z
#    x 3.606480 0.000000 0.000000 
#    y 0.000000 3.867810 0.000000 
#    z 0.000000 0.000000 3.256980 
# 
# 
# High freq. dielectric constant tensor:
#      x y z
#    x 1.750400 0.000000 0.000000 
#    y 0.000000 1.787660 0.000000 
#    z 0.000000 0.000000 1.732070 
# 
# From -- ./inp_files/52555.got.cif
#   From: 2010.03.12/outbox.cif.g09.slc.cpg/sg74_27_cif.got.tgz:52555.got - 2010.04.16 15:46:19.
