data_PCOD8300776
_publ_section_title
;
Structure prediction by ZEFSAII (Michael W. Deem and Ramdas Pophale) SiO2 
 PCOD8300776
Probable space group: I M M A
;
_chemical_formula_sum "Si O2"
_cell_formula_units_Z 112
_cell_length_a 14.021053
_cell_length_b 24.821194
_cell_length_c 16.185155
_cell_angle_alpha 90.000000
_cell_angle_beta 90.000000
_cell_angle_gamma 90.000000
_cell_volume 5632.745935
_symmetry_space_group_name_H-M "I M M A"
_symmetry_group_IT_number 74
_symmetry_cell_setting 'orthorhombic'
loop_
_space_group_symop_operation_xyz
x,y,z
-x,1/2-y,z
x,-y,-z
-x,1/2+y,-z
-x,-y,-z
x,1/2+y,-z
-x,y,z
x,1/2-y,z
1/2+x,1/2+y,1/2+z
1/2-x,-y,1/2+z
1/2+x,1/2-y,1/2-z
1/2-x,y,1/2-z
1/2-x,1/2-y,1/2-z
1/2+x,y,1/2-z
1/2-x,1/2+y,1/2+z
1/2+x,-y,1/2+z
loop_
_atom_site_type_symbol
_atom_site_label
_atom_site_fract_x
_atom_site_fract_y
_atom_site_fract_z
Si Si1 0.610248 0.153836 0.599124
Si Si2 0.729950 0.909796 0.160505
Si Si3 0.897168 0.997143 0.596057
Si Si4 0.391524 0.689529 0.216741
Si Si5 0.609369 0.188215 0.284668
Si Si6 0.773268 0.188843 0.055489
Si Si7 0.111913 0.623665 0.619900
O O1 0.500000 0.140623 0.579121
O O2 0.670580 0.098824 0.611727
O O3 0.620131 0.187207 0.684095
O O4 0.657395 0.185516 0.523305
O O5 0.750000 0.934081 0.250000
O O6 0.674914 0.852531 0.168427
O O7 0.673300 0.954953 0.114022
O O8 0.858424 0.938959 0.624896
O O9 0.000000 0.007074 0.639757
O O10 0.913188 0.000000 0.500000
O O11 0.500000 0.676316 0.192145
O O12 0.363136 0.750000 0.188787
O O13 0.500000 0.180755 0.309422
O O14 0.631531 0.250000 0.260203
O O15 0.669441 0.169522 0.363572
O O16 0.636410 0.151247 0.207082
O O17 0.739109 0.250000 0.064515
O O18 0.677702 0.151989 0.049375
O O19 0.000000 0.630319 0.595984
#
# Coordination Sequence:
#
# PCOD8300776 Si02
#       7
#    16  16  16  16  16  16  16
#     4  10  21  36  54  80 113 146 181 219 264 321
#     4  10  21  36  58  83 108 141 181 222 267 320
#     4  10  21  39  61  81 104 137 179 227 276 327
#     4   9  18  34  57  84 113 142 174 218 269 320
#     4   9  18  33  53  79 111 145 183 225 267 317
#     4  11  21  33  54  81 111 149 186 220 264 321
#     4  10  21  36  55  79 107 141 181 228 279 323
#
# _framework density 19.88373
#
# number of rings (size 3 to 8) (size 9 to 14) (size 15 to 20)
#    0.000    2.143    0.000    3.000    0.000    8.286 
#    0.000    0.714    0.000    5.571    0.000    0.000 
#    0.000    0.000    0.000    0.000    0.000    0.000 
#
# Total GULP energy -694205.518476 kJ/mol
# GULP energy per Si atom -12396.527116 kJ/mol
# Density = 1.983847 g / cm^3
# Si number density = 19.883730 Si / 1000 Ang^3
#
#
#
# Elastic Constant Matrix: (Units=GPa)
#
#
# Indices 1 2 3 4 5 6 
#
# 1 123.5386 59.0602 30.7611 0.0000 0.0000 0.0000
# 2 59.0602 114.1414 33.9880 0.0001 0.0000 -0.0001
# 3 30.7611 33.9880 51.4640 0.0002 0.0000 0.0000
# 4 0.0000 0.0001 0.0002 3.0850 0.0000 -0.0001
# 5 0.0000 0.0000 0.0000 0.0000 26.6971 0.0000
# 6 0.0000 -0.0001 0.0000 -0.0001 0.0000 32.8298
#
#
#
# Elastic Compliance Matrix: (Units=1/GPa)
#
#
# Indices 1 2 3 4 5 6 
#
# 1 0.011264 -0.004759 -0.003589 0.000001 0.000000 0.000000
# 2 -0.004759 0.012917 -0.005686 0.000000 0.000000 0.000000
# 3 -0.003589 -0.005686 0.025332 -0.000001 0.000000 0.000000
# 4 0.000001 0.000000 -0.000001 0.324151 0.000000 0.000001
# 5 0.000000 0.000000 0.000000 0.000000 0.037457 0.000000
# 6 0.000000 0.000000 0.000000 0.000001 0.000000 0.030460
#
#
# Mechanical properties :
#
#
# Convention : Reuss Voigt Hill
#
# Bulk Modulus (GPa) = 46.63524 59.64029 53.13776
# Shear Modulus (GPa) = 10.48664 23.54468 17.01566
#
# Velocity S-wave (km/s) = 2.29901 3.44483 2.92851
# Velocity P-wave (km/s) = 5.52740 6.77364 6.18200
#
# Compressibility (1/GPa) = 0.02144301
#
# Stress axis : x y z
#
# Youngs Moduli (GPa) = 88.78076 77.41881 39.47652
#
# Poissons Ratio (x) = 0.36846 0.14170
# Poissons Ratio (y) = 0.42254 0.22445
# Poissons Ratio (z) = 0.31867 0.44018
#
# Static dielectric constant tensor:
#      x y z
#    x 3.990000 0.000000 0.000000 
#    y 0.000000 3.502140 0.000000 
#    z 0.000000 0.000000 3.596420 
# 
# 
# High freq. dielectric constant tensor:
#      x y z
#    x 1.792280 0.000000 0.000000 
#    y 0.000000 1.759030 0.000000 
#    z 0.000000 0.000000 1.766660 
# 
# From -- ./inp_files/32769.got.cif
#   From: 2010.03.12/outbox.cif.g09.slc.cpg/sg74_17_cif.got.tgz:32769.got - 2010.04.16 15:46:19.
