data_PCOD8300095
_publ_section_title
;
Structure prediction by ZEFSAII (Michael W. Deem and Ramdas Pophale) SiO2 
 PCOD8300095
Probable space group: I M M A
;
_chemical_formula_sum "Si O2"
_cell_formula_units_Z 80
_cell_length_a 8.541364
_cell_length_b 27.620440
_cell_length_c 18.045456
_cell_angle_alpha 90.000000
_cell_angle_beta 90.000000
_cell_angle_gamma 90.000000
_cell_volume 4257.215982
_symmetry_space_group_name_H-M "I M M A"
_symmetry_group_IT_number 74
_symmetry_cell_setting 'orthorhombic'
loop_
_space_group_symop_operation_xyz
x,y,z
-x,1/2-y,z
x,-y,-z
-x,1/2+y,-z
-x,-y,-z
x,1/2+y,-z
-x,y,z
x,1/2-y,z
1/2+x,1/2+y,1/2+z
1/2-x,-y,1/2+z
1/2+x,1/2-y,1/2-z
1/2-x,y,1/2-z
1/2-x,1/2-y,1/2-z
1/2+x,y,1/2-z
1/2-x,1/2+y,1/2+z
1/2+x,-y,1/2+z
loop_
_atom_site_type_symbol
_atom_site_label
_atom_site_fract_x
_atom_site_fract_y
_atom_site_fract_z
Si Si1 0.815473 0.058443 0.901151
Si Si2 0.314753 0.457377 0.332037
Si Si3 0.318612 0.804561 0.467589
Si Si4 0.184120 0.650169 0.326960
Si Si5 0.315611 0.105778 0.043536
O O1 0.766769 0.098848 0.841944
O O2 0.000000 0.059435 0.914228
O O3 0.758305 0.007076 0.870162
O O4 0.733510 0.068059 0.979707
O O5 0.500000 0.453627 0.330686
O O6 0.250000 0.454528 0.250000
O O7 0.244274 0.412667 0.377541
O O8 0.500000 0.814916 0.451137
O O9 0.290643 0.750000 0.496129
O O10 0.224042 0.811945 0.391461
O O11 0.259092 0.841434 0.530063
O O12 0.250000 0.671197 0.250000
O O13 0.000000 0.642196 0.322594
O O14 0.500000 0.111539 0.043820
#
# Coordination Sequence:
#
# PCOD8300095 Si02
#       5
#    16  16  16  16  16
#     4  10  20  35  55  79 110 147 185 222 260 308
#     4  11  23  37  55  80 111 145 181 222 267 315
#     4  10  21  38  59  80 103 135 177 224 272 321
#     4  11  21  33  51  76 110 147 182 222 265 314
#     4  11  22  36  57  82 110 143 179 220 264 317
#
# _framework density 18.791623999999999
#
# number of rings (size 3 to 8) (size 9 to 14) (size 15 to 20)
#    0.000    1.400    0.000    9.000    0.000    9.200 
#    0.000    0.000    0.000    0.600    0.000    0.000 
#    0.000    0.000    0.000    0.000    0.000    0.000 
#
# Total GULP energy -496196.177312 kJ/mol
# GULP energy per Si atom -12404.904433 kJ/mol
# Density = 1.874885 g / cm^3
# Si number density = 18.791624 Si / 1000 Ang^3
#
#
#
# Elastic Constant Matrix: (Units=GPa)
#
#
# Indices 1 2 3 4 5 6 
#
# 1 65.0940 35.8222 23.3385 0.0000 0.0000 0.0000
# 2 35.8222 125.9512 63.2801 0.0000 -0.0001 0.0001
# 3 23.3385 63.2801 88.9266 -0.0002 -0.0001 0.0002
# 4 0.0000 0.0000 -0.0002 10.9205 0.0000 0.0000
# 5 0.0000 -0.0001 -0.0001 0.0000 34.7274 0.0000
# 6 0.0000 0.0001 0.0002 0.0000 0.0000 21.5540
#
#
#
# Elastic Compliance Matrix: (Units=1/GPa)
#
#
# Indices 1 2 3 4 5 6 
#
# 1 0.018380 -0.004364 -0.001718 0.000000 0.000000 0.000000
# 2 -0.004364 0.013394 -0.008386 0.000000 0.000000 0.000000
# 3 -0.001718 -0.008386 0.017663 0.000000 0.000000 0.000000
# 4 0.000000 0.000000 0.000000 0.091571 0.000000 0.000000
# 5 0.000000 0.000000 0.000000 0.000000 0.028796 0.000000
# 6 0.000000 0.000000 0.000000 0.000000 0.000000 0.046395
#
#
# Mechanical properties :
#
#
# Convention : Reuss Voigt Hill
#
# Bulk Modulus (GPa) = 48.77783 58.31707 53.54745
# Shear Modulus (GPa) = 19.84364 23.94242 21.89303
#
# Velocity S-wave (km/s) = 3.25311 3.57333 3.41697
# Velocity P-wave (km/s) = 6.33434 6.93728 6.64265
#
# Compressibility (1/GPa) = 0.02050112
#
# Stress axis : x y z
#
# Youngs Moduli (GPa) = 54.40645 74.66013 56.61397
#
# Poissons Ratio (x) = 0.32584 0.09727
# Poissons Ratio (y) = 0.23745 0.47475
# Poissons Ratio (z) = 0.09348 0.62608
#
# Static dielectric constant tensor:
#      x y z
#    x 3.593610 0.000000 0.000000 
#    y 0.000000 3.464460 0.000000 
#    z 0.000000 0.000000 3.428690 
# 
# 
# High freq. dielectric constant tensor:
#      x y z
#    x 1.749730 0.000000 0.000000 
#    y 0.000000 1.722000 0.000000 
#    z 0.000000 0.000000 1.717490 
# 
# From -- ./inp_files/39951.got.cif
#   From: 2010.03.12/outbox.cif.g09.slc.cpg/sg74_20_cif.got.tgz:39951.got - 2010.04.16 15:46:19.
