data_PCOD8300422
_publ_section_title
;
Structure prediction by ZEFSAII (Michael W. Deem and Ramdas Pophale) SiO2 
 PCOD8300422
Probable space group: I M M A
;
_chemical_formula_sum "Si O2"
_cell_formula_units_Z 88
_cell_length_a 15.136025
_cell_length_b 21.658307
_cell_length_c 13.137648
_cell_angle_alpha 90.000000
_cell_angle_beta 90.000000
_cell_angle_gamma 90.000000
_cell_volume 4306.792651
_symmetry_space_group_name_H-M "I M M A"
_symmetry_group_IT_number 74
_symmetry_cell_setting 'orthorhombic'
loop_
_space_group_symop_operation_xyz
x,y,z
-x,1/2-y,z
x,-y,-z
-x,1/2+y,-z
-x,-y,-z
x,1/2+y,-z
-x,y,z
x,1/2-y,z
1/2+x,1/2+y,1/2+z
1/2-x,-y,1/2+z
1/2+x,1/2-y,1/2-z
1/2-x,y,1/2-z
1/2-x,1/2-y,1/2-z
1/2+x,y,1/2-z
1/2-x,1/2+y,1/2+z
1/2+x,-y,1/2+z
loop_
_atom_site_type_symbol
_atom_site_label
_atom_site_fract_x
_atom_site_fract_y
_atom_site_fract_z
Si Si1 0.138627 0.750000 0.868637
Si Si2 0.333623 0.039179 0.188061
Si Si3 0.343561 0.250000 0.128161
Si Si4 0.500000 0.037346 0.327113
Si Si5 0.500000 0.343965 0.451000
Si Si6 0.164451 0.104078 0.692495
Si Si7 0.000000 0.396860 0.835354
Si Si8 0.897900 0.627968 0.522725
O O1 0.240382 0.750000 0.903904
O O2 0.138009 0.750000 0.747550
O O3 0.088315 0.810215 0.911400
O O4 0.250000 0.065734 0.250000
O O5 0.417129 0.051486 0.257371
O O6 0.321568 0.967367 0.163487
O O7 0.344321 0.074769 0.081861
O O8 0.392649 0.190880 0.084409
O O9 0.500000 0.084873 0.419127
O O10 0.500000 0.968222 0.372439
O O11 0.500000 0.347654 0.573172
O O12 0.250000 0.130942 0.750000
O O13 0.147154 0.139089 0.586830
O O14 0.084650 0.116115 0.767823
O O15 0.000000 0.607765 0.509011
#
# Coordination Sequence:
#
# PCOD8300422 Si02
#       8
#     8  16   8   8   8  16   8  16
#     4  10  26  45  64  88 127 160 205 265 308 385
#     4  10  22  37  63  99 132 166 208 257 320 386
#     4  11  27  44  64  94 121 156 215 266 318 369
#     4  10  20  36  62  98 132 163 202 261 317 377
#     4  11  23  40  65  89 124 171 206 242 327 374
#     4  10  23  42  63  95 132 168 211 262 311 378
#     4  10  22  40  63  95 133 161 209 261 308 380
#     4  12  24  41  69  92 127 171 215 265 325 376
#
# _framework density 20.432839000000001
#
# number of rings (size 3 to 8) (size 9 to 14) (size 15 to 20)
#    0.000    1.455    1.818    2.182   10.182    0.727 
#    0.000    7.727    0.000    0.000    0.000    0.000 
#    0.000    0.000    0.000    0.000    0.000    0.000 
#
# Total GULP energy -545754.326805 kJ/mol
# GULP energy per Si atom -12403.507427 kJ/mol
# Density = 2.038633 g / cm^3
# Si number density = 20.432839 Si / 1000 Ang^3
#
#
#
# Elastic Constant Matrix: (Units=GPa)
#
#
# Indices 1 2 3 4 5 6 
#
# 1 151.1560 17.9908 59.5962 0.0000 0.0001 0.0000
# 2 17.9908 52.3785 40.4671 0.0001 -0.0001 0.0003
# 3 59.5962 40.4671 136.9740 0.0001 -0.0003 0.0005
# 4 0.0000 0.0001 0.0001 37.1855 0.0000 0.0002
# 5 0.0001 -0.0001 -0.0003 0.0000 -629.0183 -0.0008
# 6 0.0000 0.0003 0.0005 0.0002 -0.0008 74.9896
#
#
#
# Elastic Compliance Matrix: (Units=1/GPa)
#
#
# Indices 1 2 3 4 5 6 
#
# 1 0.007986 -0.000076 -0.003452 0.000000 0.000000 0.000000
# 2 -0.000076 0.024739 -0.007276 0.000000 0.000000 0.000000
# 3 -0.003452 -0.007276 0.010952 0.000000 0.000000 0.000000
# 4 0.000000 0.000000 0.000000 0.026892 0.000000 0.000000
# 5 0.000000 0.000000 0.000000 0.000000 -0.001590 0.000000
# 6 0.000000 0.000000 0.000000 0.000000 0.000000 0.013335
#
#
# Mechanical properties :
#
#
# Convention : Reuss Voigt Hill
#
# Bulk Modulus (GPa) = 45.31153 64.06852 54.69002
# Shear Modulus (GPa) = 44.93222 -88.53835 -21.80307
#
# Velocity S-wave (km/s) = 4.69446 -6.58980 -3.27013
# Velocity P-wave (km/s) = 7.18386 5.14557 3.54479
#
# Compressibility (1/GPa) = 0.02206944
#
# Stress axis : x y z
#
# Youngs Moduli (GPa) = 125.22254 40.42191 91.30599
#
# Poissons Ratio (x) = 0.00307 0.31520
# Poissons Ratio (y) = 0.00950 0.66432
# Poissons Ratio (z) = 0.43228 0.29410
#
# Static dielectric constant tensor:
#      x y z
#    x 3.867150 0.000000 0.000000 
#    y 0.000000 3.552930 0.000000 
#    z 0.000000 0.000000 3.637640 
# 
# 
# High freq. dielectric constant tensor:
#      x y z
#    x 1.812760 0.000000 0.000000 
#    y 0.000000 1.783630 0.000000 
#    z 0.000000 0.000000 1.803770 
# 
# From -- ./inp_files/20728.got.cif
#   From: 2010.03.12/outbox.cif.g09.slc.cpg/sg74_11_cif.got.tgz:20728.got - 2010.04.16 15:46:19.
