data_PCOD8300247
_publ_section_title
;
Structure prediction by ZEFSAII (Michael W. Deem and Ramdas Pophale) SiO2 
 PCOD8300247
Probable space group: I M M A
;
_chemical_formula_sum "Si O2"
_cell_formula_units_Z 112
_cell_length_a 15.115822
_cell_length_b 21.504763
_cell_length_c 14.598629
_cell_angle_alpha 90.000000
_cell_angle_beta 90.000000
_cell_angle_gamma 90.000000
_cell_volume 4745.462017
_symmetry_space_group_name_H-M "I M M A"
_symmetry_group_IT_number 74
_symmetry_cell_setting 'orthorhombic'
loop_
_space_group_symop_operation_xyz
x,y,z
-x,1/2-y,z
x,-y,-z
-x,1/2+y,-z
-x,-y,-z
x,1/2+y,-z
-x,y,z
x,1/2-y,z
1/2+x,1/2+y,1/2+z
1/2-x,-y,1/2+z
1/2+x,1/2-y,1/2-z
1/2-x,y,1/2-z
1/2-x,1/2-y,1/2-z
1/2+x,y,1/2-z
1/2-x,1/2+y,1/2+z
1/2+x,-y,1/2+z
loop_
_atom_site_type_symbol
_atom_site_label
_atom_site_fract_x
_atom_site_fract_y
_atom_site_fract_z
Si Si1 0.897422 0.183202 0.247953
Si Si2 0.599029 0.912551 0.386781
Si Si3 0.661192 0.139684 0.436933
Si Si4 0.102272 0.819986 0.275325
Si Si5 0.763433 0.982431 0.855930
Si Si6 0.659956 0.679393 0.027524
Si Si7 0.900727 0.084912 0.390798
O O1 0.859323 0.250000 0.283470
O O2 0.882931 0.183291 0.138855
O O3 0.857394 0.125997 0.306807
O O4 0.000000 0.180121 0.270431
O O5 0.500000 0.940730 0.367999
O O6 0.592105 0.876063 0.482721
O O7 0.627424 0.866724 0.305470
O O8 0.677460 0.962722 0.399582
O O9 0.684495 0.079846 0.376810
O O10 0.743199 0.172988 0.485278
O O11 0.123290 0.750000 0.241162
O O12 0.161130 0.836549 0.364300
O O13 0.000000 0.826117 0.303454
O O14 0.750000 0.996626 0.750000
O O15 0.664803 0.974768 0.901524
O O16 0.624893 0.750000 0.013380
O O17 0.595749 0.629544 0.979138
O O18 0.000000 0.059949 0.371236
#
# Coordination Sequence:
#
# PCOD8300247 Si02
#       7
#    16  16  16  16  16  16  16
#     4  10  20  35  60  94 131 172 219 270 329 400
#     4  11  26  45  70  98 130 177 226 276 336 401
#     4  11  23  40  62  92 133 174 220 273 334 393
#     4   9  20  41  67  97 130 165 213 272 331 398
#     4  11  24  43  66  92 129 174 222 279 330 392
#     4  10  21  36  63  98 134 177 221 273 337 402
#     4  10  21  40  65  96 134 179 226 278 337 397
#
# _framework density 23.601495
#
# number of rings (size 3 to 8) (size 9 to 14) (size 15 to 20)
#    0.000    1.714    1.429    2.143    2.000    4.857 
#    0.000    5.000    0.000    2.571    0.000    0.000 
#    0.000    0.571    0.000    0.000    0.000    0.000 
#
# Total GULP energy -694067.007583 kJ/mol
# GULP energy per Si atom -12394.053707 kJ/mol
# Density = 2.354778 g / cm^3
# Si number density = 23.601495 Si / 1000 Ang^3
#
#
#
# Elastic Constant Matrix: (Units=GPa)
#
#
# Indices 1 2 3 4 5 6 
#
# 1 102.8967 53.0568 29.3930 0.0000 0.0000 0.0000
# 2 53.0568 87.4332 30.9413 0.0002 0.0000 0.0000
# 3 29.3930 30.9413 101.0253 0.0006 0.0001 -0.0001
# 4 0.0000 0.0002 0.0006 34.1111 0.0001 0.0000
# 5 0.0000 0.0000 0.0001 0.0001 35.4790 0.0000
# 6 0.0000 0.0000 -0.0001 0.0000 0.0000 13.2563
#
#
#
# Elastic Compliance Matrix: (Units=1/GPa)
#
#
# Indices 1 2 3 4 5 6 
#
# 1 0.014399 -0.008137 -0.001697 0.000000 0.000000 0.000000
# 2 -0.008137 0.017426 -0.002970 0.000000 0.000000 0.000000
# 3 -0.001697 -0.002970 0.011302 0.000000 0.000000 0.000000
# 4 0.000000 0.000000 0.000000 0.029316 0.000000 0.000000
# 5 0.000000 0.000000 0.000000 0.000000 0.028186 0.000000
# 6 0.000000 0.000000 0.000000 0.000000 0.000000 0.075436
#
#
# Mechanical properties :
#
#
# Convention : Reuss Voigt Hill
#
# Bulk Modulus (GPa) = 57.08087 57.57084 57.32585
# Shear Modulus (GPa) = 24.09499 28.43356 26.26427
#
# Velocity S-wave (km/s) = 3.19863 3.47470 3.33952
# Velocity P-wave (km/s) = 6.15463 6.36740 6.26192
#
# Compressibility (1/GPa) = 0.01751900
#
# Stress axis : x y z
#
# Youngs Moduli (GPa) = 69.44897 57.38539 88.48133
#
# Poissons Ratio (x) = 0.46695 0.15017
# Poissons Ratio (y) = 0.56512 0.26276
# Poissons Ratio (z) = 0.11787 0.17041
#
# Static dielectric constant tensor:
#      x y z
#    x 4.107340 0.000000 0.000000 
#    y 0.000000 4.199650 0.000000 
#    z 0.000000 0.000000 4.297320 
# 
# 
# High freq. dielectric constant tensor:
#      x y z
#    x 1.929810 0.000000 0.000000 
#    y 0.000000 1.920740 0.000000 
#    z 0.000000 0.000000 1.944210 
# 
# From -- ./inp_files/32706.got.cif
#   From: 2010.03.12/outbox.cif.g09.slc.cpg/sg74_17_cif.got.tgz:32706.got - 2010.04.16 15:46:19.
