data_PCOD8300841
_publ_section_title
;
Structure prediction by ZEFSAII (Michael W. Deem and Ramdas Pophale) SiO2 
 PCOD8300841
Probable space group: I M M A
;
_chemical_formula_sum "Si O2"
_cell_formula_units_Z 88
_cell_length_a 19.136485
_cell_length_b 8.842655
_cell_length_c 27.359576
_cell_angle_alpha 90.000000
_cell_angle_beta 90.000000
_cell_angle_gamma 90.000000
_cell_volume 4629.714531
_symmetry_space_group_name_H-M "I M M A"
_symmetry_group_IT_number 74
_symmetry_cell_setting 'orthorhombic'
loop_
_space_group_symop_operation_xyz
x,y,z
-x,1/2-y,z
x,-y,-z
-x,1/2+y,-z
-x,-y,-z
x,1/2+y,-z
-x,y,z
x,1/2-y,z
1/2+x,1/2+y,1/2+z
1/2-x,-y,1/2+z
1/2+x,1/2-y,1/2-z
1/2-x,y,1/2-z
1/2-x,1/2-y,1/2-z
1/2+x,y,1/2-z
1/2-x,1/2+y,1/2+z
1/2+x,-y,1/2+z
loop_
_atom_site_type_symbol
_atom_site_label
_atom_site_fract_x
_atom_site_fract_y
_atom_site_fract_z
Si Si1 0.130198 0.578601 0.091126
Si Si2 0.580457 0.076316 0.766726
Si Si3 0.276495 0.921797 0.049553
Si Si4 0.178212 0.071386 0.188444
Si Si5 0.309657 0.575047 0.156644
Si Si6 0.000000 0.576708 0.948875
O O1 0.102008 0.750000 0.091609
O O2 0.192484 0.561287 0.051918
O O3 0.156782 0.532707 0.143611
O O4 0.068346 0.464808 0.080637
O O5 0.500000 0.020803 0.767186
O O6 0.585102 0.250000 0.748674
O O7 0.612137 0.062491 0.821523
O O8 0.627011 0.969749 0.732550
O O9 0.300354 0.750000 0.044790
O O10 0.309051 0.988176 0.100493
O O11 0.304378 0.000000 0.000000
O O12 0.173040 0.250000 0.178420
O O13 0.259772 0.022368 0.193791
O O14 0.283652 0.750000 0.155959
O O15 0.000000 0.750000 0.959798
O O16 0.000000 0.500000 0.000000
#
# Coordination Sequence:
#
# PCOD8300841 Si02
#       6
#    16  16  16  16  16   8
#     4  10  21  37  54  73 102 141 184 228 270 321
#     4  10  21  37  58  80 105 143 186 226 271 325
#     4   9  18  32  53  78 102 131 171 219 267 315
#     4  11  22  35  54  81 111 142 178 223 275 330
#     4   9  19  37  57  79 108 142 183 225 266 323
#     4  12  24  36  50  72 104 144 186 230 279 326
#
# _framework density 19.007652
#
# number of rings (size 3 to 8) (size 9 to 14) (size 15 to 20)
#    0.000    2.000    0.000    5.182    1.273    8.364 
#    0.000    0.000    0.000    0.545    0.000    0.000 
#    0.000    0.000    0.000    0.000    0.000    0.364 
#
# Total GULP energy -545347.070951 kJ/mol
# GULP energy per Si atom -12394.251613 kJ/mol
# Density = 1.896439 g / cm^3
# Si number density = 19.007652 Si / 1000 Ang^3
#
#
#
# Elastic Constant Matrix: (Units=GPa)
#
#
# Indices 1 2 3 4 5 6 
#
# 1 81.9986 22.5695 45.0668 0.0000 0.0000 0.0000
# 2 22.5695 84.9204 34.9191 0.0000 0.0000 0.0000
# 3 45.0668 34.9191 90.8068 0.0000 0.0000 0.0000
# 4 0.0000 0.0000 0.0000 30.8282 0.0000 0.0000
# 5 0.0000 0.0000 0.0000 0.0000 8.2422 0.0000
# 6 0.0000 0.0000 0.0000 0.0000 0.0000 14.5233
#
#
#
# Elastic Compliance Matrix: (Units=1/GPa)
#
#
# Indices 1 2 3 4 5 6 
#
# 1 0.016878 -0.001237 -0.007901 0.000000 0.000000 0.000000
# 2 -0.001237 0.014078 -0.004800 0.000000 0.000000 0.000000
# 3 -0.007901 -0.004800 0.016779 0.000000 0.000000 0.000000
# 4 0.000000 0.000000 0.000000 0.032438 0.000000 0.000000
# 5 0.000000 0.000000 0.000000 0.000000 0.121327 0.000000
# 6 0.000000 0.000000 0.000000 0.000000 0.000000 0.068855
#
#
# Mechanical properties :
#
#
# Convention : Reuss Voigt Hill
#
# Bulk Modulus (GPa) = 50.35141 51.42629 50.88885
# Shear Modulus (GPa) = 16.40149 21.06342 18.73245
#
# Velocity S-wave (km/s) = 2.94068 3.33251 3.14271
# Velocity P-wave (km/s) = 6.17072 6.47470 6.32454
#
# Compressibility (1/GPa) = 0.01986042
#
# Stress axis : x y z
#
# Youngs Moduli (GPa) = 59.24823 71.03222 59.59744
#
# Poissons Ratio (x) = 0.08786 0.47087
# Poissons Ratio (y) = 0.07329 0.28605
# Poissons Ratio (z) = 0.46811 0.34094
#
# Static dielectric constant tensor:
#      x y z
#    x 3.362760 0.000000 0.000000 
#    y 0.000000 3.309860 0.000000 
#    z 0.000000 0.000000 3.297280 
# 
# 
# High freq. dielectric constant tensor:
#      x y z
#    x 1.717090 0.000000 0.000000 
#    y 0.000000 1.733520 0.000000 
#    z 0.000000 0.000000 1.741650 
# 
# From -- ./inp_files/61443.got.cif
#   From: 2010.03.12/outbox.cif.g09.slc.cpg/sg74_31_cif.got.tgz:61443.got - 2010.04.16 15:46:19.
