data_PCOD8300049
_publ_section_title
;
Structure prediction by ZEFSAII (Michael W. Deem and Ramdas Pophale) SiO2 
 PCOD8300049
Probable space group: I M M A
;
_chemical_formula_sum "Si O2"
_cell_formula_units_Z 120
_cell_length_a 9.276306
_cell_length_b 26.622680
_cell_length_c 27.327771
_cell_angle_alpha 90.000000
_cell_angle_beta 90.000000
_cell_angle_gamma 90.000000
_cell_volume 6748.869775
_symmetry_space_group_name_H-M "I M M A"
_symmetry_group_IT_number 74
_symmetry_cell_setting 'orthorhombic'
loop_
_space_group_symop_operation_xyz
x,y,z
-x,1/2-y,z
x,-y,-z
-x,1/2+y,-z
-x,-y,-z
x,1/2+y,-z
-x,y,z
x,1/2-y,z
1/2+x,1/2+y,1/2+z
1/2-x,-y,1/2+z
1/2+x,1/2-y,1/2-z
1/2-x,y,1/2-z
1/2-x,1/2-y,1/2-z
1/2+x,y,1/2-z
1/2-x,1/2+y,1/2+z
1/2+x,-y,1/2+z
loop_
_atom_site_type_symbol
_atom_site_label
_atom_site_fract_x
_atom_site_fract_y
_atom_site_fract_z
Si Si1 0.163984 0.456967 0.297837
Si Si2 0.832328 0.601500 0.605075
Si Si3 0.334354 0.158939 0.868332
Si Si4 0.162831 0.307948 0.957252
Si Si5 0.832574 0.954058 0.364295
Si Si6 0.332068 0.692571 0.568705
Si Si7 0.828647 0.750000 0.301351
Si Si8 0.168977 0.512181 0.943573
O O1 0.250000 0.441477 0.250000
O O2 0.188739 0.414955 0.338972
O O3 0.215491 0.510817 0.319123
O O4 0.000000 0.460163 0.281343
O O5 0.766569 0.657163 0.601908
O O6 0.746808 0.564600 0.568734
O O7 0.000000 0.601426 0.590169
O O8 0.500000 0.170661 0.878219
O O9 0.259521 0.160024 0.920911
O O10 0.308910 0.103213 0.847044
O O11 0.274991 0.200428 0.830485
O O12 0.175658 0.250000 0.942565
O O13 0.000000 0.326962 0.951443
O O14 0.214684 0.316279 0.012574
O O15 0.000000 0.964961 0.377600
O O16 0.737217 0.967094 0.411733
O O17 0.500000 0.679575 0.575795
O O18 0.302358 0.750000 0.584040
O O19 0.750000 0.750000 0.250000
O O20 0.000000 0.750000 0.293021
O O21 0.000000 0.516949 0.931519
O O22 0.195771 0.500000 0.000000
#
# Coordination Sequence:
#
# PCOD8300049 Si02
#       8
#    16  16  16  16  16  16   8  16
#     4   9  19  36  56  78 103 133 173 220 270 322
#     4  10  21  36  55  81 112 144 179 220 266 319
#     4  10  20  35  53  74 103 137 175 224 272 322
#     4   9  18  32  50  73 103 139 177 217 258 304
#     4   9  20  36  52  75 106 137 174 222 273 321
#     4   9  19  35  54  80 115 150 182 220 261 306
#     4  10  22  38  54  74 102 136 180 230 281 330
#     4  10  21  35  51  75 108 144 181 221 265 319
#
# _framework density 17.780754999999999
#
# number of rings (size 3 to 8) (size 9 to 14) (size 15 to 20)
#    0.000    2.533    0.667    2.400    1.867    6.133 
#    0.000    1.333    0.000    0.400    0.000    0.000 
#    0.000    0.000    0.000    0.000    0.000    0.000 
#
# Total GULP energy -744019.510509 kJ/mol
# GULP energy per Si atom -12400.325175 kJ/mol
# Density = 1.774028 g / cm^3
# Si number density = 17.780755 Si / 1000 Ang^3
#
#
#
# Elastic Constant Matrix: (Units=GPa)
#
#
# Indices 1 2 3 4 5 6 
#
# 1 81.6660 49.4132 54.6678 0.0000 0.0000 0.0000
# 2 49.4132 113.9673 49.2889 0.0000 0.0000 0.0000
# 3 54.6678 49.2889 95.4406 0.0000 0.0000 0.0000
# 4 0.0000 0.0000 0.0000 16.6195 0.0000 0.0000
# 5 0.0000 0.0000 0.0000 0.0000 33.6869 0.0000
# 6 0.0000 0.0000 0.0000 0.0000 0.0000 28.9083
#
#
#
# Elastic Compliance Matrix: (Units=1/GPa)
#
#
# Indices 1 2 3 4 5 6 
#
# 1 0.022083 -0.005284 -0.009920 0.000000 0.000000 0.000000
# 2 -0.005284 0.012562 -0.003461 0.000000 0.000000 0.000000
# 3 -0.009920 -0.003461 0.017947 0.000000 0.000000 0.000000
# 4 0.000000 0.000000 0.000000 0.060170 0.000000 0.000000
# 5 0.000000 0.000000 0.000000 0.000000 0.029685 0.000000
# 6 0.000000 0.000000 0.000000 0.000000 0.000000 0.034592
#
#
# Mechanical properties :
#
#
# Convention : Reuss Voigt Hill
#
# Bulk Modulus (GPa) = 65.52154 66.42374 65.97264
# Shear Modulus (GPa) = 22.78348 25.02321 23.90334
#
# Velocity S-wave (km/s) = 3.58349 3.75550 3.67050
# Velocity P-wave (km/s) = 7.35198 7.49955 7.42613
#
# Compressibility (1/GPa) = 0.01526216
#
# Stress axis : x y z
#
# Youngs Moduli (GPa) = 45.28413 79.60308 55.71945
#
# Poissons Ratio (x) = 0.42065 0.55273
# Poissons Ratio (y) = 0.23930 0.19283
# Poissons Ratio (z) = 0.44921 0.27549
#
# Static dielectric constant tensor:
#      x y z
#    x 3.284840 0.000000 0.000000 
#    y 0.000000 3.347120 0.000000 
#    z 0.000000 0.000000 3.087450 
# 
# 
# High freq. dielectric constant tensor:
#      x y z
#    x 1.688770 0.000000 0.000000 
#    y 0.000000 1.689660 0.000000 
#    z 0.000000 0.000000 1.671130 
# 
# From -- ./inp_files/65052.got.cif
#   From: 2010.03.12/outbox.cif.g09.slc.cpg/sg74_33_cif.got.tgz:65052.got - 2010.04.16 15:46:19.
