data_PCOD8300545
_publ_section_title
;
Structure prediction by ZEFSAII (Michael W. Deem and Ramdas Pophale) SiO2 
 PCOD8300545
Probable space group: I M M A
;
_chemical_formula_sum "Si O2"
_cell_formula_units_Z 40
_cell_length_a 17.380504
_cell_length_b 22.390680
_cell_length_c 4.962259
_cell_angle_alpha 90.000000
_cell_angle_beta 90.000000
_cell_angle_gamma 90.000000
_cell_volume 1931.119180
_symmetry_space_group_name_H-M "I M M A"
_symmetry_group_IT_number 74
_symmetry_cell_setting 'orthorhombic'
loop_
_space_group_symop_operation_xyz
x,y,z
-x,1/2-y,z
x,-y,-z
-x,1/2+y,-z
-x,-y,-z
x,1/2+y,-z
-x,y,z
x,1/2-y,z
1/2+x,1/2+y,1/2+z
1/2-x,-y,1/2+z
1/2+x,1/2-y,1/2-z
1/2-x,y,1/2-z
1/2-x,1/2-y,1/2-z
1/2+x,y,1/2-z
1/2-x,1/2+y,1/2+z
1/2+x,-y,1/2+z
loop_
_atom_site_type_symbol
_atom_site_label
_atom_site_fract_x
_atom_site_fract_y
_atom_site_fract_z
Si Si1 0.197890 0.000000 0.500000
Si Si2 0.911919 0.681869 0.173337
Si Si3 0.838430 0.375078 0.327118
O O1 0.145715 0.056143 0.411899
O O2 0.250000 0.978282 0.250000
O O3 0.897883 0.750000 0.083008
O O4 0.858477 0.668504 0.428340
O O5 0.000000 0.670846 0.257673
O O6 0.891873 0.638828 0.926451
O O7 0.750000 0.365378 0.250000
#
# Coordination Sequence:
#
# PCOD8300545 Si02
#       3
#     8  16  16
#     4  10  20  38  61  88 121 152 188 246 308 344
#     4  11  24  41  59  85 125 162 192 240 303 351
#     4  11  22  39  64  90 115 154 204 245 287 350
#
# _framework density 20.713377000000001
#
# number of rings (size 3 to 8) (size 9 to 14) (size 15 to 20)
#    0.000    1.200    0.000    8.400    0.000    8.000 
#    0.000    6.000    0.000    0.000    0.000    0.000 
#    0.000    0.000    0.000    0.000    0.000    0.000 
#
# Total GULP energy -248110.992727 kJ/mol
# GULP energy per Si atom -12405.549636 kJ/mol
# Density = 2.066623 g / cm^3
# Si number density = 20.713377 Si / 1000 Ang^3
#
#
#
# Elastic Constant Matrix: (Units=GPa)
#
#
# Indices 1 2 3 4 5 6 
#
# 1 77.6302 77.8709 43.3182 0.0000 0.0000 0.0000
# 2 77.8709 117.2942 50.8414 0.0000 0.0000 0.0000
# 3 43.3182 50.8414 145.7920 0.0000 0.0000 0.0000
# 4 0.0000 0.0000 0.0000 36.0285 0.0000 0.0000
# 5 0.0000 0.0000 0.0000 0.0000 38.2152 0.0000
# 6 0.0000 0.0000 0.0000 0.0000 0.0000 10.6590
#
#
#
# Elastic Compliance Matrix: (Units=1/GPa)
#
#
# Indices 1 2 3 4 5 6 
#
# 1 0.039694 -0.025023 -0.003068 0.000000 0.000000 0.000000
# 2 -0.025023 0.025818 -0.001569 0.000000 0.000000 0.000000
# 3 -0.003068 -0.001569 0.008318 0.000000 0.000000 0.000000
# 4 0.000000 0.000000 0.000000 0.027756 0.000000 0.000000
# 5 0.000000 0.000000 0.000000 0.000000 0.026168 0.000000
# 6 0.000000 0.000000 0.000000 0.000000 0.000000 0.093817
#
#
# Mechanical properties :
#
#
# Convention : Reuss Voigt Hill
#
# Bulk Modulus (GPa) = 68.91304 76.08639 72.49972
# Shear Modulus (GPa) = 17.49938 28.22628 22.86283
#
# Velocity S-wave (km/s) = 2.90976 3.69549 3.32591
# Velocity P-wave (km/s) = 6.68064 7.41765 7.05877
#
# Compressibility (1/GPa) = 0.01451104
#
# Stress axis : x y z
#
# Youngs Moduli (GPa) = 25.19298 38.73300 120.22678
#
# Poissons Ratio (x) = 0.96920 0.36884
# Poissons Ratio (y) = 0.63039 0.18858
# Poissons Ratio (z) = 0.07729 0.06075
#
# Static dielectric constant tensor:
#      x y z
#    x 3.585000 0.000000 0.000000 
#    y 0.000000 3.903040 0.000000 
#    z 0.000000 0.000000 4.079540 
# 
# 
# High freq. dielectric constant tensor:
#      x y z
#    x 1.790010 0.000000 0.000000 
#    y 0.000000 1.818990 0.000000 
#    z 0.000000 0.000000 1.833450 
# 
# From -- ./inp_files/1165.got.cif
#   From: 2010.03.12/outbox.cif.g09.slc.cpg/sg74_1_cif.got.tgz:1165.got - 2010.04.16 15:46:19.
