data_PCOD8300879
_publ_section_title
;
Structure prediction by ZEFSAII (Michael W. Deem and Ramdas Pophale) SiO2 
 PCOD8300879
Probable space group: I M M A
;
_chemical_formula_sum "Si O2"
_cell_formula_units_Z 96
_cell_length_a 26.836102
_cell_length_b 9.296693
_cell_length_c 20.332828
_cell_angle_alpha 90.000000
_cell_angle_beta 90.000000
_cell_angle_gamma 90.000000
_cell_volume 5072.776292
_symmetry_space_group_name_H-M "I M M A"
_symmetry_group_IT_number 74
_symmetry_cell_setting 'orthorhombic'
loop_
_space_group_symop_operation_xyz
x,y,z
-x,1/2-y,z
x,-y,-z
-x,1/2+y,-z
-x,-y,-z
x,1/2+y,-z
-x,y,z
x,1/2-y,z
1/2+x,1/2+y,1/2+z
1/2-x,-y,1/2+z
1/2+x,1/2-y,1/2-z
1/2-x,y,1/2-z
1/2-x,1/2-y,1/2-z
1/2+x,y,1/2-z
1/2-x,1/2+y,1/2+z
1/2+x,-y,1/2+z
loop_
_atom_site_type_symbol
_atom_site_label
_atom_site_fract_x
_atom_site_fract_y
_atom_site_fract_z
Si Si1 0.291145 0.082805 0.804319
Si Si2 0.557129 0.917530 0.936133
Si Si3 0.378029 0.581934 0.435502
Si Si4 0.442543 0.915106 0.312115
Si Si5 0.392186 0.079652 0.198826
Si Si6 0.236277 0.917304 0.063836
O O1 0.306559 0.250000 0.803016
O O2 0.250000 0.049982 0.750000
O O3 0.269785 0.036070 0.874806
O O4 0.338379 0.986524 0.787204
O O5 0.500000 0.960860 0.921626
O O6 0.562077 0.750000 0.950891
O O7 0.590157 0.963818 0.874064
O O8 0.577750 0.000000 0.000000
O O9 0.397386 0.500000 0.500000
O O10 0.385168 0.750000 0.448413
O O11 0.410202 0.529751 0.373634
O O12 0.320774 0.541497 0.420486
O O13 0.500000 0.931048 0.331475
O O14 0.428913 0.750000 0.295022
O O15 0.431502 0.014361 0.249745
O O16 0.390530 0.250000 0.208157
O O17 0.241301 0.750000 0.048957
O O18 0.256371 0.000000 0.000000
#
# Coordination Sequence:
#
# PCOD8300879 Si02
#       6
#    16  16  16  16  16  16
#     4  10  21  38  58  78 104 141 183 224 266 317
#     4   9  19  36  56  78 106 140 177 218 265 317
#     4   9  18  34  55  80 109 141 179 221 266 316
#     4  10  21  37  57  80 108 145 187 226 265 318
#     4  11  23  37  55  81 112 142 176 225 277 322
#     4   9  18  33  54  77 104 139 175 216 265 316
#
# _framework density 18.924548000000001
#
# number of rings (size 3 to 8) (size 9 to 14) (size 15 to 20)
#    0.000    2.333    0.000    2.000    0.000    7.667 
#    0.000    8.333    0.000    0.000    0.000    0.000 
#    0.000    0.000    0.000    0.000    0.000    0.000 
#
# Total GULP energy -595416.921610 kJ/mol
# GULP energy per Si atom -12404.519200 kJ/mol
# Density = 1.888147 g / cm^3
# Si number density = 18.924548 Si / 1000 Ang^3
#
#
#
# Elastic Constant Matrix: (Units=GPa)
#
#
# Indices 1 2 3 4 5 6 
#
# 1 59.2327 24.1656 23.5960 0.0000 0.0000 0.0000
# 2 24.1656 52.4044 40.4159 0.0000 0.0000 0.0000
# 3 23.5960 40.4159 98.7499 0.0000 0.0000 0.0000
# 4 0.0000 0.0000 0.0000 37.6436 0.0000 0.0000
# 5 0.0000 0.0000 0.0000 0.0000 33.7180 0.0000
# 6 0.0000 0.0000 0.0000 0.0000 0.0000 18.3224
#
#
#
# Elastic Compliance Matrix: (Units=1/GPa)
#
#
# Indices 1 2 3 4 5 6 
#
# 1 0.020953 -0.008477 -0.001537 0.000000 0.000000 0.000000
# 2 -0.008477 0.031313 -0.010790 0.000000 0.000000 0.000000
# 3 -0.001537 -0.010790 0.014910 0.000000 0.000000 0.000000
# 4 0.000000 0.000000 0.000000 0.026565 0.000000 0.000000
# 5 0.000000 0.000000 0.000000 0.000000 0.029658 0.000000
# 6 0.000000 0.000000 0.000000 0.000000 0.000000 0.054578
#
#
# Mechanical properties :
#
#
# Convention : Reuss Voigt Hill
#
# Bulk Modulus (GPa) = 39.11151 42.97132 41.04141
# Shear Modulus (GPa) = 21.91942 26.08410 24.00176
#
# Velocity S-wave (km/s) = 3.40700 3.71660 3.56517
# Velocity P-wave (km/s) = 6.01572 6.41665 6.21942
#
# Compressibility (1/GPa) = 0.02556792
#
# Stress axis : x y z
#
# Youngs Moduli (GPa) = 47.72514 31.93566 67.06865
#
# Poissons Ratio (x) = 0.27071 0.10312
# Poissons Ratio (y) = 0.40455 0.72368
# Poissons Ratio (z) = 0.07338 0.34459
#
# Static dielectric constant tensor:
#      x y z
#    x 3.413310 0.000000 0.000000 
#    y 0.000000 3.381750 0.000000 
#    z 0.000000 0.000000 3.604950 
# 
# 
# High freq. dielectric constant tensor:
#      x y z
#    x 1.734430 0.000000 0.000000 
#    y 0.000000 1.727320 0.000000 
#    z 0.000000 0.000000 1.745940 
# 
# From -- ./inp_files/49040.got.cif
#   From: 2010.03.12/outbox.cif.g09.slc.cpg/sg74_25_cif.got.tgz:49040.got - 2010.04.16 15:46:19.
