data_PCOD8300541
_publ_section_title
;
Structure prediction by ZEFSAII (Michael W. Deem and Ramdas Pophale) SiO2 
 PCOD8300541
Probable space group: I M M A
;
_chemical_formula_sum "Si O2"
_cell_formula_units_Z 80
_cell_length_a 13.994848
_cell_length_b 17.915641
_cell_length_c 16.118118
_cell_angle_alpha 90.000000
_cell_angle_beta 90.000000
_cell_angle_gamma 90.000000
_cell_volume 4041.242095
_symmetry_space_group_name_H-M "I M M A"
_symmetry_group_IT_number 74
_symmetry_cell_setting 'orthorhombic'
loop_
_space_group_symop_operation_xyz
x,y,z
-x,1/2-y,z
x,-y,-z
-x,1/2+y,-z
-x,-y,-z
x,1/2+y,-z
-x,y,z
x,1/2-y,z
1/2+x,1/2+y,1/2+z
1/2-x,-y,1/2+z
1/2+x,1/2-y,1/2-z
1/2-x,y,1/2-z
1/2-x,1/2-y,1/2-z
1/2+x,y,1/2-z
1/2-x,1/2+y,1/2+z
1/2+x,-y,1/2+z
loop_
_atom_site_type_symbol
_atom_site_label
_atom_site_fract_x
_atom_site_fract_y
_atom_site_fract_z
Si Si1 0.248527 0.839541 0.532279
Si Si2 0.111231 0.583440 0.088257
Si Si3 0.888942 0.169158 0.745744
Si Si4 0.113504 0.081203 0.589394
Si Si5 0.750041 0.463786 0.150115
O O1 0.248372 0.750000 0.539168
O O2 0.342730 0.870727 0.486902
O O3 0.153641 0.869713 0.486174
O O4 0.250330 0.876279 0.624564
O O5 0.132784 0.633322 0.167248
O O6 0.157834 0.503048 0.107424
O O7 0.000000 0.570937 0.069694
O O8 0.839900 0.250000 0.744125
O O9 0.845679 0.120743 0.672014
O O10 0.000000 0.176144 0.728165
O O11 0.000000 0.074039 0.580467
O O12 0.157821 0.998828 0.601788
O O13 0.750000 0.470972 0.250000
#
# Coordination Sequence:
#
# PCOD8300541 Si02
#       5
#    16  16  16  16  16
#     4  11  25  39  57  87 119 156 199 242 289 342
#     4  10  20  38  61  87 119 151 191 241 292 350
#     4   9  16  27  51  85 116 146 174 214 284 353
#     4  10  20  38  61  87 119 151 191 241 292 350
#     4  11  23  40  60  86 116 154 203 242 286 346
#
# _framework density 19.795894000000001
#
# number of rings (size 3 to 8) (size 9 to 14) (size 15 to 20)
#    0.000    1.800    2.000    3.600    0.000    6.000 
#    0.000    3.000    0.000    0.000    0.000    5.600 
#    0.000    0.000    0.000    0.000    0.000    0.000 
#
# Total GULP energy -495681.786166 kJ/mol
# GULP energy per Si atom -12392.044654 kJ/mol
# Density = 1.975084 g / cm^3
# Si number density = 19.795894 Si / 1000 Ang^3
#
#
#
# Elastic Constant Matrix: (Units=GPa)
#
#
# Indices 1 2 3 4 5 6 
#
# 1 148.4428 39.4214 29.4849 0.0000 0.0000 0.0000
# 2 39.4214 154.6735 60.4013 0.0000 0.0000 0.0000
# 3 29.4849 60.4013 55.7482 0.0000 0.0000 0.0000
# 4 0.0000 0.0000 0.0000 -53.3569 0.0000 0.0000
# 5 0.0000 0.0000 0.0000 0.0000 17.1363 0.0000
# 6 0.0000 0.0000 0.0000 0.0000 0.0000 11.3593
#
#
#
# Elastic Compliance Matrix: (Units=1/GPa)
#
#
# Indices 1 2 3 4 5 6 
#
# 1 0.007563 -0.000634 -0.003314 0.000000 0.000000 0.000000
# 2 -0.000634 0.011260 -0.011865 0.000000 0.000000 0.000000
# 3 -0.003314 -0.011865 0.032545 0.000000 0.000000 0.000000
# 4 0.000000 0.000000 0.000000 -0.018742 0.000000 0.000000
# 5 0.000000 0.000000 0.000000 0.000000 0.058356 0.000000
# 6 0.000000 0.000000 0.000000 0.000000 0.000000 0.088034
#
#
# Mechanical properties :
#
#
# Convention : Reuss Voigt Hill
#
# Bulk Modulus (GPa) = 50.64674 68.60886 59.62780
# Shear Modulus (GPa) = 23.01800 10.33153 16.67477
#
# Velocity S-wave (km/s) = 3.41364 2.28700 2.90545
# Velocity P-wave (km/s) = 6.41695 6.45811 6.43756
#
# Compressibility (1/GPa) = 0.01974461
#
# Stress axis : x y z
#
# Youngs Moduli (GPa) = 132.22211 88.81015 30.72642
#
# Poissons Ratio (x) = 0.05627 0.10181
# Poissons Ratio (y) = 0.08378 0.36456
# Poissons Ratio (z) = 0.43812 1.05370
#
# Static dielectric constant tensor:
#      x y z
#    x 4.007240 0.000000 0.000000 
#    y 0.000000 3.723420 0.000000 
#    z 0.000000 0.000000 3.646290 
# 
# 
# High freq. dielectric constant tensor:
#      x y z
#    x 1.777110 0.000000 0.000000 
#    y 0.000000 1.766840 0.000000 
#    z 0.000000 0.000000 1.769120 
# 
# From -- ./inp_files/42694.got.cif
#   From: 2010.03.12/outbox.cif.g09.slc.cpg/sg74_22_cif.got.tgz:42694.got - 2010.04.16 15:46:19.
