data_PCOD8300512
_publ_section_title
;
Structure prediction by ZEFSAII (Michael W. Deem and Ramdas Pophale) SiO2 
 PCOD8300512
Probable space group: I M M A
;
_chemical_formula_sum "Si O2"
_cell_formula_units_Z 88
_cell_length_a 26.279824
_cell_length_b 14.747607
_cell_length_c 10.934972
_cell_angle_alpha 90.000000
_cell_angle_beta 90.000000
_cell_angle_gamma 90.000000
_cell_volume 4238.007135
_symmetry_space_group_name_H-M "I M M A"
_symmetry_group_IT_number 74
_symmetry_cell_setting 'orthorhombic'
loop_
_space_group_symop_operation_xyz
x,y,z
-x,1/2-y,z
x,-y,-z
-x,1/2+y,-z
-x,-y,-z
x,1/2+y,-z
-x,y,z
x,1/2-y,z
1/2+x,1/2+y,1/2+z
1/2-x,-y,1/2+z
1/2+x,1/2-y,1/2-z
1/2-x,y,1/2-z
1/2-x,1/2-y,1/2-z
1/2+x,y,1/2-z
1/2-x,1/2+y,1/2+z
1/2+x,-y,1/2+z
loop_
_atom_site_type_symbol
_atom_site_label
_atom_site_fract_x
_atom_site_fract_y
_atom_site_fract_z
Si Si1 0.593814 0.650748 0.628399
Si Si2 0.000000 0.641299 0.721884
Si Si3 0.388191 0.146115 0.897434
Si Si4 0.000000 0.142115 0.550525
Si Si5 0.805367 0.528972 0.255611
Si Si6 0.666983 0.848210 0.851806
Si Si7 0.355138 0.000000 0.500000
O O1 0.579592 0.750000 0.575372
O O2 0.547922 0.605076 0.702475
O O3 0.639222 0.659755 0.723471
O O4 0.608974 0.587954 0.514502
O O5 0.000000 0.750000 0.713678
O O6 0.000000 0.598971 0.585869
O O7 0.383418 0.250000 0.854865
O O8 0.447249 0.112363 0.881823
O O9 0.349467 0.088906 0.815513
O O10 0.373397 0.135526 0.039716
O O11 0.000000 0.250000 0.537459
O O12 0.750000 0.577819 0.250000
O O13 0.796972 0.436381 0.336745
O O14 0.820013 0.510323 0.117100
O O15 0.695464 0.750000 0.874378
#
# Coordination Sequence:
#
# PCOD8300512 Si02
#       7
#    16   8  16   8  16  16   8
#     4   9  17  33  57  84 117 154 196 241 294 357
#     4   9  14  27  57  91 117 155 197 245 303 350
#     4  10  20  37  64  97 129 157 195 252 318 379
#     4   9  16  32  62  97 130 157 196 255 311 366
#     4  11  25  41  62  84 122 164 209 258 311 363
#     4   9  18  36  62  89 117 151 197 256 310 359
#     4  10  24  41  54  80 114 161 202 248 296 362
#
# _framework density 20.764475999999998
#
# number of rings (size 3 to 8) (size 9 to 14) (size 15 to 20)
#    0.000    2.364    1.818    0.545    2.545    1.818 
#    0.000    6.364    0.000    3.273    0.000    0.000 
#    0.000    0.000    0.000    0.000    0.000    0.000 
#
# Total GULP energy -545118.733596 kJ/mol
# GULP energy per Si atom -12389.062127 kJ/mol
# Density = 2.071722 g / cm^3
# Si number density = 20.764476 Si / 1000 Ang^3
#
#
#
# Elastic Constant Matrix: (Units=GPa)
#
#
# Indices 1 2 3 4 5 6 
#
# 1 146.6522 55.8332 46.5948 0.0000 0.0000 0.0000
# 2 55.8332 85.0885 51.7773 0.0000 0.0000 0.0000
# 3 46.5948 51.7773 76.8137 0.0000 0.0000 0.0000
# 4 0.0000 0.0000 0.0000 30.6346 0.0000 0.0000
# 5 0.0000 0.0000 0.0000 0.0000 22.9945 0.0000
# 6 0.0000 0.0000 0.0000 0.0000 0.0000 17.7176
#
#
#
# Elastic Compliance Matrix: (Units=1/GPa)
#
#
# Indices 1 2 3 4 5 6 
#
# 1 0.009390 -0.004570 -0.002615 0.000000 0.000000 0.000000
# 2 -0.004570 0.022149 -0.012158 0.000000 0.000000 0.000000
# 3 -0.002615 -0.012158 0.022800 0.000000 0.000000 0.000000
# 4 0.000000 0.000000 0.000000 0.032643 0.000000 0.000000
# 5 0.000000 0.000000 0.000000 0.000000 0.043489 0.000000
# 6 0.000000 0.000000 0.000000 0.000000 0.000000 0.056441
#
#
# Mechanical properties :
#
#
# Convention : Reuss Voigt Hill
#
# Bulk Modulus (GPa) = 63.88620 68.55168 66.21894
# Shear Modulus (GPa) = 21.66228 24.55927 23.11077
#
# Velocity S-wave (km/s) = 3.23342 3.44285 3.33978
# Velocity P-wave (km/s) = 6.69133 6.99213 6.84338
#
# Compressibility (1/GPa) = 0.01565283
#
# Stress axis : x y z
#
# Youngs Moduli (GPa) = 106.50056 45.14799 43.85903
#
# Poissons Ratio (x) = 0.20632 0.11471
# Poissons Ratio (y) = 0.48668 0.53324
# Poissons Ratio (z) = 0.27854 0.54891
#
# Static dielectric constant tensor:
#      x y z
#    x 3.710480 0.000000 0.000000 
#    y 0.000000 4.257160 0.000000 
#    z 0.000000 0.000000 3.546100 
# 
# 
# High freq. dielectric constant tensor:
#      x y z
#    x 1.802240 0.000000 0.000000 
#    y 0.000000 1.807740 0.000000 
#    z 0.000000 0.000000 1.792330 
# 
# From -- ./inp_files/26203.got.cif
#   From: 2010.03.12/outbox.cif.g09.slc.cpg/sg74_14_cif.got.tgz:26203.got - 2010.04.16 15:46:19.
