data_PCOD8300998
_publ_section_title
;
Structure prediction by ZEFSAII (Michael W. Deem and Ramdas Pophale) SiO2 
 PCOD8300998
Probable space group: I M M A
;
_chemical_formula_sum "Si O2"
_cell_formula_units_Z 96
_cell_length_a 8.900671
_cell_length_b 26.882798
_cell_length_c 20.389356
_cell_angle_alpha 90.000000
_cell_angle_beta 90.000000
_cell_angle_gamma 90.000000
_cell_volume 4878.661945
_symmetry_space_group_name_H-M "I M M A"
_symmetry_group_IT_number 74
_symmetry_cell_setting 'orthorhombic'
loop_
_space_group_symop_operation_xyz
x,y,z
-x,1/2-y,z
x,-y,-z
-x,1/2+y,-z
-x,-y,-z
x,1/2+y,-z
-x,y,z
x,1/2-y,z
1/2+x,1/2+y,1/2+z
1/2-x,-y,1/2+z
1/2+x,1/2-y,1/2-z
1/2-x,y,1/2-z
1/2-x,1/2-y,1/2-z
1/2+x,y,1/2-z
1/2-x,1/2+y,1/2+z
1/2+x,-y,1/2+z
loop_
_atom_site_type_symbol
_atom_site_label
_atom_site_fract_x
_atom_site_fract_y
_atom_site_fract_z
Si Si1 0.676530 0.485746 0.816117
Si Si2 0.172891 0.307210 0.562139
Si Si3 0.824182 0.958996 0.553867
Si Si4 0.675988 0.307440 0.181463
Si Si5 0.177238 0.144334 0.057605
Si Si6 0.177199 0.372629 0.683230
O O1 0.500000 0.487265 0.807185
O O2 0.750000 0.507080 0.750000
O O3 0.728140 0.520262 0.875838
O O4 0.729781 0.429262 0.829633
O O5 0.189613 0.250000 0.582225
O O6 0.271436 0.317267 0.498034
O O7 0.234937 0.339806 0.622506
O O8 0.000000 0.320875 0.546244
O O9 0.728779 0.910538 0.536542
O O10 0.000000 0.945465 0.552756
O O11 0.785968 0.000000 0.500000
O O12 0.500000 0.318164 0.185765
O O13 0.709716 0.250000 0.164712
O O14 0.750000 0.322708 0.250000
O O15 0.746689 0.341815 0.126083
O O16 0.000000 0.146951 0.065790
O O17 0.250000 0.351994 0.750000
O O18 0.000000 0.368083 0.690542
#
# Coordination Sequence:
#
# PCOD8300998 Si02
#       6
#    16  16  16  16  16  16
#     4   9  18  33  55  80 107 141 178 220 270 325
#     4  10  21  38  59  81 109 149 194 236 278 330
#     4  10  21  39  61  81 106 145 191 236 281 332
#     4  10  21  39  63  88 115 149 189 233 282 338
#     4  12  25  38  56  84 117 150 186 234 287 340
#     4   9  18  34  56  83 113 145 183 226 276 331
#
# _framework density 19.677526
#
# number of rings (size 3 to 8) (size 9 to 14) (size 15 to 20)
#    0.000    2.000    0.000    3.500    0.000    8.667 
#    0.000    5.000    0.000    0.000    0.000    0.000 
#    0.000    0.000    0.000    0.000    0.000    0.000 
#
# Total GULP energy -595451.860614 kJ/mol
# GULP energy per Si atom -12405.247096 kJ/mol
# Density = 1.963274 g / cm^3
# Si number density = 19.677526 Si / 1000 Ang^3
#
#
#
# Elastic Constant Matrix: (Units=GPa)
#
#
# Indices 1 2 3 4 5 6 
#
# 1 67.3711 22.3495 33.9611 0.0000 0.0000 0.0000
# 2 22.3495 61.9317 24.3516 0.0000 0.0000 0.0000
# 3 33.9611 24.3516 104.2958 -0.0001 0.0000 0.0000
# 4 0.0000 0.0000 -0.0001 34.3489 0.0000 0.0000
# 5 0.0000 0.0000 0.0000 0.0000 36.8557 0.0000
# 6 0.0000 0.0000 0.0000 0.0000 0.0000 14.5249
#
#
#
# Elastic Compliance Matrix: (Units=1/GPa)
#
#
# Indices 1 2 3 4 5 6 
#
# 1 0.019006 -0.004873 -0.005051 0.000000 0.000000 0.000000
# 2 -0.004873 0.019028 -0.002856 0.000000 0.000000 0.000000
# 3 -0.005051 -0.002856 0.011900 0.000000 0.000000 0.000000
# 4 0.000000 0.000000 0.000000 0.029113 0.000000 0.000000
# 5 0.000000 0.000000 0.000000 0.000000 0.027133 0.000000
# 6 0.000000 0.000000 0.000000 0.000000 0.000000 0.068848
#
#
# Mechanical properties :
#
#
# Convention : Reuss Voigt Hill
#
# Bulk Modulus (GPa) = 41.02714 43.88031 42.45373
# Shear Modulus (GPa) = 23.95653 27.34166 25.64910
#
# Velocity S-wave (km/s) = 3.49299 3.73163 3.61428
# Velocity P-wave (km/s) = 6.09615 6.39647 6.24811
#
# Compressibility (1/GPa) = 0.02437411
#
# Stress axis : x y z
#
# Youngs Moduli (GPa) = 52.61569 52.55338 84.03552
#
# Poissons Ratio (x) = 0.25607 0.42446
# Poissons Ratio (y) = 0.25637 0.24002
# Poissons Ratio (z) = 0.26576 0.15010
#
# Static dielectric constant tensor:
#      x y z
#    x 3.483180 0.000000 0.000000 
#    y 0.000000 3.593180 0.000000 
#    z 0.000000 0.000000 3.731330 
# 
# 
# High freq. dielectric constant tensor:
#      x y z
#    x 1.755260 0.000000 0.000000 
#    y 0.000000 1.766870 0.000000 
#    z 0.000000 0.000000 1.779910 
# 
# From -- ./inp_files/49073.got.cif
#   From: 2010.03.12/outbox.cif.g09.slc.cpg/sg74_25_cif.got.tgz:49073.got - 2010.04.16 15:46:19.
