data_PCOD8300249
_publ_section_title
;
Structure prediction by ZEFSAII (Michael W. Deem and Ramdas Pophale) SiO2 
 PCOD8300249
Probable space group: I M M A
;
_chemical_formula_sum "Si O2"
_cell_formula_units_Z 80
_cell_length_a 24.780985
_cell_length_b 13.601189
_cell_length_c 11.729196
_cell_angle_alpha 90.000000
_cell_angle_beta 90.000000
_cell_angle_gamma 90.000000
_cell_volume 3953.335606
_symmetry_space_group_name_H-M "I M M A"
_symmetry_group_IT_number 74
_symmetry_cell_setting 'orthorhombic'
loop_
_space_group_symop_operation_xyz
x,y,z
-x,1/2-y,z
x,-y,-z
-x,1/2+y,-z
-x,-y,-z
x,1/2+y,-z
-x,y,z
x,1/2-y,z
1/2+x,1/2+y,1/2+z
1/2-x,-y,1/2+z
1/2+x,1/2-y,1/2-z
1/2-x,y,1/2-z
1/2-x,1/2-y,1/2-z
1/2+x,y,1/2-z
1/2-x,1/2+y,1/2+z
1/2+x,-y,1/2+z
loop_
_atom_site_type_symbol
_atom_site_label
_atom_site_fract_x
_atom_site_fract_y
_atom_site_fract_z
Si Si1 0.292150 0.139447 0.054401
Si Si2 0.114149 0.140195 0.273709
Si Si3 0.166890 0.864685 0.309800
Si Si4 0.191562 0.524937 0.873790
Si Si5 0.560024 0.032209 0.871136
O O1 0.269400 0.250000 0.062460
O O2 0.350472 0.132086 0.111469
O O3 0.252161 0.067797 0.122210
O O4 0.298330 0.107673 0.922329
O O5 0.091740 0.250000 0.254599
O O6 0.151179 0.109635 0.167751
O O7 0.064972 0.064863 0.291030
O O8 0.172895 0.750000 0.279282
O O9 0.103849 0.887366 0.332457
O O10 0.190115 0.928091 0.205436
O O11 0.171461 0.500000 0.000000
O O12 0.500000 0.076466 0.853913
O O13 0.569414 0.000000 0.000000
#
# Coordination Sequence:
#
# PCOD8300249 Si02
#       5
#    16  16  16  16  16
#     4  10  21  37  58  84 115 158 200 236 290 350
#     4  10  21  38  58  83 118 155 195 242 290 348
#     4  10  23  42  61  87 124 160 197 244 298 357
#     4  11  25  35  59  84 119 160 204 245 286 343
#     4  10  20  35  62  94 122 152 189 242 307 360
#
# _framework density 20.236076000000001
#
# number of rings (size 3 to 8) (size 9 to 14) (size 15 to 20)
#    0.000    1.800    2.000    1.200    8.400    4.000 
#    0.000    4.000    0.000    9.600    0.000   11.200 
#    0.000    0.000    0.000    0.000    0.000    0.000 
#
# Total GULP energy -496003.255324 kJ/mol
# GULP energy per Si atom -12400.081383 kJ/mol
# Density = 2.019002 g / cm^3
# Si number density = 20.236076 Si / 1000 Ang^3
#
#
#
# Elastic Constant Matrix: (Units=GPa)
#
#
# Indices 1 2 3 4 5 6 
#
# 1 82.6840 34.7149 23.9332 0.0000 0.0000 0.0000
# 2 34.7149 97.4750 40.7849 0.0000 0.0000 0.0000
# 3 23.9332 40.7849 103.1894 0.0000 0.0000 0.0000
# 4 0.0000 0.0000 0.0000 34.4093 0.0000 0.0000
# 5 0.0000 0.0000 0.0000 0.0000 14.4087 0.0000
# 6 0.0000 0.0000 0.0000 0.0000 0.0000 22.0891
#
#
#
# Elastic Compliance Matrix: (Units=1/GPa)
#
#
# Indices 1 2 3 4 5 6 
#
# 1 0.014431 -0.004480 -0.001576 0.000000 0.000000 0.000000
# 2 -0.004480 0.013683 -0.004369 0.000000 0.000000 0.000000
# 3 -0.001576 -0.004369 0.011783 0.000000 0.000000 0.000000
# 4 0.000000 0.000000 0.000000 0.029062 0.000000 0.000000
# 5 0.000000 0.000000 0.000000 0.000000 0.069402 0.000000
# 6 0.000000 0.000000 0.000000 0.000000 0.000000 0.045271
#
#
# Mechanical properties :
#
#
# Convention : Reuss Voigt Hill
#
# Bulk Modulus (GPa) = 52.50268 53.57938 53.04103
# Shear Modulus (GPa) = 23.71551 26.44245 25.07898
#
# Velocity S-wave (km/s) = 3.42708 3.61875 3.52422
# Velocity P-wave (km/s) = 6.45455 6.63288 6.54432
#
# Compressibility (1/GPa) = 0.01904665
#
# Stress axis : x y z
#
# Youngs Moduli (GPa) = 69.29291 73.08572 84.86579
#
# Poissons Ratio (x) = 0.32743 0.13379
# Poissons Ratio (y) = 0.31044 0.37077
# Poissons Ratio (z) = 0.10924 0.31930
#
# Static dielectric constant tensor:
#      x y z
#    x 3.425460 0.000000 0.000000 
#    y 0.000000 3.983700 0.000000 
#    z 0.000000 0.000000 3.646340 
# 
# 
# High freq. dielectric constant tensor:
#      x y z
#    x 1.765850 0.000000 0.000000 
#    y 0.000000 1.804270 0.000000 
#    z 0.000000 0.000000 1.782620 
# 
# From -- ./inp_files/20799.got.cif
#   From: 2010.03.12/outbox.cif.g09.slc.cpg/sg74_11_cif.got.tgz:20799.got - 2010.04.16 15:46:19.
