data_PCOD8300271
_publ_section_title
;
Structure prediction by ZEFSAII (Michael W. Deem and Ramdas Pophale) SiO2 
 PCOD8300271
Probable space group: I M M A
;
_chemical_formula_sum "Si O2"
_cell_formula_units_Z 64
_cell_length_a 26.418185
_cell_length_b 9.325406
_cell_length_c 13.974346
_cell_angle_alpha 90.000000
_cell_angle_beta 90.000000
_cell_angle_gamma 90.000000
_cell_volume 3442.724086
_symmetry_space_group_name_H-M "I M M A"
_symmetry_group_IT_number 74
_symmetry_cell_setting 'orthorhombic'
loop_
_space_group_symop_operation_xyz
x,y,z
-x,1/2-y,z
x,-y,-z
-x,1/2+y,-z
-x,-y,-z
x,1/2+y,-z
-x,y,z
x,1/2-y,z
1/2+x,1/2+y,1/2+z
1/2-x,-y,1/2+z
1/2+x,1/2-y,1/2-z
1/2-x,y,1/2-z
1/2-x,1/2-y,1/2-z
1/2+x,y,1/2-z
1/2-x,1/2+y,1/2+z
1/2+x,-y,1/2+z
loop_
_atom_site_type_symbol
_atom_site_label
_atom_site_fract_x
_atom_site_fract_y
_atom_site_fract_z
Si Si1 0.618053 0.750000 0.375936
Si Si2 0.804239 0.750000 0.295406
Si Si3 0.633076 0.972138 0.111634
Si Si4 0.283733 0.250000 0.392615
Si Si5 0.941356 0.750000 0.301369
Si Si6 0.675749 0.250000 0.180942
Si Si7 0.159469 0.000000 0.000000
O O1 0.660797 0.750000 0.296436
O O2 0.565852 0.750000 0.314748
O O3 0.623038 0.603250 0.437108
O O4 0.750000 0.750000 0.250000
O O5 0.815105 0.886429 0.363014
O O6 0.583881 0.889575 0.150384
O O7 0.637491 0.119667 0.167263
O O8 0.627880 0.000000 0.000000
O O9 0.302475 0.250000 0.285599
O O10 0.222382 0.250000 0.395150
O O11 0.303887 0.104495 0.440645
O O12 0.000000 0.750000 0.326421
#
# Coordination Sequence:
#
# PCOD8300271 Si02
#       7
#     8   8  16   8   8   8   8
#     4   9  20  36  58  84 112 152 191 235 285 335
#     4  10  22  36  56  77 124 164 197 224 275 336
#     4  10  22  38  58  86 112 149 190 242 279 335
#     4  10  22  32  51  80 112 164 190 218 261 324
#     4  10  22  44  66  81 108 148 188 238 311 362
#     4  11  22  34  52  80 121 145 192 230 276 316
#     4  10  20  36  55  82 118 152 197 226 270 332
#
# _framework density 18.589929999999999
#
# number of rings (size 3 to 8) (size 9 to 14) (size 15 to 20)
#    0.000    2.250    0.000    4.500    8.750    2.500 
#    0.000    1.250    0.000    0.000    0.000    0.000 
#    0.000    0.000    0.000    0.000    0.000    0.000 
#
# Total GULP energy -396594.293566 kJ/mol
# GULP energy per Si atom -12393.571674 kJ/mol
# Density = 1.854762 g / cm^3
# Si number density = 18.589930 Si / 1000 Ang^3
#
#
#
# Elastic Constant Matrix: (Units=GPa)
#
#
# Indices 1 2 3 4 5 6 
#
# 1 118.8792 53.9946 40.9835 0.0000 0.0000 0.0000
# 2 53.9946 165.4335 55.9306 0.0000 0.0000 0.0000
# 3 40.9835 55.9306 114.6174 0.0000 0.0000 0.0000
# 4 0.0000 0.0000 0.0000 38.1385 0.0000 0.0000
# 5 0.0000 0.0000 0.0000 0.0000 20.3342 0.0000
# 6 0.0000 0.0000 0.0000 0.0000 0.0000 16.5387
#
#
#
# Elastic Compliance Matrix: (Units=1/GPa)
#
#
# Indices 1 2 3 4 5 6 
#
# 1 0.010432 -0.002567 -0.002477 0.000000 0.000000 0.000000
# 2 -0.002567 0.007871 -0.002923 0.000000 0.000000 0.000000
# 3 -0.002477 -0.002923 0.011037 0.000000 0.000000 0.000000
# 4 0.000000 0.000000 0.000000 0.026220 0.000000 0.000000
# 5 0.000000 0.000000 0.000000 0.000000 0.049178 0.000000
# 6 0.000000 0.000000 0.000000 0.000000 0.000000 0.060464
#
#
# Mechanical properties :
#
#
# Convention : Reuss Voigt Hill
#
# Bulk Modulus (GPa) = 74.60074 77.86082 76.23078
# Shear Modulus (GPa) = 26.93887 31.53705 29.23796
#
# Velocity S-wave (km/s) = 3.81085 4.12328 3.97014
# Velocity P-wave (km/s) = 7.71882 8.04008 7.88109
#
# Compressibility (1/GPa) = 0.01340469
#
# Stress axis : x y z
#
# Youngs Moduli (GPa) = 95.85875 127.05221 90.60632
#
# Poissons Ratio (x) = 0.32618 0.22447
# Poissons Ratio (y) = 0.24609 0.26482
# Poissons Ratio (z) = 0.23748 0.37135
#
# Static dielectric constant tensor:
#      x y z
#    x 25.748530 0.000000 0.000000 
#    y 0.000000 3.728880 0.000000 
#    z 0.000000 0.000000 2.166160 
# 
# 
# High freq. dielectric constant tensor:
#      x y z
#    x 1.678800 0.000000 0.000000 
#    y 0.000000 1.741820 0.000000 
#    z 0.000000 0.000000 1.738790 
# 
# From -- ./inp_files/37014.got.cif
#   From: 2010.03.12/outbox.cif.g09.slc.cpg/sg74_19_cif.got.tgz:37014.got - 2010.04.16 15:46:19.
