data_PCOD8300063
_publ_section_title
;
Structure prediction by ZEFSAII (Michael W. Deem and Ramdas Pophale) SiO2 
 PCOD8300063
Probable space group: I M M A
;
_chemical_formula_sum "Si O2"
_cell_formula_units_Z 80
_cell_length_a 19.310298
_cell_length_b 8.743324
_cell_length_c 25.574109
_cell_angle_alpha 90.000000
_cell_angle_beta 90.000000
_cell_angle_gamma 90.000000
_cell_volume 4317.835176
_symmetry_space_group_name_H-M "I M M A"
_symmetry_group_IT_number 74
_symmetry_cell_setting 'orthorhombic'
loop_
_space_group_symop_operation_xyz
x,y,z
-x,1/2-y,z
x,-y,-z
-x,1/2+y,-z
-x,-y,-z
x,1/2+y,-z
-x,y,z
x,1/2-y,z
1/2+x,1/2+y,1/2+z
1/2-x,-y,1/2+z
1/2+x,1/2-y,1/2-z
1/2-x,y,1/2-z
1/2-x,1/2-y,1/2-z
1/2+x,y,1/2-z
1/2-x,1/2+y,1/2+z
1/2+x,-y,1/2+z
loop_
_atom_site_type_symbol
_atom_site_label
_atom_site_fract_x
_atom_site_fract_y
_atom_site_fract_z
Si Si1 0.581851 0.574931 0.358538
Si Si2 0.319803 0.431331 0.944766
Si Si3 0.078997 0.570431 0.352917
Si Si4 0.826939 0.569604 0.944913
Si Si5 0.917707 0.078067 0.246995
O O1 0.500000 0.553100 0.362909
O O2 0.604020 0.750000 0.367068
O O3 0.615546 0.468869 0.402274
O O4 0.609197 0.521692 0.301766
O O5 0.314059 0.250000 0.949624
O O6 0.376158 0.482709 0.902278
O O7 0.246021 0.498098 0.927398
O O8 0.343850 0.500000 0.000000
O O9 0.083852 0.750000 0.343636
O O10 0.110391 0.491302 0.301201
O O11 0.000000 0.519182 0.363452
O O12 0.818843 0.750000 0.950932
O O13 0.851360 0.500000 0.000000
O O14 0.889595 0.250000 0.240720
O O15 0.000000 0.073569 0.248279
#
# Coordination Sequence:
#
# PCOD8300063 Si02
#       5
#    16  16  16  16  16
#     4  10  20  35  56  80 106 136 170 209 254 305
#     4  10  20  35  54  75 103 138 175 214 258 309
#     4   9  18  33  53  77 105 138 174 212 256 306
#     4  11  22  37  56  76 103 137 173 213 257 307
#     4   9  17  30  50  77 107 137 169 208 255 304
#
# _framework density 18.527804
#
# number of rings (size 3 to 8) (size 9 to 14) (size 15 to 20)
#    0.000    2.200    0.000    4.800    0.000    6.000 
#    0.000    1.000    0.000    6.000    0.000    0.000 
#    0.000    0.000    0.000    0.000    0.000    0.000 
#
# Total GULP energy -496086.602965 kJ/mol
# GULP energy per Si atom -12402.165074 kJ/mol
# Density = 1.848563 g / cm^3
# Si number density = 18.527804 Si / 1000 Ang^3
#
#
#
# Elastic Constant Matrix: (Units=GPa)
#
#
# Indices 1 2 3 4 5 6 
#
# 1 52.0342 33.3274 59.3751 0.0000 0.0000 0.0000
# 2 33.3274 96.7388 57.4827 0.0000 0.0000 0.0000
# 3 59.3751 57.4827 144.9958 0.0000 0.0000 0.0000
# 4 0.0000 0.0000 0.0000 37.5676 0.0000 0.0000
# 5 0.0000 0.0000 0.0000 0.0000 4.8541 0.0000
# 6 0.0000 0.0000 0.0000 0.0000 0.0000 24.2185
#
#
#
# Elastic Compliance Matrix: (Units=1/GPa)
#
#
# Indices 1 2 3 4 5 6 
#
# 1 0.037843 -0.005009 -0.013511 0.000000 0.000000 0.000000
# 2 -0.005009 0.014186 -0.003573 0.000000 0.000000 0.000000
# 3 -0.013511 -0.003573 0.013846 0.000000 0.000000 0.000000
# 4 0.000000 0.000000 0.000000 0.026619 0.000000 0.000000
# 5 0.000000 0.000000 0.000000 0.000000 0.206012 0.000000
# 6 0.000000 0.000000 0.000000 0.000000 0.000000 0.041291
#
#
# Mechanical properties :
#
#
# Convention : Reuss Voigt Hill
#
# Bulk Modulus (GPa) = 46.10515 66.01546 56.06030
# Shear Modulus (GPa) = 12.78081 22.90028 17.84055
#
# Velocity S-wave (km/s) = 2.62929 3.51949 3.10644
# Velocity P-wave (km/s) = 5.84430 7.22659 6.57189
#
# Compressibility (1/GPa) = 0.02168955
#
# Stress axis : x y z
#
# Youngs Moduli (GPa) = 26.42474 70.49368 72.22461
#
# Poissons Ratio (x) = 0.35311 0.97581
# Poissons Ratio (y) = 0.13237 0.25803
# Poissons Ratio (z) = 0.35702 0.25185
#
# Static dielectric constant tensor:
#      x y z
#    x 3.180950 0.000000 0.000000 
#    y 0.000000 3.512310 0.000000 
#    z 0.000000 0.000000 3.564990 
# 
# 
# High freq. dielectric constant tensor:
#      x y z
#    x 1.689730 0.000000 0.000000 
#    y 0.000000 1.732320 0.000000 
#    z 0.000000 0.000000 1.731250 
# 
# From -- ./inp_files/63950.got.cif
#   From: 2010.03.12/outbox.cif.g09.slc.cpg/sg74_32_cif.got.tgz:63950.got - 2010.04.16 15:46:19.
