data_PCOD8300481
_publ_section_title
;
Structure prediction by ZEFSAII (Michael W. Deem and Ramdas Pophale) SiO2 
 PCOD8300481
Probable space group: I M M A
;
_chemical_formula_sum "Si O2"
_cell_formula_units_Z 112
_cell_length_a 23.348909
_cell_length_b 22.002350
_cell_length_c 11.129123
_cell_angle_alpha 90.000000
_cell_angle_beta 90.000000
_cell_angle_gamma 90.000000
_cell_volume 5717.374018
_symmetry_space_group_name_H-M "I M M A"
_symmetry_group_IT_number 74
_symmetry_cell_setting 'orthorhombic'
loop_
_space_group_symop_operation_xyz
x,y,z
-x,1/2-y,z
x,-y,-z
-x,1/2+y,-z
-x,-y,-z
x,1/2+y,-z
-x,y,z
x,1/2-y,z
1/2+x,1/2+y,1/2+z
1/2-x,-y,1/2+z
1/2+x,1/2-y,1/2-z
1/2-x,y,1/2-z
1/2-x,1/2-y,1/2-z
1/2+x,y,1/2-z
1/2-x,1/2+y,1/2+z
1/2+x,-y,1/2+z
loop_
_atom_site_type_symbol
_atom_site_label
_atom_site_fract_x
_atom_site_fract_y
_atom_site_fract_z
Si Si1 0.164421 0.087854 0.268751
Si Si2 0.065168 0.937550 0.559500
Si Si3 0.283977 0.319662 0.040082
Si Si4 0.380703 0.637885 0.132729
Si Si5 0.563576 0.681533 0.361446
Si Si6 0.310550 0.952658 0.284370
Si Si7 0.666223 0.376627 0.499460
O O1 0.102174 0.077693 0.324207
O O2 0.203502 0.131935 0.352249
O O3 0.194497 0.023357 0.248534
O O4 0.154271 0.116313 0.140002
O O5 0.072634 0.883624 0.463972
O O6 0.000000 0.942419 0.602370
O O7 0.086713 0.000000 0.500000
O O8 0.287155 0.250000 0.088006
O O9 0.329198 0.326989 0.932567
O O10 0.220964 0.332201 0.985912
O O11 0.412769 0.681576 0.225270
O O12 0.358884 0.578598 0.203768
O O13 0.500000 0.650681 0.367757
O O14 0.557759 0.750000 0.404493
O O15 0.607780 0.650305 0.450240
O O16 0.250000 0.922633 0.250000
O O17 0.321777 0.939123 0.426223
#
# Coordination Sequence:
#
# PCOD8300481 Si02
#       7
#    16  16  16  16  16  16  16
#     4  11  24  38  58  89 121 160 197 247 295 366
#     4  10  20  37  61  86 118 156 196 248 301 355
#     4  11  23  39  60  90 122 159 196 243 304 361
#     4  10  20  37  62  90 117 150 194 255 297 360
#     4  10  22  39  60  84 115 158 205 251 295 347
#     4  11  20  37  59  87 120 152 195 241 304 354
#     4  11  23  38  58  87 120 162 195 248 296 359
#
# _framework density 19.589413
#
# number of rings (size 3 to 8) (size 9 to 14) (size 15 to 20)
#    0.000    1.429    2.857    3.000    0.000    2.286 
#    0.000    2.143    0.000    6.429    0.000    0.000 
#    0.000    0.000    0.000    0.000    0.000    0.000 
#
# Total GULP energy -694225.074815 kJ/mol
# GULP energy per Si atom -12396.876336 kJ/mol
# Density = 1.954483 g / cm^3
# Si number density = 19.589413 Si / 1000 Ang^3
#
#
#
# Elastic Constant Matrix: (Units=GPa)
#
#
# Indices 1 2 3 4 5 6 
#
# 1 136.7087 37.1478 59.7461 0.0000 0.0000 0.0000
# 2 37.1478 105.2783 30.9852 0.0000 0.0000 0.0000
# 3 59.7461 30.9852 113.1834 0.0000 0.0000 0.0000
# 4 0.0000 0.0000 0.0000 19.3075 0.0000 0.0000
# 5 0.0000 0.0000 0.0000 0.0000 20.4391 0.0000
# 6 0.0000 0.0000 0.0000 0.0000 0.0000 21.0003
#
#
#
# Elastic Compliance Matrix: (Units=1/GPa)
#
#
# Indices 1 2 3 4 5 6 
#
# 1 0.009930 -0.002133 -0.004658 0.000000 0.000000 0.000000
# 2 -0.002133 0.010789 -0.001828 0.000000 0.000000 0.000000
# 3 -0.004658 -0.001828 0.011794 0.000000 0.000000 0.000000
# 4 0.000000 0.000000 0.000000 0.051793 0.000000 0.000000
# 5 0.000000 0.000000 0.000000 0.000000 0.048926 0.000000
# 6 0.000000 0.000000 0.000000 0.000000 0.000000 0.047618
#
#
# Mechanical properties :
#
#
# Convention : Reuss Voigt Hill
#
# Bulk Modulus (GPa) = 65.46017 67.88094 66.67055
# Shear Modulus (GPa) = 24.60870 27.30215 25.95543
#
# Velocity S-wave (km/s) = 3.54817 3.73731 3.64397
# Velocity P-wave (km/s) = 7.09046 7.30413 7.19809
#
# Compressibility (1/GPa) = 0.01527647
#
# Stress axis : x y z
#
# Youngs Moduli (GPa) = 100.70456 92.68533 84.78669
#
# Poissons Ratio (x) = 0.19769 0.39492
# Poissons Ratio (y) = 0.21480 0.15497
# Poissons Ratio (z) = 0.46907 0.16940
#
# Static dielectric constant tensor:
#      x y z
#    x 3.630950 0.000000 0.000000 
#    y 0.000000 3.435880 0.000000 
#    z 0.000000 0.000000 3.583800 
# 
# 
# High freq. dielectric constant tensor:
#      x y z
#    x 1.770980 0.000000 0.000000 
#    y 0.000000 1.752410 0.000000 
#    z 0.000000 0.000000 1.764510 
# 
# From -- ./inp_files/24190.got.cif
#   From: 2010.03.12/outbox.cif.g09.slc.cpg/sg74_13_cif.got.tgz:24190.got - 2010.04.16 15:46:19.
