data_PCOD8300802
_publ_section_title
;
Structure prediction by ZEFSAII (Michael W. Deem and Ramdas Pophale) SiO2 
 PCOD8300802
Probable space group: I M M A
;
_chemical_formula_sum "Si O2"
_cell_formula_units_Z 104
_cell_length_a 9.309020
_cell_length_b 26.669326
_cell_length_c 21.707426
_cell_angle_alpha 90.000000
_cell_angle_beta 90.000000
_cell_angle_gamma 90.000000
_cell_volume 5389.200392
_symmetry_space_group_name_H-M "I M M A"
_symmetry_group_IT_number 74
_symmetry_cell_setting 'orthorhombic'
loop_
_space_group_symop_operation_xyz
x,y,z
-x,1/2-y,z
x,-y,-z
-x,1/2+y,-z
-x,-y,-z
x,1/2+y,-z
-x,y,z
x,1/2-y,z
1/2+x,1/2+y,1/2+z
1/2-x,-y,1/2+z
1/2+x,1/2-y,1/2-z
1/2-x,y,1/2-z
1/2-x,1/2-y,1/2-z
1/2+x,y,1/2-z
1/2-x,1/2+y,1/2+z
1/2+x,-y,1/2+z
loop_
_atom_site_type_symbol
_atom_site_label
_atom_site_fract_x
_atom_site_fract_y
_atom_site_fract_z
Si Si1 0.168662 0.937896 0.690037
Si Si2 0.760404 0.500000 0.000000
Si Si3 0.163621 0.400247 0.690406
Si Si4 0.659787 0.805114 0.122019
Si Si5 0.830512 0.307222 0.998396
Si Si6 0.839967 0.025467 0.869458
Si Si7 0.160600 0.396789 0.443075
O O1 0.250000 0.914269 0.750000
O O2 0.188069 0.903539 0.629860
O O3 0.000000 0.946655 0.704402
O O4 0.248668 0.989519 0.674827
O O5 0.857647 0.509847 0.059551
O O6 0.672831 0.449255 0.018224
O O7 0.250000 0.417502 0.750000
O O8 0.174840 0.340855 0.680912
O O9 0.246887 0.423681 0.631810
O O10 0.000000 0.419145 0.694293
O O11 0.500000 0.811383 0.092626
O O12 0.683087 0.750000 0.149144
O O13 0.776691 0.817076 0.070458
O O14 0.787341 0.250000 0.019454
O O15 0.000000 0.313542 0.999716
O O16 0.766508 0.351445 0.040118
O O17 0.000000 0.031540 0.842177
O O18 0.000000 0.377527 0.454780
#
# Coordination Sequence:
#
# PCOD8300802 Si02
#       7
#    16   8  16  16  16  16  16
#     4  10  21  37  56  79 107 140 178 217 262 315
#     4  10  22  36  56  86 116 142 178 224 276 326
#     4  11  23  37  53  74 102 138 180 224 269 316
#     4   9  19  36  56  76 100 134 176 221 270 323
#     4  10  21  36  56  84 115 145 180 225 274 322
#     4  11  22  36  54  77 107 141 177 216 262 317
#     4  10  21  36  57  83 112 147 182 221 270 326
#
# _framework density 19.297853
#
# number of rings (size 3 to 8) (size 9 to 14) (size 15 to 20)
#    0.000    1.846    0.000    3.692    0.000   10.462 
#    0.000    0.000    0.000    0.462    0.000    0.000 
#    0.000    0.000    0.000    0.000    0.000    0.000 
#
# Total GULP energy -644311.224859 kJ/mol
# GULP energy per Si atom -12390.600478 kJ/mol
# Density = 1.925393 g / cm^3
# Si number density = 19.297853 Si / 1000 Ang^3
#
#
#
# Elastic Constant Matrix: (Units=GPa)
#
#
# Indices 1 2 3 4 5 6 
#
# 1 154.9721 57.2494 48.0339 0.0000 0.0000 0.0000
# 2 57.2494 94.2183 33.2956 0.0000 0.0000 0.0000
# 3 48.0339 33.2956 81.9849 0.0001 0.0000 0.0000
# 4 0.0000 0.0000 0.0001 22.6038 0.0000 0.0000
# 5 0.0000 0.0000 0.0000 0.0000 25.5295 0.0000
# 6 0.0000 0.0000 0.0000 0.0000 0.0000 25.9283
#
#
#
# Elastic Compliance Matrix: (Units=1/GPa)
#
#
# Indices 1 2 3 4 5 6 
#
# 1 0.009159 -0.004284 -0.003627 0.000000 0.000000 0.000000
# 2 -0.004284 0.014396 -0.003337 0.000000 0.000000 0.000000
# 3 -0.003627 -0.003337 0.015677 0.000000 0.000000 0.000000
# 4 0.000000 0.000000 0.000000 0.044240 0.000000 0.000000
# 5 0.000000 0.000000 0.000000 0.000000 0.039170 0.000000
# 6 0.000000 0.000000 0.000000 0.000000 0.000000 0.038568
#
#
# Mechanical properties :
#
#
# Convention : Reuss Voigt Hill
#
# Bulk Modulus (GPa) = 59.74322 67.59258 63.66790
# Shear Modulus (GPa) = 26.41531 27.65210 27.03371
#
# Velocity S-wave (km/s) = 3.70377 3.78949 3.74687
# Velocity P-wave (km/s) = 7.02255 7.36539 7.19601
#
# Compressibility (1/GPa) = 0.01673830
#
# Stress axis : x y z
#
# Youngs Moduli (GPa) = 109.17770 69.46512 63.78699
#
# Poissons Ratio (x) = 0.29758 0.23133
# Poissons Ratio (y) = 0.46770 0.21283
# Poissons Ratio (z) = 0.39594 0.23177
#
# Static dielectric constant tensor:
#      x y z
#    x 3.577360 0.000000 0.000000 
#    y 0.000000 3.605460 0.000000 
#    z 0.000000 0.000000 3.419200 
# 
# 
# High freq. dielectric constant tensor:
#      x y z
#    x 1.763620 0.000000 0.000000 
#    y 0.000000 1.742410 0.000000 
#    z 0.000000 0.000000 1.740260 
# 
# From -- ./inp_files/49305.got.cif
#   From: 2010.03.12/outbox.cif.g09.slc.cpg/sg74_25_cif.got.tgz:49305.got - 2010.04.16 15:46:19.
