data_PCOD8300210
_publ_section_title
;
Structure prediction by ZEFSAII (Michael W. Deem and Ramdas Pophale) SiO2 
 PCOD8300210
Probable space group: I M M A
;
_chemical_formula_sum "Si O2"
_cell_formula_units_Z 80
_cell_length_a 16.741077
_cell_length_b 28.621308
_cell_length_c 8.629906
_cell_angle_alpha 90.000000
_cell_angle_beta 90.000000
_cell_angle_gamma 90.000000
_cell_volume 4135.032587
_symmetry_space_group_name_H-M "I M M A"
_symmetry_group_IT_number 74
_symmetry_cell_setting 'orthorhombic'
loop_
_space_group_symop_operation_xyz
x,y,z
-x,1/2-y,z
x,-y,-z
-x,1/2+y,-z
-x,-y,-z
x,1/2+y,-z
-x,y,z
x,1/2-y,z
1/2+x,1/2+y,1/2+z
1/2-x,-y,1/2+z
1/2+x,1/2-y,1/2-z
1/2-x,y,1/2-z
1/2-x,1/2-y,1/2-z
1/2+x,y,1/2-z
1/2-x,1/2+y,1/2+z
1/2+x,-y,1/2+z
loop_
_atom_site_type_symbol
_atom_site_label
_atom_site_fract_x
_atom_site_fract_y
_atom_site_fract_z
Si Si1 0.590952 0.696076 0.055864
Si Si2 0.092494 0.104951 0.062426
Si Si3 0.234578 0.050960 0.931500
Si Si4 0.823906 0.121363 0.357960
Si Si5 0.405437 0.699032 0.403057
O O1 0.500000 0.677819 0.043123
O O2 0.595448 0.750000 0.007923
O O3 0.625116 0.688443 0.229129
O O4 0.645831 0.668006 0.938457
O O5 0.107772 0.099371 0.246281
O O6 0.000000 0.095905 0.022871
O O7 0.144398 0.068193 0.964690
O O8 0.121274 0.157533 0.016471
O O9 0.250000 0.050599 0.750000
O O10 0.300031 0.083671 0.013203
O O11 0.246016 0.000000 0.000000
O O12 0.750000 0.134990 0.250000
O O13 0.500000 0.702345 0.395557
O O14 0.372129 0.750000 0.459082
#
# Coordination Sequence:
#
# PCOD8300210 Si02
#       5
#    16  16  16  16  16
#     4   9  17  31  52  77 108 147 188 229 272 320
#     4  10  20  35  58  86 114 146 186 231 276 326
#     4  11  23  42  63  81 108 145 183 227 283 339
#     4  10  21  35  53  79 111 146 182 225 277 333
#     4   8  15  29  50  77 108 142 179 218 265 319
#
# _framework density 19.346885
#
# number of rings (size 3 to 8) (size 9 to 14) (size 15 to 20)
#    0.000    2.400    0.000    4.800    0.000    1.600 
#    0.000    6.000    0.000   15.000    0.000    0.000 
#    0.000    0.000    0.000    0.000    0.000    0.000 
#
# Total GULP energy -495920.119188 kJ/mol
# GULP energy per Si atom -12398.002980 kJ/mol
# Density = 1.930285 g / cm^3
# Si number density = 19.346885 Si / 1000 Ang^3
#
#
#
# Elastic Constant Matrix: (Units=GPa)
#
#
# Indices 1 2 3 4 5 6 
#
# 1 63.0607 46.3602 44.7168 -0.0002 0.0009 0.0003
# 2 46.3602 102.5299 65.1628 0.0001 0.0012 0.0005
# 3 44.7168 65.1628 141.9283 -0.0022 0.0067 0.0010
# 4 -0.0002 0.0001 -0.0022 31.2193 0.0009 -0.0001
# 5 0.0009 0.0012 0.0067 0.0009 25.4003 0.0002
# 6 0.0003 0.0005 0.0010 -0.0001 0.0002 27.1989
#
#
#
# Elastic Compliance Matrix: (Units=1/GPa)
#
#
# Indices 1 2 3 4 5 6 
#
# 1 0.025136 -0.008941 -0.003814 0.000000 0.000001 0.000000
# 2 -0.008941 0.016952 -0.004966 0.000000 0.000001 0.000000
# 3 -0.003814 -0.004966 0.010528 0.000001 -0.000002 0.000000
# 4 0.000000 0.000000 0.000001 0.032032 -0.000001 0.000000
# 5 0.000001 0.000001 -0.000002 -0.000001 0.039370 0.000000
# 6 0.000000 0.000000 0.000000 0.000000 0.000000 0.036766
#
#
# Mechanical properties :
#
#
# Convention : Reuss Voigt Hill
#
# Bulk Modulus (GPa) = 58.23301 68.88871 63.56086
# Shear Modulus (GPa) = 24.75850 26.84897 25.80374
#
# Velocity S-wave (km/s) = 3.58119 3.72932 3.65600
# Velocity P-wave (km/s) = 6.87493 7.36398 7.12365
#
# Compressibility (1/GPa) = 0.01717239
#
# Stress axis : x y z
#
# Youngs Moduli (GPa) = 39.78383 58.98863 94.98792
#
# Poissons Ratio (x) = 0.52744 0.36231
# Poissons Ratio (y) = 0.35572 0.47173
# Poissons Ratio (z) = 0.15175 0.29295
#
# Static dielectric constant tensor:
#      x y z
#    x 3.431570 0.000000 0.000000 
#    y 0.000000 3.755310 -0.000010 
#    z 0.000000 -0.000010 3.718910 
# 
# 
# High freq. dielectric constant tensor:
#      x y z
#    x 1.739230 0.000000 0.000000 
#    y 0.000000 1.748750 0.000000 
#    z 0.000000 0.000000 1.760300 
# 
# From -- ./inp_files/10938.got.cif
#   From: 2010.03.12/outbox.cif.g09.slc.cpg/sg74_6_cif.got.tgz:10938.got - 2010.04.16 15:46:19.
