data_PCOD8300151
_publ_section_title
;
Structure prediction by ZEFSAII (Michael W. Deem and Ramdas Pophale) SiO2 
 PCOD8300151
Probable space group: I M M A
;
_chemical_formula_sum "Si O2"
_cell_formula_units_Z 88
_cell_length_a 24.405787
_cell_length_b 9.056480
_cell_length_c 19.500841
_cell_angle_alpha 90.000000
_cell_angle_beta 90.000000
_cell_angle_gamma 90.000000
_cell_volume 4310.281063
_symmetry_space_group_name_H-M "I M M A"
_symmetry_group_IT_number 74
_symmetry_cell_setting 'orthorhombic'
loop_
_space_group_symop_operation_xyz
x,y,z
-x,1/2-y,z
x,-y,-z
-x,1/2+y,-z
-x,-y,-z
x,1/2+y,-z
-x,y,z
x,1/2-y,z
1/2+x,1/2+y,1/2+z
1/2-x,-y,1/2+z
1/2+x,1/2-y,1/2-z
1/2-x,y,1/2-z
1/2-x,1/2-y,1/2-z
1/2+x,y,1/2-z
1/2-x,1/2+y,1/2+z
1/2+x,-y,1/2+z
loop_
_atom_site_type_symbol
_atom_site_label
_atom_site_fract_x
_atom_site_fract_y
_atom_site_fract_z
Si Si1 0.301287 0.082705 0.295474
Si Si2 0.247683 0.412833 0.439036
Si Si3 0.000000 0.930172 0.922957
Si Si4 0.059958 0.587844 0.327331
Si Si5 0.586129 0.078543 0.677448
Si Si6 0.874228 0.577592 0.566829
O O1 0.314977 0.250000 0.269826
O O2 0.250000 0.020495 0.250000
O O3 0.285179 0.084390 0.373924
O O4 0.354593 0.980651 0.296748
O O5 0.277944 0.500000 0.500000
O O6 0.238915 0.250000 0.467507
O O7 0.187856 0.480130 0.423534
O O8 0.000000 0.750000 0.926486
O O9 0.055006 0.986176 0.882632
O O10 0.000000 0.000000 0.000000
O O11 0.086016 0.750000 0.340454
O O12 0.051318 0.562070 0.246376
O O13 0.096715 0.464448 0.362546
O O14 0.000000 0.578677 0.360909
O O15 0.591019 0.250000 0.653602
O O16 0.900825 0.500000 0.500000
O O17 0.879743 0.750000 0.556629
#
# Coordination Sequence:
#
# PCOD8300151 Si02
#       6
#    16  16   8  16  16  16
#     4  10  21  38  60  89 125 163 208 261 313 372
#     4   9  19  35  55  79 112 149 188 237 290 347
#     4  12  26  46  72  98 127 166 215 268 330 396
#     4  10  21  38  58  80 113 153 192 241 295 347
#     4  11  23  42  65  92 127 163 206 261 320 381
#     4  10  20  35  56  83 114 153 198 243 293 348
#
# _framework density 20.416302000000002
#
# number of rings (size 3 to 8) (size 9 to 14) (size 15 to 20)
#    0.000    1.818    0.909    3.000    0.000    6.182 
#    0.000    1.818    0.000    0.000    0.000    0.000 
#    0.000    0.000    0.000    0.000    0.000    0.000 
#
# Total GULP energy -545201.822632 kJ/mol
# GULP energy per Si atom -12390.950514 kJ/mol
# Density = 2.036983 g / cm^3
# Si number density = 20.416302 Si / 1000 Ang^3
#
#
#
# Elastic Constant Matrix: (Units=GPa)
#
#
# Indices 1 2 3 4 5 6 
#
# 1 92.6218 44.4287 20.1594 0.0000 0.0000 0.0000
# 2 44.4287 110.4670 41.6038 0.0000 0.0000 0.0000
# 3 20.1594 41.6038 70.5144 0.0000 0.0000 0.0000
# 4 0.0000 0.0000 0.0000 36.4513 0.0000 0.0000
# 5 0.0000 0.0000 0.0000 0.0000 27.2847 0.0000
# 6 0.0000 0.0000 0.0000 0.0000 0.0000 661.6326
#
#
#
# Elastic Compliance Matrix: (Units=1/GPa)
#
#
# Indices 1 2 3 4 5 6 
#
# 1 0.013416 -0.005080 -0.000838 0.000000 0.000000 0.000000
# 2 -0.005080 0.013562 -0.006549 0.000000 0.000000 0.000000
# 3 -0.000838 -0.006549 0.018285 0.000000 0.000000 0.000000
# 4 0.000000 0.000000 0.000000 0.027434 0.000000 0.000000
# 5 0.000000 0.000000 0.000000 0.000000 0.036651 0.000000
# 6 0.000000 0.000000 0.000000 0.000000 0.000000 0.001511
#
#
# Mechanical properties :
#
#
# Convention : Reuss Voigt Hill
#
# Bulk Modulus (GPa) = 49.19318 53.99855 51.59586
# Shear Modulus (GPa) = 35.07033 156.23448 95.65241
#
# Velocity S-wave (km/s) = 4.14908 8.75731 6.85220
# Velocity P-wave (km/s) = 6.86298 11.34725 9.37712
#
# Compressibility (1/GPa) = 0.02032802
#
# Stress axis : x y z
#
# Youngs Moduli (GPa) = 74.53896 73.73409 54.68861
#
# Poissons Ratio (x) = 0.37457 0.04584
# Poissons Ratio (y) = 0.37866 0.35818
# Poissons Ratio (z) = 0.06248 0.48292
#
# Static dielectric constant tensor:
#      x y z
#    x 3.694420 0.000000 0.000000 
#    y 0.000000 3.869640 0.000000 
#    z 0.000000 0.000000 3.781130 
# 
# 
# High freq. dielectric constant tensor:
#      x y z
#    x 1.792670 0.000000 0.000000 
#    y 0.000000 1.796550 0.000000 
#    z 0.000000 0.000000 1.803230 
# 
# From -- ./inp_files/54530.got.cif
#   From: 2010.03.12/outbox.cif.g09.slc.cpg/sg74_28_cif.got.tgz:54530.got - 2010.04.16 15:46:19.
