data_PCOD8300183
_publ_section_title
;
Structure prediction by ZEFSAII (Michael W. Deem and Ramdas Pophale) SiO2 
 PCOD8300183
Probable space group: I M M A
;
_chemical_formula_sum "Si O2"
_cell_formula_units_Z 120
_cell_length_a 9.048390
_cell_length_b 26.209586
_cell_length_c 27.695455
_cell_angle_alpha 90.000000
_cell_angle_beta 90.000000
_cell_angle_gamma 90.000000
_cell_volume 6568.103330
_symmetry_space_group_name_H-M "I M M A"
_symmetry_group_IT_number 74
_symmetry_cell_setting 'orthorhombic'
loop_
_space_group_symop_operation_xyz
x,y,z
-x,1/2-y,z
x,-y,-z
-x,1/2+y,-z
-x,-y,-z
x,1/2+y,-z
-x,y,z
x,1/2-y,z
1/2+x,1/2+y,1/2+z
1/2-x,-y,1/2+z
1/2+x,1/2-y,1/2-z
1/2-x,y,1/2-z
1/2-x,1/2-y,1/2-z
1/2+x,y,1/2-z
1/2-x,1/2+y,1/2+z
1/2+x,-y,1/2+z
loop_
_atom_site_type_symbol
_atom_site_label
_atom_site_fract_x
_atom_site_fract_y
_atom_site_fract_z
Si Si1 0.328026 0.549722 0.861561
Si Si2 0.172857 0.348561 0.140131
Si Si3 0.827352 0.895163 0.114657
Si Si4 0.175281 0.250000 0.198586
Si Si5 0.671122 0.309333 0.940604
Si Si6 0.333160 0.691041 0.536970
Si Si7 0.326748 0.950886 0.198897
Si Si8 0.171955 0.505774 0.054804
O O1 0.500000 0.557309 0.870022
O O2 0.258550 0.601766 0.841186
O O3 0.293670 0.507007 0.821693
O O4 0.257408 0.535035 0.912803
O O5 0.229788 0.299905 0.169924
O O6 0.209673 0.341475 0.083698
O O7 0.000000 0.356761 0.148502
O O8 0.765981 0.840865 0.097658
O O9 0.742700 0.909050 0.163531
O O10 0.795548 0.936987 0.073121
O O11 0.000000 0.890725 0.126076
O O12 0.250000 0.250000 0.250000
O O13 0.000000 0.250000 0.204020
O O14 0.500000 0.323492 0.935320
O O15 0.701602 0.250000 0.930160
O O16 0.721486 0.323724 0.994574
O O17 0.500000 0.678376 0.519703
O O18 0.320918 0.750000 0.551752
O O19 0.500000 0.940312 0.203876
O O20 0.250000 0.945316 0.250000
O O21 0.000000 0.492105 0.058689
O O22 0.228513 0.500000 0.000000
#
# Coordination Sequence:
#
# PCOD8300183 Si02
#       8
#    16  16  16   8  16  16  16  16
#     4  10  22  36  52  80 111 140 178 227 280 328
#     4  10  20  36  56  75 103 141 184 231 280 337
#     4  10  20  35  57  84 113 147 187 227 270 323
#     4  10  22  40  58  78 102 138 184 236 293 342
#     4  10  21  35  52  80 118 154 185 222 269 320
#     4   9  17  32  53  74  99 139 188 229 266 318
#     4  10  21  39  61  83 110 142 181 228 277 331
#     4   9  19  35  53  76 108 147 186 223 268 325
#
# _framework density 18.270115000000001
#
# number of rings (size 3 to 8) (size 9 to 14) (size 15 to 20)
#    0.000    2.267    0.667    1.600    1.867    4.800 
#    0.000    2.667    0.000    0.400    0.000    0.000 
#    0.000    0.000    0.000    0.000    0.000    0.000 
#
# Total GULP energy -744231.304382 kJ/mol
# GULP energy per Si atom -12403.855073 kJ/mol
# Density = 1.822853 g / cm^3
# Si number density = 18.270115 Si / 1000 Ang^3
#
#
#
# Elastic Constant Matrix: (Units=GPa)
#
#
# Indices 1 2 3 4 5 6 
#
# 1 81.1480 48.1247 56.5378 0.0000 0.0000 0.0000
# 2 48.1247 93.3768 49.1264 0.0000 0.0000 0.0000
# 3 56.5378 49.1264 121.3454 0.0000 0.0000 0.0000
# 4 0.0000 0.0000 0.0000 17.0419 0.0000 0.0000
# 5 0.0000 0.0000 0.0000 0.0000 33.3259 0.0000
# 6 0.0000 0.0000 0.0000 0.0000 0.0000 31.5251
#
#
#
# Elastic Compliance Matrix: (Units=1/GPa)
#
#
# Indices 1 2 3 4 5 6 
#
# 1 0.021673 -0.007442 -0.007085 0.000000 0.000000 0.000000
# 2 -0.007442 0.016163 -0.003076 0.000000 0.000000 0.000000
# 3 -0.007085 -0.003076 0.012787 0.000000 0.000000 0.000000
# 4 0.000000 0.000000 0.000000 0.058679 0.000000 0.000000
# 5 0.000000 0.000000 0.000000 0.000000 0.030007 0.000000
# 6 0.000000 0.000000 0.000000 0.000000 0.000000 0.031721
#
#
# Mechanical properties :
#
#
# Convention : Reuss Voigt Hill
#
# Bulk Modulus (GPa) = 64.86426 67.04979 65.95702
# Shear Modulus (GPa) = 23.65447 25.85064 24.75255
#
# Velocity S-wave (km/s) = 3.60211 3.76561 3.68477
# Velocity P-wave (km/s) = 7.27188 7.46226 7.36768
#
# Compressibility (1/GPa) = 0.01541681
#
# Stress axis : x y z
#
# Youngs Moduli (GPa) = 46.13987 61.86828 78.20222
#
# Poissons Ratio (x) = 0.46045 0.55406
# Poissons Ratio (y) = 0.34340 0.24055
# Poissons Ratio (z) = 0.32690 0.19031
#
# Static dielectric constant tensor:
#      x y z
#    x 3.371340 0.000000 0.000000 
#    y 0.000000 3.370300 0.000000 
#    z 0.000000 0.000000 3.274340 
# 
# 
# High freq. dielectric constant tensor:
#      x y z
#    x 1.711360 0.000000 0.000000 
#    y 0.000000 1.706340 0.000000 
#    z 0.000000 0.000000 1.698860 
# 
# From -- ./inp_files/65085.got.cif
#   From: 2010.03.12/outbox.cif.g09.slc.cpg/sg74_33_cif.got.tgz:65085.got - 2010.04.16 15:46:19.
