data_PCOD8300220
_publ_section_title
;
Structure prediction by ZEFSAII (Michael W. Deem and Ramdas Pophale) SiO2 
 PCOD8300220
Probable space group: I M M A
;
_chemical_formula_sum "Si O2"
_cell_formula_units_Z 112
_cell_length_a 24.359577
_cell_length_b 14.603796
_cell_length_c 14.390154
_cell_angle_alpha 90.000000
_cell_angle_beta 90.000000
_cell_angle_gamma 90.000000
_cell_volume 5119.186383
_symmetry_space_group_name_H-M "I M M A"
_symmetry_group_IT_number 74
_symmetry_cell_setting 'orthorhombic'
loop_
_space_group_symop_operation_xyz
x,y,z
-x,1/2-y,z
x,-y,-z
-x,1/2+y,-z
-x,-y,-z
x,1/2+y,-z
-x,y,z
x,1/2-y,z
1/2+x,1/2+y,1/2+z
1/2-x,-y,1/2+z
1/2+x,1/2-y,1/2-z
1/2-x,y,1/2-z
1/2-x,1/2-y,1/2-z
1/2+x,y,1/2-z
1/2-x,1/2+y,1/2+z
1/2+x,-y,1/2+z
loop_
_atom_site_type_symbol
_atom_site_label
_atom_site_fract_x
_atom_site_fract_y
_atom_site_fract_z
Si Si1 0.274301 0.107861 0.998758
Si Si2 0.629629 0.511804 0.709025
Si Si3 0.940478 0.581876 0.069504
Si Si4 0.560842 0.858307 0.054087
Si Si5 0.344761 0.150460 0.449108
Si Si6 0.373321 0.354605 0.121812
Si Si7 0.659027 0.852776 0.180183
O O1 0.213630 0.148226 0.000969
O O2 0.310198 0.141776 0.086902
O O3 0.298471 0.147187 0.903612
O O4 0.273906 0.000000 0.000000
O O5 0.576252 0.458529 0.670312
O O6 0.656358 0.567930 0.624385
O O7 0.614892 0.583327 0.789110
O O8 0.672154 0.432164 0.744112
O O9 0.000000 0.632944 0.080200
O O10 0.949718 0.500000 0.000000
O O11 0.892404 0.644923 0.027197
O O12 0.500000 0.900031 0.067654
O O13 0.558688 0.750000 0.043112
O O14 0.587965 0.896500 0.959221
O O15 0.598694 0.882300 0.142206
O O16 0.351870 0.250000 0.400223
O O17 0.388224 0.250000 0.147420
O O18 0.658609 0.750000 0.223871
#
# Coordination Sequence:
#
# PCOD8300220 Si02
#       7
#    16  16  16  16  16  16  16
#     4  11  20  40  65  89 128 173 212 254 312 385
#     4  11  22  39  60  96 127 156 205 266 323 377
#     4   9  21  43  65  86 120 165 215 266 321 381
#     4   8  16  32  54  83 122 168 212 248 294 368
#     4  11  24  43  67  92 120 162 215 266 324 390
#     4  10  20  35  58  90 131 173 210 258 318 377
#     4  10  21  38  61  90 127 169 209 254 312 377
#
# _framework density 21.878475000000002
#
# number of rings (size 3 to 8) (size 9 to 14) (size 15 to 20)
#    0.000    2.000    1.429    3.857    0.000    2.571 
#    2.571    2.143    0.000    5.143    0.000    0.000 
#    0.000    0.000    0.000    0.000    0.000    0.000 
#
# Total GULP energy -694066.036491 kJ/mol
# GULP energy per Si atom -12394.036366 kJ/mol
# Density = 2.182868 g / cm^3
# Si number density = 21.878475 Si / 1000 Ang^3
#
#
#
# Elastic Constant Matrix: (Units=GPa)
#
#
# Indices 1 2 3 4 5 6 
#
# 1 149.2209 22.4374 38.6588 0.0000 0.0000 0.0000
# 2 22.4374 128.5750 47.1073 0.0000 0.0000 0.0000
# 3 38.6588 47.1073 99.2970 0.0000 0.0000 0.0000
# 4 0.0000 0.0000 0.0000 31.2117 0.0000 0.0000
# 5 0.0000 0.0000 0.0000 0.0000 68.5946 0.0000
# 6 0.0000 0.0000 0.0000 0.0000 0.0000 24.8656
#
#
#
# Elastic Compliance Matrix: (Units=1/GPa)
#
#
# Indices 1 2 3 4 5 6 
#
# 1 0.007462 -0.000288 -0.002769 0.000000 0.000000 0.000000
# 2 -0.000288 0.009425 -0.004359 0.000000 0.000000 0.000000
# 3 -0.002769 -0.004359 0.013217 0.000000 0.000000 0.000000
# 4 0.000000 0.000000 0.000000 0.032039 0.000000 0.000000
# 5 0.000000 0.000000 0.000000 0.000000 0.014578 0.000000
# 6 0.000000 0.000000 0.000000 0.000000 0.000000 0.040216
#
#
# Mechanical properties :
#
#
# Convention : Reuss Voigt Hill
#
# Bulk Modulus (GPa) = 65.47758 65.94443 65.71101
# Shear Modulus (GPa) = 36.53381 42.86034 39.69708
#
# Velocity S-wave (km/s) = 4.09082 4.43088 4.26424
# Velocity P-wave (km/s) = 7.23228 7.50890 7.37189
#
# Compressibility (1/GPa) = 0.01527240
#
# Stress axis : x y z
#
# Youngs Moduli (GPa) = 134.01199 106.10181 75.66174
#
# Poissons Ratio (x) = 0.03054 0.20948
# Poissons Ratio (y) = 0.03857 0.32982
# Poissons Ratio (z) = 0.37103 0.46252
#
# Static dielectric constant tensor:
#      x y z
#    x 4.282660 0.000000 0.000000 
#    y 0.000000 3.996380 0.000000 
#    z 0.000000 0.000000 3.853760 
# 
# 
# High freq. dielectric constant tensor:
#      x y z
#    x 1.850530 0.000000 0.000000 
#    y 0.000000 1.868740 0.000000 
#    z 0.000000 0.000000 1.845770 
# 
# From -- ./inp_files/36555.got.cif
#   From: 2010.03.12/outbox.cif.g09.slc.cpg/sg74_19_cif.got.tgz:36555.got - 2010.04.16 15:46:19.
