data_PCOD8300850
_publ_section_title
;
Structure prediction by ZEFSAII (Michael W. Deem and Ramdas Pophale) SiO2 
 PCOD8300850
Probable space group: I M M A
;
_chemical_formula_sum "Si O2"
_cell_formula_units_Z 64
_cell_length_a 7.498112
_cell_length_b 14.350667
_cell_length_c 31.903669
_cell_angle_alpha 90.000000
_cell_angle_beta 90.000000
_cell_angle_gamma 90.000000
_cell_volume 3432.927574
_symmetry_space_group_name_H-M "I M M A"
_symmetry_group_IT_number 74
_symmetry_cell_setting 'orthorhombic'
loop_
_space_group_symop_operation_xyz
x,y,z
-x,1/2-y,z
x,-y,-z
-x,1/2+y,-z
-x,-y,-z
x,1/2+y,-z
-x,y,z
x,1/2-y,z
1/2+x,1/2+y,1/2+z
1/2-x,-y,1/2+z
1/2+x,1/2-y,1/2-z
1/2-x,y,1/2-z
1/2-x,1/2-y,1/2-z
1/2+x,y,1/2-z
1/2-x,1/2+y,1/2+z
1/2+x,-y,1/2+z
loop_
_atom_site_type_symbol
_atom_site_label
_atom_site_fract_x
_atom_site_fract_y
_atom_site_fract_z
Si Si1 0.292322 0.146288 0.295805
Si Si2 0.500000 0.351676 0.075927
Si Si3 0.796421 0.853888 0.081835
Si Si4 0.500000 0.604725 0.015247
Si Si5 0.292257 0.040687 0.376557
O O1 0.500000 0.156091 0.302068
O O2 0.204989 0.250000 0.300326
O O3 0.250000 0.104322 0.250000
O O4 0.219850 0.075174 0.331155
O O5 0.500000 0.250000 0.097746
O O6 0.678570 0.407134 0.088145
O O7 0.500000 0.333328 0.026295
O O8 0.757959 0.750000 0.099865
O O9 0.675509 0.873119 0.041765
O O10 0.000000 0.862680 0.066361
O O11 0.758939 0.929532 0.118633
O O12 0.500000 0.500000 0.000000
O O13 0.500000 0.065809 0.383218
#
# Coordination Sequence:
#
# PCOD8300850 Si02
#       5
#    16   8  16   8  16
#     4   9  18  32  51  76 106 141 176 216 271 334
#     4  12  24  35  54  81 110 148 184 225 278 326
#     4  10  21  38  60  81 106 146 191 230 276 326
#     4  12  22  39  57  80 113 147 186 231 277 330
#     4  10  21  37  55  79 110 142 183 230 272 322
#
# _framework density 18.642980999999999
#
# number of rings (size 3 to 8) (size 9 to 14) (size 15 to 20)
#    0.000    1.750    2.500    1.875    1.750    3.000 
#    0.000    0.000    0.000    0.750    0.000    0.000 
#    0.000    0.000    0.000    0.000    0.000    0.000 
#
# Total GULP energy -396639.384426 kJ/mol
# GULP energy per Si atom -12394.980763 kJ/mol
# Density = 1.860055 g / cm^3
# Si number density = 18.642981 Si / 1000 Ang^3
#
#
#
# Elastic Constant Matrix: (Units=GPa)
#
#
# Indices 1 2 3 4 5 6 
#
# 1 74.1078 44.0935 37.8189 0.0000 0.0000 0.0000
# 2 44.0935 161.6032 68.4755 0.0000 0.0000 0.0000
# 3 37.8189 68.4755 140.8966 0.0000 0.0000 0.0000
# 4 0.0000 0.0000 0.0000 -31.0550 0.0000 0.0000
# 5 0.0000 0.0000 0.0000 0.0000 24.4218 0.0000
# 6 0.0000 0.0000 0.0000 0.0000 0.0000 19.0206
#
#
#
# Elastic Compliance Matrix: (Units=1/GPa)
#
#
# Indices 1 2 3 4 5 6 
#
# 1 0.017006 -0.003408 -0.002909 0.000000 0.000000 0.000000
# 2 -0.003408 0.008476 -0.003204 0.000000 0.000000 0.000000
# 3 -0.002909 -0.003204 0.009435 0.000000 0.000000 0.000000
# 4 0.000000 0.000000 0.000000 -0.032201 0.000000 0.000000
# 5 0.000000 0.000000 0.000000 0.000000 0.040947 0.000000
# 6 0.000000 0.000000 0.000000 0.000000 0.000000 0.052575
#
#
# Mechanical properties :
#
#
# Convention : Reuss Voigt Hill
#
# Bulk Modulus (GPa) = 62.98994 75.26482 69.12738
# Shear Modulus (GPa) = 41.46959 17.55879 29.51419
#
# Velocity S-wave (km/s) = 4.72148 3.07228 3.98317
# Velocity P-wave (km/s) = 7.97396 7.28317 7.63638
#
# Compressibility (1/GPa) = 0.01587555
#
# Stress axis : x y z
#
# Youngs Moduli (GPa) = 58.80407 117.98613 105.98320
#
# Poissons Ratio (x) = 0.40205 0.30825
# Poissons Ratio (y) = 0.20038 0.33962
# Poissons Ratio (z) = 0.17103 0.37808
#
# Static dielectric constant tensor:
#      x y z
#    x 3.521950 0.000000 0.000000 
#    y 0.000000 3.813690 0.000000 
#    z 0.000000 0.000000 3.564980 
# 
# 
# High freq. dielectric constant tensor:
#      x y z
#    x 1.733590 0.000000 0.000000 
#    y 0.000000 1.726340 0.000000 
#    z 0.000000 0.000000 1.704060 
# 
# From -- ./inp_files/63501.got.cif
#   From: 2010.03.12/outbox.cif.g09.slc.cpg/sg74_32_cif.got.tgz:63501.got - 2010.04.16 15:46:19.
