data_PCOD8300308
_publ_section_title
;
Structure prediction by ZEFSAII (Michael W. Deem and Ramdas Pophale) SiO2 
 PCOD8300308
Probable space group: I M M A
;
_chemical_formula_sum "Si O2"
_cell_formula_units_Z 104
_cell_length_a 9.132170
_cell_length_b 28.203508
_cell_length_c 19.864610
_cell_angle_alpha 90.000000
_cell_angle_beta 90.000000
_cell_angle_gamma 90.000000
_cell_volume 5116.313649
_symmetry_space_group_name_H-M "I M M A"
_symmetry_group_IT_number 74
_symmetry_cell_setting 'orthorhombic'
loop_
_space_group_symop_operation_xyz
x,y,z
-x,1/2-y,z
x,-y,-z
-x,1/2+y,-z
-x,-y,-z
x,1/2+y,-z
-x,y,z
x,1/2-y,z
1/2+x,1/2+y,1/2+z
1/2-x,-y,1/2+z
1/2+x,1/2-y,1/2-z
1/2-x,y,1/2-z
1/2-x,1/2-y,1/2-z
1/2+x,y,1/2-z
1/2-x,1/2+y,1/2+z
1/2+x,-y,1/2+z
loop_
_atom_site_type_symbol
_atom_site_label
_atom_site_fract_x
_atom_site_fract_y
_atom_site_fract_z
Si Si1 0.826505 0.361114 0.819854
Si Si2 0.669826 0.148288 0.320807
Si Si3 0.659834 0.034913 0.440731
Si Si4 0.829493 0.121656 0.447471
Si Si5 0.836313 0.250000 0.183039
Si Si6 0.328429 0.694496 0.062253
Si Si7 0.327816 0.969786 0.318885
O O1 0.750000 0.346833 0.750000
O O2 0.764688 0.325743 0.876221
O O3 0.786846 0.415469 0.838624
O O4 0.000000 0.353376 0.813425
O O5 0.500000 0.136217 0.310124
O O6 0.750000 0.142280 0.250000
O O7 0.744050 0.116132 0.376369
O O8 0.695687 0.200813 0.354908
O O9 0.500000 0.058063 0.421964
O O10 0.775708 0.071314 0.475584
O O11 0.625975 0.000000 0.500000
O O12 0.724991 0.006045 0.376651
O O13 0.782822 0.165321 0.495158
O O14 0.000000 0.123611 0.432946
O O15 0.750000 0.250000 0.250000
O O16 0.000000 0.250000 0.209524
O O17 0.500000 0.686940 0.077508
O O18 0.291769 0.750000 0.050778
O O19 0.500000 0.973673 0.307326
O O20 0.250000 0.985065 0.250000
#
# Coordination Sequence:
#
# PCOD8300308 Si02
#       7
#    16  16  16  16   8  16  16
#     4  10  20  37  63  93 122 153 191 235 287 350
#     4  10  20  36  57  82 112 147 190 238 287 341
#     4  10  21  39  61  83 112 151 193 239 290 346
#     4  11  24  39  58  85 116 154 196 244 299 349
#     4   8  16  30  50  76 102 134 177 224 271 322
#     4  10  23  42  60  82 116 157 200 246 294 345
#     4   9  19  35  58  88 119 151 186 230 286 345
#
# _framework density 20.327134999999998
#
# number of rings (size 3 to 8) (size 9 to 14) (size 15 to 20)
#    0.000    2.154    0.000    2.308    1.077    5.846 
#    0.000    1.538    0.000    0.000    0.000    0.000 
#    0.000    0.000    0.000    0.000    0.000    0.000 
#
# Total GULP energy -644296.574430 kJ/mol
# GULP energy per Si atom -12390.318739 kJ/mol
# Density = 2.028087 g / cm^3
# Si number density = 20.327135 Si / 1000 Ang^3
#
#
#
# Elastic Constant Matrix: (Units=GPa)
#
#
# Indices 1 2 3 4 5 6 
#
# 1 88.1395 46.2992 59.2279 -0.0001 0.0000 0.0000
# 2 46.2992 106.5616 53.6970 -0.0001 0.0000 0.0000
# 3 59.2279 53.6970 120.0578 -0.0005 -0.0001 0.0000
# 4 -0.0001 -0.0001 -0.0005 36.2892 0.0000 0.0000
# 5 0.0000 0.0000 -0.0001 0.0000 32.1222 0.0000
# 6 0.0000 0.0000 0.0000 0.0000 0.0000 32.9827
#
#
#
# Elastic Compliance Matrix: (Units=1/GPa)
#
#
# Indices 1 2 3 4 5 6 
#
# 1 0.018461 -0.004430 -0.007126 0.000000 0.000000 0.000000
# 2 -0.004430 0.013178 -0.003708 0.000000 0.000000 0.000000
# 3 -0.007126 -0.003708 0.013503 0.000000 0.000000 0.000000
# 4 0.000000 0.000000 0.000000 0.027556 0.000000 0.000000
# 5 0.000000 0.000000 0.000000 0.000000 0.031131 0.000000
# 6 0.000000 0.000000 0.000000 0.000000 0.000000 0.030319
#
#
# Mechanical properties :
#
#
# Convention : Reuss Voigt Hill
#
# Bulk Modulus (GPa) = 68.43092 70.35632 69.39362
# Shear Modulus (GPa) = 29.48993 30.64780 30.06886
#
# Velocity S-wave (km/s) = 3.81303 3.88716 3.85027
# Velocity P-wave (km/s) = 7.28858 7.40499 7.34702
#
# Compressibility (1/GPa) = 0.01461328
#
# Stress axis : x y z
#
# Youngs Moduli (GPa) = 54.16697 75.88539 74.05559
#
# Poissons Ratio (x) = 0.33620 0.52772
# Poissons Ratio (y) = 0.23998 0.27462
# Poissons Ratio (z) = 0.38600 0.28140
#
# Static dielectric constant tensor:
#      x y z
#    x 3.654130 0.000000 0.000000 
#    y 0.000000 4.130240 0.000000 
#    z 0.000000 0.000000 3.792190 
# 
# 
# High freq. dielectric constant tensor:
#      x y z
#    x 1.794520 0.000000 0.000000 
#    y 0.000000 1.802190 0.000000 
#    z 0.000000 0.000000 1.789260 
# 
# From -- ./inp_files/49346.got.cif
#   From: 2010.03.12/outbox.cif.g09.slc.cpg/sg74_25_cif.got.tgz:49346.got - 2010.04.16 15:46:19.
