data_PCOD8300441
_publ_section_title
;
Structure prediction by ZEFSAII (Michael W. Deem and Ramdas Pophale) SiO2 
 PCOD8300441
Probable space group: I M M A
;
_chemical_formula_sum "Si O2"
_cell_formula_units_Z 104
_cell_length_a 31.615827
_cell_length_b 8.993310
_cell_length_c 20.315896
_cell_angle_alpha 90.000000
_cell_angle_beta 90.000000
_cell_angle_gamma 90.000000
_cell_volume 5776.437667
_symmetry_space_group_name_H-M "I M M A"
_symmetry_group_IT_number 74
_symmetry_cell_setting 'orthorhombic'
loop_
_space_group_symop_operation_xyz
x,y,z
-x,1/2-y,z
x,-y,-z
-x,1/2+y,-z
-x,-y,-z
x,1/2+y,-z
-x,y,z
x,1/2-y,z
1/2+x,1/2+y,1/2+z
1/2-x,-y,1/2+z
1/2+x,1/2-y,1/2-z
1/2-x,y,1/2-z
1/2-x,1/2-y,1/2-z
1/2+x,y,1/2-z
1/2-x,1/2+y,1/2+z
1/2+x,-y,1/2+z
loop_
_atom_site_type_symbol
_atom_site_label
_atom_site_fract_x
_atom_site_fract_y
_atom_site_fract_z
Si Si1 0.283553 0.077131 0.067130
Si Si2 0.133172 0.073489 0.817221
Si Si3 0.500000 0.920095 0.067670
Si Si4 0.343144 0.579322 0.816894
Si Si5 0.063384 0.086501 0.349935
Si Si6 0.685155 0.424638 0.432561
Si Si7 0.547157 0.579983 0.698392
O O1 0.293246 0.250000 0.058346
O O2 0.307639 0.017978 0.132598
O O3 0.234497 0.043613 0.078883
O O4 0.299724 0.000000 0.000000
O O5 0.135509 0.250000 0.820213
O O6 0.153558 0.019721 0.748507
O O7 0.160643 0.002255 0.874119
O O8 0.084417 0.024167 0.829347
O O9 0.500000 0.750000 0.052538
O O10 0.457753 0.960421 0.106801
O O11 0.500000 0.000000 0.000000
O O12 0.333956 0.750000 0.795302
O O13 0.386644 0.568418 0.856645
O O14 0.049598 0.250000 0.375101
O O15 0.047407 0.065593 0.276312
O O16 0.669777 0.500000 0.500000
O O17 0.675055 0.250000 0.434740
O O18 0.500000 0.531825 0.673195
O O19 0.556623 0.750000 0.677214
#
# Coordination Sequence:
#
# PCOD8300441 Si02
#       7
#    16  16   8  16  16  16  16
#     4   9  19  35  56  79 104 140 184 226 273 326
#     4  11  22  34  52  83 115 143 180 223 266 314
#     4  12  24  34  46  64  92 130 175 220 263 312
#     4   9  19  36  55  77 107 142 178 221 272 324
#     4   9  17  33  52  70  96 129 167 212 263 313
#     4  10  20  37  59  81 108 142 179 220 268 326
#     4   9  17  33  57  79 103 137 171 209 261 318
#
# _framework density 18.004176000000001
#
# number of rings (size 3 to 8) (size 9 to 14) (size 15 to 20)
#    0.000    2.308    0.769    3.462    0.000    5.231 
#    0.000    4.615    0.000    0.462    0.000    0.000 
#    0.000    0.000    0.000    0.000    0.000    0.000 
#
# Total GULP energy -644660.697387 kJ/mol
# GULP energy per Si atom -12397.321104 kJ/mol
# Density = 1.796320 g / cm^3
# Si number density = 18.004176 Si / 1000 Ang^3
#
#
#
# Elastic Constant Matrix: (Units=GPa)
#
#
# Indices 1 2 3 4 5 6 
#
# 1 94.7501 51.1804 62.0571 0.0000 0.0000 0.0000
# 2 51.1804 116.8022 57.3039 0.0000 0.0000 0.0000
# 3 62.0571 57.3039 97.0257 0.0000 0.0000 0.0000
# 4 0.0000 0.0000 0.0000 33.1685 0.0000 0.0000
# 5 0.0000 0.0000 0.0000 0.0000 62.3560 0.0000
# 6 0.0000 0.0000 0.0000 0.0000 0.0000 24.7256
#
#
#
# Elastic Compliance Matrix: (Units=1/GPa)
#
#
# Indices 1 2 3 4 5 6 
#
# 1 0.019043 -0.003335 -0.010210 0.000000 0.000000 0.000000
# 2 -0.003335 0.012638 -0.005331 0.000000 0.000000 0.000000
# 3 -0.010210 -0.005331 0.019985 0.000000 0.000000 0.000000
# 4 0.000000 0.000000 0.000000 0.030149 0.000000 0.000000
# 5 0.000000 0.000000 0.000000 0.000000 0.016037 0.000000
# 6 0.000000 0.000000 0.000000 0.000000 0.000000 0.040444
#
#
# Mechanical properties :
#
#
# Convention : Reuss Voigt Hill
#
# Bulk Modulus (GPa) = 71.86959 72.18454 72.02707
# Shear Modulus (GPa) = 27.67229 33.25247 30.46238
#
# Velocity S-wave (km/s) = 3.92470 4.30226 4.11781
# Velocity P-wave (km/s) = 7.78092 8.05354 7.91840
#
# Compressibility (1/GPa) = 0.01391409
#
# Stress axis : x y z
#
# Youngs Moduli (GPa) = 52.51407 79.12423 50.03678
#
# Poissons Ratio (x) = 0.26388 0.51086
# Poissons Ratio (y) = 0.17514 0.26676
# Poissons Ratio (z) = 0.53616 0.42183
#
# Static dielectric constant tensor:
#      x y z
#    x 3.731990 0.000000 0.000000 
#    y 0.000000 3.433240 0.000000 
#    z 0.000000 0.000000 3.516230 
# 
# 
# High freq. dielectric constant tensor:
#      x y z
#    x 1.703280 0.000000 0.000000 
#    y 0.000000 1.694010 0.000000 
#    z 0.000000 0.000000 1.680100 
# 
# From -- ./inp_files/55629.got.cif
#   From: 2010.03.12/outbox.cif.g09.slc.cpg/sg74_28_cif.got.tgz:55629.got - 2010.04.16 15:46:19.
