data_PCOD8300552
_publ_section_title
;
Structure prediction by ZEFSAII (Michael W. Deem and Ramdas Pophale) SiO2 
 PCOD8300552
Probable space group: I M M A
;
_chemical_formula_sum "Si O2"
_cell_formula_units_Z 88
_cell_length_a 21.724672
_cell_length_b 19.872791
_cell_length_c 9.943922
_cell_angle_alpha 90.000000
_cell_angle_beta 90.000000
_cell_angle_gamma 90.000000
_cell_volume 4293.088115
_symmetry_space_group_name_H-M "I M M A"
_symmetry_group_IT_number 74
_symmetry_cell_setting 'orthorhombic'
loop_
_space_group_symop_operation_xyz
x,y,z
-x,1/2-y,z
x,-y,-z
-x,1/2+y,-z
-x,-y,-z
x,1/2+y,-z
-x,y,z
x,1/2-y,z
1/2+x,1/2+y,1/2+z
1/2-x,-y,1/2+z
1/2+x,1/2-y,1/2-z
1/2-x,y,1/2-z
1/2-x,1/2-y,1/2-z
1/2+x,y,1/2-z
1/2-x,1/2+y,1/2+z
1/2+x,-y,1/2+z
loop_
_atom_site_type_symbol
_atom_site_label
_atom_site_fract_x
_atom_site_fract_y
_atom_site_fract_z
Si Si1 0.627913 0.446431 0.618156
Si Si2 0.101721 0.671425 0.639574
Si Si3 0.500000 0.929590 0.912938
Si Si4 0.272531 0.325315 0.003199
Si Si5 0.138788 0.174515 0.067605
Si Si6 0.000000 0.009573 0.839281
Si Si7 0.250000 0.584452 0.250000
O O1 0.632491 0.500000 0.500000
O O2 0.621825 0.372157 0.557374
O O3 0.564050 0.453573 0.701691
O O4 0.688832 0.458229 0.709991
O O5 0.083559 0.750000 0.612534
O O6 0.058323 0.619122 0.559374
O O7 0.170228 0.654712 0.593969
O O8 0.100308 0.656079 0.799248
O O9 0.500000 0.943413 0.752835
O O10 0.500000 0.000000 0.000000
O O11 0.279490 0.250000 0.947661
O O12 0.270810 0.372076 0.874837
O O13 0.211886 0.332744 0.095707
O O14 0.122509 0.250000 0.021984
O O15 0.000000 0.000000 0.000000
#
# Coordination Sequence:
#
# PCOD8300552 Si02
#       7
#    16  16   8  16  16   8   8
#     4  10  21  40  59  87 118 164 201 253 304 361
#     4  10  20  38  62  88 117 153 200 250 296 354
#     4  12  27  41  60  87 120 167 205 247 303 369
#     4   9  18  34  59  88 120 153 186 242 306 363
#     4   9  18  36  63  94 119 147 197 250 305 356
#     4  10  22  43  65  79 119 161 211 249 314 361
#     4  10  21  36  56  86 121 152 208 238 306 360
#
# _framework density 20.498066000000001
#
# number of rings (size 3 to 8) (size 9 to 14) (size 15 to 20)
#    0.000    2.182    0.000    3.273    2.545    2.909 
#   13.091    1.364    0.000    0.000    0.000    0.000 
#    0.000    0.000    0.000    0.000    0.000    0.000 
#
# Total GULP energy -545145.171646 kJ/mol
# GULP energy per Si atom -12389.662992 kJ/mol
# Density = 2.045141 g / cm^3
# Si number density = 20.498066 Si / 1000 Ang^3
#
#
#
# Elastic Constant Matrix: (Units=GPa)
#
#
# Indices 1 2 3 4 5 6 
#
# 1 153.7422 55.8238 19.5915 0.0000 0.0000 0.0000
# 2 55.8238 91.2399 24.9967 0.0000 0.0000 0.0000
# 3 19.5915 24.9967 50.4684 0.0000 0.0000 0.0000
# 4 0.0000 0.0000 0.0000 31.3005 0.0000 0.0000
# 5 0.0000 0.0000 0.0000 0.0000 27.3966 0.0000
# 6 0.0000 0.0000 0.0000 0.0000 0.0000 33.4571
#
#
#
# Elastic Compliance Matrix: (Units=1/GPa)
#
#
# Indices 1 2 3 4 5 6 
#
# 1 0.008392 -0.004908 -0.000827 0.000000 0.000000 0.000000
# 2 -0.004908 0.015551 -0.005797 0.000000 0.000000 0.000000
# 3 -0.000827 -0.005797 0.023007 0.000000 0.000000 0.000000
# 4 0.000000 0.000000 0.000000 0.031948 0.000000 0.000000
# 5 0.000000 0.000000 0.000000 0.000000 0.036501 0.000000
# 6 0.000000 0.000000 0.000000 0.000000 0.000000 0.029889
#
#
# Mechanical properties :
#
#
# Convention : Reuss Voigt Hill
#
# Bulk Modulus (GPa) = 41.86575 55.14161 48.50368
# Shear Modulus (GPa) = 28.35856 31.43341 29.89598
#
# Velocity S-wave (km/s) = 3.72354 3.92022 3.82315
# Velocity P-wave (km/s) = 6.24139 6.88840 6.57286
#
# Compressibility (1/GPa) = 0.02388587
#
# Stress axis : x y z
#
# Youngs Moduli (GPa) = 119.16383 64.30378 43.46569
#
# Poissons Ratio (x) = 0.31560 0.03594
# Poissons Ratio (y) = 0.58484 0.25198
# Poissons Ratio (z) = 0.09852 0.37278
#
# Static dielectric constant tensor:
#      x y z
#    x 4.194900 0.000000 0.000000 
#    y 0.000000 3.767880 0.000000 
#    z 0.000000 0.000000 3.684560 
# 
# 
# High freq. dielectric constant tensor:
#      x y z
#    x 1.814670 0.000000 0.000000 
#    y 0.000000 1.797260 0.000000 
#    z 0.000000 0.000000 1.779350 
# 
# From -- ./inp_files/13783.got.cif
#   From: 2010.03.12/outbox.cif.g09.slc.cpg/sg74_7_cif.got.tgz:13783.got - 2010.04.16 15:46:19.
