data_PCOD8300738
_publ_section_title
;
Structure prediction by ZEFSAII (Michael W. Deem and Ramdas Pophale) SiO2 
 PCOD8300738
Probable space group: I M M A
;
_chemical_formula_sum "Si O2"
_cell_formula_units_Z 96
_cell_length_a 9.681747
_cell_length_b 16.607534
_cell_length_c 30.232685
_cell_angle_alpha 90.000000
_cell_angle_beta 90.000000
_cell_angle_gamma 90.000000
_cell_volume 4861.111682
_symmetry_space_group_name_H-M "I M M A"
_symmetry_group_IT_number 74
_symmetry_cell_setting 'orthorhombic'
loop_
_space_group_symop_operation_xyz
x,y,z
-x,1/2-y,z
x,-y,-z
-x,1/2+y,-z
-x,-y,-z
x,1/2+y,-z
-x,y,z
x,1/2-y,z
1/2+x,1/2+y,1/2+z
1/2-x,-y,1/2+z
1/2+x,1/2-y,1/2-z
1/2-x,y,1/2-z
1/2-x,1/2-y,1/2-z
1/2+x,y,1/2-z
1/2-x,1/2+y,1/2+z
1/2+x,-y,1/2+z
loop_
_atom_site_type_symbol
_atom_site_label
_atom_site_fract_x
_atom_site_fract_y
_atom_site_fract_z
Si Si1 0.154265 0.845145 0.381166
Si Si2 0.847573 0.842879 0.043701
Si Si3 0.156137 0.410928 0.710900
Si Si4 0.837607 0.659806 0.614655
Si Si5 0.841362 0.601094 0.708935
Si Si6 0.160390 0.415167 0.476179
O O1 0.147576 0.750000 0.386076
O O2 0.258091 0.883728 0.417005
O O3 0.211337 0.869571 0.333506
O O4 0.000000 0.881764 0.388763
O O5 0.868119 0.750000 0.054395
O O6 0.000000 0.883671 0.040361
O O7 0.760678 0.850814 0.998886
O O8 0.250000 0.376810 0.750000
O O9 0.169215 0.505771 0.706087
O O10 0.000000 0.384021 0.720685
O O11 0.783515 0.750000 0.602455
O O12 0.777820 0.633941 0.662608
O O13 0.801716 0.594112 0.576081
O O14 0.000000 0.661579 0.620367
O O15 0.750000 0.634041 0.750000
O O16 0.000000 0.628715 0.716347
O O17 0.194454 0.500000 0.500000
O O18 0.000000 0.392312 0.483924
#
# Coordination Sequence:
#
# PCOD8300738 Si02
#       6
#    16  16  16  16  16  16
#     4   9  18  32  51  74  99 134 180 223 263 313
#     4  10  21  36  53  75 107 144 177 216 269 322
#     4   9  18  31  49  71 100 134 171 217 268 319
#     4   9  18  33  54  80 108 138 174 219 267 315
#     4   9  18  33  53  76 104 137 173 215 263 316
#     4  10  21  35  57  84 107 138 182 226 269 320
#
# _framework density 19.748570000000001
#
# number of rings (size 3 to 8) (size 9 to 14) (size 15 to 20)
#    0.000    2.667    0.000    1.000    2.333    3.333 
#    0.000    0.833    0.000    1.000    0.000    0.000 
#    0.000    0.000    0.000    0.000    0.000    0.000 
#
# Total GULP energy -594865.042717 kJ/mol
# GULP energy per Si atom -12393.021723 kJ/mol
# Density = 1.970362 g / cm^3
# Si number density = 19.748570 Si / 1000 Ang^3
#
#
#
# Elastic Constant Matrix: (Units=GPa)
#
#
# Indices 1 2 3 4 5 6 
#
# 1 90.0652 16.0780 73.6900 0.0000 0.0000 0.0000
# 2 16.0780 26.5469 31.8844 0.0000 0.0000 0.0000
# 3 73.6900 31.8844 184.9693 0.0000 0.0000 0.0000
# 4 0.0000 0.0000 0.0000 32.0842 0.0000 0.0000
# 5 0.0000 0.0000 0.0000 0.0000 29.4200 0.0000
# 6 0.0000 0.0000 0.0000 0.0000 0.0000 14.6111
#
#
#
# Elastic Compliance Matrix: (Units=1/GPa)
#
#
# Indices 1 2 3 4 5 6 
#
# 1 0.016621 -0.002665 -0.006162 0.000000 0.000000 0.000000
# 2 -0.002665 0.047932 -0.007201 0.000000 0.000000 0.000000
# 3 -0.006162 -0.007201 0.009102 0.000000 0.000000 0.000000
# 4 0.000000 0.000000 0.000000 0.031168 0.000000 0.000000
# 5 0.000000 0.000000 0.000000 0.000000 0.033990 0.000000
# 6 0.000000 0.000000 0.000000 0.000000 0.000000 0.068441
#
#
# Mechanical properties :
#
#
# Convention : Reuss Voigt Hill
#
# Bulk Modulus (GPa) = 24.03896 60.54291 42.29094
# Shear Modulus (GPa) = 19.74912 27.21833 23.48372
#
# Velocity S-wave (km/s) = 3.16575 3.71650 3.45213
# Velocity P-wave (km/s) = 5.05585 7.00998 6.11152
#
# Compressibility (1/GPa) = 0.04159913
#
# Stress axis : x y z
#
# Youngs Moduli (GPa) = 60.16651 20.86305 109.86089
#
# Poissons Ratio (x) = 0.05560 0.67697
# Poissons Ratio (y) = 0.16035 0.79106
# Poissons Ratio (z) = 0.37075 0.15023
#
# Static dielectric constant tensor:
#      x y z
#    x 3.697120 0.000000 0.000000 
#    y 0.000000 3.382000 0.000000 
#    z 0.000000 0.000000 3.837230 
# 
# 
# High freq. dielectric constant tensor:
#      x y z
#    x 1.744610 0.000000 0.000000 
#    y 0.000000 1.749940 0.000000 
#    z 0.000000 0.000000 1.781950 
# 
# From -- ./inp_files/64352.got.cif
#   From: 2010.03.12/outbox.cif.g09.slc.cpg/sg74_33_cif.got.tgz:64352.got - 2010.04.16 15:46:19.
