data_PCOD8300886
_publ_section_title
;
Structure prediction by ZEFSAII (Michael W. Deem and Ramdas Pophale) SiO2 
 PCOD8300886
Probable space group: I M M A
;
_chemical_formula_sum "Si O2"
_cell_formula_units_Z 96
_cell_length_a 18.460727
_cell_length_b 8.859518
_cell_length_c 29.717090
_cell_angle_alpha 90.000000
_cell_angle_beta 90.000000
_cell_angle_gamma 90.000000
_cell_volume 4860.323475
_symmetry_space_group_name_H-M "I M M A"
_symmetry_group_IT_number 74
_symmetry_cell_setting 'orthorhombic'
loop_
_space_group_symop_operation_xyz
x,y,z
-x,1/2-y,z
x,-y,-z
-x,1/2+y,-z
-x,-y,-z
x,1/2+y,-z
-x,y,z
x,1/2-y,z
1/2+x,1/2+y,1/2+z
1/2-x,-y,1/2+z
1/2+x,1/2-y,1/2-z
1/2-x,y,1/2-z
1/2-x,1/2-y,1/2-z
1/2+x,y,1/2-z
1/2-x,1/2+y,1/2+z
1/2+x,-y,1/2+z
loop_
_atom_site_type_symbol
_atom_site_label
_atom_site_fract_x
_atom_site_fract_y
_atom_site_fract_z
Si Si1 0.415546 0.073292 0.046951
Si Si2 0.081941 0.927253 0.791062
Si Si3 0.084930 0.582077 0.043254
Si Si4 0.337659 0.427526 0.380348
Si Si5 0.180092 0.071509 0.722981
Si Si6 0.687353 0.071224 0.879922
O O1 0.500000 0.039188 0.054874
O O2 0.399096 0.250000 0.044480
O O3 0.373517 0.002450 0.088945
O O4 0.389275 0.000000 0.000000
O O5 0.085807 0.750000 0.783222
O O6 0.135304 0.977693 0.831129
O O7 0.000000 0.978089 0.802076
O O8 0.107462 0.009315 0.745835
O O9 0.118768 0.750000 0.048637
O O10 0.099524 0.477167 0.085959
O O11 0.000000 0.596541 0.036764
O O12 0.120083 0.500000 0.000000
O O13 0.324094 0.250000 0.383125
O O14 0.265995 0.515812 0.395454
O O15 0.180130 0.250000 0.725177
O O16 0.250000 0.006916 0.750000
O O17 0.178175 0.015425 0.671528
O O18 0.681572 0.250000 0.884291
#
# Coordination Sequence:
#
# PCOD8300886 Si02
#       6
#    16  16  16  16  16  16
#     4  10  22  42  67  94 125 160 200 249 307 369
#     4  10  22  38  58  86 118 154 197 244 295 353
#     4  10  21  37  57  81 111 149 192 239 291 345
#     4  11  22  37  58  84 117 154 195 243 295 350
#     4  10  21  39  60  84 118 158 201 248 300 355
#     4  11  23  39  62  90 122 158 201 247 297 359
#
# _framework density 19.751771999999999
#
# number of rings (size 3 to 8) (size 9 to 14) (size 15 to 20)
#    0.000    1.667    1.667    2.500    0.000    6.667 
#    0.000    6.667    0.000    0.000    0.000    0.000 
#    0.000    0.000    0.000    0.000    0.000    0.000 
#
# Total GULP energy -595346.305665 kJ/mol
# GULP energy per Si atom -12403.048035 kJ/mol
# Density = 1.970682 g / cm^3
# Si number density = 19.751772 Si / 1000 Ang^3
#
#
#
# Elastic Constant Matrix: (Units=GPa)
#
#
# Indices 1 2 3 4 5 6 
#
# 1 78.7532 40.6012 48.1411 0.0000 0.0000 0.0000
# 2 40.6012 70.8462 58.0626 0.0000 0.0000 0.0000
# 3 48.1411 58.0626 141.7277 0.0000 0.0000 0.0000
# 4 0.0000 0.0000 0.0000 37.2070 0.0000 0.0000
# 5 0.0000 0.0000 0.0000 0.0000 36.5744 0.0000
# 6 0.0000 0.0000 0.0000 0.0000 0.0000 34.1019
#
#
#
# Elastic Compliance Matrix: (Units=1/GPa)
#
#
# Indices 1 2 3 4 5 6 
#
# 1 0.018819 -0.008349 -0.002972 0.000000 0.000000 0.000000
# 2 -0.008349 0.024954 -0.007387 0.000000 0.000000 0.000000
# 3 -0.002972 -0.007387 0.011092 0.000000 0.000000 0.000000
# 4 0.000000 0.000000 0.000000 0.026877 0.000000 0.000000
# 5 0.000000 0.000000 0.000000 0.000000 0.027342 0.000000
# 6 0.000000 0.000000 0.000000 0.000000 0.000000 0.029324
#
#
# Mechanical properties :
#
#
# Convention : Reuss Voigt Hill
#
# Bulk Modulus (GPa) = 57.31249 64.99300 61.15274
# Shear Modulus (GPa) = 27.52702 31.21145 29.36924
#
# Velocity S-wave (km/s) = 3.73721 3.97947 3.86024
# Velocity P-wave (km/s) = 6.90664 7.35467 7.13417
#
# Compressibility (1/GPa) = 0.01744820
#
# Stress axis : x y z
#
# Youngs Moduli (GPa) = 53.13754 40.07334 90.15890
#
# Poissons Ratio (x) = 0.33459 0.26793
# Poissons Ratio (y) = 0.44367 0.66601
# Poissons Ratio (z) = 0.15791 0.29603
#
# Static dielectric constant tensor:
#      x y z
#    x 3.498450 0.000000 0.000000 
#    y 0.000000 3.622360 0.000000 
#    z 0.000000 0.000000 3.692380 
# 
# 
# High freq. dielectric constant tensor:
#      x y z
#    x 1.763340 0.000000 0.000000 
#    y 0.000000 1.775670 0.000000 
#    z 0.000000 0.000000 1.778260 
# 
# From -- ./inp_files/68139.got.cif
#   From: 2010.03.12/outbox.cif.g09.slc.cpg/sg74_35_cif.got.tgz:68139.got - 2010.04.16 15:46:19.
