data_PCOD8300958
_publ_section_title
;
Structure prediction by ZEFSAII (Michael W. Deem and Ramdas Pophale) SiO2 
 PCOD8300958
Probable space group: I M M A
;
_chemical_formula_sum "Si O2"
_cell_formula_units_Z 72
_cell_length_a 8.490902
_cell_length_b 12.464026
_cell_length_c 28.026410
_cell_angle_alpha 90.000000
_cell_angle_beta 90.000000
_cell_angle_gamma 90.000000
_cell_volume 2966.058044
_symmetry_space_group_name_H-M "I M M A"
_symmetry_group_IT_number 74
_symmetry_cell_setting 'orthorhombic'
loop_
_space_group_symop_operation_xyz
x,y,z
-x,1/2-y,z
x,-y,-z
-x,1/2+y,-z
-x,-y,-z
x,1/2+y,-z
-x,y,z
x,1/2-y,z
1/2+x,1/2+y,1/2+z
1/2-x,-y,1/2+z
1/2+x,1/2-y,1/2-z
1/2-x,y,1/2-z
1/2-x,1/2-y,1/2-z
1/2+x,y,1/2-z
1/2-x,1/2+y,1/2+z
1/2+x,-y,1/2+z
loop_
_atom_site_type_symbol
_atom_site_label
_atom_site_fract_x
_atom_site_fract_y
_atom_site_fract_z
Si Si1 0.178970 0.622066 0.528159
Si Si2 0.250000 0.506253 0.750000
Si Si3 0.822679 0.878880 0.069220
Si Si4 0.826774 0.367096 0.664083
Si Si5 0.500000 0.375110 0.310099
Si Si6 0.000000 0.622642 0.919111
O O1 0.192048 0.750000 0.529631
O O2 0.204721 0.580692 0.473149
O O3 0.330690 0.577450 0.559305
O O4 0.000000 0.589299 0.545101
O O5 0.157769 0.432720 0.712826
O O6 0.350918 0.582163 0.717239
O O7 0.821166 0.750000 0.068898
O O8 0.772803 0.921621 0.121552
O O9 0.000000 0.922309 0.059596
O O10 0.754624 0.250000 0.676443
O O11 0.000000 0.354486 0.642589
O O12 0.500000 0.250000 0.306841
O O13 0.500000 0.412642 0.364466
O O14 0.000000 0.750000 0.927173
#
# Coordination Sequence:
#
# PCOD8300958 Si02
#       6
#    16   8  16  16   8   8
#     4   9  15  27  52  88 130 173 212 260 325 398
#     4  12  24  46  68  92 124 168 220 282 356 402
#     4   9  16  27  50  88 135 180 216 252 308 395
#     4  10  21  37  60  96 137 176 218 264 322 406
#     4  11  26  48  72  94 122 165 227 297 352 399
#     4   9  18  36  59  90 126 162 220 283 337 397
#
# _framework density 24.274643000000001
#
# number of rings (size 3 to 8) (size 9 to 14) (size 15 to 20)
#    0.000    2.222    2.222    1.333    1.556    2.667 
#    2.000    0.000    0.000    2.667    0.000    3.111 
#    0.000    0.000    0.000    0.000    0.444    0.000 
#
# Total GULP energy -446184.498603 kJ/mol
# GULP energy per Si atom -12394.013850 kJ/mol
# Density = 2.421939 g / cm^3
# Si number density = 24.274643 Si / 1000 Ang^3
#
#
#
# Elastic Constant Matrix: (Units=GPa)
#
#
# Indices 1 2 3 4 5 6 
#
# 1 184.8252 47.6083 85.7648 0.0000 0.0000 0.0000
# 2 47.6083 52.5877 53.3033 0.0000 0.0000 0.0000
# 3 85.7648 53.3033 185.2929 0.0000 0.0000 0.0000
# 4 0.0000 0.0000 0.0000 35.1019 0.0000 0.0000
# 5 0.0000 0.0000 0.0000 0.0000 36.4578 0.0000
# 6 0.0000 0.0000 0.0000 0.0000 0.0000 30.6163
#
#
#
# Elastic Compliance Matrix: (Units=1/GPa)
#
#
# Indices 1 2 3 4 5 6 
#
# 1 0.007633 -0.004700 -0.002181 0.000000 0.000000 0.000000
# 2 -0.004700 0.029736 -0.006379 0.000000 0.000000 0.000000
# 3 -0.002181 -0.006379 0.008241 0.000000 0.000000 0.000000
# 4 0.000000 0.000000 0.000000 0.028488 0.000000 0.000000
# 5 0.000000 0.000000 0.000000 0.000000 0.027429 0.000000
# 6 0.000000 0.000000 0.000000 0.000000 0.000000 0.032662
#
#
# Mechanical properties :
#
#
# Convention : Reuss Voigt Hill
#
# Bulk Modulus (GPa) = 52.37946 88.45093 70.41519
# Shear Modulus (GPa) = 29.92686 36.17050 33.04868
#
# Velocity S-wave (km/s) = 3.51500 3.86431 3.69378
# Velocity P-wave (km/s) = 6.17238 7.51180 6.87479
#
# Compressibility (1/GPa) = 0.01909145
#
# Stress axis : x y z
#
# Youngs Moduli (GPa) = 131.00671 33.62898 121.33729
#
# Poissons Ratio (x) = 0.15804 0.26466
# Poissons Ratio (y) = 0.61568 0.77401
# Poissons Ratio (z) = 0.28575 0.21452
#
# Static dielectric constant tensor:
#      x y z
#    x 4.901470 0.000000 0.000000 
#    y 0.000000 4.747430 0.000000 
#    z 0.000000 0.000000 4.319860 
# 
# 
# High freq. dielectric constant tensor:
#      x y z
#    x 1.970210 0.000000 0.000000 
#    y 0.000000 2.009480 0.000000 
#    z 0.000000 0.000000 1.957430 
# 
# From -- ./inp_files/63693.got.cif
#   From: 2010.03.12/outbox.cif.g09.slc.cpg/sg74_32_cif.got.tgz:63693.got - 2010.04.16 15:46:19.
