data_PCOD8300297
_publ_section_title
;
Structure prediction by ZEFSAII (Michael W. Deem and Ramdas Pophale) SiO2 
 PCOD8300297
Probable space group: I M M A
;
_chemical_formula_sum "Si O2"
_cell_formula_units_Z 96
_cell_length_a 8.788292
_cell_length_b 18.409261
_cell_length_c 32.631800
_cell_angle_alpha 90.000000
_cell_angle_beta 90.000000
_cell_angle_gamma 90.000000
_cell_volume 5279.367128
_symmetry_space_group_name_H-M "I M M A"
_symmetry_group_IT_number 74
_symmetry_cell_setting 'orthorhombic'
loop_
_space_group_symop_operation_xyz
x,y,z
-x,1/2-y,z
x,-y,-z
-x,1/2+y,-z
-x,-y,-z
x,1/2+y,-z
-x,y,z
x,1/2-y,z
1/2+x,1/2+y,1/2+z
1/2-x,-y,1/2+z
1/2+x,1/2-y,1/2-z
1/2-x,y,1/2-z
1/2-x,1/2-y,1/2-z
1/2+x,y,1/2-z
1/2-x,1/2+y,1/2+z
1/2+x,-y,1/2+z
loop_
_atom_site_type_symbol
_atom_site_label
_atom_site_fract_x
_atom_site_fract_y
_atom_site_fract_z
Si Si1 0.677873 0.543406 0.868687
Si Si2 0.177453 0.401274 0.585244
Si Si3 0.675581 0.665291 0.002874
Si Si4 0.679599 0.167376 0.831912
Si Si5 0.820125 0.032762 0.792442
Si Si6 0.177169 0.665976 0.918158
O O1 0.500000 0.544948 0.858548
O O2 0.714048 0.485052 0.904565
O O3 0.765650 0.521936 0.827634
O O4 0.733267 0.621661 0.883575
O O5 0.248189 0.378298 0.541502
O O6 0.238857 0.350730 0.622206
O O7 0.000000 0.386189 0.580960
O O8 0.500000 0.644837 0.994589
O O9 0.694068 0.750000 0.012538
O O10 0.770008 0.641590 0.963181
O O11 0.500000 0.151872 0.828794
O O12 0.720568 0.250000 0.820898
O O13 0.764254 0.115130 0.800138
O O14 0.750000 0.004569 0.750000
O O15 0.000000 0.031491 0.789783
O O16 0.217020 0.750000 0.910753
O O17 0.000000 0.649881 0.913722
#
# Coordination Sequence:
#
# PCOD8300297 Si02
#       6
#    16  16  16  16  16  16
#     4  10  20  36  57  79 102 130 168 211 258 310
#     4   8  15  28  48  74 102 135 176 219 257 295
#     4   9  16  28  48  72  99 136 180 218 251 292
#     4   9  17  31  51  75 105 142 183 223 260 298
#     4  11  22  37  56  78 105 135 169 208 255 309
#     4  10  21  36  52  73 103 136 169 208 256 307
#
# _framework density 18.183997000000002
#
# number of rings (size 3 to 8) (size 9 to 14) (size 15 to 20)
#    0.000    2.500    0.000    4.000    0.000    4.333 
#    0.000    7.500    0.000    4.500    0.000    0.000 
#    0.000    0.000    0.000    0.000    0.000    0.000 
#
# Total GULP energy -595206.660328 kJ/mol
# GULP energy per Si atom -12400.138757 kJ/mol
# Density = 1.814261 g / cm^3
# Si number density = 18.183997 Si / 1000 Ang^3
#
#
#
# Elastic Constant Matrix: (Units=GPa)
#
#
# Indices 1 2 3 4 5 6 
#
# 1 83.7771 39.5660 44.7586 0.0000 0.0000 0.0000
# 2 39.5660 71.5151 56.1998 0.0000 0.0000 0.0000
# 3 44.7586 56.1998 111.5561 0.0000 0.0000 0.0000
# 4 0.0000 0.0000 0.0000 15.5966 0.0000 0.0000
# 5 0.0000 0.0000 0.0000 0.0000 27.8121 0.0000
# 6 0.0000 0.0000 0.0000 0.0000 0.0000 24.4551
#
#
#
# Elastic Compliance Matrix: (Units=1/GPa)
#
#
# Indices 1 2 3 4 5 6 
#
# 1 0.016916 -0.006663 -0.003430 0.000000 0.000000 0.000000
# 2 -0.006663 0.025771 -0.010310 0.000000 0.000000 0.000000
# 3 -0.003430 -0.010310 0.015534 0.000000 0.000000 0.000000
# 4 0.000000 0.000000 0.000000 0.064117 0.000000 0.000000
# 5 0.000000 0.000000 0.000000 0.000000 0.035956 0.000000
# 6 0.000000 0.000000 0.000000 0.000000 0.000000 0.040891
#
#
# Mechanical properties :
#
#
# Convention : Reuss Voigt Hill
#
# Bulk Modulus (GPa) = 57.42097 60.87749 59.14923
# Shear Modulus (GPa) = 20.34205 21.99434 21.16819
#
# Velocity S-wave (km/s) = 3.34829 3.48162 3.41561
# Velocity P-wave (km/s) = 6.82601 7.05078 6.93931
#
# Compressibility (1/GPa) = 0.01741524
#
# Stress axis : x y z
#
# Youngs Moduli (GPa) = 59.11581 38.80285 64.37408
#
# Poissons Ratio (x) = 0.25855 0.22082
# Poissons Ratio (y) = 0.39390 0.66368
# Poissons Ratio (z) = 0.20278 0.40005
#
# Static dielectric constant tensor:
#      x y z
#    x 3.189920 0.000000 0.000000 
#    y 0.000000 3.246870 0.000000 
#    z 0.000000 0.000000 3.390080 
# 
# 
# High freq. dielectric constant tensor:
#      x y z
#    x 1.690600 0.000000 0.000000 
#    y 0.000000 1.691990 0.000000 
#    z 0.000000 0.000000 1.703140 
# 
# From -- ./inp_files/64332.got.cif
#   From: 2010.03.12/outbox.cif.g09.slc.cpg/sg74_33_cif.got.tgz:64332.got - 2010.04.16 15:46:19.
