data_PCOD8300005
_publ_section_title
;
Structure prediction by ZEFSAII (Michael W. Deem and Ramdas Pophale) SiO2 
 PCOD8300005
Probable space group: I M M A
;
_chemical_formula_sum "Si O2"
_cell_formula_units_Z 80
_cell_length_a 8.835770
_cell_length_b 14.830347
_cell_length_c 28.241272
_cell_angle_alpha 90.000000
_cell_angle_beta 90.000000
_cell_angle_gamma 90.000000
_cell_volume 3700.666671
_symmetry_space_group_name_H-M "I M M A"
_symmetry_group_IT_number 74
_symmetry_cell_setting 'orthorhombic'
loop_
_space_group_symop_operation_xyz
x,y,z
-x,1/2-y,z
x,-y,-z
-x,1/2+y,-z
-x,-y,-z
x,1/2+y,-z
-x,y,z
x,1/2-y,z
1/2+x,1/2+y,1/2+z
1/2-x,-y,1/2+z
1/2+x,1/2-y,1/2-z
1/2-x,y,1/2-z
1/2-x,1/2-y,1/2-z
1/2+x,y,1/2-z
1/2-x,1/2+y,1/2+z
1/2+x,-y,1/2+z
loop_
_atom_site_type_symbol
_atom_site_label
_atom_site_fract_x
_atom_site_fract_y
_atom_site_fract_z
Si Si1 0.671848 0.403148 0.976522
Si Si2 0.174900 0.144562 0.165325
Si Si3 0.678790 0.473721 0.798058
Si Si4 0.822652 0.854740 0.120094
Si Si5 0.164189 0.650910 0.574616
O O1 0.500000 0.381897 0.960445
O O2 0.780848 0.388854 0.932383
O O3 0.689760 0.500000 0.000000
O O4 0.723323 0.340901 0.020692
O O5 0.211517 0.250000 0.175714
O O6 0.272117 0.079057 0.198683
O O7 0.214427 0.111109 0.111502
O O8 0.000000 0.124325 0.173857
O O9 0.500000 0.468235 0.795222
O O10 0.750000 0.433256 0.750000
O O11 0.734440 0.413704 0.841704
O O12 0.776805 0.750000 0.125627
O O13 0.000000 0.868896 0.127667
O O14 0.133625 0.750000 0.593981
O O15 0.000000 0.597977 0.576228
#
# Coordination Sequence:
#
# PCOD8300005 Si02
#       5
#    16  16  16  16  16
#     4  10  20  34  56  88 124 163 206 251 302 361
#     4  10  21  38  62  94 132 170 208 254 311 377
#     4  12  26  45  69  93 121 159 206 263 323 383
#     4  11  25  44  66  94 128 166 212 266 321 377
#     4   9  17  30  50  79 118 162 203 241 286 347
#
# _framework density 21.617726999999999
#
# number of rings (size 3 to 8) (size 9 to 14) (size 15 to 20)
#    0.000    1.600    0.000    4.800    0.000    7.200 
#    0.000    2.000    0.000    0.000    0.000    0.000 
#    0.000    0.000    0.000    0.000    0.000    0.000 
#
# Total GULP energy -495653.031434 kJ/mol
# GULP energy per Si atom -12391.325786 kJ/mol
# Density = 2.156852 g / cm^3
# Si number density = 21.617727 Si / 1000 Ang^3
#
#
#
# Elastic Constant Matrix: (Units=GPa)
#
#
# Indices 1 2 3 4 5 6 
#
# 1 125.8801 43.3507 50.2051 0.0000 0.0000 0.0000
# 2 43.3507 87.8921 31.8265 0.0000 0.0000 0.0000
# 3 50.2051 31.8265 112.2500 0.0000 0.0000 0.0000
# 4 0.0000 0.0000 0.0000 25.0538 0.0000 0.0000
# 5 0.0000 0.0000 0.0000 0.0000 40.4426 0.0000
# 6 0.0000 0.0000 0.0000 0.0000 0.0000 27.1362
#
#
#
# Elastic Compliance Matrix: (Units=1/GPa)
#
#
# Indices 1 2 3 4 5 6 
#
# 1 0.010790 -0.003983 -0.003697 0.000000 0.000000 0.000000
# 2 -0.003983 0.014150 -0.002230 0.000000 0.000000 0.000000
# 3 -0.003697 -0.002230 0.011194 0.000000 0.000000 0.000000
# 4 0.000000 0.000000 0.000000 0.039914 0.000000 0.000000
# 5 0.000000 0.000000 0.000000 0.000000 0.024726 0.000000
# 6 0.000000 0.000000 0.000000 0.000000 0.000000 0.036851
#
#
# Mechanical properties :
#
#
# Convention : Reuss Voigt Hill
#
# Bulk Modulus (GPa) = 61.29778 64.08742 62.69260
# Shear Modulus (GPa) = 30.69652 31.90252 31.29952
#
# Velocity S-wave (km/s) = 3.77234 3.84573 3.80921
# Velocity P-wave (km/s) = 6.88411 7.03062 6.95775
#
# Compressibility (1/GPa) = 0.01631381
#
# Stress axis : x y z
#
# Youngs Moduli (GPa) = 92.67648 70.67167 89.33033
#
# Poissons Ratio (x) = 0.28152 0.33022
# Poissons Ratio (y) = 0.36917 0.19924
# Poissons Ratio (z) = 0.34259 0.15762
#
# Static dielectric constant tensor:
#      x y z
#    x 3.938750 0.000000 0.000000 
#    y 0.000000 3.811210 0.000000 
#    z 0.000000 0.000000 4.389180 
# 
# 
# High freq. dielectric constant tensor:
#      x y z
#    x 1.841720 0.000000 0.000000 
#    y 0.000000 1.850320 0.000000 
#    z 0.000000 0.000000 1.855120 
# 
# From -- ./inp_files/63937.got.cif
#   From: 2010.03.12/outbox.cif.g09.slc.cpg/sg74_32_cif.got.tgz:63937.got - 2010.04.16 15:46:19.
