data_PCOD8300145
_publ_section_title
;
Structure prediction by ZEFSAII (Michael W. Deem and Ramdas Pophale) SiO2 
 PCOD8300145
Probable space group: I M M A
;
_chemical_formula_sum "Si O2"
_cell_formula_units_Z 96
_cell_length_a 8.890484
_cell_length_b 23.047224
_cell_length_c 25.344522
_cell_angle_alpha 90.000000
_cell_angle_beta 90.000000
_cell_angle_gamma 90.000000
_cell_volume 5193.117300
_symmetry_space_group_name_H-M "I M M A"
_symmetry_group_IT_number 74
_symmetry_cell_setting 'orthorhombic'
loop_
_space_group_symop_operation_xyz
x,y,z
-x,1/2-y,z
x,-y,-z
-x,1/2+y,-z
-x,-y,-z
x,1/2+y,-z
-x,y,z
x,1/2-y,z
1/2+x,1/2+y,1/2+z
1/2-x,-y,1/2+z
1/2+x,1/2-y,1/2-z
1/2-x,y,1/2-z
1/2-x,1/2-y,1/2-z
1/2+x,y,1/2-z
1/2-x,1/2+y,1/2+z
1/2+x,-y,1/2+z
loop_
_atom_site_type_symbol
_atom_site_label
_atom_site_fract_x
_atom_site_fract_y
_atom_site_fract_z
Si Si1 0.826654 0.991453 0.439473
Si Si2 0.326358 0.882359 0.898544
Si Si3 0.327558 0.317336 0.997264
Si Si4 0.176440 0.816432 0.305124
Si Si5 0.823395 0.377393 0.901858
Si Si6 0.323188 0.316057 0.304871
O O1 0.721666 0.943065 0.414219
O O2 0.000000 0.971205 0.437539
O O3 0.777561 0.000000 0.500000
O O4 0.801380 0.049230 0.405388
O O5 0.500000 0.866902 0.888259
O O6 0.230057 0.859845 0.849831
O O7 0.269335 0.851242 0.951557
O O8 0.500000 0.334327 0.984310
O O9 0.310071 0.250000 0.009174
O O10 0.225091 0.334363 0.948319
O O11 0.214772 0.750000 0.320129
O O12 0.250000 0.833796 0.250000
O O13 0.242661 0.858810 0.348549
O O14 0.000000 0.826465 0.300811
O O15 0.000000 0.372881 0.893764
O O16 0.500000 0.321451 0.298573
O O17 0.275185 0.250000 0.319050
O O18 0.250000 0.335685 0.250000
#
# Coordination Sequence:
#
# PCOD8300145 Si02
#       6
#    16  16  16  16  16  16
#     4  10  20  39  62  81 109 152 198 239 284 339
#     4  10  20  36  60  85 110 145 190 238 285 336
#     4  10  20  35  56  82 113 149 189 233 283 341
#     4  10  21  39  63  88 116 151 191 236 288 344
#     4  12  24  36  55  84 119 153 191 236 284 340
#     4  10  21  37  58  84 116 152 188 230 281 338
#
# _framework density 18.486006
#
# number of rings (size 3 to 8) (size 9 to 14) (size 15 to 20)
#    0.000    1.667    1.667    3.500    0.000    6.667 
#    0.000    0.833    0.000    4.000    0.000    0.000 
#    0.000    0.000    0.000    0.000    0.000    0.000 
#
# Total GULP energy -595465.413841 kJ/mol
# GULP energy per Si atom -12405.529455 kJ/mol
# Density = 1.844393 g / cm^3
# Si number density = 18.486006 Si / 1000 Ang^3
#
#
#
# Elastic Constant Matrix: (Units=GPa)
#
#
# Indices 1 2 3 4 5 6 
#
# 1 73.1685 26.2804 52.7315 0.0000 0.0000 0.0000
# 2 26.2804 75.3716 43.6024 0.0000 0.0000 0.0000
# 3 52.7315 43.6024 124.3861 0.0000 0.0000 0.0000
# 4 0.0000 0.0000 0.0000 6.0048 0.0000 0.0000
# 5 0.0000 0.0000 0.0000 0.0000 35.8909 0.0000
# 6 0.0000 0.0000 0.0000 0.0000 0.0000 19.4842
#
#
#
# Elastic Compliance Matrix: (Units=1/GPa)
#
#
# Indices 1 2 3 4 5 6 
#
# 1 0.020079 -0.002605 -0.007599 0.000000 0.000000 0.000000
# 2 -0.002605 0.016980 -0.004848 0.000000 0.000000 0.000000
# 3 -0.007599 -0.004848 0.012960 0.000000 0.000000 0.000000
# 4 0.000000 0.000000 0.000000 0.166534 0.000000 0.000000
# 5 0.000000 0.000000 0.000000 0.000000 0.027862 0.000000
# 6 0.000000 0.000000 0.000000 0.000000 0.000000 0.051324
#
#
# Mechanical properties :
#
#
# Convention : Reuss Voigt Hill
#
# Bulk Modulus (GPa) = 50.21128 57.57277 53.89203
# Shear Modulus (GPa) = 15.03834 22.29676 18.66755
#
# Velocity S-wave (km/s) = 2.85528 3.47672 3.18122
# Velocity P-wave (km/s) = 6.17179 6.87956 6.53526
#
# Compressibility (1/GPa) = 0.01991584
#
# Stress axis : x y z
#
# Youngs Moduli (GPa) = 49.80240 58.89115 77.15810
#
# Poissons Ratio (x) = 0.15342 0.58633
# Poissons Ratio (y) = 0.12974 0.37406
# Poissons Ratio (z) = 0.37845 0.28550
#
# Static dielectric constant tensor:
#      x y z
#    x 3.368660 0.000000 0.000000 
#    y 0.000000 3.404650 0.000000 
#    z 0.000000 0.000000 1.388980 
# 
# 
# High freq. dielectric constant tensor:
#      x y z
#    x 1.716110 0.000000 0.000000 
#    y 0.000000 1.718930 0.000000 
#    z 0.000000 0.000000 1.720370 
# 
# From -- ./inp_files/57251.got.cif
#   From: 2010.03.12/outbox.cif.g09.slc.cpg/sg74_29_cif.got.tgz:57251.got - 2010.04.16 15:46:19.
